CHEMBL3991_lig198
                    3D
 Schrodinger Suite 2021-1.
 83 87  0  0  1  0            999 V2000
    8.2506   41.8949   30.7410 S   0  0  0  0  0  0
    9.7260   42.4519   31.6388 C   0  0  0  0  0  0
   10.4575   41.6267   32.5229 C   0  0  0  0  0  0
    9.3306   40.0077   34.1130 C   0  0  0  0  0  0
   10.1179   40.1662   32.7872 C   0  0  2  0  0  0
    8.3814   40.9297   34.3424 N   0  0  0  0  0  0
   10.0756   43.8035   31.5261 C   0  0  0  0  0  0
   11.4725   42.2070   33.2971 C   0  0  0  0  0  0
    7.5142   41.0028   35.5189 C   0  0  2  0  0  0
   11.1126   44.3683   32.2834 C   0  0  0  0  0  0
    6.2763   40.0842   35.3610 C   0  0  0  0  0  0
   14.2442   37.6790   28.1583 C   0  0  0  0  0  0
   11.2848   39.2911   32.7457 N   0  0  0  0  0  0
   11.7723   43.5617   33.2218 C   0  0  0  0  0  0
    8.5183   40.6016   30.1040 O   0  0  0  0  0  0
    7.1404   42.0325   31.6908 O   0  0  0  0  0  0
    7.9715   43.0357   29.3864 C   0  0  0  0  0  0
   13.4524   38.0790   29.3411 C   0  0  0  0  0  0
   15.4340   37.2790   28.2918 N   0  0  0  0  0  0
    9.5310   39.0685   34.8899 O   0  0  0  0  0  0
   11.5310   45.6814   32.1469 O   0  0  0  0  0  0
    5.1307   40.4789   35.2970 O   0  0  0  0  0  0
    7.2311   42.4732   35.7570 C   0  0  0  0  0  0
   12.0008   38.8855   31.6086 C   0  0  0  0  0  0
   12.3076   38.8788   29.2195 C   0  0  0  0  0  0
   13.8447   37.6789   30.6304 C   0  0  0  0  0  0
   13.5406   37.6790   26.9764 N   0  0  0  0  0  0
    6.6733   38.7781   35.3019 O   0  0  0  0  0  0
   10.8075   46.6157   31.3383 C   0  0  0  0  0  0
   12.7306   44.0466   34.0829 O   0  0  0  0  0  0
   11.5955   39.2785   30.3362 C   0  0  0  0  0  0
   13.1309   38.0795   31.7530 C   0  0  0  0  0  0
   10.9434   46.4040   29.8258 C   0  0  0  0  0  0
    6.9993   44.0329   29.4922 C   0  0  0  0  0  0
    8.7308   42.9051   28.2207 C   0  0  0  0  0  0
    6.4957   43.2328   34.8337 C   0  0  0  0  0  0
    7.7517   43.1001   36.8970 C   0  0  0  0  0  0
   12.2544   44.9344   35.0896 C   0  0  0  0  0  0
   11.8733   45.5140   29.2710 C   0  0  0  0  0  0
   10.0911   47.1248   28.9833 C   0  0  0  0  0  0
    7.5344   44.4583   37.1142 C   0  0  0  0  0  0
    6.2818   44.5912   35.0489 C   0  0  0  0  0  0
    6.7836   44.9001   28.4242 C   0  0  0  0  0  0
    8.5093   43.7703   27.1527 C   0  0  0  0  0  0
   10.1554   46.9524   27.6038 C   0  0  0  0  0  0
   11.9286   45.3345   27.8889 C   0  0  0  0  0  0
    7.5361   44.7624   27.2591 C   0  0  0  0  0  0
    6.8016   45.1980   36.1896 C   0  0  0  0  0  0
   11.0729   46.0574   27.0611 C   0  0  0  0  0  0
    9.4426   39.7627   32.0446 H   0  0  0  0  0  0
    8.1837   41.6085   33.6168 H   0  0  0  0  0  0
    9.5206   44.4314   30.8498 H   0  0  0  0  0  0
   12.0201   41.6053   34.0086 H   0  0  0  0  0  0
    8.0570   40.6151   36.3855 H   0  0  0  0  0  0
   11.6313   38.9301   33.6275 H   0  0  0  0  0  0
   15.7982   36.9273   27.4138 H   0  0  0  0  0  0
   11.9717   39.2430   28.2589 H   0  0  0  0  0  0
   14.7220   37.0645   30.7739 H   0  0  0  0  0  0
   13.9647   37.2329   26.1659 H   0  0  0  0  0  0
   12.5913   38.0341   26.8974 H   0  0  0  0  0  0
    7.6338   38.6884   35.3201 H   0  0  0  0  0  0
    9.7554   46.6192   31.6299 H   0  0  0  0  0  0
   11.1940   47.6073   31.5725 H   0  0  0  0  0  0
   10.7482   39.9199   30.1896 H   0  0  0  0  0  0
   13.4758   37.7810   32.7315 H   0  0  0  0  0  0
    6.4110   44.1347   30.3937 H   0  0  0  0  0  0
    9.4889   42.1376   28.1401 H   0  0  0  0  0  0
    6.0941   42.7708   33.9427 H   0  0  0  0  0  0
    8.3317   42.5449   37.6207 H   0  0  0  0  0  0
   13.0634   45.1597   35.7848 H   0  0  0  0  0  0
   11.9108   45.8807   34.6719 H   0  0  0  0  0  0
   11.4394   44.4918   35.6652 H   0  0  0  0  0  0
   12.5376   44.9447   29.9041 H   0  0  0  0  0  0
    9.3680   47.8136   29.3976 H   0  0  0  0  0  0
    7.9311   44.9359   37.9992 H   0  0  0  0  0  0
    5.7214   45.1726   34.3308 H   0  0  0  0  0  0
    6.0336   45.6745   28.4962 H   0  0  0  0  0  0
    9.0957   43.6801   26.2497 H   0  0  0  0  0  0
    9.4869   47.5024   26.9577 H   0  0  0  0  0  0
   12.6208   44.6308   27.4516 H   0  0  0  0  0  0
    7.3675   45.4373   26.4331 H   0  0  0  0  0  0
    6.6399   46.2528   36.3576 H   0  0  0  0  0  0
   11.1053   45.9076   25.9902 H   0  0  0  0  0  0
  1  2  1  0  0  0
  1 15  2  0  0  0
  1 16  2  0  0  0
  1 17  1  0  0  0
  2  3  2  0  0  0
  2  7  1  0  0  0
  3  5  1  0  0  0
  3  8  1  0  0  0
  4  5  1  0  0  0
  4  6  1  0  0  0
  4 20  2  0  0  0
  5 13  1  0  0  0
  5 50  1  0  0  0
  6  9  1  0  0  0
  6 51  1  0  0  0
  7 10  2  0  0  0
  7 52  1  0  0  0
  8 14  2  0  0  0
  8 53  1  0  0  0
  9 11  1  0  0  0
  9 23  1  0  0  0
  9 54  1  0  0  0
 10 14  1  0  0  0
 10 21  1  0  0  0
 11 22  2  0  0  0
 11 28  1  0  0  0
 12 18  1  0  0  0
 12 19  2  0  0  0
 12 27  1  0  0  0
 13 24  1  0  0  0
 13 55  1  0  0  0
 14 30  1  0  0  0
 17 34  1  0  0  0
 17 35  2  0  0  0
 18 26  1  0  0  0
 18 25  2  0  0  0
 19 56  1  0  0  0
 21 29  1  0  0  0
 23 36  2  0  0  0
 23 37  1  0  0  0
 24 31  2  0  0  0
 24 32  1  0  0  0
 25 31  1  0  0  0
 25 57  1  0  0  0
 26 32  2  0  0  0
 26 58  1  0  0  0
 27 59  1  0  0  0
 27 60  1  0  0  0
 28 61  1  0  0  0
 29 33  1  0  0  0
 29 62  1  0  0  0
 29 63  1  0  0  0
 30 38  1  0  0  0
 31 64  1  0  0  0
 32 65  1  0  0  0
 33 39  1  0  0  0
 33 40  2  0  0  0
 34 43  2  0  0  0
 34 66  1  0  0  0
 35 44  1  0  0  0
 35 67  1  0  0  0
 36 42  1  0  0  0
 36 68  1  0  0  0
 37 41  2  0  0  0
 37 69  1  0  0  0
 38 70  1  0  0  0
 38 71  1  0  0  0
 38 72  1  0  0  0
 39 46  2  0  0  0
 39 73  1  0  0  0
 40 45  1  0  0  0
 40 74  1  0  0  0
 41 48  1  0  0  0
 41 75  1  0  0  0
 42 48  2  0  0  0
 42 76  1  0  0  0
 43 47  1  0  0  0
 43 77  1  0  0  0
 44 47  2  0  0  0
 44 78  1  0  0  0
 45 49  2  0  0  0
 45 79  1  0  0  0
 46 49  1  0  0  0
 46 80  1  0  0  0
 47 81  1  0  0  0
 48 82  1  0  0  0
 49 83  1  0  0  0
M  END
> <s_m_entry_id>
20619

> <s_m_entry_name>
dock_pv.2

> <s_m_Source_Path>
/home/csk/Desktop/cluster/DUD-E-result/fa7

> <s_m_Source_File>
dock_pv.maegz

> <i_m_Source_File_Index>
2

> <chembl_id>
CHEMBL178134

> <chembl_pref_name>
None

> <i_lp_mmshare_version>
53161

> <r_lp_tautomer_probability>
1

> <s_lp_Force_Field>
OPLS_2005

> <r_lp_Energy>
32.516657

> <b_lp_Chiralities_Consistent>
1

> <s_lp_Variant>
CHEMBL3991_lig198-1

> <s_i_glide_gridfile>
glide-grid_1w7x

> <i_i_glide_lignum>
221

> <i_i_glide_rotatable_bonds>
16

> <r_i_docking_score>
-9.5911146371964

> <r_i_glide_ligand_efficiency>
-0.195737033412171

> <r_i_glide_ligand_efficiency_sa>
-0.716261643098929

> <r_i_glide_ligand_efficiency_ln>
-1.96064328873667

> <r_i_glide_gscore>
-9.5911146371964

> <r_i_glide_lipo>
-3.64391021839316

> <r_i_glide_hbond>
-0.845633005926731

> <r_i_glide_metal>
0

> <r_i_glide_rewards>
-0.535565647154061

> <r_i_glide_evdw>
-54.9996948242188

> <r_i_glide_ecoul>
-14.1840238571167

> <r_i_glide_erotb>
0.390497405346788

> <r_i_glide_esite>
-0.0789148512907968

> <r_i_glide_emodel>
-102.558942082338

> <r_i_glide_energy>
-69.1837186813354

> <r_i_glide_einternal>
16.1831092834473

> <i_i_glide_confnum>
28

> <i_i_glide_posenum>
129

> <r_i_glide_eff_state_penalty>
0

> <s_user_duplicate_titles>
CHEMBL3991_lig198

> <i_f3d_flags>
0

> <s_m_subgroup_title>
dock_pv

> <s_m_subgroupid>
dock_pv

> <b_m_subgroup_collapsed>
1

$$$$
CHEMBL3991_lig199
                    3D
 Schrodinger Suite 2021-1.
 85 89  0  0  1  0            999 V2000
   10.2889   41.6009   32.3481 C   0  0  0  0  0  0
    9.5925   42.2709   31.3154 C   0  0  0  0  0  0
    9.3047   40.0231   34.0976 C   0  0  0  0  0  0
   10.0362   40.1466   32.7326 C   0  0  2  0  0  0
    8.3668   40.9498   34.3421 N   0  0  0  0  0  0
    8.4504   41.6560   30.5685 C   0  0  0  0  0  0
   11.2341   42.3110   33.0950 C   0  0  0  0  0  0
    9.8951   43.6131   31.0482 C   0  0  0  0  0  0
    7.5109   41.0199   35.5270 C   0  0  2  0  0  0
    6.2775   40.0924   35.3816 C   0  0  0  0  0  0
   10.8401   44.3186   31.8098 C   0  0  0  0  0  0
   14.3776   37.6785   28.2722 C   0  0  0  0  0  0
   11.2406   39.3306   32.7157 N   0  0  0  0  0  0
   11.4887   43.6661   32.8669 C   0  0  0  0  0  0
   13.5077   38.0754   29.4022 C   0  0  0  0  0  0
   15.5515   37.2790   28.4859 N   0  0  0  0  0  0
    9.5312   39.1016   34.8908 O   0  0  0  0  0  0
   11.1706   45.6466   31.5862 O   0  0  0  0  0  0
    8.5623   41.6696   29.0292 C   0  0  0  0  0  0
    7.5435   41.0399   31.1361 O   0  0  0  0  0  0
    5.1311   40.4791   35.2970 O   0  0  0  0  0  0
    7.2247   42.4882   35.7623 C   0  0  0  0  0  0
   11.9683   38.8991   31.5988 C   0  0  0  0  0  0
   13.8695   37.7212   30.7130 C   0  0  0  0  0  0
   12.3308   38.8177   29.2198 C   0  0  0  0  0  0
   13.7768   37.6790   27.0393 N   0  0  0  0  0  0
    6.6796   38.7875   35.3533 O   0  0  0  0  0  0
   10.3815   46.4704   30.7200 C   0  0  0  0  0  0
   12.3310   44.4151   33.6652 O   0  0  0  0  0  0
   13.1183   38.1394   31.8002 C   0  0  0  0  0  0
   11.5652   39.2206   30.3035 C   0  0  0  0  0  0
    7.5069   40.7943   28.3555 C   0  0  0  0  0  0
   10.6308   46.2282   29.2293 C   0  0  0  0  0  0
    6.4873   43.2421   34.8369 C   0  0  0  0  0  0
    7.7492   43.1193   36.8971 C   0  0  0  0  0  0
    7.7058   39.4144   28.2399 C   0  0  0  0  0  0
    6.3471   41.3784   27.8423 C   0  0  0  0  0  0
   12.9785   43.8200   34.7859 C   0  0  0  0  0  0
   11.7354   45.4986   28.7752 C   0  0  0  0  0  0
    9.7190   46.7504   28.3063 C   0  0  0  0  0  0
    7.5310   44.4778   37.1101 C   0  0  0  0  0  0
    6.2714   44.6008   35.0503 C   0  0  0  0  0  0
    9.8981   46.5334   26.9419 C   0  0  0  0  0  0
   11.9081   45.2788   27.4108 C   0  0  0  0  0  0
    5.3844   40.5862   27.2213 C   0  0  0  0  0  0
    6.7364   38.6207   27.6285 C   0  0  0  0  0  0
    5.5840   39.2110   27.1173 C   0  0  0  0  0  0
    6.7923   45.2124   36.1872 C   0  0  0  0  0  0
   10.9931   45.7961   26.5010 C   0  0  0  0  0  0
    9.3754   39.6787   32.0121 H   0  0  0  0  0  0
    8.1735   41.6314   33.6198 H   0  0  0  0  0  0
   11.7506   41.7893   33.8868 H   0  0  0  0  0  0
    9.3635   44.1231   30.2589 H   0  0  0  0  0  0
    8.0637   40.6380   36.3896 H   0  0  0  0  0  0
   11.5953   39.0051   33.6071 H   0  0  0  0  0  0
   15.9673   36.9431   27.6259 H   0  0  0  0  0  0
    8.4646   42.6956   28.6747 H   0  0  0  0  0  0
    9.5557   41.3245   28.7401 H   0  0  0  0  0  0
   14.7619   37.1441   30.9050 H   0  0  0  0  0  0
   12.0109   39.1300   28.2362 H   0  0  0  0  0  0
   14.2424   37.2093   26.2636 H   0  0  0  0  0  0
   12.8284   38.0047   26.9018 H   0  0  0  0  0  0
    7.6395   38.7026   35.3772 H   0  0  0  0  0  0
    9.3212   46.3628   30.9586 H   0  0  0  0  0  0
   10.6370   47.5079   30.9378 H   0  0  0  0  0  0
   13.4536   37.8916   32.7968 H   0  0  0  0  0  0
   10.6784   39.8039   30.1219 H   0  0  0  0  0  0
    6.0907   42.7753   33.9463 H   0  0  0  0  0  0
    8.3310   42.5666   37.6211 H   0  0  0  0  0  0
    8.6067   38.9575   28.6231 H   0  0  0  0  0  0
    6.1895   42.4440   27.9244 H   0  0  0  0  0  0
   13.6018   44.5641   35.2822 H   0  0  0  0  0  0
   12.2451   43.4730   35.5119 H   0  0  0  0  0  0
   13.6266   42.9915   34.4969 H   0  0  0  0  0  0
   12.4493   45.0875   29.4741 H   0  0  0  0  0  0
    8.8644   47.3188   28.6446 H   0  0  0  0  0  0
    7.9312   44.9602   37.9902 H   0  0  0  0  0  0
    5.7091   45.1819   34.3336 H   0  0  0  0  0  0
    9.1887   46.9261   26.2285 H   0  0  0  0  0  0
   12.7309   44.6835   27.0511 H   0  0  0  0  0  0
    4.4896   41.0364   26.8177 H   0  0  0  0  0  0
    6.8914   37.5561   27.5243 H   0  0  0  0  0  0
    4.8453   38.5964   26.6230 H   0  0  0  0  0  0
    6.6292   46.2673   36.3529 H   0  0  0  0  0  0
   11.1317   45.6134   25.4460 H   0  0  0  0  0  0
  1  2  2  0  0  0
  1  4  1  0  0  0
  1  7  1  0  0  0
  2  6  1  0  0  0
  2  8  1  0  0  0
  3  4  1  0  0  0
  3  5  1  0  0  0
  3 17  2  0  0  0
  4 13  1  0  0  0
  4 50  1  0  0  0
  5  9  1  0  0  0
  5 51  1  0  0  0
  6 19  1  0  0  0
  6 20  2  0  0  0
  7 14  2  0  0  0
  7 52  1  0  0  0
  8 11  2  0  0  0
  8 53  1  0  0  0
  9 10  1  0  0  0
  9 22  1  0  0  0
  9 54  1  0  0  0
 10 21  2  0  0  0
 10 27  1  0  0  0
 11 14  1  0  0  0
 11 18  1  0  0  0
 12 15  1  0  0  0
 12 16  2  0  0  0
 12 26  1  0  0  0
 13 23  1  0  0  0
 13 55  1  0  0  0
 14 29  1  0  0  0
 15 25  2  0  0  0
 15 24  1  0  0  0
 16 56  1  0  0  0
 18 28  1  0  0  0
 19 32  1  0  0  0
 19 57  1  0  0  0
 19 58  1  0  0  0
 22 34  2  0  0  0
 22 35  1  0  0  0
 23 30  1  0  0  0
 23 31  2  0  0  0
 24 30  2  0  0  0
 24 59  1  0  0  0
 25 31  1  0  0  0
 25 60  1  0  0  0
 26 61  1  0  0  0
 26 62  1  0  0  0
 27 63  1  0  0  0
 28 33  1  0  0  0
 28 64  1  0  0  0
 28 65  1  0  0  0
 29 38  1  0  0  0
 30 66  1  0  0  0
 31 67  1  0  0  0
 32 36  2  0  0  0
 32 37  1  0  0  0
 33 39  1  0  0  0
 33 40  2  0  0  0
 34 42  1  0  0  0
 34 68  1  0  0  0
 35 41  2  0  0  0
 35 69  1  0  0  0
 36 46  1  0  0  0
 36 70  1  0  0  0
 37 45  2  0  0  0
 37 71  1  0  0  0
 38 72  1  0  0  0
 38 73  1  0  0  0
 38 74  1  0  0  0
 39 44  2  0  0  0
 39 75  1  0  0  0
 40 43  1  0  0  0
 40 76  1  0  0  0
 41 48  1  0  0  0
 41 77  1  0  0  0
 42 48  2  0  0  0
 42 78  1  0  0  0
 43 49  2  0  0  0
 43 79  1  0  0  0
 44 49  1  0  0  0
 44 80  1  0  0  0
 45 47  1  0  0  0
 45 81  1  0  0  0
 46 47  2  0  0  0
 46 82  1  0  0  0
 47 83  1  0  0  0
 48 84  1  0  0  0
 49 85  1  0  0  0
M  END
> <s_m_entry_id>
20620

> <s_m_entry_name>
dock_pv.3

> <s_m_Source_Path>
/home/csk/Desktop/cluster/DUD-E-result/fa7

> <s_m_Source_File>
dock_pv.maegz

> <i_m_Source_File_Index>
3

> <chembl_id>
CHEMBL366921

> <chembl_pref_name>
None

> <i_lp_mmshare_version>
53161

> <r_lp_tautomer_probability>
0.99990000499975

> <s_lp_Force_Field>
OPLS_2005

> <r_lp_Energy>
35.598635

> <b_lp_Chiralities_Consistent>
1

> <s_lp_Variant>
CHEMBL3991_lig199-1

> <s_i_glide_gridfile>
glide-grid_1w7x

> <i_i_glide_lignum>
222

> <i_i_glide_rotatable_bonds>
17

> <r_i_docking_score>
-9.4825633353992

> <r_i_glide_ligand_efficiency>
-0.193521700722433

> <r_i_glide_ligand_efficiency_sa>
-0.708155063548284

> <r_i_glide_ligand_efficiency_ln>
-1.93845291885756

> <r_i_glide_gscore>
-9.4825633353992

> <r_i_glide_lipo>
-3.43450018437762

> <r_i_glide_hbond>
-0.816512095335392

> <r_i_glide_metal>
0

> <r_i_glide_rewards>
-0.539131531655351

> <r_i_glide_evdw>
-57.372386932373

> <r_i_glide_ecoul>
-14.7797908782959

> <r_i_glide_erotb>
0.486363213297479

> <r_i_glide_esite>
-0.0931947589652791

> <r_i_glide_emodel>
-109.357977882231

> <r_i_glide_energy>
-72.1521778106689

> <r_i_glide_einternal>
8.9591007232666

> <i_i_glide_confnum>
1

> <i_i_glide_posenum>
47

> <r_i_glide_eff_state_penalty>
0

> <s_user_duplicate_titles>
CHEMBL3991_lig199

> <i_f3d_flags>
0

> <s_m_subgroup_title>
dock_pv

> <s_m_subgroupid>
dock_pv

> <b_m_subgroup_collapsed>
1

$$$$
CHEMBL3991_lig196
                    3D
 Schrodinger Suite 2021-1.
 80 84  0  0  1  0            999 V2000
    7.9901   41.5905   30.5866 S   0  0  0  0  0  0
    9.3926   42.3024   31.4951 C   0  0  0  0  0  0
   10.1851   41.5828   32.4213 C   0  0  0  0  0  0
    9.9671   40.1235   32.7682 C   0  0  2  0  0  0
    9.6408   43.6682   31.3142 C   0  0  0  0  0  0
   11.1868   42.2608   33.1285 C   0  0  0  0  0  0
    9.2508   39.9690   34.1480 C   0  0  0  0  0  0
   10.6376   44.3258   32.0286 C   0  0  0  0  0  0
   14.3534   37.6790   28.2483 C   0  0  0  0  0  0
   11.1947   39.3243   32.6983 N   0  0  0  0  0  0
   11.4067   43.6312   32.9668 C   0  0  0  0  0  0
    8.3794   40.2921   30.0263 O   0  0  0  0  0  0
    6.8223   41.6958   31.4695 O   0  0  0  0  0  0
    9.5174   38.8800   34.8976 N   0  0  0  0  0  0
    7.6994   42.6475   29.1646 C   0  0  0  0  0  0
   13.4794   38.0738   29.3778 C   0  0  0  0  0  0
   15.5342   37.2951   28.4567 N   0  0  0  0  0  0
   10.8230   45.6711   31.8222 O   0  0  0  0  0  0
    8.4238   40.8119   34.4987 O   0  0  0  0  0  0
   11.9311   38.9136   31.5750 C   0  0  0  0  0  0
   12.3300   38.8588   29.1974 C   0  0  0  0  0  0
   13.8186   37.6957   30.6880 C   0  0  0  0  0  0
   13.7514   37.6789   27.0186 N   0  0  0  0  0  0
    8.9237   38.5780   36.2025 C   0  0  0  0  0  0
   11.8565   45.9961   30.8968 C   0  0  0  0  0  0
   12.3301   44.3479   33.7017 O   0  0  0  0  0  0
   13.0619   38.1209   31.7710 C   0  0  0  0  0  0
   11.5705   39.2782   30.2821 C   0  0  0  0  0  0
    7.7814   37.5763   36.1186 C   0  0  0  0  0  0
   11.2978   46.0931   29.4846 C   0  0  0  0  0  0
    6.6557   43.5773   29.1721 C   0  0  0  0  0  0
    8.5395   42.5345   28.0538 C   0  0  0  0  0  0
   13.1327   43.6861   34.6723 C   0  0  0  0  0  0
   10.4150   47.1249   29.1561 C   0  0  0  0  0  0
    6.6416   37.8676   35.3616 C   0  0  0  0  0  0
    7.8631   36.3701   36.8203 C   0  0  0  0  0  0
   11.6773   45.1615   28.5168 C   0  0  0  0  0  0
    6.4564   44.3993   28.0652 C   0  0  0  0  0  0
    8.3319   43.3520   26.9460 C   0  0  0  0  0  0
   11.1983   45.2788   27.2161 C   0  0  0  0  0  0
    9.9242   47.2328   27.8574 C   0  0  0  0  0  0
    5.5955   36.9509   35.2976 C   0  0  0  0  0  0
    6.8179   35.4528   36.7516 C   0  0  0  0  0  0
    7.2949   44.2825   26.9579 C   0  0  0  0  0  0
    5.6895   35.7457   35.9894 C   0  0  0  0  0  0
   10.3232   46.3112   26.8906 C   0  0  0  0  0  0
    9.2783   39.6789   32.0672 H   0  0  0  0  0  0
    9.0480   44.2565   30.6309 H   0  0  0  0  0  0
   11.7753   41.7017   33.8395 H   0  0  0  0  0  0
   11.6670   39.1234   33.5698 H   0  0  0  0  0  0
   10.0962   38.1538   34.4976 H   0  0  0  0  0  0
   15.9476   36.9741   27.5903 H   0  0  0  0  0  0
   12.0329   39.1970   28.2150 H   0  0  0  0  0  0
   14.6919   37.0846   30.8799 H   0  0  0  0  0  0
   14.2102   37.2150   26.2354 H   0  0  0  0  0  0
   12.8037   38.0051   26.9007 H   0  0  0  0  0  0
    8.5320   39.4788   36.6795 H   0  0  0  0  0  0
    9.7096   38.2034   36.8612 H   0  0  0  0  0  0
   12.2649   46.9703   31.1629 H   0  0  0  0  0  0
   12.6962   45.2974   30.9444 H   0  0  0  0  0  0
   13.3765   37.8376   32.7634 H   0  0  0  0  0  0
   10.7270   39.9163   30.1022 H   0  0  0  0  0  0
    6.0081   43.6730   30.0323 H   0  0  0  0  0  0
    9.3539   41.8225   28.0559 H   0  0  0  0  0  0
   13.8200   44.4030   35.1213 H   0  0  0  0  0  0
   12.5137   43.2834   35.4702 H   0  0  0  0  0  0
   13.7274   42.8783   34.2408 H   0  0  0  0  0  0
   10.1148   47.8436   29.9058 H   0  0  0  0  0  0
    6.5683   38.8016   34.8226 H   0  0  0  0  0  0
    8.7332   36.1332   37.4175 H   0  0  0  0  0  0
   12.3351   44.3437   28.7675 H   0  0  0  0  0  0
    5.6574   45.1269   28.0648 H   0  0  0  0  0  0
    8.9813   43.2783   26.0870 H   0  0  0  0  0  0
   11.4946   44.5530   26.4732 H   0  0  0  0  0  0
    9.2406   48.0289   27.6021 H   0  0  0  0  0  0
    4.7132   37.1763   34.7181 H   0  0  0  0  0  0
    6.8832   34.5216   37.2965 H   0  0  0  0  0  0
    7.1437   44.9255   26.1032 H   0  0  0  0  0  0
    4.8777   35.0347   35.9450 H   0  0  0  0  0  0
    9.9440   46.3902   25.8814 H   0  0  0  0  0  0
  1  2  1  0  0  0
  1 12  2  0  0  0
  1 13  2  0  0  0
  1 15  1  0  0  0
  2  3  2  0  0  0
  2  5  1  0  0  0
  3  4  1  0  0  0
  3  6  1  0  0  0
  4  7  1  0  0  0
  4 10  1  0  0  0
  4 47  1  0  0  0
  5  8  2  0  0  0
  5 48  1  0  0  0
  6 11  2  0  0  0
  6 49  1  0  0  0
  7 14  1  0  0  0
  7 19  2  0  0  0
  8 11  1  0  0  0
  8 18  1  0  0  0
  9 16  1  0  0  0
  9 17  2  0  0  0
  9 23  1  0  0  0
 10 20  1  0  0  0
 10 50  1  0  0  0
 11 26  1  0  0  0
 14 24  1  0  0  0
 14 51  1  0  0  0
 15 31  2  0  0  0
 15 32  1  0  0  0
 16 21  2  0  0  0
 16 22  1  0  0  0
 17 52  1  0  0  0
 18 25  1  0  0  0
 20 27  1  0  0  0
 20 28  2  0  0  0
 21 28  1  0  0  0
 21 53  1  0  0  0
 22 27  2  0  0  0
 22 54  1  0  0  0
 23 55  1  0  0  0
 23 56  1  0  0  0
 24 29  1  0  0  0
 24 57  1  0  0  0
 24 58  1  0  0  0
 25 30  1  0  0  0
 25 59  1  0  0  0
 25 60  1  0  0  0
 26 33  1  0  0  0
 27 61  1  0  0  0
 28 62  1  0  0  0
 29 35  1  0  0  0
 29 36  2  0  0  0
 30 34  2  0  0  0
 30 37  1  0  0  0
 31 38  1  0  0  0
 31 63  1  0  0  0
 32 39  2  0  0  0
 32 64  1  0  0  0
 33 65  1  0  0  0
 33 66  1  0  0  0
 33 67  1  0  0  0
 34 41  1  0  0  0
 34 68  1  0  0  0
 35 42  2  0  0  0
 35 69  1  0  0  0
 36 43  1  0  0  0
 36 70  1  0  0  0
 37 40  2  0  0  0
 37 71  1  0  0  0
 38 44  2  0  0  0
 38 72  1  0  0  0
 39 44  1  0  0  0
 39 73  1  0  0  0
 40 46  1  0  0  0
 40 74  1  0  0  0
 41 46  2  0  0  0
 41 75  1  0  0  0
 42 45  1  0  0  0
 42 76  1  0  0  0
 43 45  2  0  0  0
 43 77  1  0  0  0
 44 78  1  0  0  0
 45 79  1  0  0  0
 46 80  1  0  0  0
M  END
> <s_m_entry_id>
20621

> <s_m_entry_name>
dock_pv.4

> <s_m_Source_Path>
/home/csk/Desktop/cluster/DUD-E-result/fa7

> <s_m_Source_File>
dock_pv.maegz

> <i_m_Source_File_Index>
4

> <chembl_id>
CHEMBL180104

> <chembl_pref_name>
None

> <i_lp_mmshare_version>
53161

> <r_lp_tautomer_probability>
1

> <s_lp_Force_Field>
OPLS_2005

> <r_lp_Energy>
31.066779

> <b_lp_Chiralities_Consistent>
1

> <s_lp_Variant>
CHEMBL3991_lig196-1

> <s_i_glide_gridfile>
glide-grid_1w7x

> <i_i_glide_lignum>
218

> <i_i_glide_rotatable_bonds>
14

> <r_i_docking_score>
-9.2103769287025

> <r_i_glide_ligand_efficiency>
-0.200225585406576

> <r_i_glide_ligand_efficiency_sa>
-0.717417856598375

> <r_i_glide_ligand_efficiency_ln>
-1.90744687219874

> <r_i_glide_gscore>
-9.2103769287025

> <r_i_glide_lipo>
-3.57034638015549

> <r_i_glide_hbond>
-0.697084762944414

> <r_i_glide_metal>
0

> <r_i_glide_rewards>
-0.561466721326307

> <r_i_glide_evdw>
-57.1809196472168

> <r_i_glide_ecoul>
-12.4653701782227

> <r_i_glide_erotb>
0.436289855891995

> <r_i_glide_esite>
-0.0889174110740414

> <r_i_glide_emodel>
-102.023163318739

> <r_i_glide_energy>
-69.6462898254395

> <r_i_glide_einternal>
11.1790742874146

> <i_i_glide_confnum>
16

> <i_i_glide_posenum>
257

> <r_i_glide_eff_state_penalty>
0

> <s_user_duplicate_titles>
CHEMBL3991_lig196

> <i_f3d_flags>
0

> <s_m_subgroup_title>
dock_pv

> <s_m_subgroupid>
dock_pv

> <b_m_subgroup_collapsed>
1

$$$$
CHEMBL3991_lig380
                    3D
 Schrodinger Suite 2021-1.
 75 79  0  0  1  0            999 V2000
    8.5441   37.6134   37.4010 C   0  0  0  0  0  0
    7.7023   38.0733   38.5953 C   0  0  0  0  0  0
    6.3077   39.2613   38.1133 S   0  0  0  0  0  0
    5.4996   38.6693   37.0423 O   0  0  0  0  0  0
    5.6441   39.6436   39.3628 O   0  0  0  0  0  0
    7.0873   40.7740   37.4845 C   0  0  0  0  0  0
    7.5308   41.6812   38.4513 C   0  0  0  0  0  0
    8.0028   42.9451   38.0968 C   0  0  0  0  0  0
    8.0933   43.3198   36.7651 C   0  0  0  0  0  0
    8.6731   44.5628   36.4629 N   0  0  0  0  0  0
    8.5289   45.2869   35.2865 C   0  0  0  0  0  0
    7.6923   45.0804   34.4039 O   0  0  0  0  0  0
    9.4879   46.2395   35.2206 O   0  0  0  0  0  0
    9.8365   46.8398   33.9675 C   0  0  0  0  0  0
   11.0447   46.1422   33.2978 C   0  0  0  0  0  0
   10.8758   44.6299   33.0821 C   0  0  0  0  0  0
    9.9506   44.1462   32.1325 C   0  0  0  0  0  0
    9.1672   45.0680   31.2036 C   0  0  0  0  0  0
    9.7138   42.7729   32.0268 C   0  0  0  0  0  0
   10.3993   41.8554   32.8234 C   0  0  0  0  0  0
   11.3730   42.3381   33.6968 C   0  0  0  0  0  0
   11.6011   43.7045   33.8610 C   0  0  0  0  0  0
   12.6048   44.1216   34.9335 C   0  0  0  0  0  0
   10.0554   40.3815   32.7593 C   0  0  1  0  0  0
   11.2254   39.5174   32.6890 N   0  0  0  0  0  0
   11.9075   39.0554   31.5558 C   0  0  0  0  0  0
   11.3209   39.1158   30.2941 C   0  0  0  0  0  0
   11.9747   38.6102   29.1883 C   0  0  0  0  0  0
   13.2857   38.0921   29.2966 C   0  0  0  0  0  0
   14.0725   37.6791   28.1920 C   0  0  0  0  0  0
   13.5589   37.6790   26.8972 N   0  0  0  0  0  0
   15.3594   37.2792   28.3032 N   0  0  0  0  0  0
   15.9302   37.2793   29.5282 C   0  0  0  0  0  0
   15.2529   37.6732   30.6799 C   0  0  0  0  0  0
   13.8994   38.0619   30.5826 C   0  0  0  0  0  0
   13.1606   38.4787   31.7105 C   0  0  0  0  0  0
    9.1507   39.9524   33.9463 C   0  0  0  0  0  0
    9.5802   39.2815   34.8920 O   0  0  0  0  0  0
    7.8554   40.3014   33.8466 N   0  0  0  0  0  0
    6.9207   40.1605   34.9649 C   0  0  0  0  0  0
    7.1983   41.1300   36.1211 C   0  0  0  0  0  0
    7.6892   42.4043   35.7892 C   0  0  0  0  0  0
    9.1324   36.7335   37.6670 H   0  0  0  0  0  0
    7.9346   37.3469   36.5354 H   0  0  0  0  0  0
    9.2477   38.3971   37.1231 H   0  0  0  0  0  0
    8.3230   38.5742   39.3354 H   0  0  0  0  0  0
    7.2227   37.2189   39.0741 H   0  0  0  0  0  0
    7.4822   41.4278   39.5020 H   0  0  0  0  0  0
    8.3347   43.6189   38.8764 H   0  0  0  0  0  0
    9.2675   44.9713   37.1695 H   0  0  0  0  0  0
   10.0965   47.8855   34.1229 H   0  0  0  0  0  0
    8.9813   46.8658   33.2906 H   0  0  0  0  0  0
   11.9308   46.3549   33.8895 H   0  0  0  0  0  0
   11.2592   46.6187   32.3431 H   0  0  0  0  0  0
    8.8711   44.5479   30.2915 H   0  0  0  0  0  0
    8.2678   45.4386   31.6960 H   0  0  0  0  0  0
    9.7634   45.9161   30.8730 H   0  0  0  0  0  0
    8.9791   42.4165   31.3199 H   0  0  0  0  0  0
   11.9356   41.6411   34.2959 H   0  0  0  0  0  0
   12.8666   43.2912   35.5861 H   0  0  0  0  0  0
   13.5341   44.4786   34.4957 H   0  0  0  0  0  0
   12.1962   44.9037   35.5754 H   0  0  0  0  0  0
    9.4551   40.2113   31.8684 H   0  0  0  0  0  0
   11.6119   39.2084   33.5723 H   0  0  0  0  0  0
   10.3431   39.5387   30.1348 H   0  0  0  0  0  0
   11.5027   38.6821   28.2285 H   0  0  0  0  0  0
   12.6082   37.9943   26.7095 H   0  0  0  0  0  0
   14.1024   37.1807   26.1895 H   0  0  0  0  0  0
   16.9663   36.9696   29.5705 H   0  0  0  0  0  0
   15.7456   37.6796   31.6392 H   0  0  0  0  0  0
   13.6203   38.4355   32.6875 H   0  0  0  0  0  0
    7.5570   40.8486   33.0508 H   0  0  0  0  0  0
    6.9624   39.1227   35.2826 H   0  0  0  0  0  0
    5.9082   40.3420   34.6043 H   0  0  0  0  0  0
    7.7988   42.6682   34.7484 H   0  0  0  0  0  0
  1  2  1  0  0  0
  1 43  1  0  0  0
  1 44  1  0  0  0
  1 45  1  0  0  0
  2  3  1  0  0  0
  2 46  1  0  0  0
  2 47  1  0  0  0
  3  4  2  0  0  0
  3  5  2  0  0  0
  3  6  1  0  0  0
  6  7  2  0  0  0
  6 41  1  0  0  0
  7  8  1  0  0  0
  7 48  1  0  0  0
  8  9  2  0  0  0
  8 49  1  0  0  0
  9 10  1  0  0  0
  9 42  1  0  0  0
 10 11  1  0  0  0
 10 50  1  0  0  0
 11 12  2  0  0  0
 11 13  1  0  0  0
 13 14  1  0  0  0
 14 15  1  0  0  0
 14 51  1  0  0  0
 14 52  1  0  0  0
 15 16  1  0  0  0
 15 53  1  0  0  0
 15 54  1  0  0  0
 16 17  2  0  0  0
 16 22  1  0  0  0
 17 18  1  0  0  0
 17 19  1  0  0  0
 18 55  1  0  0  0
 18 56  1  0  0  0
 18 57  1  0  0  0
 19 20  2  0  0  0
 19 58  1  0  0  0
 20 21  1  0  0  0
 20 24  1  0  0  0
 21 22  2  0  0  0
 21 59  1  0  0  0
 22 23  1  0  0  0
 23 60  1  0  0  0
 23 61  1  0  0  0
 23 62  1  0  0  0
 24 25  1  0  0  0
 24 37  1  0  0  0
 24 63  1  0  0  0
 25 26  1  0  0  0
 25 64  1  0  0  0
 26 27  2  0  0  0
 26 36  1  0  0  0
 27 28  1  0  0  0
 27 65  1  0  0  0
 28 29  2  0  0  0
 28 66  1  0  0  0
 29 30  1  0  0  0
 29 35  1  0  0  0
 30 31  1  0  0  0
 30 32  2  0  0  0
 31 67  1  0  0  0
 31 68  1  0  0  0
 32 33  1  0  0  0
 33 34  2  0  0  0
 33 69  1  0  0  0
 34 35  1  0  0  0
 34 70  1  0  0  0
 35 36  2  0  0  0
 36 71  1  0  0  0
 37 38  2  0  0  0
 37 39  1  0  0  0
 39 40  1  0  0  0
 39 72  1  0  0  0
 40 41  1  0  0  0
 40 73  1  0  0  0
 40 74  1  0  0  0
 41 42  2  0  0  0
 42 75  1  0  0  0
M  END
> <s_m_entry_id>
20622

> <s_m_entry_name>
dock_pv.5

> <s_m_Source_Path>
/home/csk/Desktop/cluster/DUD-E-result/fa7

> <s_m_Source_File>
dock_pv.maegz

> <i_m_Source_File_Index>
5

> <chembl_id>
CHEMBL4114547

> <chembl_pref_name>
None

> <i_lp_mmshare_version>
53161

> <r_lp_tautomer_probability>
1

> <s_lp_Force_Field>
OPLS_2005

> <r_lp_Energy>
23.561377

> <b_lp_Chiralities_Consistent>
1

> <s_lp_Variant>
CHEMBL3991_lig380-1

> <s_i_glide_gridfile>
glide-grid_1w7x

> <i_i_glide_lignum>
522

> <i_i_glide_rotatable_bonds>
4

> <r_i_docking_score>
-8.8568413662105

> <r_i_glide_ligand_efficiency>
-0.210877175385964

> <r_i_glide_ligand_efficiency_sa>
-0.733014679526749

> <r_i_glide_ligand_efficiency_ln>
-1.86945103390718

> <r_i_glide_gscore>
-8.8568413662105

> <r_i_glide_lipo>
-3.5408319041288

> <r_i_glide_hbond>
-0.685853007003801

> <r_i_glide_metal>
0

> <r_i_glide_rewards>
-0.213150316670605

> <r_i_glide_evdw>
-46.1439895629883

> <r_i_glide_ecoul>
-13.3495149612427

> <r_i_glide_erotb>
0.0755459151174488

> <r_i_glide_esite>
-0.182925331188925

> <r_i_glide_emodel>
-80.6133896707423

> <r_i_glide_energy>
-59.493504524231

> <r_i_glide_einternal>
2.1718955039978

> <i_i_glide_confnum>
2

> <i_i_glide_posenum>
20

> <r_i_glide_eff_state_penalty>
0

> <s_user_duplicate_titles>
CHEMBL3991_lig380

> <i_f3d_flags>
0

> <s_m_subgroup_title>
dock_pv

> <s_m_subgroupid>
dock_pv

> <b_m_subgroup_collapsed>
1

$$$$
CHEMBL3991_lig214
                    3D
 Schrodinger Suite 2021-1.
 63 67  0  0  1  0            999 V2000
    8.7672   42.9725   29.0178 C   0  0  0  0  0  0
    9.4221   44.1786   28.3854 C   0  0  0  0  0  0
   11.2783   44.2384   34.3571 N   0  3  0  0  0  0
    8.7289   42.8866   30.3788 N   0  0  0  0  0  0
   14.1955   37.6789   28.1868 C   0  0  0  0  0  0
    8.7193   45.0195   27.4536 C   0  0  0  0  0  0
   13.3682   38.0802   29.3473 C   0  0  0  0  0  0
   11.5008   39.3735   30.2926 C   0  0  0  0  0  0
   11.4835   45.3674   35.1263 C   0  0  0  0  0  0
   12.2251   38.8790   29.1894 C   0  0  0  0  0  0
   12.7311   45.2789   35.6971 N   0  0  0  0  0  0
    8.4615   41.5954   31.0361 C   0  0  0  0  0  0
   15.3814   37.2791   28.3552 N   0  0  0  0  0  0
   12.4235   43.4547   34.4543 C   0  0  0  0  0  0
    8.3306   42.0857   28.2790 O   0  0  0  0  0  0
   10.3725   40.2069   30.1250 C   0  0  0  0  0  0
   13.3309   44.0961   35.2965 C   0  0  0  0  0  0
    9.6937   40.7211   31.2324 C   0  0  0  0  0  0
   11.9327   39.0447   31.6046 C   0  0  0  0  0  0
   13.7501   37.7322   30.6513 C   0  0  0  0  0  0
   13.0635   38.2046   31.7622 C   0  0  0  0  0  0
    9.4004   46.1571   26.9122 C   0  0  0  0  0  0
   11.2281   39.5763   32.7082 C   0  0  0  0  0  0
   13.5315   37.6790   26.9837 N   0  0  0  0  0  0
   10.2839   44.0309   32.0796 C   0  0  0  0  0  0
   10.0662   43.9318   33.6057 C   0  0  0  0  0  0
   10.1178   40.3919   32.5181 C   0  0  0  0  0  0
    8.9518   44.0306   31.2880 C   0  0  0  0  0  0
   10.7477   44.4795   28.7200 C   0  0  0  0  0  0
    7.3699   44.7975   27.0405 C   0  0  0  0  0  0
   11.3954   45.5829   28.1879 C   0  0  0  0  0  0
   10.7350   46.4181   27.2990 C   0  0  0  0  0  0
    8.7289   47.0095   26.0005 C   0  0  0  0  0  0
    6.7423   45.6517   26.1387 C   0  0  0  0  0  0
    7.4167   46.7496   25.6224 C   0  0  0  0  0  0
   10.7801   46.1763   35.2703 H   0  0  0  0  0  0
   11.9109   39.2036   28.2078 H   0  0  0  0  0  0
   13.1363   45.9703   36.3269 H   0  0  0  0  0  0
    7.7429   41.0179   30.4510 H   0  0  0  0  0  0
    7.9735   41.7676   31.9969 H   0  0  0  0  0  0
   15.7728   36.9333   27.4864 H   0  0  0  0  0  0
   12.4950   42.5097   33.9291 H   0  0  0  0  0  0
   10.0515   40.4376   29.1198 H   0  0  0  0  0  0
   14.3233   43.8211   35.6385 H   0  0  0  0  0  0
   14.6238   37.1174   30.8176 H   0  0  0  0  0  0
   13.4136   37.9572   32.7548 H   0  0  0  0  0  0
   11.5528   39.3013   33.6971 H   0  0  0  0  0  0
   13.9748   37.2282   26.1852 H   0  0  0  0  0  0
   12.5808   38.0273   26.8815 H   0  0  0  0  0  0
   10.9383   43.2248   31.7432 H   0  0  0  0  0  0
   10.8186   44.9534   31.8467 H   0  0  0  0  0  0
    9.2936   44.6365   33.9171 H   0  0  0  0  0  0
    9.7091   42.9463   33.9013 H   0  0  0  0  0  0
    9.5796   40.7556   33.3804 H   0  0  0  0  0  0
    8.9077   44.9574   30.7142 H   0  0  0  0  0  0
    8.1021   44.1033   31.9681 H   0  0  0  0  0  0
   11.2960   43.8409   29.3986 H   0  0  0  0  0  0
    6.8126   43.9579   27.4271 H   0  0  0  0  0  0
   12.4175   45.7894   28.4701 H   0  0  0  0  0  0
   11.2420   47.2764   26.8970 H   0  0  0  0  0  0
    9.2447   47.8639   25.5885 H   0  0  0  0  0  0
    5.7208   45.4615   25.8410 H   0  0  0  0  0  0
    6.9187   47.4069   24.9233 H   0  0  0  0  0  0
  1  2  1  0  0  0
  1  4  1  0  0  0
  1 15  2  0  0  0
  2  6  1  0  0  0
  2 29  2  0  0  0
  3 26  1  0  0  0
  3  9  2  0  0  0
  3 14  1  0  0  0
  4 12  1  0  0  0
  4 28  1  0  0  0
  5  7  1  0  0  0
  5 13  2  0  0  0
  5 24  1  0  0  0
  6 22  1  0  0  0
  6 30  2  0  0  0
  7 10  1  0  0  0
  7 20  2  0  0  0
  8 16  1  0  0  0
  8 10  2  0  0  0
  8 19  1  0  0  0
  9 11  1  0  0  0
  9 36  1  0  0  0
 10 37  1  0  0  0
 11 17  1  0  0  0
 11 38  1  0  0  0
 12 18  1  0  0  0
 12 39  1  0  0  0
 12 40  1  0  0  0
 13 41  1  0  0  0
 14 17  2  0  0  0
 14 42  1  0  0  0
 16 18  2  0  0  0
 16 43  1  0  0  0
 17 44  1  0  0  0
 18 27  1  0  0  0
 19 23  1  0  0  0
 19 21  2  0  0  0
 20 21  1  0  0  0
 20 45  1  0  0  0
 21 46  1  0  0  0
 22 33  2  0  0  0
 22 32  1  0  0  0
 23 27  2  0  0  0
 23 47  1  0  0  0
 24 48  1  0  0  0
 24 49  1  0  0  0
 25 28  1  0  0  0
 25 26  1  0  0  0
 25 50  1  0  0  0
 25 51  1  0  0  0
 26 52  1  0  0  0
 26 53  1  0  0  0
 27 54  1  0  0  0
 28 55  1  0  0  0
 28 56  1  0  0  0
 29 31  1  0  0  0
 29 57  1  0  0  0
 30 34  1  0  0  0
 30 58  1  0  0  0
 31 32  2  0  0  0
 31 59  1  0  0  0
 32 60  1  0  0  0
 33 35  1  0  0  0
 33 61  1  0  0  0
 34 35  2  0  0  0
 34 62  1  0  0  0
 35 63  1  0  0  0
M  CHG  1   3   1
M  END
> <s_m_entry_id>
20623

> <s_m_entry_name>
dock_pv.6

> <s_m_Source_Path>
/home/csk/Desktop/cluster/DUD-E-result/fa7

> <s_m_Source_File>
dock_pv.maegz

> <i_m_Source_File_Index>
6

> <chembl_id>
CHEMBL196182

> <chembl_pref_name>
None

> <i_lp_mmshare_version>
53161

> <r_lp_tautomer_probability>
1

> <s_lp_Force_Field>
OPLS_2005

> <r_lp_Energy>
33.595458

> <b_lp_Chiralities_Consistent>
1

> <s_lp_Variant>
CHEMBL3991_lig214-1

> <s_i_glide_gridfile>
glide-grid_1w7x

> <i_i_glide_lignum>
242

> <i_i_glide_rotatable_bonds>
9

> <r_i_docking_score>
-8.57190290952951

> <r_i_glide_ligand_efficiency>
-0.244911511700843

> <r_i_glide_ligand_efficiency_sa>
-0.801121793952564

> <r_i_glide_ligand_efficiency_ln>
-1.88172293177677

> <r_i_glide_gscore>
-8.57190290952951

> <r_i_glide_lipo>
-3.14730890470605

> <r_i_glide_hbond>
-0.73008851934623

> <r_i_glide_metal>
0

> <r_i_glide_rewards>
-1.18553689447224

> <r_i_glide_evdw>
-43.133544921875

> <r_i_glide_ecoul>
-12.3611917495728

> <r_i_glide_erotb>
0.564899209893373

> <r_i_glide_esite>
-0.0630117923686887

> <r_i_glide_emodel>
-77.9164757110615

> <r_i_glide_energy>
-55.4947366714478

> <r_i_glide_einternal>
7.96269559860229

> <i_i_glide_confnum>
3

> <i_i_glide_posenum>
362

> <r_i_glide_eff_state_penalty>
0

> <s_user_duplicate_titles>
CHEMBL3991_lig214,326153

> <i_f3d_flags>
0

> <s_m_subgroup_title>
dock_pv

> <s_m_subgroupid>
dock_pv

> <b_m_subgroup_collapsed>
1

$$$$
CHEMBL3991_lig283
                    3D
 Schrodinger Suite 2021-1.
 54 57  0  0  1  0            999 V2000
   13.4944   38.0790   29.3757 C   0  0  0  0  0  0
   13.9740   37.6795   30.6345 C   0  0  0  0  0  0
   13.3949   38.0775   31.8302 C   0  0  0  0  0  0
   12.3266   38.8702   29.3219 C   0  0  0  0  0  0
   11.6957   39.2791   30.5091 C   0  0  0  0  0  0
   12.2643   38.8790   31.7422 C   0  0  0  0  0  0
   11.4905   39.4326   32.7292 N   0  0  0  0  0  0
   10.4103   40.1095   32.2238 C   0  0  0  0  0  0
   10.5441   40.0776   30.8376 C   0  0  0  0  0  0
    9.3667   40.7247   33.1121 C   0  0  0  0  0  0
    8.9450   40.1712   34.3431 C   0  0  0  0  0  0
    7.9310   40.7909   35.1033 C   0  0  0  0  0  0
    7.3816   41.9889   34.6347 C   0  0  0  0  0  0
    7.7991   42.5466   33.4301 C   0  0  0  0  0  0
    8.7777   41.9131   32.6704 C   0  0  0  0  0  0
    9.5310   39.0249   34.8319 O   0  0  0  0  0  0
    7.4268   40.2059   36.3856 C   0  0  0  0  0  0
    7.5310   40.8835   37.6158 C   0  0  0  0  0  0
    7.0882   40.2849   38.7948 C   0  0  0  0  0  0
    6.4870   39.0291   38.7615 C   0  0  0  0  0  0
    6.3364   38.3556   37.5471 C   0  0  0  0  0  0
    6.8163   38.9435   36.3720 C   0  0  0  0  0  0
    8.0753   42.1390   37.6970 O   0  0  0  0  0  0
    5.5305   37.0663   37.4854 C   0  0  0  0  0  0
    6.3310   35.8502   37.6257 N   0  0  0  0  0  0
    6.2298   34.7679   36.8347 C   0  0  0  0  0  0
    5.5231   34.7398   35.8223 O   0  0  0  0  0  0
   14.2540   37.6790   28.1617 C   0  0  0  0  0  0
   15.4483   37.2790   28.2527 N   0  0  0  0  0  0
   13.5310   37.6790   26.9970 N   0  0  0  0  0  0
    7.0186   33.5284   37.2970 C   0  0  0  0  0  0
    6.7310   32.4077   36.4760 O   0  0  0  0  0  0
   14.8606   37.0649   30.7046 H   0  0  0  0  0  0
   13.8149   37.7872   32.7818 H   0  0  0  0  0  0
   11.9309   39.2085   28.3760 H   0  0  0  0  0  0
   11.6386   39.3269   33.7185 H   0  0  0  0  0  0
    9.8663   40.5469   30.1405 H   0  0  0  0  0  0
    6.6200   42.4947   35.2094 H   0  0  0  0  0  0
    7.3628   43.4719   33.0827 H   0  0  0  0  0  0
    9.0873   42.3610   31.7367 H   0  0  0  0  0  0
    9.0889   38.7027   35.6225 H   0  0  0  0  0  0
    7.1913   40.8000   39.7393 H   0  0  0  0  0  0
    6.1196   38.5919   39.6795 H   0  0  0  0  0  0
    6.6909   38.4227   35.4323 H   0  0  0  0  0  0
    8.4064   42.3471   38.5787 H   0  0  0  0  0  0
    4.9413   37.0681   36.5649 H   0  0  0  0  0  0
    4.7852   37.0657   38.2830 H   0  0  0  0  0  0
    6.9295   35.7801   38.4406 H   0  0  0  0  0  0
   15.7859   36.9314   27.3629 H   0  0  0  0  0  0
   13.9449   37.2372   26.1797 H   0  0  0  0  0  0
   12.5830   38.0384   26.9293 H   0  0  0  0  0  0
    6.7310   33.2790   38.3187 H   0  0  0  0  0  0
    8.0914   33.7250   37.2880 H   0  0  0  0  0  0
    5.7827   32.3918   36.3153 H   0  0  0  0  0  0
  1  4  2  0  0  0
  1 28  1  0  0  0
  1  2  1  0  0  0
  2  3  2  0  0  0
  2 33  1  0  0  0
  3  6  1  0  0  0
  3 34  1  0  0  0
  4  5  1  0  0  0
  4 35  1  0  0  0
  5  9  1  0  0  0
  5  6  2  0  0  0
  6  7  1  0  0  0
  7  8  1  0  0  0
  7 36  1  0  0  0
  8  9  2  0  0  0
  8 10  1  0  0  0
  9 37  1  0  0  0
 10 15  2  0  0  0
 10 11  1  0  0  0
 11 16  1  0  0  0
 11 12  2  0  0  0
 12 17  1  0  0  0
 12 13  1  0  0  0
 13 14  2  0  0  0
 13 38  1  0  0  0
 14 15  1  0  0  0
 14 39  1  0  0  0
 15 40  1  0  0  0
 16 41  1  0  0  0
 17 18  2  0  0  0
 17 22  1  0  0  0
 18 19  1  0  0  0
 18 23  1  0  0  0
 19 20  2  0  0  0
 19 42  1  0  0  0
 20 21  1  0  0  0
 20 43  1  0  0  0
 21 22  2  0  0  0
 21 24  1  0  0  0
 22 44  1  0  0  0
 23 45  1  0  0  0
 24 25  1  0  0  0
 24 46  1  0  0  0
 24 47  1  0  0  0
 25 26  1  0  0  0
 25 48  1  0  0  0
 26 27  2  0  0  0
 26 31  1  0  0  0
 28 29  2  0  0  0
 28 30  1  0  0  0
 29 49  1  0  0  0
 30 50  1  0  0  0
 30 51  1  0  0  0
 31 32  1  0  0  0
 31 52  1  0  0  0
 31 53  1  0  0  0
 32 54  1  0  0  0
M  END
> <s_m_entry_id>
20624

> <s_m_entry_name>
dock_pv.7

> <s_m_Source_Path>
/home/csk/Desktop/cluster/DUD-E-result/fa7

> <s_m_Source_File>
dock_pv.maegz

> <i_m_Source_File_Index>
7

> <chembl_id>
CHEMBL211482

> <chembl_pref_name>
None

> <i_lp_mmshare_version>
53161

> <r_lp_tautomer_probability>
0.99999999999473

> <s_lp_Force_Field>
OPLS_2005

> <r_lp_Energy>
15.643496

> <b_lp_Chiralities_Consistent>
1

> <s_lp_Variant>
CHEMBL3991_lig283-1

> <s_i_glide_gridfile>
glide-grid_1w7x

> <i_i_glide_lignum>
360

> <i_i_glide_rotatable_bonds>
10

> <r_i_docking_score>
-8.54034257439282

> <r_i_glide_ligand_efficiency>
-0.266885705449776

> <r_i_glide_ligand_efficiency_sa>
-0.847309298193648

> <r_i_glide_ligand_efficiency_ln>
-1.91241550335267

> <r_i_glide_gscore>
-8.54034257439282

> <r_i_glide_lipo>
-2.3752252334645

> <r_i_glide_hbond>
-1.3033400348468

> <r_i_glide_metal>
0

> <r_i_glide_rewards>
-0.843428821120324

> <r_i_glide_evdw>
-42.2525253295898

> <r_i_glide_ecoul>
-16.0717658996582

> <r_i_glide_erotb>
0.643782878349149

> <r_i_glide_esite>
-0.138740211882121

> <r_i_glide_emodel>
-84.9134459524527

> <r_i_glide_energy>
-58.324291229248

> <r_i_glide_einternal>
6.59364414215088

> <i_i_glide_confnum>
7

> <i_i_glide_posenum>
240

> <r_i_glide_eff_state_penalty>
0

> <s_user_duplicate_titles>
CHEMBL3991_lig283,353197

> <i_f3d_flags>
0

> <s_m_subgroup_title>
dock_pv

> <s_m_subgroupid>
dock_pv

> <b_m_subgroup_collapsed>
1

$$$$
CHEMBL3991_lig201
                    3D
 Schrodinger Suite 2021-1.
 63 65  0  0  1  0            999 V2000
   10.0290   40.2599   32.7624 C   0  0  1  0  0  0
    9.2607   40.0790   34.1122 C   0  0  0  0  0  0
   10.3503   41.7063   32.4264 C   0  0  0  0  0  0
   14.3593   37.6790   28.2867 C   0  0  0  0  0  0
   11.2200   39.4238   32.7091 N   0  0  0  0  0  0
   11.0206   42.5443   33.3295 C   0  0  0  0  0  0
    9.5310   39.0074   34.8923 N   0  0  0  0  0  0
   11.3236   43.8770   32.9994 C   0  0  0  0  0  0
   13.4814   38.0790   29.4147 C   0  0  0  0  0  0
   15.5344   37.2790   28.4970 N   0  0  0  0  0  0
   10.9856   44.3667   31.7284 C   0  0  0  0  0  0
    9.9969   42.2200   31.1759 C   0  0  0  0  0  0
    8.3922   40.8994   34.4120 O   0  0  0  0  0  0
   10.3145   43.5279   30.8266 C   0  0  0  0  0  0
   13.8674   37.8048   30.7374 C   0  0  0  0  0  0
   12.2728   38.7681   29.2172 C   0  0  0  0  0  0
   11.9310   38.9618   31.5931 C   0  0  0  0  0  0
   13.7630   37.6790   27.0516 N   0  0  0  0  0  0
    8.9046   38.7210   36.1852 C   0  0  0  0  0  0
   13.1105   38.2517   31.8117 C   0  0  0  0  0  0
   11.5006   39.1948   30.2895 C   0  0  0  0  0  0
   11.9310   44.7713   33.8640 O   0  0  0  0  0  0
   11.3334   45.6767   31.4412 O   0  0  0  0  0  0
    7.8041   37.6722   36.1030 C   0  0  0  0  0  0
   12.4943   44.3509   35.1022 C   0  0  0  0  0  0
   11.2472   46.1865   30.1115 C   0  0  0  0  0  0
    6.6509   37.9204   35.3517 C   0  0  0  0  0  0
    7.9309   36.4728   36.8101 C   0  0  0  0  0  0
   12.3167   45.5733   29.1930 C   0  0  0  0  0  0
   13.7968   43.5646   34.8970 C   0  0  0  0  0  0
    6.9199   35.5179   36.7482 C   0  0  0  0  0  0
    5.6376   36.9670   35.2960 C   0  0  0  0  0  0
    5.7786   35.7676   35.9905 C   0  0  0  0  0  0
    9.3260   39.8808   32.0195 H   0  0  0  0  0  0
   11.7408   39.3372   33.5706 H   0  0  0  0  0  0
   11.2918   42.1453   34.2934 H   0  0  0  0  0  0
   10.1482   38.2956   34.5227 H   0  0  0  0  0  0
   15.9486   36.9441   27.6359 H   0  0  0  0  0  0
    9.4713   41.6080   30.4586 H   0  0  0  0  0  0
   10.0221   43.8741   29.8480 H   0  0  0  0  0  0
   14.7878   37.2789   30.9479 H   0  0  0  0  0  0
   11.9310   39.0246   28.2262 H   0  0  0  0  0  0
   14.2340   37.2140   26.2763 H   0  0  0  0  0  0
   12.8204   38.0163   26.9082 H   0  0  0  0  0  0
    8.4625   39.6217   36.6176 H   0  0  0  0  0  0
    9.6807   38.4034   36.8841 H   0  0  0  0  0  0
   13.4669   38.0675   32.8151 H   0  0  0  0  0  0
   10.5861   39.7257   30.0876 H   0  0  0  0  0  0
   12.7164   45.2541   35.6719 H   0  0  0  0  0  0
   11.7711   43.7938   35.6970 H   0  0  0  0  0  0
   10.2438   46.0697   29.7001 H   0  0  0  0  0  0
   11.4157   47.2620   30.1743 H   0  0  0  0  0  0
    6.5418   38.8517   34.8149 H   0  0  0  0  0  0
    8.8092   36.2696   37.4072 H   0  0  0  0  0  0
   12.3306   46.0711   28.2240 H   0  0  0  0  0  0
   13.3039   45.6790   29.6403 H   0  0  0  0  0  0
   12.1498   44.5117   29.0146 H   0  0  0  0  0  0
   14.3263   43.4399   35.8401 H   0  0  0  0  0  0
   13.6034   42.5717   34.4970 H   0  0  0  0  0  0
   14.4733   44.0790   34.2148 H   0  0  0  0  0  0
    7.0208   34.5920   37.2968 H   0  0  0  0  0  0
    4.7442   37.1576   34.7214 H   0  0  0  0  0  0
    4.9926   35.0275   35.9526 H   0  0  0  0  0  0
  1  2  1  0  0  0
  1  3  1  0  0  0
  1  5  1  0  0  0
  1 34  1  0  0  0
  2  7  1  0  0  0
  2 13  2  0  0  0
  3  6  1  0  0  0
  3 12  2  0  0  0
  4  9  1  0  0  0
  4 10  2  0  0  0
  4 18  1  0  0  0
  5 17  1  0  0  0
  5 35  1  0  0  0
  6  8  2  0  0  0
  6 36  1  0  0  0
  7 19  1  0  0  0
  7 37  1  0  0  0
  8 22  1  0  0  0
  8 11  1  0  0  0
  9 16  1  0  0  0
  9 15  2  0  0  0
 10 38  1  0  0  0
 11 14  2  0  0  0
 11 23  1  0  0  0
 12 14  1  0  0  0
 12 39  1  0  0  0
 14 40  1  0  0  0
 15 20  1  0  0  0
 15 41  1  0  0  0
 16 21  2  0  0  0
 16 42  1  0  0  0
 17 20  2  0  0  0
 17 21  1  0  0  0
 18 43  1  0  0  0
 18 44  1  0  0  0
 19 24  1  0  0  0
 19 45  1  0  0  0
 19 46  1  0  0  0
 20 47  1  0  0  0
 21 48  1  0  0  0
 22 25  1  0  0  0
 23 26  1  0  0  0
 24 27  1  0  0  0
 24 28  2  0  0  0
 25 30  1  0  0  0
 25 49  1  0  0  0
 25 50  1  0  0  0
 26 29  1  0  0  0
 26 51  1  0  0  0
 26 52  1  0  0  0
 27 32  2  0  0  0
 27 53  1  0  0  0
 28 31  1  0  0  0
 28 54  1  0  0  0
 29 55  1  0  0  0
 29 56  1  0  0  0
 29 57  1  0  0  0
 30 58  1  0  0  0
 30 59  1  0  0  0
 30 60  1  0  0  0
 31 33  2  0  0  0
 31 61  1  0  0  0
 32 33  1  0  0  0
 32 62  1  0  0  0
 33 63  1  0  0  0
M  END
> <s_m_entry_id>
20625

> <s_m_entry_name>
dock_pv.8

> <s_m_Source_Path>
/home/csk/Desktop/cluster/DUD-E-result/fa7

> <s_m_Source_File>
dock_pv.maegz

> <i_m_Source_File_Index>
8

> <chembl_id>
CHEMBL360313

> <chembl_pref_name>
None

> <i_lp_mmshare_version>
53161

> <r_lp_tautomer_probability>
1

> <s_lp_Force_Field>
OPLS_2005

> <r_lp_Energy>
15.762291

> <b_lp_Chiralities_Consistent>
1

> <s_lp_Variant>
CHEMBL3991_lig201-2

> <s_i_glide_gridfile>
glide-grid_1w7x

> <i_i_glide_lignum>
226

> <i_i_glide_rotatable_bonds>
12

> <r_i_docking_score>
-8.45002509949572

> <r_i_glide_ligand_efficiency>
-0.256061366651386

> <r_i_glide_ligand_efficiency_sa>
-0.82132562316271

> <r_i_glide_ligand_efficiency_ln>
-1.87924183023943

> <r_i_glide_gscore>
-8.45002509949572

> <r_i_glide_lipo>
-3.74864950466951

> <r_i_glide_hbond>
-0.606942821887465

> <r_i_glide_metal>
0

> <r_i_glide_rewards>
-0.912748498303937

> <r_i_glide_evdw>
-49.3771667480469

> <r_i_glide_ecoul>
-9.55923843383789

> <r_i_glide_erotb>
0.803103052803259

> <r_i_glide_esite>
-0.0820432249600465

> <r_i_glide_emodel>
-80.4459943632756

> <r_i_glide_energy>
-58.9364051818848

> <r_i_glide_einternal>
11.5037336349487

> <i_i_glide_confnum>
10

> <i_i_glide_posenum>
300

> <r_i_glide_eff_state_penalty>
0

> <s_user_duplicate_titles>
CHEMBL3991_lig201,303050

> <i_f3d_flags>
0

> <s_m_subgroup_title>
dock_pv

> <s_m_subgroupid>
dock_pv

> <b_m_subgroup_collapsed>
1

$$$$
CHEMBL3991_lig288
                    3D
 Schrodinger Suite 2021-1.
 63 66  0  0  1  0            999 V2000
   13.5185   38.0775   29.2741 C   0  0  0  0  0  0
   14.0253   37.6849   30.5282 C   0  0  0  0  0  0
   13.4636   38.0790   31.7357 C   0  0  0  0  0  0
   12.3332   38.8472   29.2312 C   0  0  0  0  0  0
   10.6079   39.9988   30.6476 N   0  0  0  0  0  0
   11.7374   39.2515   30.4318 C   0  0  0  0  0  0
   12.3309   38.8790   31.6541 C   0  0  0  0  0  0
   11.5322   39.4556   32.5977 N   0  0  0  0  0  0
   10.4674   40.0396   31.9561 C   0  0  0  0  0  0
    9.2448   40.5089   32.6937 C   0  0  0  0  0  0
    8.1836   41.1933   32.0773 C   0  0  0  0  0  0
    7.0038   41.4822   32.7898 C   0  0  0  0  0  0
    6.9169   41.0952   34.1319 C   0  0  0  0  0  0
    7.9766   40.4489   34.7792 C   0  0  0  0  0  0
    9.1235   40.1604   34.0452 C   0  0  0  0  0  0
    8.2994   41.5729   30.7614 O   0  0  0  0  0  0
    5.8444   42.1637   32.1381 C   0  0  0  0  0  0
    5.3236   41.6326   30.9505 C   0  0  0  0  0  0
    4.2825   42.2597   30.2589 C   0  0  0  0  0  0
    3.7503   43.4432   30.7757 C   0  0  0  0  0  0
    4.2328   43.9738   31.9704 C   0  0  0  0  0  0
    5.2707   43.3400   32.6535 C   0  0  0  0  0  0
   14.2653   37.6790   28.0527 C   0  0  0  0  0  0
   15.4603   37.2790   28.1233 N   0  0  0  0  0  0
   13.5310   37.6790   26.8971 N   0  0  0  0  0  0
    6.9165   38.7849   36.4329 C   0  0  0  0  0  0
    7.4550   37.5654   35.7120 C   0  0  0  0  0  0
    8.7309   37.2790   36.0970 O   0  0  0  0  0  0
    6.8157   36.9063   34.8973 O   0  0  0  0  0  0
    7.8856   39.9709   36.2471 C   0  0  2  0  0  0
    7.4806   41.0717   37.2219 C   0  0  0  0  0  0
    7.1312   42.2018   36.8966 O   0  0  0  0  0  0
    7.5698   40.6610   38.5200 O   0  0  0  0  0  0
    5.7215   43.9095   33.8176 O   0  0  0  0  0  0
    3.7430   41.7076   28.9383 C   0  0  0  0  0  0
    4.7024   40.9788   28.0990 N   0  0  0  0  0  0
    4.8901   39.6519   28.1182 C   0  0  0  0  0  0
    5.7465   39.2372   27.1915 N   0  0  0  0  0  0
    4.3311   38.8790   28.8927 O   0  0  0  0  0  0
   14.9205   37.0808   30.5836 H   0  0  0  0  0  0
   13.9009   37.7988   32.6826 H   0  0  0  0  0  0
   11.9118   39.1756   28.2930 H   0  0  0  0  0  0
   11.6383   39.4028   33.5976 H   0  0  0  0  0  0
    6.0072   41.3001   34.6763 H   0  0  0  0  0  0
    9.9090   39.6072   34.5330 H   0  0  0  0  0  0
    9.1355   41.2701   30.3902 H   0  0  0  0  0  0
    5.7569   40.7253   30.5575 H   0  0  0  0  0  0
    2.9591   43.9585   30.2521 H   0  0  0  0  0  0
    3.8014   44.8864   32.3542 H   0  0  0  0  0  0
   15.7811   36.9299   27.2264 H   0  0  0  0  0  0
   13.9354   37.2429   26.0691 H   0  0  0  0  0  0
   12.5794   38.0324   26.8482 H   0  0  0  0  0  0
    6.7835   38.4891   37.4769 H   0  0  0  0  0  0
    5.9312   39.0314   36.0282 H   0  0  0  0  0  0
    9.0950   36.5419   35.5843 H   0  0  0  0  0  0
    8.8873   39.6791   36.5761 H   0  0  0  0  0  0
    7.9241   39.7755   38.6147 H   0  0  0  0  0  0
    5.3854   44.7989   33.9461 H   0  0  0  0  0  0
    2.8896   41.0728   29.1815 H   0  0  0  0  0  0
    3.3542   42.5304   28.3362 H   0  0  0  0  0  0
    5.2834   41.5363   27.4930 H   0  0  0  0  0  0
    5.9301   38.2490   27.0878 H   0  0  0  0  0  0
    6.1774   39.8852   26.5522 H   0  0  0  0  0  0
  1  4  2  0  0  0
  1 23  1  0  0  0
  1  2  1  0  0  0
  2  3  2  0  0  0
  2 40  1  0  0  0
  3  7  1  0  0  0
  3 41  1  0  0  0
  4  6  1  0  0  0
  4 42  1  0  0  0
  5  9  2  0  0  0
  5  6  1  0  0  0
  6  7  2  0  0  0
  7  8  1  0  0  0
  8  9  1  0  0  0
  8 43  1  0  0  0
  9 10  1  0  0  0
 10 11  2  0  0  0
 10 15  1  0  0  0
 11 12  1  0  0  0
 11 16  1  0  0  0
 12 13  2  0  0  0
 12 17  1  0  0  0
 13 14  1  0  0  0
 13 44  1  0  0  0
 14 15  2  0  0  0
 14 30  1  0  0  0
 15 45  1  0  0  0
 16 46  1  0  0  0
 17 22  2  0  0  0
 17 18  1  0  0  0
 18 19  2  0  0  0
 18 47  1  0  0  0
 19 20  1  0  0  0
 19 35  1  0  0  0
 20 21  2  0  0  0
 20 48  1  0  0  0
 21 22  1  0  0  0
 21 49  1  0  0  0
 22 34  1  0  0  0
 23 24  2  0  0  0
 23 25  1  0  0  0
 24 50  1  0  0  0
 25 51  1  0  0  0
 25 52  1  0  0  0
 26 27  1  0  0  0
 26 30  1  0  0  0
 26 53  1  0  0  0
 26 54  1  0  0  0
 27 28  1  0  0  0
 27 29  2  0  0  0
 28 55  1  0  0  0
 30 31  1  0  0  0
 30 56  1  0  0  0
 31 32  2  0  0  0
 31 33  1  0  0  0
 33 57  1  0  0  0
 34 58  1  0  0  0
 35 36  1  0  0  0
 35 59  1  0  0  0
 35 60  1  0  0  0
 36 37  1  0  0  0
 36 61  1  0  0  0
 37 38  1  0  0  0
 37 39  2  0  0  0
 38 62  1  0  0  0
 38 63  1  0  0  0
M  END
> <s_m_entry_id>
20626

> <s_m_entry_name>
dock_pv.9

> <s_m_Source_Path>
/home/csk/Desktop/cluster/DUD-E-result/fa7

> <s_m_Source_File>
dock_pv.maegz

> <i_m_Source_File_Index>
9

> <chembl_id>
CHEMBL206387

> <chembl_pref_name>
None

> <i_lp_mmshare_version>
53161

> <r_lp_tautomer_probability>
0.99999999999473

> <s_lp_Force_Field>
OPLS_2005

> <r_lp_Energy>
20.534307

> <b_lp_Chiralities_Consistent>
1

> <s_lp_Variant>
CHEMBL3991_lig288-1

> <s_i_glide_gridfile>
glide-grid_1w7x

> <i_i_glide_lignum>
365

> <i_i_glide_rotatable_bonds>
14

> <r_i_docking_score>
-8.14725858860531

> <r_i_glide_ligand_efficiency>
-0.208904066374495

> <r_i_glide_ligand_efficiency_sa>
-0.708437859516243

> <r_i_glide_ligand_efficiency_ln>
-1.74700351508526

> <r_i_glide_gscore>
-8.14725858860531

> <r_i_glide_lipo>
-2.08220664492202

> <r_i_glide_hbond>
-0.760136191211992

> <r_i_glide_metal>
0

> <r_i_glide_rewards>
-0.59006270654997

> <r_i_glide_evdw>
-37.9884872436523

> <r_i_glide_ecoul>
-21.6668682098389

> <r_i_glide_erotb>
0.58192736318526

> <r_i_glide_esite>
-0.147325815448138

> <r_i_glide_emodel>
-83.2928505246924

> <r_i_glide_energy>
-59.6553554534912

> <r_i_glide_einternal>
4.03795385360718

> <i_i_glide_confnum>
14

> <i_i_glide_posenum>
271

> <r_i_glide_eff_state_penalty>
0

> <s_user_duplicate_titles>
CHEMBL3991_lig288,344041

> <i_f3d_flags>
0

> <s_m_subgroup_title>
dock_pv

> <s_m_subgroupid>
dock_pv

> <b_m_subgroup_collapsed>
1

$$$$
CHEMBL3991_lig304
                    3D
 Schrodinger Suite 2021-1.
 72 73  0  0  1  0            999 V2000
   11.5152   39.2783   30.4183 C   0  0  0  0  0  0
   12.1968   38.8221   29.2971 C   0  0  0  0  0  0
   13.3840   38.0789   29.4180 C   0  0  0  0  0  0
   13.8156   37.7413   30.7115 C   0  0  0  0  0  0
   13.1311   38.1839   31.8327 C   0  0  0  0  0  0
   11.9940   38.9803   31.6933 C   0  0  0  0  0  0
   14.1982   37.6780   28.2435 C   0  0  0  0  0  0
   13.5313   37.6790   27.0429 N   0  0  0  0  0  0
   15.3864   37.2790   28.3946 N   0  0  0  0  0  0
   11.3632   39.5871   32.9387 C   0  0  0  0  0  0
   10.8202   40.9308   32.7507 N   0  0  0  0  0  0
    9.6862   41.3789   33.3068 C   0  0  0  0  0  0
    9.2913   42.8212   32.9390 C   0  0  1  0  0  0
    8.9853   40.7121   34.0677 O   0  0  0  0  0  0
    7.8775   42.9118   32.5531 N   0  0  0  0  0  0
    6.7766   42.9440   33.3321 C   0  0  0  0  0  0
    5.4173   43.0760   32.5819 C   0  0  1  0  0  0
    6.8079   42.9397   34.5634 O   0  0  0  0  0  0
    5.4608   42.2803   31.3160 N   0  0  2  0  0  0
    4.2257   42.5928   30.1062 S   0  0  0  0  0  0
    5.1471   42.4089   28.4673 C   0  0  0  0  0  0
    3.8075   43.9906   30.2467 O   0  0  0  0  0  0
    3.2472   41.5076   30.2313 O   0  0  0  0  0  0
    5.2956   40.9586   28.0365 C   0  0  0  0  0  0
    4.2252   40.3257   27.4030 C   0  0  0  0  0  0
    4.3360   38.9985   27.0046 C   0  0  0  0  0  0
    5.5163   38.2964   27.2321 C   0  0  0  0  0  0
    6.6139   38.9142   27.8498 C   0  0  0  0  0  0
    6.4860   40.2555   28.2525 C   0  0  0  0  0  0
    9.6627   43.8696   34.0193 C   0  0  0  0  0  0
   11.1763   44.0334   34.2794 C   0  0  0  0  0  0
   11.4980   45.2166   35.2008 C   0  0  0  0  0  0
   10.6613   46.0790   35.4519 O   0  0  0  0  0  0
   12.7309   45.2769   35.6970 N   0  0  0  0  0  0
    4.1681   42.7212   33.4560 C   0  0  2  0  0  0
    3.9571   43.6631   34.4968 O   0  0  0  0  0  0
    4.1319   41.2888   34.0229 C   0  0  0  0  0  0
    7.9065   38.1706   28.0970 C   0  0  0  0  0  0
    7.9307   36.8666   27.6948 O   0  0  0  0  0  0
    8.8564   38.7065   28.6610 O   0  0  0  0  0  0
   10.6346   39.8898   30.2861 H   0  0  0  0  0  0
   11.8205   39.1222   28.3313 H   0  0  0  0  0  0
   14.7155   37.1614   30.8615 H   0  0  0  0  0  0
   13.5305   37.9560   32.8114 H   0  0  0  0  0  0
   13.9779   37.2382   26.2419 H   0  0  0  0  0  0
   12.5871   38.0408   26.9332 H   0  0  0  0  0  0
   15.7667   36.9374   27.5198 H   0  0  0  0  0  0
   12.1382   39.6792   33.6972 H   0  0  0  0  0  0
   10.6264   38.8857   33.3362 H   0  0  0  0  0  0
   11.3887   41.5684   32.2130 H   0  0  0  0  0  0
    9.8380   43.0883   32.0332 H   0  0  0  0  0  0
    7.7173   42.9257   31.5564 H   0  0  0  0  0  0
    5.3488   44.1272   32.2966 H   0  0  0  0  0  0
    5.5399   41.2792   31.5108 H   0  0  0  0  0  0
    6.1070   42.9148   28.5668 H   0  0  0  0  0  0
    4.5685   42.9576   27.7242 H   0  0  0  0  0  0
    3.3039   40.8610   27.2229 H   0  0  0  0  0  0
    3.5100   38.5159   26.5064 H   0  0  0  0  0  0
    5.5569   37.2719   26.8971 H   0  0  0  0  0  0
    7.3119   40.7603   28.7357 H   0  0  0  0  0  0
    9.2552   44.8321   33.7046 H   0  0  0  0  0  0
    9.1766   43.6334   34.9666 H   0  0  0  0  0  0
   11.5861   43.1219   34.7154 H   0  0  0  0  0  0
   11.6986   44.1971   33.3363 H   0  0  0  0  0  0
   12.9868   46.0447   36.3111 H   0  0  0  0  0  0
   13.4149   44.5652   35.4886 H   0  0  0  0  0  0
    3.2859   42.8239   32.8223 H   0  0  0  0  0  0
    3.8035   44.5253   34.0972 H   0  0  0  0  0  0
    4.1972   40.5528   33.2218 H   0  0  0  0  0  0
    4.9528   41.0970   34.7138 H   0  0  0  0  0  0
    3.1978   41.1036   34.5537 H   0  0  0  0  0  0
    7.2858   36.6660   27.0059 H   0  0  0  0  0  0
  1  6  1  0  0  0
  1  2  2  0  0  0
  1 41  1  0  0  0
  2  3  1  0  0  0
  2 42  1  0  0  0
  3  7  1  0  0  0
  3  4  2  0  0  0
  4  5  1  0  0  0
  4 43  1  0  0  0
  5  6  2  0  0  0
  5 44  1  0  0  0
  6 10  1  0  0  0
  7  8  1  0  0  0
  7  9  2  0  0  0
  8 45  1  0  0  0
  8 46  1  0  0  0
  9 47  1  0  0  0
 10 11  1  0  0  0
 10 48  1  0  0  0
 10 49  1  0  0  0
 11 12  1  0  0  0
 11 50  1  0  0  0
 12 13  1  0  0  0
 12 14  2  0  0  0
 13 30  1  0  0  0
 13 15  1  0  0  0
 13 51  1  0  0  0
 15 16  1  0  0  0
 15 52  1  0  0  0
 16 17  1  0  0  0
 16 18  2  0  0  0
 17 35  1  0  0  0
 17 19  1  0  0  0
 17 53  1  0  0  0
 19 20  1  0  0  0
 19 54  1  0  0  0
 20 21  1  0  0  0
 20 22  2  0  0  0
 20 23  2  0  0  0
 21 24  1  0  0  0
 21 55  1  0  0  0
 21 56  1  0  0  0
 24 25  2  0  0  0
 24 29  1  0  0  0
 25 26  1  0  0  0
 25 57  1  0  0  0
 26 27  2  0  0  0
 26 58  1  0  0  0
 27 28  1  0  0  0
 27 59  1  0  0  0
 28 29  2  0  0  0
 28 38  1  0  0  0
 29 60  1  0  0  0
 30 31  1  0  0  0
 30 61  1  0  0  0
 30 62  1  0  0  0
 31 32  1  0  0  0
 31 63  1  0  0  0
 31 64  1  0  0  0
 32 33  2  0  0  0
 32 34  1  0  0  0
 34 65  1  0  0  0
 34 66  1  0  0  0
 35 36  1  0  0  0
 35 37  1  0  0  0
 35 67  1  0  0  0
 36 68  1  0  0  0
 37 69  1  0  0  0
 37 70  1  0  0  0
 37 71  1  0  0  0
 38 39  1  0  0  0
 38 40  2  0  0  0
 39 72  1  0  0  0
M  END
> <s_m_entry_id>
20627

> <s_m_entry_name>
dock_pv.10

> <s_m_Source_Path>
/home/csk/Desktop/cluster/DUD-E-result/fa7

> <s_m_Source_File>
dock_pv.maegz

> <i_m_Source_File_Index>
10

> <chembl_id>
CHEMBL506502

> <chembl_pref_name>
None

> <i_lp_mmshare_version>
53161

> <r_lp_tautomer_probability>
1

> <s_lp_Force_Field>
OPLS_2005

> <r_lp_Energy>
0.661539

> <b_lp_Chiralities_Consistent>
1

> <s_lp_Variant>
CHEMBL3991_lig304-1

> <s_i_glide_gridfile>
glide-grid_1w7x

> <i_i_glide_lignum>
382

> <i_i_glide_rotatable_bonds>
19

> <r_i_docking_score>
-8.08468296735263

> <r_i_glide_ligand_efficiency>
-0.202117074183816

> <r_i_glide_ligand_efficiency_sa>
-0.691230669684034

> <r_i_glide_ligand_efficiency_ln>
-1.72422495533752

> <r_i_glide_gscore>
-8.08468296735263

> <r_i_glide_lipo>
-2.07730203560565

> <r_i_glide_hbond>
-0.649845335152868

> <r_i_glide_metal>
0

> <r_i_glide_rewards>
-0.93322353559334

> <r_i_glide_evdw>
-45.9015121459961

> <r_i_glide_ecoul>
-19.3052005767822

> <r_i_glide_erotb>
0.845698736248992

> <r_i_glide_esite>
-0.0791551034326279

> <r_i_glide_emodel>
-91.3286396767744

> <r_i_glide_energy>
-65.2067127227783

> <r_i_glide_einternal>
15.4988222122192

> <i_i_glide_confnum>
145

> <i_i_glide_posenum>
223

> <r_i_glide_eff_state_penalty>
0

> <s_user_duplicate_titles>
CHEMBL3991_lig304,511038

> <i_f3d_flags>
0

> <s_m_subgroup_title>
dock_pv

> <s_m_subgroupid>
dock_pv

> <b_m_subgroup_collapsed>
1

$$$$
CHEMBL3991_lig197
                    3D
 Schrodinger Suite 2021-1.
 70 73  0  0  1  0            999 V2000
    9.5310   39.5648   34.7555 O   0  0  0  0  0  0
    9.0965   40.0790   33.7224 C   0  0  0  0  0  0
    7.8177   40.4757   33.5827 N   0  0  0  0  0  0
    6.8169   40.3826   34.6530 C   0  0  1  0  0  0
    7.1660   41.3320   35.7901 C   0  0  0  0  0  0
    7.6055   42.6439   35.5420 C   0  0  0  0  0  0
    7.9777   43.4715   36.5947 C   0  0  0  0  0  0
    7.9312   42.9832   37.8950 C   0  0  0  0  0  0
    7.5313   41.6746   38.1537 C   0  0  0  0  0  0
    7.1326   40.8548   37.1040 C   0  0  0  0  0  0
    5.4024   40.5820   34.0699 C   0  0  0  0  0  0
    4.6760   39.6595   33.7651 O   0  0  0  0  0  0
    5.1083   41.9058   33.9275 O   0  0  0  0  0  0
   10.0022   40.3026   32.4933 C   0  0  2  0  0  0
   11.1314   39.3831   32.5131 N   0  0  0  0  0  0
   11.9127   38.9608   31.4302 C   0  0  0  0  0  0
   13.0285   38.1575   31.6578 C   0  0  0  0  0  0
   13.7936   37.7153   30.5836 C   0  0  0  0  0  0
   11.5630   39.3135   30.1301 C   0  0  0  0  0  0
   12.3331   38.8787   29.0685 C   0  0  0  0  0  0
   13.4722   38.0792   29.2636 C   0  0  0  0  0  0
   14.3527   37.6788   28.1378 C   0  0  0  0  0  0
   15.5283   37.2790   28.3633 N   0  0  0  0  0  0
   13.7533   37.6789   26.8978 N   0  0  0  0  0  0
   10.4137   41.7484   32.4310 C   0  0  0  0  0  0
   11.4318   42.2397   33.2521 C   0  0  0  0  0  0
   11.7735   43.5971   33.2519 C   0  0  0  0  0  0
   12.7296   44.1289   34.0966 O   0  0  0  0  0  0
   13.6606   43.2960   34.7766 C   0  0  0  0  0  0
   11.1001   44.4732   32.3804 C   0  0  0  0  0  0
   10.0552   43.9775   31.5834 C   0  0  0  0  0  0
    9.7230   42.6299   31.6011 C   0  0  0  0  0  0
   11.5311   45.7893   32.3286 O   0  0  0  0  0  0
   10.8551   46.7712   31.5300 C   0  0  0  0  0  0
   10.9342   46.5366   30.0167 C   0  0  0  0  0  0
   11.9289   45.7351   29.4443 C   0  0  0  0  0  0
   11.9309   45.5052   28.0696 C   0  0  0  0  0  0
   10.9498   46.0789   27.2660 C   0  0  0  0  0  0
    9.9687   46.8928   27.8248 C   0  0  0  0  0  0
    9.9643   47.1243   29.1983 C   0  0  0  0  0  0
    7.5064   40.8405   32.6944 H   0  0  0  0  0  0
    6.8456   39.3519   35.0185 H   0  0  0  0  0  0
    7.6890   43.0220   34.5325 H   0  0  0  0  0  0
    8.3248   44.4782   36.4078 H   0  0  0  0  0  0
    8.2529   43.6169   38.7099 H   0  0  0  0  0  0
    7.5322   41.3025   39.1685 H   0  0  0  0  0  0
    6.8334   39.8379   37.3142 H   0  0  0  0  0  0
    5.8477   42.4576   34.1868 H   0  0  0  0  0  0
    9.4034   40.0599   31.6143 H   0  0  0  0  0  0
   11.4218   39.0513   33.4238 H   0  0  0  0  0  0
   13.3177   37.8831   32.6609 H   0  0  0  0  0  0
   14.6600   37.1037   30.7918 H   0  0  0  0  0  0
   10.7156   39.9458   29.9179 H   0  0  0  0  0  0
   12.0488   39.2339   28.0970 H   0  0  0  0  0  0
   15.9477   36.9323   27.5088 H   0  0  0  0  0  0
   14.2185   37.1975   26.1279 H   0  0  0  0  0  0
   12.8066   38.0082   26.7628 H   0  0  0  0  0  0
   11.9325   41.5399   33.9009 H   0  0  0  0  0  0
   14.1952   43.8848   35.5220 H   0  0  0  0  0  0
   13.1739   42.4830   35.2968 H   0  0  0  0  0  0
   14.4052   42.8821   34.0986 H   0  0  0  0  0  0
    9.4936   44.6190   30.9242 H   0  0  0  0  0  0
    8.9226   42.2768   30.9678 H   0  0  0  0  0  0
    9.8141   46.8388   31.8523 H   0  0  0  0  0  0
   11.3078   47.7396   31.7451 H   0  0  0  0  0  0
   12.6880   45.2778   30.0624 H   0  0  0  0  0  0
   12.6885   44.8803   27.6229 H   0  0  0  0  0  0
   10.9452   45.8864   26.2026 H   0  0  0  0  0  0
    9.2079   47.3337   27.1974 H   0  0  0  0  0  0
    9.1923   47.7478   29.6274 H   0  0  0  0  0  0
  1  2  2  0  0  0
  2  3  1  0  0  0
  2 14  1  0  0  0
  3  4  1  0  0  0
  3 41  1  0  0  0
  4  5  1  0  0  0
  4 11  1  0  0  0
  4 42  1  0  0  0
  5  6  2  0  0  0
  5 10  1  0  0  0
  6  7  1  0  0  0
  6 43  1  0  0  0
  7  8  2  0  0  0
  7 44  1  0  0  0
  8  9  1  0  0  0
  8 45  1  0  0  0
  9 10  2  0  0  0
  9 46  1  0  0  0
 10 47  1  0  0  0
 11 12  2  0  0  0
 11 13  1  0  0  0
 13 48  1  0  0  0
 14 15  1  0  0  0
 14 25  1  0  0  0
 14 49  1  0  0  0
 15 16  1  0  0  0
 15 50  1  0  0  0
 16 17  2  0  0  0
 16 19  1  0  0  0
 17 18  1  0  0  0
 17 51  1  0  0  0
 18 21  2  0  0  0
 18 52  1  0  0  0
 19 20  2  0  0  0
 19 53  1  0  0  0
 20 21  1  0  0  0
 20 54  1  0  0  0
 21 22  1  0  0  0
 22 23  2  0  0  0
 22 24  1  0  0  0
 23 55  1  0  0  0
 24 56  1  0  0  0
 24 57  1  0  0  0
 25 26  2  0  0  0
 25 32  1  0  0  0
 26 27  1  0  0  0
 26 58  1  0  0  0
 27 28  1  0  0  0
 27 30  2  0  0  0
 28 29  1  0  0  0
 29 59  1  0  0  0
 29 60  1  0  0  0
 29 61  1  0  0  0
 30 31  1  0  0  0
 30 33  1  0  0  0
 31 32  2  0  0  0
 31 62  1  0  0  0
 32 63  1  0  0  0
 33 34  1  0  0  0
 34 35  1  0  0  0
 34 64  1  0  0  0
 34 65  1  0  0  0
 35 36  2  0  0  0
 35 40  1  0  0  0
 36 37  1  0  0  0
 36 66  1  0  0  0
 37 38  2  0  0  0
 37 67  1  0  0  0
 38 39  1  0  0  0
 38 68  1  0  0  0
 39 40  2  0  0  0
 39 69  1  0  0  0
 40 70  1  0  0  0
M  END
> <s_m_entry_id>
20628

> <s_m_entry_name>
dock_pv.11

> <s_m_Source_Path>
/home/csk/Desktop/cluster/DUD-E-result/fa7

> <s_m_Source_File>
dock_pv.maegz

> <i_m_Source_File_Index>
11

> <chembl_id>
CHEMBL178616

> <chembl_pref_name>
None

> <i_lp_mmshare_version>
53161

> <r_lp_tautomer_probability>
1

> <s_lp_Force_Field>
OPLS_2005

> <r_lp_Energy>
20.618779

> <b_lp_Chiralities_Consistent>
1

> <s_lp_Variant>
CHEMBL3991_lig197-1

> <s_i_glide_gridfile>
glide-grid_1w7x

> <i_i_glide_lignum>
220

> <i_i_glide_rotatable_bonds>
14

> <r_i_docking_score>
-8.01601102660275

> <r_i_glide_ligand_efficiency>
-0.200400275665069

> <r_i_glide_ligand_efficiency_sa>
-0.685359301346558

> <r_i_glide_ligand_efficiency_ln>
-1.70957925130058

> <r_i_glide_gscore>
-8.01601102660275

> <r_i_glide_lipo>
-3.26907725079533

> <r_i_glide_hbond>
-0.656726316196619

> <r_i_glide_metal>
0

> <r_i_glide_rewards>
-0.518628703209197

> <r_i_glide_evdw>
-46.761474609375

> <r_i_glide_ecoul>
-12.4100770950317

> <r_i_glide_erotb>
0.712328278377118

> <r_i_glide_esite>
-0.084321740055216

> <r_i_glide_emodel>
-83.7918203019835

> <r_i_glide_energy>
-59.1715517044067

> <r_i_glide_einternal>
10.8581914901733

> <i_i_glide_confnum>
12

> <i_i_glide_posenum>
322

> <r_i_glide_eff_state_penalty>
0

> <s_user_duplicate_titles>
CHEMBL3991_lig197,303041

> <i_f3d_flags>
0

> <s_m_subgroup_title>
dock_pv

> <s_m_subgroupid>
dock_pv

> <b_m_subgroup_collapsed>
1

$$$$
CHEMBL3991_lig371
                    3D
 Schrodinger Suite 2021-1.
 56 58  0  0  1  0            999 V2000
    7.5532   41.2686   35.5371 C   0  0  0  0  0  0
    8.4380   41.3275   34.4486 C   0  0  0  0  0  0
    9.2835   40.2606   34.1190 C   0  0  0  0  0  0
    9.1952   39.0966   34.8970 C   0  0  0  0  0  0
    8.3114   39.0155   35.9707 C   0  0  0  0  0  0
    7.4779   40.0939   36.3029 C   0  0  0  0  0  0
   10.2320   40.3928   32.9025 C   0  0  2  0  0  0
   11.2686   39.3553   32.8548 N   0  0  0  0  0  0
   11.9325   38.9578   31.6830 C   0  0  0  0  0  0
   13.0567   38.1433   31.8330 C   0  0  0  0  0  0
   13.7588   37.6984   30.7230 C   0  0  0  0  0  0
   13.3762   38.0793   29.4281 C   0  0  0  0  0  0
   12.2330   38.8866   29.2921 C   0  0  0  0  0  0
   11.5171   39.3215   30.4022 C   0  0  0  0  0  0
   14.2036   37.6782   28.2663 C   0  0  0  0  0  0
   15.3926   37.2858   28.4302 N   0  0  0  0  0  0
   13.5399   37.6790   27.0647 N   0  0  0  0  0  0
    6.7323   42.3236   35.9052 O   0  0  0  0  0  0
    6.9597   43.6411   35.3939 C   0  0  0  0  0  0
    8.2480   44.2706   35.9554 C   0  0  0  0  0  0
    6.5668   40.1022   37.3507 O   0  0  0  0  0  0
    6.4303   39.0439   38.3070 C   0  0  0  0  0  0
    7.6801   38.8308   39.1815 C   0  0  0  0  0  0
   10.8267   41.7926   32.7728 C   0  0  0  0  0  0
   11.7380   42.3125   33.6580 N   0  0  0  0  0  0
   11.9303   43.6153   33.2978 C   0  0  0  0  0  0
   11.1257   43.7822   32.1805 C   0  0  0  0  0  0
   10.4710   42.6751   31.8656 N   0  0  0  0  0  0
    5.8109   37.7572   37.7299 C   0  0  0  0  0  0
    8.4810   42.2175   33.8409 H   0  0  0  0  0  0
    9.8121   38.2350   34.6756 H   0  0  0  0  0  0
    8.3003   38.0939   36.5268 H   0  0  0  0  0  0
    9.5718   40.2224   32.0511 H   0  0  0  0  0  0
   11.7802   39.1482   33.6993 H   0  0  0  0  0  0
   13.4094   37.8614   32.8142 H   0  0  0  0  0  0
   14.6313   37.0814   30.8843 H   0  0  0  0  0  0
   11.9103   39.2343   28.3218 H   0  0  0  0  0  0
   10.6603   39.9577   30.2461 H   0  0  0  0  0  0
   15.7835   36.9494   27.5584 H   0  0  0  0  0  0
   13.9885   37.2419   26.2633 H   0  0  0  0  0  0
   12.5928   38.0310   26.9567 H   0  0  0  0  0  0
    6.9424   43.6578   34.3029 H   0  0  0  0  0  0
    6.1102   44.2526   35.7034 H   0  0  0  0  0  0
    8.3547   45.3023   35.6153 H   0  0  0  0  0  0
    8.2345   44.2838   37.0462 H   0  0  0  0  0  0
    9.1425   43.7328   35.6425 H   0  0  0  0  0  0
    5.6749   39.4285   38.9946 H   0  0  0  0  0  0
    7.5002   38.0721   39.9427 H   0  0  0  0  0  0
    7.9400   39.7523   39.7026 H   0  0  0  0  0  0
    8.5591   38.5194   38.6222 H   0  0  0  0  0  0
   12.5991   44.2646   33.8432 H   0  0  0  0  0  0
   11.0118   44.6904   31.6056 H   0  0  0  0  0  0
   12.1881   41.8207   34.4169 H   0  0  0  0  0  0
    5.7011   36.9981   38.5046 H   0  0  0  0  0  0
    4.8170   37.9571   37.3320 H   0  0  0  0  0  0
    6.3894   37.3126   36.9248 H   0  0  0  0  0  0
  1  2  2  0  0  0
  1  6  1  0  0  0
  1 18  1  0  0  0
  2  3  1  0  0  0
  2 30  1  0  0  0
  3  4  2  0  0  0
  3  7  1  0  0  0
  4  5  1  0  0  0
  4 31  1  0  0  0
  5  6  2  0  0  0
  5 32  1  0  0  0
  6 21  1  0  0  0
  7  8  1  0  0  0
  7 33  1  0  0  0
  7 24  1  0  0  0
  8  9  1  0  0  0
  8 34  1  0  0  0
  9 10  2  0  0  0
  9 14  1  0  0  0
 10 11  1  0  0  0
 10 35  1  0  0  0
 11 12  2  0  0  0
 11 36  1  0  0  0
 12 13  1  0  0  0
 12 15  1  0  0  0
 13 14  2  0  0  0
 13 37  1  0  0  0
 14 38  1  0  0  0
 15 16  2  0  0  0
 15 17  1  0  0  0
 16 39  1  0  0  0
 17 40  1  0  0  0
 17 41  1  0  0  0
 18 19  1  0  0  0
 19 20  1  0  0  0
 19 42  1  0  0  0
 19 43  1  0  0  0
 20 44  1  0  0  0
 20 45  1  0  0  0
 20 46  1  0  0  0
 21 22  1  0  0  0
 22 23  1  0  0  0
 22 29  1  0  0  0
 22 47  1  0  0  0
 23 48  1  0  0  0
 23 49  1  0  0  0
 23 50  1  0  0  0
 24 25  1  0  0  0
 24 28  2  0  0  0
 25 26  1  0  0  0
 25 53  1  0  0  0
 26 27  2  0  0  0
 26 51  1  0  0  0
 27 52  1  0  0  0
 27 28  1  0  0  0
 29 54  1  0  0  0
 29 55  1  0  0  0
 29 56  1  0  0  0
M  END
> <s_m_entry_id>
20629

> <s_m_entry_name>
dock_pv.12

> <s_m_Source_Path>
/home/csk/Desktop/cluster/DUD-E-result/fa7

> <s_m_Source_File>
dock_pv.maegz

> <i_m_Source_File_Index>
12

> <chembl_id>
CHEMBL3403460

> <chembl_pref_name>
None

> <i_lp_mmshare_version>
53161

> <r_lp_tautomer_probability>
0.499999999999999

> <s_lp_Force_Field>
OPLS_2005

> <r_lp_Energy>
16.71475

> <b_lp_Chiralities_Consistent>
1

> <s_lp_Variant>
CHEMBL3991_lig371-1

> <s_i_glide_gridfile>
glide-grid_1w7x

> <i_i_glide_lignum>
507

> <i_i_glide_rotatable_bonds>
9

> <r_i_docking_score>
-8.00644469055779

> <r_i_glide_ligand_efficiency>
-0.276084299674406

> <r_i_glide_ligand_efficiency_sa>
-0.848218438245305

> <r_i_glide_ligand_efficiency_ln>
-1.83327280821794

> <r_i_glide_gscore>
-8.00644469055779

> <r_i_glide_lipo>
-2.86182364998363

> <r_i_glide_hbond>
-0.654919789266078

> <r_i_glide_metal>
0

> <r_i_glide_rewards>
-1.29381397189029

> <r_i_glide_evdw>
-39.7496032714844

> <r_i_glide_ecoul>
-12.688437461853

> <r_i_glide_erotb>
0.757043769758552

> <r_i_glide_esite>
-0.0621852663241633

> <r_i_glide_emodel>
-73.3841105271037

> <r_i_glide_energy>
-52.4380407333374

> <r_i_glide_einternal>
4.20826005935669

> <i_i_glide_confnum>
25

> <i_i_glide_posenum>
315

> <r_i_glide_eff_state_penalty>
0

> <s_user_duplicate_titles>
CHEMBL3991_lig371

> <i_f3d_flags>
0

> <s_m_subgroup_title>
dock_pv

> <s_m_subgroupid>
dock_pv

> <b_m_subgroup_collapsed>
1

$$$$
CHEMBL3991_lig383
                    3D
 Schrodinger Suite 2021-1.
 82 87  0  0  1  0            999 V2000
    9.5310   39.2320   34.9878 C   0  0  0  0  0  0
    8.3132   39.7508   34.3858 N   0  0  0  0  0  0
    7.2403   40.0675   35.3523 C   0  0  0  0  0  0
    7.4819   41.4094   36.0548 C   0  0  0  0  0  0
    7.7068   42.5403   35.2579 C   0  0  0  0  0  0
    8.0985   43.7560   35.8033 C   0  0  0  0  0  0
    8.3102   44.7983   34.8892 N   0  0  0  0  0  0
    9.1228   45.8625   35.0155 C   0  0  0  0  0  0
    9.8659   46.0648   35.9747 O   0  0  0  0  0  0
    9.1317   46.8516   33.8378 C   0  0  0  0  0  0
   10.5089   47.0823   33.1522 C   0  0  1  0  0  0
   11.5310   47.2790   34.0971 O   0  0  0  0  0  0
   10.9928   46.0563   32.0924 C   0  0  0  0  0  0
   10.5168   44.6030   32.2075 C   0  0  0  0  0  0
   11.1427   43.6873   33.0858 C   0  0  0  0  0  0
   12.2176   44.0556   34.0979 C   0  0  0  0  0  0
   10.7783   42.3475   33.0568 C   0  0  0  0  0  0
    9.7944   41.8788   32.1883 C   0  0  0  0  0  0
    9.1379   42.7904   31.3619 C   0  0  0  0  0  0
    9.4890   44.1401   31.3569 C   0  0  0  0  0  0
    8.7393   45.0564   30.3939 C   0  0  0  0  0  0
    9.4369   40.4155   32.1454 C   0  0  1  0  0  0
   10.6250   39.5658   32.3025 N   0  0  0  0  0  0
   11.4359   39.0439   31.2723 C   0  0  0  0  0  0
   10.9076   38.8789   29.9968 C   0  0  0  0  0  0
   11.6388   38.2964   28.9886 C   0  0  0  0  0  0
   13.0020   38.0055   29.1458 C   0  0  0  0  0  0
   13.8967   37.6647   28.0937 C   0  0  0  0  0  0
   13.5310   37.6790   26.7700 N   0  0  0  0  0  0
   15.1746   37.2790   28.2703 N   0  0  0  0  0  0
   15.6569   37.2923   29.5194 C   0  0  0  0  0  0
   14.9031   37.7475   30.5897 C   0  0  0  0  0  0
   15.5309   38.0693   31.6970 F   0  0  0  0  0  0
   13.5412   38.0792   30.4526 C   0  0  0  0  0  0
   12.7296   38.5694   31.5248 C   0  0  0  0  0  0
    8.2107   40.1630   33.0913 C   0  0  0  0  0  0
    7.1152   40.4883   32.6221 O   0  0  0  0  0  0
    8.2308   43.8668   37.1904 C   0  0  0  0  0  0
    7.9310   42.7746   38.0017 C   0  0  0  0  0  0
    7.5308   41.5502   37.4539 C   0  0  0  0  0  0
    6.9776   40.2669   38.5908 S   0  0  0  0  0  0
    6.9427   40.8570   39.9337 O   0  0  0  0  0  0
    5.7397   39.7179   38.0231 O   0  0  0  0  0  0
    8.3275   38.9363   38.5751 C   0  0  0  0  0  0
    8.0545   37.7586   39.4808 C   0  0  0  0  0  0
    7.9917   37.5854   37.9786 C   0  0  0  0  0  0
    9.8565   38.3161   34.4922 H   0  0  0  0  0  0
   10.3069   39.9852   34.8970 H   0  0  0  0  0  0
    9.4025   38.9991   36.0429 H   0  0  0  0  0  0
    6.2667   40.1157   34.8619 H   0  0  0  0  0  0
    7.1630   39.2512   36.0664 H   0  0  0  0  0  0
    7.6117   42.4746   34.1863 H   0  0  0  0  0  0
    7.9057   44.6595   33.9763 H   0  0  0  0  0  0
    8.3889   46.5740   33.0912 H   0  0  0  0  0  0
    8.7779   47.8015   34.2396 H   0  0  0  0  0  0
   10.4496   48.0459   32.6425 H   0  0  0  0  0  0
   11.2106   46.9543   34.9499 H   0  0  0  0  0  0
   12.0785   46.0386   32.0372 H   0  0  0  0  0  0
   10.7433   46.4440   31.1055 H   0  0  0  0  0  0
   13.1951   44.0789   33.6320 H   0  0  0  0  0  0
   12.0286   44.9999   34.5889 H   0  0  0  0  0  0
   12.2620   43.3297   34.9116 H   0  0  0  0  0  0
   11.2879   41.6549   33.7101 H   0  0  0  0  0  0
    8.3612   42.4385   30.6986 H   0  0  0  0  0  0
    7.8089   44.6082   30.0437 H   0  0  0  0  0  0
    8.4637   45.9939   30.8729 H   0  0  0  0  0  0
    9.3610   45.2887   29.5285 H   0  0  0  0  0  0
    9.0226   40.2395   31.1585 H   0  0  0  0  0  0
   10.9869   39.4526   33.2366 H   0  0  0  0  0  0
    9.8901   39.1226   29.7481 H   0  0  0  0  0  0
   11.1192   38.0602   28.0970 H   0  0  0  0  0  0
   12.5941   37.9843   26.5003 H   0  0  0  0  0  0
   14.1466   37.2030   26.1077 H   0  0  0  0  0  0
   16.7107   37.0776   29.6277 H   0  0  0  0  0  0
   13.1564   38.6456   32.5146 H   0  0  0  0  0  0
    8.5220   44.7969   37.6587 H   0  0  0  0  0  0
    7.9806   42.8870   39.0738 H   0  0  0  0  0  0
    9.3266   39.3646   38.4971 H   0  0  0  0  0  0
    8.8662   37.2862   40.0347 H   0  0  0  0  0  0
    7.1387   37.7977   40.0703 H   0  0  0  0  0  0
    7.0184   37.4215   37.5146 H   0  0  0  0  0  0
    8.7804   37.0151   37.4864 H   0  0  0  0  0  0
  1  2  1  0  0  0
  1 47  1  0  0  0
  1 48  1  0  0  0
  1 49  1  0  0  0
  2  3  1  0  0  0
  2 36  1  0  0  0
  3  4  1  0  0  0
  3 50  1  0  0  0
  3 51  1  0  0  0
  4  5  2  0  0  0
  4 40  1  0  0  0
  5  6  1  0  0  0
  5 52  1  0  0  0
  6  7  1  0  0  0
  6 38  2  0  0  0
  7  8  1  0  0  0
  7 53  1  0  0  0
  8  9  2  0  0  0
  8 10  1  0  0  0
 10 11  1  0  0  0
 10 54  1  0  0  0
 10 55  1  0  0  0
 11 12  1  0  0  0
 11 13  1  0  0  0
 11 56  1  0  0  0
 12 57  1  0  0  0
 13 14  1  0  0  0
 13 58  1  0  0  0
 13 59  1  0  0  0
 14 15  2  0  0  0
 14 20  1  0  0  0
 15 16  1  0  0  0
 15 17  1  0  0  0
 16 60  1  0  0  0
 16 61  1  0  0  0
 16 62  1  0  0  0
 17 18  2  0  0  0
 17 63  1  0  0  0
 18 19  1  0  0  0
 18 22  1  0  0  0
 19 20  2  0  0  0
 19 64  1  0  0  0
 20 21  1  0  0  0
 21 65  1  0  0  0
 21 66  1  0  0  0
 21 67  1  0  0  0
 22 23  1  0  0  0
 22 36  1  0  0  0
 22 68  1  0  0  0
 23 24  1  0  0  0
 23 69  1  0  0  0
 24 25  2  0  0  0
 24 35  1  0  0  0
 25 26  1  0  0  0
 25 70  1  0  0  0
 26 27  2  0  0  0
 26 71  1  0  0  0
 27 28  1  0  0  0
 27 34  1  0  0  0
 28 29  1  0  0  0
 28 30  2  0  0  0
 29 72  1  0  0  0
 29 73  1  0  0  0
 30 31  1  0  0  0
 31 32  2  0  0  0
 31 74  1  0  0  0
 32 33  1  0  0  0
 32 34  1  0  0  0
 34 35  2  0  0  0
 35 75  1  0  0  0
 36 37  2  0  0  0
 38 39  1  0  0  0
 38 76  1  0  0  0
 39 40  2  0  0  0
 39 77  1  0  0  0
 40 41  1  0  0  0
 41 42  2  0  0  0
 41 43  2  0  0  0
 41 44  1  0  0  0
 44 45  1  0  0  0
 44 46  1  0  0  0
 44 78  1  0  0  0
 45 46  1  0  0  0
 45 79  1  0  0  0
 45 80  1  0  0  0
 46 81  1  0  0  0
 46 82  1  0  0  0
M  END
> <s_m_entry_id>
20630

> <s_m_entry_name>
dock_pv.13

> <s_m_Source_Path>
/home/csk/Desktop/cluster/DUD-E-result/fa7

> <s_m_Source_File>
dock_pv.maegz

> <i_m_Source_File_Index>
13

> <chembl_id>
CHEMBL4108610

> <chembl_pref_name>
None

> <i_lp_mmshare_version>
53161

> <r_lp_tautomer_probability>
1

> <s_lp_Force_Field>
OPLS_2005

> <r_lp_Energy>
49.300333

> <b_lp_Chiralities_Consistent>
1

> <s_lp_Variant>
CHEMBL3991_lig383-2

> <s_i_glide_gridfile>
glide-grid_1w7x

> <i_i_glide_lignum>
527

> <i_i_glide_rotatable_bonds>
5

> <r_i_docking_score>
-7.97814033141525

> <r_i_glide_ligand_efficiency>
-0.173437833291636

> <r_i_glide_ligand_efficiency_sa>
-0.621436058536129

> <r_i_glide_ligand_efficiency_ln>
-1.65225364161773

> <r_i_glide_gscore>
-7.97814033141525

> <r_i_glide_lipo>
-3.25626191804949

> <r_i_glide_hbond>
-0.456

> <r_i_glide_metal>
0

> <r_i_glide_rewards>
-0.467258594035398

> <r_i_glide_evdw>
-34.7599639892578

> <r_i_glide_ecoul>
-13.1967277526855

> <r_i_glide_erotb>
0.055206304576656

> <r_i_glide_esite>
-0.136318761541301

> <r_i_glide_emodel>
-65.567957775443

> <r_i_glide_energy>
-47.9566917419434

> <r_i_glide_einternal>
3.17352509498596

> <i_i_glide_confnum>
9

> <i_i_glide_posenum>
106

> <r_i_glide_eff_state_penalty>
0

> <s_user_duplicate_titles>
CHEMBL3991_lig383

> <i_f3d_flags>
0

> <s_m_subgroup_title>
dock_pv

> <s_m_subgroupid>
dock_pv

> <b_m_subgroup_collapsed>
1

$$$$
CHEMBL3991_lig431
                    3D
 Schrodinger Suite 2021-1.
 69 72  0  0  1  0            999 V2000
   13.0121   37.4998   28.8972 C   0  0  0  0  0  0
   13.8451   37.7395   29.9989 C   0  0  0  0  0  0
   13.2884   38.3771   31.1235 C   0  0  0  0  0  0
   11.9831   38.8802   31.1014 C   0  0  0  0  0  0
   11.1849   38.6382   29.9836 C   0  0  0  0  0  0
   11.6849   37.9086   28.9165 C   0  0  0  0  0  0
   11.5309   39.6534   32.1846 N   0  0  0  0  0  0
   10.3741   40.5353   32.2766 C   0  0  1  0  0  0
    9.4689   40.0791   33.4535 C   0  0  0  0  0  0
    8.1657   40.3921   33.3388 N   0  0  0  0  0  0
    7.1992   40.2486   34.4310 C   0  0  0  0  0  0
    7.4190   41.2257   35.5861 C   0  0  0  0  0  0
    7.2264   40.8151   36.9083 C   0  0  0  0  0  0
    7.5310   41.6787   37.9602 C   0  0  0  0  0  0
    8.0416   42.9524   37.6981 C   0  0  0  0  0  0
    8.2313   43.3811   36.3865 C   0  0  0  0  0  0
    7.9130   42.5104   35.3357 C   0  0  0  0  0  0
    8.8167   44.6393   36.1794 N   0  0  0  0  0  0
    8.7779   45.3838   35.0076 C   0  0  0  0  0  0
    9.7535   46.3120   35.0376 O   0  0  0  0  0  0
   10.1538   46.9750   33.8380 C   0  0  0  0  0  0
   11.3365   46.2806   33.1218 C   0  0  0  0  0  0
   11.1779   44.7691   32.8546 C   0  0  0  0  0  0
   11.7155   43.8092   33.7432 C   0  0  0  0  0  0
   11.4942   42.4482   33.5128 C   0  0  0  0  0  0
   10.7353   42.0003   32.4311 C   0  0  0  0  0  0
   10.2534   42.9471   31.5266 C   0  0  0  0  0  0
   10.4702   44.3169   31.7175 C   0  0  0  0  0  0
    8.0150   45.2093   34.0533 O   0  0  0  0  0  0
    9.9310   39.4998   34.4428 O   0  0  0  0  0  0
   15.3227   37.4115   29.9616 C   0  0  0  0  0  0
   15.8227   36.8791   28.8482 N   0  0  0  0  0  0
   16.0692   37.6790   30.8968 O   0  0  0  0  0  0
    9.9147   45.2713   30.6607 C   0  0  0  0  0  0
   10.9340   45.5813   29.5528 C   0  0  0  0  0  0
   12.5079   44.1610   35.0024 C   0  0  0  0  0  0
   13.9692   43.6816   34.9563 C   0  0  0  0  0  0
   13.3701   36.9948   28.0121 H   0  0  0  0  0  0
   13.9088   38.5722   31.9868 H   0  0  0  0  0  0
   10.1670   38.9830   29.9222 H   0  0  0  0  0  0
   11.0281   37.6786   28.0970 H   0  0  0  0  0  0
   12.1270   39.6368   33.0023 H   0  0  0  0  0  0
    9.7707   40.4247   31.3777 H   0  0  0  0  0  0
    7.8646   40.9018   32.5211 H   0  0  0  0  0  0
    7.2165   39.2175   34.7937 H   0  0  0  0  0  0
    6.2007   40.4229   34.0291 H   0  0  0  0  0  0
    6.8761   39.8170   37.1273 H   0  0  0  0  0  0
    7.4114   41.3505   38.9829 H   0  0  0  0  0  0
    8.3129   43.5963   38.5240 H   0  0  0  0  0  0
    8.1007   42.8035   34.3140 H   0  0  0  0  0  0
    9.3622   45.0202   36.9412 H   0  0  0  0  0  0
   10.4572   47.9893   34.0965 H   0  0  0  0  0  0
    9.3099   47.0933   33.1566 H   0  0  0  0  0  0
   12.2341   46.4792   33.6973 H   0  0  0  0  0  0
   11.5312   46.7988   32.1845 H   0  0  0  0  0  0
   11.8878   41.7200   34.2056 H   0  0  0  0  0  0
    9.6838   42.6179   30.6690 H   0  0  0  0  0  0
   16.8140   36.7008   28.7881 H   0  0  0  0  0  0
   15.2194   36.5690   28.0967 H   0  0  0  0  0  0
    9.5559   46.1906   31.1221 H   0  0  0  0  0  0
    9.0190   44.8332   30.2171 H   0  0  0  0  0  0
   10.5049   46.2511   28.8072 H   0  0  0  0  0  0
   11.8319   46.0557   29.9503 H   0  0  0  0  0  0
   11.2423   44.6707   29.0379 H   0  0  0  0  0  0
   11.9967   43.6794   35.8301 H   0  0  0  0  0  0
   12.4691   45.2117   35.2723 H   0  0  0  0  0  0
   14.5056   43.9921   35.8532 H   0  0  0  0  0  0
   14.0332   42.5949   34.8973 H   0  0  0  0  0  0
   14.5064   44.0791   34.0970 H   0  0  0  0  0  0
  1  2  2  0  0  0
  1  6  1  0  0  0
  1 38  1  0  0  0
  2  3  1  0  0  0
  2 31  1  0  0  0
  3  4  2  0  0  0
  3 39  1  0  0  0
  4  5  1  0  0  0
  4  7  1  0  0  0
  5  6  2  0  0  0
  5 40  1  0  0  0
  6 41  1  0  0  0
  7  8  1  0  0  0
  7 42  1  0  0  0
  8  9  1  0  0  0
  8 26  1  0  0  0
  8 43  1  0  0  0
  9 10  1  0  0  0
  9 30  2  0  0  0
 10 11  1  0  0  0
 10 44  1  0  0  0
 11 12  1  0  0  0
 11 45  1  0  0  0
 11 46  1  0  0  0
 12 13  2  0  0  0
 12 17  1  0  0  0
 13 14  1  0  0  0
 13 47  1  0  0  0
 14 15  2  0  0  0
 14 48  1  0  0  0
 15 16  1  0  0  0
 15 49  1  0  0  0
 16 17  2  0  0  0
 16 18  1  0  0  0
 17 50  1  0  0  0
 18 19  1  0  0  0
 18 51  1  0  0  0
 19 20  1  0  0  0
 19 29  2  0  0  0
 20 21  1  0  0  0
 21 22  1  0  0  0
 21 52  1  0  0  0
 21 53  1  0  0  0
 22 23  1  0  0  0
 22 54  1  0  0  0
 22 55  1  0  0  0
 23 24  2  0  0  0
 23 28  1  0  0  0
 24 25  1  0  0  0
 24 36  1  0  0  0
 25 26  2  0  0  0
 25 56  1  0  0  0
 26 27  1  0  0  0
 27 28  2  0  0  0
 27 57  1  0  0  0
 28 34  1  0  0  0
 31 32  1  0  0  0
 31 33  2  0  0  0
 32 58  1  0  0  0
 32 59  1  0  0  0
 34 35  1  0  0  0
 34 60  1  0  0  0
 34 61  1  0  0  0
 35 62  1  0  0  0
 35 63  1  0  0  0
 35 64  1  0  0  0
 36 37  1  0  0  0
 36 65  1  0  0  0
 36 66  1  0  0  0
 37 67  1  0  0  0
 37 68  1  0  0  0
 37 69  1  0  0  0
M  END
> <s_m_entry_id>
20631

> <s_m_entry_name>
dock_pv.14

> <s_m_Source_Path>
/home/csk/Desktop/cluster/DUD-E-result/fa7

> <s_m_Source_File>
dock_pv.maegz

> <i_m_Source_File_Index>
14

> <chembl_id>
CHEMBL4073823

> <chembl_pref_name>
None

> <i_lp_mmshare_version>
53161

> <r_lp_tautomer_probability>
1

> <s_lp_Force_Field>
OPLS_2005

> <r_lp_Energy>
24.744447

> <b_lp_Chiralities_Consistent>
1

> <s_lp_Variant>
CHEMBL3991_lig431-2

> <s_i_glide_gridfile>
glide-grid_1w7x

> <i_i_glide_lignum>
581

> <i_i_glide_rotatable_bonds>
5

> <r_i_docking_score>
-7.96079536646394

> <r_i_glide_ligand_efficiency>
-0.215156631526052

> <r_i_glide_ligand_efficiency_sa>
-0.716949628234699

> <r_i_glide_ligand_efficiency_ln>
-1.72650988746374

> <r_i_glide_gscore>
-7.96079536646394

> <r_i_glide_lipo>
-3.29102374322785

> <r_i_glide_hbond>
-0.296236512434552

> <r_i_glide_metal>
0

> <r_i_glide_rewards>
-0.537469948652649

> <r_i_glide_evdw>
-46.1703872680664

> <r_i_glide_ecoul>
-11.0402736663818

> <r_i_glide_erotb>
0.162981291211647

> <r_i_glide_esite>
-0.0344860399999392

> <r_i_glide_emodel>
-78.90239325757

> <r_i_glide_energy>
-57.2106609344482

> <r_i_glide_einternal>
5.72171831130981

> <i_i_glide_confnum>
2

> <i_i_glide_posenum>
29

> <r_i_glide_eff_state_penalty>
0

> <s_user_duplicate_titles>
CHEMBL3991_lig431

> <i_f3d_flags>
0

> <s_m_subgroup_title>
dock_pv

> <s_m_subgroupid>
dock_pv

> <b_m_subgroup_collapsed>
1

$$$$
CHEMBL3991_lig433
                    3D
 Schrodinger Suite 2021-1.
 63 66  0  0  1  0            999 V2000
   12.9603   37.4296   28.8920 C   0  0  0  0  0  0
   13.8011   37.7175   29.9761 C   0  0  0  0  0  0
   13.2493   38.3927   31.0770 C   0  0  0  0  0  0
   11.9478   38.8943   31.0433 C   0  0  0  0  0  0
   11.1370   38.6208   29.9417 C   0  0  0  0  0  0
   11.6323   37.8497   28.8974 C   0  0  0  0  0  0
   11.5300   39.6973   32.1143 N   0  0  0  0  0  0
   10.3708   40.5716   32.2201 C   0  0  1  0  0  0
    9.4656   40.0798   33.3822 C   0  0  0  0  0  0
    8.1622   40.4005   33.2837 N   0  0  0  0  0  0
    7.2086   40.2411   34.3865 C   0  0  0  0  0  0
    7.4343   41.2017   35.5569 C   0  0  0  0  0  0
    7.2372   40.7751   36.8742 C   0  0  0  0  0  0
    7.5373   41.6270   37.9396 C   0  0  0  0  0  0
    8.0404   42.9080   37.6970 C   0  0  0  0  0  0
    8.2364   43.3518   36.3899 C   0  0  0  0  0  0
    7.9276   42.4901   35.3281 C   0  0  0  0  0  0
    8.8108   44.6194   36.1949 N   0  0  0  0  0  0
    8.7552   45.3764   35.0312 C   0  0  0  0  0  0
    9.7247   46.3129   35.0553 O   0  0  0  0  0  0
   10.1221   46.9688   33.8485 C   0  0  0  0  0  0
   11.3265   46.2877   33.1562 C   0  0  0  0  0  0
   11.1850   44.7812   32.9075 C   0  0  0  0  0  0
   10.4879   44.3594   31.7703 C   0  0  0  0  0  0
   10.2582   43.0049   31.5324 C   0  0  0  0  0  0
   10.7347   42.0323   32.4166 C   0  0  0  0  0  0
   11.4846   42.4543   33.5212 C   0  0  0  0  0  0
   11.7037   43.8098   33.7897 C   0  0  0  0  0  0
    7.9849   45.2011   34.0836 O   0  0  0  0  0  0
    9.9308   39.4829   34.3555 O   0  0  0  0  0  0
   15.2828   37.4113   29.9464 C   0  0  0  0  0  0
   15.8008   36.9052   28.8292 N   0  0  0  0  0  0
   16.0147   37.6791   30.8966 O   0  0  0  0  0  0
   12.4394   44.1589   35.0827 C   0  0  0  0  0  0
   13.9026   43.6838   35.1160 C   0  0  0  0  0  0
   13.3120   36.8803   28.0308 H   0  0  0  0  0  0
   13.8779   38.6180   31.9289 H   0  0  0  0  0  0
   10.1216   38.9742   29.8769 H   0  0  0  0  0  0
   10.9647   37.5883   28.0970 H   0  0  0  0  0  0
   12.1336   39.6772   32.9265 H   0  0  0  0  0  0
    9.7730   40.4846   31.3132 H   0  0  0  0  0  0
    7.8557   40.9265   32.4795 H   0  0  0  0  0  0
    7.2284   39.2071   34.7386 H   0  0  0  0  0  0
    6.2079   40.4208   33.9953 H   0  0  0  0  0  0
    6.8868   39.7742   37.0808 H   0  0  0  0  0  0
    7.4155   41.2852   38.9586 H   0  0  0  0  0  0
    8.3077   43.5416   38.5324 H   0  0  0  0  0  0
    8.1178   42.7948   34.3103 H   0  0  0  0  0  0
    9.3616   44.9948   36.9554 H   0  0  0  0  0  0
   10.3983   47.9957   34.0901 H   0  0  0  0  0  0
    9.2871   47.0491   33.1502 H   0  0  0  0  0  0
   12.2198   46.4974   33.7347 H   0  0  0  0  0  0
   11.5209   46.7834   32.2047 H   0  0  0  0  0  0
   10.0862   45.0892   31.0805 H   0  0  0  0  0  0
    9.6809   42.7189   30.6652 H   0  0  0  0  0  0
   11.8617   41.7110   34.2096 H   0  0  0  0  0  0
   16.7944   36.7450   28.7726 H   0  0  0  0  0  0
   15.2076   36.5872   28.0721 H   0  0  0  0  0  0
   11.8792   43.6793   35.8786 H   0  0  0  0  0  0
   12.3831   45.2119   35.3465 H   0  0  0  0  0  0
   14.3311   43.8539   36.1024 H   0  0  0  0  0  0
   13.9929   42.6201   34.8986 H   0  0  0  0  0  0
   14.5231   44.2210   34.4019 H   0  0  0  0  0  0
  1  2  2  0  0  0
  1  6  1  0  0  0
  1 36  1  0  0  0
  2  3  1  0  0  0
  2 31  1  0  0  0
  3  4  2  0  0  0
  3 37  1  0  0  0
  4  5  1  0  0  0
  4  7  1  0  0  0
  5  6  2  0  0  0
  5 38  1  0  0  0
  6 39  1  0  0  0
  7  8  1  0  0  0
  7 40  1  0  0  0
  8  9  1  0  0  0
  8 26  1  0  0  0
  8 41  1  0  0  0
  9 10  1  0  0  0
  9 30  2  0  0  0
 10 11  1  0  0  0
 10 42  1  0  0  0
 11 12  1  0  0  0
 11 43  1  0  0  0
 11 44  1  0  0  0
 12 13  2  0  0  0
 12 17  1  0  0  0
 13 14  1  0  0  0
 13 45  1  0  0  0
 14 15  2  0  0  0
 14 46  1  0  0  0
 15 16  1  0  0  0
 15 47  1  0  0  0
 16 17  2  0  0  0
 16 18  1  0  0  0
 17 48  1  0  0  0
 18 19  1  0  0  0
 18 49  1  0  0  0
 19 20  1  0  0  0
 19 29  2  0  0  0
 20 21  1  0  0  0
 21 22  1  0  0  0
 21 50  1  0  0  0
 21 51  1  0  0  0
 22 23  1  0  0  0
 22 52  1  0  0  0
 22 53  1  0  0  0
 23 24  2  0  0  0
 23 28  1  0  0  0
 24 25  1  0  0  0
 24 54  1  0  0  0
 25 26  2  0  0  0
 25 55  1  0  0  0
 26 27  1  0  0  0
 27 28  2  0  0  0
 27 56  1  0  0  0
 28 34  1  0  0  0
 31 32  1  0  0  0
 31 33  2  0  0  0
 32 57  1  0  0  0
 32 58  1  0  0  0
 34 35  1  0  0  0
 34 59  1  0  0  0
 34 60  1  0  0  0
 35 61  1  0  0  0
 35 62  1  0  0  0
 35 63  1  0  0  0
M  END
> <s_m_entry_id>
20632

> <s_m_entry_name>
dock_pv.15

> <s_m_Source_Path>
/home/csk/Desktop/cluster/DUD-E-result/fa7

> <s_m_Source_File>
dock_pv.maegz

> <i_m_Source_File_Index>
15

> <chembl_id>
CHEMBL4097785

> <chembl_pref_name>
None

> <i_lp_mmshare_version>
53161

> <r_lp_tautomer_probability>
1

> <s_lp_Force_Field>
OPLS_2005

> <r_lp_Energy>
22.988307

> <b_lp_Chiralities_Consistent>
1

> <s_lp_Variant>
CHEMBL3991_lig433-2

> <s_i_glide_gridfile>
glide-grid_1w7x

> <i_i_glide_lignum>
584

> <i_i_glide_rotatable_bonds>
4

> <r_i_docking_score>
-7.79969145073632

> <r_i_glide_ligand_efficiency>
-0.222848327163895

> <r_i_glide_ligand_efficiency_sa>
-0.728951654403809

> <r_i_glide_ligand_efficiency_ln>
-1.71220537826173

> <r_i_glide_gscore>
-7.79969145073632

> <r_i_glide_lipo>
-3.04070876017417

> <r_i_glide_hbond>
-0.282763297367803

> <r_i_glide_metal>
0

> <r_i_glide_rewards>
-0.731210258126614

> <r_i_glide_evdw>
-44.5155181884766

> <r_i_glide_ecoul>
-11.0632381439209

> <r_i_glide_erotb>
0.181116917162933

> <r_i_glide_esite>
-0.0408644212187027

> <r_i_glide_emodel>
-74.8007799149996

> <r_i_glide_energy>
-55.5787563323975

> <r_i_glide_einternal>
6.46307229995728

> <i_i_glide_confnum>
2

> <i_i_glide_posenum>
76

> <r_i_glide_eff_state_penalty>
0

> <s_user_duplicate_titles>
CHEMBL3991_lig433

> <i_f3d_flags>
0

> <s_m_subgroup_title>
dock_pv

> <s_m_subgroupid>
dock_pv

> <b_m_subgroup_collapsed>
1

$$$$
CHEMBL3991_lig236
                    3D
 Schrodinger Suite 2021-1.
 58 61  0  0  1  0            999 V2000
   13.8030   37.9266   30.2486 C   0  0  0  0  0  0
   12.9752   38.2594   29.1585 C   0  0  0  0  0  0
   11.7638   38.9449   29.2967 C   0  0  0  0  0  0
   13.3120   38.1700   31.5503 C   0  0  0  0  0  0
   12.1072   38.8790   31.7165 C   0  0  0  0  0  0
   11.3771   39.2892   30.5850 C   0  0  0  0  0  0
   10.3316   40.0253   31.0971 N   0  0  0  0  0  0
   10.3982   39.9516   32.4712 C   0  0  0  0  0  0
   11.4669   39.2902   32.8624 N   0  0  0  0  0  0
    9.3218   40.4783   33.3935 C   0  0  0  0  0  0
    8.9642   39.8211   34.5907 C   0  0  0  0  0  0
    7.9475   40.3195   35.4272 C   0  0  0  0  0  0
    7.3050   41.4957   35.0500 C   0  0  0  0  0  0
    7.6320   42.1761   33.8730 C   0  0  0  0  0  0
    8.6293   41.6459   33.0449 C   0  0  0  0  0  0
    6.8816   43.4594   33.4533 C   0  0  2  0  0  0
    6.4375   44.3513   34.6247 C   0  0  0  0  0  0
    5.7354   43.2382   32.4418 C   0  0  0  0  0  0
    4.6451   42.2739   32.8958 C   0  0  0  0  0  0
    3.8568   41.9387   31.8408 O   0  0  0  0  0  0
    4.4481   41.8668   34.0383 O   0  0  0  0  0  0
    7.5194   44.8123   35.3171 O   0  0  0  0  0  0
    5.2740   44.5922   34.9471 O   0  0  0  0  0  0
    9.6114   38.6710   34.9550 O   0  0  0  0  0  0
   15.2103   37.4646   30.0374 C   0  0  0  0  0  0
   16.0969   37.6790   30.8969 N   0  0  0  0  0  0
   15.4854   36.8795   28.8308 N   0  0  0  0  0  0
    7.5347   39.6583   36.7071 C   0  0  0  0  0  0
    7.5306   40.4154   37.8902 C   0  0  0  0  0  0
    7.1398   39.8536   39.1071 C   0  0  0  0  0  0
    6.7718   38.5131   39.1556 C   0  0  0  0  0  0
    6.7786   37.7426   37.9957 C   0  0  0  0  0  0
    7.1411   38.3043   36.7588 C   0  0  0  0  0  0
    7.1008   37.5894   35.5728 O   0  0  0  0  0  0
    6.9903   36.1701   35.6146 C   0  0  0  0  0  0
    7.1310   40.6490   40.3268 C   0  0  0  0  0  0
    7.1310   41.2785   41.2968 N   0  0  0  0  0  0
   13.3118   38.0742   28.1467 H   0  0  0  0  0  0
   11.1919   39.2573   28.4374 H   0  0  0  0  0  0
   13.9073   37.9241   32.4190 H   0  0  0  0  0  0
    9.5841   40.4810   30.5959 H   0  0  0  0  0  0
    6.5191   41.8740   35.6856 H   0  0  0  0  0  0
    8.8822   42.1612   32.1299 H   0  0  0  0  0  0
    7.6120   44.0680   32.9112 H   0  0  0  0  0  0
    5.2744   44.1953   32.1814 H   0  0  0  0  0  0
    6.1801   42.8323   31.5300 H   0  0  0  0  0  0
    3.1228   41.4028   32.1433 H   0  0  0  0  0  0
    8.3517   44.5036   34.9550 H   0  0  0  0  0  0
   10.2458   38.3796   34.2922 H   0  0  0  0  0  0
   16.9991   37.3754   30.5612 H   0  0  0  0  0  0
   16.4291   36.6284   28.5752 H   0  0  0  0  0  0
   14.7389   36.5315   28.2393 H   0  0  0  0  0  0
    7.8425   41.4515   37.8600 H   0  0  0  0  0  0
    6.4732   38.0662   40.0921 H   0  0  0  0  0  0
    6.4807   36.7084   38.0774 H   0  0  0  0  0  0
    7.1017   35.7750   34.6061 H   0  0  0  0  0  0
    7.7749   35.7251   36.2285 H   0  0  0  0  0  0
    6.0159   35.8540   35.9880 H   0  0  0  0  0  0
  1  4  2  0  0  0
  1 25  1  0  0  0
  1  2  1  0  0  0
  2  3  2  0  0  0
  2 38  1  0  0  0
  3  6  1  0  0  0
  3 39  1  0  0  0
  4  5  1  0  0  0
  4 40  1  0  0  0
  5  9  1  0  0  0
  5  6  2  0  0  0
  6  7  1  0  0  0
  7  8  1  0  0  0
  7 41  1  0  0  0
  8  9  2  0  0  0
  8 10  1  0  0  0
 10 11  2  0  0  0
 10 15  1  0  0  0
 11 24  1  0  0  0
 11 12  1  0  0  0
 12 13  2  0  0  0
 12 28  1  0  0  0
 13 14  1  0  0  0
 13 42  1  0  0  0
 14 15  2  0  0  0
 14 16  1  0  0  0
 15 43  1  0  0  0
 16 18  1  0  0  0
 16 17  1  0  0  0
 16 44  1  0  0  0
 17 22  1  0  0  0
 17 23  2  0  0  0
 18 19  1  0  0  0
 18 45  1  0  0  0
 18 46  1  0  0  0
 19 20  1  0  0  0
 19 21  2  0  0  0
 20 47  1  0  0  0
 22 48  1  0  0  0
 24 49  1  0  0  0
 25 26  2  0  0  0
 25 27  1  0  0  0
 26 50  1  0  0  0
 27 51  1  0  0  0
 27 52  1  0  0  0
 28 29  2  0  0  0
 28 33  1  0  0  0
 29 30  1  0  0  0
 29 53  1  0  0  0
 30 31  2  0  0  0
 30 36  1  0  0  0
 31 32  1  0  0  0
 31 54  1  0  0  0
 32 33  2  0  0  0
 32 55  1  0  0  0
 33 34  1  0  0  0
 34 35  1  0  0  0
 35 56  1  0  0  0
 35 57  1  0  0  0
 35 58  1  0  0  0
 36 37  3  0  0  0
M  END
> <s_m_entry_id>
20633

> <s_m_entry_name>
dock_pv.16

> <s_m_Source_Path>
/home/csk/Desktop/cluster/DUD-E-result/fa7

> <s_m_Source_File>
dock_pv.maegz

> <i_m_Source_File_Index>
16

> <chembl_id>
CHEMBL202799

> <chembl_pref_name>
None

> <i_lp_mmshare_version>
53161

> <r_lp_tautomer_probability>
0.999999999997365

> <s_lp_Force_Field>
OPLS_2005

> <r_lp_Energy>
29.446748

> <b_lp_Chiralities_Consistent>
1

> <s_lp_Variant>
CHEMBL3991_lig236-1

> <s_i_glide_gridfile>
glide-grid_1w7x

> <i_i_glide_lignum>
280

> <i_i_glide_rotatable_bonds>
11

> <r_i_docking_score>
-7.77117508557229

> <r_i_glide_ligand_efficiency>
-0.210031759069521

> <r_i_glide_ligand_efficiency_sa>
-0.699872416268703

> <r_i_glide_ligand_efficiency_ln>
-1.68538569386844

> <r_i_glide_gscore>
-7.77117508557229

> <r_i_glide_lipo>
-2.06630435187784

> <r_i_glide_hbond>
-0.278901735683194

> <r_i_glide_metal>
0

> <r_i_glide_rewards>
-1.16144286873389

> <r_i_glide_evdw>
-42.6279106140137

> <r_i_glide_ecoul>
-17.0112476348877

> <r_i_glide_erotb>
0.490944905633753

> <r_i_glide_esite>
-0.0723883589772738

> <r_i_glide_emodel>
-85.6237332959681

> <r_i_glide_energy>
-59.6391582489014

> <r_i_glide_einternal>
6.51612710952759

> <i_i_glide_confnum>
8

> <i_i_glide_posenum>
167

> <r_i_glide_eff_state_penalty>
0

> <s_user_duplicate_titles>
CHEMBL3991_lig236,342150

> <i_f3d_flags>
0

> <s_m_subgroup_title>
dock_pv

> <s_m_subgroupid>
dock_pv

> <b_m_subgroup_collapsed>
1

$$$$
CHEMBL3991_lig215
                    3D
 Schrodinger Suite 2021-1.
 59 63  0  0  1  0            999 V2000
    9.7113   43.6965   31.0871 C   0  0  0  0  0  0
    9.9545   44.8129   32.0657 C   0  0  0  0  0  0
    8.6009   42.9203   31.2619 N   0  0  0  0  0  0
    6.9431   39.6796   34.4975 N   0  0  0  0  0  0
   14.4264   37.6787   28.2474 C   0  0  0  0  0  0
   10.8928   44.6583   33.1462 C   0  0  0  0  0  0
   13.5141   38.0790   29.3468 C   0  0  0  0  0  0
   11.5325   39.2986   30.1470 C   0  0  0  0  0  0
    7.8484   41.5431   35.3166 N   0  0  0  0  0  0
    7.3361   41.8754   34.0915 C   0  0  0  0  0  0
   12.3308   38.7923   29.1020 C   0  0  0  0  0  0
    7.5903   40.2115   35.5041 C   0  0  0  0  0  0
    8.5098   41.5980   30.6140 C   0  0  0  0  0  0
   15.5940   37.2790   28.4971 N   0  0  0  0  0  0
    6.7772   40.6793   33.6463 C   0  0  0  0  0  0
   10.5745   43.4689   30.2365 O   0  0  0  0  0  0
    7.3836   43.3547   31.9814 C   0  0  0  0  0  0
   10.3852   40.0809   29.8833 C   0  0  0  0  0  0
    9.6673   40.6538   30.9308 C   0  0  0  0  0  0
   11.9310   39.0678   31.4930 C   0  0  0  0  0  0
    7.4288   43.2775   33.5258 C   0  0  0  0  0  0
   13.8427   37.8004   30.6821 C   0  0  0  0  0  0
   13.0807   38.2812   31.7391 C   0  0  0  0  0  0
   11.0203   45.7221   34.0931 C   0  0  0  0  0  0
   11.1829   39.6595   32.5383 C   0  0  0  0  0  0
   13.8649   37.6790   26.9952 N   0  0  0  0  0  0
   10.0685   40.4374   32.2493 C   0  0  0  0  0  0
    9.2269   45.9998   31.9408 C   0  0  0  0  0  0
   11.7094   43.5028   33.3389 C   0  0  0  0  0  0
    9.3642   47.0213   32.8679 C   0  0  0  0  0  0
   10.2377   46.8827   33.9368 C   0  0  0  0  0  0
   11.9309   45.6071   35.1708 C   0  0  0  0  0  0
   12.6128   43.4304   34.3953 C   0  0  0  0  0  0
   12.7308   44.4791   35.2969 C   0  0  0  0  0  0
    8.3313   42.1645   35.9508 H   0  0  0  0  0  0
   12.0386   39.0527   28.0976 H   0  0  0  0  0  0
    7.9130   39.7106   36.4059 H   0  0  0  0  0  0
    8.4567   41.7501   29.5346 H   0  0  0  0  0  0
    7.5877   41.0898   30.8938 H   0  0  0  0  0  0
   16.0355   36.9426   27.6503 H   0  0  0  0  0  0
    6.2619   40.5345   32.7090 H   0  0  0  0  0  0
    7.1618   44.3822   31.6929 H   0  0  0  0  0  0
    6.5228   42.7859   31.6279 H   0  0  0  0  0  0
   10.1100   40.2763   28.8558 H   0  0  0  0  0  0
    8.3071   43.7976   33.9060 H   0  0  0  0  0  0
    6.5825   43.8472   33.9102 H   0  0  0  0  0  0
   14.7387   37.2439   30.9182 H   0  0  0  0  0  0
   13.3968   38.1001   32.7566 H   0  0  0  0  0  0
   11.4966   39.5150   33.5609 H   0  0  0  0  0  0
   14.3310   37.1820   26.2352 H   0  0  0  0  0  0
   12.9084   37.9751   26.8529 H   0  0  0  0  0  0
    9.5385   40.9054   33.0619 H   0  0  0  0  0  0
    8.5334   46.1348   31.1224 H   0  0  0  0  0  0
   11.6574   42.6780   32.6443 H   0  0  0  0  0  0
    8.7871   47.9285   32.7616 H   0  0  0  0  0  0
   10.3401   47.6790   34.6524 H   0  0  0  0  0  0
   12.0125   46.4131   35.8862 H   0  0  0  0  0  0
   13.2377   42.5550   34.5053 H   0  0  0  0  0  0
   13.4526   44.4162   36.0970 H   0  0  0  0  0  0
  1  2  1  0  0  0
  1  3  1  0  0  0
  1 16  2  0  0  0
  2  6  1  0  0  0
  2 28  2  0  0  0
  3 13  1  0  0  0
  3 17  1  0  0  0
  4 12  2  0  0  0
  4 15  1  0  0  0
  5  7  1  0  0  0
  5 14  2  0  0  0
  5 26  1  0  0  0
  6 24  1  0  0  0
  6 29  2  0  0  0
  7 11  2  0  0  0
  7 22  1  0  0  0
  8 18  2  0  0  0
  8 11  1  0  0  0
  8 20  1  0  0  0
  9 10  1  0  0  0
  9 35  1  0  0  0
  9 12  1  0  0  0
 10 15  2  0  0  0
 10 21  1  0  0  0
 11 36  1  0  0  0
 12 37  1  0  0  0
 13 19  1  0  0  0
 13 38  1  0  0  0
 13 39  1  0  0  0
 14 40  1  0  0  0
 15 41  1  0  0  0
 17 21  1  0  0  0
 17 42  1  0  0  0
 17 43  1  0  0  0
 18 19  1  0  0  0
 18 44  1  0  0  0
 19 27  2  0  0  0
 20 25  2  0  0  0
 20 23  1  0  0  0
 21 45  1  0  0  0
 21 46  1  0  0  0
 22 23  2  0  0  0
 22 47  1  0  0  0
 23 48  1  0  0  0
 24 32  2  0  0  0
 24 31  1  0  0  0
 25 27  1  0  0  0
 25 49  1  0  0  0
 26 50  1  0  0  0
 26 51  1  0  0  0
 27 52  1  0  0  0
 28 30  1  0  0  0
 28 53  1  0  0  0
 29 33  1  0  0  0
 29 54  1  0  0  0
 30 31  2  0  0  0
 30 55  1  0  0  0
 31 56  1  0  0  0
 32 34  1  0  0  0
 32 57  1  0  0  0
 33 34  2  0  0  0
 33 58  1  0  0  0
 34 59  1  0  0  0
M  END
> <s_m_entry_id>
20634

> <s_m_entry_name>
dock_pv.17

> <s_m_Source_Path>
/home/csk/Desktop/cluster/DUD-E-result/fa7

> <s_m_Source_File>
dock_pv.maegz

> <i_m_Source_File_Index>
17

> <chembl_id>
CHEMBL195314

> <chembl_pref_name>
None

> <i_lp_mmshare_version>
53161

> <r_lp_tautomer_probability>
0.499999999999999

> <s_lp_Force_Field>
OPLS_2005

> <r_lp_Energy>
33.178156

> <b_lp_Chiralities_Consistent>
1

> <s_lp_Variant>
CHEMBL3991_lig215-2

> <s_i_glide_gridfile>
glide-grid_1w7x

> <i_i_glide_lignum>
244

> <i_i_glide_rotatable_bonds>
8

> <r_i_docking_score>
-7.75018379356034

> <r_i_glide_ligand_efficiency>
-0.227946582163539

> <r_i_glide_ligand_efficiency_sa>
-0.738458436769846

> <r_i_glide_ligand_efficiency_ln>
-1.71223298528956

> <r_i_glide_gscore>
-7.75018379356034

> <r_i_glide_lipo>
-3.45383909364901

> <r_i_glide_hbond>
-0.456

> <r_i_glide_metal>
0

> <r_i_glide_rewards>
-0.792744470494501

> <r_i_glide_evdw>
-42.9477272033691

> <r_i_glide_ecoul>
-8.79658889770508

> <r_i_glide_erotb>
0.499924305418217

> <r_i_glide_esite>
-0.0806498400108278

> <r_i_glide_emodel>
-71.9971026976698

> <r_i_glide_energy>
-51.7443161010742

> <r_i_glide_einternal>
6.74625444412231

> <i_i_glide_confnum>
73

> <i_i_glide_posenum>
177

> <r_i_glide_eff_state_penalty>
0

> <s_user_duplicate_titles>
CHEMBL3991_lig215,CHEMBL3991_lig215,325966

> <i_f3d_flags>
0

> <s_m_subgroup_title>
dock_pv

> <s_m_subgroupid>
dock_pv

> <b_m_subgroup_collapsed>
1

$$$$
CHEMBL3991_lig32
                    3D
 Schrodinger Suite 2021-1.
 87 90  0  0  1  0            999 V2000
    4.3305   40.4411   28.4236 S   0  0  0  0  0  0
   10.8814   44.6022   29.9952 C   0  0  0  0  0  0
    6.0179   41.1781   30.5205 C   0  0  2  0  0  0
   10.0903   44.6042   28.7604 C   0  0  0  0  0  0
    7.4134   40.7446   31.0558 C   0  0  0  0  0  0
    5.9153   40.7323   29.1071 N   0  0  1  0  0  0
   10.5307   41.5673   30.5725 C   0  0  0  0  0  0
    8.3896   40.4257   30.1762 N   0  0  0  0  0  0
    9.8629   42.5998   31.1258 N   0  0  0  0  0  0
    8.8711   44.1362   28.6111 N   0  0  0  0  0  0
    9.8071   40.2012   30.4922 C   0  0  1  0  0  0
   10.2485   44.0215   31.2750 C   0  0  1  0  0  0
   10.5355   48.7060   32.1687 C   0  0  0  0  0  0
   10.7599   45.3019   27.3085 S   0  0  0  0  0  0
    3.5542   39.6791   29.4058 O   0  0  0  0  0  0
    3.8247   41.7170   27.9100 O   0  0  0  0  0  0
   10.5667   48.2815   30.9828 N   0  0  0  0  0  0
    5.8198   42.7169   30.5836 C   0  0  0  0  0  0
    4.7472   39.3083   26.9835 C   0  0  0  0  0  0
   12.0156   45.0854   30.0110 O   0  0  0  0  0  0
    8.4137   44.3043   27.3870 C   0  0  0  0  0  0
    7.5966   40.7452   32.2719 O   0  0  0  0  0  0
   11.6482   41.6792   30.0970 O   0  0  0  0  0  0
    9.2726   44.9387   26.4974 C   0  0  0  0  0  0
   10.4580   39.2112   29.4618 C   0  0  0  0  0  0
   10.3579   47.9124   33.2946 N   0  0  0  0  0  0
   10.6821   50.0386   32.4968 N   0  0  0  0  0  0
   11.8457   38.6281   29.7929 C   0  0  0  0  0  0
   14.4222   37.6651   30.2851 C   0  0  0  0  0  0
    5.5703   43.3353   31.9516 C   0  0  0  0  0  0
   15.6964   37.2810   30.4973 F   0  0  0  0  0  0
    5.5243   38.0808   27.4374 C   0  0  0  0  0  0
   12.3311   38.5466   31.1035 C   0  0  0  0  0  0
   12.6550   38.1593   28.7475 C   0  0  0  0  0  0
   13.9328   37.6789   28.9894 C   0  0  0  0  0  0
   13.6183   38.0741   31.3471 C   0  0  0  0  0  0
   11.0661   44.2044   32.5867 C   0  0  0  0  0  0
   10.0515   46.4950   33.2980 C   0  0  0  0  0  0
    6.6427   43.7207   32.7845 C   0  0  0  0  0  0
    4.2540   43.4350   32.4519 C   0  0  0  0  0  0
    6.9196   38.1303   27.5306 C   0  0  0  0  0  0
    4.8450   36.9002   27.7476 C   0  0  0  0  0  0
   11.3161   45.6654   33.0195 C   0  0  0  0  0  0
    4.0271   43.9911   33.7042 C   0  0  0  0  0  0
    6.3978   44.2699   34.0348 C   0  0  0  0  0  0
    5.5622   35.7566   28.0969 C   0  0  0  0  0  0
    7.6396   36.9835   27.8590 C   0  0  0  0  0  0
    6.9576   35.7947   28.1054 C   0  0  0  0  0  0
    5.0930   44.4204   34.4878 C   0  0  0  0  0  0
    5.2475   40.6651   31.0982 H   0  0  0  0  0  0
    6.4835   39.8887   28.9978 H   0  0  0  0  0  0
    8.1874   40.5146   29.1917 H   0  0  0  0  0  0
    9.0039   42.3463   31.5918 H   0  0  0  0  0  0
    9.8428   39.7547   31.4847 H   0  0  0  0  0  0
    9.3070   44.5530   31.3936 H   0  0  0  0  0  0
   10.7131   49.0109   30.3025 H   0  0  0  0  0  0
    6.6695   43.2254   30.1265 H   0  0  0  0  0  0
    4.9649   42.9958   29.9661 H   0  0  0  0  0  0
    3.8091   39.0386   26.4968 H   0  0  0  0  0  0
    5.3314   39.8920   26.2708 H   0  0  0  0  0  0
    7.4161   43.9598   27.1531 H   0  0  0  0  0  0
    9.1288   45.1969   25.4588 H   0  0  0  0  0  0
    9.8000   38.3607   29.2968 H   0  0  0  0  0  0
   10.5160   39.7030   28.4883 H   0  0  0  0  0  0
   10.2776   48.3920   34.1834 H   0  0  0  0  0  0
   10.2543   50.6691   31.8359 H   0  0  0  0  0  0
   10.3390   50.2750   33.4198 H   0  0  0  0  0  0
   11.7482   38.8812   31.9466 H   0  0  0  0  0  0
   12.3354   38.1812   27.7181 H   0  0  0  0  0  0
   14.5533   37.3427   28.1708 H   0  0  0  0  0  0
   14.0087   38.0613   32.3539 H   0  0  0  0  0  0
   12.0263   43.6965   32.4872 H   0  0  0  0  0  0
   10.5535   43.6972   33.4051 H   0  0  0  0  0  0
    9.5995   46.2112   34.2485 H   0  0  0  0  0  0
    9.2937   46.3539   32.5316 H   0  0  0  0  0  0
    7.6601   43.6012   32.4513 H   0  0  0  0  0  0
    3.4179   43.1098   31.8500 H   0  0  0  0  0  0
    7.4533   39.0385   27.2965 H   0  0  0  0  0  0
    3.7681   36.8562   27.6981 H   0  0  0  0  0  0
   11.9105   46.1643   32.2563 H   0  0  0  0  0  0
   11.9307   45.6679   33.9201 H   0  0  0  0  0  0
    3.0155   44.1021   34.0640 H   0  0  0  0  0  0
    7.2264   44.5884   34.6519 H   0  0  0  0  0  0
    5.0472   34.8329   28.3121 H   0  0  0  0  0  0
    8.7188   36.9984   27.8627 H   0  0  0  0  0  0
    7.5166   34.8956   28.3262 H   0  0  0  0  0  0
    4.9113   44.8776   35.4496 H   0  0  0  0  0  0
  1  6  1  0  0  0
  1 15  2  0  0  0
  1 16  2  0  0  0
  1 19  1  0  0  0
  2 12  1  0  0  0
  2  4  1  0  0  0
  2 20  2  0  0  0
  3  6  1  0  0  0
  3  5  1  0  0  0
  3 18  1  0  0  0
  3 50  1  0  0  0
  4 10  2  0  0  0
  4 14  1  0  0  0
  5  8  1  0  0  0
  5 22  2  0  0  0
  6 51  1  0  0  0
  7 11  1  0  0  0
  7  9  1  0  0  0
  7 23  2  0  0  0
  8 11  1  0  0  0
  8 52  1  0  0  0
  9 12  1  0  0  0
  9 53  1  0  0  0
 10 21  1  0  0  0
 11 25  1  0  0  0
 11 54  1  0  0  0
 12 37  1  0  0  0
 12 55  1  0  0  0
 13 26  1  0  0  0
 13 17  2  0  0  0
 13 27  1  0  0  0
 14 24  1  0  0  0
 17 56  1  0  0  0
 18 30  1  0  0  0
 18 57  1  0  0  0
 18 58  1  0  0  0
 19 32  1  0  0  0
 19 59  1  0  0  0
 19 60  1  0  0  0
 21 24  2  0  0  0
 21 61  1  0  0  0
 24 62  1  0  0  0
 25 28  1  0  0  0
 25 63  1  0  0  0
 25 64  1  0  0  0
 26 38  1  0  0  0
 26 65  1  0  0  0
 27 66  1  0  0  0
 27 67  1  0  0  0
 28 33  1  0  0  0
 28 34  2  0  0  0
 29 35  2  0  0  0
 29 31  1  0  0  0
 29 36  1  0  0  0
 30 39  2  0  0  0
 30 40  1  0  0  0
 32 41  1  0  0  0
 32 42  2  0  0  0
 33 36  2  0  0  0
 33 68  1  0  0  0
 34 35  1  0  0  0
 34 69  1  0  0  0
 35 70  1  0  0  0
 36 71  1  0  0  0
 37 43  1  0  0  0
 37 72  1  0  0  0
 37 73  1  0  0  0
 38 43  1  0  0  0
 38 74  1  0  0  0
 38 75  1  0  0  0
 39 45  1  0  0  0
 39 76  1  0  0  0
 40 44  2  0  0  0
 40 77  1  0  0  0
 41 47  2  0  0  0
 41 78  1  0  0  0
 42 46  1  0  0  0
 42 79  1  0  0  0
 43 80  1  0  0  0
 43 81  1  0  0  0
 44 49  1  0  0  0
 44 82  1  0  0  0
 45 49  2  0  0  0
 45 83  1  0  0  0
 46 48  2  0  0  0
 46 84  1  0  0  0
 47 48  1  0  0  0
 47 85  1  0  0  0
 48 86  1  0  0  0
 49 87  1  0  0  0
M  END
> <s_m_entry_id>
20635

> <s_m_entry_name>
dock_pv.18

> <s_m_Source_Path>
/home/csk/Desktop/cluster/DUD-E-result/fa7

> <s_m_Source_File>
dock_pv.maegz

> <i_m_Source_File_Index>
18

> <chembl_id>
CHEMBL337238

> <chembl_pref_name>
None

> <i_lp_mmshare_version>
53161

> <r_lp_tautomer_probability>
0.99990000499975

> <s_lp_Force_Field>
OPLS_2005

> <r_lp_Energy>
13.122434

> <b_lp_Chiralities_Consistent>
1

> <s_lp_Variant>
CHEMBL3991_lig32-1

> <s_i_glide_gridfile>
glide-grid_1w7x

> <i_i_glide_lignum>
32

> <i_i_glide_rotatable_bonds>
21

> <r_i_docking_score>
-7.73643257180889

> <r_i_glide_ligand_efficiency>
-0.157886379016508

> <r_i_glide_ligand_efficiency_sa>
-0.577754527520453

> <r_i_glide_ligand_efficiency_ln>
-1.5815038370884

> <r_i_glide_gscore>
-7.73643257180889

> <r_i_glide_lipo>
-2.47870712727784

> <r_i_glide_hbond>
-0.826467412898074

> <r_i_glide_metal>
0

> <r_i_glide_rewards>
-0.572061575802965

> <r_i_glide_evdw>
-49.2821273803711

> <r_i_glide_ecoul>
-12.258505821228

> <r_i_glide_erotb>
0.550274260909119

> <r_i_glide_esite>
-0.106588474536371

> <r_i_glide_emodel>
-81.9575466072588

> <r_i_glide_energy>
-61.5406332015991

> <r_i_glide_einternal>
11.9222965240479

> <i_i_glide_confnum>
14

> <i_i_glide_posenum>
251

> <r_i_glide_eff_state_penalty>
0

> <s_user_duplicate_titles>
CHEMBL3991_lig32

> <i_f3d_flags>
0

> <s_m_subgroup_title>
dock_pv

> <s_m_subgroupid>
dock_pv

> <b_m_subgroup_collapsed>
1

$$$$
CHEMBL3991_lig265
                    3D
 Schrodinger Suite 2021-1.
 56 59  0  0  1  0            999 V2000
   13.5020   38.0776   29.3120 C   0  0  0  0  0  0
   14.0089   37.6844   30.5657 C   0  0  0  0  0  0
   13.4510   38.0790   31.7749 C   0  0  0  0  0  0
   12.3143   38.8449   29.2765 C   0  0  0  0  0  0
   11.7066   39.2399   30.4805 C   0  0  0  0  0  0
   12.3167   38.8790   31.6987 C   0  0  0  0  0  0
   11.5311   39.4704   32.6493 N   0  0  0  0  0  0
   10.4410   40.0244   32.0250 C   0  0  0  0  0  0
   10.5586   39.9658   30.7123 N   0  0  0  0  0  0
    9.2615   40.5718   32.7894 C   0  0  0  0  0  0
    8.9278   40.1510   34.0966 C   0  0  0  0  0  0
    7.8630   40.7391   34.8033 C   0  0  0  0  0  0
    7.0903   41.7040   34.1549 C   0  0  0  0  0  0
    7.3489   42.0795   32.8326 C   0  0  0  0  0  0
    8.4445   41.5213   32.1681 C   0  0  0  0  0  0
    6.4180   43.0578   32.0937 C   0  0  2  0  0  0
    6.3769   44.4102   32.8072 C   0  0  0  0  0  0
    4.9663   42.5559   31.9334 C   0  0  0  0  0  0
    4.8973   41.2442   31.1684 C   0  0  0  0  0  0
    3.6549   40.6991   31.2987 O   0  0  0  0  0  0
    5.8040   40.7297   30.5182 O   0  0  0  0  0  0
    7.5785   45.0469   32.7036 O   0  0  0  0  0  0
    5.4145   44.8620   33.4279 O   0  0  0  0  0  0
    9.6165   39.1221   34.6914 O   0  0  0  0  0  0
   14.2540   37.6790   28.0882 C   0  0  0  0  0  0
   15.4487   37.2790   28.1653 N   0  0  0  0  0  0
   13.5310   37.6790   26.9229 N   0  0  0  0  0  0
    7.5306   40.3497   36.2114 C   0  0  0  0  0  0
    7.2503   39.0091   36.5166 C   0  0  0  0  0  0
    7.0040   38.6030   37.8281 C   0  0  0  0  0  0
    7.0088   39.5404   38.8576 C   0  0  0  0  0  0
    7.2682   40.8790   38.5737 C   0  0  0  0  0  0
    7.5310   41.2853   37.2641 C   0  0  0  0  0  0
    7.8364   42.6047   37.0430 O   0  0  0  0  0  0
    6.7705   37.2601   38.1106 N   0  0  0  0  0  0
   14.9053   37.0822   30.6206 H   0  0  0  0  0  0
   13.8960   37.8047   32.7200 H   0  0  0  0  0  0
   11.8865   39.1662   28.3388 H   0  0  0  0  0  0
   11.6785   39.4757   33.6474 H   0  0  0  0  0  0
    6.2580   42.1491   34.6798 H   0  0  0  0  0  0
    8.6551   41.8160   31.1492 H   0  0  0  0  0  0
    6.8134   43.2412   31.0889 H   0  0  0  0  0  0
    4.5194   42.4112   32.9213 H   0  0  0  0  0  0
    4.3793   43.2935   31.3772 H   0  0  0  0  0  0
    3.0710   41.2788   31.7911 H   0  0  0  0  0  0
    8.2319   44.5214   32.2396 H   0  0  0  0  0  0
   10.0393   38.5429   34.0530 H   0  0  0  0  0  0
   15.7739   36.9339   27.2686 H   0  0  0  0  0  0
   13.9426   37.2480   26.0963 H   0  0  0  0  0  0
   12.5801   38.0337   26.8662 H   0  0  0  0  0  0
    7.2528   38.2720   35.7266 H   0  0  0  0  0  0
    6.8271   39.2346   39.8780 H   0  0  0  0  0  0
    7.2949   41.5944   39.3831 H   0  0  0  0  0  0
    8.0235   43.0918   37.8508 H   0  0  0  0  0  0
    7.0250   36.5976   37.3924 H   0  0  0  0  0  0
    6.9020   36.9716   39.0703 H   0  0  0  0  0  0
  1  4  2  0  0  0
  1 25  1  0  0  0
  1  2  1  0  0  0
  2  3  2  0  0  0
  2 36  1  0  0  0
  3  6  1  0  0  0
  3 37  1  0  0  0
  4  5  1  0  0  0
  4 38  1  0  0  0
  5  9  1  0  0  0
  5  6  2  0  0  0
  6  7  1  0  0  0
  7  8  1  0  0  0
  7 39  1  0  0  0
  8  9  2  0  0  0
  8 10  1  0  0  0
 10 11  2  0  0  0
 10 15  1  0  0  0
 11 24  1  0  0  0
 11 12  1  0  0  0
 12 13  2  0  0  0
 12 28  1  0  0  0
 13 14  1  0  0  0
 13 40  1  0  0  0
 14 15  2  0  0  0
 14 16  1  0  0  0
 15 41  1  0  0  0
 16 17  1  0  0  0
 16 18  1  0  0  0
 16 42  1  0  0  0
 17 22  1  0  0  0
 17 23  2  0  0  0
 18 19  1  0  0  0
 18 43  1  0  0  0
 18 44  1  0  0  0
 19 20  1  0  0  0
 19 21  2  0  0  0
 20 45  1  0  0  0
 22 46  1  0  0  0
 24 47  1  0  0  0
 25 26  2  0  0  0
 25 27  1  0  0  0
 26 48  1  0  0  0
 27 49  1  0  0  0
 27 50  1  0  0  0
 28 29  2  0  0  0
 28 33  1  0  0  0
 29 30  1  0  0  0
 29 51  1  0  0  0
 30 31  2  0  0  0
 30 35  1  0  0  0
 31 32  1  0  0  0
 31 52  1  0  0  0
 32 33  2  0  0  0
 32 53  1  0  0  0
 33 34  1  0  0  0
 34 54  1  0  0  0
 35 55  1  0  0  0
 35 56  1  0  0  0
M  END
> <s_m_entry_id>
20636

> <s_m_entry_name>
dock_pv.19

> <s_m_Source_Path>
/home/csk/Desktop/cluster/DUD-E-result/fa7

> <s_m_Source_File>
dock_pv.maegz

> <i_m_Source_File_Index>
19

> <chembl_id>
CHEMBL383269

> <chembl_pref_name>
None

> <i_lp_mmshare_version>
53161

> <r_lp_tautomer_probability>
0.999999999997365

> <s_lp_Force_Field>
OPLS_2005

> <r_lp_Energy>
25.415953

> <b_lp_Chiralities_Consistent>
1

> <s_lp_Variant>
CHEMBL3991_lig265-1

> <s_i_glide_gridfile>
glide-grid_1w7x

> <i_i_glide_lignum>
338

> <i_i_glide_rotatable_bonds>
11

> <r_i_docking_score>
-7.72404717049057

> <r_i_glide_ligand_efficiency>
-0.220687062014016

> <r_i_glide_ligand_efficiency_sa>
-0.721882012793035

> <r_i_glide_ligand_efficiency_ln>
-1.69559977991344

> <r_i_glide_gscore>
-7.72404717049057

> <r_i_glide_lipo>
-2.06913819630268

> <r_i_glide_hbond>
-0.623210868457899

> <r_i_glide_metal>
0

> <r_i_glide_rewards>
-0.784909110076485

> <r_i_glide_evdw>
-37.8202629089355

> <r_i_glide_ecoul>
-18.5319004058838

> <r_i_glide_erotb>
0.537278114320715

> <r_i_glide_esite>
-0.113268903644877

> <r_i_glide_emodel>
-85.6450108488071

> <r_i_glide_energy>
-56.3521633148193

> <r_i_glide_einternal>
4.39336824417114

> <i_i_glide_confnum>
2

> <i_i_glide_posenum>
177

> <r_i_glide_eff_state_penalty>
0

> <s_user_duplicate_titles>
CHEMBL3991_lig265,341988

> <i_f3d_flags>
0

> <s_m_subgroup_title>
dock_pv

> <s_m_subgroupid>
dock_pv

> <b_m_subgroup_collapsed>
1

$$$$
CHEMBL3991_lig201
                    3D
 Schrodinger Suite 2021-1.
 63 65  0  0  1  0            999 V2000
   10.0189   40.2635   32.6886 C   0  0  2  0  0  0
   10.5733   41.6991   32.4539 C   0  0  0  0  0  0
    9.0589   40.2233   33.8785 C   0  0  0  0  0  0
   14.3756   37.6790   28.2813 C   0  0  0  0  0  0
   11.1491   39.3338   32.6870 N   0  0  0  0  0  0
    8.0013   41.1419   33.9396 C   0  0  0  0  0  0
   11.5968   42.1009   33.2287 N   0  0  0  0  0  0
    7.0961   41.1752   35.0126 C   0  0  0  0  0  0
   13.4956   38.0790   29.4060 C   0  0  0  0  0  0
   15.5496   37.2790   28.4970 N   0  0  0  0  0  0
    7.2357   40.2438   36.0531 C   0  0  0  0  0  0
    9.1423   39.2663   34.8969 C   0  0  0  0  0  0
    9.9947   42.4394   31.6574 O   0  0  0  0  0  0
    8.2574   39.2819   35.9733 C   0  0  0  0  0  0
   12.3310   38.8400   29.2088 C   0  0  0  0  0  0
   13.8373   37.7309   30.7239 C   0  0  0  0  0  0
   11.9310   38.9327   31.5853 C   0  0  0  0  0  0
   13.7781   37.6790   27.0471 N   0  0  0  0  0  0
   12.0530   43.4821   33.3877 C   0  0  0  0  0  0
   11.5589   39.2627   30.2809 C   0  0  0  0  0  0
   13.0724   38.1607   31.8004 C   0  0  0  0  0  0
    6.0603   42.0934   35.1024 O   0  0  0  0  0  0
    6.3423   40.3392   37.1104 O   0  0  0  0  0  0
   11.2892   44.2809   34.4418 C   0  0  0  0  0  0
    5.8983   43.0734   34.0781 C   0  0  0  0  0  0
    6.4627   39.4796   38.2449 C   0  0  0  0  0  0
   12.0065   45.0148   35.3910 C   0  0  0  0  0  0
    9.8899   44.2556   34.4998 C   0  0  0  0  0  0
    5.8297   38.1048   37.9818 C   0  0  0  0  0  0
    4.7308   43.9931   34.4430 C   0  0  0  0  0  0
    9.2177   44.9128   35.5227 C   0  0  0  0  0  0
   11.3331   45.6790   36.4106 C   0  0  0  0  0  0
    9.9454   45.6085   36.4794 C   0  0  0  0  0  0
    9.4157   40.0329   31.8099 H   0  0  0  0  0  0
   11.4085   38.9064   33.5648 H   0  0  0  0  0  0
    7.8977   41.8467   33.1296 H   0  0  0  0  0  0
   12.0417   41.4111   33.8183 H   0  0  0  0  0  0
   15.9668   36.9426   27.6379 H   0  0  0  0  0  0
    9.8994   38.4963   34.8681 H   0  0  0  0  0  0
    8.3869   38.5330   36.7391 H   0  0  0  0  0  0
   12.0295   39.1568   28.2210 H   0  0  0  0  0  0
   14.7240   37.1477   30.9280 H   0  0  0  0  0  0
   14.2465   37.2105   26.2722 H   0  0  0  0  0  0
   12.8290   38.0011   26.9099 H   0  0  0  0  0  0
   12.0101   44.0212   32.4389 H   0  0  0  0  0  0
   13.0988   43.4302   33.6970 H   0  0  0  0  0  0
   10.6861   39.8608   30.0719 H   0  0  0  0  0  0
   13.3864   37.9055   32.8014 H   0  0  0  0  0  0
    6.8043   43.6717   33.9715 H   0  0  0  0  0  0
    5.6979   42.5921   33.1191 H   0  0  0  0  0  0
    7.4964   39.3921   38.5837 H   0  0  0  0  0  0
    5.9303   39.9579   39.0674 H   0  0  0  0  0  0
   13.0864   45.0527   35.3664 H   0  0  0  0  0  0
    9.3115   43.7191   33.7667 H   0  0  0  0  0  0
    5.8949   37.4730   38.8683 H   0  0  0  0  0  0
    4.7756   38.2041   37.7224 H   0  0  0  0  0  0
    6.3213   37.5755   37.1664 H   0  0  0  0  0  0
    4.6067   44.7728   33.6908 H   0  0  0  0  0  0
    3.7933   43.4398   34.4970 H   0  0  0  0  0  0
    4.9019   44.4860   35.4002 H   0  0  0  0  0  0
    8.1406   44.8736   35.5851 H   0  0  0  0  0  0
   11.8864   46.2191   37.1668 H   0  0  0  0  0  0
    9.4243   46.0790   37.2970 H   0  0  0  0  0  0
  1  2  1  0  0  0
  1  3  1  0  0  0
  1  5  1  0  0  0
  1 34  1  0  0  0
  2  7  1  0  0  0
  2 13  2  0  0  0
  3  6  1  0  0  0
  3 12  2  0  0  0
  4  9  1  0  0  0
  4 10  2  0  0  0
  4 18  1  0  0  0
  5 17  1  0  0  0
  5 35  1  0  0  0
  6  8  2  0  0  0
  6 36  1  0  0  0
  7 19  1  0  0  0
  7 37  1  0  0  0
  8 22  1  0  0  0
  8 11  1  0  0  0
  9 16  1  0  0  0
  9 15  2  0  0  0
 10 38  1  0  0  0
 11 14  2  0  0  0
 11 23  1  0  0  0
 12 14  1  0  0  0
 12 39  1  0  0  0
 14 40  1  0  0  0
 15 20  1  0  0  0
 15 41  1  0  0  0
 16 21  2  0  0  0
 16 42  1  0  0  0
 17 20  2  0  0  0
 17 21  1  0  0  0
 18 43  1  0  0  0
 18 44  1  0  0  0
 19 24  1  0  0  0
 19 45  1  0  0  0
 19 46  1  0  0  0
 20 47  1  0  0  0
 21 48  1  0  0  0
 22 25  1  0  0  0
 23 26  1  0  0  0
 24 27  1  0  0  0
 24 28  2  0  0  0
 25 30  1  0  0  0
 25 49  1  0  0  0
 25 50  1  0  0  0
 26 29  1  0  0  0
 26 51  1  0  0  0
 26 52  1  0  0  0
 27 32  2  0  0  0
 27 53  1  0  0  0
 28 31  1  0  0  0
 28 54  1  0  0  0
 29 55  1  0  0  0
 29 56  1  0  0  0
 29 57  1  0  0  0
 30 58  1  0  0  0
 30 59  1  0  0  0
 30 60  1  0  0  0
 31 33  2  0  0  0
 31 61  1  0  0  0
 32 33  1  0  0  0
 32 62  1  0  0  0
 33 63  1  0  0  0
M  END
> <s_m_entry_id>
20637

> <s_m_entry_name>
dock_pv.20

> <s_m_Source_Path>
/home/csk/Desktop/cluster/DUD-E-result/fa7

> <s_m_Source_File>
dock_pv.maegz

> <i_m_Source_File_Index>
20

> <chembl_id>
CHEMBL360313

> <chembl_pref_name>
None

> <i_lp_mmshare_version>
53161

> <r_lp_tautomer_probability>
1

> <s_lp_Force_Field>
OPLS_2005

> <r_lp_Energy>
18.277107

> <b_lp_Chiralities_Consistent>
1

> <s_lp_Variant>
CHEMBL3991_lig201-1

> <s_i_glide_gridfile>
glide-grid_1w7x

> <i_i_glide_lignum>
225

> <i_i_glide_rotatable_bonds>
12

> <r_i_docking_score>
-7.70915857254115

> <r_i_glide_ligand_efficiency>
-0.23361086583458

> <r_i_glide_ligand_efficiency_sa>
-0.749314871151137

> <r_i_glide_ligand_efficiency_ln>
-1.71447695064631

> <r_i_glide_gscore>
-7.70915857254115

> <r_i_glide_lipo>
-2.94587157181097

> <r_i_glide_hbond>
-0.732700901088551

> <r_i_glide_metal>
0

> <r_i_glide_rewards>
-0.894274551394436

> <r_i_glide_evdw>
-41.8564414978027

> <r_i_glide_ecoul>
-11.804651260376

> <r_i_glide_erotb>
0.803103052803259

> <r_i_glide_esite>
-0.0758948371039117

> <r_i_glide_emodel>
-74.7595034763146

> <r_i_glide_energy>
-53.6610927581787

> <r_i_glide_einternal>
8.22743701934814

> <i_i_glide_confnum>
43

> <i_i_glide_posenum>
346

> <r_i_glide_eff_state_penalty>
0

> <s_user_duplicate_titles>
CHEMBL3991_lig201

> <i_f3d_flags>
0

> <s_m_subgroup_title>
dock_pv

> <s_m_subgroupid>
dock_pv

> <b_m_subgroup_collapsed>
1

$$$$
CHEMBL3991_lig200
                    3D
 Schrodinger Suite 2021-1.
 57 59  0  0  1  0            999 V2000
    9.9756   40.2571   32.5975 C   0  0  1  0  0  0
    9.2302   40.1468   33.9690 C   0  0  0  0  0  0
   10.3855   41.6812   32.2885 C   0  0  0  0  0  0
   14.4247   37.6790   28.2436 C   0  0  0  0  0  0
   11.1310   39.3703   32.5703 N   0  0  0  0  0  0
   11.1681   42.4014   33.1956 C   0  0  0  0  0  0
    8.2643   41.0608   34.1896 N   0  0  0  0  0  0
   11.5310   43.7304   32.9491 C   0  0  0  0  0  0
   13.5110   38.0790   29.3403 C   0  0  0  0  0  0
   15.5920   37.2790   28.4970 N   0  0  0  0  0  0
   11.1313   44.3433   31.7506 C   0  0  0  0  0  0
    9.9927   42.2966   31.0982 C   0  0  0  0  0  0
    9.5311   39.2790   34.7905 O   0  0  0  0  0  0
   10.3659   43.6106   30.8278 C   0  0  0  0  0  0
   13.8370   37.7596   30.6688 C   0  0  0  0  0  0
   12.3310   38.8086   29.1081 C   0  0  0  0  0  0
   11.9018   38.9454   31.4762 C   0  0  0  0  0  0
   13.8603   37.6790   26.9939 N   0  0  0  0  0  0
    7.6477   41.3934   35.4815 C   0  0  0  0  0  0
   13.0506   38.1983   31.7230 C   0  0  0  0  0  0
   11.5310   39.2326   30.1628 C   0  0  0  0  0  0
   12.2811   44.4790   33.8347 O   0  0  0  0  0  0
   11.5309   45.6522   31.5433 O   0  0  0  0  0  0
    7.2100   40.2450   36.3925 C   0  0  0  0  0  0
   12.7344   43.9127   35.0559 C   0  0  0  0  0  0
   11.1940   46.3078   30.3263 C   0  0  0  0  0  0
    6.4718   39.1723   35.8819 C   0  0  0  0  0  0
    7.5809   40.2560   37.7419 C   0  0  0  0  0  0
    7.2238   39.1978   38.5731 C   0  0  0  0  0  0
    6.1141   38.1143   36.7142 C   0  0  0  0  0  0
    6.4935   38.1309   38.0549 C   0  0  0  0  0  0
    9.2653   39.9109   31.8455 H   0  0  0  0  0  0
   11.4648   39.0625   33.4745 H   0  0  0  0  0  0
   11.4867   41.9061   34.0989 H   0  0  0  0  0  0
    8.1153   41.7353   33.4524 H   0  0  0  0  0  0
   16.0348   36.9412   27.6515 H   0  0  0  0  0  0
    9.3960   41.7612   30.3742 H   0  0  0  0  0  0
   10.0457   44.0463   29.8941 H   0  0  0  0  0  0
   14.7310   37.1983   30.9012 H   0  0  0  0  0  0
   12.0421   39.0967   28.1051 H   0  0  0  0  0  0
   14.3310   37.1852   26.2350 H   0  0  0  0  0  0
   12.9005   37.9639   26.8533 H   0  0  0  0  0  0
    8.3310   42.0597   36.0113 H   0  0  0  0  0  0
    6.7640   41.9946   35.2656 H   0  0  0  0  0  0
   13.3556   37.9719   32.7339 H   0  0  0  0  0  0
   10.6402   39.7986   29.9443 H   0  0  0  0  0  0
   13.3547   44.6381   35.5829 H   0  0  0  0  0  0
   11.8857   43.6789   35.6970 H   0  0  0  0  0  0
   13.3378   43.0168   34.8970 H   0  0  0  0  0  0
   11.5942   47.3212   30.3431 H   0  0  0  0  0  0
   11.6261   45.7966   29.4646 H   0  0  0  0  0  0
   10.1132   46.3832   30.1969 H   0  0  0  0  0  0
    6.1964   39.1488   34.8380 H   0  0  0  0  0  0
    8.1606   41.0719   38.1508 H   0  0  0  0  0  0
    7.5220   39.1978   39.6117 H   0  0  0  0  0  0
    5.5575   37.2761   36.3214 H   0  0  0  0  0  0
    6.2279   37.3035   38.6973 H   0  0  0  0  0  0
  1  2  1  0  0  0
  1  3  1  0  0  0
  1  5  1  0  0  0
  1 32  1  0  0  0
  2  7  1  0  0  0
  2 13  2  0  0  0
  3  6  1  0  0  0
  3 12  2  0  0  0
  4  9  1  0  0  0
  4 10  2  0  0  0
  4 18  1  0  0  0
  5 17  1  0  0  0
  5 33  1  0  0  0
  6  8  2  0  0  0
  6 34  1  0  0  0
  7 19  1  0  0  0
  7 35  1  0  0  0
  8 22  1  0  0  0
  8 11  1  0  0  0
  9 16  1  0  0  0
  9 15  2  0  0  0
 10 36  1  0  0  0
 11 14  2  0  0  0
 11 23  1  0  0  0
 12 14  1  0  0  0
 12 37  1  0  0  0
 14 38  1  0  0  0
 15 20  1  0  0  0
 15 39  1  0  0  0
 16 21  2  0  0  0
 16 40  1  0  0  0
 17 20  2  0  0  0
 17 21  1  0  0  0
 18 41  1  0  0  0
 18 42  1  0  0  0
 19 24  1  0  0  0
 19 43  1  0  0  0
 19 44  1  0  0  0
 20 45  1  0  0  0
 21 46  1  0  0  0
 22 25  1  0  0  0
 23 26  1  0  0  0
 24 27  1  0  0  0
 24 28  2  0  0  0
 25 47  1  0  0  0
 25 48  1  0  0  0
 25 49  1  0  0  0
 26 50  1  0  0  0
 26 51  1  0  0  0
 26 52  1  0  0  0
 27 30  2  0  0  0
 27 53  1  0  0  0
 28 29  1  0  0  0
 28 54  1  0  0  0
 29 31  2  0  0  0
 29 55  1  0  0  0
 30 31  1  0  0  0
 30 56  1  0  0  0
 31 57  1  0  0  0
M  END
> <s_m_entry_id>
20638

> <s_m_entry_name>
dock_pv.21

> <s_m_Source_Path>
/home/csk/Desktop/cluster/DUD-E-result/fa7

> <s_m_Source_File>
dock_pv.maegz

> <i_m_Source_File_Index>
21

> <chembl_id>
CHEMBL179983

> <chembl_pref_name>
None

> <i_lp_mmshare_version>
53161

> <r_lp_tautomer_probability>
1

> <s_lp_Force_Field>
OPLS_2005

> <r_lp_Energy>
16.806827

> <b_lp_Chiralities_Consistent>
1

> <s_lp_Variant>
CHEMBL3991_lig200-2

> <s_i_glide_gridfile>
glide-grid_1w7x

> <i_i_glide_lignum>
224

> <i_i_glide_rotatable_bonds>
10

> <r_i_docking_score>
-7.65184982603461

> <r_i_glide_ligand_efficiency>
-0.246833865355955

> <r_i_glide_ligand_efficiency_sa>
-0.77539912809661

> <r_i_glide_ligand_efficiency_ln>
-1.72572663680546

> <r_i_glide_gscore>
-7.65184982603461

> <r_i_glide_lipo>
-3.13825786586104

> <r_i_glide_hbond>
-0.68277074220244

> <r_i_glide_metal>
0

> <r_i_glide_rewards>
-1.06379931401657

> <r_i_glide_evdw>
-41.9923210144043

> <r_i_glide_ecoul>
-8.43015670776367

> <r_i_glide_erotb>
0.6774779519414

> <r_i_glide_esite>
-0.0803602990111948

> <r_i_glide_emodel>
-73.3774015440719

> <r_i_glide_energy>
-50.422477722168

> <r_i_glide_einternal>
4.41455364227295

> <i_i_glide_confnum>
6

> <i_i_glide_posenum>
32

> <r_i_glide_eff_state_penalty>
0

> <s_user_duplicate_titles>
CHEMBL3991_lig200,303013

> <i_f3d_flags>
0

> <s_m_subgroup_title>
dock_pv

> <s_m_subgroupid>
dock_pv

> <b_m_subgroup_collapsed>
1

$$$$
CHEMBL3991_lig236
                    3D
 Schrodinger Suite 2021-1.
 58 61  0  0  1  0            999 V2000
   13.4980   38.0790   29.3392 C   0  0  0  0  0  0
   13.9952   37.6670   30.5887 C   0  0  0  0  0  0
   13.4369   38.0466   31.7987 C   0  0  0  0  0  0
   12.3310   38.8790   29.3057 C   0  0  0  0  0  0
   11.7530   39.3057   30.5171 C   0  0  0  0  0  0
   12.3310   38.8781   31.7303 C   0  0  0  0  0  0
   11.5734   39.4562   32.6992 N   0  0  0  0  0  0
   10.6189   40.2141   32.0860 C   0  0  0  0  0  0
   10.6994   40.1619   30.7712 N   0  0  0  0  0  0
    9.6808   41.0083   32.9266 C   0  0  0  0  0  0
    9.4919   42.3862   32.7789 C   0  0  0  0  0  0
    8.7169   43.0905   33.7154 C   0  0  0  0  0  0
    8.0848   42.3895   34.7502 C   0  0  0  0  0  0
    8.2304   41.0043   34.8969 C   0  0  0  0  0  0
    9.0581   40.3387   33.9841 C   0  0  0  0  0  0
    7.4941   40.2852   36.0559 C   0  0  1  0  0  0
    7.4048   38.7565   35.9104 C   0  0  0  0  0  0
    8.0508   40.6569   37.4548 C   0  0  0  0  0  0
    7.0222   40.4791   38.5557 C   0  0  0  0  0  0
    7.5310   40.8790   39.7550 O   0  0  0  0  0  0
    5.8720   40.0790   38.3960 O   0  0  0  0  0  0
    8.5818   38.1246   36.1930 O   0  0  0  0  0  0
    6.4011   38.1663   35.5209 O   0  0  0  0  0  0
   10.1101   43.0464   31.7446 O   0  0  0  0  0  0
   14.2538   37.6790   28.1213 C   0  0  0  0  0  0
   15.4486   37.2790   28.2052 N   0  0  0  0  0  0
   13.5310   37.6790   26.9595 N   0  0  0  0  0  0
    8.5938   44.5695   33.6563 C   0  0  0  0  0  0
    7.4799   45.1384   33.0302 C   0  0  0  0  0  0
    7.3422   46.5248   32.9413 C   0  0  0  0  0  0
    8.3309   47.3513   33.4749 C   0  0  0  0  0  0
    9.4438   46.7925   34.0986 C   0  0  0  0  0  0
    9.5863   45.3994   34.2105 C   0  0  0  0  0  0
   10.6566   44.7919   34.8482 O   0  0  0  0  0  0
   11.6446   45.5972   35.4879 C   0  0  0  0  0  0
    6.1752   47.1033   32.2921 C   0  0  0  0  0  0
    5.2466   47.5615   31.7765 N   0  0  0  0  0  0
   14.8766   37.0427   30.6410 H   0  0  0  0  0  0
   13.8647   37.7388   32.7411 H   0  0  0  0  0  0
   11.9275   39.2363   28.3695 H   0  0  0  0  0  0
   11.7062   39.4048   33.6970 H   0  0  0  0  0  0
    7.4843   42.9399   35.4604 H   0  0  0  0  0  0
    9.2321   39.2790   34.0814 H   0  0  0  0  0  0
    6.4691   40.6580   35.9672 H   0  0  0  0  0  0
    8.9412   40.0733   37.7021 H   0  0  0  0  0  0
    8.3281   41.7145   37.4546 H   0  0  0  0  0  0
    8.4374   41.2210   39.6972 H   0  0  0  0  0  0
    8.4939   37.1740   36.0830 H   0  0  0  0  0  0
   10.5729   42.4361   31.1639 H   0  0  0  0  0  0
   15.7820   36.9304   27.3140 H   0  0  0  0  0  0
   13.9428   37.2343   26.1424 H   0  0  0  0  0  0
   12.5803   38.0328   26.8969 H   0  0  0  0  0  0
    6.7260   44.4884   32.6064 H   0  0  0  0  0  0
    8.2500   48.4289   33.4172 H   0  0  0  0  0  0
   10.1869   47.4652   34.4970 H   0  0  0  0  0  0
   12.3900   44.9529   35.9540 H   0  0  0  0  0  0
   12.1664   46.2367   34.7745 H   0  0  0  0  0  0
   11.2119   46.2181   36.2745 H   0  0  0  0  0  0
  1  4  2  0  0  0
  1 25  1  0  0  0
  1  2  1  0  0  0
  2  3  2  0  0  0
  2 38  1  0  0  0
  3  6  1  0  0  0
  3 39  1  0  0  0
  4  5  1  0  0  0
  4 40  1  0  0  0
  5  9  1  0  0  0
  5  6  2  0  0  0
  6  7  1  0  0  0
  7  8  1  0  0  0
  7 41  1  0  0  0
  8  9  2  0  0  0
  8 10  1  0  0  0
 10 11  2  0  0  0
 10 15  1  0  0  0
 11 24  1  0  0  0
 11 12  1  0  0  0
 12 13  2  0  0  0
 12 28  1  0  0  0
 13 14  1  0  0  0
 13 42  1  0  0  0
 14 15  2  0  0  0
 14 16  1  0  0  0
 15 43  1  0  0  0
 16 18  1  0  0  0
 16 17  1  0  0  0
 16 44  1  0  0  0
 17 22  1  0  0  0
 17 23  2  0  0  0
 18 19  1  0  0  0
 18 45  1  0  0  0
 18 46  1  0  0  0
 19 20  1  0  0  0
 19 21  2  0  0  0
 20 47  1  0  0  0
 22 48  1  0  0  0
 24 49  1  0  0  0
 25 26  2  0  0  0
 25 27  1  0  0  0
 26 50  1  0  0  0
 27 51  1  0  0  0
 27 52  1  0  0  0
 28 29  2  0  0  0
 28 33  1  0  0  0
 29 30  1  0  0  0
 29 53  1  0  0  0
 30 31  2  0  0  0
 30 36  1  0  0  0
 31 32  1  0  0  0
 31 54  1  0  0  0
 32 33  2  0  0  0
 32 55  1  0  0  0
 33 34  1  0  0  0
 34 35  1  0  0  0
 35 56  1  0  0  0
 35 57  1  0  0  0
 35 58  1  0  0  0
 36 37  3  0  0  0
M  END
> <s_m_entry_id>
20639

> <s_m_entry_name>
dock_pv.22

> <s_m_Source_Path>
/home/csk/Desktop/cluster/DUD-E-result/fa7

> <s_m_Source_File>
dock_pv.maegz

> <i_m_Source_File_Index>
22

> <chembl_id>
CHEMBL202799

> <chembl_pref_name>
None

> <i_lp_mmshare_version>
53161

> <r_lp_tautomer_probability>
0.999999999997365

> <s_lp_Force_Field>
OPLS_2005

> <r_lp_Energy>
29.3356

> <b_lp_Chiralities_Consistent>
1

> <s_lp_Variant>
CHEMBL3991_lig236-2

> <s_i_glide_gridfile>
glide-grid_1w7x

> <i_i_glide_lignum>
281

> <i_i_glide_rotatable_bonds>
11

> <r_i_docking_score>
-7.64209933439753

> <r_i_glide_ligand_efficiency>
-0.206543225253987

> <r_i_glide_ligand_efficiency_sa>
-0.688247847672366

> <r_i_glide_ligand_efficiency_ln>
-1.65739218940357

> <r_i_glide_gscore>
-7.64209933439753

> <r_i_glide_lipo>
-2.19459301438439

> <r_i_glide_hbond>
-0.602238302442947

> <r_i_glide_metal>
0

> <r_i_glide_rewards>
-0.659799306460164

> <r_i_glide_evdw>
-42.747127532959

> <r_i_glide_ecoul>
-16.3296775817871

> <r_i_glide_erotb>
0.490944905633753

> <r_i_glide_esite>
-0.0896056028277677

> <r_i_glide_emodel>
-78.6239739396324

> <r_i_glide_energy>
-59.0768051147461

> <r_i_glide_einternal>
6.60688447952271

> <i_i_glide_confnum>
12

> <i_i_glide_posenum>
209

> <r_i_glide_eff_state_penalty>
0

> <s_user_duplicate_titles>
CHEMBL3991_lig236

> <i_f3d_flags>
0

> <s_m_subgroup_title>
dock_pv

> <s_m_subgroupid>
dock_pv

> <b_m_subgroup_collapsed>
1

$$$$
CHEMBL3991_lig223
                    3D
 Schrodinger Suite 2021-1.
 53 56  0  0  1  0            999 V2000
   13.8411   37.9169   30.0909 C   0  0  0  0  0  0
   13.0364   38.2541   28.9849 C   0  0  0  0  0  0
   11.8299   38.9491   29.1014 C   0  0  0  0  0  0
   13.3326   38.1625   31.3826 C   0  0  0  0  0  0
   12.1320   38.8790   31.5248 C   0  0  0  0  0  0
   11.4152   39.2823   30.3831 C   0  0  0  0  0  0
   10.3492   39.9993   30.8818 N   0  0  0  0  0  0
   10.4099   39.9393   32.2583 C   0  0  0  0  0  0
   11.4964   39.3129   32.6587 N   0  0  0  0  0  0
    9.3025   40.4185   33.1745 C   0  0  0  0  0  0
    9.0984   39.8719   34.4597 C   0  0  0  0  0  0
    8.0450   40.3013   35.2902 C   0  0  0  0  0  0
    7.1760   41.2715   34.7899 C   0  0  0  0  0  0
    7.3347   41.8209   33.5143 C   0  0  0  0  0  0
    8.4051   41.3931   32.7214 C   0  0  0  0  0  0
    6.3090   42.8307   32.9618 C   0  0  2  0  0  0
    6.1051   43.9918   33.9394 C   0  0  0  0  0  0
    4.9178   42.2256   32.6768 C   0  0  0  0  0  0
    4.9720   41.1269   31.6298 C   0  0  0  0  0  0
    3.7720   40.4796   31.5860 O   0  0  0  0  0  0
    5.9310   40.8451   30.9136 O   0  0  0  0  0  0
    7.1210   44.8959   33.8414 O   0  0  0  0  0  0
    5.1864   44.0788   34.7576 O   0  0  0  0  0  0
    9.9309   38.8787   34.8959 O   0  0  0  0  0  0
   15.2507   37.4617   29.9091 C   0  0  0  0  0  0
   16.1173   37.6790   30.7931 N   0  0  0  0  0  0
   15.5311   36.8790   28.7033 N   0  0  0  0  0  0
    7.8225   39.7740   36.6770 C   0  0  0  0  0  0
    7.5322   40.6614   37.7241 C   0  0  0  0  0  0
    7.3549   40.1984   39.0254 C   0  0  0  0  0  0
    7.4612   38.8375   39.2916 C   0  0  0  0  0  0
    7.7339   37.9368   38.2666 C   0  0  0  0  0  0
    7.9070   38.4040   36.9662 C   0  0  0  0  0  0
   13.3930   38.0745   27.9795 H   0  0  0  0  0  0
   11.2853   39.2792   28.2304 H   0  0  0  0  0  0
   13.9144   37.9174   32.2598 H   0  0  0  0  0  0
    9.5921   40.4292   30.3717 H   0  0  0  0  0  0
    6.3437   41.5907   35.3994 H   0  0  0  0  0  0
    8.5221   41.8094   31.7314 H   0  0  0  0  0  0
    6.6877   43.2503   32.0239 H   0  0  0  0  0  0
    4.5073   41.8044   33.5988 H   0  0  0  0  0  0
    4.2452   43.0028   32.3001 H   0  0  0  0  0  0
    3.1304   40.8906   32.1683 H   0  0  0  0  0  0
    7.7859   44.6449   33.1986 H   0  0  0  0  0  0
   10.5381   38.6043   34.1961 H   0  0  0  0  0  0
   17.0302   37.3760   30.4893 H   0  0  0  0  0  0
   16.4723   36.6099   28.4574 H   0  0  0  0  0  0
   14.7843   36.5261   28.1143 H   0  0  0  0  0  0
    7.4811   41.7245   37.5405 H   0  0  0  0  0  0
    7.1634   40.8953   39.8283 H   0  0  0  0  0  0
    7.3410   38.4786   40.3032 H   0  0  0  0  0  0
    7.8199   36.8810   38.4831 H   0  0  0  0  0  0
    8.1170   37.6891   36.1836 H   0  0  0  0  0  0
  1  4  2  0  0  0
  1 25  1  0  0  0
  1  2  1  0  0  0
  2  3  2  0  0  0
  2 34  1  0  0  0
  3  6  1  0  0  0
  3 35  1  0  0  0
  4  5  1  0  0  0
  4 36  1  0  0  0
  5  9  1  0  0  0
  5  6  2  0  0  0
  6  7  1  0  0  0
  7  8  1  0  0  0
  7 37  1  0  0  0
  8  9  2  0  0  0
  8 10  1  0  0  0
 10 11  2  0  0  0
 10 15  1  0  0  0
 11 24  1  0  0  0
 11 12  1  0  0  0
 12 13  2  0  0  0
 12 28  1  0  0  0
 13 14  1  0  0  0
 13 38  1  0  0  0
 14 16  1  0  0  0
 14 15  2  0  0  0
 15 39  1  0  0  0
 16 17  1  0  0  0
 16 18  1  0  0  0
 16 40  1  0  0  0
 17 22  1  0  0  0
 17 23  2  0  0  0
 18 19  1  0  0  0
 18 41  1  0  0  0
 18 42  1  0  0  0
 19 20  1  0  0  0
 19 21  2  0  0  0
 20 43  1  0  0  0
 22 44  1  0  0  0
 24 45  1  0  0  0
 25 26  2  0  0  0
 25 27  1  0  0  0
 26 46  1  0  0  0
 27 47  1  0  0  0
 27 48  1  0  0  0
 28 29  2  0  0  0
 28 33  1  0  0  0
 29 30  1  0  0  0
 29 49  1  0  0  0
 30 31  2  0  0  0
 30 50  1  0  0  0
 31 32  1  0  0  0
 31 51  1  0  0  0
 32 33  2  0  0  0
 32 52  1  0  0  0
 33 53  1  0  0  0
M  END
> <s_m_entry_id>
20640

> <s_m_entry_name>
dock_pv.23

> <s_m_Source_Path>
/home/csk/Desktop/cluster/DUD-E-result/fa7

> <s_m_Source_File>
dock_pv.maegz

> <i_m_Source_File_Index>
23

> <chembl_id>
CHEMBL206069

> <chembl_pref_name>
None

> <i_lp_mmshare_version>
53161

> <r_lp_tautomer_probability>
0.999999999997365

> <s_lp_Force_Field>
OPLS_2005

> <r_lp_Energy>
19.951517

> <b_lp_Chiralities_Consistent>
1

> <s_lp_Variant>
CHEMBL3991_lig223-1

> <s_i_glide_gridfile>
glide-grid_1w7x

> <i_i_glide_lignum>
254

> <i_i_glide_rotatable_bonds>
10

> <r_i_docking_score>
-7.60685407443328

> <r_i_glide_ligand_efficiency>
-0.230510729528281

> <r_i_glide_ligand_efficiency_sa>
-0.739371077532606

> <r_i_glide_ligand_efficiency_ln>
-1.69172495997147

> <r_i_glide_gscore>
-7.60685407443328

> <r_i_glide_lipo>
-2.15573169560593

> <r_i_glide_hbond>
-0.527305499280378

> <r_i_glide_metal>
0

> <r_i_glide_rewards>
-1.06161498474223

> <r_i_glide_evdw>
-33.4794425964355

> <r_i_glide_ecoul>
-18.079402923584

> <r_i_glide_erotb>
0.607512523992768

> <r_i_glide_esite>
-0.0838318504381391

> <r_i_glide_emodel>
-73.1656807573302

> <r_i_glide_energy>
-51.5588455200195

> <r_i_glide_einternal>
2.59272336959839

> <i_i_glide_confnum>
4

> <i_i_glide_posenum>
241

> <r_i_glide_eff_state_penalty>
0

> <s_user_duplicate_titles>
CHEMBL3991_lig223,342367

> <i_f3d_flags>
0

> <s_m_subgroup_title>
dock_pv

> <s_m_subgroupid>
dock_pv

> <b_m_subgroup_collapsed>
1

$$$$
CHEMBL3991_lig208
                    3D
 Schrodinger Suite 2021-1.
 72 76  0  0  1  0            999 V2000
   10.1924   42.8562   30.9775 C   0  0  0  0  0  0
   10.0209   44.0784   31.8501 C   0  0  0  0  0  0
    9.3415   41.7993   31.1270 N   0  0  0  0  0  0
    8.1611   37.7724   38.0646 C   0  0  0  0  0  0
   10.8418   44.2964   33.0132 C   0  0  0  0  0  0
    7.9841   39.0671   37.3443 C   0  0  0  0  0  0
    7.9431   40.4274   35.2832 C   0  0  0  0  0  0
    8.0911   39.1808   35.9457 C   0  0  0  0  0  0
   12.7783   38.4794   29.7529 N   0  0  0  0  0  0
   15.3233   37.0357   29.6617 N   0  0  0  0  0  0
    8.0071   41.9180   31.7431 C   0  0  0  0  0  0
    7.9272   37.6789   39.2963 N   0  0  0  0  0  0
   11.1318   42.8447   30.1844 O   0  0  0  0  0  0
    8.0832   40.5559   33.8764 C   0  0  0  0  0  0
    7.9510   41.8008   33.2604 C   0  0  0  0  0  0
    7.6597   41.5927   36.0565 C   0  0  0  0  0  0
    7.7023   40.2372   38.0707 C   0  0  0  0  0  0
    7.5350   41.4711   37.4547 C   0  0  0  0  0  0
   10.6425   45.4924   33.7814 C   0  0  0  0  0  0
    7.5352   42.8415   35.4075 C   0  0  0  0  0  0
    8.5827   36.7149   37.2965 N   0  0  0  0  0  0
   14.6900   37.5496   28.4371 C   0  0  0  0  0  0
   14.9153   37.8694   30.7942 C   0  0  0  0  0  0
   13.1508   37.6576   28.5916 C   0  0  0  0  0  0
   13.3753   37.8918   30.9592 C   0  0  0  0  0  0
   10.9420   39.8072   30.8227 C   0  0  0  0  0  0
    7.6689   42.9296   34.0265 C   0  0  0  0  0  0
    9.6127   40.5114   30.4501 C   0  0  0  0  0  0
   11.3292   38.6856   29.8274 C   0  0  0  0  0  0
    9.0683   45.0375   31.4923 C   0  0  0  0  0  0
   16.7764   37.0782   29.5038 C   0  0  0  0  0  0
   11.8614   43.3942   33.4459 C   0  0  0  0  0  0
    8.8847   46.1894   32.2484 C   0  0  0  0  0  0
    9.6532   46.4211   33.3831 C   0  0  0  0  0  0
   11.4455   45.7366   34.9237 C   0  0  0  0  0  0
   12.6464   43.6790   34.5598 C   0  0  0  0  0  0
   12.4379   44.8391   35.2968 C   0  0  0  0  0  0
    8.3010   38.3151   35.3345 H   0  0  0  0  0  0
    7.3392   41.1656   31.3238 H   0  0  0  0  0  0
    7.5530   42.8660   31.4493 H   0  0  0  0  0  0
    8.0921   36.7336   39.6218 H   0  0  0  0  0  0
    8.2959   39.6824   33.2804 H   0  0  0  0  0  0
    7.6293   40.2080   39.1499 H   0  0  0  0  0  0
    7.3661   42.3524   38.0558 H   0  0  0  0  0  0
    7.3395   43.7316   35.9904 H   0  0  0  0  0  0
    8.7306   35.8275   37.7629 H   0  0  0  0  0  0
    8.8998   36.8221   36.3466 H   0  0  0  0  0  0
   15.1131   38.5047   28.1430 H   0  0  0  0  0  0
   14.9155   36.8793   27.6076 H   0  0  0  0  0  0
   15.2922   38.8782   30.6646 H   0  0  0  0  0  0
   15.3851   37.5010   31.6970 H   0  0  0  0  0  0
   12.7310   36.6590   28.6781 H   0  0  0  0  0  0
   12.7329   38.1024   27.6917 H   0  0  0  0  0  0
   13.1166   38.4826   31.8391 H   0  0  0  0  0  0
   13.0013   36.8823   31.1296 H   0  0  0  0  0  0
   11.7680   40.5035   30.9637 H   0  0  0  0  0  0
   10.7985   39.3504   31.8033 H   0  0  0  0  0  0
    7.5516   43.8925   33.5513 H   0  0  0  0  0  0
    8.7903   39.8083   30.5814 H   0  0  0  0  0  0
    9.6178   40.7235   29.3777 H   0  0  0  0  0  0
   10.8408   37.7486   30.0970 H   0  0  0  0  0  0
   10.9490   38.9457   28.8370 H   0  0  0  0  0  0
    8.4591   44.8982   30.6091 H   0  0  0  0  0  0
   17.0876   36.4792   28.6469 H   0  0  0  0  0  0
   17.1412   38.0921   29.3430 H   0  0  0  0  0  0
   17.2826   36.6801   30.3828 H   0  0  0  0  0  0
   12.0500   42.4821   32.8963 H   0  0  0  0  0  0
    8.1419   46.9140   31.9489 H   0  0  0  0  0  0
    9.5056   47.3227   33.9620 H   0  0  0  0  0  0
   11.2972   46.6369   35.5032 H   0  0  0  0  0  0
   13.4239   42.9873   34.8549 H   0  0  0  0  0  0
   13.0567   45.0478   36.1572 H   0  0  0  0  0  0
  1  2  1  0  0  0
  1  3  1  0  0  0
  1 13  2  0  0  0
  2  5  1  0  0  0
  2 30  2  0  0  0
  3 11  1  0  0  0
  3 28  1  0  0  0
  4  6  1  0  0  0
  4 12  2  0  0  0
  4 21  1  0  0  0
  5 19  1  0  0  0
  5 32  2  0  0  0
  6  8  1  0  0  0
  6 17  2  0  0  0
  7 14  1  0  0  0
  7  8  2  0  0  0
  7 16  1  0  0  0
  8 38  1  0  0  0
  9 29  1  0  0  0
  9 24  1  0  0  0
  9 25  1  0  0  0
 10 23  1  0  0  0
 10 31  1  0  0  0
 10 22  1  0  0  0
 11 15  1  0  0  0
 11 39  1  0  0  0
 11 40  1  0  0  0
 12 41  1  0  0  0
 14 15  2  0  0  0
 14 42  1  0  0  0
 15 27  1  0  0  0
 16 20  1  0  0  0
 16 18  2  0  0  0
 17 18  1  0  0  0
 17 43  1  0  0  0
 18 44  1  0  0  0
 19 35  2  0  0  0
 19 34  1  0  0  0
 20 27  2  0  0  0
 20 45  1  0  0  0
 21 46  1  0  0  0
 21 47  1  0  0  0
 22 24  1  0  0  0
 22 48  1  0  0  0
 22 49  1  0  0  0
 23 25  1  0  0  0
 23 50  1  0  0  0
 23 51  1  0  0  0
 24 52  1  0  0  0
 24 53  1  0  0  0
 25 54  1  0  0  0
 25 55  1  0  0  0
 26 28  1  0  0  0
 26 29  1  0  0  0
 26 56  1  0  0  0
 26 57  1  0  0  0
 27 58  1  0  0  0
 28 59  1  0  0  0
 28 60  1  0  0  0
 29 61  1  0  0  0
 29 62  1  0  0  0
 30 33  1  0  0  0
 30 63  1  0  0  0
 31 64  1  0  0  0
 31 65  1  0  0  0
 31 66  1  0  0  0
 32 36  1  0  0  0
 32 67  1  0  0  0
 33 34  2  0  0  0
 33 68  1  0  0  0
 34 69  1  0  0  0
 35 37  1  0  0  0
 35 70  1  0  0  0
 36 37  2  0  0  0
 36 71  1  0  0  0
 37 72  1  0  0  0
M  END
> <s_m_entry_id>
20642

> <s_m_entry_name>
dock_pv.25

> <s_m_Source_Path>
/home/csk/Desktop/cluster/DUD-E-result/fa7

> <s_m_Source_File>
dock_pv.maegz

> <i_m_Source_File_Index>
25

> <chembl_id>
CHEMBL371051

> <chembl_pref_name>
None

> <i_lp_mmshare_version>
53161

> <r_lp_tautomer_probability>
1

> <s_lp_Force_Field>
OPLS_2005

> <r_lp_Energy>
58.678962

> <b_lp_Chiralities_Consistent>
1

> <s_lp_Variant>
CHEMBL3991_lig208-1

> <s_i_glide_gridfile>
glide-grid_1w7x

> <i_i_glide_lignum>
235

> <i_i_glide_rotatable_bonds>
9

> <r_i_docking_score>
-7.59686054424537

> <r_i_glide_ligand_efficiency>
-0.205320555249875

> <r_i_glide_ligand_efficiency_sa>
-0.684173639972215

> <r_i_glide_ligand_efficiency_ln>
-1.64758095636728

> <r_i_glide_gscore>
-7.59686054424537

> <r_i_glide_lipo>
-3.33750844806167

> <r_i_glide_hbond>
-0.750060571731816

> <r_i_glide_metal>
0

> <r_i_glide_rewards>
-0.107991920444673

> <r_i_glide_evdw>
-52.5709953308105

> <r_i_glide_ecoul>
-8.78429317474365

> <r_i_glide_erotb>
0.585230020422474

> <r_i_glide_esite>
-0.0403358816776118

> <r_i_glide_emodel>
-84.9170499961657

> <r_i_glide_energy>
-61.3552885055542

> <r_i_glide_einternal>
7.0882568359375

> <i_i_glide_confnum>
2

> <i_i_glide_posenum>
40

> <r_i_glide_eff_state_penalty>
0

> <s_user_duplicate_titles>
CHEMBL3991_lig208

> <i_f3d_flags>
0

> <s_m_subgroup_title>
dock_pv

> <s_m_subgroupid>
dock_pv

> <b_m_subgroup_collapsed>
1

$$$$
CHEMBL3991_lig319
                    3D
 Schrodinger Suite 2021-1.
 50 53  0  0  1  0            999 V2000
    5.9097   40.8755   33.2481 C   0  0  0  0  0  0
    6.9077   40.5609   34.1767 C   0  0  0  0  0  0
    8.2371   40.4697   33.7826 C   0  0  0  0  0  0
    6.2915   41.0817   31.9129 C   0  0  0  0  0  0
    7.6272   41.0114   31.4820 C   0  0  0  0  0  0
    8.5964   40.6934   32.4551 C   0  0  0  0  0  0
    9.9428   40.4799   32.1230 N   0  0  0  0  0  0
   10.4223   40.3949   30.7388 C   0  0  2  0  0  0
    9.2408   40.3169   29.7271 C   0  0  0  0  0  0
    8.0463   41.2726   30.0176 C   0  0  2  0  0  0
    8.3631   42.7842   29.8157 C   0  0  0  0  0  0
    9.5525   43.2276   29.2120 C   0  0  0  0  0  0
    9.8002   44.5863   29.0232 C   0  0  0  0  0  0
    8.8503   45.5222   29.4193 C   0  0  0  0  0  0
    7.6613   45.1103   30.0124 C   0  0  0  0  0  0
    7.4226   43.7512   30.2076 C   0  0  0  0  0  0
   11.5320   39.3532   30.5018 C   0  0  0  0  0  0
   11.8288   38.9299   29.2008 C   0  0  0  0  0  0
   12.8949   38.0793   28.9425 C   0  0  0  0  0  0
   13.7030   37.6584   29.9895 C   0  0  0  0  0  0
   13.4166   38.0423   31.2964 C   0  0  0  0  0  0
   12.3312   38.8784   31.5536 C   0  0  0  0  0  0
    4.5027   40.9888   33.6697 C   0  0  0  0  0  0
    3.9943   40.1460   34.4562 N   0  0  0  0  0  0
    3.8706   42.0780   33.1273 N   0  0  0  0  0  0
   14.7921   36.8787   29.7171 O   0  0  0  0  0  0
    6.9349   40.8814   29.0032 C   0  0  0  0  0  0
    6.6601   40.3862   35.2153 H   0  0  0  0  0  0
    8.9840   40.2046   34.5170 H   0  0  0  0  0  0
    5.5276   41.3156   31.1873 H   0  0  0  0  0  0
   10.6584   40.4173   32.8320 H   0  0  0  0  0  0
   10.9453   41.3369   30.5748 H   0  0  0  0  0  0
    9.5914   40.5029   28.7132 H   0  0  0  0  0  0
    8.8812   39.2855   29.6973 H   0  0  0  0  0  0
   10.3241   42.5426   28.8854 H   0  0  0  0  0  0
   10.7253   44.9079   28.5636 H   0  0  0  0  0  0
    9.0393   46.5743   29.2635 H   0  0  0  0  0  0
    6.9233   45.8431   30.3129 H   0  0  0  0  0  0
    6.4883   43.4560   30.6597 H   0  0  0  0  0  0
   11.2680   39.2871   28.3566 H   0  0  0  0  0  0
   13.1140   37.7883   27.9249 H   0  0  0  0  0  0
   14.0430   37.7086   32.1093 H   0  0  0  0  0  0
   12.1591   39.1905   32.5735 H   0  0  0  0  0  0
    3.0236   40.3481   34.6387 H   0  0  0  0  0  0
    2.8965   42.2607   33.3055 H   0  0  0  0  0  0
    4.3757   42.7085   32.5213 H   0  0  0  0  0  0
   14.7963   36.5883   28.7974 H   0  0  0  0  0  0
    6.0587   41.5281   29.0644 H   0  0  0  0  0  0
    7.2954   40.9564   27.9764 H   0  0  0  0  0  0
    6.5945   39.8553   29.1548 H   0  0  0  0  0  0
  1  2  2  0  0  0
  1  4  1  0  0  0
  1 23  1  0  0  0
  2  3  1  0  0  0
  2 28  1  0  0  0
  3  6  2  0  0  0
  3 29  1  0  0  0
  4  5  2  0  0  0
  4 30  1  0  0  0
  5  6  1  0  0  0
  5 10  1  0  0  0
  6  7  1  0  0  0
  7  8  1  0  0  0
  7 31  1  0  0  0
  8  9  1  0  0  0
  8 17  1  0  0  0
  8 32  1  0  0  0
  9 10  1  0  0  0
  9 33  1  0  0  0
  9 34  1  0  0  0
 10 11  1  0  0  0
 10 27  1  0  0  0
 11 12  2  0  0  0
 11 16  1  0  0  0
 12 13  1  0  0  0
 12 35  1  0  0  0
 13 14  2  0  0  0
 13 36  1  0  0  0
 14 15  1  0  0  0
 14 37  1  0  0  0
 15 16  2  0  0  0
 15 38  1  0  0  0
 16 39  1  0  0  0
 17 18  2  0  0  0
 17 22  1  0  0  0
 18 19  1  0  0  0
 18 40  1  0  0  0
 19 20  2  0  0  0
 19 41  1  0  0  0
 20 21  1  0  0  0
 20 26  1  0  0  0
 21 22  2  0  0  0
 21 42  1  0  0  0
 22 43  1  0  0  0
 23 24  2  0  0  0
 23 25  1  0  0  0
 24 44  1  0  0  0
 25 45  1  0  0  0
 25 46  1  0  0  0
 26 47  1  0  0  0
 27 48  1  0  0  0
 27 49  1  0  0  0
 27 50  1  0  0  0
M  END
> <s_m_entry_id>
20643

> <s_m_entry_name>
dock_pv.26

> <s_m_Source_Path>
/home/csk/Desktop/cluster/DUD-E-result/fa7

> <s_m_Source_File>
dock_pv.maegz

> <i_m_Source_File_Index>
26

> <chembl_id>
CHEMBL2409315

> <chembl_pref_name>
None

> <i_lp_mmshare_version>
53161

> <r_lp_tautomer_probability>
0.999999999997365

> <s_lp_Force_Field>
OPLS_2005

> <r_lp_Energy>
19.621393

> <b_lp_Chiralities_Consistent>
1

> <s_lp_Variant>
CHEMBL3991_lig319-1

> <s_i_glide_gridfile>
glide-grid_1w7x

> <i_i_glide_lignum>
397

> <i_i_glide_rotatable_bonds>
4

> <r_i_docking_score>
-7.58453885700926

> <r_i_glide_ligand_efficiency>
-0.280908846555898

> <r_i_glide_ligand_efficiency_sa>
-0.842726538741865

> <r_i_glide_ligand_efficiency_ln>
-1.76555560501622

> <r_i_glide_gscore>
-7.58453885700926

> <r_i_glide_lipo>
-1.88421066549428

> <r_i_glide_hbond>
-0.319126230713915

> <r_i_glide_metal>
0

> <r_i_glide_rewards>
-0.971943954545453

> <r_i_glide_evdw>
-31.5245246887207

> <r_i_glide_ecoul>
-20.714879989624

> <r_i_glide_erotb>
0.299668434647092

> <r_i_glide_esite>
-0.0254682080230637

> <r_i_glide_emodel>
-69.5621315027431

> <r_i_glide_energy>
-52.2394046783447

> <r_i_glide_einternal>
6.81179475784302

> <i_i_glide_confnum>
3

> <i_i_glide_posenum>
102

> <r_i_glide_eff_state_penalty>
0

> <s_user_duplicate_titles>
CHEMBL3991_lig319

> <i_f3d_flags>
0

> <s_m_subgroup_title>
dock_pv

> <s_m_subgroupid>
dock_pv

> <b_m_subgroup_collapsed>
1

$$$$
CHEMBL3991_lig227
                    3D
 Schrodinger Suite 2021-1.
 54 57  0  0  1  0            999 V2000
    7.3911   41.0488   37.2432 C   0  0  0  0  0  0
    7.7673   42.4051   37.1522 C   0  0  0  0  0  0
    8.3309   42.9704   35.9985 C   0  0  0  0  0  0
    7.6256   40.2087   36.1459 C   0  0  0  0  0  0
    8.2218   40.7353   34.9997 C   0  0  0  0  0  0
    8.5582   42.1048   34.9243 C   0  0  0  0  0  0
    9.1087   42.2364   33.6638 N   0  0  0  0  0  0
    9.1099   40.9802   33.0957 C   0  0  0  0  0  0
    8.5669   40.0789   33.8631 N   0  0  0  0  0  0
    9.6106   40.6131   31.7473 C   0  0  0  0  0  0
   10.7964   39.8781   31.5539 C   0  0  0  0  0  0
   11.1246   39.3496   30.2791 C   0  0  0  0  0  0
   10.2153   39.6185   29.2449 C   0  0  0  0  0  0
    9.0859   40.4143   29.4024 C   0  0  0  0  0  0
    8.7788   40.9020   30.6697 C   0  0  0  0  0  0
    8.2121   40.7081   28.1759 C   0  0  2  0  0  0
    7.9673   42.2077   28.0171 C   0  0  0  0  0  0
    6.8702   39.9472   28.1367 C   0  0  0  0  0  0
    7.0900   38.4940   27.7339 C   0  0  0  0  0  0
    6.1008   38.0790   26.8970 O   0  0  0  0  0  0
    8.0198   37.7784   28.0970 O   0  0  0  0  0  0
    9.1310   42.8588   27.7151 O   0  0  0  0  0  0
    6.8833   42.7726   28.1517 O   0  0  0  0  0  0
   11.6011   39.6954   32.6492 O   0  0  0  0  0  0
    6.7310   40.4790   38.4402 C   0  0  0  0  0  0
    5.7656   39.6790   38.3096 N   0  0  0  0  0  0
    7.2621   40.8979   39.6301 N   0  0  0  0  0  0
   12.3646   38.5459   29.9440 C   0  0  0  0  0  0
   12.8157   38.4790   28.6125 C   0  0  0  0  0  0
   13.9949   37.8519   28.2467 C   0  0  0  0  0  0
   14.8033   37.3289   29.2334 C   0  0  0  0  0  0
   14.3670   37.3102   30.5494 C   0  0  0  0  0  0
   13.1435   37.8779   30.9017 C   0  0  0  0  0  0
   16.0454   36.8790   28.8970 O   0  0  0  0  0  0
    7.6030   43.0591   37.9984 H   0  0  0  0  0  0
    8.6000   44.0168   35.9607 H   0  0  0  0  0  0
    7.3650   39.1595   36.1829 H   0  0  0  0  0  0
    9.4903   43.0549   33.2130 H   0  0  0  0  0  0
   10.3657   39.2067   28.2624 H   0  0  0  0  0  0
    7.8714   41.4697   30.8232 H   0  0  0  0  0  0
    8.7871   40.4298   27.2932 H   0  0  0  0  0  0
    6.3735   39.9864   29.1085 H   0  0  0  0  0  0
    6.1989   40.3990   27.3981 H   0  0  0  0  0  0
    6.3310   37.2571   26.4201 H   0  0  0  0  0  0
    9.9055   42.2870   27.7055 H   0  0  0  0  0  0
   12.5369   39.6247   32.4407 H   0  0  0  0  0  0
    5.4309   39.3466   39.2019 H   0  0  0  0  0  0
    6.9238   40.5106   40.4970 H   0  0  0  0  0  0
    8.1539   41.3842   39.6440 H   0  0  0  0  0  0
   12.3310   39.0192   27.8219 H   0  0  0  0  0  0
   14.3186   37.8630   27.2152 H   0  0  0  0  0  0
   14.9986   36.8790   31.2970 H   0  0  0  0  0  0
   12.8504   37.8094   31.9358 H   0  0  0  0  0  0
   16.1117   36.6554   27.9607 H   0  0  0  0  0  0
  1  4  2  0  0  0
  1 25  1  0  0  0
  1  2  1  0  0  0
  2  3  2  0  0  0
  2 35  1  0  0  0
  3  6  1  0  0  0
  3 36  1  0  0  0
  4  5  1  0  0  0
  4 37  1  0  0  0
  5  9  1  0  0  0
  5  6  2  0  0  0
  6  7  1  0  0  0
  7  8  1  0  0  0
  7 38  1  0  0  0
  8  9  2  0  0  0
  8 10  1  0  0  0
 10 11  2  0  0  0
 10 15  1  0  0  0
 11 24  1  0  0  0
 11 12  1  0  0  0
 12 13  2  0  0  0
 12 28  1  0  0  0
 13 14  1  0  0  0
 13 39  1  0  0  0
 14 16  1  0  0  0
 14 15  2  0  0  0
 15 40  1  0  0  0
 16 17  1  0  0  0
 16 18  1  0  0  0
 16 41  1  0  0  0
 17 22  1  0  0  0
 17 23  2  0  0  0
 18 19  1  0  0  0
 18 42  1  0  0  0
 18 43  1  0  0  0
 19 20  1  0  0  0
 19 21  2  0  0  0
 20 44  1  0  0  0
 22 45  1  0  0  0
 24 46  1  0  0  0
 25 26  2  0  0  0
 25 27  1  0  0  0
 26 47  1  0  0  0
 27 48  1  0  0  0
 27 49  1  0  0  0
 28 29  2  0  0  0
 28 33  1  0  0  0
 29 30  1  0  0  0
 29 50  1  0  0  0
 30 31  2  0  0  0
 30 51  1  0  0  0
 31 32  1  0  0  0
 31 34  1  0  0  0
 32 33  2  0  0  0
 32 52  1  0  0  0
 33 53  1  0  0  0
 34 54  1  0  0  0
M  END
> <s_m_entry_id>
20644

> <s_m_entry_name>
dock_pv.27

> <s_m_Source_Path>
/home/csk/Desktop/cluster/DUD-E-result/fa7

> <s_m_Source_File>
dock_pv.maegz

> <i_m_Source_File_Index>
27

> <chembl_id>
CHEMBL205880

> <chembl_pref_name>
None

> <i_lp_mmshare_version>
53161

> <r_lp_tautomer_probability>
0.99999999999473

> <s_lp_Force_Field>
OPLS_2005

> <r_lp_Energy>
24.962395

> <b_lp_Chiralities_Consistent>
1

> <s_lp_Variant>
CHEMBL3991_lig227-1

> <s_i_glide_gridfile>
glide-grid_1w7x

> <i_i_glide_lignum>
262

> <i_i_glide_rotatable_bonds>
11

> <r_i_docking_score>
-7.55924903693894

> <r_i_glide_ligand_efficiency>
-0.222330854027616

> <r_i_glide_ligand_efficiency_sa>
-0.720265657649327

> <r_i_glide_ligand_efficiency_ln>
-1.67005014201337

> <r_i_glide_gscore>
-7.55924903693894

> <r_i_glide_lipo>
-2.26396628044806

> <r_i_glide_hbond>
-0.519978503012619

> <r_i_glide_metal>
0

> <r_i_glide_rewards>
-0.37902934058859

> <r_i_glide_evdw>
-42.3488273620605

> <r_i_glide_ecoul>
-18.3936443328857

> <r_i_glide_erotb>
0.569661969288118

> <r_i_glide_esite>
-0.0894488641418926

> <r_i_glide_emodel>
-74.8303252399492

> <r_i_glide_energy>
-60.7424716949463

> <r_i_glide_einternal>
20.6013946533203

> <i_i_glide_confnum>
1

> <i_i_glide_posenum>
305

> <r_i_glide_eff_state_penalty>
0

> <s_user_duplicate_titles>
CHEMBL3991_lig227,342579

> <i_f3d_flags>
0

> <s_m_subgroup_title>
dock_pv

> <s_m_subgroupid>
dock_pv

> <b_m_subgroup_collapsed>
1

$$$$
CHEMBL3991_lig210
                    3D
 Schrodinger Suite 2021-1.
 67 71  0  0  1  0            999 V2000
    9.3719   43.8132   30.9188 C   0  0  0  0  0  0
    9.8373   44.9727   31.7615 C   0  0  0  0  0  0
    8.5366   42.8773   31.4740 N   0  0  0  0  0  0
   14.3545   37.6786   28.2721 C   0  0  0  0  0  0
    8.5335   43.6760   36.4539 N   0  0  2  0  0  0
   10.8440   44.8062   32.7771 C   0  0  0  0  0  0
   13.4562   38.0799   29.3831 C   0  0  0  0  0  0
   11.5101   39.3354   30.2331 C   0  0  0  0  0  0
   12.2790   38.8200   29.1644 C   0  0  0  0  0  0
    8.4353   41.5585   30.8174 C   0  0  0  0  0  0
   15.5289   37.2792   28.4999 N   0  0  0  0  0  0
    8.4106   43.3782   34.0022 C   0  0  0  0  0  0
    9.8393   43.7083   29.7828 O   0  0  0  0  0  0
    7.6835   43.0261   32.6884 C   0  0  0  0  0  0
    7.6852   43.2285   35.3510 C   0  0  1  0  0  0
   10.3571   40.1284   30.0085 C   0  0  0  0  0  0
    9.6365   40.6555   31.0819 C   0  0  0  0  0  0
   11.9308   39.0841   31.5686 C   0  0  0  0  0  0
   13.8105   37.7984   30.7110 C   0  0  0  0  0  0
   13.0790   38.2882   31.7833 C   0  0  0  0  0  0
   11.0912   45.8924   33.6768 C   0  0  0  0  0  0
   11.1895   39.6433   32.6387 C   0  0  0  0  0  0
   13.7787   37.6796   27.0278 N   0  0  0  0  0  0
   10.0484   40.3954   32.3881 C   0  0  0  0  0  0
    9.2463   46.2239   31.5745 C   0  0  0  0  0  0
    7.9512   43.0980   37.6510 C   0  0  0  0  0  0
    8.6891   45.1256   36.5615 C   0  0  0  0  0  0
   11.5535   43.5873   32.9930 C   0  0  0  0  0  0
    7.5387   41.6858   37.2301 C   0  0  0  0  0  0
    9.5709   47.2973   32.3942 C   0  0  0  0  0  0
    7.3082   41.7806   35.7137 C   0  0  0  0  0  0
   10.4660   47.1394   33.4447 C   0  0  0  0  0  0
   11.9308   45.6890   34.8010 C   0  0  0  0  0  0
   12.3838   43.4281   34.0972 C   0  0  0  0  0  0
   12.5642   44.4676   34.9996 C   0  0  0  0  0  0
   11.9570   39.0793   28.1660 H   0  0  0  0  0  0
    8.3310   41.6964   29.7394 H   0  0  0  0  0  0
    7.5319   41.0321   31.1257 H   0  0  0  0  0  0
   15.9570   36.9457   27.6455 H   0  0  0  0  0  0
    9.3445   42.8266   34.0732 H   0  0  0  0  0  0
    8.6442   44.4323   33.9328 H   0  0  0  0  0  0
    6.8951   43.7549   32.4935 H   0  0  0  0  0  0
    7.1494   42.0910   32.8592 H   0  0  0  0  0  0
    6.7726   43.8259   35.2909 H   0  0  0  0  0  0
   10.0596   40.3425   28.9914 H   0  0  0  0  0  0
   14.7041   37.2306   30.9314 H   0  0  0  0  0  0
   13.4125   38.0948   32.7932 H   0  0  0  0  0  0
   11.5131   39.4682   33.6541 H   0  0  0  0  0  0
   14.2559   37.2084   26.2587 H   0  0  0  0  0  0
   12.8318   38.0035   26.8803 H   0  0  0  0  0  0
    9.4929   40.7952   33.2208 H   0  0  0  0  0  0
    8.5096   46.3699   30.7971 H   0  0  0  0  0  0
    7.1312   43.7102   38.0207 H   0  0  0  0  0  0
    8.6836   43.1132   38.4611 H   0  0  0  0  0  0
    7.7594   45.6149   36.8519 H   0  0  0  0  0  0
    9.4534   45.3642   37.2955 H   0  0  0  0  0  0
    9.0262   45.5791   35.6319 H   0  0  0  0  0  0
   11.4232   42.7569   32.3163 H   0  0  0  0  0  0
    6.6552   41.3433   37.7681 H   0  0  0  0  0  0
    8.3310   40.9747   37.4648 H   0  0  0  0  0  0
    9.0975   48.2554   32.2363 H   0  0  0  0  0  0
    6.2486   41.6098   35.5252 H   0  0  0  0  0  0
    7.8902   41.0373   35.1670 H   0  0  0  0  0  0
   10.6786   47.9733   34.0973 H   0  0  0  0  0  0
   12.0852   46.4882   35.5088 H   0  0  0  0  0  0
   12.8958   42.4892   34.2553 H   0  0  0  0  0  0
   13.2138   44.3333   35.8526 H   0  0  0  0  0  0
  1  2  1  0  0  0
  1  3  1  0  0  0
  1 13  2  0  0  0
  2  6  1  0  0  0
  2 25  2  0  0  0
  3 10  1  0  0  0
  3 14  1  0  0  0
  4  7  1  0  0  0
  4 11  2  0  0  0
  4 23  1  0  0  0
  5 15  1  0  0  0
  5 26  1  0  0  0
  5 27  1  0  0  0
  6 21  1  0  0  0
  6 28  2  0  0  0
  7  9  1  0  0  0
  7 19  2  0  0  0
  8 16  1  0  0  0
  8  9  2  0  0  0
  8 18  1  0  0  0
  9 36  1  0  0  0
 10 17  1  0  0  0
 10 37  1  0  0  0
 10 38  1  0  0  0
 11 39  1  0  0  0
 12 14  1  0  0  0
 12 15  1  0  0  0
 12 40  1  0  0  0
 12 41  1  0  0  0
 14 42  1  0  0  0
 14 43  1  0  0  0
 15 31  1  0  0  0
 15 44  1  0  0  0
 16 17  2  0  0  0
 16 45  1  0  0  0
 17 24  1  0  0  0
 18 22  1  0  0  0
 18 20  2  0  0  0
 19 20  1  0  0  0
 19 46  1  0  0  0
 20 47  1  0  0  0
 21 33  2  0  0  0
 21 32  1  0  0  0
 22 24  2  0  0  0
 22 48  1  0  0  0
 23 49  1  0  0  0
 23 50  1  0  0  0
 24 51  1  0  0  0
 25 30  1  0  0  0
 25 52  1  0  0  0
 26 29  1  0  0  0
 26 53  1  0  0  0
 26 54  1  0  0  0
 27 55  1  0  0  0
 27 56  1  0  0  0
 27 57  1  0  0  0
 28 34  1  0  0  0
 28 58  1  0  0  0
 29 31  1  0  0  0
 29 59  1  0  0  0
 29 60  1  0  0  0
 30 32  2  0  0  0
 30 61  1  0  0  0
 31 62  1  0  0  0
 31 63  1  0  0  0
 32 64  1  0  0  0
 33 35  1  0  0  0
 33 65  1  0  0  0
 34 35  2  0  0  0
 34 66  1  0  0  0
 35 67  1  0  0  0
M  END
> <s_m_entry_id>
20645

> <s_m_entry_name>
dock_pv.28

> <s_m_Source_Path>
/home/csk/Desktop/cluster/DUD-E-result/fa7

> <s_m_Source_File>
dock_pv.maegz

> <i_m_Source_File_Index>
28

> <chembl_id>
CHEMBL194689

> <chembl_pref_name>
None

> <i_lp_mmshare_version>
53161

> <r_lp_tautomer_probability>
1

> <s_lp_Force_Field>
OPLS_2005

> <r_lp_Energy>
51.893562

> <b_lp_Chiralities_Consistent>
1

> <s_lp_Variant>
CHEMBL3991_lig210-2

> <s_i_glide_gridfile>
glide-grid_1w7x

> <i_i_glide_lignum>
238

> <i_i_glide_rotatable_bonds>
8

> <r_i_docking_score>
-7.53998882631535

> <r_i_glide_ligand_efficiency>
-0.215428252180439

> <r_i_glide_ligand_efficiency_sa>
-0.704680097135117

> <r_i_glide_ligand_efficiency_ln>
-1.65519488841212

> <r_i_glide_gscore>
-7.53998882631535

> <r_i_glide_lipo>
-3.48221669613616

> <r_i_glide_hbond>
-0.456

> <r_i_glide_metal>
0

> <r_i_glide_rewards>
-0.601528129507393

> <r_i_glide_evdw>
-43.1260261535645

> <r_i_glide_ecoul>
-8.85747814178467

> <r_i_glide_erotb>
0.560396061511972

> <r_i_glide_esite>
-0.07571703323785

> <r_i_glide_emodel>
-69.5931275191197

> <r_i_glide_energy>
-51.9835042953491

> <r_i_glide_einternal>
9.08135795593262

> <i_i_glide_confnum>
12

> <i_i_glide_posenum>
282

> <r_i_glide_eff_state_penalty>
0

> <s_user_duplicate_titles>
CHEMBL3991_lig210,326018

> <i_f3d_flags>
0

> <s_m_subgroup_title>
dock_pv

> <s_m_subgroupid>
dock_pv

> <b_m_subgroup_collapsed>
1

$$$$
CHEMBL3991_lig212
                    3D
 Schrodinger Suite 2021-1.
 61 65  0  0  1  0            999 V2000
   10.3949   44.3399   30.4709 C   0  0  0  0  0  0
   10.5399   45.8454   30.4868 C   0  0  0  0  0  0
    9.3897   43.7764   31.2056 N   0  0  0  0  0  0
   14.1151   37.6790   28.3798 C   0  0  0  0  0  0
   10.0726   46.6492   29.3890 C   0  0  0  0  0  0
   13.2374   38.1398   29.4845 C   0  0  0  0  0  0
   11.4506   39.6156   30.3162 C   0  0  0  0  0  0
   12.1462   38.9939   29.2548 C   0  0  0  0  0  0
    8.8913   42.4131   30.9033 C   0  0  0  0  0  0
   15.2889   37.2790   28.6144 N   0  0  0  0  0  0
   11.1305   43.6942   29.7228 O   0  0  0  0  0  0
    8.5745   44.5317   32.1815 C   0  0  0  0  0  0
   10.4713   40.6135   30.0900 C   0  0  0  0  0  0
    9.8623   41.2657   31.1642 C   0  0  0  0  0  0
    9.9693   45.3903   35.2882 N   0  0  0  0  0  0
   11.7950   39.2790   31.6535 C   0  0  0  0  0  0
   13.5436   37.8153   30.8138 C   0  0  0  0  0  0
    8.6983   44.0798   33.6538 C   0  0  0  0  0  0
   12.8449   38.3655   31.8804 C   0  0  0  0  0  0
   10.1341   48.0763   29.5067 C   0  0  0  0  0  0
   11.0957   39.8823   32.7175 C   0  0  0  0  0  0
   13.5310   37.6790   27.1373 N   0  0  0  0  0  0
   10.0226   44.4179   34.3375 C   0  0  0  0  0  0
   10.1285   40.8465   32.4658 C   0  0  0  0  0  0
   11.0794   46.4735   31.6139 C   0  0  0  0  0  0
    9.5368   46.1053   28.1816 C   0  0  0  0  0  0
   11.1310   47.8567   31.7147 C   0  0  0  0  0  0
   11.1127   45.7020   35.9510 C   0  0  0  0  0  0
   10.6637   48.6580   30.6825 C   0  0  0  0  0  0
    9.6532   48.8897   28.4503 C   0  0  0  0  0  0
   11.2109   43.7455   34.0254 C   0  0  0  0  0  0
    9.0814   46.9333   27.1602 C   0  0  0  0  0  0
   12.3310   45.0735   35.6941 C   0  0  0  0  0  0
    9.1310   48.3141   27.2972 C   0  0  0  0  0  0
   12.3762   44.0790   34.7167 C   0  0  0  0  0  0
   11.8957   39.3042   28.2507 H   0  0  0  0  0  0
    8.6122   42.3893   29.8482 H   0  0  0  0  0  0
    7.9699   42.2069   31.4493 H   0  0  0  0  0  0
   15.7260   36.9361   27.7687 H   0  0  0  0  0  0
    8.6760   45.6154   32.1262 H   0  0  0  0  0  0
    7.5398   44.3635   31.8788 H   0  0  0  0  0  0
   10.2564   40.9126   29.0731 H   0  0  0  0  0  0
   14.3724   37.1578   31.0364 H   0  0  0  0  0  0
    7.8964   44.5714   34.2079 H   0  0  0  0  0  0
    8.4624   43.0246   33.7649 H   0  0  0  0  0  0
   13.1361   38.1323   32.8957 H   0  0  0  0  0  0
   11.3464   39.6081   33.7268 H   0  0  0  0  0  0
   14.0205   37.2403   26.3610 H   0  0  0  0  0  0
   12.5924   38.0349   26.9753 H   0  0  0  0  0  0
    9.6279   41.3009   33.3037 H   0  0  0  0  0  0
   11.4490   45.8896   32.4430 H   0  0  0  0  0  0
    9.4805   45.0351   28.0461 H   0  0  0  0  0  0
   11.5310   48.3120   32.6092 H   0  0  0  0  0  0
   11.0413   46.4706   36.7083 H   0  0  0  0  0  0
   10.7037   49.7339   30.7757 H   0  0  0  0  0  0
    9.6896   49.9654   28.5474 H   0  0  0  0  0  0
   11.2507   42.9957   33.2543 H   0  0  0  0  0  0
    8.6805   46.4985   26.2558 H   0  0  0  0  0  0
   13.2185   45.3456   36.2472 H   0  0  0  0  0  0
    8.7619   48.9445   26.5013 H   0  0  0  0  0  0
   13.3053   43.5721   34.4966 H   0  0  0  0  0  0
  1  2  1  0  0  0
  1  3  1  0  0  0
  1 11  2  0  0  0
  2  5  1  0  0  0
  2 25  2  0  0  0
  3  9  1  0  0  0
  3 12  1  0  0  0
  4  6  1  0  0  0
  4 10  2  0  0  0
  4 22  1  0  0  0
  5 20  1  0  0  0
  5 26  2  0  0  0
  6  8  1  0  0  0
  6 17  2  0  0  0
  7 13  1  0  0  0
  7  8  2  0  0  0
  7 16  1  0  0  0
  8 36  1  0  0  0
  9 14  1  0  0  0
  9 37  1  0  0  0
  9 38  1  0  0  0
 10 39  1  0  0  0
 12 18  1  0  0  0
 12 40  1  0  0  0
 12 41  1  0  0  0
 13 14  2  0  0  0
 13 42  1  0  0  0
 14 24  1  0  0  0
 15 23  1  0  0  0
 15 28  2  0  0  0
 16 21  1  0  0  0
 16 19  2  0  0  0
 17 19  1  0  0  0
 17 43  1  0  0  0
 18 23  1  0  0  0
 18 44  1  0  0  0
 18 45  1  0  0  0
 19 46  1  0  0  0
 20 30  2  0  0  0
 20 29  1  0  0  0
 21 24  2  0  0  0
 21 47  1  0  0  0
 22 48  1  0  0  0
 22 49  1  0  0  0
 23 31  2  0  0  0
 24 50  1  0  0  0
 25 27  1  0  0  0
 25 51  1  0  0  0
 26 32  1  0  0  0
 26 52  1  0  0  0
 27 29  2  0  0  0
 27 53  1  0  0  0
 28 33  1  0  0  0
 28 54  1  0  0  0
 29 55  1  0  0  0
 30 34  1  0  0  0
 30 56  1  0  0  0
 31 35  1  0  0  0
 31 57  1  0  0  0
 32 34  2  0  0  0
 32 58  1  0  0  0
 33 35  2  0  0  0
 33 59  1  0  0  0
 34 60  1  0  0  0
 35 61  1  0  0  0
M  END
> <s_m_entry_id>
20646

> <s_m_entry_name>
dock_pv.29

> <s_m_Source_Path>
/home/csk/Desktop/cluster/DUD-E-result/fa7

> <s_m_Source_File>
dock_pv.maegz

> <i_m_Source_File_Index>
29

> <chembl_id>
CHEMBL195032

> <chembl_pref_name>
None

> <i_lp_mmshare_version>
53161

> <r_lp_tautomer_probability>
1

> <s_lp_Force_Field>
OPLS_2005

> <r_lp_Energy>
29.687514

> <b_lp_Chiralities_Consistent>
1

> <s_lp_Variant>
CHEMBL3991_lig212-1

> <s_i_glide_gridfile>
glide-grid_1w7x

> <i_i_glide_lignum>
240

> <i_i_glide_rotatable_bonds>
8

> <r_i_docking_score>
-7.46701126416753

> <r_i_glide_ligand_efficiency>
-0.213343178976215

> <r_i_glide_ligand_efficiency_sa>
-0.697859684430587

> <r_i_glide_ligand_efficiency_ln>
-1.63917469387095

> <r_i_glide_gscore>
-7.46701126416753

> <r_i_glide_lipo>
-3.23216179469019

> <r_i_glide_hbond>
-0.448878196373627

> <r_i_glide_metal>
0

> <r_i_glide_rewards>
-0.759059253427332

> <r_i_glide_evdw>
-44.4872093200684

> <r_i_glide_ecoul>
-8.16445255279541

> <r_i_glide_erotb>
0.478278718684295

> <r_i_glide_esite>
-0.0561623894379445

> <r_i_glide_emodel>
-72.481992401775

> <r_i_glide_energy>
-52.6516618728638

> <r_i_glide_einternal>
6.1619439125061

> <i_i_glide_confnum>
48

> <i_i_glide_posenum>
309

> <r_i_glide_eff_state_penalty>
0

> <s_user_duplicate_titles>
CHEMBL3991_lig212,326020

> <i_f3d_flags>
0

> <s_m_subgroup_title>
dock_pv

> <s_m_subgroupid>
dock_pv

> <b_m_subgroup_collapsed>
1

$$$$
CHEMBL3991_lig252
                    3D
 Schrodinger Suite 2021-1.
 56 59  0  0  1  0            999 V2000
   13.5081   38.0720   29.3437 C   0  0  0  0  0  0
   14.0121   37.6833   30.6003 C   0  0  0  0  0  0
   13.4474   38.0790   31.8060 C   0  0  0  0  0  0
   12.3191   38.8331   29.2972 C   0  0  0  0  0  0
   11.7110   39.2333   30.4955 C   0  0  0  0  0  0
   12.3143   38.8790   31.7199 C   0  0  0  0  0  0
   11.5308   39.4928   32.6587 N   0  0  0  0  0  0
   10.4448   40.0450   32.0181 C   0  0  0  0  0  0
   10.5669   39.9652   30.7090 N   0  0  0  0  0  0
    9.2596   40.6226   32.7501 C   0  0  0  0  0  0
    8.9076   40.2455   34.0634 C   0  0  0  0  0  0
    7.8515   40.8757   34.7463 C   0  0  0  0  0  0
    7.0931   41.8278   34.0619 C   0  0  0  0  0  0
    7.3551   42.1416   32.7239 C   0  0  0  0  0  0
    8.4525   41.5537   32.0888 C   0  0  0  0  0  0
    6.4252   43.0806   31.9348 C   0  0  2  0  0  0
    6.4121   44.4795   32.5518 C   0  0  0  0  0  0
    4.9661   42.5850   31.8274 C   0  0  0  0  0  0
    4.8777   41.2231   31.1569 C   0  0  0  0  0  0
    3.6482   40.6766   31.3755 O   0  0  0  0  0  0
    5.7617   40.6744   30.5034 O   0  0  0  0  0  0
    7.6299   45.0780   32.4147 O   0  0  0  0  0  0
    5.4555   44.9992   33.1256 O   0  0  0  0  0  0
    9.5738   39.2210   34.6874 O   0  0  0  0  0  0
   14.2593   37.6790   28.1228 C   0  0  0  0  0  0
   15.4544   37.2794   28.2035 N   0  0  0  0  0  0
   13.5310   37.6790   26.9617 N   0  0  0  0  0  0
    7.5314   40.5582   36.1701 C   0  0  0  0  0  0
    7.5310   41.5723   37.1355 C   0  0  0  0  0  0
    7.3378   41.2727   38.4841 C   0  0  0  0  0  0
    7.1190   39.9563   38.8849 C   0  0  0  0  0  0
    7.0977   38.9328   37.9359 C   0  0  0  0  0  0
    7.2930   39.2403   36.5864 C   0  0  0  0  0  0
    6.8710   37.4941   38.3648 C   0  0  0  0  0  0
   14.9106   37.0848   30.6594 H   0  0  0  0  0  0
   13.8906   37.8130   32.7544 H   0  0  0  0  0  0
   11.8928   39.1512   28.3577 H   0  0  0  0  0  0
   11.6736   39.5123   33.6571 H   0  0  0  0  0  0
    6.2626   42.3012   34.5644 H   0  0  0  0  0  0
    8.6703   41.8077   31.0606 H   0  0  0  0  0  0
    6.8074   43.1911   30.9144 H   0  0  0  0  0  0
    4.5294   42.5174   32.8281 H   0  0  0  0  0  0
    4.3791   43.2868   31.2268 H   0  0  0  0  0  0
    3.0791   41.2789   31.8580 H   0  0  0  0  0  0
    8.2726   44.5063   31.9922 H   0  0  0  0  0  0
    9.9837   38.6167   34.0640 H   0  0  0  0  0  0
   15.7859   36.9316   27.3112 H   0  0  0  0  0  0
   13.9423   37.2369   26.1430 H   0  0  0  0  0  0
   12.5827   38.0388   26.8971 H   0  0  0  0  0  0
    7.7332   42.5947   36.8485 H   0  0  0  0  0  0
    7.3841   42.0590   39.2243 H   0  0  0  0  0  0
    6.9851   39.7326   39.9338 H   0  0  0  0  0  0
    7.2938   38.4421   35.8579 H   0  0  0  0  0  0
    6.3079   37.4401   39.2971 H   0  0  0  0  0  0
    7.8231   36.9780   38.4971 H   0  0  0  0  0  0
    6.2904   36.9533   37.6166 H   0  0  0  0  0  0
  1  4  2  0  0  0
  1 25  1  0  0  0
  1  2  1  0  0  0
  2  3  2  0  0  0
  2 35  1  0  0  0
  3  6  1  0  0  0
  3 36  1  0  0  0
  4  5  1  0  0  0
  4 37  1  0  0  0
  5  9  1  0  0  0
  5  6  2  0  0  0
  6  7  1  0  0  0
  7  8  1  0  0  0
  7 38  1  0  0  0
  8  9  2  0  0  0
  8 10  1  0  0  0
 10 11  2  0  0  0
 10 15  1  0  0  0
 11 24  1  0  0  0
 11 12  1  0  0  0
 12 13  2  0  0  0
 12 28  1  0  0  0
 13 14  1  0  0  0
 13 39  1  0  0  0
 14 16  1  0  0  0
 14 15  2  0  0  0
 15 40  1  0  0  0
 16 17  1  0  0  0
 16 18  1  0  0  0
 16 41  1  0  0  0
 17 22  1  0  0  0
 17 23  2  0  0  0
 18 19  1  0  0  0
 18 42  1  0  0  0
 18 43  1  0  0  0
 19 20  1  0  0  0
 19 21  2  0  0  0
 20 44  1  0  0  0
 22 45  1  0  0  0
 24 46  1  0  0  0
 25 26  2  0  0  0
 25 27  1  0  0  0
 26 47  1  0  0  0
 27 48  1  0  0  0
 27 49  1  0  0  0
 28 29  2  0  0  0
 28 33  1  0  0  0
 29 30  1  0  0  0
 29 50  1  0  0  0
 30 31  2  0  0  0
 30 51  1  0  0  0
 31 32  1  0  0  0
 31 52  1  0  0  0
 32 33  2  0  0  0
 32 34  1  0  0  0
 33 53  1  0  0  0
 34 54  1  0  0  0
 34 55  1  0  0  0
 34 56  1  0  0  0
M  END
> <s_m_entry_id>
20647

> <s_m_entry_name>
dock_pv.30

> <s_m_Source_Path>
/home/csk/Desktop/cluster/DUD-E-result/fa7

> <s_m_Source_File>
dock_pv.maegz

> <i_m_Source_File_Index>
30

> <chembl_id>
CHEMBL205208

> <chembl_pref_name>
None

> <i_lp_mmshare_version>
53161

> <r_lp_tautomer_probability>
0.999999999997365

> <s_lp_Force_Field>
OPLS_2005

> <r_lp_Energy>
23.920893

> <b_lp_Chiralities_Consistent>
1

> <s_lp_Variant>
CHEMBL3991_lig252-1

> <s_i_glide_gridfile>
glide-grid_1w7x

> <i_i_glide_lignum>
312

> <i_i_glide_rotatable_bonds>
10

> <r_i_docking_score>
-7.46098335496723

> <r_i_glide_ligand_efficiency>
-0.219440686910801

> <r_i_glide_ligand_efficiency_sa>
-0.710902638161035

> <r_i_glide_ligand_efficiency_ln>
-1.6483404966068

> <r_i_glide_gscore>
-7.46098335496723

> <r_i_glide_lipo>
-2.05192225602838

> <r_i_glide_hbond>
-0.594484124668693

> <r_i_glide_metal>
0

> <r_i_glide_rewards>
-0.906485634620389

> <r_i_glide_evdw>
-36.408561706543

> <r_i_glide_ecoul>
-17.2320785522461

> <r_i_glide_erotb>
0.574134305569734

> <r_i_glide_esite>
-0.0769857770554452

> <r_i_glide_emodel>
-71.6173006660517

> <r_i_glide_energy>
-53.6406402587891

> <r_i_glide_einternal>
5.09440231323242

> <i_i_glide_confnum>
7

> <i_i_glide_posenum>
378

> <r_i_glide_eff_state_penalty>
0

> <s_user_duplicate_titles>
CHEMBL3991_lig252,342067

> <i_f3d_flags>
0

> <s_m_subgroup_title>
dock_pv

> <s_m_subgroupid>
dock_pv

> <b_m_subgroup_collapsed>
1

$$$$
CHEMBL3991_lig282
                    3D
 Schrodinger Suite 2021-1.
 53 56  0  0  1  0            999 V2000
   13.4703   38.0779   29.2806 C   0  0  0  0  0  0
   13.9194   37.6788   30.5510 C   0  0  0  0  0  0
   13.3055   38.0753   31.7321 C   0  0  0  0  0  0
   12.3050   38.8662   29.1977 C   0  0  0  0  0  0
   11.6471   39.2785   30.3631 C   0  0  0  0  0  0
   12.1778   38.8791   31.6140 C   0  0  0  0  0  0
   11.3857   39.4609   32.5724 N   0  0  0  0  0  0
   10.3360   40.1566   32.0228 C   0  0  0  0  0  0
   10.4905   40.0794   30.6440 C   0  0  0  0  0  0
    9.2909   40.8296   32.8638 C   0  0  0  0  0  0
    8.9128   40.3743   34.1438 C   0  0  0  0  0  0
    7.9120   41.0355   34.8852 C   0  0  0  0  0  0
    7.3105   42.1692   34.3275 C   0  0  0  0  0  0
    7.6782   42.6284   33.0651 C   0  0  0  0  0  0
    8.6582   41.9592   32.3374 C   0  0  0  0  0  0
    9.5309   39.2785   34.6996 O   0  0  0  0  0  0
    7.4921   40.5561   36.2415 C   0  0  0  0  0  0
    7.5311   41.3834   37.3804 C   0  0  0  0  0  0
    7.2016   40.8743   38.6370 C   0  0  0  0  0  0
    6.8457   39.5357   38.7816 C   0  0  0  0  0  0
    6.7882   38.6970   37.6636 C   0  0  0  0  0  0
    7.0873   39.2236   36.4049 C   0  0  0  0  0  0
    7.9329   42.6923   37.3001 O   0  0  0  0  0  0
    6.3914   37.2224   37.7745 C   0  0  0  0  0  0
    5.5326   36.8366   38.8969 N   0  0  0  0  0  0
    4.3176   37.3349   39.1726 C   0  0  0  0  0  0
    3.7691   38.2101   38.5034 O   0  0  0  0  0  0
   14.2468   37.6790   28.0778 C   0  0  0  0  0  0
   15.4390   37.2790   28.1821 N   0  0  0  0  0  0
   13.5347   37.6790   26.9052 N   0  0  0  0  0  0
    3.6202   36.7634   40.4010 C   0  0  0  0  0  0
   14.8059   37.0664   30.6413 H   0  0  0  0  0  0
   13.7019   37.7873   32.6951 H   0  0  0  0  0  0
   11.9312   39.2058   28.2433 H   0  0  0  0  0  0
   11.4912   39.3740   33.5723 H   0  0  0  0  0  0
    9.8389   40.5414   29.9185 H   0  0  0  0  0  0
    6.5504   42.7044   34.8774 H   0  0  0  0  0  0
    7.2039   43.5058   32.6504 H   0  0  0  0  0  0
    8.9328   42.3328   31.3611 H   0  0  0  0  0  0
    9.1307   39.0399   35.5401 H   0  0  0  0  0  0
    7.2570   41.5045   39.5133 H   0  0  0  0  0  0
    6.6219   39.1540   39.7677 H   0  0  0  0  0  0
    7.0301   38.5767   35.5398 H   0  0  0  0  0  0
    8.1626   43.0720   38.1538 H   0  0  0  0  0  0
    7.3109   36.6383   37.8479 H   0  0  0  0  0  0
    5.9078   36.8946   36.8520 H   0  0  0  0  0  0
    5.8752   36.0774   39.4677 H   0  0  0  0  0  0
   15.7830   36.9332   27.2933 H   0  0  0  0  0  0
   13.9523   37.2433   26.0841 H   0  0  0  0  0  0
   12.5799   38.0227   26.8447 H   0  0  0  0  0  0
    4.3316   36.3390   41.1073 H   0  0  0  0  0  0
    2.9282   35.9781   40.1016 H   0  0  0  0  0  0
    3.0604   37.5430   40.9174 H   0  0  0  0  0  0
  1  4  2  0  0  0
  1 28  1  0  0  0
  1  2  1  0  0  0
  2  3  2  0  0  0
  2 32  1  0  0  0
  3  6  1  0  0  0
  3 33  1  0  0  0
  4  5  1  0  0  0
  4 34  1  0  0  0
  5  9  1  0  0  0
  5  6  2  0  0  0
  6  7  1  0  0  0
  7  8  1  0  0  0
  7 35  1  0  0  0
  8  9  2  0  0  0
  8 10  1  0  0  0
  9 36  1  0  0  0
 10 15  2  0  0  0
 10 11  1  0  0  0
 11 16  1  0  0  0
 11 12  2  0  0  0
 12 17  1  0  0  0
 12 13  1  0  0  0
 13 14  2  0  0  0
 13 37  1  0  0  0
 14 15  1  0  0  0
 14 38  1  0  0  0
 15 39  1  0  0  0
 16 40  1  0  0  0
 17 18  2  0  0  0
 17 22  1  0  0  0
 18 19  1  0  0  0
 18 23  1  0  0  0
 19 20  2  0  0  0
 19 41  1  0  0  0
 20 21  1  0  0  0
 20 42  1  0  0  0
 21 22  2  0  0  0
 21 24  1  0  0  0
 22 43  1  0  0  0
 23 44  1  0  0  0
 24 25  1  0  0  0
 24 45  1  0  0  0
 24 46  1  0  0  0
 25 26  1  0  0  0
 25 47  1  0  0  0
 26 27  2  0  0  0
 26 31  1  0  0  0
 28 29  2  0  0  0
 28 30  1  0  0  0
 29 48  1  0  0  0
 30 49  1  0  0  0
 30 50  1  0  0  0
 31 51  1  0  0  0
 31 52  1  0  0  0
 31 53  1  0  0  0
M  END
> <s_m_entry_id>
20648

> <s_m_entry_name>
dock_pv.31

> <s_m_Source_Path>
/home/csk/Desktop/cluster/DUD-E-result/fa7

> <s_m_Source_File>
dock_pv.maegz

> <i_m_Source_File_Index>
31

> <chembl_id>
CHEMBL211227

> <chembl_pref_name>
None

> <i_lp_mmshare_version>
53161

> <r_lp_tautomer_probability>
0.99999999999473

> <s_lp_Force_Field>
OPLS_2005

> <r_lp_Energy>
12.308337

> <b_lp_Chiralities_Consistent>
1

> <s_lp_Variant>
CHEMBL3991_lig282-1

> <s_i_glide_gridfile>
glide-grid_1w7x

> <i_i_glide_lignum>
359

> <i_i_glide_rotatable_bonds>
8

> <r_i_docking_score>
-7.44871201653205

> <r_i_glide_ligand_efficiency>
-0.240281032791356

> <r_i_glide_ligand_efficiency_sa>
-0.754814186683381

> <r_i_glide_ligand_efficiency_ln>
-1.67991283533642

> <r_i_glide_gscore>
-7.44871201653205

> <r_i_glide_lipo>
-2.41332083714159

> <r_i_glide_hbond>
-0.596228507890374

> <r_i_glide_metal>
0

> <r_i_glide_rewards>
-0.938417009192728

> <r_i_glide_evdw>
-39.4678840637207

> <r_i_glide_ecoul>
-12.7032241821289

> <r_i_glide_erotb>
0.459619556785361

> <r_i_glide_esite>
-0.0814873885873431

> <r_i_glide_emodel>
-73.0328282575474

> <r_i_glide_energy>
-52.1711082458496

> <r_i_glide_einternal>
4.70735359191895

> <i_i_glide_confnum>
1

> <i_i_glide_posenum>
14

> <r_i_glide_eff_state_penalty>
0

> <s_user_duplicate_titles>
CHEMBL3991_lig282,352885

> <i_f3d_flags>
0

> <s_m_subgroup_title>
dock_pv

> <s_m_subgroupid>
dock_pv

> <b_m_subgroup_collapsed>
1

$$$$
CHEMBL3991_lig244
                    3D
 Schrodinger Suite 2021-1.
 60 63  0  0  1  0            999 V2000
   13.5293   38.0660   29.2638 C   0  0  0  0  0  0
   14.0288   37.6749   30.5224 C   0  0  0  0  0  0
   13.4599   38.0787   31.7254 C   0  0  0  0  0  0
   12.3506   38.8362   29.2061 C   0  0  0  0  0  0
   11.7577   39.2482   30.3967 C   0  0  0  0  0  0
   12.3302   38.8791   31.6278 C   0  0  0  0  0  0
   11.5316   39.4913   32.5518 N   0  0  0  0  0  0
   10.4800   40.0762   31.8789 C   0  0  0  0  0  0
   10.6425   40.0112   30.5781 N   0  0  0  0  0  0
    9.2299   40.5730   32.5497 C   0  0  0  0  0  0
    8.1555   41.1424   31.8437 C   0  0  0  0  0  0
    6.9337   41.4198   32.4837 C   0  0  0  0  0  0
    6.8247   41.1654   33.8536 C   0  0  0  0  0  0
    7.8976   40.6370   34.5843 C   0  0  0  0  0  0
    9.0887   40.3542   33.9231 C   0  0  0  0  0  0
    7.7696   40.2918   36.0806 C   0  0  1  0  0  0
    7.4484   41.5165   36.9334 C   0  0  0  0  0  0
    6.7270   39.1914   36.3693 C   0  0  0  0  0  0
    7.1480   37.8957   35.6966 C   0  0  0  0  0  0
    8.3851   37.4967   36.1027 O   0  0  0  0  0  0
    6.4527   37.2738   34.8987 O   0  0  0  0  0  0
    7.5316   41.2484   38.2682 O   0  0  0  0  0  0
    7.1492   42.6177   36.4903 O   0  0  0  0  0  0
    8.2948   41.4264   30.5061 O   0  0  0  0  0  0
   14.2772   37.6797   28.0450 C   0  0  0  0  0  0
   15.4732   37.2799   28.1126 N   0  0  0  0  0  0
   13.5322   37.6775   26.8965 N   0  0  0  0  0  0
    5.7569   41.9366   31.7261 C   0  0  0  0  0  0
    5.0711   43.0827   32.1438 C   0  0  0  0  0  0
    4.0293   43.6031   31.3798 C   0  0  0  0  0  0
    3.6594   42.9793   30.1866 C   0  0  0  0  0  0
    4.2995   41.8104   29.7701 C   0  0  0  0  0  0
    5.3432   41.2958   30.5488 C   0  0  0  0  0  0
    3.9155   41.2504   28.5361 N   0  0  0  0  0  0
    4.0070   39.9604   28.1522 C   0  0  0  0  0  0
    3.6527   39.6641   26.7025 C   0  0  0  0  0  0
    4.3209   39.0279   28.8929 O   0  0  0  0  0  0
   14.9238   37.0698   30.5773 H   0  0  0  0  0  0
   13.8905   37.8103   32.6779 H   0  0  0  0  0  0
   11.9355   39.1714   28.2675 H   0  0  0  0  0  0
   11.6251   39.4572   33.5546 H   0  0  0  0  0  0
    5.8831   41.3566   34.3499 H   0  0  0  0  0  0
    9.8908   39.9018   34.4839 H   0  0  0  0  0  0
    8.7389   39.9471   36.4417 H   0  0  0  0  0  0
    6.6202   38.9735   37.4347 H   0  0  0  0  0  0
    5.7450   39.4814   35.9836 H   0  0  0  0  0  0
    8.6505   36.6730   35.6815 H   0  0  0  0  0  0
    7.8396   40.3651   38.4639 H   0  0  0  0  0  0
    9.1646   41.1504   30.1875 H   0  0  0  0  0  0
   15.7932   36.9307   27.2166 H   0  0  0  0  0  0
   13.9340   37.2466   26.0635 H   0  0  0  0  0  0
   12.5724   38.0052   26.8628 H   0  0  0  0  0  0
    5.3744   43.5939   33.0443 H   0  0  0  0  0  0
    3.5226   44.5042   31.6950 H   0  0  0  0  0  0
    2.8782   43.4167   29.5845 H   0  0  0  0  0  0
    5.8853   40.4210   30.2167 H   0  0  0  0  0  0
    3.5094   41.8961   27.8780 H   0  0  0  0  0  0
    3.2626   40.5410   26.1926 H   0  0  0  0  0  0
    2.9053   38.8857   26.6520 H   0  0  0  0  0  0
    4.5341   39.3211   26.1719 H   0  0  0  0  0  0
  1  4  2  0  0  0
  1 25  1  0  0  0
  1  2  1  0  0  0
  2  3  2  0  0  0
  2 38  1  0  0  0
  3  6  1  0  0  0
  3 39  1  0  0  0
  4  5  1  0  0  0
  4 40  1  0  0  0
  5  9  1  0  0  0
  5  6  2  0  0  0
  6  7  1  0  0  0
  7  8  1  0  0  0
  7 41  1  0  0  0
  8  9  2  0  0  0
  8 10  1  0  0  0
 10 11  2  0  0  0
 10 15  1  0  0  0
 11 24  1  0  0  0
 11 12  1  0  0  0
 12 13  2  0  0  0
 12 28  1  0  0  0
 13 14  1  0  0  0
 13 42  1  0  0  0
 14 15  2  0  0  0
 14 16  1  0  0  0
 15 43  1  0  0  0
 16 18  1  0  0  0
 16 17  1  0  0  0
 16 44  1  0  0  0
 17 22  1  0  0  0
 17 23  2  0  0  0
 18 19  1  0  0  0
 18 45  1  0  0  0
 18 46  1  0  0  0
 19 20  1  0  0  0
 19 21  2  0  0  0
 20 47  1  0  0  0
 22 48  1  0  0  0
 24 49  1  0  0  0
 25 26  2  0  0  0
 25 27  1  0  0  0
 26 50  1  0  0  0
 27 51  1  0  0  0
 27 52  1  0  0  0
 28 29  2  0  0  0
 28 33  1  0  0  0
 29 30  1  0  0  0
 29 53  1  0  0  0
 30 31  2  0  0  0
 30 54  1  0  0  0
 31 32  1  0  0  0
 31 55  1  0  0  0
 32 33  2  0  0  0
 32 34  1  0  0  0
 33 56  1  0  0  0
 34 35  1  0  0  0
 34 57  1  0  0  0
 35 36  1  0  0  0
 35 37  2  0  0  0
 36 58  1  0  0  0
 36 59  1  0  0  0
 36 60  1  0  0  0
M  END
> <s_m_entry_id>
20649

> <s_m_entry_name>
dock_pv.32

> <s_m_Source_Path>
/home/csk/Desktop/cluster/DUD-E-result/fa7

> <s_m_Source_File>
dock_pv.maegz

> <i_m_Source_File_Index>
32

> <chembl_id>
CHEMBL377953

> <chembl_pref_name>
None

> <i_lp_mmshare_version>
53161

> <r_lp_tautomer_probability>
0.999999999997365

> <s_lp_Force_Field>
OPLS_2005

> <r_lp_Energy>
23.448109

> <b_lp_Chiralities_Consistent>
1

> <s_lp_Variant>
CHEMBL3991_lig244-2

> <s_i_glide_gridfile>
glide-grid_1w7x

> <i_i_glide_lignum>
297

> <i_i_glide_rotatable_bonds>
12

> <r_i_docking_score>
-7.43987781753012

> <r_i_glide_ligand_efficiency>
-0.201077778852165

> <r_i_glide_ligand_efficiency_sa>
-0.670035767765137

> <r_i_glide_ligand_efficiency_ln>
-1.61353508314

> <r_i_glide_gscore>
-7.43987781753012

> <r_i_glide_lipo>
-1.98526860245271

> <r_i_glide_hbond>
-0.734376905454752

> <r_i_glide_metal>
0

> <r_i_glide_rewards>
-0.565384899722729

> <r_i_glide_evdw>
-38.3985824584961

> <r_i_glide_ecoul>
-17.9288101196289

> <r_i_glide_erotb>
0.568554750002657

> <r_i_glide_esite>
-0.114151519033448

> <r_i_glide_emodel>
-76.605320402646

> <r_i_glide_energy>
-56.327392578125

> <r_i_glide_einternal>
6.67950773239136

> <i_i_glide_confnum>
11

> <i_i_glide_posenum>
117

> <r_i_glide_eff_state_penalty>
0

> <s_user_duplicate_titles>
CHEMBL3991_lig244,342684

> <i_f3d_flags>
0

> <s_m_subgroup_title>
dock_pv

> <s_m_subgroupid>
dock_pv

> <b_m_subgroup_collapsed>
1

$$$$
CHEMBL3991_lig412
                    3D
 Schrodinger Suite 2021-1.
 79 84  0  0  1  0            999 V2000
   11.1079   47.3006   32.4676 C   0  0  0  0  0  0
   11.2320   46.2838   33.6260 C   0  0  1  0  0  0
   10.2533   46.6140   34.7723 C   0  0  0  0  0  0
    8.8809   46.3269   34.4974 O   0  0  0  0  0  0
    8.3141   45.1833   34.9214 C   0  0  0  0  0  0
    8.8599   44.3717   35.6742 O   0  0  0  0  0  0
    7.0539   45.0559   34.3417 N   0  0  0  0  0  0
    6.2695   43.8950   34.3014 C   0  0  0  0  0  0
    4.8849   43.9985   34.1538 C   0  0  0  0  0  0
    4.0978   42.8451   34.0971 C   0  0  0  0  0  0
    4.6795   41.5660   34.1662 C   0  0  0  0  0  0
    6.0785   41.4653   34.2045 C   0  0  0  0  0  0
    6.8041   40.1460   34.0057 C   0  0  0  0  0  0
    7.8465   40.2406   32.9780 N   0  0  0  0  0  0
    7.3337   40.4756   31.6185 C   0  0  0  0  0  0
    9.1502   40.3081   33.3447 C   0  0  0  0  0  0
    9.5224   40.1081   34.5030 O   0  0  0  0  0  0
   10.2208   40.6829   32.2975 C   0  0  2  0  0  0
   11.2613   39.6828   32.4171 N   0  0  0  0  0  0
   11.9299   39.0202   31.3899 C   0  0  0  0  0  0
   11.3771   38.9095   30.1169 C   0  0  0  0  0  0
   12.1240   38.4061   29.0728 C   0  0  0  0  0  0
   13.4702   38.0400   29.2713 C   0  0  0  0  0  0
   14.3484   37.6758   28.2243 C   0  0  0  0  0  0
   13.9314   37.6789   26.8980 N   0  0  0  0  0  0
   15.6199   37.2792   28.4317 N   0  0  0  0  0  0
   16.1007   37.2791   29.6919 C   0  0  0  0  0  0
   15.3442   37.6790   30.7862 C   0  0  0  0  0  0
   13.9952   38.0482   30.5948 C   0  0  0  0  0  0
   13.1791   38.4787   31.6606 C   0  0  0  0  0  0
   10.6601   42.1131   32.5356 C   0  0  0  0  0  0
   10.0485   43.1369   31.8108 C   0  0  0  0  0  0
   10.2871   44.4669   32.1287 C   0  0  0  0  0  0
   11.1313   44.8133   33.1930 C   0  0  0  0  0  0
   11.8008   43.7882   33.8933 C   0  0  0  0  0  0
   12.7277   44.0624   35.0739 C   0  0  0  0  0  0
   11.5764   42.4541   33.5392 C   0  0  0  0  0  0
    6.8487   42.6239   34.3149 C   0  0  0  0  0  0
    3.6020   40.1145   34.2509 S   0  0  0  0  0  0
    2.2553   40.6258   34.5051 O   0  0  0  0  0  0
    3.8602   39.2916   33.0643 O   0  0  0  0  0  0
    4.1173   39.1173   35.7930 C   0  0  0  0  0  0
    3.6027   37.6982   35.8663 C   0  0  0  0  0  0
    5.0811   37.9534   35.6419 C   0  0  0  0  0  0
   11.7351   47.0218   31.6206 H   0  0  0  0  0  0
   10.0790   47.3895   32.1085 H   0  0  0  0  0  0
   11.4179   48.2938   32.7901 H   0  0  0  0  0  0
   12.2300   46.4517   34.0282 H   0  0  0  0  0  0
   10.3067   47.6788   34.9114 H   0  0  0  0  0  0
   10.5835   46.1695   35.7122 H   0  0  0  0  0  0
    6.6983   45.8775   33.8765 H   0  0  0  0  0  0
    4.4138   44.9681   34.0967 H   0  0  0  0  0  0
    3.0250   42.9508   34.0111 H   0  0  0  0  0  0
    6.1185   39.3716   33.6809 H   0  0  0  0  0  0
    7.1891   39.8120   34.9733 H   0  0  0  0  0  0
    7.9349   39.9933   30.8519 H   0  0  0  0  0  0
    6.3241   40.0784   31.5085 H   0  0  0  0  0  0
    7.2858   41.5418   31.4089 H   0  0  0  0  0  0
    9.8267   40.6464   31.2893 H   0  0  0  0  0  0
   11.6215   39.5190   33.3442 H   0  0  0  0  0  0
   10.3764   39.2418   29.8956 H   0  0  0  0  0  0
   11.6926   38.3435   28.0976 H   0  0  0  0  0  0
   12.9627   37.8656   26.6844 H   0  0  0  0  0  0
   14.4890   37.1313   26.2362 H   0  0  0  0  0  0
   17.1319   36.9752   29.8088 H   0  0  0  0  0  0
   15.7719   37.6806   31.7704 H   0  0  0  0  0  0
   13.5877   38.4885   32.6605 H   0  0  0  0  0  0
    9.3368   42.9102   31.0336 H   0  0  0  0  0  0
    9.7490   45.2233   31.5790 H   0  0  0  0  0  0
   13.4254   44.8771   34.8968 H   0  0  0  0  0  0
   12.1435   44.3255   35.9547 H   0  0  0  0  0  0
   13.3486   43.1970   35.2969 H   0  0  0  0  0  0
   12.0603   41.6684   34.0989 H   0  0  0  0  0  0
    7.9243   42.5370   34.3508 H   0  0  0  0  0  0
    4.1046   39.7164   36.7004 H   0  0  0  0  0  0
    3.2703   37.3092   36.8333 H   0  0  0  0  0  0
    3.0041   37.3123   35.0404 H   0  0  0  0  0  0
    5.4912   37.6818   34.6682 H   0  0  0  0  0  0
    5.7859   37.7625   36.4526 H   0  0  0  0  0  0
  1  2  1  0  0  0
  1 45  1  0  0  0
  1 46  1  0  0  0
  1 47  1  0  0  0
  2  3  1  0  0  0
  2 34  1  0  0  0
  2 48  1  0  0  0
  3  4  1  0  0  0
  3 49  1  0  0  0
  3 50  1  0  0  0
  4  5  1  0  0  0
  5  6  2  0  0  0
  5  7  1  0  0  0
  7  8  1  0  0  0
  7 51  1  0  0  0
  8  9  2  0  0  0
  8 38  1  0  0  0
  9 10  1  0  0  0
  9 52  1  0  0  0
 10 11  2  0  0  0
 10 53  1  0  0  0
 11 12  1  0  0  0
 11 39  1  0  0  0
 12 13  1  0  0  0
 12 38  2  0  0  0
 13 14  1  0  0  0
 13 54  1  0  0  0
 13 55  1  0  0  0
 14 15  1  0  0  0
 14 16  1  0  0  0
 15 56  1  0  0  0
 15 57  1  0  0  0
 15 58  1  0  0  0
 16 17  2  0  0  0
 16 18  1  0  0  0
 18 19  1  0  0  0
 18 31  1  0  0  0
 18 59  1  0  0  0
 19 20  1  0  0  0
 19 60  1  0  0  0
 20 21  2  0  0  0
 20 30  1  0  0  0
 21 22  1  0  0  0
 21 61  1  0  0  0
 22 23  2  0  0  0
 22 62  1  0  0  0
 23 24  1  0  0  0
 23 29  1  0  0  0
 24 25  1  0  0  0
 24 26  2  0  0  0
 25 63  1  0  0  0
 25 64  1  0  0  0
 26 27  1  0  0  0
 27 28  2  0  0  0
 27 65  1  0  0  0
 28 29  1  0  0  0
 28 66  1  0  0  0
 29 30  2  0  0  0
 30 67  1  0  0  0
 31 32  2  0  0  0
 31 37  1  0  0  0
 32 33  1  0  0  0
 32 68  1  0  0  0
 33 34  2  0  0  0
 33 69  1  0  0  0
 34 35  1  0  0  0
 35 36  1  0  0  0
 35 37  2  0  0  0
 36 70  1  0  0  0
 36 71  1  0  0  0
 36 72  1  0  0  0
 37 73  1  0  0  0
 38 74  1  0  0  0
 39 40  2  0  0  0
 39 41  2  0  0  0
 39 42  1  0  0  0
 42 43  1  0  0  0
 42 44  1  0  0  0
 42 75  1  0  0  0
 43 44  1  0  0  0
 43 76  1  0  0  0
 43 77  1  0  0  0
 44 78  1  0  0  0
 44 79  1  0  0  0
M  END
> <s_m_entry_id>
20650

> <s_m_entry_name>
dock_pv.33

> <s_m_Source_Path>
/home/csk/Desktop/cluster/DUD-E-result/fa7

> <s_m_Source_File>
dock_pv.maegz

> <i_m_Source_File_Index>
33

> <chembl_id>
CHEMBL3891120

> <chembl_pref_name>
None

> <i_lp_mmshare_version>
53161

> <r_lp_tautomer_probability>
1

> <s_lp_Force_Field>
OPLS_2005

> <r_lp_Energy>
38.560591

> <b_lp_Chiralities_Consistent>
1

> <s_lp_Variant>
CHEMBL3991_lig412-1

> <s_i_glide_gridfile>
glide-grid_1w7x

> <i_i_glide_lignum>
556

> <i_i_glide_rotatable_bonds>
4

> <r_i_docking_score>
-7.42918399750216

> <r_i_glide_ligand_efficiency>
-0.168845090852322

> <r_i_glide_ligand_efficiency_sa>
-0.596081984666576

> <r_i_glide_ligand_efficiency_ln>
-1.55286152221722

> <r_i_glide_gscore>
-7.42918399750216

> <r_i_glide_lipo>
-3.93953268099205

> <r_i_glide_hbond>
-0.464681461353841

> <r_i_glide_metal>
0

> <r_i_glide_rewards>
-0.0709678150106425

> <r_i_glide_evdw>
-38.2381134033203

> <r_i_glide_ecoul>
-6.27994251251221

> <r_i_glide_erotb>
0.0965073630194046

> <r_i_glide_esite>
-0.196612356122179

> <r_i_glide_emodel>
-46.6028761219502

> <r_i_glide_energy>
-44.5180559158325

> <r_i_glide_einternal>
13.0163469314575

> <i_i_glide_confnum>
1

> <i_i_glide_posenum>
8

> <r_i_glide_eff_state_penalty>
0

> <s_user_duplicate_titles>
CHEMBL3991_lig412

> <i_f3d_flags>
0

> <s_m_subgroup_title>
dock_pv

> <s_m_subgroupid>
dock_pv

> <b_m_subgroup_collapsed>
1

$$$$
CHEMBL3991_lig185
                    3D
 Schrodinger Suite 2021-1.
 55 56  0  0  1  0            999 V2000
   10.0730   40.0790   32.8622 C   0  0  0  0  0  0
    8.1179   41.8786   34.8215 C   0  0  0  0  0  0
    9.1310   42.6916   34.4657 N   0  0  0  0  0  0
    9.5891   39.8916   34.0972 N   0  0  0  0  0  0
   14.2330   37.6790   28.2052 C   0  0  0  0  0  0
    8.2997   40.3425   34.6492 C   0  0  1  0  0  0
   11.2558   39.4465   32.7304 N   0  0  0  0  0  0
    9.8884   44.8655   33.4277 C   0  0  0  0  0  0
    9.1585   44.1555   34.5875 C   0  0  2  0  0  0
   13.3940   38.0857   29.3548 C   0  0  0  0  0  0
    8.0864   37.4107   37.3360 C   0  0  0  0  0  0
   15.4174   37.2793   28.3846 N   0  0  0  0  0  0
    9.4692   40.6899   31.9845 O   0  0  0  0  0  0
    7.0509   42.2927   35.2811 O   0  0  0  0  0  0
   10.0953   46.2541   33.4708 C   0  0  0  0  0  0
    7.8036   38.0198   38.3651 O   0  0  0  0  0  0
    8.0489   39.5961   35.9929 C   0  0  0  0  0  0
   13.7713   37.7553   30.6654 C   0  0  0  0  0  0
   12.2469   38.8790   29.1837 C   0  0  0  0  0  0
   13.5811   37.6790   26.9955 N   0  0  0  0  0  0
   11.9309   39.0398   31.5660 C   0  0  0  0  0  0
    8.1779   38.0525   35.9488 C   0  0  0  0  0  0
   10.7310   46.9163   32.4186 C   0  0  0  0  0  0
    8.3667   36.0789   37.2970 O   0  0  0  0  0  0
   13.0603   38.2399   31.7549 C   0  0  0  0  0  0
   11.5177   39.3473   30.2670 C   0  0  0  0  0  0
   11.0122   48.7968   32.4972 Br  0  0  0  0  0  0
   10.3407   44.1640   32.2961 C   0  0  0  0  0  0
   10.9744   44.8249   31.2448 C   0  0  0  0  0  0
    9.6784   44.5631   35.9833 C   0  0  0  0  0  0
   11.1658   46.2022   31.3045 C   0  0  0  0  0  0
    9.9681   42.2662   34.0955 H   0  0  0  0  0  0
    9.9808   39.1223   34.6126 H   0  0  0  0  0  0
    7.5376   40.0304   33.9329 H   0  0  0  0  0  0
   11.7005   39.1220   33.5759 H   0  0  0  0  0  0
    8.1277   44.5098   34.5013 H   0  0  0  0  0  0
   15.8158   36.9350   27.5189 H   0  0  0  0  0  0
    9.7568   46.8374   34.3144 H   0  0  0  0  0  0
    8.7310   39.9752   36.7553 H   0  0  0  0  0  0
    7.0477   39.8359   36.3568 H   0  0  0  0  0  0
   14.6500   37.1541   30.8524 H   0  0  0  0  0  0
   11.9294   39.1964   28.2015 H   0  0  0  0  0  0
   14.0301   37.2264   26.2012 H   0  0  0  0  0  0
   12.6258   38.0110   26.8929 H   0  0  0  0  0  0
    7.4045   37.6247   35.3102 H   0  0  0  0  0  0
    9.1351   37.7465   35.5275 H   0  0  0  0  0  0
    8.3310   35.6581   38.1744 H   0  0  0  0  0  0
   13.4069   37.9957   32.7490 H   0  0  0  0  0  0
   10.6548   39.9612   30.0645 H   0  0  0  0  0  0
   10.1983   43.0994   32.2053 H   0  0  0  0  0  0
   11.3105   44.2680   30.3823 H   0  0  0  0  0  0
    9.5342   45.6237   36.1866 H   0  0  0  0  0  0
    9.1549   44.0263   36.7757 H   0  0  0  0  0  0
   10.7423   44.3494   36.0861 H   0  0  0  0  0  0
   11.6574   46.7158   30.4915 H   0  0  0  0  0  0
  1  4  1  0  0  0
  1  7  1  0  0  0
  1 13  2  0  0  0
  2  6  1  0  0  0
  2  3  1  0  0  0
  2 14  2  0  0  0
  3  9  1  0  0  0
  3 32  1  0  0  0
  4  6  1  0  0  0
  4 33  1  0  0  0
  5 10  1  0  0  0
  5 12  2  0  0  0
  5 20  1  0  0  0
  6 17  1  0  0  0
  6 34  1  0  0  0
  7 21  1  0  0  0
  7 35  1  0  0  0
  8  9  1  0  0  0
  8 15  1  0  0  0
  8 28  2  0  0  0
  9 30  1  0  0  0
  9 36  1  0  0  0
 10 19  1  0  0  0
 10 18  2  0  0  0
 11 22  1  0  0  0
 11 16  2  0  0  0
 11 24  1  0  0  0
 12 37  1  0  0  0
 15 23  2  0  0  0
 15 38  1  0  0  0
 17 22  1  0  0  0
 17 39  1  0  0  0
 17 40  1  0  0  0
 18 25  1  0  0  0
 18 41  1  0  0  0
 19 26  2  0  0  0
 19 42  1  0  0  0
 20 43  1  0  0  0
 20 44  1  0  0  0
 21 25  2  0  0  0
 21 26  1  0  0  0
 22 45  1  0  0  0
 22 46  1  0  0  0
 23 27  1  0  0  0
 23 31  1  0  0  0
 24 47  1  0  0  0
 25 48  1  0  0  0
 26 49  1  0  0  0
 28 29  1  0  0  0
 28 50  1  0  0  0
 29 31  2  0  0  0
 29 51  1  0  0  0
 30 52  1  0  0  0
 30 53  1  0  0  0
 30 54  1  0  0  0
 31 55  1  0  0  0
M  END
> <s_m_entry_id>
20651

> <s_m_entry_name>
dock_pv.34

> <s_m_Source_Path>
/home/csk/Desktop/cluster/DUD-E-result/fa7

> <s_m_Source_File>
dock_pv.maegz

> <i_m_Source_File_Index>
34

> <chembl_id>
CHEMBL35666

> <chembl_pref_name>
None

> <i_lp_mmshare_version>
53161

> <r_lp_tautomer_probability>
1

> <s_lp_Force_Field>
OPLS_2005

> <r_lp_Energy>
7.048196

> <b_lp_Chiralities_Consistent>
1

> <s_lp_Variant>
CHEMBL3991_lig185-1

> <s_i_glide_gridfile>
glide-grid_1w7x

> <i_i_glide_lignum>
202

> <i_i_glide_rotatable_bonds>
13

> <r_i_docking_score>
-7.40567886697481

> <r_i_glide_ligand_efficiency>
-0.238892866676607

> <r_i_glide_ligand_efficiency_sa>
-0.750453428513193

> <r_i_glide_ligand_efficiency_ln>
-1.67020754130361

> <r_i_glide_gscore>
-7.40567886697481

> <r_i_glide_lipo>
-2.45621907853964

> <r_i_glide_hbond>
-0.740231928363882

> <r_i_glide_metal>
0

> <r_i_glide_rewards>
-0.658358106015492

> <r_i_glide_evdw>
-41.3775367736816

> <r_i_glide_ecoul>
-14.8471546173096

> <r_i_glide_erotb>
0.846349522409645

> <r_i_glide_esite>
-0.101269245184925

> <r_i_glide_emodel>
-74.557304909124

> <r_i_glide_energy>
-56.2246913909912

> <r_i_glide_einternal>
8.03583431243896

> <i_i_glide_confnum>
79

> <i_i_glide_posenum>
280

> <r_i_glide_eff_state_penalty>
0

> <s_user_duplicate_titles>
CHEMBL3991_lig185,48933

> <i_f3d_flags>
0

> <s_m_subgroup_title>
dock_pv

> <s_m_subgroupid>
dock_pv

> <b_m_subgroup_collapsed>
1

$$$$
CHEMBL3991_lig229
                    3D
 Schrodinger Suite 2021-1.
 57 60  0  0  1  0            999 V2000
   13.5131   38.0742   29.3449 C   0  0  0  0  0  0
   14.0123   37.6812   30.6025 C   0  0  0  0  0  0
   13.4466   38.0790   31.8081 C   0  0  0  0  0  0
   12.3293   38.8419   29.2970 C   0  0  0  0  0  0
   11.7203   39.2409   30.4950 C   0  0  0  0  0  0
   12.3149   38.8790   31.7215 C   0  0  0  0  0  0
   11.5305   39.4956   32.6595 N   0  0  0  0  0  0
   10.4571   40.0666   32.0129 C   0  0  0  0  0  0
   10.5832   39.9821   30.7046 N   0  0  0  0  0  0
    9.2729   40.6655   32.7285 C   0  0  0  0  0  0
    8.8875   40.2997   34.0359 C   0  0  0  0  0  0
    7.8054   40.9278   34.6771 C   0  0  0  0  0  0
    7.0610   41.8682   33.9645 C   0  0  0  0  0  0
    7.3687   42.1843   32.6385 C   0  0  0  0  0  0
    8.4888   41.6000   32.0428 C   0  0  0  0  0  0
    6.4639   43.1186   31.8176 C   0  0  2  0  0  0
    6.4795   44.5275   32.4039 C   0  0  0  0  0  0
    4.9928   42.6611   31.7132 C   0  0  0  0  0  0
    4.8756   41.2785   31.0897 C   0  0  0  0  0  0
    3.6295   40.7724   31.3100 O   0  0  0  0  0  0
    5.7526   40.6821   30.4691 O   0  0  0  0  0  0
    7.5770   45.2168   31.9884 O   0  0  0  0  0  0
    5.6454   44.9889   33.1809 O   0  0  0  0  0  0
    9.5311   39.2790   34.6912 O   0  0  0  0  0  0
   14.2614   37.6790   28.1228 C   0  0  0  0  0  0
   15.4563   37.2790   28.2032 N   0  0  0  0  0  0
   13.5310   37.6790   26.9619 N   0  0  0  0  0  0
    7.4064   40.5796   36.0735 C   0  0  0  0  0  0
    6.9211   39.2906   36.3343 C   0  0  0  0  0  0
    6.5782   38.8961   37.6259 C   0  0  0  0  0  0
    6.7173   39.7893   38.6832 C   0  0  0  0  0  0
    7.1919   41.0759   38.4436 C   0  0  0  0  0  0
    7.5310   41.4875   37.1476 C   0  0  0  0  0  0
    8.0958   42.8969   36.9574 C   0  0  0  0  0  0
    7.1309   43.8209   36.4970 O   0  0  0  0  0  0
   14.9076   37.0778   30.6620 H   0  0  0  0  0  0
   13.8834   37.8088   32.7579 H   0  0  0  0  0  0
   11.9074   39.1655   28.3573 H   0  0  0  0  0  0
   11.6697   39.5140   33.6583 H   0  0  0  0  0  0
    6.2084   42.3328   34.4378 H   0  0  0  0  0  0
    8.7378   41.8584   31.0228 H   0  0  0  0  0  0
    6.8588   43.1898   30.7981 H   0  0  0  0  0  0
    4.5434   42.6382   32.7102 H   0  0  0  0  0  0
    4.4323   43.3586   31.0835 H   0  0  0  0  0  0
    3.0714   41.4036   31.7676 H   0  0  0  0  0  0
    7.5850   46.0917   32.3816 H   0  0  0  0  0  0
    9.9510   38.6638   34.0856 H   0  0  0  0  0  0
   15.7870   36.9300   27.3112 H   0  0  0  0  0  0
   13.9414   37.2370   26.1425 H   0  0  0  0  0  0
   12.5832   38.0402   26.8975 H   0  0  0  0  0  0
    6.8285   38.5778   35.5276 H   0  0  0  0  0  0
    6.2227   37.8923   37.8094 H   0  0  0  0  0  0
    6.4713   39.4808   39.6893 H   0  0  0  0  0  0
    7.3155   41.7526   39.2779 H   0  0  0  0  0  0
    8.5083   43.2646   37.8992 H   0  0  0  0  0  0
    8.9232   42.8789   36.2471 H   0  0  0  0  0  0
    7.5392   44.6912   36.4641 H   0  0  0  0  0  0
  1  4  2  0  0  0
  1 25  1  0  0  0
  1  2  1  0  0  0
  2  3  2  0  0  0
  2 36  1  0  0  0
  3  6  1  0  0  0
  3 37  1  0  0  0
  4  5  1  0  0  0
  4 38  1  0  0  0
  5  9  1  0  0  0
  5  6  2  0  0  0
  6  7  1  0  0  0
  7  8  1  0  0  0
  7 39  1  0  0  0
  8  9  2  0  0  0
  8 10  1  0  0  0
 10 11  2  0  0  0
 10 15  1  0  0  0
 11 24  1  0  0  0
 11 12  1  0  0  0
 12 13  2  0  0  0
 12 28  1  0  0  0
 13 14  1  0  0  0
 13 40  1  0  0  0
 14 15  2  0  0  0
 14 16  1  0  0  0
 15 41  1  0  0  0
 16 17  1  0  0  0
 16 18  1  0  0  0
 16 42  1  0  0  0
 17 22  1  0  0  0
 17 23  2  0  0  0
 18 19  1  0  0  0
 18 43  1  0  0  0
 18 44  1  0  0  0
 19 20  1  0  0  0
 19 21  2  0  0  0
 20 45  1  0  0  0
 22 46  1  0  0  0
 24 47  1  0  0  0
 25 26  2  0  0  0
 25 27  1  0  0  0
 26 48  1  0  0  0
 27 49  1  0  0  0
 27 50  1  0  0  0
 28 29  2  0  0  0
 28 33  1  0  0  0
 29 30  1  0  0  0
 29 51  1  0  0  0
 30 31  2  0  0  0
 30 52  1  0  0  0
 31 32  1  0  0  0
 31 53  1  0  0  0
 32 33  2  0  0  0
 32 54  1  0  0  0
 33 34  1  0  0  0
 34 35  1  0  0  0
 34 55  1  0  0  0
 34 56  1  0  0  0
 35 57  1  0  0  0
M  END
> <s_m_entry_id>
20652

> <s_m_entry_name>
dock_pv.35

> <s_m_Source_Path>
/home/csk/Desktop/cluster/DUD-E-result/fa7

> <s_m_Source_File>
dock_pv.maegz

> <i_m_Source_File_Index>
35

> <chembl_id>
CHEMBL438973

> <chembl_pref_name>
None

> <i_lp_mmshare_version>
53161

> <r_lp_tautomer_probability>
0.999999999997365

> <s_lp_Force_Field>
OPLS_2005

> <r_lp_Energy>
26.289251

> <b_lp_Chiralities_Consistent>
1

> <s_lp_Variant>
CHEMBL3991_lig229-1

> <s_i_glide_gridfile>
glide-grid_1w7x

> <i_i_glide_lignum>
266

> <i_i_glide_rotatable_bonds>
12

> <r_i_docking_score>
-7.40106241599832

> <r_i_glide_ligand_efficiency>
-0.211458926171381

> <r_i_glide_ligand_efficiency_sa>
-0.691696168568119

> <r_i_glide_ligand_efficiency_ln>
-1.62469745804198

> <r_i_glide_gscore>
-7.40106241599832

> <r_i_glide_lipo>
-1.96089210456393

> <r_i_glide_hbond>
-0.582693027869343

> <r_i_glide_metal>
0

> <r_i_glide_rewards>
-0.797698894616469

> <r_i_glide_evdw>
-37.2673606872559

> <r_i_glide_ecoul>
-18.3321628570557

> <r_i_glide_erotb>
0.629210170869355

> <r_i_glide_esite>
-0.0757960968967901

> <r_i_glide_emodel>
-75.453194870518

> <r_i_glide_energy>
-55.5995235443115

> <r_i_glide_einternal>
5.17886543273926

> <i_i_glide_confnum>
43

> <i_i_glide_posenum>
133

> <r_i_glide_eff_state_penalty>
0

> <s_user_duplicate_titles>
CHEMBL3991_lig229,342571

> <i_f3d_flags>
0

> <s_m_subgroup_title>
dock_pv

> <s_m_subgroupid>
dock_pv

> <b_m_subgroup_collapsed>
1

$$$$
CHEMBL3991_lig367
                    3D
 Schrodinger Suite 2021-1.
 64 67  0  0  1  0            999 V2000
    6.6402   41.2827   34.7676 C   0  0  0  0  0  0
    7.5815   41.2968   33.7319 C   0  0  0  0  0  0
    8.7165   40.4791   33.7589 C   0  0  0  0  0  0
    8.8691   39.6012   34.8493 C   0  0  0  0  0  0
    7.9454   39.5668   35.8991 C   0  0  0  0  0  0
    6.8353   40.4177   35.8420 C   0  0  0  0  0  0
    9.7433   40.6608   32.6090 C   0  0  2  0  0  0
   10.9031   39.7717   32.6933 N   0  0  0  0  0  0
   11.6152   39.2680   31.5965 C   0  0  0  0  0  0
   11.2456   39.4690   30.2670 C   0  0  0  0  0  0
   12.0168   38.9275   29.2440 C   0  0  0  0  0  0
   13.1690   38.1653   29.5117 C   0  0  0  0  0  0
   13.4919   37.9314   30.8564 C   0  0  0  0  0  0
   12.7313   38.4800   31.8786 C   0  0  0  0  0  0
   14.0768   37.6789   28.4388 C   0  0  0  0  0  0
   15.2432   37.2790   28.7075 N   0  0  0  0  0  0
   13.5312   37.6790   27.1798 N   0  0  0  0  0  0
    5.5300   42.1033   34.8262 O   0  0  0  0  0  0
    5.1474   42.8895   33.6963 C   0  0  0  0  0  0
    4.5488   42.0255   32.5759 C   0  0  0  0  0  0
   10.2265   42.1113   32.4855 C   0  0  0  0  0  0
    8.2362   38.6887   36.9328 O   0  0  0  0  0  0
    7.4447   38.5305   38.1162 C   0  0  0  0  0  0
    6.0682   37.8902   37.8490 C   0  0  0  0  0  0
    9.9305   38.7717   34.9257 F   0  0  0  0  0  0
    7.4129   39.7788   39.0213 C   0  0  0  0  0  0
   10.5619   42.7283   33.6517 N   0  0  0  0  0  0
   10.4518   44.1478   31.2260 C   0  0  0  0  0  0
   10.1865   42.7806   31.2604 C   0  0  0  0  0  0
   10.7213   44.8342   32.4360 C   0  0  0  0  0  0
   10.7800   44.0704   33.6410 C   0  0  0  0  0  0
   11.0269   44.7279   34.8687 C   0  0  0  0  0  0
   11.1794   46.1109   34.8995 C   0  0  0  0  0  0
   11.1174   46.8582   33.7268 C   0  0  0  0  0  0
   10.9026   46.2368   32.4981 C   0  0  0  0  0  0
    7.4678   41.9798   32.9039 H   0  0  0  0  0  0
    6.1040   40.4304   36.6287 H   0  0  0  0  0  0
    9.1832   40.4166   31.7064 H   0  0  0  0  0  0
   11.4034   39.7801   33.5698 H   0  0  0  0  0  0
   10.3848   40.0587   29.9997 H   0  0  0  0  0  0
   11.7360   39.1727   28.2319 H   0  0  0  0  0  0
   14.3655   37.3544   31.1255 H   0  0  0  0  0  0
   13.0480   38.3204   32.8969 H   0  0  0  0  0  0
   15.7021   36.9344   27.8743 H   0  0  0  0  0  0
   14.0416   37.2421   26.4168 H   0  0  0  0  0  0
   12.5976   38.0308   26.9925 H   0  0  0  0  0  0
    5.9708   43.5089   33.3366 H   0  0  0  0  0  0
    4.3873   43.5929   34.0398 H   0  0  0  0  0  0
    4.1929   42.6474   31.7544 H   0  0  0  0  0  0
    3.7002   41.4489   32.9431 H   0  0  0  0  0  0
    5.2743   41.3240   32.1657 H   0  0  0  0  0  0
    7.9986   37.7825   38.6875 H   0  0  0  0  0  0
    5.5220   37.7375   38.7794 H   0  0  0  0  0  0
    5.4331   38.4780   37.1919 H   0  0  0  0  0  0
    6.1910   36.9109   37.3854 H   0  0  0  0  0  0
    6.8795   39.5723   39.9507 H   0  0  0  0  0  0
    8.4259   40.0752   39.2926 H   0  0  0  0  0  0
    6.9400   40.6447   38.5648 H   0  0  0  0  0  0
   10.4022   44.6959   30.2963 H   0  0  0  0  0  0
    9.9134   42.2655   30.3518 H   0  0  0  0  0  0
   11.0698   44.1548   35.7824 H   0  0  0  0  0  0
   11.3541   46.6088   35.8432 H   0  0  0  0  0  0
   11.2306   47.9316   33.7704 H   0  0  0  0  0  0
   10.8516   46.8224   31.5919 H   0  0  0  0  0  0
  1  2  2  0  0  0
  1  6  1  0  0  0
  1 18  1  0  0  0
  2  3  1  0  0  0
  2 36  1  0  0  0
  3  4  2  0  0  0
  3  7  1  0  0  0
  4  5  1  0  0  0
  4 25  1  0  0  0
  5  6  2  0  0  0
  5 22  1  0  0  0
  6 37  1  0  0  0
  7  8  1  0  0  0
  7 21  1  0  0  0
  7 38  1  0  0  0
  8  9  1  0  0  0
  8 39  1  0  0  0
  9 10  2  0  0  0
  9 14  1  0  0  0
 10 11  1  0  0  0
 10 40  1  0  0  0
 11 12  2  0  0  0
 11 41  1  0  0  0
 12 13  1  0  0  0
 12 15  1  0  0  0
 13 14  2  0  0  0
 13 42  1  0  0  0
 14 43  1  0  0  0
 15 16  2  0  0  0
 15 17  1  0  0  0
 16 44  1  0  0  0
 17 45  1  0  0  0
 17 46  1  0  0  0
 18 19  1  0  0  0
 19 20  1  0  0  0
 19 47  1  0  0  0
 19 48  1  0  0  0
 20 49  1  0  0  0
 20 50  1  0  0  0
 20 51  1  0  0  0
 21 27  2  0  0  0
 21 29  1  0  0  0
 22 23  1  0  0  0
 23 24  1  0  0  0
 23 26  1  0  0  0
 23 52  1  0  0  0
 24 53  1  0  0  0
 24 54  1  0  0  0
 24 55  1  0  0  0
 26 56  1  0  0  0
 26 57  1  0  0  0
 26 58  1  0  0  0
 27 31  1  0  0  0
 28 30  1  0  0  0
 28 29  2  0  0  0
 28 59  1  0  0  0
 29 60  1  0  0  0
 30 31  1  0  0  0
 30 35  2  0  0  0
 31 32  2  0  0  0
 32 33  1  0  0  0
 32 61  1  0  0  0
 33 34  2  0  0  0
 33 62  1  0  0  0
 34 35  1  0  0  0
 34 63  1  0  0  0
 35 64  1  0  0  0
M  END
> <s_m_entry_id>
20653

> <s_m_entry_name>
dock_pv.36

> <s_m_Source_Path>
/home/csk/Desktop/cluster/DUD-E-result/fa7

> <s_m_Source_File>
dock_pv.maegz

> <i_m_Source_File_Index>
36

> <chembl_id>
CHEMBL3403464

> <chembl_pref_name>
None

> <i_lp_mmshare_version>
53161

> <r_lp_tautomer_probability>
1

> <s_lp_Force_Field>
OPLS_2005

> <r_lp_Energy>
20.691486

> <b_lp_Chiralities_Consistent>
1

> <s_lp_Variant>
CHEMBL3991_lig367-1

> <s_i_glide_gridfile>
glide-grid_1w7x

> <i_i_glide_lignum>
497

> <i_i_glide_rotatable_bonds>
9

> <r_i_docking_score>
-7.3594293231934

> <r_i_glide_ligand_efficiency>
-0.210269409234097

> <r_i_glide_ligand_efficiency_sa>
-0.687805179793784

> <r_i_glide_ligand_efficiency_ln>
-1.61555807017459

> <r_i_glide_gscore>
-7.3594293231934

> <r_i_glide_lipo>
-3.2064722597921

> <r_i_glide_hbond>
-0.500752483410463

> <r_i_glide_metal>
0

> <r_i_glide_rewards>
-0.569588694066914

> <r_i_glide_evdw>
-44.7295341491699

> <r_i_glide_ecoul>
-8.4580135345459

> <r_i_glide_erotb>
0.543312463518835

> <r_i_glide_esite>
-0.120749611802384

> <r_i_glide_emodel>
-72.5152976793859

> <r_i_glide_energy>
-53.1875476837158

> <r_i_glide_einternal>
10.1921987533569

> <i_i_glide_confnum>
20

> <i_i_glide_posenum>
56

> <r_i_glide_eff_state_penalty>
0

> <s_user_duplicate_titles>
CHEMBL3991_lig367

> <i_f3d_flags>
0

> <s_m_subgroup_title>
dock_pv

> <s_m_subgroupid>
dock_pv

> <b_m_subgroup_collapsed>
1

$$$$
CHEMBL3991_lig409
                    3D
 Schrodinger Suite 2021-1.
 83 87  0  0  1  0            999 V2000
    8.5793   42.2663   27.2651 C   0  0  0  0  0  0
    8.7292   43.1742   26.1806 O   0  0  0  0  0  0
    8.8979   44.5426   26.5465 C   0  0  0  0  0  0
   10.2394   44.8324   27.2515 C   0  0  0  0  0  0
   10.4051   46.3220   27.5951 C   0  0  0  0  0  0
   11.3937   46.4801   28.6187 O   0  0  0  0  0  0
   10.8998   46.9053   29.8341 C   0  0  0  0  0  0
   10.3186   48.1770   29.9758 C   0  0  0  0  0  0
   10.3291   49.0497   28.9422 F   0  0  0  0  0  0
    9.6673   48.5282   31.1594 C   0  0  0  0  0  0
    9.6144   47.6146   32.2097 C   0  0  0  0  0  0
    8.7957   47.8436   33.3131 N   0  0  0  0  0  0
    7.6442   47.0976   33.5421 C   0  0  0  0  0  0
    7.1278   46.3105   32.7424 O   0  0  0  0  0  0
    7.1679   47.3405   34.7868 O   0  0  0  0  0  0
    5.9865   46.6798   35.2623 C   0  0  0  0  0  0
    6.2338   45.3932   36.1033 C   0  0  2  0  0  0
    6.6507   45.7643   37.5477 C   0  0  0  0  0  0
    7.1588   44.3658   35.4121 C   0  0  0  0  0  0
    8.4948   44.2551   35.8181 C   0  0  0  0  0  0
    9.3802   43.4173   35.1507 C   0  0  0  0  0  0
    8.9737   42.6594   34.0469 C   0  0  0  0  0  0
    7.6183   42.6982   33.6918 C   0  0  0  0  0  0
    6.7165   43.5521   34.3444 C   0  0  0  0  0  0
    5.2814   43.5963   33.8327 C   0  0  0  0  0  0
   10.0315   41.9198   33.2341 C   0  0  1  0  0  0
    9.5705   40.9462   32.2433 N   0  0  0  0  0  0
   10.4073   40.1093   31.4806 C   0  0  0  0  0  0
   10.1653   39.9795   30.1141 C   0  0  0  0  0  0
   11.0241   39.2508   29.2958 C   0  0  0  0  0  0
   12.1718   38.6089   29.8267 C   0  0  0  0  0  0
   13.1758   37.9133   29.0685 C   0  0  0  0  0  0
   13.1311   37.6893   27.6981 N   0  0  0  0  0  0
   14.3102   37.4274   29.6063 N   0  0  0  0  0  0
   14.4893   37.5633   30.9273 C   0  0  0  0  0  0
   13.5338   38.0873   31.7870 C   0  0  0  0  0  0
   12.3826   38.6945   31.2363 C   0  0  0  0  0  0
   11.4966   39.4483   32.0460 C   0  0  0  0  0  0
   10.9628   42.9917   32.5724 C   0  0  0  0  0  0
   11.9313   43.3364   33.2496 O   0  0  0  0  0  0
   10.6724   43.5798   31.3756 N   0  0  0  0  0  0
    9.4116   43.4127   30.6425 C   0  0  0  0  0  0
   11.5314   44.6361   30.8092 C   0  0  0  0  0  0
   10.9477   46.0421   30.9376 C   0  0  0  0  0  0
   10.3103   46.4097   32.1247 C   0  0  0  0  0  0
    8.2406   41.2981   26.8957 H   0  0  0  0  0  0
    9.5282   42.1005   27.7735 H   0  0  0  0  0  0
    7.8416   42.6102   27.9921 H   0  0  0  0  0  0
    8.0552   44.8594   27.1666 H   0  0  0  0  0  0
    8.8383   45.1400   25.6370 H   0  0  0  0  0  0
   11.0783   44.5158   26.6318 H   0  0  0  0  0  0
   10.2904   44.2400   28.1625 H   0  0  0  0  0  0
    9.4379   46.7521   27.8681 H   0  0  0  0  0  0
   10.7297   46.8689   26.7094 H   0  0  0  0  0  0
    9.1476   49.4728   31.2277 H   0  0  0  0  0  0
    9.0887   48.5166   34.0143 H   0  0  0  0  0  0
    5.3094   46.4626   34.4350 H   0  0  0  0  0  0
    5.4375   47.3966   35.8737 H   0  0  0  0  0  0
    5.2687   44.9054   36.2242 H   0  0  0  0  0  0
    6.8761   44.8803   38.1452 H   0  0  0  0  0  0
    7.5301   46.4087   37.5684 H   0  0  0  0  0  0
    5.8532   46.3019   38.0626 H   0  0  0  0  0  0
    8.8838   44.8516   36.6284 H   0  0  0  0  0  0
   10.4147   43.4147   35.4615 H   0  0  0  0  0  0
    7.2699   42.1096   32.8575 H   0  0  0  0  0  0
    5.0720   42.7942   33.1245 H   0  0  0  0  0  0
    4.5616   43.4957   34.6450 H   0  0  0  0  0  0
    5.0857   44.5439   33.3307 H   0  0  0  0  0  0
   10.6429   41.3549   33.9395 H   0  0  0  0  0  0
    8.7876   41.2882   31.7087 H   0  0  0  0  0  0
    9.3171   40.4703   29.6654 H   0  0  0  0  0  0
   10.8350   39.2363   28.2351 H   0  0  0  0  0  0
   12.3801   38.0764   27.1303 H   0  0  0  0  0  0
   13.8617   37.1231   27.2849 H   0  0  0  0  0  0
   15.4583   37.2790   31.2982 H   0  0  0  0  0  0
   13.7354   38.1704   32.8455 H   0  0  0  0  0  0
   11.7104   39.5366   33.0995 H   0  0  0  0  0  0
    9.5247   42.6358   29.8875 H   0  0  0  0  0  0
    8.5737   43.1622   31.2952 H   0  0  0  0  0  0
    9.1264   44.3374   30.1273 H   0  0  0  0  0  0
   11.7544   44.3983   29.7696 H   0  0  0  0  0  0
   12.4996   44.6610   31.3041 H   0  0  0  0  0  0
   10.2827   45.7247   32.9598 H   0  0  0  0  0  0
  1  2  1  0  0  0
  1 46  1  0  0  0
  1 47  1  0  0  0
  1 48  1  0  0  0
  2  3  1  0  0  0
  3  4  1  0  0  0
  3 49  1  0  0  0
  3 50  1  0  0  0
  4  5  1  0  0  0
  4 51  1  0  0  0
  4 52  1  0  0  0
  5  6  1  0  0  0
  5 53  1  0  0  0
  5 54  1  0  0  0
  6  7  1  0  0  0
  7  8  2  0  0  0
  7 44  1  0  0  0
  8  9  1  0  0  0
  8 10  1  0  0  0
 10 11  2  0  0  0
 10 55  1  0  0  0
 11 12  1  0  0  0
 11 45  1  0  0  0
 12 13  1  0  0  0
 12 56  1  0  0  0
 13 14  2  0  0  0
 13 15  1  0  0  0
 15 16  1  0  0  0
 16 17  1  0  0  0
 16 57  1  0  0  0
 16 58  1  0  0  0
 17 18  1  0  0  0
 17 19  1  0  0  0
 17 59  1  0  0  0
 18 60  1  0  0  0
 18 61  1  0  0  0
 18 62  1  0  0  0
 19 20  2  0  0  0
 19 24  1  0  0  0
 20 21  1  0  0  0
 20 63  1  0  0  0
 21 22  2  0  0  0
 21 64  1  0  0  0
 22 23  1  0  0  0
 22 26  1  0  0  0
 23 24  2  0  0  0
 23 65  1  0  0  0
 24 25  1  0  0  0
 25 66  1  0  0  0
 25 67  1  0  0  0
 25 68  1  0  0  0
 26 27  1  0  0  0
 26 39  1  0  0  0
 26 69  1  0  0  0
 27 28  1  0  0  0
 27 70  1  0  0  0
 28 29  2  0  0  0
 28 38  1  0  0  0
 29 30  1  0  0  0
 29 71  1  0  0  0
 30 31  2  0  0  0
 30 72  1  0  0  0
 31 32  1  0  0  0
 31 37  1  0  0  0
 32 33  1  0  0  0
 32 34  2  0  0  0
 33 73  1  0  0  0
 33 74  1  0  0  0
 34 35  1  0  0  0
 35 36  2  0  0  0
 35 75  1  0  0  0
 36 37  1  0  0  0
 36 76  1  0  0  0
 37 38  2  0  0  0
 38 77  1  0  0  0
 39 40  2  0  0  0
 39 41  1  0  0  0
 41 42  1  0  0  0
 41 43  1  0  0  0
 42 78  1  0  0  0
 42 79  1  0  0  0
 42 80  1  0  0  0
 43 44  1  0  0  0
 43 81  1  0  0  0
 43 82  1  0  0  0
 44 45  2  0  0  0
 45 83  1  0  0  0
M  END
> <s_m_entry_id>
20654

> <s_m_entry_name>
dock_pv.37

> <s_m_Source_Path>
/home/csk/Desktop/cluster/DUD-E-result/fa7

> <s_m_Source_File>
dock_pv.maegz

> <i_m_Source_File_Index>
37

> <chembl_id>
CHEMBL3920165

> <chembl_pref_name>
None

> <i_lp_mmshare_version>
53161

> <r_lp_tautomer_probability>
1

> <s_lp_Force_Field>
OPLS_2005

> <r_lp_Energy>
52.068093

> <b_lp_Chiralities_Consistent>
1

> <s_lp_Variant>
CHEMBL3991_lig409-1

> <s_i_glide_gridfile>
glide-grid_1w7x

> <i_i_glide_lignum>
553

> <i_i_glide_rotatable_bonds>
7

> <r_i_docking_score>
-7.30695167168017

> <r_i_glide_ligand_efficiency>
-0.162376703815115

> <r_i_glide_ligand_efficiency_sa>
-0.577556609872293

> <r_i_glide_ligand_efficiency_ln>
-1.52017157169471

> <r_i_glide_gscore>
-7.30695167168017

> <r_i_glide_lipo>
-2.74992963232299

> <r_i_glide_hbond>
-0.850292446470765

> <r_i_glide_metal>
0

> <r_i_glide_rewards>
-0.133970975970593

> <r_i_glide_evdw>
-48.055736541748

> <r_i_glide_ecoul>
-9.09048843383789

> <r_i_glide_erotb>
0.204947065457324

> <r_i_glide_esite>
-0.0113455902100542

> <r_i_glide_emodel>
-72.1264946804412

> <r_i_glide_energy>
-57.1462249755859

> <r_i_glide_einternal>
7.45953607559204

> <i_i_glide_confnum>
2

> <i_i_glide_posenum>
13

> <r_i_glide_eff_state_penalty>
0

> <s_user_duplicate_titles>
CHEMBL3991_lig409

> <i_f3d_flags>
0

> <s_m_subgroup_title>
dock_pv

> <s_m_subgroupid>
dock_pv

> <b_m_subgroup_collapsed>
1

$$$$
CHEMBL3991_lig299
                    3D
 Schrodinger Suite 2021-1.
 69 70  0  0  1  0            999 V2000
    8.7752   42.4802   32.3725 C   0  0  1  0  0  0
    7.2503   42.6352   32.6063 C   0  0  0  0  0  0
    6.6497   42.0300   33.8974 C   0  0  0  0  0  0
   13.0986   38.2741   31.8568 C   0  0  0  0  0  0
   13.7946   37.8048   30.7517 C   0  0  0  0  0  0
   13.3561   38.0814   29.4469 C   0  0  0  0  0  0
   12.1580   38.8032   29.3002 C   0  0  0  0  0  0
   11.4628   39.2793   30.4063 C   0  0  0  0  0  0
   11.9355   39.0290   31.6936 C   0  0  0  0  0  0
   14.1852   37.6787   28.2825 C   0  0  0  0  0  0
   13.5349   37.6790   27.0726 N   0  0  0  0  0  0
   15.3718   37.2793   28.4489 N   0  0  0  0  0  0
   11.2589   39.6135   32.9339 C   0  0  0  0  0  0
   10.5830   40.8989   32.7704 N   0  0  0  0  0  0
    9.2883   41.0377   32.4471 C   0  0  0  0  0  0
    8.5335   40.1005   32.1855 O   0  0  0  0  0  0
    9.0673   43.0009   31.0443 N   0  0  0  0  0  0
   10.0576   43.8455   30.7134 C   0  0  0  0  0  0
   10.1220   44.3107   29.2238 C   0  0  2  0  0  0
   10.8584   44.2888   31.5400 O   0  0  0  0  0  0
    9.5311   43.2432   28.3549 N   0  0  1  0  0  0
   11.5842   44.6515   28.7863 C   0  0  2  0  0  0
    8.0784   43.4975   27.4010 S   0  0  0  0  0  0
    6.7768   42.4521   28.2963 C   0  0  0  0  0  0
    8.3310   42.8789   26.0967 O   0  0  0  0  0  0
    7.6905   44.9070   27.5087 O   0  0  0  0  0  0
   12.1472   45.6789   29.5803 O   0  0  0  0  0  0
   11.6876   45.1747   27.3424 C   0  0  0  0  0  0
    6.9571   40.9518   28.0948 C   0  0  0  0  0  0
    7.1276   42.5954   35.2392 C   0  0  0  0  0  0
    6.7385   42.0627   36.2741 O   0  0  0  0  0  0
    7.9218   43.6695   35.2638 N   0  0  0  0  0  0
    8.0151   40.2785   28.7105 C   0  0  0  0  0  0
    8.1903   38.9131   28.4970 C   0  0  0  0  0  0
    7.2879   38.2169   27.6974 C   0  0  0  0  0  0
    6.2237   38.8796   27.0911 C   0  0  0  0  0  0
    6.0640   40.2495   27.2810 C   0  0  0  0  0  0
    9.3134   43.0666   33.1186 H   0  0  0  0  0  0
    6.9902   43.6937   32.5604 H   0  0  0  0  0  0
    6.7242   42.1782   31.7670 H   0  0  0  0  0  0
    5.5682   42.1631   33.8652 H   0  0  0  0  0  0
    6.8037   40.9510   33.9173 H   0  0  0  0  0  0
   13.4968   38.0802   32.8435 H   0  0  0  0  0  0
   14.7082   37.2545   30.9236 H   0  0  0  0  0  0
   11.7848   39.0762   28.3259 H   0  0  0  0  0  0
   10.5757   39.8675   30.2500 H   0  0  0  0  0  0
   13.9927   37.2428   26.2757 H   0  0  0  0  0  0
   12.5921   38.0413   26.9493 H   0  0  0  0  0  0
   15.7621   36.9383   27.5788 H   0  0  0  0  0  0
   12.0199   39.7605   33.6970 H   0  0  0  0  0  0
   10.5645   38.8767   33.3346 H   0  0  0  0  0  0
   11.1503   41.7276   32.8900 H   0  0  0  0  0  0
    8.4803   42.6599   30.2995 H   0  0  0  0  0  0
    9.5129   45.2124   29.1511 H   0  0  0  0  0  0
   10.2307   42.6375   27.9062 H   0  0  0  0  0  0
   12.2142   43.7673   28.8957 H   0  0  0  0  0  0
    5.8149   42.7762   27.9009 H   0  0  0  0  0  0
    6.7953   42.7210   29.3507 H   0  0  0  0  0  0
   12.0330   45.4213   30.5041 H   0  0  0  0  0  0
   11.3011   44.4616   26.6180 H   0  0  0  0  0  0
   11.1218   46.0979   27.2175 H   0  0  0  0  0  0
   12.7244   45.3798   27.0761 H   0  0  0  0  0  0
    8.2297   44.0433   36.1523 H   0  0  0  0  0  0
    8.2120   44.1228   34.4098 H   0  0  0  0  0  0
    8.7130   40.8084   29.3373 H   0  0  0  0  0  0
    9.0264   38.3950   28.9408 H   0  0  0  0  0  0
    7.4278   37.1611   27.5177 H   0  0  0  0  0  0
    5.5466   38.3304   26.4521 H   0  0  0  0  0  0
    5.2503   40.7612   26.7872 H   0  0  0  0  0  0
  1  2  1  0  0  0
  1 15  1  0  0  0
  1 17  1  0  0  0
  1 38  1  0  0  0
  2  3  1  0  0  0
  2 39  1  0  0  0
  2 40  1  0  0  0
  3 30  1  0  0  0
  3 41  1  0  0  0
  3 42  1  0  0  0
  4  5  2  0  0  0
  4  9  1  0  0  0
  4 43  1  0  0  0
  5  6  1  0  0  0
  5 44  1  0  0  0
  6 10  1  0  0  0
  6  7  2  0  0  0
  7  8  1  0  0  0
  7 45  1  0  0  0
  8  9  2  0  0  0
  8 46  1  0  0  0
  9 13  1  0  0  0
 10 11  1  0  0  0
 10 12  2  0  0  0
 11 47  1  0  0  0
 11 48  1  0  0  0
 12 49  1  0  0  0
 13 14  1  0  0  0
 13 50  1  0  0  0
 13 51  1  0  0  0
 14 15  1  0  0  0
 14 52  1  0  0  0
 15 16  2  0  0  0
 17 18  1  0  0  0
 17 53  1  0  0  0
 18 19  1  0  0  0
 18 20  2  0  0  0
 19 21  1  0  0  0
 19 22  1  0  0  0
 19 54  1  0  0  0
 21 23  1  0  0  0
 21 55  1  0  0  0
 22 27  1  0  0  0
 22 28  1  0  0  0
 22 56  1  0  0  0
 23 24  1  0  0  0
 23 25  2  0  0  0
 23 26  2  0  0  0
 24 29  1  0  0  0
 24 57  1  0  0  0
 24 58  1  0  0  0
 27 59  1  0  0  0
 28 60  1  0  0  0
 28 61  1  0  0  0
 28 62  1  0  0  0
 29 33  2  0  0  0
 29 37  1  0  0  0
 30 31  2  0  0  0
 30 32  1  0  0  0
 32 63  1  0  0  0
 32 64  1  0  0  0
 33 34  1  0  0  0
 33 65  1  0  0  0
 34 35  2  0  0  0
 34 66  1  0  0  0
 35 36  1  0  0  0
 35 67  1  0  0  0
 36 37  2  0  0  0
 36 68  1  0  0  0
 37 69  1  0  0  0
M  END
> <s_m_entry_id>
20655

> <s_m_entry_name>
dock_pv.38

> <s_m_Source_Path>
/home/csk/Desktop/cluster/DUD-E-result/fa7

> <s_m_Source_File>
dock_pv.maegz

> <i_m_Source_File_Index>
38

> <chembl_id>
CHEMBL498676

> <chembl_pref_name>
None

> <i_lp_mmshare_version>
53161

> <r_lp_tautomer_probability>
1

> <s_lp_Force_Field>
OPLS_2005

> <r_lp_Energy>
0.170687

> <b_lp_Chiralities_Consistent>
1

> <s_lp_Variant>
CHEMBL3991_lig299-1

> <s_i_glide_gridfile>
glide-grid_1w7x

> <i_i_glide_lignum>
377

> <i_i_glide_rotatable_bonds>
17

> <r_i_docking_score>
-7.29987105379527

> <r_i_glide_ligand_efficiency>
-0.197293812264737

> <r_i_glide_ligand_efficiency_sa>
-0.657426751631786

> <r_i_glide_ligand_efficiency_ln>
-1.58317089831014

> <r_i_glide_gscore>
-7.29987105379527

> <r_i_glide_lipo>
-2.27459648561006

> <r_i_glide_hbond>
-0.72

> <r_i_glide_metal>
0

> <r_i_glide_rewards>
-0.593381040721223

> <r_i_glide_evdw>
-44.4838180541992

> <r_i_glide_ecoul>
-15.4828882217407

> <r_i_glide_erotb>
0.945276455853711

> <r_i_glide_esite>
-0.110545847346626

> <r_i_glide_emodel>
-81.4710888190522

> <r_i_glide_energy>
-59.9667062759399

> <r_i_glide_einternal>
10.8715772628784

> <i_i_glide_confnum>
198

> <i_i_glide_posenum>
382

> <r_i_glide_eff_state_penalty>
0

> <s_user_duplicate_titles>
CHEMBL3991_lig299,510904

> <i_f3d_flags>
0

> <s_m_subgroup_title>
dock_pv

> <s_m_subgroupid>
dock_pv

> <b_m_subgroup_collapsed>
1

$$$$
CHEMBL3991_lig195
                    3D
 Schrodinger Suite 2021-1.
 58 60  0  0  1  0            999 V2000
   14.3860   37.6790   28.2880 C   0  0  0  0  0  0
   15.5823   37.3404   28.4971 N   0  0  0  0  0  0
   13.7808   37.6790   27.0592 N   0  0  0  0  0  0
   13.5055   38.0538   29.4210 C   0  0  0  0  0  0
   13.8642   37.6789   30.7256 C   0  0  0  0  0  0
   13.1310   38.1058   31.8194 C   0  0  0  0  0  0
   11.9997   38.8993   31.6394 C   0  0  0  0  0  0
   11.3392   39.3454   32.7940 N   0  0  0  0  0  0
   10.0990   40.1201   32.7702 C   0  0  0  0  0  0
   10.4122   46.5047   30.9637 C   0  0  0  0  0  0
   10.6458   46.2499   29.4727 C   0  0  0  0  0  0
    9.7046   46.7337   28.5586 C   0  0  0  0  0  0
    9.8564   46.4847   27.1973 C   0  0  0  0  0  0
   10.9513   45.7516   26.7502 C   0  0  0  0  0  0
   11.7572   45.5348   29.0120 C   0  0  0  0  0  0
   11.9014   45.2790   27.6501 C   0  0  0  0  0  0
   10.3454   41.6006   32.4640 C   0  0  0  0  0  0
    9.9541   43.6322   31.2168 C   0  0  0  0  0  0
    9.6897   42.2729   31.4153 C   0  0  0  0  0  0
    8.7813   41.5754   30.5969 N   0  0  0  0  0  0
    8.0982   42.1451   29.0622 S   0  0  0  0  0  0
    6.7514   43.3280   29.6278 C   0  0  0  0  0  0
    9.1309   42.8951   28.3426 O   0  0  0  0  0  0
    7.4538   40.9777   28.4543 O   0  0  0  0  0  0
   10.8573   44.3348   32.0277 C   0  0  0  0  0  0
   11.1837   45.6692   31.8345 O   0  0  0  0  0  0
   11.2285   42.3047   33.2883 C   0  0  0  0  0  0
   11.4890   43.6657   33.0846 C   0  0  0  0  0  0
   12.3310   44.4061   33.8920 O   0  0  0  0  0  0
   13.1059   43.7630   34.8971 C   0  0  0  0  0  0
   11.5843   39.2280   30.3482 C   0  0  0  0  0  0
   12.3310   38.8099   29.2534 C   0  0  0  0  0  0
   15.8480   37.4356   29.4631 H   0  0  0  0  0  0
   14.2758   37.2328   26.2879 H   0  0  0  0  0  0
   12.8207   37.9661   26.9264 H   0  0  0  0  0  0
   14.7401   37.0774   30.9170 H   0  0  0  0  0  0
   13.4750   37.8460   32.8100 H   0  0  0  0  0  0
   11.6481   38.9297   33.6642 H   0  0  0  0  0  0
    9.3986   39.6790   32.0653 H   0  0  0  0  0  0
    9.6226   40.0427   33.7480 H   0  0  0  0  0  0
    9.3519   46.4121   31.2074 H   0  0  0  0  0  0
   10.6863   47.5386   31.1753 H   0  0  0  0  0  0
    8.8439   47.2896   28.9022 H   0  0  0  0  0  0
    9.1212   46.8436   26.4918 H   0  0  0  0  0  0
   11.0558   45.5365   25.6970 H   0  0  0  0  0  0
   12.4939   45.1553   29.7055 H   0  0  0  0  0  0
   12.7310   44.6942   27.2882 H   0  0  0  0  0  0
    9.4643   44.1505   30.4132 H   0  0  0  0  0  0
    8.5488   40.6297   30.8514 H   0  0  0  0  0  0
    6.2635   43.7370   28.7446 H   0  0  0  0  0  0
    6.0336   42.7745   30.2305 H   0  0  0  0  0  0
    7.1956   44.1300   30.2132 H   0  0  0  0  0  0
   11.7131   41.7723   34.0931 H   0  0  0  0  0  0
   13.8018   44.4789   35.3342 H   0  0  0  0  0  0
   12.4625   43.4051   35.6967 H   0  0  0  0  0  0
   13.6945   42.9336   34.5005 H   0  0  0  0  0  0
   10.7143   39.8375   30.1729 H   0  0  0  0  0  0
   12.0101   39.1358   28.2746 H   0  0  0  0  0  0
  1  2  2  0  0  0
  1  3  1  0  0  0
  1  4  1  0  0  0
  2 33  1  0  0  0
  3 34  1  0  0  0
  3 35  1  0  0  0
  4  5  2  0  0  0
  4 32  1  0  0  0
  5  6  1  0  0  0
  5 36  1  0  0  0
  6  7  2  0  0  0
  6 37  1  0  0  0
  7  8  1  0  0  0
  7 31  1  0  0  0
  8  9  1  0  0  0
  8 38  1  0  0  0
  9 17  1  0  0  0
  9 39  1  0  0  0
  9 40  1  0  0  0
 10 11  1  0  0  0
 10 26  1  0  0  0
 10 41  1  0  0  0
 10 42  1  0  0  0
 11 12  2  0  0  0
 11 15  1  0  0  0
 12 13  1  0  0  0
 12 43  1  0  0  0
 13 14  2  0  0  0
 13 44  1  0  0  0
 14 16  1  0  0  0
 14 45  1  0  0  0
 15 16  2  0  0  0
 15 46  1  0  0  0
 16 47  1  0  0  0
 17 19  2  0  0  0
 17 27  1  0  0  0
 18 19  1  0  0  0
 18 25  2  0  0  0
 18 48  1  0  0  0
 19 20  1  0  0  0
 20 21  1  0  0  0
 20 49  1  0  0  0
 21 22  1  0  0  0
 21 23  2  0  0  0
 21 24  2  0  0  0
 22 50  1  0  0  0
 22 51  1  0  0  0
 22 52  1  0  0  0
 25 26  1  0  0  0
 25 28  1  0  0  0
 27 28  2  0  0  0
 27 53  1  0  0  0
 28 29  1  0  0  0
 29 30  1  0  0  0
 30 54  1  0  0  0
 30 55  1  0  0  0
 30 56  1  0  0  0
 31 32  2  0  0  0
 31 57  1  0  0  0
 32 58  1  0  0  0
M  END
> <s_m_entry_id>
20656

> <s_m_entry_name>
dock_pv.39

> <s_m_Source_Path>
/home/csk/Desktop/cluster/DUD-E-result/fa7

> <s_m_Source_File>
dock_pv.maegz

> <i_m_Source_File_Index>
39

> <chembl_id>
CHEMBL180105

> <chembl_pref_name>
None

> <i_lp_mmshare_version>
53161

> <r_lp_tautomer_probability>
1

> <s_lp_Force_Field>
OPLS_2005

> <r_lp_Energy>
21.768288

> <b_lp_Chiralities_Consistent>
1

> <s_lp_Variant>
CHEMBL3991_lig195-1

> <s_i_glide_gridfile>
glide-grid_1w7x

> <i_i_glide_lignum>
217

> <i_i_glide_rotatable_bonds>
10

> <r_i_docking_score>
-7.27747919199469

> <r_i_glide_ligand_efficiency>
-0.227421224749834

> <r_i_glide_ligand_efficiency_sa>
-0.722017381981459

> <r_i_glide_ligand_efficiency_ln>
-1.62962596767807

> <r_i_glide_gscore>
-7.27747919199469

> <r_i_glide_lipo>
-3.42990538632674

> <r_i_glide_hbond>
-0.72

> <r_i_glide_metal>
0

> <r_i_glide_rewards>
-0.671919102335423

> <r_i_glide_evdw>
-42.6314849853516

> <r_i_glide_ecoul>
-6.056565284729

> <r_i_glide_erotb>
0.680383898197579

> <r_i_glide_esite>
-0.0959795595531729

> <r_i_glide_emodel>
-71.4670215972583

> <r_i_glide_energy>
-48.6880502700806

> <r_i_glide_einternal>
1.39650118350983

> <i_i_glide_confnum>
31

> <i_i_glide_posenum>
316

> <r_i_glide_eff_state_penalty>
0

> <s_user_duplicate_titles>
CHEMBL3991_lig195,303015

> <i_f3d_flags>
0

> <s_m_subgroup_title>
dock_pv

> <s_m_subgroupid>
dock_pv

> <b_m_subgroup_collapsed>
1

$$$$
CHEMBL3991_lig426
                    3D
 Schrodinger Suite 2021-1.
 77 81  0  0  1  0            999 V2000
    7.9323   43.2719   38.1177 C   0  0  0  0  0  0
    8.4105   45.2729   35.0724 C   0  0  0  0  0  0
    9.6599   42.5025   31.8987 C   0  0  0  0  0  0
    7.8957   42.3898   35.8831 C   0  0  0  0  0  0
   15.6742   37.2792   28.8972 N   0  0  0  0  0  0
    9.2901   46.2829   34.9142 O   0  0  0  0  0  0
    7.3312   40.9629   37.7542 C   0  0  0  0  0  0
   15.2034   37.5905   30.1265 C   0  0  0  0  0  0
   11.9033   39.0170   31.4023 C   0  0  0  0  0  0
    9.9309   38.9314   34.8969 O   0  0  0  0  0  0
    8.5812   44.7145   36.3295 N   0  0  0  0  0  0
   13.7246   37.9776   30.1762 C   0  0  0  0  0  0
   10.7865   46.0363   32.9442 C   0  0  0  0  0  0
   12.2140   44.2554   34.8996 C   0  0  0  0  0  0
   11.2605   39.2865   30.1934 C   0  0  0  0  0  0
    7.5070   41.1345   36.3799 C   0  0  0  0  0  0
   10.6534   44.5032   32.8714 C   0  0  0  0  0  0
    7.6239   44.8876   34.2031 O   0  0  0  0  0  0
   16.0104   37.6790   31.0390 O   0  0  0  0  0  0
    9.0589   44.7108   30.8739 C   0  0  0  0  0  0
    7.5310   42.0314   38.6170 C   0  0  0  0  0  0
    9.6020   46.7809   33.6119 C   0  0  0  0  0  0
    9.3714   39.6807   34.0962 C   0  0  0  0  0  0
   11.3420   43.6805   33.7884 C   0  0  0  0  0  0
    9.8209   43.8935   31.9092 C   0  0  0  0  0  0
   13.6466   37.7572   27.7171 C   0  0  0  0  0  0
   14.9302   37.3758   27.7653 C   0  0  0  0  0  0
   13.1336   38.3510   31.3948 C   0  0  0  0  0  0
    7.3200   39.9289   35.4668 C   0  0  2  0  0  0
   13.0081   38.1558   28.9775 C   0  0  0  0  0  0
    8.1133   43.4633   36.7541 C   0  0  0  0  0  0
   11.1975   42.2941   33.7232 C   0  0  0  0  0  0
   11.8052   38.8509   28.9996 C   0  0  0  0  0  0
   11.3348   39.4281   32.6139 N   0  0  0  0  0  0
   10.3301   41.6870   32.8127 C   0  0  0  0  0  0
    8.0821   40.0465   34.2185 N   0  0  0  0  0  0
   10.1046   40.1852   32.8200 C   0  0  2  0  0  0
    5.8061   39.6986   35.2334 C   0  0  0  0  0  0
    5.3674   38.2705   34.8963 C   0  0  0  0  0  0
    4.3847   38.0785   34.1781 O   0  0  0  0  0  0
    6.1317   37.3179   35.4665 O   0  0  0  0  0  0
    5.8614   35.9408   35.2615 C   0  0  0  0  0  0
    6.8785   35.1137   36.0522 C   0  0  0  0  0  0
    8.1182   44.0797   38.8079 H   0  0  0  0  0  0
    9.0008   42.0527   31.1705 H   0  0  0  0  0  0
    8.0623   42.5202   34.8249 H   0  0  0  0  0  0
   16.6574   37.0551   28.8541 H   0  0  0  0  0  0
    7.0514   40.0014   38.1596 H   0  0  0  0  0  0
    9.1307   45.2430   36.9937 H   0  0  0  0  0  0
   11.7034   46.3134   33.4613 H   0  0  0  0  0  0
   10.9439   46.4333   31.9427 H   0  0  0  0  0  0
   12.4871   43.5115   35.6434 H   0  0  0  0  0  0
   13.1319   44.6760   34.4970 H   0  0  0  0  0  0
   11.6883   45.0489   35.4320 H   0  0  0  0  0  0
   10.3411   39.8460   30.1477 H   0  0  0  0  0  0
    9.7265   45.3939   30.3496 H   0  0  0  0  0  0
    8.5920   44.0827   30.1146 H   0  0  0  0  0  0
    8.2807   45.3032   31.3529 H   0  0  0  0  0  0
    7.4165   41.8963   39.6830 H   0  0  0  0  0  0
    8.7213   46.7611   32.9697 H   0  0  0  0  0  0
    9.8620   47.8357   33.7083 H   0  0  0  0  0  0
   13.1313   37.7925   26.7708 H   0  0  0  0  0  0
   15.5057   37.0982   26.8984 H   0  0  0  0  0  0
   13.6715   38.2119   32.3237 H   0  0  0  0  0  0
    7.7181   39.0840   36.0385 H   0  0  0  0  0  0
   11.7473   41.6801   34.4184 H   0  0  0  0  0  0
   11.2995   39.1326   28.0978 H   0  0  0  0  0  0
   11.7912   39.0819   33.4511 H   0  0  0  0  0  0
    7.6781   40.6264   33.4987 H   0  0  0  0  0  0
    9.4151   39.9336   32.0155 H   0  0  0  0  0  0
    5.4327   40.3802   34.4682 H   0  0  0  0  0  0
    5.2626   39.9443   36.1442 H   0  0  0  0  0  0
    5.9317   35.7016   34.1995 H   0  0  0  0  0  0
    4.8480   35.7012   35.5890 H   0  0  0  0  0  0
    6.7011   34.0466   35.9182 H   0  0  0  0  0  0
    7.8968   35.3269   35.7264 H   0  0  0  0  0  0
    6.8204   35.3261   37.1198 H   0  0  0  0  0  0
  1 31  1  0  0  0
  1 21  2  0  0  0
  1 44  1  0  0  0
  2 11  1  0  0  0
  2  6  1  0  0  0
  2 18  2  0  0  0
  3 35  1  0  0  0
  3 25  2  0  0  0
  3 45  1  0  0  0
  4 16  1  0  0  0
  4 31  2  0  0  0
  4 46  1  0  0  0
  5  8  1  0  0  0
  5 27  1  0  0  0
  5 47  1  0  0  0
  6 22  1  0  0  0
  7 16  2  0  0  0
  7 21  1  0  0  0
  7 48  1  0  0  0
  8 19  2  0  0  0
  8 12  1  0  0  0
  9 28  2  0  0  0
  9 15  1  0  0  0
  9 34  1  0  0  0
 10 23  2  0  0  0
 11 31  1  0  0  0
 11 49  1  0  0  0
 12 30  2  0  0  0
 12 28  1  0  0  0
 13 22  1  0  0  0
 13 17  1  0  0  0
 13 50  1  0  0  0
 13 51  1  0  0  0
 14 24  1  0  0  0
 14 52  1  0  0  0
 14 53  1  0  0  0
 14 54  1  0  0  0
 15 33  2  0  0  0
 15 55  1  0  0  0
 16 29  1  0  0  0
 17 25  1  0  0  0
 17 24  2  0  0  0
 20 25  1  0  0  0
 20 56  1  0  0  0
 20 57  1  0  0  0
 20 58  1  0  0  0
 21 59  1  0  0  0
 22 60  1  0  0  0
 22 61  1  0  0  0
 23 37  1  0  0  0
 23 36  1  0  0  0
 24 32  1  0  0  0
 26 27  2  0  0  0
 26 30  1  0  0  0
 26 62  1  0  0  0
 27 63  1  0  0  0
 28 64  1  0  0  0
 29 36  1  0  0  0
 29 38  1  0  0  0
 29 65  1  0  0  0
 30 33  1  0  0  0
 32 35  2  0  0  0
 32 66  1  0  0  0
 33 67  1  0  0  0
 34 37  1  0  0  0
 34 68  1  0  0  0
 35 37  1  0  0  0
 36 69  1  0  0  0
 37 70  1  0  0  0
 38 39  1  0  0  0
 38 71  1  0  0  0
 38 72  1  0  0  0
 39 40  2  0  0  0
 39 41  1  0  0  0
 41 42  1  0  0  0
 42 43  1  0  0  0
 42 73  1  0  0  0
 42 74  1  0  0  0
 43 75  1  0  0  0
 43 76  1  0  0  0
 43 77  1  0  0  0
M  END
> <s_m_entry_id>
20657

> <s_m_entry_name>
dock_pv.40

> <s_m_Source_Path>
/home/csk/Desktop/cluster/DUD-E-result/fa7

> <s_m_Source_File>
dock_pv.maegz

> <i_m_Source_File_Index>
40

> <chembl_id>
CHEMBL4066874

> <chembl_pref_name>
None

> <i_lp_mmshare_version>
53161

> <r_lp_tautomer_probability>
1

> <s_lp_Force_Field>
OPLS_2005

> <r_lp_Energy>
26.516962

> <b_lp_Chiralities_Consistent>
1

> <s_lp_Variant>
CHEMBL3991_lig426-1

> <s_i_glide_gridfile>
glide-grid_1w7x

> <i_i_glide_lignum>
574

> <i_i_glide_rotatable_bonds>
6

> <r_i_docking_score>
-7.20531089725583

> <r_i_glide_ligand_efficiency>
-0.167565369703624

> <r_i_glide_ligand_efficiency_sa>
-0.587048190471659

> <r_i_glide_ligand_efficiency_ln>
-1.51333922586159

> <r_i_glide_gscore>
-7.20531089725583

> <r_i_glide_lipo>
-3.16508354600365

> <r_i_glide_hbond>
-0.458808812646467

> <r_i_glide_metal>
0

> <r_i_glide_rewards>
-0.127515413633565

> <r_i_glide_evdw>
-37.3185768127441

> <r_i_glide_ecoul>
-11.5321788787842

> <r_i_glide_erotb>
0.206172541301409

> <r_i_glide_esite>
-0.0643199938187187

> <r_i_glide_emodel>
-60.5718833444302

> <r_i_glide_energy>
-48.8507556915283

> <r_i_glide_einternal>
4.84717321395874

> <i_i_glide_confnum>
5

> <i_i_glide_posenum>
44

> <r_i_glide_eff_state_penalty>
0

> <s_user_duplicate_titles>
CHEMBL3991_lig426

> <i_f3d_flags>
0

> <s_m_subgroup_title>
dock_pv

> <s_m_subgroupid>
dock_pv

> <b_m_subgroup_collapsed>
1

$$$$
CHEMBL3991_lig158
                    3D
 Schrodinger Suite 2021-1.
 59 61  0  0  1  0            999 V2000
    7.5310   41.8153   37.0441 C   0  0  0  0  0  0
    6.7314   35.2737   35.9899 C   0  0  0  0  0  0
    9.4804   43.8853   35.4746 N   0  0  0  0  0  0
    8.6514   44.7556   36.0791 C   0  0  0  0  0  0
    7.9308   40.6444   37.5822 N   0  0  0  0  0  0
    7.0479   36.6650   36.4064 C   0  0  0  0  0  0
    6.1478   35.0292   34.8970 N   0  0  0  0  0  0
    8.0372   42.8815   37.6833 N   0  0  0  0  0  0
   10.3769   44.1834   34.3556 C   0  0  2  0  0  0
   10.3835   43.1089   33.2576 C   0  0  0  0  0  0
    6.7862   41.9323   36.0706 O   0  0  0  0  0  0
    8.5325   45.9173   35.6963 O   0  0  0  0  0  0
    8.1093   36.9748   37.2770 C   0  0  0  0  0  0
    6.2697   37.7278   35.9242 C   0  0  0  0  0  0
    9.7656   41.8611   33.4301 C   0  0  0  0  0  0
   11.0043   43.3986   32.0368 C   0  0  0  0  0  0
    7.7885   44.2735   37.2655 C   0  0  0  0  0  0
    7.1037   34.3144   36.8974 N   0  0  0  0  0  0
    7.5958   39.3390   37.1594 C   0  0  0  0  0  0
   10.4826   41.1881   31.2244 C   0  0  0  0  0  0
   10.5965   40.1189   30.1402 C   0  0  0  0  0  0
    6.5330   39.0399   36.2925 C   0  0  0  0  0  0
    8.3729   38.2904   37.6570 C   0  0  0  0  0  0
    9.8117   40.9076   32.4161 C   0  0  0  0  0  0
   11.0501   42.4452   31.0243 C   0  0  0  0  0  0
   11.7717   39.1489   30.2962 C   0  0  0  0  0  0
   11.7939   44.4641   34.8881 C   0  0  0  0  0  0
   12.3189   38.5511   29.1572 C   0  0  0  0  0  0
   12.3311   38.8703   31.5499 C   0  0  0  0  0  0
   13.4105   38.0000   31.6577 C   0  0  0  0  0  0
   13.3968   37.6787   29.2615 C   0  0  0  0  0  0
   13.9349   37.4041   30.5146 C   0  0  0  0  0  0
    9.5267   42.9505   35.8448 H   0  0  0  0  0  0
    8.5890   40.6969   38.3459 H   0  0  0  0  0  0
    5.9978   34.0363   34.8050 H   0  0  0  0  0  0
    8.6061   42.7539   38.5116 H   0  0  0  0  0  0
   10.0187   45.0911   33.8620 H   0  0  0  0  0  0
    8.7432   36.1949   37.6750 H   0  0  0  0  0  0
    5.4394   37.5385   35.2592 H   0  0  0  0  0  0
    9.2554   41.6075   34.3458 H   0  0  0  0  0  0
   11.4637   44.3623   31.8739 H   0  0  0  0  0  0
    6.7430   44.3869   36.9738 H   0  0  0  0  0  0
    7.9319   44.9457   38.1051 H   0  0  0  0  0  0
    6.8748   33.3442   36.7453 H   0  0  0  0  0  0
    7.4985   34.5733   37.7991 H   0  0  0  0  0  0
    9.6734   39.5424   30.0988 H   0  0  0  0  0  0
   10.6659   40.6097   29.1680 H   0  0  0  0  0  0
    5.8839   39.7993   35.8919 H   0  0  0  0  0  0
    9.1965   38.4839   38.3311 H   0  0  0  0  0  0
    9.3558   39.9409   32.5708 H   0  0  0  0  0  0
   11.5373   42.6789   30.0888 H   0  0  0  0  0  0
   12.4401   44.8373   34.0965 H   0  0  0  0  0  0
   11.7843   45.2195   35.6765 H   0  0  0  0  0  0
   12.2565   43.5640   35.2952 H   0  0  0  0  0  0
   11.9290   38.7789   28.1774 H   0  0  0  0  0  0
   11.9509   39.3270   32.4511 H   0  0  0  0  0  0
   13.8437   37.7985   32.6263 H   0  0  0  0  0  0
   13.8180   37.2269   28.3743 H   0  0  0  0  0  0
   14.7687   36.7259   30.5962 H   0  0  0  0  0  0
  1  5  1  0  0  0
  1  8  1  0  0  0
  1 11  2  0  0  0
  2  6  1  0  0  0
  2  7  2  0  0  0
  2 18  1  0  0  0
  3  4  1  0  0  0
  3  9  1  0  0  0
  3 33  1  0  0  0
  4 17  1  0  0  0
  4 12  2  0  0  0
  5 19  1  0  0  0
  5 34  1  0  0  0
  6 13  1  0  0  0
  6 14  2  0  0  0
  7 35  1  0  0  0
  8 17  1  0  0  0
  8 36  1  0  0  0
  9 10  1  0  0  0
  9 27  1  0  0  0
  9 37  1  0  0  0
 10 15  2  0  0  0
 10 16  1  0  0  0
 13 23  2  0  0  0
 13 38  1  0  0  0
 14 22  1  0  0  0
 14 39  1  0  0  0
 15 24  1  0  0  0
 15 40  1  0  0  0
 16 25  2  0  0  0
 16 41  1  0  0  0
 17 42  1  0  0  0
 17 43  1  0  0  0
 18 44  1  0  0  0
 18 45  1  0  0  0
 19 22  2  0  0  0
 19 23  1  0  0  0
 20 25  1  0  0  0
 20 21  1  0  0  0
 20 24  2  0  0  0
 21 26  1  0  0  0
 21 46  1  0  0  0
 21 47  1  0  0  0
 22 48  1  0  0  0
 23 49  1  0  0  0
 24 50  1  0  0  0
 25 51  1  0  0  0
 26 28  2  0  0  0
 26 29  1  0  0  0
 27 52  1  0  0  0
 27 53  1  0  0  0
 27 54  1  0  0  0
 28 31  1  0  0  0
 28 55  1  0  0  0
 29 30  2  0  0  0
 29 56  1  0  0  0
 30 32  1  0  0  0
 30 57  1  0  0  0
 31 32  2  0  0  0
 31 58  1  0  0  0
 32 59  1  0  0  0
M  END
> <s_m_entry_id>
20658

> <s_m_entry_name>
dock_pv.41

> <s_m_Source_Path>
/home/csk/Desktop/cluster/DUD-E-result/fa7

> <s_m_Source_File>
dock_pv.maegz

> <i_m_Source_File_Index>
41

> <chembl_id>
CHEMBL122151

> <chembl_pref_name>
None

> <i_lp_mmshare_version>
53161

> <r_lp_tautomer_probability>
1

> <s_lp_Force_Field>
OPLS_2005

> <r_lp_Energy>
6.325976

> <b_lp_Chiralities_Consistent>
1

> <s_lp_Variant>
CHEMBL3991_lig158-1

> <s_i_glide_gridfile>
glide-grid_1w7x

> <i_i_glide_lignum>
156

> <i_i_glide_rotatable_bonds>
11

> <r_i_docking_score>
-7.20501277559751

> <r_i_glide_ligand_efficiency>
-0.225156649237422

> <r_i_glide_ligand_efficiency_sa>
-0.714827802888436

> <r_i_glide_ligand_efficiency_ln>
-1.61339876168683

> <r_i_glide_gscore>
-7.20501277559751

> <r_i_glide_lipo>
-3.11930901686202

> <r_i_glide_hbond>
-0.619272185005899

> <r_i_glide_metal>
0

> <r_i_glide_rewards>
-0.479796475712599

> <r_i_glide_evdw>
-48.0013999938965

> <r_i_glide_ecoul>
-9.52770709991455

> <r_i_glide_erotb>
1.07723630967854

> <r_i_glide_esite>
-0.234645343013524

> <r_i_glide_emodel>
-81.0196428959545

> <r_i_glide_energy>
-57.529107093811

> <r_i_glide_einternal>
4.37658929824829

> <i_i_glide_confnum>
57

> <i_i_glide_posenum>
240

> <r_i_glide_eff_state_penalty>
0

> <s_user_duplicate_titles>
CHEMBL3991_lig158,202644

> <i_f3d_flags>
0

> <s_m_subgroup_title>
dock_pv

> <s_m_subgroupid>
dock_pv

> <b_m_subgroup_collapsed>
1

$$$$
CHEMBL3991_lig353
                    3D
 Schrodinger Suite 2021-1.
 69 72  0  0  1  0            999 V2000
   10.9521   43.4334   34.4702 C   0  0  0  0  0  0
   10.9866   42.3373   33.6153 C   0  0  0  0  0  0
    9.8364   41.5775   33.3705 C   0  0  0  0  0  0
    8.6333   41.9404   33.9897 C   0  0  0  0  0  0
    8.5706   43.0402   34.8486 C   0  0  0  0  0  0
    9.7433   43.7655   35.0928 C   0  0  0  0  0  0
    9.8451   40.4026   32.3940 C   0  0  2  0  0  0
   11.1404   39.6838   32.4308 N   0  0  0  0  0  0
   11.8757   39.0722   31.3973 C   0  0  0  0  0  0
   11.4723   39.0504   30.0705 C   0  0  0  0  0  0
   12.3042   38.5717   29.0895 C   0  0  0  0  0  0
   13.5757   38.0731   29.3674 C   0  0  0  0  0  0
   13.9398   37.9859   30.7217 C   0  0  0  0  0  0
   13.0991   38.4790   31.7217 C   0  0  0  0  0  0
   14.4943   37.6781   28.2660 C   0  0  0  0  0  0
   15.6620   37.2790   28.5059 N   0  0  0  0  0  0
   13.9309   37.6791   27.0119 N   0  0  0  0  0  0
    9.2471   40.8294   31.0538 C   0  0  0  0  0  0
    8.2260   40.1398   30.4505 N   0  0  0  0  0  0
    9.6387   41.8445   30.3152 N   0  0  0  0  0  0
    7.3329   43.3303   35.3951 O   0  0  0  0  0  0
    7.1299   44.3612   36.3642 C   0  0  0  0  0  0
    7.2684   45.7973   35.8197 C   0  0  0  0  0  0
    8.8964   41.7764   29.2194 C   0  0  0  0  0  0
    8.0026   40.7060   29.2247 C   0  0  0  0  0  0
    6.9726   40.2299   28.2499 C   0  0  0  0  0  0
    7.8464   44.0790   37.6968 C   0  0  0  0  0  0
   12.1342   44.1162   34.6607 O   0  0  0  0  0  0
   12.1194   45.3914   35.2982 C   0  0  0  0  0  0
   11.4329   46.4647   34.4374 C   0  0  0  0  0  0
    6.0746   41.2340   27.8674 C   0  0  0  0  0  0
    5.0081   40.9590   27.0179 C   0  0  0  0  0  0
    4.8215   39.6685   26.5426 C   0  0  0  0  0  0
    5.7141   38.6610   26.9004 C   0  0  0  0  0  0
    6.8166   38.9123   27.7368 C   0  0  0  0  0  0
    7.5083   41.2228   33.7493 F   0  0  0  0  0  0
    7.8119   37.7942   28.0155 C   0  0  0  0  0  0
    7.4013   36.5326   27.6970 O   0  0  0  0  0  0
    8.9193   37.9935   28.4972 O   0  0  0  0  0  0
   11.9199   42.0882   33.1309 H   0  0  0  0  0  0
    9.7276   44.6003   35.7653 H   0  0  0  0  0  0
    9.1557   39.6790   32.8272 H   0  0  0  0  0  0
   11.6220   39.7065   33.3162 H   0  0  0  0  0  0
   10.5441   39.4262   29.7066 H   0  0  0  0  0  0
   11.9308   38.6616   28.0970 H   0  0  0  0  0  0
   14.9051   37.5916   31.0052 H   0  0  0  0  0  0
   13.4434   38.4642   32.7457 H   0  0  0  0  0  0
   16.0972   36.9476   27.6545 H   0  0  0  0  0  0
   14.3889   37.1747   26.2520 H   0  0  0  0  0  0
   12.9744   37.9713   26.8728 H   0  0  0  0  0  0
    7.7702   39.3167   30.8120 H   0  0  0  0  0  0
    6.0676   44.2695   36.5850 H   0  0  0  0  0  0
    7.0712   46.5293   36.6023 H   0  0  0  0  0  0
    8.2457   46.0278   35.4071 H   0  0  0  0  0  0
    6.5434   45.9727   35.0247 H   0  0  0  0  0  0
    9.0218   42.4913   28.4192 H   0  0  0  0  0  0
    7.5309   44.7938   38.4583 H   0  0  0  0  0  0
    7.5972   43.0858   38.0698 H   0  0  0  0  0  0
    8.9310   44.1313   37.6485 H   0  0  0  0  0  0
   13.1553   45.6788   35.4531 H   0  0  0  0  0  0
   11.6908   45.3402   36.3003 H   0  0  0  0  0  0
   11.5306   47.4453   34.8970 H   0  0  0  0  0  0
   10.3698   46.2803   34.2967 H   0  0  0  0  0  0
   11.8854   46.5125   33.4480 H   0  0  0  0  0  0
    6.1876   42.2400   28.2457 H   0  0  0  0  0  0
    4.3223   41.7461   26.7404 H   0  0  0  0  0  0
    3.9913   39.4467   25.8877 H   0  0  0  0  0  0
    5.5311   37.6789   26.4956 H   0  0  0  0  0  0
    7.1217   36.4493   26.7624 H   0  0  0  0  0  0
  1  2  2  0  0  0
  1  6  1  0  0  0
  1 28  1  0  0  0
  2  3  1  0  0  0
  2 40  1  0  0  0
  3  4  2  0  0  0
  3  7  1  0  0  0
  4  5  1  0  0  0
  4 36  1  0  0  0
  5  6  2  0  0  0
  5 21  1  0  0  0
  6 41  1  0  0  0
  7  8  1  0  0  0
  7 42  1  0  0  0
  7 18  1  0  0  0
  8  9  1  0  0  0
  8 43  1  0  0  0
  9 10  2  0  0  0
  9 14  1  0  0  0
 10 11  1  0  0  0
 10 44  1  0  0  0
 11 12  2  0  0  0
 11 45  1  0  0  0
 12 13  1  0  0  0
 12 15  1  0  0  0
 13 14  2  0  0  0
 13 46  1  0  0  0
 14 47  1  0  0  0
 15 16  2  0  0  0
 15 17  1  0  0  0
 16 48  1  0  0  0
 17 49  1  0  0  0
 17 50  1  0  0  0
 18 19  1  0  0  0
 18 20  2  0  0  0
 19 25  1  0  0  0
 19 51  1  0  0  0
 20 24  1  0  0  0
 21 22  1  0  0  0
 22 23  1  0  0  0
 22 27  1  0  0  0
 22 52  1  0  0  0
 23 53  1  0  0  0
 23 54  1  0  0  0
 23 55  1  0  0  0
 24 56  1  0  0  0
 24 25  2  0  0  0
 25 26  1  0  0  0
 26 31  2  0  0  0
 26 35  1  0  0  0
 27 57  1  0  0  0
 27 58  1  0  0  0
 27 59  1  0  0  0
 28 29  1  0  0  0
 29 30  1  0  0  0
 29 60  1  0  0  0
 29 61  1  0  0  0
 30 62  1  0  0  0
 30 63  1  0  0  0
 30 64  1  0  0  0
 31 32  1  0  0  0
 31 65  1  0  0  0
 32 33  2  0  0  0
 32 66  1  0  0  0
 33 34  1  0  0  0
 33 67  1  0  0  0
 34 35  2  0  0  0
 34 68  1  0  0  0
 35 37  1  0  0  0
 37 38  1  0  0  0
 37 39  2  0  0  0
 38 69  1  0  0  0
M  END
> <s_m_entry_id>
20659

> <s_m_entry_name>
dock_pv.42

> <s_m_Source_Path>
/home/csk/Desktop/cluster/DUD-E-result/fa7

> <s_m_Source_File>
dock_pv.maegz

> <i_m_Source_File_Index>
42

> <chembl_id>
CHEMBL3400183

> <chembl_pref_name>
None

> <i_lp_mmshare_version>
53161

> <r_lp_tautomer_probability>
0.499999999999999

> <s_lp_Force_Field>
OPLS_2005

> <r_lp_Energy>
27.323169

> <b_lp_Chiralities_Consistent>
1

> <s_lp_Variant>
CHEMBL3991_lig353-3

> <s_i_glide_gridfile>
glide-grid_1w7x

> <i_i_glide_lignum>
451

> <i_i_glide_rotatable_bonds>
12

> <r_i_docking_score>
-7.14843796207779

> <r_i_glide_ligand_efficiency>
-0.183293281078918

> <r_i_glide_ligand_efficiency_sa>
-0.621586271463365

> <r_i_glide_ligand_efficiency_ln>
-1.53282801954819

> <r_i_glide_gscore>
-7.14843796207779

> <r_i_glide_lipo>
-2.53563647303938

> <r_i_glide_hbond>
-0.113598431857333

> <r_i_glide_metal>
0

> <r_i_glide_rewards>
-0.468184677176357

> <r_i_glide_evdw>
-50.2804527282715

> <r_i_glide_ecoul>
-13.3985624313354

> <r_i_glide_erotb>
0.583797289595417

> <r_i_glide_esite>
-0.0910086684862499

> <r_i_glide_emodel>
-86.1554105158051

> <r_i_glide_energy>
-63.6790151596069

> <r_i_glide_einternal>
10.9732465744019

> <i_i_glide_confnum>
3

> <i_i_glide_posenum>
255

> <r_i_glide_eff_state_penalty>
0

> <s_user_duplicate_titles>
CHEMBL3991_lig353

> <i_f3d_flags>
0

> <s_m_subgroup_title>
dock_pv

> <s_m_subgroupid>
dock_pv

> <b_m_subgroup_collapsed>
1

$$$$
CHEMBL3991_lig231
                    3D
 Schrodinger Suite 2021-1.
 56 59  0  0  1  0            999 V2000
   13.5010   38.0765   29.3739 C   0  0  0  0  0  0
   14.0022   37.6823   30.6298 C   0  0  0  0  0  0
   13.4408   38.0790   31.8365 C   0  0  0  0  0  0
   12.3167   38.8462   29.3290 C   0  0  0  0  0  0
   11.7108   39.2479   30.5305 C   0  0  0  0  0  0
   12.3094   38.8790   31.7536 C   0  0  0  0  0  0
   11.5310   39.4925   32.6972 N   0  0  0  0  0  0
   10.4623   40.0790   32.0614 C   0  0  0  0  0  0
   10.5781   39.9978   30.7510 N   0  0  0  0  0  0
    9.3035   40.6932   32.8043 C   0  0  0  0  0  0
    8.9120   40.2826   34.0968 C   0  0  0  0  0  0
    7.8570   40.9176   34.7760 C   0  0  0  0  0  0
    7.1566   41.9305   34.1192 C   0  0  0  0  0  0
    7.4795   42.3083   32.8116 C   0  0  0  0  0  0
    8.5631   41.6980   32.1739 C   0  0  0  0  0  0
    6.6355   43.3483   32.0553 C   0  0  2  0  0  0
    6.7168   44.7032   32.7525 C   0  0  0  0  0  0
    5.1416   42.9898   31.9073 C   0  0  0  0  0  0
    4.9401   41.6796   31.1616 C   0  0  0  0  0  0
    3.6222   41.3345   31.1892 O   0  0  0  0  0  0
    5.8095   41.0102   30.6078 O   0  0  0  0  0  0
    7.7681   45.4325   32.2889 O   0  0  0  0  0  0
    5.9700   45.0862   33.6518 O   0  0  0  0  0  0
    9.5310   39.2188   34.7053 O   0  0  0  0  0  0
   14.2541   37.6790   28.1542 C   0  0  0  0  0  0
   15.4491   37.2790   28.2379 N   0  0  0  0  0  0
   13.5312   37.6790   26.9896 N   0  0  0  0  0  0
    7.4475   40.5055   36.1542 C   0  0  0  0  0  0
    6.9866   39.1969   36.3598 C   0  0  0  0  0  0
    6.6330   38.7451   37.6297 C   0  0  0  0  0  0
    6.7340   39.6004   38.7221 C   0  0  0  0  0  0
    7.1805   40.9060   38.5382 C   0  0  0  0  0  0
    7.5310   41.3723   37.2648 C   0  0  0  0  0  0
    8.0420   42.8040   37.1363 C   0  0  0  0  0  0
   14.8975   37.0789   30.6883 H   0  0  0  0  0  0
   13.8834   37.8086   32.7838 H   0  0  0  0  0  0
   11.8934   39.1700   28.3899 H   0  0  0  0  0  0
   11.6777   39.5072   33.6945 H   0  0  0  0  0  0
    6.3281   42.4081   34.6205 H   0  0  0  0  0  0
    8.8235   41.9979   31.1682 H   0  0  0  0  0  0
    7.0449   43.4715   31.0464 H   0  0  0  0  0  0
    4.6818   42.8989   32.8955 H   0  0  0  0  0  0
    4.6316   43.7761   31.3420 H   0  0  0  0  0  0
    3.0883   42.0023   31.6228 H   0  0  0  0  0  0
    7.8242   46.2677   32.7578 H   0  0  0  0  0  0
    9.9511   38.6285   34.0755 H   0  0  0  0  0  0
   15.7827   36.9325   27.3460 H   0  0  0  0  0  0
   13.9469   37.2382   26.1725 H   0  0  0  0  0  0
   12.5864   38.0458   26.9146 H   0  0  0  0  0  0
    6.9211   38.5127   35.5260 H   0  0  0  0  0  0
    6.2977   37.7273   37.7688 H   0  0  0  0  0  0
    6.4785   39.2485   39.7114 H   0  0  0  0  0  0
    7.2723   41.5558   39.3973 H   0  0  0  0  0  0
    7.2392   43.4755   36.8324 H   0  0  0  0  0  0
    8.4635   43.1642   38.0771 H   0  0  0  0  0  0
    8.8420   42.8791   36.3996 H   0  0  0  0  0  0
  1  4  2  0  0  0
  1 25  1  0  0  0
  1  2  1  0  0  0
  2  3  2  0  0  0
  2 35  1  0  0  0
  3  6  1  0  0  0
  3 36  1  0  0  0
  4  5  1  0  0  0
  4 37  1  0  0  0
  5  9  1  0  0  0
  5  6  2  0  0  0
  6  7  1  0  0  0
  7  8  1  0  0  0
  7 38  1  0  0  0
  8  9  2  0  0  0
  8 10  1  0  0  0
 10 11  2  0  0  0
 10 15  1  0  0  0
 11 24  1  0  0  0
 11 12  1  0  0  0
 12 13  2  0  0  0
 12 28  1  0  0  0
 13 14  1  0  0  0
 13 39  1  0  0  0
 14 16  1  0  0  0
 14 15  2  0  0  0
 15 40  1  0  0  0
 16 17  1  0  0  0
 16 18  1  0  0  0
 16 41  1  0  0  0
 17 22  1  0  0  0
 17 23  2  0  0  0
 18 19  1  0  0  0
 18 42  1  0  0  0
 18 43  1  0  0  0
 19 20  1  0  0  0
 19 21  2  0  0  0
 20 44  1  0  0  0
 22 45  1  0  0  0
 24 46  1  0  0  0
 25 26  2  0  0  0
 25 27  1  0  0  0
 26 47  1  0  0  0
 27 48  1  0  0  0
 27 49  1  0  0  0
 28 29  2  0  0  0
 28 33  1  0  0  0
 29 30  1  0  0  0
 29 50  1  0  0  0
 30 31  2  0  0  0
 30 51  1  0  0  0
 31 32  1  0  0  0
 31 52  1  0  0  0
 32 33  2  0  0  0
 32 53  1  0  0  0
 33 34  1  0  0  0
 34 54  1  0  0  0
 34 55  1  0  0  0
 34 56  1  0  0  0
M  END
> <s_m_entry_id>
20660

> <s_m_entry_name>
dock_pv.43

> <s_m_Source_Path>
/home/csk/Desktop/cluster/DUD-E-result/fa7

> <s_m_Source_File>
dock_pv.maegz

> <i_m_Source_File_Index>
43

> <chembl_id>
CHEMBL204283

> <chembl_pref_name>
None

> <i_lp_mmshare_version>
53161

> <r_lp_tautomer_probability>
0.999999999997365

> <s_lp_Force_Field>
OPLS_2005

> <r_lp_Energy>
23.844183

> <b_lp_Chiralities_Consistent>
1

> <s_lp_Variant>
CHEMBL3991_lig231-1

> <s_i_glide_gridfile>
glide-grid_1w7x

> <i_i_glide_lignum>
270

> <i_i_glide_rotatable_bonds>
10

> <r_i_docking_score>
-7.14820491848922

> <r_i_glide_ligand_efficiency>
-0.210241321132036

> <r_i_glide_ligand_efficiency_sa>
-0.681100264254911

> <r_i_glide_ligand_efficiency_ln>
-1.57923896685083

> <r_i_glide_gscore>
-7.14820491848922

> <r_i_glide_lipo>
-1.98431304682678

> <r_i_glide_hbond>
-0.585230567866182

> <r_i_glide_metal>
0

> <r_i_glide_rewards>
-0.907984598541512

> <r_i_glide_evdw>
-37.3772735595703

> <r_i_glide_ecoul>
-15.394344329834

> <r_i_glide_erotb>
0.574134305569734

> <r_i_glide_esite>
-0.0667956833708666

> <r_i_glide_emodel>
-69.9849197212483

> <r_i_glide_energy>
-52.7716178894043

> <r_i_glide_einternal>
5.08508920669556

> <i_i_glide_confnum>
23

> <i_i_glide_posenum>
398

> <r_i_glide_eff_state_penalty>
0

> <s_user_duplicate_titles>
CHEMBL3991_lig231,342158

> <i_f3d_flags>
0

> <s_m_subgroup_title>
dock_pv

> <s_m_subgroupid>
dock_pv

> <b_m_subgroup_collapsed>
1

$$$$
CHEMBL3991_lig294
                    3D
 Schrodinger Suite 2021-1.
 70 70  0  0  1  0            999 V2000
    9.3438   42.8306   33.2088 C   0  0  1  0  0  0
    8.1366   43.3345   34.0273 C   0  0  0  0  0  0
    8.3950   43.4849   35.5400 C   0  0  0  0  0  0
    7.2414   44.2132   36.2319 C   0  0  0  0  0  0
    6.0870   44.0842   35.8268 O   0  0  0  0  0  0
    7.5309   44.9608   37.2970 N   0  0  0  0  0  0
   13.1308   38.1646   31.8243 C   0  0  0  0  0  0
   13.7958   37.7098   30.6977 C   0  0  0  0  0  0
   13.3771   38.0802   29.4100 C   0  0  0  0  0  0
   12.2192   38.8748   29.2971 C   0  0  0  0  0  0
   11.5444   39.3315   30.4272 C   0  0  0  0  0  0
   12.0108   38.9920   31.6970 C   0  0  0  0  0  0
   14.1921   37.6789   28.2353 C   0  0  0  0  0  0
   13.5310   37.6790   27.0331 N   0  0  0  0  0  0
   15.3804   37.2791   28.3883 N   0  0  0  0  0  0
   11.3948   39.5886   32.9581 C   0  0  0  0  0  0
   10.8274   40.9292   32.8211 N   0  0  0  0  0  0
    9.7056   41.3484   33.4277 C   0  0  0  0  0  0
    8.9854   40.6263   34.1162 O   0  0  0  0  0  0
    9.0364   43.0505   31.7976 N   0  0  0  0  0  0
    9.9352   43.4268   30.8762 C   0  0  0  0  0  0
    9.3775   43.6198   29.4482 C   0  0  2  0  0  0
   11.1310   43.5823   31.1259 O   0  0  0  0  0  0
    9.5310   42.3081   28.7704 N   0  0  1  0  0  0
   10.0446   44.7915   28.6512 C   0  0  2  0  0  0
   11.5827   44.7267   28.4592 C   0  0  0  0  0  0
   12.0528   45.3633   27.1397 C   0  0  0  0  0  0
    8.0817   41.4312   28.2975 S   0  0  0  0  0  0
    8.5946   39.6197   28.3791 C   0  0  0  0  0  0
    7.4501   38.6998   27.9251 C   0  0  0  0  0  0
    7.8481   37.2177   27.9785 C   0  0  0  0  0  0
    7.8224   41.7740   26.8967 O   0  0  0  0  0  0
    7.0599   41.6625   29.3255 O   0  0  0  0  0  0
    9.6479   46.1668   29.2256 C   0  0  0  0  0  0
   10.2121   43.4283   33.4951 H   0  0  0  0  0  0
    7.8492   44.3145   33.6398 H   0  0  0  0  0  0
    7.2760   42.6856   33.8594 H   0  0  0  0  0  0
    8.5263   42.5106   36.0091 H   0  0  0  0  0  0
    9.3170   44.0451   35.7040 H   0  0  0  0  0  0
    8.4774   45.0410   37.6529 H   0  0  0  0  0  0
    6.8023   45.4741   37.7687 H   0  0  0  0  0  0
   13.5201   37.9077   32.7997 H   0  0  0  0  0  0
   14.6774   37.1009   30.8413 H   0  0  0  0  0  0
   11.8755   39.2121   28.3312 H   0  0  0  0  0  0
   10.7144   40.0093   30.3156 H   0  0  0  0  0  0
   13.9814   37.2359   26.2353 H   0  0  0  0  0  0
   12.5875   38.0391   26.9171 H   0  0  0  0  0  0
   15.7643   36.9383   27.5156 H   0  0  0  0  0  0
   12.1883   39.6790   33.6971 H   0  0  0  0  0  0
   10.6759   38.8792   33.3686 H   0  0  0  0  0  0
   11.3807   41.6108   32.3174 H   0  0  0  0  0  0
    8.0839   42.8746   31.5118 H   0  0  0  0  0  0
    8.3116   43.8478   29.5181 H   0  0  0  0  0  0
   10.2553   42.3126   28.0430 H   0  0  0  0  0  0
    9.5987   44.7483   27.6557 H   0  0  0  0  0  0
   12.0857   45.2176   29.2932 H   0  0  0  0  0  0
   11.9209   43.6932   28.4970 H   0  0  0  0  0  0
   13.1309   45.2787   27.0174 H   0  0  0  0  0  0
   11.5892   44.8808   26.2795 H   0  0  0  0  0  0
   11.8029   46.4224   27.1020 H   0  0  0  0  0  0
    8.8583   39.4161   29.4135 H   0  0  0  0  0  0
    9.4837   39.5091   27.7592 H   0  0  0  0  0  0
    7.1310   38.9517   26.9129 H   0  0  0  0  0  0
    6.5770   38.8708   28.5561 H   0  0  0  0  0  0
    7.0125   36.5768   27.6966 H   0  0  0  0  0  0
    8.1647   36.9217   28.9773 H   0  0  0  0  0  0
    8.6721   37.0038   27.2963 H   0  0  0  0  0  0
   10.0653   46.3181   30.2208 H   0  0  0  0  0  0
   10.0027   46.9808   28.5938 H   0  0  0  0  0  0
    8.5644   46.2676   29.3044 H   0  0  0  0  0  0
  1 18  1  0  0  0
  1 20  1  0  0  0
  1  2  1  0  0  0
  1 35  1  0  0  0
  2  3  1  0  0  0
  2 36  1  0  0  0
  2 37  1  0  0  0
  3  4  1  0  0  0
  3 38  1  0  0  0
  3 39  1  0  0  0
  4  5  2  0  0  0
  4  6  1  0  0  0
  6 40  1  0  0  0
  6 41  1  0  0  0
  7 12  1  0  0  0
  7  8  2  0  0  0
  7 42  1  0  0  0
  8  9  1  0  0  0
  8 43  1  0  0  0
  9 10  2  0  0  0
  9 13  1  0  0  0
 10 11  1  0  0  0
 10 44  1  0  0  0
 11 12  2  0  0  0
 11 45  1  0  0  0
 12 16  1  0  0  0
 13 14  1  0  0  0
 13 15  2  0  0  0
 14 46  1  0  0  0
 14 47  1  0  0  0
 15 48  1  0  0  0
 16 17  1  0  0  0
 16 49  1  0  0  0
 16 50  1  0  0  0
 17 18  1  0  0  0
 17 51  1  0  0  0
 18 19  2  0  0  0
 20 21  1  0  0  0
 20 52  1  0  0  0
 21 22  1  0  0  0
 21 23  2  0  0  0
 22 24  1  0  0  0
 22 25  1  0  0  0
 22 53  1  0  0  0
 24 28  1  0  0  0
 24 54  1  0  0  0
 25 26  1  0  0  0
 25 34  1  0  0  0
 25 55  1  0  0  0
 26 27  1  0  0  0
 26 56  1  0  0  0
 26 57  1  0  0  0
 27 58  1  0  0  0
 27 59  1  0  0  0
 27 60  1  0  0  0
 28 29  1  0  0  0
 28 32  2  0  0  0
 28 33  2  0  0  0
 29 30  1  0  0  0
 29 61  1  0  0  0
 29 62  1  0  0  0
 30 31  1  0  0  0
 30 63  1  0  0  0
 30 64  1  0  0  0
 31 65  1  0  0  0
 31 66  1  0  0  0
 31 67  1  0  0  0
 34 68  1  0  0  0
 34 69  1  0  0  0
 34 70  1  0  0  0
M  END
> <s_m_entry_id>
20661

> <s_m_entry_name>
dock_pv.44

> <s_m_Source_Path>
/home/csk/Desktop/cluster/DUD-E-result/fa7

> <s_m_Source_File>
dock_pv.maegz

> <i_m_Source_File_Index>
44

> <chembl_id>
CHEMBL498660

> <chembl_pref_name>
None

> <i_lp_mmshare_version>
53161

> <r_lp_tautomer_probability>
1

> <s_lp_Force_Field>
OPLS_2005

> <r_lp_Energy>
-6.310485

> <b_lp_Chiralities_Consistent>
1

> <s_lp_Variant>
CHEMBL3991_lig294-1

> <s_i_glide_gridfile>
glide-grid_1w7x

> <i_i_glide_lignum>
372

> <i_i_glide_rotatable_bonds>
17

> <r_i_docking_score>
-7.1405438557791

> <r_i_glide_ligand_efficiency>
-0.210015995758209

> <r_i_glide_ligand_efficiency_sa>
-0.680370297515591

> <r_i_glide_ligand_efficiency_ln>
-1.57754642321264

> <r_i_glide_gscore>
-7.1405438557791

> <r_i_glide_lipo>
-2.02599260501043

> <r_i_glide_hbond>
-0.793993308259298

> <r_i_glide_metal>
0

> <r_i_glide_rewards>
-0.605773670967658

> <r_i_glide_evdw>
-42.8267059326172

> <r_i_glide_ecoul>
-16.3302173614502

> <r_i_glide_erotb>
1.07493030912693

> <r_i_glide_esite>
-0.198846679820249

> <r_i_glide_emodel>
-78.6067348429108

> <r_i_glide_energy>
-59.1569232940674

> <r_i_glide_einternal>
13.9327096939087

> <i_i_glide_confnum>
126

> <i_i_glide_posenum>
279

> <r_i_glide_eff_state_penalty>
0

> <s_user_duplicate_titles>
CHEMBL3991_lig294,510840

> <i_f3d_flags>
0

> <s_m_subgroup_title>
dock_pv

> <s_m_subgroupid>
dock_pv

> <b_m_subgroup_collapsed>
1

$$$$
CHEMBL3991_lig232
                    3D
 Schrodinger Suite 2021-1.
 53 56  0  0  1  0            999 V2000
    7.3944   41.0587   37.2501 C   0  0  0  0  0  0
    7.7402   42.4217   37.1275 C   0  0  0  0  0  0
    8.2869   42.9776   35.9620 C   0  0  0  0  0  0
    7.6525   40.2028   36.1689 C   0  0  0  0  0  0
    8.2224   40.7231   35.0052 C   0  0  0  0  0  0
    8.5203   42.0994   34.9010 C   0  0  0  0  0  0
    9.0423   42.2261   33.6281 N   0  0  0  0  0  0
    9.0670   40.9627   33.0775 C   0  0  0  0  0  0
    8.5707   40.0580   33.8737 N   0  0  0  0  0  0
    9.5652   40.5966   31.7249 C   0  0  0  0  0  0
   10.7531   39.8644   31.5353 C   0  0  0  0  0  0
   11.1096   39.3641   30.2552 C   0  0  0  0  0  0
   10.2228   39.6648   29.2083 C   0  0  0  0  0  0
    9.0803   40.4427   29.3667 C   0  0  0  0  0  0
    8.7491   40.9015   30.6396 C   0  0  0  0  0  0
    8.2138   40.7432   28.1349 C   0  0  2  0  0  0
    7.9644   42.2427   27.9894 C   0  0  0  0  0  0
    6.8732   39.9791   28.0836 C   0  0  0  0  0  0
    7.0960   38.5178   27.7116 C   0  0  0  0  0  0
    6.0984   38.0791   26.8970 O   0  0  0  0  0  0
    8.0325   37.8142   28.0811 O   0  0  0  0  0  0
    9.1304   42.9008   27.7124 O   0  0  0  0  0  0
    6.8761   42.8015   28.1129 O   0  0  0  0  0  0
   11.5421   39.6785   32.6408 O   0  0  0  0  0  0
    6.7320   40.5058   38.4596 C   0  0  0  0  0  0
    5.8577   39.6059   38.3507 N   0  0  0  0  0  0
    7.1328   41.0787   39.6380 N   0  0  0  0  0  0
   12.3545   38.5576   29.9318 C   0  0  0  0  0  0
   13.1296   37.8968   30.8992 C   0  0  0  0  0  0
   14.3540   37.3250   30.5597 C   0  0  0  0  0  0
   14.8208   37.3653   29.2585 C   0  0  0  0  0  0
   14.0193   37.8772   28.2582 C   0  0  0  0  0  0
   12.8178   38.4790   28.6038 C   0  0  0  0  0  0
   16.4315   36.8790   28.8973 Cl  0  0  0  0  0  0
    7.5627   43.0928   37.9571 H   0  0  0  0  0  0
    8.5285   44.0296   35.9024 H   0  0  0  0  0  0
    7.4185   39.1483   36.2270 H   0  0  0  0  0  0
    9.3912   43.0482   33.1580 H   0  0  0  0  0  0
   10.3890   39.2790   28.2180 H   0  0  0  0  0  0
    7.8371   41.4626   30.7903 H   0  0  0  0  0  0
    8.7885   40.4782   27.2470 H   0  0  0  0  0  0
    6.3581   40.0350   29.0449 H   0  0  0  0  0  0
    6.2185   40.4188   27.3234 H   0  0  0  0  0  0
    6.3307   37.2550   26.4252 H   0  0  0  0  0  0
    9.9058   42.3304   27.7074 H   0  0  0  0  0  0
   12.4816   39.6249   32.4452 H   0  0  0  0  0  0
    5.4976   39.3183   39.2484 H   0  0  0  0  0  0
    6.7756   40.7208   40.5097 H   0  0  0  0  0  0
    8.0225   41.5696   39.6638 H   0  0  0  0  0  0
   12.8227   37.8234   31.9289 H   0  0  0  0  0  0
   14.9827   36.8804   31.2973 H   0  0  0  0  0  0
   14.3698   37.8952   27.2354 H   0  0  0  0  0  0
   12.3318   39.0032   27.8034 H   0  0  0  0  0  0
  1  4  2  0  0  0
  1 25  1  0  0  0
  1  2  1  0  0  0
  2  3  2  0  0  0
  2 35  1  0  0  0
  3  6  1  0  0  0
  3 36  1  0  0  0
  4  5  1  0  0  0
  4 37  1  0  0  0
  5  9  1  0  0  0
  5  6  2  0  0  0
  6  7  1  0  0  0
  7  8  1  0  0  0
  7 38  1  0  0  0
  8  9  2  0  0  0
  8 10  1  0  0  0
 10 11  2  0  0  0
 10 15  1  0  0  0
 11 24  1  0  0  0
 11 12  1  0  0  0
 12 13  2  0  0  0
 12 28  1  0  0  0
 13 14  1  0  0  0
 13 39  1  0  0  0
 14 16  1  0  0  0
 14 15  2  0  0  0
 15 40  1  0  0  0
 16 17  1  0  0  0
 16 18  1  0  0  0
 16 41  1  0  0  0
 17 22  1  0  0  0
 17 23  2  0  0  0
 18 19  1  0  0  0
 18 42  1  0  0  0
 18 43  1  0  0  0
 19 20  1  0  0  0
 19 21  2  0  0  0
 20 44  1  0  0  0
 22 45  1  0  0  0
 24 46  1  0  0  0
 25 26  2  0  0  0
 25 27  1  0  0  0
 26 47  1  0  0  0
 27 48  1  0  0  0
 27 49  1  0  0  0
 28 29  2  0  0  0
 28 33  1  0  0  0
 29 30  1  0  0  0
 29 50  1  0  0  0
 30 31  2  0  0  0
 30 51  1  0  0  0
 31 32  1  0  0  0
 31 34  1  0  0  0
 32 33  2  0  0  0
 32 52  1  0  0  0
 33 53  1  0  0  0
M  END
> <s_m_entry_id>
20662

> <s_m_entry_name>
dock_pv.45

> <s_m_Source_Path>
/home/csk/Desktop/cluster/DUD-E-result/fa7

> <s_m_Source_File>
dock_pv.maegz

> <i_m_Source_File_Index>
45

> <chembl_id>
CHEMBL206337

> <chembl_pref_name>
None

> <i_lp_mmshare_version>
53161

> <r_lp_tautomer_probability>
0.999999999997365

> <s_lp_Force_Field>
OPLS_2005

> <r_lp_Energy>
20.338181

> <b_lp_Chiralities_Consistent>
1

> <s_lp_Variant>
CHEMBL3991_lig232-1

> <s_i_glide_gridfile>
glide-grid_1w7x

> <i_i_glide_lignum>
272

> <i_i_glide_rotatable_bonds>
10

> <r_i_docking_score>
-7.10002719087686

> <r_i_glide_ligand_efficiency>
-0.208824329143437

> <r_i_glide_ligand_efficiency_sa>
-0.676509760291726

> <r_i_glide_ligand_efficiency_ln>
-1.56859515548178

> <r_i_glide_gscore>
-7.10002719087686

> <r_i_glide_lipo>
-2.48174726578032

> <r_i_glide_hbond>
-0.333771144060696

> <r_i_glide_metal>
0

> <r_i_glide_rewards>
-0.252814748582222

> <r_i_glide_evdw>
-43.3779907226562

> <r_i_glide_ecoul>
-15.3404245376587

> <r_i_glide_erotb>
0.53026772752074

> <r_i_glide_esite>
-0.0919985431927444

> <r_i_glide_emodel>
-69.3702051571098

> <r_i_glide_energy>
-58.7184152603149

> <r_i_glide_einternal>
18.1826782226562

> <i_i_glide_confnum>
2

> <i_i_glide_posenum>
1

> <r_i_glide_eff_state_penalty>
0

> <s_user_duplicate_titles>
CHEMBL3991_lig232,342208

> <i_f3d_flags>
0

> <s_m_subgroup_title>
dock_pv

> <s_m_subgroupid>
dock_pv

> <b_m_subgroup_collapsed>
1

$$$$
CHEMBL3991_lig118
                    3D
 Schrodinger Suite 2021-1.
 72 75  0  0  1  0            999 V2000
   10.1875   43.8765   31.1317 C   0  0  0  0  0  0
    9.3236   43.1941   32.2389 C   0  0  0  0  0  0
    8.8720   44.3055   33.2271 C   0  0  0  0  0  0
   10.2436   45.3339   31.5345 C   0  0  0  0  0  0
    9.5318   45.5671   32.7159 C   0  0  0  0  0  0
    9.4676   46.8558   33.2503 C   0  0  0  0  0  0
   10.1053   47.9114   32.5986 C   0  0  0  0  0  0
   10.8023   47.6824   31.4121 C   0  0  0  0  0  0
   10.8812   46.3924   30.8830 C   0  0  0  0  0  0
   10.2345   42.1154   32.9424 C   0  0  0  0  0  0
   10.9675   42.4394   33.8783 O   0  0  0  0  0  0
   10.3317   40.8974   32.3663 N   0  0  0  0  0  0
   11.1917   39.7823   32.7709 C   0  0  0  0  0  0
   11.9312   39.1112   31.6128 C   0  0  0  0  0  0
   13.0855   38.3728   31.8805 C   0  0  0  0  0  0
   13.8552   37.8622   30.8429 C   0  0  0  0  0  0
   13.5000   38.0780   29.5003 C   0  0  0  0  0  0
   12.2936   38.7533   29.2497 C   0  0  0  0  0  0
   11.5332   39.2777   30.2852 C   0  0  0  0  0  0
   14.4205   37.6766   28.4054 C   0  0  0  0  0  0
   15.5880   37.2792   28.6607 N   0  0  0  0  0  0
   13.8738   37.6789   27.1463 N   0  0  0  0  0  0
    8.1827   42.4317   31.6822 N   0  0  0  0  0  0
    7.2214   42.8332   30.8235 C   0  0  0  0  0  0
    6.1534   41.7736   30.4255 C   0  0  1  0  0  0
    7.1670   43.9582   30.3294 O   0  0  0  0  0  0
    6.6354   40.8437   29.2632 C   0  0  0  0  0  0
    5.6839   41.0408   31.6402 N   0  0  2  0  0  0
    4.3691   41.4917   32.0960 C   0  0  0  0  0  0
    4.0505   40.7822   33.4138 C   0  0  0  0  0  0
    3.2694   39.6793   33.2448 O   0  0  0  0  0  0
    4.4996   41.1496   34.4952 O   0  0  0  0  0  0
    7.7995   39.9019   29.6559 C   0  0  0  0  0  0
    8.3062   39.0907   28.4440 C   0  0  0  0  0  0
    7.1635   38.2676   27.8108 C   0  0  0  0  0  0
    5.9097   39.1282   27.5193 C   0  0  0  0  0  0
    5.4845   39.9304   28.7690 C   0  0  0  0  0  0
   11.1992   43.4738   31.0540 H   0  0  0  0  0  0
    9.7426   43.7742   30.1424 H   0  0  0  0  0  0
    7.7881   44.4273   33.2025 H   0  0  0  0  0  0
    9.1439   44.1077   34.2665 H   0  0  0  0  0  0
    8.9232   47.0525   34.1623 H   0  0  0  0  0  0
   10.0500   48.9091   33.0130 H   0  0  0  0  0  0
   11.2771   48.5079   30.9045 H   0  0  0  0  0  0
   11.4267   46.2279   29.9660 H   0  0  0  0  0  0
    9.7509   40.7211   31.5623 H   0  0  0  0  0  0
   11.9283   40.1151   33.5067 H   0  0  0  0  0  0
   10.5849   39.0329   33.2809 H   0  0  0  0  0  0
   13.4319   38.2420   32.8948 H   0  0  0  0  0  0
   14.7694   37.3432   31.0954 H   0  0  0  0  0  0
   11.9732   38.9716   28.2422 H   0  0  0  0  0  0
   10.6648   39.8563   30.0277 H   0  0  0  0  0  0
   16.0413   36.9524   27.8184 H   0  0  0  0  0  0
   14.3546   37.2063   26.3813 H   0  0  0  0  0  0
   12.9234   37.9837   26.9857 H   0  0  0  0  0  0
    8.0556   41.5242   32.0999 H   0  0  0  0  0  0
    5.3380   42.3582   29.9901 H   0  0  0  0  0  0
    6.9385   41.4873   28.4332 H   0  0  0  0  0  0
    6.3051   41.2674   32.4060 H   0  0  0  0  0  0
    4.3718   42.5696   32.2734 H   0  0  0  0  0  0
    3.5932   41.2908   31.3545 H   0  0  0  0  0  0
    3.0947   39.2853   34.1030 H   0  0  0  0  0  0
    7.5311   39.2789   30.5061 H   0  0  0  0  0  0
    8.6222   40.4995   30.0338 H   0  0  0  0  0  0
    9.1156   38.4230   28.7438 H   0  0  0  0  0  0
    8.7305   39.7658   27.6984 H   0  0  0  0  0  0
    6.8926   37.4612   28.4952 H   0  0  0  0  0  0
    7.5149   37.7805   26.8980 H   0  0  0  0  0  0
    5.0932   38.4881   27.1832 H   0  0  0  0  0  0
    6.1197   39.8115   26.6950 H   0  0  0  0  0  0
    4.6140   40.5427   28.5294 H   0  0  0  0  0  0
    5.1296   39.2828   29.5708 H   0  0  0  0  0  0
  1  4  1  0  0  0
  1  2  1  0  0  0
  1 38  1  0  0  0
  1 39  1  0  0  0
  2 10  1  0  0  0
  2 23  1  0  0  0
  2  3  1  0  0  0
  3  5  1  0  0  0
  3 40  1  0  0  0
  3 41  1  0  0  0
  4  9  1  0  0  0
  4  5  2  0  0  0
  5  6  1  0  0  0
  6  7  2  0  0  0
  6 42  1  0  0  0
  7  8  1  0  0  0
  7 43  1  0  0  0
  8  9  2  0  0  0
  8 44  1  0  0  0
  9 45  1  0  0  0
 10 11  2  0  0  0
 10 12  1  0  0  0
 12 13  1  0  0  0
 12 46  1  0  0  0
 13 14  1  0  0  0
 13 47  1  0  0  0
 13 48  1  0  0  0
 14 19  2  0  0  0
 14 15  1  0  0  0
 15 16  2  0  0  0
 15 49  1  0  0  0
 16 17  1  0  0  0
 16 50  1  0  0  0
 17 18  2  0  0  0
 17 20  1  0  0  0
 18 19  1  0  0  0
 18 51  1  0  0  0
 19 52  1  0  0  0
 20 21  2  0  0  0
 20 22  1  0  0  0
 21 53  1  0  0  0
 22 54  1  0  0  0
 22 55  1  0  0  0
 23 24  1  0  0  0
 23 56  1  0  0  0
 24 25  1  0  0  0
 24 26  2  0  0  0
 25 27  1  0  0  0
 25 28  1  0  0  0
 25 57  1  0  0  0
 27 33  1  0  0  0
 27 37  1  0  0  0
 27 58  1  0  0  0
 28 29  1  0  0  0
 28 59  1  0  0  0
 29 30  1  0  0  0
 29 60  1  0  0  0
 29 61  1  0  0  0
 30 31  1  0  0  0
 30 32  2  0  0  0
 31 62  1  0  0  0
 33 34  1  0  0  0
 33 63  1  0  0  0
 33 64  1  0  0  0
 34 35  1  0  0  0
 34 65  1  0  0  0
 34 66  1  0  0  0
 35 36  1  0  0  0
 35 67  1  0  0  0
 35 68  1  0  0  0
 36 37  1  0  0  0
 36 69  1  0  0  0
 36 70  1  0  0  0
 37 71  1  0  0  0
 37 72  1  0  0  0
M  END
> <s_m_entry_id>
20663

> <s_m_entry_name>
dock_pv.46

> <s_m_Source_Path>
/home/csk/Desktop/cluster/DUD-E-result/fa7

> <s_m_Source_File>
dock_pv.maegz

> <i_m_Source_File_Index>
46

> <chembl_id>
CHEMBL215295

> <chembl_pref_name>
None

> <i_lp_mmshare_version>
53161

> <r_lp_tautomer_probability>
1

> <s_lp_Force_Field>
OPLS_2005

> <r_lp_Energy>
26.197554

> <b_lp_Chiralities_Consistent>
1

> <s_lp_Variant>
CHEMBL3991_lig118-1

> <s_i_glide_gridfile>
glide-grid_1w7x

> <i_i_glide_lignum>
111

> <i_i_glide_rotatable_bonds>
13

> <r_i_docking_score>
-7.08712102551126

> <r_i_glide_ligand_efficiency>
-0.191543811500304

> <r_i_glide_ligand_efficiency_sa>
-0.638266473460625

> <r_i_glide_ligand_efficiency_ln>
-1.53703040474364

> <r_i_glide_gscore>
-7.08712102551126

> <r_i_glide_lipo>
-2.17522270078552

> <r_i_glide_hbond>
-0.456

> <r_i_glide_metal>
0

> <r_i_glide_rewards>
-0.459209637645008

> <r_i_glide_evdw>
-39.5726280212402

> <r_i_glide_ecoul>
-18.20241355896

> <r_i_glide_erotb>
0.800128238952693

> <r_i_glide_esite>
-0.0878234911274242

> <r_i_glide_emodel>
-65.316303801423

> <r_i_glide_energy>
-57.7750415802002

> <r_i_glide_einternal>
28.0729274749756

> <i_i_glide_confnum>
42

> <i_i_glide_posenum>
177

> <r_i_glide_eff_state_penalty>
0

> <s_user_duplicate_titles>
CHEMBL3991_lig118

> <i_f3d_flags>
0

> <s_m_subgroup_title>
dock_pv

> <s_m_subgroupid>
dock_pv

> <b_m_subgroup_collapsed>
1

$$$$
CHEMBL3991_lig311
                    3D
 Schrodinger Suite 2021-1.
 88 90  0  0  1  0            999 V2000
    8.0067   47.9900   25.3000 O   0  0  0  0  0  0
    8.3384   47.2413   26.5160 S   0  0  0  0  0  0
    7.3093   46.8290   27.4766 O   0  0  0  0  0  0
    4.5908   45.0013   34.4545 C   0  0  2  0  0  0
    5.2374   45.6165   33.1932 C   0  0  2  0  0  0
    6.5755   44.9310   32.8671 C   0  0  0  0  0  0
    5.5543   45.0328   35.6570 C   0  0  0  0  0  0
    7.0085   44.5518   35.4117 C   0  0  2  0  0  0
    7.5997   44.9332   34.0367 C   0  0  1  0  0  0
    8.7070   43.9828   33.8318 N   0  0  0  0  0  0
    8.5340   42.7906   34.7016 C   0  0  1  0  0  0
    7.2121   43.0400   35.4572 C   0  0  0  0  0  0
    4.1290   43.6782   34.2328 O   0  0  0  0  0  0
    5.4093   47.0121   33.3612 O   0  0  0  0  0  0
    8.5709   41.4140   33.9938 C   0  0  0  0  0  0
    9.7935   40.8676   33.8886 N   0  0  0  0  0  0
    7.5684   40.9350   33.4596 O   0  0  0  0  0  0
   10.1323   39.6994   33.0922 C   0  0  0  0  0  0
   11.5894   39.7523   32.5819 C   0  0  0  0  0  0
   11.8067   39.1850   31.1902 C   0  0  0  0  0  0
   12.9453   38.2377   30.8670 C   0  0  0  0  0  0
   12.9964   38.1122   29.3966 N   0  3  0  0  0  0
   11.7081   38.6393   28.9212 C   0  0  0  0  0  0
   11.1051   39.3903   30.0714 C   0  0  0  0  0  0
   14.0227   37.6916   28.6234 C   0  0  0  0  0  0
   13.9313   37.6790   27.2981 N   0  0  0  0  0  0
   15.1781   37.2790   29.1311 N   0  0  0  0  0  0
    9.7048   44.1688   32.9173 C   0  0  0  0  0  0
   10.1327   45.6131   32.5752 C   0  0  1  0  0  0
   10.3883   43.2613   32.4424 O   0  0  0  0  0  0
   11.5309   45.9344   33.1731 C   0  0  0  0  0  0
   11.7224   45.8541   34.7165 C   0  0  0  0  0  0
   12.1200   44.4642   35.2559 C   0  0  0  0  0  0
   10.5829   46.4712   35.5373 C   0  0  0  0  0  0
   10.0283   45.8832   31.1253 N   0  0  0  0  0  0
   10.9702   45.9009   30.1573 C   0  0  0  0  0  0
   12.1638   45.6790   30.3533 O   0  0  0  0  0  0
   10.4681   46.2412   28.7306 C   0  0  2  0  0  0
   11.5315   46.1792   27.7677 O   0  0  0  0  0  0
    9.8956   47.6788   28.6499 C   0  0  0  0  0  0
    9.5311   48.0817   27.3320 O   0  0  0  0  0  0
    9.1886   45.8968   26.0574 O   0  0  0  0  0  0
   11.9310   44.8782   27.3548 C   0  0  0  0  0  0
    7.6181   45.0380   36.1756 H   0  0  0  0  0  0
    7.8190   45.9992   34.0967 H   0  0  0  0  0  0
    3.6992   45.5735   34.7202 H   0  0  0  0  0  0
    4.5416   45.5050   32.3595 H   0  0  0  0  0  0
    7.0173   45.3933   31.9836 H   0  0  0  0  0  0
    6.3586   43.8971   32.5872 H   0  0  0  0  0  0
    5.1315   44.4942   36.4969 H   0  0  0  0  0  0
    5.5995   46.0650   36.0080 H   0  0  0  0  0  0
    9.3566   42.7641   35.4156 H   0  0  0  0  0  0
    7.2561   42.6500   36.4746 H   0  0  0  0  0  0
    6.3652   42.5524   34.9727 H   0  0  0  0  0  0
    3.7456   43.6328   33.3515 H   0  0  0  0  0  0
    5.9766   47.3485   32.6638 H   0  0  0  0  0  0
   10.5765   41.4167   34.2121 H   0  0  0  0  0  0
    9.9535   38.8046   33.6890 H   0  0  0  0  0  0
    9.4509   39.6787   32.2385 H   0  0  0  0  0  0
   11.9294   40.7876   32.5239 H   0  0  0  0  0  0
   12.2633   39.2791   33.2954 H   0  0  0  0  0  0
   13.9010   38.6304   31.2157 H   0  0  0  0  0  0
   12.8036   37.2482   31.3023 H   0  0  0  0  0  0
   11.0844   37.8222   28.5569 H   0  0  0  0  0  0
   11.9142   39.3224   28.0972 H   0  0  0  0  0  0
   10.2244   40.0075   29.9604 H   0  0  0  0  0  0
   13.0724   37.9905   26.8615 H   0  0  0  0  0  0
   14.6125   37.1837   26.7280 H   0  0  0  0  0  0
   15.3557   37.3494   30.1205 H   0  0  0  0  0  0
   15.8908   36.9328   28.5035 H   0  0  0  0  0  0
    9.4535   46.3461   32.9968 H   0  0  0  0  0  0
   12.2691   45.2761   32.7155 H   0  0  0  0  0  0
   11.7736   46.9509   32.8686 H   0  0  0  0  0  0
   12.5982   46.4780   34.8974 H   0  0  0  0  0  0
   11.2615   43.9230   35.6538 H   0  0  0  0  0  0
   12.5765   43.8366   34.4892 H   0  0  0  0  0  0
   12.8358   44.5602   36.0793 H   0  0  0  0  0  0
    9.8355   45.7291   35.8148 H   0  0  0  0  0  0
   10.9766   46.8789   36.4675 H   0  0  0  0  0  0
   10.0769   47.2694   34.9963 H   0  0  0  0  0  0
    9.0812   46.0583   30.8277 H   0  0  0  0  0  0
    9.6794   45.5284   28.4830 H   0  0  0  0  0  0
   10.6397   48.3928   29.0045 H   0  0  0  0  0  0
    9.0286   47.7982   29.3017 H   0  0  0  0  0  0
   12.7131   44.9580   26.6003 H   0  0  0  0  0  0
   12.3290   44.2867   28.1795 H   0  0  0  0  0  0
   11.0985   44.3301   26.9129 H   0  0  0  0  0  0
    9.5299   46.0057   25.1419 H   0  0  0  0  0  0
  1  2  2  0  0  0
  2  3  2  0  0  0
  2 41  1  0  0  0
  2 42  1  0  0  0
  4 13  1  0  0  0
  4  5  1  0  0  0
  4  7  1  0  0  0
  4 46  1  0  0  0
  5  6  1  0  0  0
  5 14  1  0  0  0
  5 47  1  0  0  0
  6  9  1  0  0  0
  6 48  1  0  0  0
  6 49  1  0  0  0
  7  8  1  0  0  0
  7 50  1  0  0  0
  7 51  1  0  0  0
  8 12  1  0  0  0
  8  9  1  0  0  0
  8 44  1  0  0  0
  9 10  1  0  0  0
  9 45  1  0  0  0
 10 28  1  0  0  0
 10 11  1  0  0  0
 11 12  1  0  0  0
 11 15  1  0  0  0
 11 52  1  0  0  0
 12 53  1  0  0  0
 12 54  1  0  0  0
 13 55  1  0  0  0
 14 56  1  0  0  0
 15 16  1  0  0  0
 15 17  2  0  0  0
 16 18  1  0  0  0
 16 57  1  0  0  0
 18 19  1  0  0  0
 18 58  1  0  0  0
 18 59  1  0  0  0
 19 20  1  0  0  0
 19 60  1  0  0  0
 19 61  1  0  0  0
 20 24  2  0  0  0
 20 21  1  0  0  0
 21 22  1  0  0  0
 21 62  1  0  0  0
 21 63  1  0  0  0
 22 23  1  0  0  0
 22 25  2  0  0  0
 23 24  1  0  0  0
 23 64  1  0  0  0
 23 65  1  0  0  0
 24 66  1  0  0  0
 25 26  1  0  0  0
 25 27  1  0  0  0
 26 67  1  0  0  0
 26 68  1  0  0  0
 27 69  1  0  0  0
 27 70  1  0  0  0
 28 29  1  0  0  0
 28 30  2  0  0  0
 29 31  1  0  0  0
 29 35  1  0  0  0
 29 71  1  0  0  0
 31 32  1  0  0  0
 31 72  1  0  0  0
 31 73  1  0  0  0
 32 33  1  0  0  0
 32 34  1  0  0  0
 32 74  1  0  0  0
 33 75  1  0  0  0
 33 76  1  0  0  0
 33 77  1  0  0  0
 34 78  1  0  0  0
 34 79  1  0  0  0
 34 80  1  0  0  0
 35 36  1  0  0  0
 35 81  1  0  0  0
 36 37  2  0  0  0
 36 38  1  0  0  0
 38 39  1  0  0  0
 38 40  1  0  0  0
 38 82  1  0  0  0
 39 43  1  0  0  0
 40 41  1  0  0  0
 40 83  1  0  0  0
 40 84  1  0  0  0
 42 88  1  0  0  0
 43 85  1  0  0  0
 43 86  1  0  0  0
 43 87  1  0  0  0
M  CHG  1  22   1
M  END
> <s_m_entry_id>
20664

> <s_m_entry_name>
dock_pv.47

> <s_m_Source_Path>
/home/csk/Desktop/cluster/DUD-E-result/fa7

> <s_m_Source_File>
dock_pv.maegz

> <i_m_Source_File_Index>
47

> <chembl_id>
CHEMBL502639

> <chembl_pref_name>
DYSINOSIN A

> <i_lp_mmshare_version>
53161

> <r_lp_tautomer_probability>
1

> <s_lp_Force_Field>
OPLS_2005

> <r_lp_Energy>
38.257762

> <b_lp_Chiralities_Consistent>
1

> <s_lp_Variant>
CHEMBL3991_lig311-1

> <s_i_glide_gridfile>
glide-grid_1w7x

> <i_i_glide_lignum>
389

> <i_i_glide_rotatable_bonds>
19

> <r_i_docking_score>
-7.08040259119093

> <r_i_glide_ligand_efficiency>
-0.164660525376533

> <r_i_glide_ligand_efficiency_sa>
-0.576871364503163

> <r_i_glide_ligand_efficiency_ln>
-1.48710459950065

> <r_i_glide_gscore>
-7.08040259119093

> <r_i_glide_lipo>
-2.26766489000874

> <r_i_glide_hbond>
-0.383168317440112

> <r_i_glide_metal>
0

> <r_i_glide_rewards>
-0.57198957030158

> <r_i_glide_evdw>
-42.1287536621094

> <r_i_glide_ecoul>
-15.2536125183105

> <r_i_glide_erotb>
0.596715665565484

> <r_i_glide_esite>
-0.0598159181539313

> <r_i_glide_emodel>
-69.9719832748996

> <r_i_glide_energy>
-57.3823661804199

> <r_i_glide_einternal>
24.4571971893311

> <i_i_glide_confnum>
17

> <i_i_glide_posenum>
334

> <r_i_glide_eff_state_penalty>
0

> <s_user_duplicate_titles>
CHEMBL3991_lig311

> <i_f3d_flags>
0

> <s_m_subgroup_title>
dock_pv

> <s_m_subgroupid>
dock_pv

> <b_m_subgroup_collapsed>
1

$$$$
CHEMBL3991_lig400
                    3D
 Schrodinger Suite 2021-1.
 79 84  0  0  1  0            999 V2000
   11.1284   47.3220   32.1325 C   0  0  0  0  0  0
   11.2518   46.3922   33.3638 C   0  0  1  0  0  0
   10.2991   46.8715   34.4824 C   0  0  0  0  0  0
    8.9145   46.5739   34.2659 O   0  0  0  0  0  0
    8.3612   45.4412   34.7418 C   0  0  0  0  0  0
    8.9263   44.6480   35.4978 O   0  0  0  0  0  0
    7.0913   45.3006   34.1959 N   0  0  0  0  0  0
    6.3000   44.1427   34.2087 C   0  0  0  0  0  0
    4.9115   44.2595   34.1358 C   0  0  0  0  0  0
    4.1069   43.1179   34.0919 C   0  0  0  0  0  0
    4.6763   41.8336   34.0979 C   0  0  0  0  0  0
    6.0744   41.7153   34.1147 C   0  0  0  0  0  0
    6.7690   40.3745   33.9399 C   0  0  0  0  0  0
    7.8355   40.3970   32.9412 N   0  0  0  0  0  0
    7.3499   40.5993   31.5696 C   0  0  0  0  0  0
    9.1381   40.3913   33.3300 C   0  0  0  0  0  0
    9.4886   40.1778   34.4975 O   0  0  0  0  0  0
   10.2254   40.7353   32.2924 C   0  0  2  0  0  0
   11.2545   39.7180   32.3962 N   0  0  0  0  0  0
   11.8422   39.0206   31.3436 C   0  0  0  0  0  0
   11.2022   38.8890   30.1133 C   0  0  0  0  0  0
   11.8672   38.3571   29.0307 C   0  0  0  0  0  0
   13.2264   38.0188   29.1314 C   0  0  0  0  0  0
   14.0399   37.6775   28.0302 C   0  0  0  0  0  0
   13.5318   37.6788   26.7436 N   0  0  0  0  0  0
   15.3293   37.2847   28.1349 N   0  0  0  0  0  0
   15.8885   37.2790   29.3631 C   0  0  0  0  0  0
   15.1970   37.6729   30.5057 C   0  0  0  0  0  0
   15.8052   37.7099   31.6959 F   0  0  0  0  0  0
   13.8437   38.0336   30.4123 C   0  0  0  0  0  0
   13.1047   38.4785   31.5323 C   0  0  0  0  0  0
   10.6721   42.1622   32.4917 C   0  0  0  0  0  0
   10.1163   43.1544   31.6791 C   0  0  0  0  0  0
   10.3499   44.4951   31.9455 C   0  0  0  0  0  0
   11.1299   44.8928   33.0397 C   0  0  0  0  0  0
   11.7327   43.8960   33.8404 C   0  0  0  0  0  0
   12.5676   44.2228   35.0720 C   0  0  0  0  0  0
   11.5216   42.5443   33.5369 C   0  0  0  0  0  0
    6.8672   42.8652   34.1973 C   0  0  0  0  0  0
    3.5795   40.3916   34.0946 S   0  0  0  0  0  0
    2.2455   40.9053   34.4193 O   0  0  0  0  0  0
    3.7975   39.6796   32.8307 O   0  0  0  0  0  0
    4.0897   39.2513   35.5393 C   0  0  0  0  0  0
    3.5295   37.8471   35.4831 C   0  0  0  0  0  0
    5.0196   38.0710   35.3096 C   0  0  0  0  0  0
   11.7542   46.9791   31.3078 H   0  0  0  0  0  0
   10.1011   47.3939   31.7723 H   0  0  0  0  0  0
   11.4526   48.3347   32.3732 H   0  0  0  0  0  0
   12.2554   46.5568   33.7407 H   0  0  0  0  0  0
   10.3917   47.9521   34.4972 H   0  0  0  0  0  0
   10.6287   46.5145   35.4587 H   0  0  0  0  0  0
    6.7171   46.1084   33.7222 H   0  0  0  0  0  0
    4.4499   45.2384   34.1169 H   0  0  0  0  0  0
    3.0347   43.2434   34.0335 H   0  0  0  0  0  0
    6.0538   39.6543   33.5770 H   0  0  0  0  0  0
    7.1088   40.0133   34.9145 H   0  0  0  0  0  0
    7.9569   40.0826   30.8264 H   0  0  0  0  0  0
    6.3387   40.2090   31.4446 H   0  0  0  0  0  0
    7.3221   41.6601   31.3236 H   0  0  0  0  0  0
    9.8277   40.6930   31.2869 H   0  0  0  0  0  0
   11.6798   39.5958   33.3052 H   0  0  0  0  0  0
   10.1843   39.2035   29.9601 H   0  0  0  0  0  0
   11.3574   38.2507   28.0974 H   0  0  0  0  0  0
   12.5800   38.0050   26.5575 H   0  0  0  0  0  0
   14.0796   37.2065   26.0181 H   0  0  0  0  0  0
   16.9316   36.9928   29.4126 H   0  0  0  0  0  0
   13.5855   38.5289   32.4991 H   0  0  0  0  0  0
    9.4541   42.8938   30.8670 H   0  0  0  0  0  0
    9.8604   45.2195   31.3130 H   0  0  0  0  0  0
   13.2776   45.0272   34.8956 H   0  0  0  0  0  0
   11.9191   44.5272   35.8935 H   0  0  0  0  0  0
   13.1621   43.3640   35.3853 H   0  0  0  0  0  0
   11.9613   41.7789   34.1599 H   0  0  0  0  0  0
    7.9432   42.7628   34.1992 H   0  0  0  0  0  0
    4.0554   39.7610   36.4997 H   0  0  0  0  0  0
    3.1632   37.3921   36.4070 H   0  0  0  0  0  0
    2.9404   37.5490   34.6133 H   0  0  0  0  0  0
    5.4452   37.8511   34.3285 H   0  0  0  0  0  0
    5.6959   37.7957   36.1191 H   0  0  0  0  0  0
  1  2  1  0  0  0
  1 46  1  0  0  0
  1 47  1  0  0  0
  1 48  1  0  0  0
  2  3  1  0  0  0
  2 35  1  0  0  0
  2 49  1  0  0  0
  3  4  1  0  0  0
  3 50  1  0  0  0
  3 51  1  0  0  0
  4  5  1  0  0  0
  5  6  2  0  0  0
  5  7  1  0  0  0
  7  8  1  0  0  0
  7 52  1  0  0  0
  8  9  2  0  0  0
  8 39  1  0  0  0
  9 10  1  0  0  0
  9 53  1  0  0  0
 10 11  2  0  0  0
 10 54  1  0  0  0
 11 12  1  0  0  0
 11 40  1  0  0  0
 12 13  1  0  0  0
 12 39  2  0  0  0
 13 14  1  0  0  0
 13 55  1  0  0  0
 13 56  1  0  0  0
 14 15  1  0  0  0
 14 16  1  0  0  0
 15 57  1  0  0  0
 15 58  1  0  0  0
 15 59  1  0  0  0
 16 17  2  0  0  0
 16 18  1  0  0  0
 18 19  1  0  0  0
 18 32  1  0  0  0
 18 60  1  0  0  0
 19 20  1  0  0  0
 19 61  1  0  0  0
 20 21  2  0  0  0
 20 31  1  0  0  0
 21 22  1  0  0  0
 21 62  1  0  0  0
 22 23  2  0  0  0
 22 63  1  0  0  0
 23 24  1  0  0  0
 23 30  1  0  0  0
 24 25  1  0  0  0
 24 26  2  0  0  0
 25 64  1  0  0  0
 25 65  1  0  0  0
 26 27  1  0  0  0
 27 28  2  0  0  0
 27 66  1  0  0  0
 28 29  1  0  0  0
 28 30  1  0  0  0
 30 31  2  0  0  0
 31 67  1  0  0  0
 32 33  2  0  0  0
 32 38  1  0  0  0
 33 34  1  0  0  0
 33 68  1  0  0  0
 34 35  2  0  0  0
 34 69  1  0  0  0
 35 36  1  0  0  0
 36 37  1  0  0  0
 36 38  2  0  0  0
 37 70  1  0  0  0
 37 71  1  0  0  0
 37 72  1  0  0  0
 38 73  1  0  0  0
 39 74  1  0  0  0
 40 41  2  0  0  0
 40 42  2  0  0  0
 40 43  1  0  0  0
 43 44  1  0  0  0
 43 45  1  0  0  0
 43 75  1  0  0  0
 44 45  1  0  0  0
 44 76  1  0  0  0
 44 77  1  0  0  0
 45 78  1  0  0  0
 45 79  1  0  0  0
M  END
> <s_m_entry_id>
20665

> <s_m_entry_name>
dock_pv.48

> <s_m_Source_Path>
/home/csk/Desktop/cluster/DUD-E-result/fa7

> <s_m_Source_File>
dock_pv.maegz

> <i_m_Source_File_Index>
48

> <chembl_id>
CHEMBL3902498

> <chembl_pref_name>
None

> <i_lp_mmshare_version>
53161

> <r_lp_tautomer_probability>
1

> <s_lp_Force_Field>
OPLS_2005

> <r_lp_Energy>
39.068157

> <b_lp_Chiralities_Consistent>
1

> <s_lp_Variant>
CHEMBL3991_lig400-1

> <s_i_glide_gridfile>
glide-grid_1w7x

> <i_i_glide_lignum>
544

> <i_i_glide_rotatable_bonds>
4

> <r_i_docking_score>
-7.07679482325165

> <r_i_glide_ligand_efficiency>
-0.15726210718337

> <r_i_glide_ligand_efficiency_sa>
-0.559364535380757

> <r_i_glide_ligand_efficiency_ln>
-1.47228869060657

> <r_i_glide_gscore>
-7.07679482325165

> <r_i_glide_lipo>
-3.76961525758467

> <r_i_glide_hbond>
-0.459016289116162

> <r_i_glide_metal>
0

> <r_i_glide_rewards>
-0.260421802980744

> <r_i_glide_evdw>
-25.4886741638184

> <r_i_glide_ecoul>
-8.28838157653809

> <r_i_glide_erotb>
0.0723828377669887

> <r_i_glide_esite>
-0.142433366665438

> <r_i_glide_emodel>
-39.0161197371105

> <r_i_glide_energy>
-33.7770557403564

> <r_i_glide_einternal>
13.7295742034912

> <i_i_glide_confnum>
1

> <i_i_glide_posenum>
8

> <r_i_glide_eff_state_penalty>
0

> <s_user_duplicate_titles>
CHEMBL3991_lig400

> <i_f3d_flags>
0

> <s_m_subgroup_title>
dock_pv

> <s_m_subgroupid>
dock_pv

> <b_m_subgroup_collapsed>
1

$$$$
CHEMBL3991_lig230
                    3D
 Schrodinger Suite 2021-1.
 52 55  0  0  1  0            999 V2000
    7.3702   41.1179   37.2933 C   0  0  0  0  0  0
    7.7114   42.4795   37.1489 C   0  0  0  0  0  0
    8.2471   43.0213   35.9729 C   0  0  0  0  0  0
    7.6101   40.2501   36.2165 C   0  0  0  0  0  0
    8.1666   40.7560   35.0399 C   0  0  0  0  0  0
    8.4687   42.1305   34.9206 C   0  0  0  0  0  0
    8.9874   42.2438   33.6459 N   0  0  0  0  0  0
    9.0054   40.9754   33.1081 C   0  0  0  0  0  0
    8.5018   40.0785   33.9105 N   0  0  0  0  0  0
    9.5351   40.5937   31.7734 C   0  0  0  0  0  0
   10.7538   39.9037   31.6350 C   0  0  0  0  0  0
   11.1415   39.3578   30.3867 C   0  0  0  0  0  0
   10.2726   39.5754   29.3101 C   0  0  0  0  0  0
    9.1045   40.3230   29.4145 C   0  0  0  0  0  0
    8.7324   40.8277   30.6599 C   0  0  0  0  0  0
    8.2526   40.5293   28.1567 C   0  0  2  0  0  0
    7.9760   42.0105   27.9116 C   0  0  0  0  0  0
    6.9303   39.7336   28.1421 C   0  0  0  0  0  0
    7.1855   38.2591   27.8570 C   0  0  0  0  0  0
    6.0837   37.6939   27.2970 O   0  0  0  0  0  0
    8.2274   37.6440   28.0716 O   0  0  0  0  0  0
    9.1309   42.6818   27.6167 O   0  0  0  0  0  0
    6.8715   42.5474   27.9688 O   0  0  0  0  0  0
   11.5355   39.7843   32.7558 O   0  0  0  0  0  0
    6.7313   40.5797   38.5220 C   0  0  0  0  0  0
    5.8756   39.6588   38.4425 N   0  0  0  0  0  0
    7.1310   41.1850   39.6848 N   0  0  0  0  0  0
   12.4060   38.5720   30.1267 C   0  0  0  0  0  0
   12.9415   38.4788   28.8270 C   0  0  0  0  0  0
   14.1335   37.8088   28.5660 C   0  0  0  0  0  0
   14.8212   37.2709   29.6413 C   0  0  0  0  0  0
   14.3246   37.2810   30.8974 N   0  0  0  0  0  0
   13.1372   37.9005   31.1206 C   0  0  0  0  0  0
    7.5366   43.1607   37.9708 H   0  0  0  0  0  0
    8.4894   44.0722   35.8990 H   0  0  0  0  0  0
    7.3763   39.1970   36.2902 H   0  0  0  0  0  0
    9.3466   43.0589   33.1704 H   0  0  0  0  0  0
   10.4828   39.1444   28.3479 H   0  0  0  0  0  0
    7.7978   41.3598   30.7690 H   0  0  0  0  0  0
    8.8468   40.2157   27.2969 H   0  0  0  0  0  0
    6.4086   39.8380   29.0957 H   0  0  0  0  0  0
    6.2760   40.1065   27.3461 H   0  0  0  0  0  0
    6.3312   36.9383   26.7343 H   0  0  0  0  0  0
    9.9464   42.1678   27.6971 H   0  0  0  0  0  0
   12.4672   39.6346   32.5706 H   0  0  0  0  0  0
    5.5314   39.3811   39.3497 H   0  0  0  0  0  0
    6.7886   40.8345   40.5651 H   0  0  0  0  0  0
    8.0195   41.6790   39.6953 H   0  0  0  0  0  0
   12.4802   38.9723   27.9902 H   0  0  0  0  0  0
   14.5387   37.7579   27.5649 H   0  0  0  0  0  0
   15.7791   36.7979   29.4910 H   0  0  0  0  0  0
   12.7954   37.8279   32.1394 H   0  0  0  0  0  0
  1  4  2  0  0  0
  1 25  1  0  0  0
  1  2  1  0  0  0
  2  3  2  0  0  0
  2 34  1  0  0  0
  3  6  1  0  0  0
  3 35  1  0  0  0
  4  5  1  0  0  0
  4 36  1  0  0  0
  5  9  1  0  0  0
  5  6  2  0  0  0
  6  7  1  0  0  0
  7  8  1  0  0  0
  7 37  1  0  0  0
  8  9  2  0  0  0
  8 10  1  0  0  0
 10 11  2  0  0  0
 10 15  1  0  0  0
 11 24  1  0  0  0
 11 12  1  0  0  0
 12 13  2  0  0  0
 12 28  1  0  0  0
 13 14  1  0  0  0
 13 38  1  0  0  0
 14 16  1  0  0  0
 14 15  2  0  0  0
 15 39  1  0  0  0
 16 17  1  0  0  0
 16 18  1  0  0  0
 16 40  1  0  0  0
 17 22  1  0  0  0
 17 23  2  0  0  0
 18 19  1  0  0  0
 18 41  1  0  0  0
 18 42  1  0  0  0
 19 20  1  0  0  0
 19 21  2  0  0  0
 20 43  1  0  0  0
 22 44  1  0  0  0
 24 45  1  0  0  0
 25 26  2  0  0  0
 25 27  1  0  0  0
 26 46  1  0  0  0
 27 47  1  0  0  0
 27 48  1  0  0  0
 28 29  1  0  0  0
 28 33  2  0  0  0
 29 30  2  0  0  0
 29 49  1  0  0  0
 30 31  1  0  0  0
 30 50  1  0  0  0
 31 32  2  0  0  0
 31 51  1  0  0  0
 32 33  1  0  0  0
 33 52  1  0  0  0
M  END
> <s_m_entry_id>
20666

> <s_m_entry_name>
dock_pv.49

> <s_m_Source_Path>
/home/csk/Desktop/cluster/DUD-E-result/fa7

> <s_m_Source_File>
dock_pv.maegz

> <i_m_Source_File_Index>
49

> <chembl_id>
CHEMBL204228

> <chembl_pref_name>
None

> <i_lp_mmshare_version>
53161

> <r_lp_tautomer_probability>
0.999999999997365

> <s_lp_Force_Field>
OPLS_2005

> <r_lp_Energy>
21.10512

> <b_lp_Chiralities_Consistent>
1

> <s_lp_Variant>
CHEMBL3991_lig230-1

> <s_i_glide_gridfile>
glide-grid_1w7x

> <i_i_glide_lignum>
268

> <i_i_glide_rotatable_bonds>
10

> <r_i_docking_score>
-7.03752050599852

> <r_i_glide_ligand_efficiency>
-0.21325819715147

> <r_i_glide_ligand_efficiency_sa>
-0.684032987719117

> <r_i_glide_ligand_efficiency_ln>
-1.56510812220303

> <r_i_glide_gscore>
-7.03752050599852

> <r_i_glide_lipo>
-2.09584426904318

> <r_i_glide_hbond>
-0.350736416760495

> <r_i_glide_metal>
0

> <r_i_glide_rewards>
-0.489681105782634

> <r_i_glide_evdw>
-44.1943588256836

> <r_i_glide_ecoul>
-15.9614067077637

> <r_i_glide_erotb>
0.605066834308393

> <r_i_glide_esite>
-0.102396601271876

> <r_i_glide_emodel>
-74.4584605799562

> <r_i_glide_energy>
-60.1557655334473

> <r_i_glide_einternal>
16.7086048126221

> <i_i_glide_confnum>
4

> <i_i_glide_posenum>
378

> <r_i_glide_eff_state_penalty>
0

> <s_user_duplicate_titles>
CHEMBL3991_lig230,342502

> <i_f3d_flags>
0

> <s_m_subgroup_title>
dock_pv

> <s_m_subgroupid>
dock_pv

> <b_m_subgroup_collapsed>
1

$$$$
CHEMBL3991_lig350
                    3D
 Schrodinger Suite 2021-1.
 76 79  0  0  1  0            999 V2000
    8.0019   40.0695   35.3688 C   0  0  0  0  0  0
    8.9996   39.8751   34.4045 C   0  0  0  0  0  0
    9.6403   40.9621   33.7931 C   0  0  0  0  0  0
    9.3211   42.2577   34.2173 C   0  0  0  0  0  0
    8.3421   42.4746   35.1862 C   0  0  0  0  0  0
    7.6610   41.3722   35.7245 C   0  0  0  0  0  0
   10.6420   40.8000   32.6413 C   0  0  1  0  0  0
   11.1960   39.4369   32.5514 N   0  0  0  0  0  0
   11.9311   38.9598   31.4536 C   0  0  0  0  0  0
   11.5145   39.0957   30.1316 C   0  0  0  0  0  0
   12.3308   38.6741   29.0973 C   0  0  0  0  0  0
   13.5710   38.0695   29.3434 C   0  0  0  0  0  0
   13.9302   37.8446   30.6828 C   0  0  0  0  0  0
   13.1239   38.2877   31.7227 C   0  0  0  0  0  0
   14.4909   37.6790   28.2451 C   0  0  0  0  0  0
   15.6584   37.2790   28.4971 N   0  0  0  0  0  0
   13.9308   37.6790   26.9924 N   0  0  0  0  0  0
   10.0575   41.4269   31.3794 C   0  0  0  0  0  0
   10.6689   42.4586   30.7274 N   0  0  0  0  0  0
    8.8944   41.1473   30.8418 N   0  0  0  0  0  0
    8.1283   43.7879   35.5505 O   0  0  0  0  0  0
    7.3185   44.1198   36.6694 C   0  0  0  0  0  0
    7.2014   45.6437   36.6634 C   0  0  0  0  0  0
    8.7789   41.9920   29.8300 C   0  0  0  0  0  0
    9.8535   42.8807   29.7057 C   0  0  0  0  0  0
   10.2050   44.0185   28.7734 C   0  0  0  0  0  0
    7.9310   43.6286   37.9978 C   0  0  0  0  0  0
    7.3041   39.0546   35.9941 O   0  0  0  0  0  0
    7.8002   37.7142   35.9785 C   0  0  0  0  0  0
    9.0877   37.5598   36.8060 C   0  0  0  0  0  0
   11.3612   44.7493   29.0959 C   0  0  0  0  0  0
   11.8345   45.7597   28.2697 C   0  0  0  0  0  0
   11.1556   46.0804   27.1021 C   0  0  0  0  0  0
    9.9992   45.3893   26.7653 C   0  0  0  0  0  0
    9.5071   44.3680   27.5886 C   0  0  0  0  0  0
    9.9695   43.3225   33.6835 F   0  0  0  0  0  0
    8.2517   43.6729   27.1335 C   0  0  0  0  0  0
    7.0814   43.9861   27.7509 N   0  0  0  0  0  0
    8.3308   42.8787   26.1947 O   0  0  0  0  0  0
    5.8202   43.3400   27.3805 C   0  0  0  0  0  0
    6.9335   44.9681   28.8312 C   0  0  0  0  0  0
    9.2611   38.8790   34.0971 H   0  0  0  0  0  0
    6.8810   41.5026   36.4551 H   0  0  0  0  0  0
   11.5034   41.3994   32.9455 H   0  0  0  0  0  0
   11.5985   39.1281   33.4252 H   0  0  0  0  0  0
   10.5680   39.5286   29.8642 H   0  0  0  0  0  0
   11.9885   38.8686   28.0970 H   0  0  0  0  0  0
   14.8649   37.3633   30.9328 H   0  0  0  0  0  0
   13.4620   38.1457   32.7396 H   0  0  0  0  0  0
   16.1009   36.9440   27.6503 H   0  0  0  0  0  0
   14.3922   37.1727   26.2358 H   0  0  0  0  0  0
   12.9695   37.9585   26.8528 H   0  0  0  0  0  0
   11.5553   42.8665   30.9814 H   0  0  0  0  0  0
    6.3251   43.7062   36.5003 H   0  0  0  0  0  0
    6.5850   46.0080   37.4856 H   0  0  0  0  0  0
    8.1936   46.0800   36.7670 H   0  0  0  0  0  0
    6.7704   46.0065   35.7303 H   0  0  0  0  0  0
    7.9002   41.9502   29.2075 H   0  0  0  0  0  0
    7.3716   44.0161   38.8473 H   0  0  0  0  0  0
    7.9515   42.5460   38.0983 H   0  0  0  0  0  0
    8.9588   43.9751   38.0967 H   0  0  0  0  0  0
    7.9293   37.3455   34.9596 H   0  0  0  0  0  0
    7.0268   37.0847   36.4188 H   0  0  0  0  0  0
    9.3628   36.5085   36.8967 H   0  0  0  0  0  0
    8.9543   37.9496   37.8157 H   0  0  0  0  0  0
    9.9302   38.0801   36.3536 H   0  0  0  0  0  0
   11.9298   44.5379   29.9879 H   0  0  0  0  0  0
   12.7308   46.2916   28.5440 H   0  0  0  0  0  0
   11.5148   46.8708   26.4615 H   0  0  0  0  0  0
    9.4885   45.6540   25.8490 H   0  0  0  0  0  0
    5.9330   42.6020   26.5839 H   0  0  0  0  0  0
    5.3908   42.8305   28.2440 H   0  0  0  0  0  0
    5.1016   44.0852   27.0380 H   0  0  0  0  0  0
    7.8588   45.4809   29.0915 H   0  0  0  0  0  0
    6.2108   45.7335   28.5459 H   0  0  0  0  0  0
    6.5635   44.4801   29.7341 H   0  0  0  0  0  0
  1  2  2  0  0  0
  1  6  1  0  0  0
  1 28  1  0  0  0
  2  3  1  0  0  0
  2 42  1  0  0  0
  3  4  2  0  0  0
  3  7  1  0  0  0
  4  5  1  0  0  0
  4 36  1  0  0  0
  5  6  2  0  0  0
  5 21  1  0  0  0
  6 43  1  0  0  0
  7  8  1  0  0  0
  7 44  1  0  0  0
  7 18  1  0  0  0
  8  9  1  0  0  0
  8 45  1  0  0  0
  9 10  2  0  0  0
  9 14  1  0  0  0
 10 11  1  0  0  0
 10 46  1  0  0  0
 11 12  2  0  0  0
 11 47  1  0  0  0
 12 13  1  0  0  0
 12 15  1  0  0  0
 13 14  2  0  0  0
 13 48  1  0  0  0
 14 49  1  0  0  0
 15 16  2  0  0  0
 15 17  1  0  0  0
 16 50  1  0  0  0
 17 51  1  0  0  0
 17 52  1  0  0  0
 18 19  1  0  0  0
 18 20  2  0  0  0
 19 25  1  0  0  0
 19 53  1  0  0  0
 20 24  1  0  0  0
 21 22  1  0  0  0
 22 23  1  0  0  0
 22 27  1  0  0  0
 22 54  1  0  0  0
 23 55  1  0  0  0
 23 56  1  0  0  0
 23 57  1  0  0  0
 24 58  1  0  0  0
 24 25  2  0  0  0
 25 26  1  0  0  0
 26 31  2  0  0  0
 26 35  1  0  0  0
 27 59  1  0  0  0
 27 60  1  0  0  0
 27 61  1  0  0  0
 28 29  1  0  0  0
 29 30  1  0  0  0
 29 62  1  0  0  0
 29 63  1  0  0  0
 30 64  1  0  0  0
 30 65  1  0  0  0
 30 66  1  0  0  0
 31 32  1  0  0  0
 31 67  1  0  0  0
 32 33  2  0  0  0
 32 68  1  0  0  0
 33 34  1  0  0  0
 33 69  1  0  0  0
 34 35  2  0  0  0
 34 70  1  0  0  0
 35 37  1  0  0  0
 37 38  1  0  0  0
 37 39  2  0  0  0
 38 40  1  0  0  0
 38 41  1  0  0  0
 40 71  1  0  0  0
 40 72  1  0  0  0
 40 73  1  0  0  0
 41 74  1  0  0  0
 41 75  1  0  0  0
 41 76  1  0  0  0
M  END
> <s_m_entry_id>
20667

> <s_m_entry_name>
dock_pv.50

> <s_m_Source_Path>
/home/csk/Desktop/cluster/DUD-E-result/fa7

> <s_m_Source_File>
dock_pv.maegz

> <i_m_Source_File_Index>
50

> <chembl_id>
CHEMBL3403481

> <chembl_pref_name>
None

> <i_lp_mmshare_version>
53161

> <r_lp_tautomer_probability>
0.499999999999999

> <s_lp_Force_Field>
OPLS_2005

> <r_lp_Energy>
38.152451

> <b_lp_Chiralities_Consistent>
1

> <s_lp_Variant>
CHEMBL3991_lig350-4

> <s_i_glide_gridfile>
glide-grid_1w7x

> <i_i_glide_lignum>
440

> <i_i_glide_rotatable_bonds>
12

> <r_i_docking_score>
-7.02082605463996

> <r_i_glide_ligand_efficiency>
-0.171239659869267

> <r_i_glide_ligand_efficiency_sa>
-0.590471546667563

> <r_i_glide_ligand_efficiency_ln>
-1.4894916117298

> <r_i_glide_gscore>
-7.02082605463996

> <r_i_glide_lipo>
-2.98775345801495

> <r_i_glide_hbond>
-0.510116721618753

> <r_i_glide_metal>
0

> <r_i_glide_rewards>
-0.261139119625164

> <r_i_glide_evdw>
-48.8421974182129

> <r_i_glide_ecoul>
-7.93064785003662

> <r_i_glide_erotb>
0.454580950532433

> <r_i_glide_esite>
-0.0846906574973835

> <r_i_glide_emodel>
-69.9304441665043

> <r_i_glide_energy>
-56.7728452682495

> <r_i_glide_einternal>
17.5302639007568

> <i_i_glide_confnum>
10

> <i_i_glide_posenum>
186

> <r_i_glide_eff_state_penalty>
0

> <s_user_duplicate_titles>
CHEMBL3991_lig350

> <i_f3d_flags>
0

> <s_m_subgroup_title>
dock_pv

> <s_m_subgroupid>
dock_pv

> <b_m_subgroup_collapsed>
1

$$$$
CHEMBL3991_lig246
                    3D
 Schrodinger Suite 2021-1.
 54 57  0  0  1  0            999 V2000
   12.1480   38.8168   30.0879 C   0  0  0  0  0  0
   11.3864   39.6757   29.2716 C   0  0  0  0  0  0
   10.4492   40.5911   29.7543 C   0  0  0  0  0  0
   11.9319   38.8808   31.4774 C   0  0  0  0  0  0
   10.9814   39.7684   31.9989 C   0  0  0  0  0  0
   10.2657   40.6203   31.1317 C   0  0  0  0  0  0
    9.4649   41.3597   31.9717 N   0  0  0  0  0  0
    9.6806   40.8989   33.2499 C   0  0  0  0  0  0
   10.5924   39.9555   33.2968 N   0  0  0  0  0  0
    8.9589   41.4044   34.4563 C   0  0  0  0  0  0
    8.3302   40.5224   35.3559 C   0  0  0  0  0  0
    7.7718   41.0030   36.5561 C   0  0  0  0  0  0
    7.8930   42.3715   36.8291 C   0  0  0  0  0  0
    8.4740   43.2781   35.9416 C   0  0  0  0  0  0
    8.9936   42.7780   34.7383 C   0  0  0  0  0  0
    8.5654   44.7611   36.3798 C   0  0  2  0  0  0
    7.1808   45.2980   36.7502 C   0  0  0  0  0  0
    9.1651   45.7652   35.3732 C   0  0  0  0  0  0
   10.6793   45.6788   35.3941 C   0  0  0  0  0  0
   11.1806   46.0789   36.5949 O   0  0  0  0  0  0
   11.3714   45.3522   34.4358 O   0  0  0  0  0  0
    7.1310   45.7229   38.0488 O   0  0  0  0  0  0
    6.2036   45.2719   36.0036 O   0  0  0  0  0  0
    8.3259   39.1732   35.0957 O   0  0  0  0  0  0
   13.1813   37.8872   29.5309 C   0  0  0  0  0  0
   14.0302   37.3440   30.2852 N   0  0  0  0  0  0
   13.1306   37.6792   28.1729 N   0  0  0  0  0  0
    7.1077   40.1310   37.5787 C   0  0  0  0  0  0
    6.2633   39.0664   37.2237 C   0  0  0  0  0  0
    5.6112   38.3112   38.1990 C   0  0  0  0  0  0
    5.7632   38.6281   39.5481 C   0  0  0  0  0  0
    6.5872   39.6914   39.9208 C   0  0  0  0  0  0
    7.2729   40.4080   38.9435 C   0  0  0  0  0  0
    6.6770   40.1202   41.3063 C   0  0  0  0  0  0
    6.7310   40.4787   42.4060 N   0  0  0  0  0  0
   11.5377   39.6786   28.2006 H   0  0  0  0  0  0
    9.9118   41.2438   29.0824 H   0  0  0  0  0  0
   12.4985   38.2569   32.1535 H   0  0  0  0  0  0
    8.7991   42.0822   31.7419 H   0  0  0  0  0  0
    7.5303   42.7577   37.7697 H   0  0  0  0  0  0
    9.4914   43.4371   34.0428 H   0  0  0  0  0  0
    9.1676   44.7499   37.2951 H   0  0  0  0  0  0
    8.7868   45.5818   34.3649 H   0  0  0  0  0  0
    8.9221   46.8052   35.6103 H   0  0  0  0  0  0
   12.1415   46.1335   36.5972 H   0  0  0  0  0  0
    7.9934   45.6798   38.4949 H   0  0  0  0  0  0
    8.1607   38.6494   35.8837 H   0  0  0  0  0  0
   14.6569   36.7667   29.7478 H   0  0  0  0  0  0
   13.7681   37.0236   27.7399 H   0  0  0  0  0  0
   12.3962   38.0794   27.6003 H   0  0  0  0  0  0
    6.0793   38.8274   36.1862 H   0  0  0  0  0  0
    4.9687   37.4924   37.9088 H   0  0  0  0  0  0
    5.2229   38.0571   40.2912 H   0  0  0  0  0  0
    7.9310   41.2112   39.2491 H   0  0  0  0  0  0
  1  4  2  0  0  0
  1 25  1  0  0  0
  1  2  1  0  0  0
  2  3  2  0  0  0
  2 36  1  0  0  0
  3  6  1  0  0  0
  3 37  1  0  0  0
  4  5  1  0  0  0
  4 38  1  0  0  0
  5  9  1  0  0  0
  5  6  2  0  0  0
  6  7  1  0  0  0
  7  8  1  0  0  0
  7 39  1  0  0  0
  8  9  2  0  0  0
  8 10  1  0  0  0
 10 11  2  0  0  0
 10 15  1  0  0  0
 11 24  1  0  0  0
 11 12  1  0  0  0
 12 13  2  0  0  0
 12 28  1  0  0  0
 13 14  1  0  0  0
 13 40  1  0  0  0
 14 15  2  0  0  0
 14 16  1  0  0  0
 15 41  1  0  0  0
 16 17  1  0  0  0
 16 18  1  0  0  0
 16 42  1  0  0  0
 17 22  1  0  0  0
 17 23  2  0  0  0
 18 19  1  0  0  0
 18 43  1  0  0  0
 18 44  1  0  0  0
 19 20  1  0  0  0
 19 21  2  0  0  0
 20 45  1  0  0  0
 22 46  1  0  0  0
 24 47  1  0  0  0
 25 26  2  0  0  0
 25 27  1  0  0  0
 26 48  1  0  0  0
 27 49  1  0  0  0
 27 50  1  0  0  0
 28 29  2  0  0  0
 28 33  1  0  0  0
 29 30  1  0  0  0
 29 51  1  0  0  0
 30 31  2  0  0  0
 30 52  1  0  0  0
 31 32  1  0  0  0
 31 53  1  0  0  0
 32 33  2  0  0  0
 32 34  1  0  0  0
 33 54  1  0  0  0
 34 35  3  0  0  0
M  END
> <s_m_entry_id>
20668

> <s_m_entry_name>
dock_pv.51

> <s_m_Source_Path>
/home/csk/Desktop/cluster/DUD-E-result/fa7

> <s_m_Source_File>
dock_pv.maegz

> <i_m_Source_File_Index>
51

> <chembl_id>
CHEMBL205128

> <chembl_pref_name>
None

> <i_lp_mmshare_version>
53161

> <r_lp_tautomer_probability>
0.999999999997365

> <s_lp_Force_Field>
OPLS_2005

> <r_lp_Energy>
22.223344

> <b_lp_Chiralities_Consistent>
1

> <s_lp_Variant>
CHEMBL3991_lig246-1

> <s_i_glide_gridfile>
glide-grid_1w7x

> <i_i_glide_lignum>
300

> <i_i_glide_rotatable_bonds>
10

> <r_i_docking_score>
-7.01223701160193

> <r_i_glide_ligand_efficiency>
-0.200349628902912

> <r_i_glide_ligand_efficiency_sa>
-0.655356920586429

> <r_i_glide_ligand_efficiency_ln>
-1.53934165226207

> <r_i_glide_gscore>
-7.01223701160193

> <r_i_glide_lipo>
-1.37218690433213

> <r_i_glide_hbond>
-0.497064691081078

> <r_i_glide_metal>
0

> <r_i_glide_rewards>
-1.02923798837805

> <r_i_glide_evdw>
-50.9102821350098

> <r_i_glide_ecoul>
-13.8449687957764

> <r_i_glide_erotb>
0.549888095956664

> <r_i_glide_esite>
-0.0413760976503938

> <r_i_glide_emodel>
-85.2557170542736

> <r_i_glide_energy>
-64.7552509307861

> <r_i_glide_einternal>
13.8454160690308

> <i_i_glide_confnum>
11

> <i_i_glide_posenum>
242

> <r_i_glide_eff_state_penalty>
0

> <s_user_duplicate_titles>
CHEMBL3991_lig246,342393

> <i_f3d_flags>
0

> <s_m_subgroup_title>
dock_pv

> <s_m_subgroupid>
dock_pv

> <b_m_subgroup_collapsed>
1

$$$$
CHEMBL3991_lig276
                    3D
 Schrodinger Suite 2021-1.
 46 49  0  0  1  0            999 V2000
   12.8085   38.0790   29.1830 C   0  0  0  0  0  0
   13.6001   37.6731   30.2548 C   0  0  0  0  0  0
   13.2783   38.0744   31.5522 C   0  0  0  0  0  0
   12.1413   38.8792   31.6715 C   0  0  0  0  0  0
   11.3949   39.2787   30.5320 C   0  0  0  0  0  0
   11.7218   38.8814   29.3008 N   0  0  0  0  0  0
   13.1311   37.6772   27.8993 N   0  0  0  0  0  0
   11.5029   39.4464   32.7532 N   0  0  0  0  0  0
   10.3195   40.1081   30.9922 C   0  0  0  0  0  0
   10.3588   40.1228   32.3821 C   0  0  0  0  0  0
    9.3917   40.7046   33.3757 C   0  0  0  0  0  0
    8.8479   41.9681   33.1221 C   0  0  0  0  0  0
    7.9462   42.5580   34.0148 C   0  0  0  0  0  0
    7.4082   43.9681   33.7498 C   0  0  0  0  0  0
    5.8712   44.0800   33.7194 C   0  0  0  0  0  0
    5.4635   45.1086   32.9234 O   0  0  0  0  0  0
    5.1122   43.3807   34.3913 O   0  0  0  0  0  0
    7.5761   41.8601   35.1683 C   0  0  0  0  0  0
    8.0458   40.5708   35.4265 C   0  0  0  0  0  0
    8.9849   40.0178   34.5365 C   0  0  0  0  0  0
    9.5357   38.8040   34.8561 O   0  0  0  0  0  0
    7.5608   39.8337   36.6365 C   0  0  0  0  0  0
    7.1553   38.4951   36.5430 C   0  0  0  0  0  0
    6.7393   37.7921   37.6689 C   0  0  0  0  0  0
    6.6901   38.4275   38.9045 C   0  0  0  0  0  0
    7.0493   39.7754   39.0314 C   0  0  0  0  0  0
    6.9469   40.4608   40.3415 N   0  3  0  0  0  0
    7.1310   41.6704   40.3848 O   0  5  0  0  0  0
    6.6420   39.8027   41.3288 O   0  0  0  0  0  0
    7.4951   40.4613   37.8897 C   0  0  0  0  0  0
   14.4608   37.0445   30.0825 H   0  0  0  0  0  0
   13.8690   37.7773   32.4068 H   0  0  0  0  0  0
   13.8708   37.0053   27.7333 H   0  0  0  0  0  0
   12.5186   37.9914   27.1502 H   0  0  0  0  0  0
   11.7784   39.3466   33.7171 H   0  0  0  0  0  0
    9.5597   40.5714   30.3820 H   0  0  0  0  0  0
    9.1489   42.5039   32.2325 H   0  0  0  0  0  0
    7.7617   44.6168   34.5520 H   0  0  0  0  0  0
    7.8335   44.3650   32.8267 H   0  0  0  0  0  0
    6.1903   45.5707   32.5027 H   0  0  0  0  0  0
    6.8884   42.3185   35.8637 H   0  0  0  0  0  0
    9.1405   38.4190   35.6434 H   0  0  0  0  0  0
    7.1600   37.9855   35.5899 H   0  0  0  0  0  0
    6.4494   36.7547   37.5860 H   0  0  0  0  0  0
    6.3604   37.8619   39.7626 H   0  0  0  0  0  0
    7.8100   41.4918   37.9810 H   0  0  0  0  0  0
  1  2  2  0  0  0
  1  6  1  0  0  0
  1  7  1  0  0  0
  2  3  1  0  0  0
  2 31  1  0  0  0
  3  4  2  0  0  0
  3 32  1  0  0  0
  4  5  1  0  0  0
  4  8  1  0  0  0
  5  6  2  0  0  0
  5  9  1  0  0  0
  7 33  1  0  0  0
  7 34  1  0  0  0
  8 10  1  0  0  0
  8 35  1  0  0  0
  9 10  2  0  0  0
  9 36  1  0  0  0
 10 11  1  0  0  0
 11 12  2  0  0  0
 11 20  1  0  0  0
 12 13  1  0  0  0
 12 37  1  0  0  0
 13 14  1  0  0  0
 13 18  2  0  0  0
 14 15  1  0  0  0
 14 38  1  0  0  0
 14 39  1  0  0  0
 15 16  1  0  0  0
 15 17  2  0  0  0
 16 40  1  0  0  0
 18 19  1  0  0  0
 18 41  1  0  0  0
 19 20  2  0  0  0
 19 22  1  0  0  0
 20 21  1  0  0  0
 21 42  1  0  0  0
 22 23  2  0  0  0
 22 30  1  0  0  0
 23 24  1  0  0  0
 23 43  1  0  0  0
 24 25  2  0  0  0
 24 44  1  0  0  0
 25 26  1  0  0  0
 25 45  1  0  0  0
 26 27  1  0  0  0
 26 30  2  0  0  0
 27 28  1  0  0  0
 27 29  2  0  0  0
 30 46  1  0  0  0
M  CHG  2  27   1  28  -1
M  END
> <s_m_entry_id>
20669

> <s_m_entry_name>
dock_pv.52

> <s_m_Source_Path>
/home/csk/Desktop/cluster/DUD-E-result/fa7

> <s_m_Source_File>
dock_pv.maegz

> <i_m_Source_File_Index>
52

> <chembl_id>
CHEMBL377956

> <chembl_pref_name>
None

> <i_lp_mmshare_version>
53161

> <r_lp_tautomer_probability>
0.999999999997365

> <s_lp_Force_Field>
OPLS_2005

> <r_lp_Energy>
25.106728

> <b_lp_Chiralities_Consistent>
1

> <s_lp_Variant>
CHEMBL3991_lig276-1

> <s_i_glide_gridfile>
glide-grid_1w7x

> <i_i_glide_lignum>
353

> <i_i_glide_rotatable_bonds>
7

> <r_i_docking_score>
-7.00622021959674

> <r_i_glide_ligand_efficiency>
-0.233540673986558

> <r_i_glide_ligand_efficiency_sa>
-0.725665172850696

> <r_i_glide_ligand_efficiency_ln>
-1.59188957277594

> <r_i_glide_gscore>
-7.00622021959674

> <r_i_glide_lipo>
-2.26753397281846

> <r_i_glide_hbond>
-0.712768063871309

> <r_i_glide_metal>
0

> <r_i_glide_rewards>
-1.02725603493322

> <r_i_glide_evdw>
-41.1550025939941

> <r_i_glide_ecoul>
-9.38362598419189

> <r_i_glide_erotb>
0.480493127899937

> <r_i_glide_esite>
-0.0138612485452014

> <r_i_glide_emodel>
-67.7667091502453

> <r_i_glide_energy>
-50.538628578186

> <r_i_glide_einternal>
5.54484272003174

> <i_i_glide_confnum>
75

> <i_i_glide_posenum>
318

> <r_i_glide_eff_state_penalty>
0

> <s_user_duplicate_titles>
CHEMBL3991_lig276,345231

> <i_f3d_flags>
0

> <s_m_subgroup_title>
dock_pv

> <s_m_subgroupid>
dock_pv

> <b_m_subgroup_collapsed>
1

$$$$
CHEMBL3991_lig159
                    3D
 Schrodinger Suite 2021-1.
 60 62  0  0  1  0            999 V2000
    7.5311   41.6308   37.3092 C   0  0  0  0  0  0
    6.4599   35.2102   36.3610 C   0  0  0  0  0  0
    9.8371   44.7313   35.0418 N   0  0  0  0  0  0
    9.1749   43.6783   35.5496 C   0  0  0  0  0  0
    7.8502   40.5059   37.9770 N   0  0  0  0  0  0
   10.2649   44.0287   32.6209 C   0  0  0  0  0  0
    6.8478   36.5797   36.7838 C   0  0  0  0  0  0
    5.9308   35.0008   35.2351 N   0  0  0  0  0  0
    8.2590   42.6910   37.6949 N   0  0  0  0  0  0
   10.7724   44.7131   33.9078 C   0  0  1  0  0  0
    6.7232   41.6784   36.3823 O   0  0  0  0  0  0
   10.6323   42.7024   32.3362 C   0  0  0  0  0  0
    9.1437   42.5890   34.9755 O   0  0  0  0  0  0
    7.2642   37.5237   35.8326 C   0  0  0  0  0  0
    6.7986   36.9811   38.1312 C   0  0  0  0  0  0
    8.4379   43.9150   36.8923 C   0  0  0  0  0  0
    6.7310   34.2431   37.2969 N   0  0  0  0  0  0
    7.5280   39.2041   37.5551 C   0  0  0  0  0  0
   10.5302   40.7805   30.7588 O   0  0  0  0  0  0
   10.2373   42.0783   31.1383 C   0  0  0  0  0  0
    7.1568   38.2703   38.5193 C   0  0  0  0  0  0
    7.5978   38.8215   36.2086 C   0  0  0  0  0  0
   11.1271   39.8400   31.6559 C   0  0  0  0  0  0
   12.0390   38.8832   30.8872 C   0  0  0  0  0  0
    9.5022   44.7337   31.6823 C   0  0  0  0  0  0
    9.1189   44.1313   30.4866 C   0  0  0  0  0  0
   11.2755   46.1471   33.6547 C   0  0  0  0  0  0
    9.4914   42.8163   30.2189 C   0  0  0  0  0  0
   11.8704   38.6554   29.5152 C   0  0  0  0  0  0
   13.1315   38.3205   31.5528 C   0  0  0  0  0  0
   14.0977   37.6226   30.8374 C   0  0  0  0  0  0
   12.8201   37.9181   28.8113 C   0  0  0  0  0  0
   13.9358   37.4176   29.4725 C   0  0  0  0  0  0
    9.8447   45.5792   35.5895 H   0  0  0  0  0  0
    8.2870   40.5986   38.8825 H   0  0  0  0  0  0
    5.7223   34.0210   35.1228 H   0  0  0  0  0  0
    8.7890   42.6338   38.5567 H   0  0  0  0  0  0
   11.6472   44.1475   34.2385 H   0  0  0  0  0  0
   11.2203   42.1797   33.0722 H   0  0  0  0  0  0
    7.3271   37.2544   34.7879 H   0  0  0  0  0  0
    6.4824   36.2899   38.8997 H   0  0  0  0  0  0
    7.4637   44.3606   36.6887 H   0  0  0  0  0  0
    8.9992   44.6258   37.4957 H   0  0  0  0  0  0
    6.4618   33.2835   37.1495 H   0  0  0  0  0  0
    7.2730   34.4745   38.1291 H   0  0  0  0  0  0
    7.1130   38.5409   39.5648 H   0  0  0  0  0  0
    7.9097   39.5255   35.4499 H   0  0  0  0  0  0
   11.7372   40.3114   32.4240 H   0  0  0  0  0  0
   10.3414   39.2795   32.1613 H   0  0  0  0  0  0
    9.2068   45.7552   31.8701 H   0  0  0  0  0  0
    8.5367   44.6847   29.7644 H   0  0  0  0  0  0
   11.9308   46.1811   32.7851 H   0  0  0  0  0  0
   10.4554   46.8429   33.4734 H   0  0  0  0  0  0
   11.8379   46.5271   34.5095 H   0  0  0  0  0  0
    9.1948   42.3574   29.2872 H   0  0  0  0  0  0
   11.0383   39.0883   28.9778 H   0  0  0  0  0  0
   13.2846   38.4948   32.6086 H   0  0  0  0  0  0
   14.9913   37.2761   31.3276 H   0  0  0  0  0  0
   12.7260   37.7653   27.7447 H   0  0  0  0  0  0
   14.6875   36.8785   28.9126 H   0  0  0  0  0  0
  1  5  1  0  0  0
  1  9  1  0  0  0
  1 11  2  0  0  0
  2  7  1  0  0  0
  2  8  2  0  0  0
  2 17  1  0  0  0
  3  4  1  0  0  0
  3 10  1  0  0  0
  3 34  1  0  0  0
  4 16  1  0  0  0
  4 13  2  0  0  0
  5 18  1  0  0  0
  5 35  1  0  0  0
  6 10  1  0  0  0
  6 12  2  0  0  0
  6 25  1  0  0  0
  7 14  2  0  0  0
  7 15  1  0  0  0
  8 36  1  0  0  0
  9 16  1  0  0  0
  9 37  1  0  0  0
 10 27  1  0  0  0
 10 38  1  0  0  0
 12 20  1  0  0  0
 12 39  1  0  0  0
 14 22  1  0  0  0
 14 40  1  0  0  0
 15 21  2  0  0  0
 15 41  1  0  0  0
 16 42  1  0  0  0
 16 43  1  0  0  0
 17 44  1  0  0  0
 17 45  1  0  0  0
 18 21  1  0  0  0
 18 22  2  0  0  0
 19 20  1  0  0  0
 19 23  1  0  0  0
 20 28  2  0  0  0
 21 46  1  0  0  0
 22 47  1  0  0  0
 23 24  1  0  0  0
 23 48  1  0  0  0
 23 49  1  0  0  0
 24 29  2  0  0  0
 24 30  1  0  0  0
 25 26  2  0  0  0
 25 50  1  0  0  0
 26 28  1  0  0  0
 26 51  1  0  0  0
 27 52  1  0  0  0
 27 53  1  0  0  0
 27 54  1  0  0  0
 28 55  1  0  0  0
 29 32  1  0  0  0
 29 56  1  0  0  0
 30 31  2  0  0  0
 30 57  1  0  0  0
 31 33  1  0  0  0
 31 58  1  0  0  0
 32 33  2  0  0  0
 32 59  1  0  0  0
 33 60  1  0  0  0
M  END
> <s_m_entry_id>
20670

> <s_m_entry_name>
dock_pv.53

> <s_m_Source_Path>
/home/csk/Desktop/cluster/DUD-E-result/fa7

> <s_m_Source_File>
dock_pv.maegz

> <i_m_Source_File_Index>
53

> <chembl_id>
CHEMBL338641

> <chembl_pref_name>
None

> <i_lp_mmshare_version>
53161

> <r_lp_tautomer_probability>
1

> <s_lp_Force_Field>
OPLS_2005

> <r_lp_Energy>
16.762588

> <b_lp_Chiralities_Consistent>
1

> <s_lp_Variant>
CHEMBL3991_lig159-1

> <s_i_glide_gridfile>
glide-grid_1w7x

> <i_i_glide_lignum>
158

> <i_i_glide_rotatable_bonds>
12

> <r_i_docking_score>
-6.99641786002785

> <r_i_glide_ligand_efficiency>
-0.212012662425086

> <r_i_glide_ligand_efficiency_sa>
-0.680037892329695

> <r_i_glide_ligand_efficiency_ln>
-1.55596710655726

> <r_i_glide_gscore>
-6.99641786002785

> <r_i_glide_lipo>
-2.64981135848783

> <r_i_glide_hbond>
-0.661799102179046

> <r_i_glide_metal>
0

> <r_i_glide_rewards>
-0.21189235344596

> <r_i_glide_evdw>
-45.6715698242188

> <r_i_glide_ecoul>
-13.890718460083

> <r_i_glide_erotb>
1.10889967592256

> <r_i_glide_esite>
-0.214628461614184

> <r_i_glide_emodel>
-79.195231881125

> <r_i_glide_energy>
-59.5622882843018

> <r_i_glide_einternal>
13.3098459243774

> <i_i_glide_confnum>
148

> <i_i_glide_posenum>
205

> <r_i_glide_eff_state_penalty>
0

> <s_user_duplicate_titles>
CHEMBL3991_lig159,203106

> <i_f3d_flags>
0

> <s_m_subgroup_title>
dock_pv

> <s_m_subgroupid>
dock_pv

> <b_m_subgroup_collapsed>
1

$$$$
CHEMBL3991_lig207
                    3D
 Schrodinger Suite 2021-1.
 64 67  0  0  1  0            999 V2000
    9.8302   44.6580   31.3072 C   0  0  0  0  0  0
    9.2581   43.5420   31.8636 N   0  0  0  0  0  0
   10.0852   44.7353   29.8179 C   0  0  0  0  0  0
    8.8224   43.5100   33.2978 C   0  0  2  0  0  0
    7.5563   44.3565   33.5988 C   0  0  0  0  0  0
   14.1563   37.6788   28.1741 C   0  0  0  0  0  0
    9.0181   44.7933   28.8502 C   0  0  0  0  0  0
   13.3037   38.0882   29.3148 C   0  0  0  0  0  0
   11.5395   39.5220   30.2757 C   0  0  0  0  0  0
   12.2038   38.9503   29.1598 C   0  0  0  0  0  0
    8.9932   42.2953   31.0967 C   0  0  0  0  0  0
   10.1465   45.6466   31.9700 O   0  0  0  0  0  0
   15.3398   37.2833   28.3672 N   0  0  0  0  0  0
   10.5650   40.5485   30.1421 C   0  0  0  0  0  0
   10.0328   43.6684   34.2893 C   0  0  0  0  0  0
    9.9952   41.1481   31.2723 C   0  0  0  0  0  0
   11.9309   39.1086   31.5797 C   0  0  0  0  0  0
    6.9395   44.9919   32.7692 O   0  0  0  0  0  0
   13.6398   37.6797   30.6114 C   0  0  0  0  0  0
   12.9717   38.1632   31.7232 C   0  0  0  0  0  0
    9.3509   44.9934   27.4701 C   0  0  0  0  0  0
   11.2957   39.6793   32.7009 C   0  0  0  0  0  0
   13.5311   37.6789   26.9538 N   0  0  0  0  0  0
    7.1883   44.1864   34.9004 O   0  0  0  0  0  0
   10.3441   40.6763   32.5401 C   0  0  0  0  0  0
   11.4025   44.9305   29.3880 C   0  0  0  0  0  0
    7.6334   44.6868   29.1851 C   0  0  0  0  0  0
   11.7054   45.1412   28.0503 C   0  0  0  0  0  0
   10.2503   45.0296   35.0230 C   0  0  0  0  0  0
   10.7021   45.1651   27.0925 C   0  0  0  0  0  0
    8.3224   45.0415   26.4966 C   0  0  0  0  0  0
   11.7408   45.4352   35.0612 C   0  0  0  0  0  0
    9.6282   45.0798   36.4381 C   0  0  0  0  0  0
    6.6481   44.7381   28.2030 C   0  0  0  0  0  0
    6.9894   44.9076   26.8681 C   0  0  0  0  0  0
    8.4374   42.5045   33.4623 H   0  0  0  0  0  0
   11.9295   39.3115   28.1794 H   0  0  0  0  0  0
    8.9229   42.4953   30.0292 H   0  0  0  0  0  0
    8.0094   41.9182   31.3768 H   0  0  0  0  0  0
   15.7509   36.9412   27.5068 H   0  0  0  0  0  0
   10.3043   40.8909   29.1494 H   0  0  0  0  0  0
    9.9742   42.8801   35.0393 H   0  0  0  0  0  0
   10.9325   43.4006   33.7347 H   0  0  0  0  0  0
   14.4669   37.0035   30.7771 H   0  0  0  0  0  0
   13.2903   37.8627   32.7099 H   0  0  0  0  0  0
   11.5877   39.3606   33.6893 H   0  0  0  0  0  0
   13.9988   37.2274   26.1697 H   0  0  0  0  0  0
   12.5818   38.0222   26.8258 H   0  0  0  0  0  0
    7.8742   43.7386   35.3994 H   0  0  0  0  0  0
    9.9024   41.0813   33.4324 H   0  0  0  0  0  0
   12.2118   44.9388   30.1059 H   0  0  0  0  0  0
    7.3297   44.5637   30.2134 H   0  0  0  0  0  0
   12.7302   45.2890   27.7509 H   0  0  0  0  0  0
    9.7637   45.8126   34.4415 H   0  0  0  0  0  0
   10.9479   45.3218   26.0514 H   0  0  0  0  0  0
    8.5833   45.1962   25.4602 H   0  0  0  0  0  0
   12.2089   45.2398   36.0259 H   0  0  0  0  0  0
   12.3338   44.9136   34.3121 H   0  0  0  0  0  0
   11.8535   46.5010   34.8589 H   0  0  0  0  0  0
    9.2599   44.1133   36.7802 H   0  0  0  0  0  0
   10.3343   45.4312   37.1908 H   0  0  0  0  0  0
    8.7892   45.7759   36.4650 H   0  0  0  0  0  0
    5.6084   44.6500   28.4820 H   0  0  0  0  0  0
    6.2133   44.9493   26.1167 H   0  0  0  0  0  0
  1  2  1  0  0  0
  1  3  1  0  0  0
  1 12  2  0  0  0
  2  4  1  0  0  0
  2 11  1  0  0  0
  3  7  1  0  0  0
  3 26  2  0  0  0
  4  5  1  0  0  0
  4 15  1  0  0  0
  4 36  1  0  0  0
  5 18  2  0  0  0
  5 24  1  0  0  0
  6  8  1  0  0  0
  6 13  2  0  0  0
  6 23  1  0  0  0
  7 21  1  0  0  0
  7 27  2  0  0  0
  8 10  1  0  0  0
  8 19  2  0  0  0
  9 14  1  0  0  0
  9 10  2  0  0  0
  9 17  1  0  0  0
 10 37  1  0  0  0
 11 16  1  0  0  0
 11 38  1  0  0  0
 11 39  1  0  0  0
 13 40  1  0  0  0
 14 16  2  0  0  0
 14 41  1  0  0  0
 15 29  1  0  0  0
 15 42  1  0  0  0
 15 43  1  0  0  0
 16 25  1  0  0  0
 17 22  1  0  0  0
 17 20  2  0  0  0
 19 20  1  0  0  0
 19 44  1  0  0  0
 20 45  1  0  0  0
 21 31  2  0  0  0
 21 30  1  0  0  0
 22 25  2  0  0  0
 22 46  1  0  0  0
 23 47  1  0  0  0
 23 48  1  0  0  0
 24 49  1  0  0  0
 25 50  1  0  0  0
 26 28  1  0  0  0
 26 51  1  0  0  0
 27 34  1  0  0  0
 27 52  1  0  0  0
 28 30  2  0  0  0
 28 53  1  0  0  0
 29 32  1  0  0  0
 29 33  1  0  0  0
 29 54  1  0  0  0
 30 55  1  0  0  0
 31 35  1  0  0  0
 31 56  1  0  0  0
 32 57  1  0  0  0
 32 58  1  0  0  0
 32 59  1  0  0  0
 33 60  1  0  0  0
 33 61  1  0  0  0
 33 62  1  0  0  0
 34 35  2  0  0  0
 34 63  1  0  0  0
 35 64  1  0  0  0
M  END
> <s_m_entry_id>
20671

> <s_m_entry_name>
dock_pv.54

> <s_m_Source_Path>
/home/csk/Desktop/cluster/DUD-E-result/fa7

> <s_m_Source_File>
dock_pv.maegz

> <i_m_Source_File_Index>
54

> <chembl_id>
CHEMBL606850

> <chembl_pref_name>
None

> <i_lp_mmshare_version>
53161

> <r_lp_tautomer_probability>
1

> <s_lp_Force_Field>
OPLS_2005

> <r_lp_Energy>
32.998268

> <b_lp_Chiralities_Consistent>
1

> <s_lp_Variant>
CHEMBL3991_lig207-1

> <s_i_glide_gridfile>
glide-grid_1w7x

> <i_i_glide_lignum>
234

> <i_i_glide_rotatable_bonds>
10

> <r_i_docking_score>
-6.99573697792593

> <r_i_glide_ligand_efficiency>
-0.199878199369312

> <r_i_glide_ligand_efficiency_sa>
-0.653814843323269

> <r_i_glide_ligand_efficiency_ln>
-1.53571952867167

> <r_i_glide_gscore>
-6.99573697792593

> <r_i_glide_lipo>
-3.31131492134294

> <r_i_glide_hbond>
-0.460456496067347

> <r_i_glide_metal>
0

> <r_i_glide_rewards>
-0.63448153500061

> <r_i_glide_evdw>
-39.9123954772949

> <r_i_glide_ecoul>
-7.25458908081055

> <r_i_glide_erotb>
0.553949450587453

> <r_i_glide_esite>
-0.0596253401161544

> <r_i_glide_emodel>
-62.8425565637257

> <r_i_glide_energy>
-47.1669845581055

> <r_i_glide_einternal>
6.96366357803345

> <i_i_glide_confnum>
35

> <i_i_glide_posenum>
166

> <r_i_glide_eff_state_penalty>
0

> <s_user_duplicate_titles>
CHEMBL3991_lig207

> <i_f3d_flags>
0

> <s_m_subgroup_title>
dock_pv

> <s_m_subgroupid>
dock_pv

> <b_m_subgroup_collapsed>
1

$$$$
CHEMBL3991_lig288
                    3D
 Schrodinger Suite 2021-1.
 63 66  0  0  1  0            999 V2000
   13.3916   38.0790   29.4291 C   0  0  0  0  0  0
   13.7893   37.6791   30.7193 C   0  0  0  0  0  0
   13.1336   38.0788   31.8807 C   0  0  0  0  0  0
   12.2397   38.8783   29.2969 C   0  0  0  0  0  0
   10.4833   40.1312   30.5469 N   0  0  0  0  0  0
   11.5669   39.3058   30.4424 C   0  0  0  0  0  0
   12.0373   38.9195   31.7117 C   0  0  0  0  0  0
   11.2035   39.5789   32.5812 N   0  0  0  0  0  0
   10.2915   40.2951   31.8367 C   0  0  0  0  0  0
    9.2283   41.1781   32.4351 C   0  0  0  0  0  0
    8.6193   42.2220   31.7140 C   0  0  0  0  0  0
    7.6637   43.0616   32.3191 C   0  0  0  0  0  0
    7.2741   42.7845   33.6354 C   0  0  0  0  0  0
    7.8283   41.7246   34.3644 C   0  0  0  0  0  0
    8.8311   40.9569   33.7591 C   0  0  0  0  0  0
    8.9705   42.4277   30.4001 O   0  0  0  0  0  0
    7.0895   44.2418   31.5921 C   0  0  0  0  0  0
    7.9625   45.1258   30.9406 C   0  0  0  0  0  0
    7.4940   46.1874   30.1637 C   0  0  0  0  0  0
    6.1199   46.4213   30.0927 C   0  0  0  0  0  0
    5.2329   45.5827   30.7667 C   0  0  0  0  0  0
    5.7069   44.4939   31.5028 C   0  0  0  0  0  0
   14.2057   37.6783   28.2548 C   0  0  0  0  0  0
   15.3953   37.2794   28.4021 N   0  0  0  0  0  0
   13.5312   37.6787   27.0582 N   0  0  0  0  0  0
    7.5908   39.9822   36.2725 C   0  0  0  0  0  0
    6.5910   39.5155   37.3187 C   0  0  0  0  0  0
    7.0111   38.3603   37.9066 O   0  0  0  0  0  0
    5.5312   40.0758   37.5881 O   0  0  0  0  0  0
    7.3468   41.4488   35.8097 C   0  0  1  0  0  0
    7.9314   42.4783   36.7985 C   0  0  0  0  0  0
    8.3817   43.5722   36.4724 O   0  0  0  0  0  0
    7.9290   42.0592   38.0951 O   0  0  0  0  0  0
    4.7849   43.6770   32.1072 O   0  0  0  0  0  0
    8.4809   47.0554   29.3919 C   0  0  0  0  0  0
    9.2677   46.2710   28.4343 N   0  0  0  0  0  0
    9.4881   46.5859   27.1516 C   0  0  0  0  0  0
   10.1325   45.6266   26.4970 N   0  0  0  0  0  0
    9.1293   47.6236   26.6039 O   0  0  0  0  0  0
   14.6661   37.0576   30.8411 H   0  0  0  0  0  0
   13.5084   37.8010   32.8557 H   0  0  0  0  0  0
   11.9050   39.2256   28.3306 H   0  0  0  0  0  0
   11.2495   39.5956   33.5865 H   0  0  0  0  0  0
    6.5373   43.4192   34.1066 H   0  0  0  0  0  0
    9.2934   40.1570   34.3149 H   0  0  0  0  0  0
    9.5882   41.7483   30.1061 H   0  0  0  0  0  0
    9.0283   44.9588   31.0050 H   0  0  0  0  0  0
    5.7341   47.2424   29.5054 H   0  0  0  0  0  0
    4.1723   45.7746   30.6948 H   0  0  0  0  0  0
   15.7726   36.9408   27.5253 H   0  0  0  0  0  0
   13.9752   37.2408   26.2547 H   0  0  0  0  0  0
   12.5822   38.0260   26.9555 H   0  0  0  0  0  0
    7.4346   39.3147   35.4215 H   0  0  0  0  0  0
    8.6170   39.8518   36.6270 H   0  0  0  0  0  0
    7.8571   38.0441   37.5858 H   0  0  0  0  0  0
    6.2716   41.6337   35.7658 H   0  0  0  0  0  0
    8.4324   42.6497   38.6661 H   0  0  0  0  0  0
    3.8847   43.9547   31.9259 H   0  0  0  0  0  0
    7.9604   47.8862   28.9084 H   0  0  0  0  0  0
    9.1707   47.5151   30.1018 H   0  0  0  0  0  0
    9.6944   45.4326   28.7958 H   0  0  0  0  0  0
   10.2275   45.7085   25.4919 H   0  0  0  0  0  0
   10.4108   44.7756   26.9595 H   0  0  0  0  0  0
  1  4  2  0  0  0
  1 23  1  0  0  0
  1  2  1  0  0  0
  2  3  2  0  0  0
  2 40  1  0  0  0
  3  7  1  0  0  0
  3 41  1  0  0  0
  4  6  1  0  0  0
  4 42  1  0  0  0
  5  9  2  0  0  0
  5  6  1  0  0  0
  6  7  2  0  0  0
  7  8  1  0  0  0
  8  9  1  0  0  0
  8 43  1  0  0  0
  9 10  1  0  0  0
 10 11  2  0  0  0
 10 15  1  0  0  0
 11 12  1  0  0  0
 11 16  1  0  0  0
 12 13  2  0  0  0
 12 17  1  0  0  0
 13 14  1  0  0  0
 13 44  1  0  0  0
 14 15  2  0  0  0
 14 30  1  0  0  0
 15 45  1  0  0  0
 16 46  1  0  0  0
 17 22  2  0  0  0
 17 18  1  0  0  0
 18 19  2  0  0  0
 18 47  1  0  0  0
 19 20  1  0  0  0
 19 35  1  0  0  0
 20 21  2  0  0  0
 20 48  1  0  0  0
 21 22  1  0  0  0
 21 49  1  0  0  0
 22 34  1  0  0  0
 23 24  2  0  0  0
 23 25  1  0  0  0
 24 50  1  0  0  0
 25 51  1  0  0  0
 25 52  1  0  0  0
 26 27  1  0  0  0
 26 30  1  0  0  0
 26 53  1  0  0  0
 26 54  1  0  0  0
 27 28  1  0  0  0
 27 29  2  0  0  0
 28 55  1  0  0  0
 30 31  1  0  0  0
 30 56  1  0  0  0
 31 32  2  0  0  0
 31 33  1  0  0  0
 33 57  1  0  0  0
 34 58  1  0  0  0
 35 36  1  0  0  0
 35 59  1  0  0  0
 35 60  1  0  0  0
 36 37  1  0  0  0
 36 61  1  0  0  0
 37 38  1  0  0  0
 37 39  2  0  0  0
 38 62  1  0  0  0
 38 63  1  0  0  0
M  END
> <s_m_entry_id>
20672

> <s_m_entry_name>
dock_pv.55

> <s_m_Source_Path>
/home/csk/Desktop/cluster/DUD-E-result/fa7

> <s_m_Source_File>
dock_pv.maegz

> <i_m_Source_File_Index>
55

> <chembl_id>
CHEMBL206387

> <chembl_pref_name>
None

> <i_lp_mmshare_version>
53161

> <r_lp_tautomer_probability>
0.99999999999473

> <s_lp_Force_Field>
OPLS_2005

> <r_lp_Energy>
16.763124

> <b_lp_Chiralities_Consistent>
1

> <s_lp_Variant>
CHEMBL3991_lig288-2

> <s_i_glide_gridfile>
glide-grid_1w7x

> <i_i_glide_lignum>
366

> <i_i_glide_rotatable_bonds>
14

> <r_i_docking_score>
-6.98007338625485

> <r_i_glide_ligand_efficiency>
-0.178976240673201

> <r_i_glide_ligand_efficiency_sa>
-0.606946274657423

> <r_i_glide_ligand_efficiency_ln>
-1.49672587517905

> <r_i_glide_gscore>
-6.98007338625485

> <r_i_glide_lipo>
-1.91475414531278

> <r_i_glide_hbond>
-0.838472978614522

> <r_i_glide_metal>
0

> <r_i_glide_rewards>
-0.609460656880905

> <r_i_glide_evdw>
-39.2199897766113

> <r_i_glide_ecoul>
-14.0450811386108

> <r_i_glide_erotb>
0.58192736318526

> <r_i_glide_esite>
-0.131551309009711

> <r_i_glide_emodel>
-72.2749087116252

> <r_i_glide_energy>
-53.2650709152222

> <r_i_glide_einternal>
7.65015554428101

> <i_i_glide_confnum>
15

> <i_i_glide_posenum>
233

> <r_i_glide_eff_state_penalty>
0

> <s_user_duplicate_titles>
CHEMBL3991_lig288

> <i_f3d_flags>
0

> <s_m_subgroup_title>
dock_pv

> <s_m_subgroupid>
dock_pv

> <b_m_subgroup_collapsed>
1

$$$$
CHEMBL3991_lig158
                    3D
 Schrodinger Suite 2021-1.
 59 61  0  0  1  0            999 V2000
    7.5310   41.7655   37.0240 C   0  0  0  0  0  0
    6.4826   35.3237   36.1439 C   0  0  0  0  0  0
    9.8675   44.4179   35.6969 N   0  0  0  0  0  0
    8.5226   44.4711   35.6851 C   0  0  0  0  0  0
    7.9255   40.6453   37.6628 N   0  0  0  0  0  0
    6.9151   36.6913   36.5454 C   0  0  0  0  0  0
    5.9314   35.1169   35.0276 N   0  0  0  0  0  0
    8.0625   42.8833   37.5476 N   0  0  0  0  0  0
   10.7543   44.5457   34.5316 C   0  0  1  0  0  0
   10.6647   43.4023   33.4923 C   0  0  0  0  0  0
    6.7476   41.7779   36.0721 O   0  0  0  0  0  0
    7.8622   44.6704   34.6667 O   0  0  0  0  0  0
    6.9824   37.0918   37.8935 C   0  0  0  0  0  0
    7.2445   37.6429   35.5668 C   0  0  0  0  0  0
   10.0702   42.1735   33.8168 C   0  0  0  0  0  0
   11.1845   43.5724   32.2020 C   0  0  0  0  0  0
    7.8091   44.2364   37.0229 C   0  0  0  0  0  0
    6.7310   34.3521   37.0819 N   0  0  0  0  0  0
    7.6225   39.3305   37.2600 C   0  0  0  0  0  0
   10.5495   41.3189   31.6144 C   0  0  0  0  0  0
   10.4599   40.1994   30.5851 C   0  0  0  0  0  0
    7.5930   38.9449   35.9136 C   0  0  0  0  0  0
    7.3513   38.3881   38.2500 C   0  0  0  0  0  0
   10.0062   41.1420   32.8862 C   0  0  0  0  0  0
   11.1256   42.5404   31.2693 C   0  0  0  0  0  0
   11.6035   39.1819   30.5850 C   0  0  0  0  0  0
   10.6858   45.9724   33.9341 C   0  0  0  0  0  0
   11.9483   38.5606   29.3839 C   0  0  0  0  0  0
   12.3308   38.8790   31.7424 C   0  0  0  0  0  0
   13.4023   37.9942   31.6887 C   0  0  0  0  0  0
   13.0246   37.6789   29.3217 C   0  0  0  0  0  0
   13.7528   37.4046   30.4768 C   0  0  0  0  0  0
   10.3206   44.2635   36.5846 H   0  0  0  0  0  0
    8.3416   40.7494   38.5770 H   0  0  0  0  0  0
    5.6939   34.1429   34.9252 H   0  0  0  0  0  0
    8.6749   42.8151   38.3496 H   0  0  0  0  0  0
   11.7546   44.4447   34.9562 H   0  0  0  0  0  0
    6.7317   36.4020   38.6871 H   0  0  0  0  0  0
    7.2168   37.3794   34.5188 H   0  0  0  0  0  0
    9.6491   42.0036   34.7950 H   0  0  0  0  0  0
   11.6526   44.4981   31.9058 H   0  0  0  0  0  0
    6.7360   44.3857   36.8965 H   0  0  0  0  0  0
    8.1403   45.0037   37.7156 H   0  0  0  0  0  0
    6.4240   33.4027   36.9401 H   0  0  0  0  0  0
    7.2904   34.5580   37.9044 H   0  0  0  0  0  0
    9.5140   39.6790   30.7192 H   0  0  0  0  0  0
   10.3912   40.6535   29.5941 H   0  0  0  0  0  0
    7.8265   39.6508   35.1298 H   0  0  0  0  0  0
    7.3850   38.6600   39.2957 H   0  0  0  0  0  0
    9.5412   40.2053   33.1565 H   0  0  0  0  0  0
   11.5295   42.6913   30.2786 H   0  0  0  0  0  0
   11.5366   46.1936   33.2920 H   0  0  0  0  0  0
    9.7769   46.1159   33.3492 H   0  0  0  0  0  0
   10.6901   46.7293   34.7202 H   0  0  0  0  0  0
   11.3817   38.7802   28.4969 H   0  0  0  0  0  0
   12.0917   39.3421   32.6879 H   0  0  0  0  0  0
   13.9572   37.7791   32.5886 H   0  0  0  0  0  0
   13.2957   37.2142   28.3836 H   0  0  0  0  0  0
   14.5882   36.7220   30.4323 H   0  0  0  0  0  0
  1  5  1  0  0  0
  1  8  1  0  0  0
  1 11  2  0  0  0
  2  6  1  0  0  0
  2  7  2  0  0  0
  2 18  1  0  0  0
  3  4  1  0  0  0
  3  9  1  0  0  0
  3 33  1  0  0  0
  4 17  1  0  0  0
  4 12  2  0  0  0
  5 19  1  0  0  0
  5 34  1  0  0  0
  6 13  1  0  0  0
  6 14  2  0  0  0
  7 35  1  0  0  0
  8 17  1  0  0  0
  8 36  1  0  0  0
  9 10  1  0  0  0
  9 27  1  0  0  0
  9 37  1  0  0  0
 10 15  2  0  0  0
 10 16  1  0  0  0
 13 23  2  0  0  0
 13 38  1  0  0  0
 14 22  1  0  0  0
 14 39  1  0  0  0
 15 24  1  0  0  0
 15 40  1  0  0  0
 16 25  2  0  0  0
 16 41  1  0  0  0
 17 42  1  0  0  0
 17 43  1  0  0  0
 18 44  1  0  0  0
 18 45  1  0  0  0
 19 22  2  0  0  0
 19 23  1  0  0  0
 20 25  1  0  0  0
 20 21  1  0  0  0
 20 24  2  0  0  0
 21 26  1  0  0  0
 21 46  1  0  0  0
 21 47  1  0  0  0
 22 48  1  0  0  0
 23 49  1  0  0  0
 24 50  1  0  0  0
 25 51  1  0  0  0
 26 28  2  0  0  0
 26 29  1  0  0  0
 27 52  1  0  0  0
 27 53  1  0  0  0
 27 54  1  0  0  0
 28 31  1  0  0  0
 28 55  1  0  0  0
 29 30  2  0  0  0
 29 56  1  0  0  0
 30 32  1  0  0  0
 30 57  1  0  0  0
 31 32  2  0  0  0
 31 58  1  0  0  0
 32 59  1  0  0  0
M  END
> <s_m_entry_id>
20673

> <s_m_entry_name>
dock_pv.56

> <s_m_Source_Path>
/home/csk/Desktop/cluster/DUD-E-result/fa7

> <s_m_Source_File>
dock_pv.maegz

> <i_m_Source_File_Index>
56

> <chembl_id>
CHEMBL122151

> <chembl_pref_name>
None

> <i_lp_mmshare_version>
53161

> <r_lp_tautomer_probability>
1

> <s_lp_Force_Field>
OPLS_2005

> <r_lp_Energy>
10.042299

> <b_lp_Chiralities_Consistent>
1

> <s_lp_Variant>
CHEMBL3991_lig158-2

> <s_i_glide_gridfile>
glide-grid_1w7x

> <i_i_glide_lignum>
157

> <i_i_glide_rotatable_bonds>
11

> <r_i_docking_score>
-6.97096045677248

> <r_i_glide_ligand_efficiency>
-0.21784251427414

> <r_i_glide_ligand_efficiency_sa>
-0.691606871845359

> <r_i_glide_ligand_efficiency_ln>
-1.56098806747666

> <r_i_glide_gscore>
-6.97096045677248

> <r_i_glide_lipo>
-3.05385501612174

> <r_i_glide_hbond>
-0.562176082888339

> <r_i_glide_metal>
0

> <r_i_glide_rewards>
-0.366831977475007

> <r_i_glide_evdw>
-47.7217636108398

> <r_i_glide_ecoul>
-9.70917987823486

> <r_i_glide_erotb>
1.07723630967854

> <r_i_glide_esite>
-0.222868527688721

> <r_i_glide_emodel>
-78.1064819786831

> <r_i_glide_energy>
-57.4309434890747

> <r_i_glide_einternal>
9.09968185424805

> <i_i_glide_confnum>
86

> <i_i_glide_posenum>
284

> <r_i_glide_eff_state_penalty>
0

> <s_user_duplicate_titles>
CHEMBL3991_lig158

> <i_f3d_flags>
0

> <s_m_subgroup_title>
dock_pv

> <s_m_subgroupid>
dock_pv

> <b_m_subgroup_collapsed>
1

$$$$
CHEMBL3991_lig17
                    3D
 Schrodinger Suite 2021-1.
 87 90  0  0  1  0            999 V2000
    4.9884   41.2941   33.5959 S   0  0  0  0  0  0
    8.9933   39.2524   28.4985 C   0  0  0  0  0  0
    7.4809   39.9524   34.3251 C   0  0  2  0  0  0
    8.2347   40.4460   28.0973 C   0  0  0  0  0  0
    8.1753   40.5437   33.0611 C   0  0  0  0  0  0
    6.2390   40.6957   34.6936 N   0  0  2  0  0  0
   10.6580   40.3104   31.2834 C   0  0  0  0  0  0
   11.2260   45.5139   35.3332 C   0  0  0  0  0  0
    9.3811   41.1423   33.2022 N   0  0  0  0  0  0
   10.4873   40.4186   29.9598 N   0  0  0  0  0  0
    8.7302   41.6384   27.8531 N   0  0  0  0  0  0
   10.2321   41.5466   32.0764 C   0  0  1  0  0  0
   12.3519   44.6910   35.2789 C   0  0  0  0  0  0
   10.1923   45.3327   34.4144 C   0  0  0  0  0  0
   10.4694   39.3995   28.8998 C   0  0  1  0  0  0
   15.6679   37.5662   29.5749 C   0  0  0  0  0  0
    6.5072   40.3410   27.8759 S   0  0  0  0  0  0
   11.3654   43.4438   33.4621 C   0  0  0  0  0  0
    4.9025   40.4184   32.4241 O   0  0  0  0  0  0
    3.7976   41.5155   34.4212 O   0  0  0  0  0  0
   12.4123   43.6565   34.3579 C   0  0  0  0  0  0
   10.2601   44.3012   33.4773 C   0  0  0  0  0  0
   15.2488   37.6788   30.7573 N   0  0  0  0  0  0
   11.5164   42.3212   32.4501 C   0  0  0  0  0  0
    8.4182   39.9376   35.5566 C   0  0  0  0  0  0
    5.6516   42.9880   33.0749 C   0  0  0  0  0  0
    8.4545   38.1414   28.4967 O   0  0  0  0  0  0
    7.8058   42.5028   27.4878 C   0  0  0  0  0  0
    7.6330   40.4187   31.9638 O   0  0  0  0  0  0
   11.1128   39.3428   31.8906 O   0  0  0  0  0  0
    6.5027   42.0201   27.4292 C   0  0  0  0  0  0
   14.9144   37.6787   28.4053 N   0  0  0  0  0  0
   16.9903   37.2789   29.2971 N   0  0  0  0  0  0
   11.1321   46.4789   36.2731 F   0  0  0  0  0  0
   13.4044   44.8792   36.0970 F   0  0  0  0  0  0
    9.1227   46.1604   34.4192 F   0  0  0  0  0  0
    7.8515   39.4142   36.8624 C   0  0  0  0  0  0
    5.8589   43.9144   34.2673 C   0  0  0  0  0  0
   11.1497   38.0442   29.2381 C   0  0  0  0  0  0
   13.4714   37.7559   28.1936 C   0  0  0  0  0  0
    7.3115   40.3138   37.8085 C   0  0  0  0  0  0
    7.7494   38.0269   37.0929 C   0  0  0  0  0  0
    4.8850   44.8581   34.6033 C   0  0  0  0  0  0
    7.0180   43.8020   35.0413 C   0  0  0  0  0  0
   12.6620   38.0635   29.4558 C   0  0  0  0  0  0
    7.2021   44.6237   36.1498 C   0  0  0  0  0  0
    5.0754   45.6913   35.7031 C   0  0  0  0  0  0
    7.1679   37.5659   38.2654 C   0  0  0  0  0  0
    6.7352   39.8301   38.9744 C   0  0  0  0  0  0
    6.2329   45.5698   36.4730 C   0  0  0  0  0  0
    6.6684   38.4625   39.2014 C   0  0  0  0  0  0
    7.1967   38.9226   34.0961 H   0  0  0  0  0  0
    5.9166   40.5058   35.6447 H   0  0  0  0  0  0
    9.8047   41.2212   34.1131 H   0  0  0  0  0  0
   10.2084   41.3287   29.6233 H   0  0  0  0  0  0
    9.6199   42.1898   31.4398 H   0  0  0  0  0  0
   11.0334   39.8462   28.0964 H   0  0  0  0  0  0
   13.2896   43.0226   34.3413 H   0  0  0  0  0  0
    9.4524   44.1771   32.7717 H   0  0  0  0  0  0
   15.9631   37.5707   31.4569 H   0  0  0  0  0  0
   12.2730   41.6338   32.8382 H   0  0  0  0  0  0
   11.9309   42.7616   31.5445 H   0  0  0  0  0  0
    9.3149   39.3578   35.3349 H   0  0  0  0  0  0
    8.7308   40.9649   35.7367 H   0  0  0  0  0  0
    6.5821   42.8375   32.5334 H   0  0  0  0  0  0
    4.9305   43.4057   32.3731 H   0  0  0  0  0  0
    8.1040   43.5173   27.2576 H   0  0  0  0  0  0
    5.5934   42.5356   27.1583 H   0  0  0  0  0  0
   15.4085   37.4387   27.5565 H   0  0  0  0  0  0
   17.5341   36.9736   30.0895 H   0  0  0  0  0  0
   17.1122   36.6074   28.5524 H   0  0  0  0  0  0
   10.9074   37.2815   28.4964 H   0  0  0  0  0  0
   10.7307   37.6790   30.1617 H   0  0  0  0  0  0
   13.2624   38.4821   27.4171 H   0  0  0  0  0  0
   13.1311   36.8172   27.7737 H   0  0  0  0  0  0
    7.3561   41.3809   37.6362 H   0  0  0  0  0  0
    8.1275   37.3208   36.3667 H   0  0  0  0  0  0
    3.9850   44.9558   34.0116 H   0  0  0  0  0  0
    7.7758   43.0798   34.7864 H   0  0  0  0  0  0
   12.8666   37.2931   30.1980 H   0  0  0  0  0  0
   12.9801   39.0101   29.8900 H   0  0  0  0  0  0
    8.0984   44.5405   36.7483 H   0  0  0  0  0  0
    4.3317   46.4317   35.9554 H   0  0  0  0  0  0
    7.1074   36.5031   38.4529 H   0  0  0  0  0  0
    6.3389   40.5171   39.7072 H   0  0  0  0  0  0
    6.3831   46.2207   37.3224 H   0  0  0  0  0  0
    6.2193   38.0878   40.1087 H   0  0  0  0  0  0
  1  6  1  0  0  0
  1 19  2  0  0  0
  1 20  2  0  0  0
  1 26  1  0  0  0
  2 15  1  0  0  0
  2  4  1  0  0  0
  2 27  2  0  0  0
  3  6  1  0  0  0
  3  5  1  0  0  0
  3 25  1  0  0  0
  3 52  1  0  0  0
  4 11  2  0  0  0
  4 17  1  0  0  0
  5  9  1  0  0  0
  5 29  2  0  0  0
  6 53  1  0  0  0
  7 12  1  0  0  0
  7 10  1  0  0  0
  7 30  2  0  0  0
  8 14  1  0  0  0
  8 34  1  0  0  0
  8 13  2  0  0  0
  9 12  1  0  0  0
  9 54  1  0  0  0
 10 15  1  0  0  0
 10 55  1  0  0  0
 11 28  1  0  0  0
 12 24  1  0  0  0
 12 56  1  0  0  0
 13 21  1  0  0  0
 13 35  1  0  0  0
 14 22  2  0  0  0
 14 36  1  0  0  0
 15 39  1  0  0  0
 15 57  1  0  0  0
 16 32  1  0  0  0
 16 23  2  0  0  0
 16 33  1  0  0  0
 17 31  1  0  0  0
 18 24  1  0  0  0
 18 21  2  0  0  0
 18 22  1  0  0  0
 21 58  1  0  0  0
 22 59  1  0  0  0
 23 60  1  0  0  0
 24 61  1  0  0  0
 24 62  1  0  0  0
 25 37  1  0  0  0
 25 63  1  0  0  0
 25 64  1  0  0  0
 26 38  1  0  0  0
 26 65  1  0  0  0
 26 66  1  0  0  0
 28 31  2  0  0  0
 28 67  1  0  0  0
 31 68  1  0  0  0
 32 40  1  0  0  0
 32 69  1  0  0  0
 33 70  1  0  0  0
 33 71  1  0  0  0
 37 41  2  0  0  0
 37 42  1  0  0  0
 38 43  1  0  0  0
 38 44  2  0  0  0
 39 45  1  0  0  0
 39 72  1  0  0  0
 39 73  1  0  0  0
 40 45  1  0  0  0
 40 74  1  0  0  0
 40 75  1  0  0  0
 41 49  1  0  0  0
 41 76  1  0  0  0
 42 48  2  0  0  0
 42 77  1  0  0  0
 43 47  2  0  0  0
 43 78  1  0  0  0
 44 46  1  0  0  0
 44 79  1  0  0  0
 45 80  1  0  0  0
 45 81  1  0  0  0
 46 50  2  0  0  0
 46 82  1  0  0  0
 47 50  1  0  0  0
 47 83  1  0  0  0
 48 51  1  0  0  0
 48 84  1  0  0  0
 49 51  2  0  0  0
 49 85  1  0  0  0
 50 86  1  0  0  0
 51 87  1  0  0  0
M  END
> <s_m_entry_id>
20674

> <s_m_entry_name>
dock_pv.57

> <s_m_Source_Path>
/home/csk/Desktop/cluster/DUD-E-result/fa7

> <s_m_Source_File>
dock_pv.maegz

> <i_m_Source_File_Index>
57

> <chembl_id>
CHEMBL131401

> <chembl_pref_name>
None

> <i_lp_mmshare_version>
53161

> <r_lp_tautomer_probability>
0.99990000499975

> <s_lp_Force_Field>
OPLS_2005

> <r_lp_Energy>
14.530578

> <b_lp_Chiralities_Consistent>
1

> <s_lp_Variant>
CHEMBL3991_lig17-1

> <s_i_glide_gridfile>
glide-grid_1w7x

> <i_i_glide_lignum>
17

> <i_i_glide_rotatable_bonds>
21

> <r_i_docking_score>
-6.95084425491085

> <r_i_glide_ligand_efficiency>
-0.136291063821781

> <r_i_glide_ligand_efficiency_sa>
-0.505425837699237

> <r_i_glide_ligand_efficiency_ln>
-1.40938564591369

> <r_i_glide_gscore>
-6.95084425491085

> <r_i_glide_lipo>
-2.44862462929342

> <r_i_glide_hbond>
-0.0434376530153193

> <r_i_glide_metal>
0

> <r_i_glide_rewards>
-0.347544780677365

> <r_i_glide_evdw>
-64.0909652709961

> <r_i_glide_ecoul>
-7.99218320846558

> <r_i_glide_erotb>
0.473236961989685

> <r_i_glide_esite>
-0.18109840909479

> <r_i_glide_emodel>
-93.3279788866863

> <r_i_glide_energy>
-72.0831484794617

> <r_i_glide_einternal>
21.0874671936035

> <i_i_glide_confnum>
15

> <i_i_glide_posenum>
39

> <r_i_glide_eff_state_penalty>
0

> <s_user_duplicate_titles>
CHEMBL3991_lig17

> <i_f3d_flags>
0

> <s_m_subgroup_title>
dock_pv

> <s_m_subgroupid>
dock_pv

> <b_m_subgroup_collapsed>
1

$$$$
CHEMBL3991_lig229
                    3D
 Schrodinger Suite 2021-1.
 57 60  0  0  1  0            999 V2000
   13.4902   38.0783   29.3881 C   0  0  0  0  0  0
   13.9866   37.6854   30.6463 C   0  0  0  0  0  0
   13.4177   38.0790   31.8501 C   0  0  0  0  0  0
   12.3022   38.8427   29.3374 C   0  0  0  0  0  0
   11.6855   39.2377   30.5360 C   0  0  0  0  0  0
   12.2852   38.8790   31.7610 C   0  0  0  0  0  0
   11.4981   39.4902   32.6994 N   0  0  0  0  0  0
   10.3963   40.0162   32.0639 C   0  0  0  0  0  0
   10.5326   39.9585   30.7533 N   0  0  0  0  0  0
    9.1537   40.4791   32.7943 C   0  0  0  0  0  0
    8.8201   40.0472   34.0969 C   0  0  0  0  0  0
    7.6319   40.4548   34.7208 C   0  0  0  0  0  0
    6.7360   41.2434   34.0048 C   0  0  0  0  0  0
    7.0223   41.6788   32.7062 C   0  0  0  0  0  0
    8.2413   41.3041   32.1236 C   0  0  0  0  0  0
    5.9999   42.4820   31.8741 C   0  0  1  0  0  0
    5.2633   41.5357   30.9274 C   0  0  0  0  0  0
    4.8821   43.2373   32.6302 C   0  0  0  0  0  0
    5.4352   44.1628   33.6971 C   0  0  0  0  0  0
    6.2764   45.1033   33.1820 O   0  0  0  0  0  0
    5.1311   44.0790   34.8866 O   0  0  0  0  0  0
    5.2607   42.0036   29.6460 O   0  0  0  0  0  0
    4.7314   40.4791   31.2706 O   0  0  0  0  0  0
    9.5951   39.1238   34.7534 O   0  0  0  0  0  0
   14.2494   37.6790   28.1725 C   0  0  0  0  0  0
   15.4441   37.2790   28.2613 N   0  0  0  0  0  0
   13.5310   37.6790   27.0053 N   0  0  0  0  0  0
    7.2932   40.0411   36.1129 C   0  0  0  0  0  0
    7.5309   40.9486   37.1533 C   0  0  0  0  0  0
    7.2908   40.5991   38.4808 C   0  0  0  0  0  0
    6.7965   39.3348   38.7869 C   0  0  0  0  0  0
    6.5375   38.4250   37.7638 C   0  0  0  0  0  0
    6.7778   38.7648   36.4261 C   0  0  0  0  0  0
    6.4718   37.7247   35.3515 C   0  0  0  0  0  0
    5.1346   37.7902   34.8970 O   0  0  0  0  0  0
   14.8831   37.0843   30.7096 H   0  0  0  0  0  0
   13.8566   37.8103   32.7997 H   0  0  0  0  0  0
   11.8781   39.1589   28.3963 H   0  0  0  0  0  0
   11.6365   39.4986   33.6970 H   0  0  0  0  0  0
    5.7971   41.4951   34.4720 H   0  0  0  0  0  0
    8.4621   41.6208   31.1137 H   0  0  0  0  0  0
    6.5796   43.2047   31.2925 H   0  0  0  0  0  0
    4.2715   43.8360   31.9474 H   0  0  0  0  0  0
    4.2068   42.5326   33.1264 H   0  0  0  0  0  0
    6.3765   45.0399   32.2324 H   0  0  0  0  0  0
    5.7225   42.8355   29.5374 H   0  0  0  0  0  0
   10.0507   38.5385   34.1431 H   0  0  0  0  0  0
   15.7813   36.9335   27.3704 H   0  0  0  0  0  0
   13.9488   37.2393   26.1888 H   0  0  0  0  0  0
   12.5851   38.0424   26.9301 H   0  0  0  0  0  0
    7.9310   41.9287   36.9345 H   0  0  0  0  0  0
    7.5068   41.3030   39.2725 H   0  0  0  0  0  0
    6.6219   39.0561   39.8163 H   0  0  0  0  0  0
    6.1584   37.4451   38.0181 H   0  0  0  0  0  0
    7.1347   37.8382   34.4967 H   0  0  0  0  0  0
    6.6666   36.7202   35.7310 H   0  0  0  0  0  0
    4.5591   37.6797   35.6584 H   0  0  0  0  0  0
  1  4  2  0  0  0
  1 25  1  0  0  0
  1  2  1  0  0  0
  2  3  2  0  0  0
  2 36  1  0  0  0
  3  6  1  0  0  0
  3 37  1  0  0  0
  4  5  1  0  0  0
  4 38  1  0  0  0
  5  9  1  0  0  0
  5  6  2  0  0  0
  6  7  1  0  0  0
  7  8  1  0  0  0
  7 39  1  0  0  0
  8  9  2  0  0  0
  8 10  1  0  0  0
 10 11  2  0  0  0
 10 15  1  0  0  0
 11 24  1  0  0  0
 11 12  1  0  0  0
 12 13  2  0  0  0
 12 28  1  0  0  0
 13 14  1  0  0  0
 13 40  1  0  0  0
 14 15  2  0  0  0
 14 16  1  0  0  0
 15 41  1  0  0  0
 16 17  1  0  0  0
 16 18  1  0  0  0
 16 42  1  0  0  0
 17 22  1  0  0  0
 17 23  2  0  0  0
 18 19  1  0  0  0
 18 43  1  0  0  0
 18 44  1  0  0  0
 19 20  1  0  0  0
 19 21  2  0  0  0
 20 45  1  0  0  0
 22 46  1  0  0  0
 24 47  1  0  0  0
 25 26  2  0  0  0
 25 27  1  0  0  0
 26 48  1  0  0  0
 27 49  1  0  0  0
 27 50  1  0  0  0
 28 29  2  0  0  0
 28 33  1  0  0  0
 29 30  1  0  0  0
 29 51  1  0  0  0
 30 31  2  0  0  0
 30 52  1  0  0  0
 31 32  1  0  0  0
 31 53  1  0  0  0
 32 33  2  0  0  0
 32 54  1  0  0  0
 33 34  1  0  0  0
 34 35  1  0  0  0
 34 55  1  0  0  0
 34 56  1  0  0  0
 35 57  1  0  0  0
M  END
> <s_m_entry_id>
20675

> <s_m_entry_name>
dock_pv.58

> <s_m_Source_Path>
/home/csk/Desktop/cluster/DUD-E-result/fa7

> <s_m_Source_File>
dock_pv.maegz

> <i_m_Source_File_Index>
58

> <chembl_id>
CHEMBL438973

> <chembl_pref_name>
None

> <i_lp_mmshare_version>
53161

> <r_lp_tautomer_probability>
0.999999999997365

> <s_lp_Force_Field>
OPLS_2005

> <r_lp_Energy>
23.061994

> <b_lp_Chiralities_Consistent>
1

> <s_lp_Variant>
CHEMBL3991_lig229-2

> <s_i_glide_gridfile>
glide-grid_1w7x

> <i_i_glide_lignum>
267

> <i_i_glide_rotatable_bonds>
12

> <r_i_docking_score>
-6.9486557583934

> <r_i_glide_ligand_efficiency>
-0.198533021668383

> <r_i_glide_ligand_efficiency_sa>
-0.649414677869757

> <r_i_glide_ligand_efficiency_ln>
-1.52538415607291

> <r_i_glide_gscore>
-6.9486557583934

> <r_i_glide_lipo>
-2.02441834898175

> <r_i_glide_hbond>
-0.737355936291954

> <r_i_glide_metal>
0

> <r_i_glide_rewards>
-0.793462281603803

> <r_i_glide_evdw>
-37.327579498291

> <r_i_glide_ecoul>
-13.8082036972046

> <r_i_glide_erotb>
0.629210170869355

> <r_i_glide_esite>
-0.085019832890012

> <r_i_glide_emodel>
-66.652298473293

> <r_i_glide_energy>
-51.1357831954956

> <r_i_glide_einternal>
10.0154514312744

> <i_i_glide_confnum>
37

> <i_i_glide_posenum>
368

> <r_i_glide_eff_state_penalty>
0

> <s_user_duplicate_titles>
CHEMBL3991_lig229

> <i_f3d_flags>
0

> <s_m_subgroup_title>
dock_pv

> <s_m_subgroupid>
dock_pv

> <b_m_subgroup_collapsed>
1

$$$$
CHEMBL3991_lig221
                    3D
 Schrodinger Suite 2021-1.
 33 36  0  0  1  0            999 V2000
   13.4995   38.0777   29.3453 C   0  0  0  0  0  0
   13.9864   37.6790   30.6037 C   0  0  0  0  0  0
   13.4149   38.0757   31.8070 C   0  0  0  0  0  0
   12.3302   38.8648   29.2970 C   0  0  0  0  0  0
   10.6300   40.0790   30.6746 N   0  0  0  0  0  0
   11.7206   39.2689   30.4872 C   0  0  0  0  0  0
   12.2895   38.8799   31.7176 C   0  0  0  0  0  0
   11.5310   39.5431   32.6476 N   0  0  0  0  0  0
   10.5649   40.2529   31.9735 C   0  0  0  0  0  0
   14.2557   37.6790   28.1293 C   0  0  0  0  0  0
   15.4500   37.2790   28.2171 N   0  0  0  0  0  0
   13.5310   37.6790   26.9659 N   0  0  0  0  0  0
    8.3880   41.3592   32.2606 N   0  0  0  0  0  0
    9.6192   41.1283   32.6531 C   0  0  0  0  0  0
    9.9528   41.8209   33.7955 N   0  0  0  0  0  0
    8.8534   42.5535   34.1733 C   0  0  0  0  0  0
    8.5949   43.4356   35.2270 C   0  0  0  0  0  0
    7.3216   44.0113   35.2578 C   0  0  0  0  0  0
    6.3545   43.7211   34.2929 C   0  0  0  0  0  0
    6.6161   42.8333   33.2463 C   0  0  0  0  0  0
    7.8863   42.2415   33.1834 C   0  0  0  0  0  0
   14.8818   37.0778   30.6604 H   0  0  0  0  0  0
   13.8618   37.8252   32.7546 H   0  0  0  0  0  0
   11.9315   39.2364   28.3711 H   0  0  0  0  0  0
   11.6611   39.5602   33.6461 H   0  0  0  0  0  0
   15.7849   36.9288   27.3268 H   0  0  0  0  0  0
   13.9429   37.2347   26.1484 H   0  0  0  0  0  0
   12.5854   38.0473   26.8978 H   0  0  0  0  0  0
   10.8713   41.7950   34.2123 H   0  0  0  0  0  0
    9.3376   43.6800   35.9730 H   0  0  0  0  0  0
    7.0858   44.7141   36.0449 H   0  0  0  0  0  0
    5.3912   44.2075   34.3476 H   0  0  0  0  0  0
    5.8690   42.6215   32.4958 H   0  0  0  0  0  0
  1 10  1  0  0  0
  1  2  2  0  0  0
  1  4  1  0  0  0
  2  3  1  0  0  0
  2 22  1  0  0  0
  3  7  2  0  0  0
  3 23  1  0  0  0
  4  6  2  0  0  0
  4 24  1  0  0  0
  5  6  1  0  0  0
  5  9  2  0  0  0
  6  7  1  0  0  0
  7  8  1  0  0  0
  8  9  1  0  0  0
  8 25  1  0  0  0
  9 14  1  0  0  0
 10 11  2  0  0  0
 10 12  1  0  0  0
 11 26  1  0  0  0
 12 27  1  0  0  0
 12 28  1  0  0  0
 13 14  2  0  0  0
 13 21  1  0  0  0
 14 15  1  0  0  0
 15 16  1  0  0  0
 15 29  1  0  0  0
 16 21  2  0  0  0
 16 17  1  0  0  0
 17 18  2  0  0  0
 17 30  1  0  0  0
 18 19  1  0  0  0
 18 31  1  0  0  0
 19 20  2  0  0  0
 19 32  1  0  0  0
 20 21  1  0  0  0
 20 33  1  0  0  0
M  END
> <s_m_entry_id>
20676

> <s_m_entry_name>
dock_pv.59

> <s_m_Source_Path>
/home/csk/Desktop/cluster/DUD-E-result/fa7

> <s_m_Source_File>
dock_pv.maegz

> <i_m_Source_File_Index>
59

> <chembl_id>
CHEMBL202010

> <chembl_pref_name>
None

> <i_lp_mmshare_version>
53161

> <r_lp_tautomer_probability>
1

> <s_lp_Force_Field>
OPLS_2005

> <r_lp_Energy>
1.66055

> <b_lp_Chiralities_Consistent>
1

> <s_lp_Variant>
CHEMBL3991_lig221-1

> <s_i_glide_gridfile>
glide-grid_1w7x

> <i_i_glide_lignum>
252

> <i_i_glide_rotatable_bonds>
2

> <r_i_docking_score>
-6.94360665333642

> <r_i_glide_ligand_efficiency>
-0.330647935873163

> <r_i_glide_ligand_efficiency_sa>
-0.912232583225213

> <r_i_glide_ligand_efficiency_ln>
-1.71679271415906

> <r_i_glide_gscore>
-6.94360665333642

> <r_i_glide_lipo>
-1.74578118889152

> <r_i_glide_hbond>
-0.502000526126119

> <r_i_glide_metal>
0

> <r_i_glide_rewards>
-2.24968602100187

> <r_i_glide_evdw>
-26.7017211914062

> <r_i_glide_ecoul>
-8.58139896392822

> <r_i_glide_erotb>
0.235647013190032

> <r_i_glide_esite>
-0.0594900263474005

> <r_i_glide_emodel>
-48.1392210790512

> <r_i_glide_energy>
-35.2831201553345

> <r_i_glide_einternal>
2.03483748435974

> <i_i_glide_confnum>
1

> <i_i_glide_posenum>
241

> <r_i_glide_eff_state_penalty>
0

> <s_user_duplicate_titles>
CHEMBL3991_lig221,338850

> <i_f3d_flags>
0

> <s_m_subgroup_title>
dock_pv

> <s_m_subgroupid>
dock_pv

> <b_m_subgroup_collapsed>
1

$$$$
CHEMBL3991_lig414
                    3D
 Schrodinger Suite 2021-1.
 80 84  0  0  1  0            999 V2000
    9.1674   47.0253   27.2483 C   0  0  0  0  0  0
   10.2351   46.1052   27.8730 C   0  0  1  0  0  0
   11.0640   45.2979   26.8499 C   0  0  0  0  0  0
   11.5308   46.0769   25.7592 O   0  0  0  0  0  0
   11.1314   46.8471   28.7091 O   0  0  0  0  0  0
   10.6903   47.0810   29.9930 C   0  0  0  0  0  0
   10.1537   48.3383   30.3071 C   0  0  0  0  0  0
   10.1541   49.3286   29.3834 F   0  0  0  0  0  0
    9.5671   48.5670   31.5525 C   0  0  0  0  0  0
    9.5188   47.5366   32.4891 C   0  0  0  0  0  0
    8.7903   47.6794   33.6666 N   0  0  0  0  0  0
    7.5858   47.0220   33.8662 C   0  0  0  0  0  0
    6.9848   46.3519   33.0207 O   0  0  0  0  0  0
    7.1665   47.2001   35.1376 O   0  0  0  0  0  0
    6.0181   46.5020   35.6277 C   0  0  0  0  0  0
    6.3463   45.1734   36.3649 C   0  0  2  0  0  0
    6.8271   45.4672   37.8061 C   0  0  0  0  0  0
    7.2701   44.2266   35.5641 C   0  0  0  0  0  0
    8.6270   44.1357   35.9037 C   0  0  0  0  0  0
    9.5025   43.3606   35.1539 C   0  0  0  0  0  0
    9.0611   42.6414   34.0384 C   0  0  0  0  0  0
    7.6987   42.6854   33.7226 C   0  0  0  0  0  0
    6.8041   43.4747   34.4610 C   0  0  0  0  0  0
    5.3504   43.5163   34.0016 C   0  0  0  0  0  0
   10.0906   41.9200   33.1845 C   0  0  1  0  0  0
    9.6056   40.8519   32.3119 N   0  0  0  0  0  0
   10.4541   40.0797   31.4997 C   0  0  0  0  0  0
   10.2301   40.0109   30.1269 C   0  0  0  0  0  0
   11.0803   39.2780   29.2968 C   0  0  0  0  0  0
   12.2130   38.6056   29.8277 C   0  0  0  0  0  0
   13.2046   37.9030   29.0648 C   0  0  0  0  0  0
   13.1310   37.6896   27.6970 N   0  0  0  0  0  0
   14.3411   37.4075   29.5904 N   0  0  0  0  0  0
   14.5339   37.5526   30.9114 C   0  0  0  0  0  0
   13.5875   38.0791   31.7787 C   0  0  0  0  0  0
   12.4257   38.6702   31.2383 C   0  0  0  0  0  0
   11.5294   39.3951   32.0582 C   0  0  0  0  0  0
   10.9381   42.9934   32.4315 C   0  0  0  0  0  0
   11.9314   43.3898   33.0434 O   0  0  0  0  0  0
   10.5543   43.5567   31.2482 N   0  0  0  0  0  0
    9.2681   43.3481   30.5718 C   0  0  0  0  0  0
   11.3142   44.6866   30.6749 C   0  0  0  0  0  0
   10.7302   46.0731   30.9742 C   0  0  0  0  0  0
   10.1367   46.3179   32.2179 C   0  0  0  0  0  0
    8.5388   46.4801   26.5444 H   0  0  0  0  0  0
    8.5109   47.4405   28.0137 H   0  0  0  0  0  0
    9.6191   47.8622   26.7176 H   0  0  0  0  0  0
    9.6954   45.3660   28.4677 H   0  0  0  0  0  0
   10.4525   44.4790   26.4752 H   0  0  0  0  0  0
   11.9219   44.8342   27.3369 H   0  0  0  0  0  0
   10.8857   46.0256   25.0386 H   0  0  0  0  0  0
    9.1044   49.5206   31.7617 H   0  0  0  0  0  0
    9.1191   48.3205   34.3783 H   0  0  0  0  0  0
    5.3071   46.3193   34.8220 H   0  0  0  0  0  0
    5.4965   47.1689   36.3139 H   0  0  0  0  0  0
    5.4052   44.6488   36.4970 H   0  0  0  0  0  0
    7.1309   44.5594   38.3294 H   0  0  0  0  0  0
    7.6772   46.1485   37.8152 H   0  0  0  0  0  0
    6.0420   45.9356   38.4005 H   0  0  0  0  0  0
    9.0388   44.6967   36.7292 H   0  0  0  0  0  0
   10.5500   43.3546   35.4190 H   0  0  0  0  0  0
    7.3350   42.1461   32.8602 H   0  0  0  0  0  0
    5.1207   42.7097   33.3059 H   0  0  0  0  0  0
    4.6630   43.4072   34.8349 H   0  0  0  0  0  0
    5.1319   44.4612   33.5069 H   0  0  0  0  0  0
   10.7563   41.4179   33.8914 H   0  0  0  0  0  0
    9.0318   40.2291   32.8620 H   0  0  0  0  0  0
    9.3959   40.5383   29.6886 H   0  0  0  0  0  0
   10.8999   39.2794   28.2356 H   0  0  0  0  0  0
   12.3681   38.0792   27.1474 H   0  0  0  0  0  0
   13.8522   37.1231   27.2637 H   0  0  0  0  0  0
   15.5059   37.2790   31.2862 H   0  0  0  0  0  0
   13.7949   38.1623   32.8370 H   0  0  0  0  0  0
   11.7312   39.4531   33.1177 H   0  0  0  0  0  0
    9.4364   43.0435   29.5382 H   0  0  0  0  0  0
    8.6201   42.6079   31.0308 H   0  0  0  0  0  0
    8.6984   44.2784   30.5543 H   0  0  0  0  0  0
   11.4224   44.5275   29.6041 H   0  0  0  0  0  0
   12.3316   44.7004   31.0622 H   0  0  0  0  0  0
   10.1051   45.5452   32.9716 H   0  0  0  0  0  0
  1  2  1  0  0  0
  1 45  1  0  0  0
  1 46  1  0  0  0
  1 47  1  0  0  0
  2  3  1  0  0  0
  2  5  1  0  0  0
  2 48  1  0  0  0
  3  4  1  0  0  0
  3 49  1  0  0  0
  3 50  1  0  0  0
  4 51  1  0  0  0
  5  6  1  0  0  0
  6  7  2  0  0  0
  6 43  1  0  0  0
  7  8  1  0  0  0
  7  9  1  0  0  0
  9 10  2  0  0  0
  9 52  1  0  0  0
 10 11  1  0  0  0
 10 44  1  0  0  0
 11 12  1  0  0  0
 11 53  1  0  0  0
 12 13  2  0  0  0
 12 14  1  0  0  0
 14 15  1  0  0  0
 15 16  1  0  0  0
 15 54  1  0  0  0
 15 55  1  0  0  0
 16 17  1  0  0  0
 16 18  1  0  0  0
 16 56  1  0  0  0
 17 57  1  0  0  0
 17 58  1  0  0  0
 17 59  1  0  0  0
 18 19  2  0  0  0
 18 23  1  0  0  0
 19 20  1  0  0  0
 19 60  1  0  0  0
 20 21  2  0  0  0
 20 61  1  0  0  0
 21 22  1  0  0  0
 21 25  1  0  0  0
 22 23  2  0  0  0
 22 62  1  0  0  0
 23 24  1  0  0  0
 24 63  1  0  0  0
 24 64  1  0  0  0
 24 65  1  0  0  0
 25 26  1  0  0  0
 25 38  1  0  0  0
 25 66  1  0  0  0
 26 27  1  0  0  0
 26 67  1  0  0  0
 27 28  2  0  0  0
 27 37  1  0  0  0
 28 29  1  0  0  0
 28 68  1  0  0  0
 29 30  2  0  0  0
 29 69  1  0  0  0
 30 31  1  0  0  0
 30 36  1  0  0  0
 31 32  1  0  0  0
 31 33  2  0  0  0
 32 70  1  0  0  0
 32 71  1  0  0  0
 33 34  1  0  0  0
 34 35  2  0  0  0
 34 72  1  0  0  0
 35 36  1  0  0  0
 35 73  1  0  0  0
 36 37  2  0  0  0
 37 74  1  0  0  0
 38 39  2  0  0  0
 38 40  1  0  0  0
 40 41  1  0  0  0
 40 42  1  0  0  0
 41 75  1  0  0  0
 41 76  1  0  0  0
 41 77  1  0  0  0
 42 43  1  0  0  0
 42 78  1  0  0  0
 42 79  1  0  0  0
 43 44  2  0  0  0
 44 80  1  0  0  0
M  END
> <s_m_entry_id>
20677

> <s_m_entry_name>
dock_pv.60

> <s_m_Source_Path>
/home/csk/Desktop/cluster/DUD-E-result/fa7

> <s_m_Source_File>
dock_pv.maegz

> <i_m_Source_File_Index>
60

> <chembl_id>
CHEMBL3977297

> <chembl_pref_name>
None

> <i_lp_mmshare_version>
53161

> <r_lp_tautomer_probability>
1

> <s_lp_Force_Field>
OPLS_2005

> <r_lp_Energy>
51.083484

> <b_lp_Chiralities_Consistent>
1

> <s_lp_Variant>
CHEMBL3991_lig414-1

> <s_i_glide_gridfile>
glide-grid_1w7x

> <i_i_glide_lignum>
558

> <i_i_glide_rotatable_bonds>
6

> <r_i_docking_score>
-6.92335281591694

> <r_i_glide_ligand_efficiency>
-0.157348927634476

> <r_i_glide_ligand_efficiency_sa>
-0.555496524039012

> <r_i_glide_ligand_efficiency_ln>
-1.44713177062062

> <r_i_glide_gscore>
-6.92335281591694

> <r_i_glide_lipo>
-2.5450556740628

> <r_i_glide_hbond>
-0.579109544963577

> <r_i_glide_metal>
0

> <r_i_glide_rewards>
0.304357464043537

> <r_i_glide_evdw>
-45.3335189819336

> <r_i_glide_ecoul>
-13.2959718704224

> <r_i_glide_erotb>
0.172164267053949

> <r_i_glide_esite>
-0.0146375983280197

> <r_i_glide_emodel>
-70.9191896935053

> <r_i_glide_energy>
-58.629490852356

> <r_i_glide_einternal>
9.91877841949463

> <i_i_glide_confnum>
12

> <i_i_glide_posenum>
47

> <r_i_glide_eff_state_penalty>
0

> <s_user_duplicate_titles>
CHEMBL3991_lig414

> <i_f3d_flags>
0

> <s_m_subgroup_title>
dock_pv

> <s_m_subgroupid>
dock_pv

> <b_m_subgroup_collapsed>
1

$$$$
CHEMBL3991_lig434
                    3D
 Schrodinger Suite 2021-1.
 57 60  0  0  1  0            999 V2000
   13.8887   37.6790   30.6088 C   0  0  0  0  0  0
   13.3976   38.0677   29.3561 C   0  0  0  0  0  0
   12.2262   38.8456   29.2970 C   0  0  0  0  0  0
   11.5832   39.2599   30.4646 C   0  0  0  0  0  0
   12.1148   38.8790   31.7008 C   0  0  0  0  0  0
   13.2489   38.0790   31.7724 C   0  0  0  0  0  0
   10.4371   40.0668   30.3751 N   0  0  0  0  0  0
    9.7456   40.7384   31.4638 C   0  0  1  0  0  0
   10.6342   41.9025   31.9834 C   0  0  0  0  0  0
   10.7483   42.0139   33.3184 N   0  0  0  0  0  0
   11.3375   43.1775   33.9861 C   0  0  0  0  0  0
   10.5047   44.4629   33.9444 C   0  0  0  0  0  0
   11.1310   45.6833   34.2096 C   0  0  0  0  0  0
   10.4278   46.8790   34.0831 C   0  0  0  0  0  0
    9.0876   46.8716   33.6970 C   0  0  0  0  0  0
    8.4361   45.6611   33.4520 C   0  0  0  0  0  0
    9.1487   44.4605   33.5823 C   0  0  0  0  0  0
    7.1107   45.7051   32.9945 N   0  0  0  0  0  0
    6.1432   44.7161   33.1133 C   0  0  0  0  0  0
    5.1448   44.9786   32.2395 O   0  0  0  0  0  0
    4.1664   43.9916   31.9024 C   0  0  0  0  0  0
    4.5395   43.1840   30.6333 C   0  0  0  0  0  0
    5.8624   42.4321   30.7347 C   0  0  0  0  0  0
    6.9244   42.7615   29.8890 C   0  0  0  0  0  0
    8.1702   42.1671   30.0717 C   0  0  0  0  0  0
    8.3681   41.2537   31.1158 C   0  0  0  0  0  0
    7.2822   40.8790   31.9140 C   0  0  0  0  0  0
    6.0321   41.4552   31.7168 C   0  0  0  0  0  0
    6.1752   43.7386   33.8665 O   0  0  0  0  0  0
   11.1310   42.7076   31.1919 O   0  0  0  0  0  0
   14.1739   37.6790   28.1237 C   0  0  0  0  0  0
   13.5310   37.6790   26.9581 N   0  0  0  0  0  0
   15.3502   37.3303   28.2013 O   0  0  0  0  0  0
   14.7859   37.0814   30.6910 H   0  0  0  0  0  0
   11.8392   39.1813   28.3469 H   0  0  0  0  0  0
   11.6656   39.1953   32.6282 H   0  0  0  0  0  0
   13.6483   37.7973   32.7353 H   0  0  0  0  0  0
   10.1212   40.2890   29.4413 H   0  0  0  0  0  0
    9.6655   40.0142   32.2761 H   0  0  0  0  0  0
   10.2780   41.3421   33.9042 H   0  0  0  0  0  0
   12.3233   43.3750   33.5570 H   0  0  0  0  0  0
   11.5181   42.9311   35.0305 H   0  0  0  0  0  0
   12.1726   45.7127   34.4970 H   0  0  0  0  0  0
   10.9283   47.8159   34.2715 H   0  0  0  0  0  0
    8.5660   47.8123   33.5910 H   0  0  0  0  0  0
    8.6583   43.5261   33.3562 H   0  0  0  0  0  0
    6.8490   46.5193   32.4611 H   0  0  0  0  0  0
    3.2255   44.5118   31.7209 H   0  0  0  0  0  0
    3.9765   43.3204   32.7419 H   0  0  0  0  0  0
    4.5646   43.8611   29.7781 H   0  0  0  0  0  0
    3.7502   42.4644   30.4146 H   0  0  0  0  0  0
    6.8038   43.5116   29.1210 H   0  0  0  0  0  0
    9.0002   42.4692   29.4484 H   0  0  0  0  0  0
    7.4132   40.1754   32.7229 H   0  0  0  0  0  0
    5.2167   41.1960   32.3754 H   0  0  0  0  0  0
   14.0259   37.3045   26.1525 H   0  0  0  0  0  0
   12.5820   38.0298   26.8603 H   0  0  0  0  0  0
  1  2  2  0  0  0
  1  6  1  0  0  0
  1 34  1  0  0  0
  2  3  1  0  0  0
  2 31  1  0  0  0
  3  4  2  0  0  0
  3 35  1  0  0  0
  4  5  1  0  0  0
  4  7  1  0  0  0
  5  6  2  0  0  0
  5 36  1  0  0  0
  6 37  1  0  0  0
  7  8  1  0  0  0
  7 38  1  0  0  0
  8  9  1  0  0  0
  8 26  1  0  0  0
  8 39  1  0  0  0
  9 10  1  0  0  0
  9 30  2  0  0  0
 10 11  1  0  0  0
 10 40  1  0  0  0
 11 12  1  0  0  0
 11 41  1  0  0  0
 11 42  1  0  0  0
 12 13  2  0  0  0
 12 17  1  0  0  0
 13 14  1  0  0  0
 13 43  1  0  0  0
 14 15  2  0  0  0
 14 44  1  0  0  0
 15 16  1  0  0  0
 15 45  1  0  0  0
 16 17  2  0  0  0
 16 18  1  0  0  0
 17 46  1  0  0  0
 18 19  1  0  0  0
 18 47  1  0  0  0
 19 20  1  0  0  0
 19 29  2  0  0  0
 20 21  1  0  0  0
 21 22  1  0  0  0
 21 48  1  0  0  0
 21 49  1  0  0  0
 22 23  1  0  0  0
 22 50  1  0  0  0
 22 51  1  0  0  0
 23 24  2  0  0  0
 23 28  1  0  0  0
 24 25  1  0  0  0
 24 52  1  0  0  0
 25 26  2  0  0  0
 25 53  1  0  0  0
 26 27  1  0  0  0
 27 28  2  0  0  0
 27 54  1  0  0  0
 28 55  1  0  0  0
 31 32  1  0  0  0
 31 33  2  0  0  0
 32 56  1  0  0  0
 32 57  1  0  0  0
M  END
> <s_m_entry_id>
20678

> <s_m_entry_name>
dock_pv.61

> <s_m_Source_Path>
/home/csk/Desktop/cluster/DUD-E-result/fa7

> <s_m_Source_File>
dock_pv.maegz

> <i_m_Source_File_Index>
61

> <chembl_id>
CHEMBL4079760

> <chembl_pref_name>
None

> <i_lp_mmshare_version>
53161

> <r_lp_tautomer_probability>
1

> <s_lp_Force_Field>
OPLS_2005

> <r_lp_Energy>
22.054093

> <b_lp_Chiralities_Consistent>
1

> <s_lp_Variant>
CHEMBL3991_lig434-2

> <s_i_glide_gridfile>
glide-grid_1w7x

> <i_i_glide_lignum>
586

> <i_i_glide_rotatable_bonds>
3

> <r_i_docking_score>
-6.92243653251032

> <r_i_glide_ligand_efficiency>
-0.209770804015464

> <r_i_glide_ligand_efficiency_sa>
-0.672847054526223

> <r_i_glide_ligand_efficiency_ln>
-1.53951404237218

> <r_i_glide_gscore>
-6.92243653251032

> <r_i_glide_lipo>
-2.54398034913743

> <r_i_glide_hbond>
-0.456

> <r_i_glide_metal>
0

> <r_i_glide_rewards>
-0.939933350781589

> <r_i_glide_evdw>
-37.3879852294922

> <r_i_glide_ecoul>
-8.37427234649658

> <r_i_glide_erotb>
0.20246854338117

> <r_i_glide_esite>
-0.0594512625233741

> <r_i_glide_emodel>
-58.9890412213702

> <r_i_glide_energy>
-45.7622575759888

> <r_i_glide_einternal>
7.73764896392822

> <i_i_glide_confnum>
2

> <i_i_glide_posenum>
65

> <r_i_glide_eff_state_penalty>
0

> <s_user_duplicate_titles>
CHEMBL3991_lig434

> <i_f3d_flags>
0

> <s_m_subgroup_title>
dock_pv

> <s_m_subgroupid>
dock_pv

> <b_m_subgroup_collapsed>
1

$$$$
CHEMBL3991_lig371
                    3D
 Schrodinger Suite 2021-1.
 56 58  0  0  1  0            999 V2000
    7.8267   41.6256   35.5377 C   0  0  0  0  0  0
    8.7743   41.6373   34.4970 C   0  0  0  0  0  0
    9.4478   40.4748   34.0970 C   0  0  0  0  0  0
    9.1310   39.2794   34.7607 C   0  0  0  0  0  0
    8.1844   39.2491   35.7800 C   0  0  0  0  0  0
    7.5227   40.4172   36.1858 C   0  0  0  0  0  0
   10.5646   40.5781   33.0275 C   0  0  1  0  0  0
   11.2341   39.2854   32.7807 N   0  0  0  0  0  0
   11.9469   38.9073   31.6280 C   0  0  0  0  0  0
   11.5084   39.1381   30.3246 C   0  0  0  0  0  0
   12.2880   38.7473   29.2442 C   0  0  0  0  0  0
   13.5089   38.0790   29.4288 C   0  0  0  0  0  0
   13.8987   37.7886   30.7461 C   0  0  0  0  0  0
   13.1310   38.1980   31.8270 C   0  0  0  0  0  0
   14.3794   37.6790   28.2945 C   0  0  0  0  0  0
   15.5560   37.2790   28.4970 N   0  0  0  0  0  0
   13.7756   37.6790   27.0635 N   0  0  0  0  0  0
    7.1835   42.7646   35.9947 O   0  0  0  0  0  0
    7.6614   44.0478   35.5974 C   0  0  0  0  0  0
    7.0205   45.1079   36.4970 C   0  0  0  0  0  0
    6.5862   40.4790   37.2099 O   0  0  0  0  0  0
    6.3221   39.4012   38.1185 C   0  0  0  0  0  0
    7.5387   38.9686   38.9622 C   0  0  0  0  0  0
   10.1819   41.4220   31.8135 C   0  0  0  0  0  0
    8.9405   41.3966   31.2273 N   0  0  0  0  0  0
    9.0028   42.2410   30.1540 C   0  0  0  0  0  0
   10.3047   42.7189   30.1674 C   0  0  0  0  0  0
   11.0071   42.2232   31.1735 N   0  0  0  0  0  0
    5.5182   38.2466   37.4883 C   0  0  0  0  0  0
    9.0234   42.5650   34.0041 H   0  0  0  0  0  0
    9.6221   38.3526   34.5018 H   0  0  0  0  0  0
    8.0026   38.2979   36.2497 H   0  0  0  0  0  0
   11.3419   41.1483   33.5414 H   0  0  0  0  0  0
   11.6589   38.9006   33.6153 H   0  0  0  0  0  0
   10.5671   39.6165   30.1184 H   0  0  0  0  0  0
   11.9310   38.9992   28.2577 H   0  0  0  0  0  0
   14.8242   37.2686   30.9484 H   0  0  0  0  0  0
   13.4923   37.9916   32.8243 H   0  0  0  0  0  0
   15.9642   36.9440   27.6332 H   0  0  0  0  0  0
   14.2413   37.2151   26.2846 H   0  0  0  0  0  0
   12.8321   38.0169   26.9272 H   0  0  0  0  0  0
    8.7465   44.1112   35.7028 H   0  0  0  0  0  0
    7.4107   44.2362   34.5523 H   0  0  0  0  0  0
    7.3627   46.1069   36.2258 H   0  0  0  0  0  0
    5.9340   45.0932   36.4147 H   0  0  0  0  0  0
    7.2834   44.9429   37.5430 H   0  0  0  0  0  0
    5.6351   39.8489   38.8380 H   0  0  0  0  0  0
    7.2607   38.2023   39.6867 H   0  0  0  0  0  0
    7.9311   39.8161   39.5254 H   0  0  0  0  0  0
    8.3597   38.5658   38.3737 H   0  0  0  0  0  0
    8.1570   42.4080   29.5027 H   0  0  0  0  0  0
   10.7395   43.4061   29.4556 H   0  0  0  0  0  0
    8.1456   40.8528   31.5306 H   0  0  0  0  0  0
    5.3270   37.4612   38.2205 H   0  0  0  0  0  0
    4.5492   38.6016   37.1380 H   0  0  0  0  0  0
    6.0095   37.7795   36.6390 H   0  0  0  0  0  0
  1  2  2  0  0  0
  1  6  1  0  0  0
  1 18  1  0  0  0
  2  3  1  0  0  0
  2 30  1  0  0  0
  3  4  2  0  0  0
  3  7  1  0  0  0
  4  5  1  0  0  0
  4 31  1  0  0  0
  5  6  2  0  0  0
  5 32  1  0  0  0
  6 21  1  0  0  0
  7  8  1  0  0  0
  7 33  1  0  0  0
  7 24  1  0  0  0
  8  9  1  0  0  0
  8 34  1  0  0  0
  9 10  2  0  0  0
  9 14  1  0  0  0
 10 11  1  0  0  0
 10 35  1  0  0  0
 11 12  2  0  0  0
 11 36  1  0  0  0
 12 13  1  0  0  0
 12 15  1  0  0  0
 13 14  2  0  0  0
 13 37  1  0  0  0
 14 38  1  0  0  0
 15 16  2  0  0  0
 15 17  1  0  0  0
 16 39  1  0  0  0
 17 40  1  0  0  0
 17 41  1  0  0  0
 18 19  1  0  0  0
 19 20  1  0  0  0
 19 42  1  0  0  0
 19 43  1  0  0  0
 20 44  1  0  0  0
 20 45  1  0  0  0
 20 46  1  0  0  0
 21 22  1  0  0  0
 22 23  1  0  0  0
 22 29  1  0  0  0
 22 47  1  0  0  0
 23 48  1  0  0  0
 23 49  1  0  0  0
 23 50  1  0  0  0
 24 25  1  0  0  0
 24 28  2  0  0  0
 25 26  1  0  0  0
 25 53  1  0  0  0
 26 27  2  0  0  0
 26 51  1  0  0  0
 27 52  1  0  0  0
 27 28  1  0  0  0
 29 54  1  0  0  0
 29 55  1  0  0  0
 29 56  1  0  0  0
M  END
> <s_m_entry_id>
20679

> <s_m_entry_name>
dock_pv.62

> <s_m_Source_Path>
/home/csk/Desktop/cluster/DUD-E-result/fa7

> <s_m_Source_File>
dock_pv.maegz

> <i_m_Source_File_Index>
62

> <chembl_id>
CHEMBL3403460

> <chembl_pref_name>
None

> <i_lp_mmshare_version>
53161

> <r_lp_tautomer_probability>
0.499999999999999

> <s_lp_Force_Field>
OPLS_2005

> <r_lp_Energy>
14.56287

> <b_lp_Chiralities_Consistent>
1

> <s_lp_Variant>
CHEMBL3991_lig371-2

> <s_i_glide_gridfile>
glide-grid_1w7x

> <i_i_glide_lignum>
508

> <i_i_glide_rotatable_bonds>
9

> <r_i_docking_score>
-6.91664632194469

> <r_i_glide_ligand_efficiency>
-0.2385050455843

> <r_i_glide_ligand_efficiency_sa>
-0.732763063737138

> <r_i_glide_ligand_efficiency_ln>
-1.58373661670776

> <r_i_glide_gscore>
-6.91664632194469

> <r_i_glide_lipo>
-2.50616150829728

> <r_i_glide_hbond>
-0.72

> <r_i_glide_metal>
0

> <r_i_glide_rewards>
-1.0083874975553

> <r_i_glide_evdw>
-38.515266418457

> <r_i_glide_ecoul>
-9.58296298980713

> <r_i_glide_erotb>
0.757043769758552

> <r_i_glide_esite>
-0.0759333164567516

> <r_i_glide_emodel>
-60.2788120095923

> <r_i_glide_energy>
-48.0982294082642

> <r_i_glide_einternal>
13.4083671569824

> <i_i_glide_confnum>
8

> <i_i_glide_posenum>
180

> <r_i_glide_eff_state_penalty>
0

> <s_user_duplicate_titles>
CHEMBL3991_lig371

> <i_f3d_flags>
0

> <s_m_subgroup_title>
dock_pv

> <s_m_subgroupid>
dock_pv

> <b_m_subgroup_collapsed>
1

$$$$
CHEMBL3991_lig187
                    3D
 Schrodinger Suite 2021-1.
 52 54  0  0  1  0            999 V2000
   14.2957   37.6907   29.9989 C   0  0  0  0  0  0
   11.8336   45.0801   29.3020 N   0  0  0  0  0  0
   11.4612   45.4648   30.5912 C   0  0  0  0  0  0
   13.3122   37.9827   29.0249 C   0  0  0  0  0  0
   15.7197   37.3959   29.6899 C   0  0  0  0  0  0
   10.1974   40.0791   32.1721 C   0  0  0  0  0  0
   11.5295   45.7382   28.1668 C   0  0  0  0  0  0
   10.9471   47.6275   29.7065 O   0  0  0  0  0  0
   10.3866   42.8131   33.7660 N   0  0  0  0  0  0
   11.5284   44.5900   31.6728 C   0  0  0  0  0  0
   10.9979   46.7671   30.7856 C   0  0  0  0  0  0
   12.0995   38.5730   29.3887 C   0  0  0  0  0  0
   11.1311   45.0139   32.9510 C   0  0  0  0  0  0
   13.9339   37.8790   31.3376 C   0  0  0  0  0  0
    9.0481   42.6864   33.8228 C   0  0  0  0  0  0
   10.7004   39.6792   30.9850 N   0  0  0  0  0  0
   16.6446   37.6787   30.4972 N   0  0  0  0  0  0
   11.1355   44.0205   34.1154 C   0  0  2  0  0  0
    9.1736   40.9263   32.0020 N   0  0  0  0  0  0
   11.8324   38.8887   30.7218 C   0  0  0  0  0  0
   10.5873   39.7267   33.2847 O   0  0  0  0  0  0
   11.9432   45.4150   27.0553 O   0  0  0  0  0  0
   10.6977   46.3340   33.1361 C   0  0  0  0  0  0
   10.6297   46.9755   28.4520 C   0  0  0  0  0  0
    8.3477   43.4519   34.4833 O   0  0  0  0  0  0
   10.6337   47.2163   32.0538 C   0  0  0  0  0  0
   15.9309   36.8790   28.4556 N   0  0  0  0  0  0
    8.3639   41.5201   33.0780 C   0  0  0  0  0  0
   13.5308   37.7745   27.7051 F   0  0  0  0  0  0
   12.7388   38.4781   31.7008 C   0  0  0  0  0  0
   12.5695   43.6506   34.5252 C   0  0  0  0  0  0
   12.3467   44.2241   29.1604 H   0  0  0  0  0  0
   10.9057   42.0877   33.2913 H   0  0  0  0  0  0
   11.8653   43.5755   31.5267 H   0  0  0  0  0  0
   11.4091   38.8511   28.6045 H   0  0  0  0  0  0
   14.6452   37.6796   32.1213 H   0  0  0  0  0  0
   10.2117   39.9857   30.1589 H   0  0  0  0  0  0
   17.5522   37.4768   30.1045 H   0  0  0  0  0  0
   10.6650   44.4846   34.9876 H   0  0  0  0  0  0
    8.9669   41.2505   31.0704 H   0  0  0  0  0  0
   10.3919   46.6768   34.1146 H   0  0  0  0  0  0
   10.6891   47.6681   27.6154 H   0  0  0  0  0  0
    9.6089   46.5932   28.5070 H   0  0  0  0  0  0
   10.2921   48.2307   32.1967 H   0  0  0  0  0  0
   16.8461   36.5759   28.1591 H   0  0  0  0  0  0
   15.1481   36.6068   27.8700 H   0  0  0  0  0  0
    8.1123   40.7499   33.8076 H   0  0  0  0  0  0
    7.4205   41.8708   32.6591 H   0  0  0  0  0  0
   12.6027   38.6900   32.7488 H   0  0  0  0  0  0
   13.1159   44.5144   34.9037 H   0  0  0  0  0  0
   12.5753   42.8887   35.2970 H   0  0  0  0  0  0
   13.1310   43.2295   33.6971 H   0  0  0  0  0  0
  1  4  1  0  0  0
  1  5  1  0  0  0
  1 14  2  0  0  0
  2  3  1  0  0  0
  2  7  1  0  0  0
  2 32  1  0  0  0
  3 10  2  0  0  0
  3 11  1  0  0  0
  4 12  2  0  0  0
  4 29  1  0  0  0
  5 17  2  0  0  0
  5 27  1  0  0  0
  6 16  1  0  0  0
  6 19  1  0  0  0
  6 21  2  0  0  0
  7 22  2  0  0  0
  7 24  1  0  0  0
  8 11  1  0  0  0
  8 24  1  0  0  0
  9 15  1  0  0  0
  9 18  1  0  0  0
  9 33  1  0  0  0
 10 13  1  0  0  0
 10 34  1  0  0  0
 11 26  2  0  0  0
 12 20  1  0  0  0
 12 35  1  0  0  0
 13 18  1  0  0  0
 13 23  2  0  0  0
 14 30  1  0  0  0
 14 36  1  0  0  0
 15 28  1  0  0  0
 15 25  2  0  0  0
 16 20  1  0  0  0
 16 37  1  0  0  0
 17 38  1  0  0  0
 18 31  1  0  0  0
 18 39  1  0  0  0
 19 28  1  0  0  0
 19 40  1  0  0  0
 20 30  2  0  0  0
 23 26  1  0  0  0
 23 41  1  0  0  0
 24 42  1  0  0  0
 24 43  1  0  0  0
 26 44  1  0  0  0
 27 45  1  0  0  0
 27 46  1  0  0  0
 28 47  1  0  0  0
 28 48  1  0  0  0
 30 49  1  0  0  0
 31 50  1  0  0  0
 31 51  1  0  0  0
 31 52  1  0  0  0
M  END
> <s_m_entry_id>
20680

> <s_m_entry_name>
dock_pv.63

> <s_m_Source_Path>
/home/csk/Desktop/cluster/DUD-E-result/fa7

> <s_m_Source_File>
dock_pv.maegz

> <i_m_Source_File_Index>
63

> <chembl_id>
CHEMBL177450

> <chembl_pref_name>
None

> <i_lp_mmshare_version>
53161

> <r_lp_tautomer_probability>
1

> <s_lp_Force_Field>
OPLS_2005

> <r_lp_Energy>
17.839402

> <b_lp_Chiralities_Consistent>
1

> <s_lp_Variant>
CHEMBL3991_lig187-2

> <s_i_glide_gridfile>
glide-grid_1w7x

> <i_i_glide_lignum>
205

> <i_i_glide_rotatable_bonds>
9

> <r_i_docking_score>
-6.91148323186664

> <r_i_glide_ligand_efficiency>
-0.222951071995698

> <r_i_glide_ligand_efficiency_sa>
-0.700374183195514

> <r_i_glide_ligand_efficiency_ln>
-1.55875128030938

> <r_i_glide_gscore>
-6.91148323186664

> <r_i_glide_lipo>
-2.95726899220772

> <r_i_glide_hbond>
-0.162619026303761

> <r_i_glide_metal>
0

> <r_i_glide_rewards>
-1.25150858747155

> <r_i_glide_evdw>
-48.3793525695801

> <r_i_glide_ecoul>
-5.4722146987915

> <r_i_glide_erotb>
0.757566483428444

> <r_i_glide_esite>
-0.0578532760143222

> <r_i_glide_emodel>
-66.9351630403339

> <r_i_glide_energy>
-53.8515672683716

> <r_i_glide_einternal>
8.70464324951172

> <i_i_glide_confnum>
20

> <i_i_glide_posenum>
186

> <r_i_glide_eff_state_penalty>
0

> <s_user_duplicate_titles>
CHEMBL3991_lig187

> <i_f3d_flags>
0

> <s_m_subgroup_title>
dock_pv

> <s_m_subgroupid>
dock_pv

> <b_m_subgroup_collapsed>
1

$$$$
CHEMBL3991_lig365
                    3D
 Schrodinger Suite 2021-1.
 66 69  0  0  1  0            999 V2000
    7.7891   39.6859   35.7326 C   0  0  0  0  0  0
    8.1299   40.5448   34.6969 C   0  0  0  0  0  0
    7.3146   40.7306   33.5718 C   0  0  0  0  0  0
    6.0695   40.0809   33.5616 C   0  0  0  0  0  0
    5.6904   39.2045   34.5915 C   0  0  0  0  0  0
    6.5698   39.0067   35.6654 C   0  0  0  0  0  0
    7.7410   41.6116   32.3646 C   0  0  1  0  0  0
    8.2076   42.9485   32.7668 N   0  0  0  0  0  0
    9.5022   43.2987   33.1968 C   0  0  0  0  0  0
   10.5318   42.3820   33.4311 C   0  0  0  0  0  0
   11.7368   42.7724   33.9678 C   0  0  0  0  0  0
   11.9462   44.0954   34.3210 C   0  0  0  0  0  0
   10.9659   45.0486   33.9922 C   0  0  0  0  0  0
    9.7518   44.6490   33.4380 C   0  0  0  0  0  0
   13.1310   44.4115   35.1118 C   0  0  0  0  0  0
   14.2519   43.8856   34.8977 N   0  0  0  0  0  0
   12.8183   45.2790   36.0974 N   0  0  0  0  0  0
    8.6584   40.9368   31.3351 C   0  0  0  0  0  0
    9.6125   40.0792   31.6086 N   0  0  0  0  0  0
    8.6679   41.2521   29.9996 N   0  0  0  0  0  0
    4.4680   38.5630   34.4470 O   0  0  0  0  0  0
    3.9424   37.6135   35.3893 C   0  0  0  0  0  0
    3.5837   38.2290   36.7584 C   0  0  0  0  0  0
    9.7293   40.5776   29.4519 C   0  0  0  0  0  0
   10.3310   39.9023   30.5096 C   0  0  0  0  0  0
   11.5741   39.0663   30.5241 C   0  0  0  0  0  0
    4.7387   36.2916   35.4638 C   0  0  0  0  0  0
    8.7170   39.5655   36.7507 O   0  0  0  0  0  0
    8.4794   38.6986   37.8621 C   0  0  0  0  0  0
    7.5306   39.3417   38.8859 C   0  0  0  0  0  0
    5.2228   40.2727   32.5207 F   0  0  0  0  0  0
   12.0076   38.4616   29.3458 C   0  0  0  0  0  0
   13.1594   37.6795   29.3254 C   0  0  0  0  0  0
   13.8839   37.4901   30.5022 C   0  0  0  0  0  0
   13.4581   38.0790   31.6897 C   0  0  0  0  0  0
   12.3175   38.8786   31.6976 C   0  0  0  0  0  0
    9.0587   41.0577   34.8111 H   0  0  0  0  0  0
    6.3231   38.3243   36.4548 H   0  0  0  0  0  0
    6.8186   41.8379   31.8279 H   0  0  0  0  0  0
    7.6611   43.7220   32.4254 H   0  0  0  0  0  0
   10.4328   41.3285   33.3135 H   0  0  0  0  0  0
   12.4744   42.0156   34.1930 H   0  0  0  0  0  0
   11.1083   46.0959   34.2241 H   0  0  0  0  0  0
    8.9911   45.3934   33.2472 H   0  0  0  0  0  0
   14.9556   44.1671   35.5630 H   0  0  0  0  0  0
   13.5312   45.6591   36.7112 H   0  0  0  0  0  0
   11.8756   45.6151   36.2112 H   0  0  0  0  0  0
    8.0556   41.9048   29.5287 H   0  0  0  0  0  0
    2.9835   37.3352   34.9496 H   0  0  0  0  0  0
    3.0677   37.4998   37.3843 H   0  0  0  0  0  0
    4.4393   38.5765   37.3325 H   0  0  0  0  0  0
    2.9145   39.0792   36.6310 H   0  0  0  0  0  0
    9.9894   40.6792   28.4083 H   0  0  0  0  0  0
    4.2768   35.5980   36.1660 H   0  0  0  0  0  0
    4.7557   35.7940   34.4971 H   0  0  0  0  0  0
    5.7741   36.4133   35.7715 H   0  0  0  0  0  0
    9.4433   38.5160   38.3396 H   0  0  0  0  0  0
    8.1296   37.7169   37.5368 H   0  0  0  0  0  0
    7.3944   38.6903   39.7509 H   0  0  0  0  0  0
    6.5480   39.5466   38.4631 H   0  0  0  0  0  0
    7.9348   40.2891   39.2445 H   0  0  0  0  0  0
   11.4397   38.6011   28.4456 H   0  0  0  0  0  0
   13.4886   37.2213   28.4021 H   0  0  0  0  0  0
   14.7771   36.8833   30.4857 H   0  0  0  0  0  0
   14.0210   37.9435   32.6020 H   0  0  0  0  0  0
   12.0126   39.3442   32.6237 H   0  0  0  0  0  0
  1  2  2  0  0  0
  1  6  1  0  0  0
  1 28  1  0  0  0
  2  3  1  0  0  0
  2 37  1  0  0  0
  3  4  2  0  0  0
  3  7  1  0  0  0
  4  5  1  0  0  0
  4 31  1  0  0  0
  5  6  2  0  0  0
  5 21  1  0  0  0
  6 38  1  0  0  0
  7  8  1  0  0  0
  7 18  1  0  0  0
  7 39  1  0  0  0
  8  9  1  0  0  0
  8 40  1  0  0  0
  9 10  2  0  0  0
  9 14  1  0  0  0
 10 11  1  0  0  0
 10 41  1  0  0  0
 11 12  2  0  0  0
 11 42  1  0  0  0
 12 13  1  0  0  0
 12 15  1  0  0  0
 13 14  2  0  0  0
 13 43  1  0  0  0
 14 44  1  0  0  0
 15 16  2  0  0  0
 15 17  1  0  0  0
 16 45  1  0  0  0
 17 46  1  0  0  0
 17 47  1  0  0  0
 18 19  2  0  0  0
 18 20  1  0  0  0
 19 25  1  0  0  0
 20 24  1  0  0  0
 20 48  1  0  0  0
 21 22  1  0  0  0
 22 23  1  0  0  0
 22 27  1  0  0  0
 22 49  1  0  0  0
 23 50  1  0  0  0
 23 51  1  0  0  0
 23 52  1  0  0  0
 24 25  2  0  0  0
 24 53  1  0  0  0
 25 26  1  0  0  0
 26 32  2  0  0  0
 26 36  1  0  0  0
 27 54  1  0  0  0
 27 55  1  0  0  0
 27 56  1  0  0  0
 28 29  1  0  0  0
 29 30  1  0  0  0
 29 57  1  0  0  0
 29 58  1  0  0  0
 30 59  1  0  0  0
 30 60  1  0  0  0
 30 61  1  0  0  0
 32 33  1  0  0  0
 32 62  1  0  0  0
 33 34  2  0  0  0
 33 63  1  0  0  0
 34 35  1  0  0  0
 34 64  1  0  0  0
 35 36  2  0  0  0
 35 65  1  0  0  0
 36 66  1  0  0  0
M  END
> <s_m_entry_id>
20681

> <s_m_entry_name>
dock_pv.64

> <s_m_Source_Path>
/home/csk/Desktop/cluster/DUD-E-result/fa7

> <s_m_Source_File>
dock_pv.maegz

> <i_m_Source_File_Index>
64

> <chembl_id>
CHEMBL3403467

> <chembl_pref_name>
None

> <i_lp_mmshare_version>
53161

> <r_lp_tautomer_probability>
0.499999999999999

> <s_lp_Force_Field>
OPLS_2005

> <r_lp_Energy>
21.237748

> <b_lp_Chiralities_Consistent>
1

> <s_lp_Variant>
CHEMBL3991_lig365-2

> <s_i_glide_gridfile>
glide-grid_1w7x

> <i_i_glide_lignum>
492

> <i_i_glide_rotatable_bonds>
10

> <r_i_docking_score>
-6.89072105705565

> <r_i_glide_ligand_efficiency>
-0.191408918251546

> <r_i_glide_ligand_efficiency_sa>
-0.632018322101273

> <r_i_glide_ligand_efficiency_ln>
-1.50336916888069

> <r_i_glide_gscore>
-6.89072105705565

> <r_i_glide_lipo>
-3.11758072082549

> <r_i_glide_hbond>
-0.132717621059959

> <r_i_glide_metal>
0

> <r_i_glide_rewards>
-0.561582485598714

> <r_i_glide_evdw>
-41.2559242248535

> <r_i_glide_ecoul>
-10.3040332794189

> <r_i_glide_erotb>
0.59864584825392

> <r_i_glide_esite>
-0.0690848746698847

> <r_i_glide_emodel>
-69.8412662793977

> <r_i_glide_energy>
-51.5599575042725

> <r_i_glide_einternal>
8.75930786132812

> <i_i_glide_confnum>
3

> <i_i_glide_posenum>
47

> <r_i_glide_eff_state_penalty>
0

> <s_user_duplicate_titles>
CHEMBL3991_lig365

> <i_f3d_flags>
0

> <s_m_subgroup_title>
dock_pv

> <s_m_subgroupid>
dock_pv

> <b_m_subgroup_collapsed>
1

$$$$
CHEMBL3991_lig281
                    3D
 Schrodinger Suite 2021-1.
 67 70  0  0  1  0            999 V2000
   13.4118   38.0788   29.4222 C   0  0  0  0  0  0
   13.8505   37.6809   30.6960 C   0  0  0  0  0  0
   13.2320   38.0790   31.8716 C   0  0  0  0  0  0
   12.2438   38.8671   29.3299 C   0  0  0  0  0  0
   11.5757   39.2789   30.4959 C   0  0  0  0  0  0
   12.1059   38.8806   31.7465 C   0  0  0  0  0  0
   11.3093   39.4484   32.7086 N   0  0  0  0  0  0
   10.2611   40.1485   32.1709 C   0  0  0  0  0  0
   10.4164   40.0790   30.7872 C   0  0  0  0  0  0
    9.2402   40.8365   33.0346 C   0  0  0  0  0  0
    8.8706   40.4178   34.3356 C   0  0  0  0  0  0
    7.9329   41.1580   35.0929 C   0  0  0  0  0  0
    7.3705   42.3040   34.5199 C   0  0  0  0  0  0
    7.7153   42.7103   33.2351 C   0  0  0  0  0  0
    8.6432   41.9814   32.5002 C   0  0  0  0  0  0
    9.4371   39.2894   34.8926 O   0  0  0  0  0  0
    7.5271   40.7635   36.4825 C   0  0  0  0  0  0
    7.6005   41.6482   37.5757 C   0  0  0  0  0  0
    7.1994   41.2380   38.8486 C   0  0  0  0  0  0
    6.7419   39.9409   39.0609 C   0  0  0  0  0  0
    6.6663   39.0399   37.9987 C   0  0  0  0  0  0
    7.0569   39.4672   36.7208 C   0  0  0  0  0  0
    8.0970   42.9191   37.4298 O   0  0  0  0  0  0
    6.1709   37.6148   38.2767 C   0  0  0  0  0  0
    6.1315   36.7044   37.1308 N   0  0  0  0  0  0
    5.2558   36.7810   36.1124 C   0  0  0  0  0  0
    4.3318   37.5923   36.0831 O   0  0  0  0  0  0
   14.2130   37.6790   28.2344 C   0  0  0  0  0  0
   15.4051   37.2806   28.3636 N   0  0  0  0  0  0
   13.5310   37.6790   27.0451 N   0  0  0  0  0  0
    5.4787   35.8757   34.8970 C   0  0  0  0  0  0
    6.4062   34.6510   35.0890 C   0  0  0  0  0  0
    5.8734   33.5367   36.0200 C   0  0  0  0  0  0
    5.1424   32.4790   35.3121 N   0  0  0  0  0  0
    4.9226   31.3582   36.2240 C   0  0  0  0  0  0
    3.8522   32.9122   34.7785 C   0  0  0  0  0  0
   14.7340   37.0657   30.7968 H   0  0  0  0  0  0
   13.6203   37.7899   32.8373 H   0  0  0  0  0  0
   11.8793   39.2053   28.3716 H   0  0  0  0  0  0
   11.4209   39.3518   33.7032 H   0  0  0  0  0  0
    9.7642   40.5516   30.0684 H   0  0  0  0  0  0
    6.6590   42.8956   35.0772 H   0  0  0  0  0  0
    7.2722   43.5997   32.8120 H   0  0  0  0  0  0
    8.9101   42.3270   31.5114 H   0  0  0  0  0  0
    9.0584   39.0806   35.7508 H   0  0  0  0  0  0
    7.2726   41.9153   39.6874 H   0  0  0  0  0  0
    6.4567   39.6368   40.0575 H   0  0  0  0  0  0
    6.9998   38.7901   35.8826 H   0  0  0  0  0  0
    8.3304   43.3453   38.2609 H   0  0  0  0  0  0
    5.1829   37.6654   38.7399 H   0  0  0  0  0  0
    6.8302   37.1708   39.0253 H   0  0  0  0  0  0
    6.8725   36.0203   37.0825 H   0  0  0  0  0  0
   15.7705   36.9418   27.4818 H   0  0  0  0  0  0
   13.9682   37.2389   26.2395 H   0  0  0  0  0  0
   12.5853   38.0364   26.9486 H   0  0  0  0  0  0
    5.9266   36.5147   34.1335 H   0  0  0  0  0  0
    4.5046   35.5812   34.5151 H   0  0  0  0  0  0
    7.3918   34.9777   35.4223 H   0  0  0  0  0  0
    6.5612   34.2260   34.0970 H   0  0  0  0  0  0
    5.2196   33.9617   36.7844 H   0  0  0  0  0  0
    6.7200   33.1070   36.5593 H   0  0  0  0  0  0
    5.8775   30.9111   36.4971 H   0  0  0  0  0  0
    4.3305   30.5708   35.7556 H   0  0  0  0  0  0
    4.4085   31.6655   37.1374 H   0  0  0  0  0  0
    3.9870   33.6029   33.9490 H   0  0  0  0  0  0
    3.2925   32.0660   34.3781 H   0  0  0  0  0  0
    3.2374   33.3916   35.5419 H   0  0  0  0  0  0
  1  4  2  0  0  0
  1 28  1  0  0  0
  1  2  1  0  0  0
  2  3  2  0  0  0
  2 37  1  0  0  0
  3  6  1  0  0  0
  3 38  1  0  0  0
  4  5  1  0  0  0
  4 39  1  0  0  0
  5  9  1  0  0  0
  5  6  2  0  0  0
  6  7  1  0  0  0
  7  8  1  0  0  0
  7 40  1  0  0  0
  8  9  2  0  0  0
  8 10  1  0  0  0
  9 41  1  0  0  0
 10 11  2  0  0  0
 10 15  1  0  0  0
 11 12  1  0  0  0
 11 16  1  0  0  0
 12 17  1  0  0  0
 12 13  2  0  0  0
 13 14  1  0  0  0
 13 42  1  0  0  0
 14 15  2  0  0  0
 14 43  1  0  0  0
 15 44  1  0  0  0
 16 45  1  0  0  0
 17 18  2  0  0  0
 17 22  1  0  0  0
 18 19  1  0  0  0
 18 23  1  0  0  0
 19 20  2  0  0  0
 19 46  1  0  0  0
 20 21  1  0  0  0
 20 47  1  0  0  0
 21 22  2  0  0  0
 21 24  1  0  0  0
 22 48  1  0  0  0
 23 49  1  0  0  0
 24 25  1  0  0  0
 24 50  1  0  0  0
 24 51  1  0  0  0
 25 26  1  0  0  0
 25 52  1  0  0  0
 26 27  2  0  0  0
 26 31  1  0  0  0
 28 29  2  0  0  0
 28 30  1  0  0  0
 29 53  1  0  0  0
 30 54  1  0  0  0
 30 55  1  0  0  0
 31 32  1  0  0  0
 31 56  1  0  0  0
 31 57  1  0  0  0
 32 33  1  0  0  0
 32 58  1  0  0  0
 32 59  1  0  0  0
 33 34  1  0  0  0
 33 60  1  0  0  0
 33 61  1  0  0  0
 34 35  1  0  0  0
 34 36  1  0  0  0
 35 62  1  0  0  0
 35 63  1  0  0  0
 35 64  1  0  0  0
 36 65  1  0  0  0
 36 66  1  0  0  0
 36 67  1  0  0  0
M  END
> <s_m_entry_id>
20682

> <s_m_entry_name>
dock_pv.65

> <s_m_Source_Path>
/home/csk/Desktop/cluster/DUD-E-result/fa7

> <s_m_Source_File>
dock_pv.maegz

> <i_m_Source_File_Index>
65

> <chembl_id>
CHEMBL214351

> <chembl_pref_name>
None

> <i_lp_mmshare_version>
53161

> <r_lp_tautomer_probability>
0.99999999999473

> <s_lp_Force_Field>
OPLS_2005

> <r_lp_Energy>
18.773668

> <b_lp_Chiralities_Consistent>
1

> <s_lp_Variant>
CHEMBL3991_lig281-1

> <s_i_glide_gridfile>
glide-grid_1w7x

> <i_i_glide_lignum>
358

> <i_i_glide_rotatable_bonds>
12

> <r_i_docking_score>
-6.88959058419005

> <r_i_glide_ligand_efficiency>
-0.191377516227502

> <r_i_glide_ligand_efficiency_sa>
-0.631914634902535

> <r_i_glide_ligand_efficiency_ln>
-1.50312253024326

> <r_i_glide_gscore>
-6.88959058419005

> <r_i_glide_lipo>
-2.42247869802647

> <r_i_glide_hbond>
-0.568831599877808

> <r_i_glide_metal>
0

> <r_i_glide_rewards>
-0.470830483352961

> <r_i_glide_evdw>
-45.3163146972656

> <r_i_glide_ecoul>
-11.6892328262329

> <r_i_glide_erotb>
0.689307864483881

> <r_i_glide_esite>
-0.0975570086184772

> <r_i_glide_emodel>
-76.8391326502807

> <r_i_glide_energy>
-57.0055475234985

> <r_i_glide_einternal>
7.23367309570312

> <i_i_glide_confnum>
1

> <i_i_glide_posenum>
59

> <r_i_glide_eff_state_penalty>
0

> <s_user_duplicate_titles>
CHEMBL3991_lig281,352912

> <i_f3d_flags>
0

> <s_m_subgroup_title>
dock_pv

> <s_m_subgroupid>
dock_pv

> <b_m_subgroup_collapsed>
1

$$$$
CHEMBL3991_lig166
                    3D
 Schrodinger Suite 2021-1.
 60 62  0  0  1  0            999 V2000
   11.0821   39.8456   31.4467 C   0  0  0  0  0  0
    5.6257   43.4193   31.8410 C   0  0  0  0  0  0
    6.1880   38.7337   27.2298 C   0  0  0  0  0  0
   11.5277   40.4888   32.5539 N   0  0  0  0  0  0
    7.4708   45.1235   34.3712 N   0  0  0  0  0  0
    6.2273   44.6991   34.6737 C   0  0  0  0  0  0
    5.6692   43.3809   30.4969 N   0  0  0  0  0  0
    6.0741   39.9570   28.0663 C   0  0  0  0  0  0
    6.6540   37.6652   27.6986 N   0  0  0  0  0  0
    5.4461   44.6727   32.2908 N   0  0  0  0  0  0
    8.7442   44.8280   35.0534 C   0  0  2  0  0  0
    9.4809   43.6047   34.4933 C   0  0  0  0  0  0
    9.9863   40.0787   30.9273 O   0  0  0  0  0  0
    5.6867   42.4295   32.5736 O   0  0  0  0  0  0
   12.0419   38.8807   30.7837 C   0  0  0  0  0  0
    5.9451   44.0787   35.6970 O   0  0  0  0  0  0
   10.8222   41.4893   33.2460 C   0  0  0  0  0  0
    5.1553   40.9792   27.7674 C   0  0  0  0  0  0
    6.8898   40.1187   29.2005 C   0  0  0  0  0  0
   10.8682   43.6561   34.3115 C   0  0  0  0  0  0
    8.7802   42.4597   34.0992 C   0  0  0  0  0  0
    5.1010   45.0218   33.6758 C   0  0  0  0  0  0
    5.7688   38.8792   25.9314 N   0  0  0  0  0  0
    5.8372   42.2305   29.7124 C   0  0  0  0  0  0
    9.4443   41.4060   33.4828 C   0  0  0  0  0  0
   11.5374   42.5987   33.6969 C   0  0  0  0  0  0
    6.7703   41.2357   30.0229 C   0  0  0  0  0  0
    5.0500   42.1117   28.5696 C   0  0  0  0  0  0
    8.6944   44.8254   36.5950 C   0  0  0  0  0  0
   11.8971   38.6015   29.4169 C   0  0  0  0  0  0
   13.1311   38.3339   31.4799 C   0  0  0  0  0  0
   14.1126   37.6262   30.7935 C   0  0  0  0  0  0
   12.8613   37.8595   28.7446 C   0  0  0  0  0  0
   13.9787   37.4000   29.4294 C   0  0  0  0  0  0
   12.4928   40.3529   32.8312 H   0  0  0  0  0  0
    7.5747   45.6008   33.4884 H   0  0  0  0  0  0
    5.3714   44.2063   30.0019 H   0  0  0  0  0  0
    6.6941   36.9484   26.9779 H   0  0  0  0  0  0
    5.5444   45.4409   31.6455 H   0  0  0  0  0  0
    9.3474   45.6986   34.7865 H   0  0  0  0  0  0
    4.5012   40.9057   26.9104 H   0  0  0  0  0  0
    7.6273   39.3711   29.4607 H   0  0  0  0  0  0
   11.4299   44.5266   34.6201 H   0  0  0  0  0  0
    7.7137   42.3867   34.2449 H   0  0  0  0  0  0
    4.8715   46.0856   33.7390 H   0  0  0  0  0  0
    4.1885   44.4958   33.9617 H   0  0  0  0  0  0
    5.9311   38.1016   25.2990 H   0  0  0  0  0  0
    5.6089   39.7929   25.5392 H   0  0  0  0  0  0
    8.8764   40.5426   33.1683 H   0  0  0  0  0  0
   12.6062   42.6604   33.5473 H   0  0  0  0  0  0
    7.4110   41.3266   30.8889 H   0  0  0  0  0  0
    4.3325   42.8777   28.3124 H   0  0  0  0  0  0
    9.6975   44.8788   37.0197 H   0  0  0  0  0  0
    8.1394   45.6816   36.9797 H   0  0  0  0  0  0
    8.2233   43.9232   36.9860 H   0  0  0  0  0  0
   11.0678   39.0010   28.8482 H   0  0  0  0  0  0
   13.2736   38.5085   32.5368 H   0  0  0  0  0  0
   14.9957   37.2788   31.3031 H   0  0  0  0  0  0
   12.7615   37.6754   27.6848 H   0  0  0  0  0  0
   14.7503   36.8736   28.8878 H   0  0  0  0  0  0
  1  4  1  0  0  0
  1 13  2  0  0  0
  1 15  1  0  0  0
  2 10  1  0  0  0
  2  7  1  0  0  0
  2 14  2  0  0  0
  3  8  1  0  0  0
  3  9  2  0  0  0
  3 23  1  0  0  0
  4 17  1  0  0  0
  4 35  1  0  0  0
  5 11  1  0  0  0
  5  6  1  0  0  0
  5 36  1  0  0  0
  6 16  2  0  0  0
  6 22  1  0  0  0
  7 24  1  0  0  0
  7 37  1  0  0  0
  8 18  2  0  0  0
  8 19  1  0  0  0
  9 38  1  0  0  0
 10 22  1  0  0  0
 10 39  1  0  0  0
 11 12  1  0  0  0
 11 29  1  0  0  0
 11 40  1  0  0  0
 12 20  2  0  0  0
 12 21  1  0  0  0
 15 30  2  0  0  0
 15 31  1  0  0  0
 17 25  1  0  0  0
 17 26  2  0  0  0
 18 28  1  0  0  0
 18 41  1  0  0  0
 19 27  2  0  0  0
 19 42  1  0  0  0
 20 26  1  0  0  0
 20 43  1  0  0  0
 21 25  2  0  0  0
 21 44  1  0  0  0
 22 45  1  0  0  0
 22 46  1  0  0  0
 23 47  1  0  0  0
 23 48  1  0  0  0
 24 27  1  0  0  0
 24 28  2  0  0  0
 25 49  1  0  0  0
 26 50  1  0  0  0
 27 51  1  0  0  0
 28 52  1  0  0  0
 29 53  1  0  0  0
 29 54  1  0  0  0
 29 55  1  0  0  0
 30 33  1  0  0  0
 30 56  1  0  0  0
 31 32  2  0  0  0
 31 57  1  0  0  0
 32 34  1  0  0  0
 32 58  1  0  0  0
 33 34  2  0  0  0
 33 59  1  0  0  0
 34 60  1  0  0  0
M  END
> <s_m_entry_id>
20683

> <s_m_entry_name>
dock_pv.66

> <s_m_Source_Path>
/home/csk/Desktop/cluster/DUD-E-result/fa7

> <s_m_Source_File>
dock_pv.maegz

> <i_m_Source_File_Index>
66

> <chembl_id>
CHEMBL330943

> <chembl_pref_name>
None

> <i_lp_mmshare_version>
53161

> <r_lp_tautomer_probability>
1

> <s_lp_Force_Field>
OPLS_2005

> <r_lp_Energy>
20.702886

> <b_lp_Chiralities_Consistent>
1

> <s_lp_Variant>
CHEMBL3991_lig166-1

> <s_i_glide_gridfile>
glide-grid_1w7x

> <i_i_glide_lignum>
171

> <i_i_glide_rotatable_bonds>
12

> <r_i_docking_score>
-6.88645734638461

> <r_i_glide_ligand_efficiency>
-0.202542863128959

> <r_i_glide_ligand_efficiency_sa>
-0.65616024888582

> <r_i_glide_ligand_efficiency_ln>
-1.52141158640221

> <r_i_glide_gscore>
-6.88645734638461

> <r_i_glide_lipo>
-2.17721263393663

> <r_i_glide_hbond>
-0.617555697873744

> <r_i_glide_metal>
0

> <r_i_glide_rewards>
-1.02725975636349

> <r_i_glide_evdw>
-38.3809242248535

> <r_i_glide_ecoul>
-13.5692844390869

> <r_i_glide_erotb>
1.05238577249127

> <r_i_glide_esite>
-0.162376153596302

> <r_i_glide_emodel>
-69.2719772512256

> <r_i_glide_energy>
-51.9502086639404

> <r_i_glide_einternal>
11.174822807312

> <i_i_glide_confnum>
13

> <i_i_glide_posenum>
188

> <r_i_glide_eff_state_penalty>
0

> <s_user_duplicate_titles>
CHEMBL3991_lig166,202481

> <i_f3d_flags>
0

> <s_m_subgroup_title>
dock_pv

> <s_m_subgroupid>
dock_pv

> <b_m_subgroup_collapsed>
1

$$$$
CHEMBL3991_lig189
                    3D
 Schrodinger Suite 2021-1.
 56 58  0  0  1  0            999 V2000
    7.7633   41.8958   34.8575 C   0  0  0  0  0  0
    9.9571   40.6385   32.5837 C   0  0  0  0  0  0
    7.5849   40.5610   34.8583 N   0  0  0  0  0  0
    8.9676   42.4635   34.0345 C   0  0  2  0  0  0
    9.9532   41.4252   33.6670 N   0  0  0  0  0  0
   14.1993   37.6790   28.3632 C   0  0  0  0  0  0
   11.1081   39.9526   32.5341 N   0  0  0  0  0  0
    6.4893   39.8463   35.5092 C   0  0  2  0  0  0
    6.9102   38.4136   35.8573 C   0  0  0  0  0  0
   13.2511   38.1289   29.4176 C   0  0  0  0  0  0
   15.3591   37.2791   28.6602 N   0  0  0  0  0  0
    6.9946   42.6536   35.4524 O   0  0  0  0  0  0
    9.0476   40.5943   31.7573 O   0  0  0  0  0  0
    6.2847   37.2878   35.2980 C   0  0  0  0  0  0
    9.6763   43.6949   34.6109 C   0  0  0  0  0  0
   13.5388   37.8945   30.7709 C   0  0  0  0  0  0
   12.1000   38.8800   29.1194 C   0  0  0  0  0  0
   13.6856   37.6790   27.0909 N   0  0  0  0  0  0
   11.6869   39.2792   31.4567 C   0  0  0  0  0  0
    6.6735   36.0009   35.6690 C   0  0  0  0  0  0
   12.7779   38.4787   31.7740 C   0  0  0  0  0  0
   11.3171   39.4476   30.1198 C   0  0  0  0  0  0
    5.8170   34.4867   34.8970 Br  0  0  0  0  0  0
    7.9386   38.2181   36.7900 C   0  0  0  0  0  0
    8.3257   36.9318   37.1608 C   0  0  0  0  0  0
    5.1813   39.9720   34.6951 C   0  0  0  0  0  0
    8.9334   44.8499   34.8978 C   0  0  0  0  0  0
   11.0738   43.7461   34.7944 C   0  0  0  0  0  0
    7.6879   35.8243   36.6062 C   0  0  0  0  0  0
   11.6921   44.8859   35.2971 C   0  0  0  0  0  0
    9.5503   45.9928   35.3959 C   0  0  0  0  0  0
   10.9251   46.0009   35.6071 C   0  0  0  0  0  0
    8.2180   40.0007   34.3060 H   0  0  0  0  0  0
    8.5346   42.8000   33.0894 H   0  0  0  0  0  0
   10.6943   41.3029   34.3381 H   0  0  0  0  0  0
   11.6815   39.9500   33.3623 H   0  0  0  0  0  0
    6.3012   40.3156   36.4788 H   0  0  0  0  0  0
   15.8399   36.9405   27.8369 H   0  0  0  0  0  0
    5.4911   37.3899   34.5760 H   0  0  0  0  0  0
   14.4083   37.3210   31.0595 H   0  0  0  0  0  0
   11.8524   39.1296   28.0994 H   0  0  0  0  0  0
   14.1949   37.2119   26.3420 H   0  0  0  0  0  0
   12.7549   38.0246   26.8932 H   0  0  0  0  0  0
   13.0945   38.3527   32.8000 H   0  0  0  0  0  0
   10.4905   40.0800   29.8332 H   0  0  0  0  0  0
    8.4347   39.0661   37.2404 H   0  0  0  0  0  0
    9.1128   36.7892   37.8867 H   0  0  0  0  0  0
    4.3515   39.4677   35.1917 H   0  0  0  0  0  0
    4.8940   41.0162   34.5661 H   0  0  0  0  0  0
    5.2908   39.5477   33.6970 H   0  0  0  0  0  0
    7.8673   44.8747   34.7284 H   0  0  0  0  0  0
   11.7129   42.9088   34.5593 H   0  0  0  0  0  0
    7.9884   34.8299   36.9032 H   0  0  0  0  0  0
   12.7615   44.9060   35.4519 H   0  0  0  0  0  0
    8.9620   46.8694   35.6198 H   0  0  0  0  0  0
   11.4064   46.8782   36.0113 H   0  0  0  0  0  0
  1  3  1  0  0  0
  1  4  1  0  0  0
  1 12  2  0  0  0
  2  5  1  0  0  0
  2  7  1  0  0  0
  2 13  2  0  0  0
  3  8  1  0  0  0
  3 33  1  0  0  0
  4  5  1  0  0  0
  4 15  1  0  0  0
  4 34  1  0  0  0
  5 35  1  0  0  0
  6 10  1  0  0  0
  6 11  2  0  0  0
  6 18  1  0  0  0
  7 19  1  0  0  0
  7 36  1  0  0  0
  8  9  1  0  0  0
  8 26  1  0  0  0
  8 37  1  0  0  0
  9 14  1  0  0  0
  9 24  2  0  0  0
 10 17  1  0  0  0
 10 16  2  0  0  0
 11 38  1  0  0  0
 14 20  2  0  0  0
 14 39  1  0  0  0
 15 27  2  0  0  0
 15 28  1  0  0  0
 16 21  1  0  0  0
 16 40  1  0  0  0
 17 22  2  0  0  0
 17 41  1  0  0  0
 18 42  1  0  0  0
 18 43  1  0  0  0
 19 21  2  0  0  0
 19 22  1  0  0  0
 20 23  1  0  0  0
 20 29  1  0  0  0
 21 44  1  0  0  0
 22 45  1  0  0  0
 24 25  1  0  0  0
 24 46  1  0  0  0
 25 29  2  0  0  0
 25 47  1  0  0  0
 26 48  1  0  0  0
 26 49  1  0  0  0
 26 50  1  0  0  0
 27 31  1  0  0  0
 27 51  1  0  0  0
 28 30  2  0  0  0
 28 52  1  0  0  0
 29 53  1  0  0  0
 30 32  1  0  0  0
 30 54  1  0  0  0
 31 32  2  0  0  0
 31 55  1  0  0  0
 32 56  1  0  0  0
M  END
> <s_m_entry_id>
20684

> <s_m_entry_name>
dock_pv.67

> <s_m_Source_Path>
/home/csk/Desktop/cluster/DUD-E-result/fa7

> <s_m_Source_File>
dock_pv.maegz

> <i_m_Source_File_Index>
67

> <chembl_id>
CHEMBL32851

> <chembl_pref_name>
None

> <i_lp_mmshare_version>
53161

> <r_lp_tautomer_probability>
1

> <s_lp_Force_Field>
OPLS_2005

> <r_lp_Energy>
9.718505

> <b_lp_Chiralities_Consistent>
1

> <s_lp_Variant>
CHEMBL3991_lig189-1

> <s_i_glide_gridfile>
glide-grid_1w7x

> <i_i_glide_lignum>
207

> <i_i_glide_rotatable_bonds>
10

> <r_i_docking_score>
-6.87641333498005

> <r_i_glide_ligand_efficiency>
-0.214887916718127

> <r_i_glide_ligand_efficiency_sa>
-0.682226609319079

> <r_i_glide_ligand_efficiency_ln>
-1.53981638965013

> <r_i_glide_gscore>
-6.87641333498005

> <r_i_glide_lipo>
-2.24156239185628

> <r_i_glide_hbond>
-0.456

> <r_i_glide_metal>
0

> <r_i_glide_rewards>
-0.553726636980873

> <r_i_glide_evdw>
-49.1188812255859

> <r_i_glide_ecoul>
-11.1909618377686

> <r_i_glide_erotb>
0.583624015264235

> <r_i_glide_esite>
-0.0741599844625511

> <r_i_glide_emodel>
-79.6455042735777

> <r_i_glide_energy>
-60.3098430633545

> <r_i_glide_einternal>
9.61686611175537

> <i_i_glide_confnum>
18

> <i_i_glide_posenum>
254

> <r_i_glide_eff_state_penalty>
0

> <s_user_duplicate_titles>
CHEMBL3991_lig189

> <i_f3d_flags>
0

> <s_m_subgroup_title>
dock_pv

> <s_m_subgroupid>
dock_pv

> <b_m_subgroup_collapsed>
1

$$$$
CHEMBL3991_lig267
                    3D
 Schrodinger Suite 2021-1.
 54 57  0  0  1  0            999 V2000
   13.4986   38.0790   29.3352 C   0  0  0  0  0  0
   14.0095   37.6778   30.5823 C   0  0  0  0  0  0
   13.4542   38.0529   31.7938 C   0  0  0  0  0  0
   12.3248   38.8733   29.3066 C   0  0  0  0  0  0
   11.7392   39.2817   30.5210 C   0  0  0  0  0  0
   12.3310   38.8601   31.7294 C   0  0  0  0  0  0
   11.5660   39.4177   32.7026 N   0  0  0  0  0  0
   10.5712   40.1316   32.1001 C   0  0  0  0  0  0
   10.6570   40.0986   30.7842 N   0  0  0  0  0  0
    9.5864   40.8691   32.9448 C   0  0  0  0  0  0
    9.2703   42.2196   32.7480 C   0  0  0  0  0  0
    8.4468   42.8957   33.6694 C   0  0  0  0  0  0
    7.8894   42.1751   34.7343 C   0  0  0  0  0  0
    8.1801   40.8208   34.9374 C   0  0  0  0  0  0
    9.0413   40.1881   34.0401 C   0  0  0  0  0  0
    7.5508   40.0144   36.0895 C   0  0  2  0  0  0
    6.1983   39.4726   35.6176 C   0  0  0  0  0  0
    7.4026   40.8149   37.4089 C   0  0  0  0  0  0
    7.1316   39.9167   38.6127 C   0  0  0  0  0  0
    7.5310   40.5078   39.7755 O   0  0  0  0  0  0
    6.5823   38.8195   38.5654 O   0  0  0  0  0  0
    6.3293   38.2358   35.0545 O   0  0  0  0  0  0
    5.1311   40.0790   35.6962 O   0  0  0  0  0  0
    9.8301   42.8879   31.6859 O   0  0  0  0  0  0
   14.2531   37.6790   28.1167 C   0  0  0  0  0  0
   15.4485   37.2790   28.1966 N   0  0  0  0  0  0
   13.5310   37.6790   26.9557 N   0  0  0  0  0  0
    8.1976   44.3654   33.5751 C   0  0  0  0  0  0
    7.6446   44.9073   32.4069 C   0  0  0  0  0  0
    7.4338   46.2801   32.2816 C   0  0  0  0  0  0
    7.7758   47.1345   33.3276 C   0  0  0  0  0  0
    8.3238   46.6137   34.4977 C   0  0  0  0  0  0
    8.5324   45.2398   34.6287 C   0  0  0  0  0  0
    9.0852   44.7735   35.7965 O   0  0  0  0  0  0
    6.7577   46.9201   30.8289 Cl  0  0  0  0  0  0
   14.8994   37.0655   30.6324 H   0  0  0  0  0  0
   13.8916   37.7530   32.7345 H   0  0  0  0  0  0
   11.9117   39.2230   28.3718 H   0  0  0  0  0  0
   11.7080   39.3631   33.6970 H   0  0  0  0  0  0
    7.2373   42.6922   35.4226 H   0  0  0  0  0  0
    9.2887   39.1476   34.1932 H   0  0  0  0  0  0
    8.2298   39.1806   36.2988 H   0  0  0  0  0  0
    8.3311   41.3582   37.5867 H   0  0  0  0  0  0
    6.6099   41.5596   37.3296 H   0  0  0  0  0  0
    8.1005   41.2773   39.6648 H   0  0  0  0  0  0
    7.2156   37.8823   35.1413 H   0  0  0  0  0  0
   10.3391   42.2948   31.1254 H   0  0  0  0  0  0
   15.7795   36.9305   27.3044 H   0  0  0  0  0  0
   13.9425   37.2357   26.1378 H   0  0  0  0  0  0
   12.5794   38.0310   26.8972 H   0  0  0  0  0  0
    7.3859   44.2567   31.5840 H   0  0  0  0  0  0
    7.6224   48.1999   33.2334 H   0  0  0  0  0  0
    8.5924   47.2879   35.2969 H   0  0  0  0  0  0
    9.3013   45.4710   36.4213 H   0  0  0  0  0  0
  1  4  2  0  0  0
  1 25  1  0  0  0
  1  2  1  0  0  0
  2  3  2  0  0  0
  2 36  1  0  0  0
  3  6  1  0  0  0
  3 37  1  0  0  0
  4  5  1  0  0  0
  4 38  1  0  0  0
  5  9  1  0  0  0
  5  6  2  0  0  0
  6  7  1  0  0  0
  7  8  1  0  0  0
  7 39  1  0  0  0
  8  9  2  0  0  0
  8 10  1  0  0  0
 10 11  2  0  0  0
 10 15  1  0  0  0
 11 24  1  0  0  0
 11 12  1  0  0  0
 12 13  2  0  0  0
 12 28  1  0  0  0
 13 14  1  0  0  0
 13 40  1  0  0  0
 14 15  2  0  0  0
 14 16  1  0  0  0
 15 41  1  0  0  0
 16 17  1  0  0  0
 16 18  1  0  0  0
 16 42  1  0  0  0
 17 22  1  0  0  0
 17 23  2  0  0  0
 18 19  1  0  0  0
 18 43  1  0  0  0
 18 44  1  0  0  0
 19 20  1  0  0  0
 19 21  2  0  0  0
 20 45  1  0  0  0
 22 46  1  0  0  0
 24 47  1  0  0  0
 25 26  2  0  0  0
 25 27  1  0  0  0
 26 48  1  0  0  0
 27 49  1  0  0  0
 27 50  1  0  0  0
 28 29  2  0  0  0
 28 33  1  0  0  0
 29 30  1  0  0  0
 29 51  1  0  0  0
 30 31  2  0  0  0
 30 35  1  0  0  0
 31 32  1  0  0  0
 31 52  1  0  0  0
 32 33  2  0  0  0
 32 53  1  0  0  0
 33 34  1  0  0  0
 34 54  1  0  0  0
M  END
> <s_m_entry_id>
20685

> <s_m_entry_name>
dock_pv.68

> <s_m_Source_Path>
/home/csk/Desktop/cluster/DUD-E-result/fa7

> <s_m_Source_File>
dock_pv.maegz

> <i_m_Source_File_Index>
68

> <chembl_id>
CHEMBL206234

> <chembl_pref_name>
None

> <i_lp_mmshare_version>
53161

> <r_lp_tautomer_probability>
0.99999999999473

> <s_lp_Force_Field>
OPLS_2005

> <r_lp_Energy>
22.426569

> <b_lp_Chiralities_Consistent>
1

> <s_lp_Variant>
CHEMBL3991_lig267-1

> <s_i_glide_gridfile>
glide-grid_1w7x

> <i_i_glide_lignum>
342

> <i_i_glide_rotatable_bonds>
11

> <r_i_docking_score>
-6.87031183091063

> <r_i_glide_ligand_efficiency>
-0.196294623740304

> <r_i_glide_ligand_efficiency_sa>
-0.642092729827099

> <r_i_glide_ligand_efficiency_ln>
-1.50818592524065

> <r_i_glide_gscore>
-6.87031183091063

> <r_i_glide_lipo>
-2.05342970090987

> <r_i_glide_hbond>
-0.674787525183626

> <r_i_glide_metal>
0

> <r_i_glide_rewards>
-0.710075947405441

> <r_i_glide_evdw>
-39.1508903503418

> <r_i_glide_ecoul>
-12.6512756347656

> <r_i_glide_erotb>
0.499323884959781

> <r_i_glide_esite>
-0.0761066796395448

> <r_i_glide_emodel>
-71.8866459967733

> <r_i_glide_energy>
-51.8021659851074

> <r_i_glide_einternal>
4.67885494232178

> <i_i_glide_confnum>
1

> <i_i_glide_posenum>
54

> <r_i_glide_eff_state_penalty>
0

> <s_user_duplicate_titles>
CHEMBL3991_lig267

> <i_f3d_flags>
0

> <s_m_subgroup_title>
dock_pv

> <s_m_subgroupid>
dock_pv

> <b_m_subgroup_collapsed>
1

$$$$
CHEMBL3991_lig235
                    3D
 Schrodinger Suite 2021-1.
 57 60  0  0  1  0            999 V2000
   13.8350   37.9099   30.0969 C   0  0  0  0  0  0
   13.0313   38.2475   28.9909 C   0  0  0  0  0  0
   11.8285   38.9490   29.1075 C   0  0  0  0  0  0
   13.3268   38.1573   31.3887 C   0  0  0  0  0  0
   12.1288   38.8790   31.5314 C   0  0  0  0  0  0
   11.4157   39.2869   30.3891 C   0  0  0  0  0  0
   10.3538   40.0118   30.8859 N   0  0  0  0  0  0
   10.4091   39.9493   32.2621 C   0  0  0  0  0  0
   11.4911   39.3142   32.6643 N   0  0  0  0  0  0
    9.2940   40.4239   33.1732 C   0  0  0  0  0  0
    9.0760   39.8558   34.4476 C   0  0  0  0  0  0
    7.9914   40.2485   35.2544 C   0  0  0  0  0  0
    7.1305   41.2279   34.7651 C   0  0  0  0  0  0
    7.3218   41.8228   33.5162 C   0  0  0  0  0  0
    8.4013   41.4088   32.7263 C   0  0  0  0  0  0
    6.3240   42.8812   33.0055 C   0  0  2  0  0  0
    6.1866   44.0219   34.0199 C   0  0  0  0  0  0
    4.8990   42.3446   32.7362 C   0  0  0  0  0  0
    4.8997   41.1463   31.8098 C   0  0  0  0  0  0
    5.5236   41.4079   30.6258 O   0  0  0  0  0  0
    4.3537   40.0791   32.0810 O   0  0  0  0  0  0
    7.2176   44.9069   33.9088 O   0  0  0  0  0  0
    5.3039   44.1043   34.8774 O   0  0  0  0  0  0
    9.9208   38.8789   34.8968 O   0  0  0  0  0  0
   15.2454   37.4586   29.9121 C   0  0  0  0  0  0
   16.1128   37.6790   30.7937 N   0  0  0  0  0  0
   15.5309   36.8790   28.7057 N   0  0  0  0  0  0
    7.7157   39.6734   36.6102 C   0  0  0  0  0  0
    7.5766   40.5480   37.6995 C   0  0  0  0  0  0
    7.3061   40.0709   38.9788 C   0  0  0  0  0  0
    7.2043   38.7031   39.1967 C   0  0  0  0  0  0
    7.3283   37.8168   38.1298 C   0  0  0  0  0  0
    7.5547   38.2874   36.8225 C   0  0  0  0  0  0
    7.5898   37.4519   35.7188 O   0  0  0  0  0  0
    7.5011   36.0424   35.9011 C   0  0  0  0  0  0
    7.1296   40.9355   40.0031 F   0  0  0  0  0  0
   13.3864   38.0631   27.9856 H   0  0  0  0  0  0
   11.2860   39.2791   28.2352 H   0  0  0  0  0  0
   13.9093   37.9124   32.2660 H   0  0  0  0  0  0
    9.6016   40.4445   30.3725 H   0  0  0  0  0  0
    6.2868   41.5288   35.3678 H   0  0  0  0  0  0
    8.5428   41.8529   31.7523 H   0  0  0  0  0  0
    6.7091   43.3149   32.0780 H   0  0  0  0  0  0
    4.4321   42.0136   33.6689 H   0  0  0  0  0  0
    4.2564   43.1178   32.3044 H   0  0  0  0  0  0
    5.8183   42.3164   30.5606 H   0  0  0  0  0  0
    7.8599   44.6627   33.2413 H   0  0  0  0  0  0
   10.5300   38.5957   34.2028 H   0  0  0  0  0  0
   17.0261   37.3819   30.4857 H   0  0  0  0  0  0
   16.4790   36.6373   28.4609 H   0  0  0  0  0  0
   14.8000   36.4168   28.1716 H   0  0  0  0  0  0
    7.6838   41.6143   37.5607 H   0  0  0  0  0  0
    7.0132   38.3322   40.1918 H   0  0  0  0  0  0
    7.2245   36.7627   38.3400 H   0  0  0  0  0  0
    7.5313   35.5534   34.9282 H   0  0  0  0  0  0
    8.3332   35.6636   36.4963 H   0  0  0  0  0  0
    6.5622   35.7560   36.3760 H   0  0  0  0  0  0
  1  4  2  0  0  0
  1 25  1  0  0  0
  1  2  1  0  0  0
  2  3  2  0  0  0
  2 37  1  0  0  0
  3  6  1  0  0  0
  3 38  1  0  0  0
  4  5  1  0  0  0
  4 39  1  0  0  0
  5  9  1  0  0  0
  5  6  2  0  0  0
  6  7  1  0  0  0
  7  8  1  0  0  0
  7 40  1  0  0  0
  8  9  2  0  0  0
  8 10  1  0  0  0
 10 11  2  0  0  0
 10 15  1  0  0  0
 11 24  1  0  0  0
 11 12  1  0  0  0
 12 13  2  0  0  0
 12 28  1  0  0  0
 13 14  1  0  0  0
 13 41  1  0  0  0
 14 15  2  0  0  0
 14 16  1  0  0  0
 15 42  1  0  0  0
 16 17  1  0  0  0
 16 18  1  0  0  0
 16 43  1  0  0  0
 17 22  1  0  0  0
 17 23  2  0  0  0
 18 19  1  0  0  0
 18 44  1  0  0  0
 18 45  1  0  0  0
 19 20  1  0  0  0
 19 21  2  0  0  0
 20 46  1  0  0  0
 22 47  1  0  0  0
 24 48  1  0  0  0
 25 26  2  0  0  0
 25 27  1  0  0  0
 26 49  1  0  0  0
 27 50  1  0  0  0
 27 51  1  0  0  0
 28 29  2  0  0  0
 28 33  1  0  0  0
 29 30  1  0  0  0
 29 52  1  0  0  0
 30 31  2  0  0  0
 30 36  1  0  0  0
 31 32  1  0  0  0
 31 53  1  0  0  0
 32 33  2  0  0  0
 32 54  1  0  0  0
 33 34  1  0  0  0
 34 35  1  0  0  0
 35 55  1  0  0  0
 35 56  1  0  0  0
 35 57  1  0  0  0
M  END
> <s_m_entry_id>
20686

> <s_m_entry_name>
dock_pv.69

> <s_m_Source_Path>
/home/csk/Desktop/cluster/DUD-E-result/fa7

> <s_m_Source_File>
dock_pv.maegz

> <i_m_Source_File_Index>
69

> <chembl_id>
CHEMBL204159

> <chembl_pref_name>
None

> <i_lp_mmshare_version>
53161

> <r_lp_tautomer_probability>
0.999999999997365

> <s_lp_Force_Field>
OPLS_2005

> <r_lp_Energy>
27.011266

> <b_lp_Chiralities_Consistent>
1

> <s_lp_Variant>
CHEMBL3991_lig235-1

> <s_i_glide_gridfile>
glide-grid_1w7x

> <i_i_glide_lignum>
278

> <i_i_glide_rotatable_bonds>
11

> <r_i_docking_score>
-6.86712027929087

> <r_i_glide_ligand_efficiency>
-0.190753341091413

> <r_i_glide_ligand_efficiency_sa>
-0.629853654015064

> <r_i_glide_ligand_efficiency_ln>
-1.49822011679174

> <r_i_glide_gscore>
-6.86712027929087

> <r_i_glide_lipo>
-2.11893727132166

> <r_i_glide_hbond>
-0.470557883015085

> <r_i_glide_metal>
0

> <r_i_glide_rewards>
-0.995235440066477

> <r_i_glide_evdw>
-36.6534042358398

> <r_i_glide_ecoul>
-12.4698944091797

> <r_i_glide_erotb>
0.503841635483032

> <r_i_glide_esite>
-0.0830769472017364

> <r_i_glide_emodel>
-67.5995602754488

> <r_i_glide_energy>
-49.1232986450195

> <r_i_glide_einternal>
2.53435301780701

> <i_i_glide_confnum>
14

> <i_i_glide_posenum>
252

> <r_i_glide_eff_state_penalty>
0

> <s_user_duplicate_titles>
CHEMBL3991_lig235,342118

> <i_f3d_flags>
0

> <s_m_subgroup_title>
dock_pv

> <s_m_subgroupid>
dock_pv

> <b_m_subgroup_collapsed>
1

$$$$
CHEMBL3991_lig264
                    3D
 Schrodinger Suite 2021-1.
 55 58  0  0  1  0            999 V2000
   12.1531   38.8113   30.0970 C   0  0  0  0  0  0
   11.3986   39.6752   29.2802 C   0  0  0  0  0  0
   10.4621   40.5929   29.7617 C   0  0  0  0  0  0
   11.9387   38.8791   31.4867 C   0  0  0  0  0  0
   10.9846   39.7644   32.0055 C   0  0  0  0  0  0
   10.2728   40.6195   31.1390 C   0  0  0  0  0  0
    9.4686   41.3565   31.9792 N   0  0  0  0  0  0
    9.6724   40.8862   33.2562 C   0  0  0  0  0  0
   10.5839   39.9422   33.2998 N   0  0  0  0  0  0
    8.9313   41.3817   34.4587 C   0  0  0  0  0  0
    8.2717   40.4955   35.3328 C   0  0  0  0  0  0
    7.6544   40.9699   36.5082 C   0  0  0  0  0  0
    7.7503   42.3394   36.7789 C   0  0  0  0  0  0
    8.3899   43.2498   35.9331 C   0  0  0  0  0  0
    8.9617   42.7525   34.7533 C   0  0  0  0  0  0
    8.5061   44.7269   36.3968 C   0  0  2  0  0  0
    7.1364   45.2784   36.8052 C   0  0  0  0  0  0
    9.0939   45.7447   35.3944 C   0  0  0  0  0  0
   10.6104   45.6758   35.3934 C   0  0  0  0  0  0
   11.1311   46.0790   36.5856 O   0  0  0  0  0  0
   11.2889   45.3540   34.4233 O   0  0  0  0  0  0
    7.1311   45.7296   38.0963 O   0  0  0  0  0  0
    6.1343   45.2433   36.0923 O   0  0  0  0  0  0
    8.2676   39.1515   35.0617 O   0  0  0  0  0  0
   13.1734   37.8667   29.5409 C   0  0  0  0  0  0
   14.0037   37.2948   30.2955 N   0  0  0  0  0  0
   13.1311   37.6790   28.1797 N   0  0  0  0  0  0
    6.9752   40.0976   37.5315 C   0  0  0  0  0  0
    6.0466   39.0832   37.2146 C   0  0  0  0  0  0
    5.4067   38.3602   38.2229 C   0  0  0  0  0  0
    5.6352   38.6619   39.5625 C   0  0  0  0  0  0
    6.5269   39.6782   39.8995 C   0  0  0  0  0  0
    7.2207   40.3500   38.8931 C   0  0  0  0  0  0
    6.6538   40.1135   41.2816 C   0  0  0  0  0  0
    6.7310   40.4789   42.3773 N   0  0  0  0  0  0
    5.7025   38.7891   35.9216 O   0  0  0  0  0  0
   11.5523   39.6773   28.2102 H   0  0  0  0  0  0
    9.9280   41.2491   29.0894 H   0  0  0  0  0  0
   12.5022   38.2512   32.1630 H   0  0  0  0  0  0
    8.8039   42.0796   31.7495 H   0  0  0  0  0  0
    7.3393   42.7148   37.7024 H   0  0  0  0  0  0
    9.4926   43.4118   34.0834 H   0  0  0  0  0  0
    9.1302   44.6917   37.2969 H   0  0  0  0  0  0
    8.7036   45.5677   34.3889 H   0  0  0  0  0  0
    8.8475   46.7813   35.6442 H   0  0  0  0  0  0
   12.0915   46.1297   36.5714 H   0  0  0  0  0  0
    8.0044   45.6860   38.5203 H   0  0  0  0  0  0
    7.5339   38.7207   35.5141 H   0  0  0  0  0  0
   14.6166   36.7053   29.7551 H   0  0  0  0  0  0
   13.7650   37.0230   27.7411 H   0  0  0  0  0  0
   12.4001   38.0865   27.6086 H   0  0  0  0  0  0
    4.6998   37.5808   37.9771 H   0  0  0  0  0  0
    5.0933   38.1216   40.3275 H   0  0  0  0  0  0
    7.9308   41.1185   39.1730 H   0  0  0  0  0  0
    5.0613   38.0755   35.8737 H   0  0  0  0  0  0
  1  4  2  0  0  0
  1 25  1  0  0  0
  1  2  1  0  0  0
  2  3  2  0  0  0
  2 37  1  0  0  0
  3  6  1  0  0  0
  3 38  1  0  0  0
  4  5  1  0  0  0
  4 39  1  0  0  0
  5  9  1  0  0  0
  5  6  2  0  0  0
  6  7  1  0  0  0
  7  8  1  0  0  0
  7 40  1  0  0  0
  8  9  2  0  0  0
  8 10  1  0  0  0
 10 11  2  0  0  0
 10 15  1  0  0  0
 11 24  1  0  0  0
 11 12  1  0  0  0
 12 13  2  0  0  0
 12 28  1  0  0  0
 13 14  1  0  0  0
 13 41  1  0  0  0
 14 15  2  0  0  0
 14 16  1  0  0  0
 15 42  1  0  0  0
 16 17  1  0  0  0
 16 18  1  0  0  0
 16 43  1  0  0  0
 17 22  1  0  0  0
 17 23  2  0  0  0
 18 19  1  0  0  0
 18 44  1  0  0  0
 18 45  1  0  0  0
 19 20  1  0  0  0
 19 21  2  0  0  0
 20 46  1  0  0  0
 22 47  1  0  0  0
 24 48  1  0  0  0
 25 26  2  0  0  0
 25 27  1  0  0  0
 26 49  1  0  0  0
 27 50  1  0  0  0
 27 51  1  0  0  0
 28 29  2  0  0  0
 28 33  1  0  0  0
 29 30  1  0  0  0
 29 36  1  0  0  0
 30 31  2  0  0  0
 30 52  1  0  0  0
 31 32  1  0  0  0
 31 53  1  0  0  0
 32 33  2  0  0  0
 32 34  1  0  0  0
 33 54  1  0  0  0
 34 35  3  0  0  0
 36 55  1  0  0  0
M  END
> <s_m_entry_id>
20687

> <s_m_entry_name>
dock_pv.70

> <s_m_Source_Path>
/home/csk/Desktop/cluster/DUD-E-result/fa7

> <s_m_Source_File>
dock_pv.maegz

> <i_m_Source_File_Index>
70

> <chembl_id>
CHEMBL206507

> <chembl_pref_name>
None

> <i_lp_mmshare_version>
53161

> <r_lp_tautomer_probability>
0.999999999997365

> <s_lp_Force_Field>
OPLS_2005

> <r_lp_Energy>
23.584976

> <b_lp_Chiralities_Consistent>
1

> <s_lp_Variant>
CHEMBL3991_lig264-1

> <s_i_glide_gridfile>
glide-grid_1w7x

> <i_i_glide_lignum>
336

> <i_i_glide_rotatable_bonds>
11

> <r_i_docking_score>
-6.86568241218955

> <r_i_glide_ligand_efficiency>
-0.190713400338599

> <r_i_glide_ligand_efficiency_sa>
-0.629721772555162

> <r_i_glide_ligand_efficiency_ln>
-1.49790641303691

> <r_i_glide_gscore>
-6.86568241218955

> <r_i_glide_lipo>
-1.35774129138265

> <r_i_glide_hbond>
-0.492621990338909

> <r_i_glide_metal>
0

> <r_i_glide_rewards>
-0.909776457689578

> <r_i_glide_evdw>
-51.8654136657715

> <r_i_glide_ecoul>
-13.2461700439453

> <r_i_glide_erotb>
0.517232572275537

> <r_i_glide_esite>
-0.0425790551735737

> <r_i_glide_emodel>
-85.460615034148

> <r_i_glide_energy>
-65.1115837097168

> <r_i_glide_einternal>
15.0406284332275

> <i_i_glide_confnum>
3

> <i_i_glide_posenum>
97

> <r_i_glide_eff_state_penalty>
0

> <s_user_duplicate_titles>
CHEMBL3991_lig264,342000

> <i_f3d_flags>
0

> <s_m_subgroup_title>
dock_pv

> <s_m_subgroupid>
dock_pv

> <b_m_subgroup_collapsed>
1

$$$$
CHEMBL3991_lig273
                    3D
 Schrodinger Suite 2021-1.
 45 48  0  0  1  0            999 V2000
   11.5318   39.6086   32.7345 N   0  0  0  0  0  0
   10.5229   40.4450   32.3198 C   0  0  0  0  0  0
   10.4485   40.3534   30.9353 C   0  0  0  0  0  0
   11.4307   39.3984   30.5139 C   0  0  0  0  0  0
   11.7488   38.9528   29.2976 N   0  0  0  0  0  0
   12.7840   38.0790   29.2140 C   0  0  0  0  0  0
   13.5063   37.6148   30.3090 C   0  0  0  0  0  0
   13.1724   38.0430   31.5950 C   0  0  0  0  0  0
   12.1138   38.9514   31.6764 C   0  0  0  0  0  0
    9.7414   41.2498   33.3027 C   0  0  0  0  0  0
    9.0092   40.6414   34.3358 C   0  0  0  0  0  0
    8.2734   41.4194   35.2506 C   0  0  0  0  0  0
    8.3396   42.8140   35.1417 C   0  0  0  0  0  0
    9.1171   43.4334   34.1585 C   0  0  0  0  0  0
    9.7868   42.6429   33.2193 C   0  0  0  0  0  0
    9.2632   44.9533   34.1360 C   0  0  0  0  0  0
   10.1272   45.4813   35.2936 C   0  0  0  0  0  0
    9.5005   45.3445   36.4969 O   0  0  0  0  0  0
   11.2376   45.9825   35.1338 O   0  0  0  0  0  0
    9.0654   39.2796   34.4972 O   0  0  0  0  0  0
    7.4898   40.8086   36.3682 C   0  0  0  0  0  0
    6.5996   39.7483   36.1433 C   0  0  0  0  0  0
    5.8957   39.1664   37.1997 C   0  0  0  0  0  0
    6.0725   39.6432   38.4988 C   0  0  0  0  0  0
    6.9529   40.6945   38.7396 C   0  0  0  0  0  0
    7.6472   41.2768   37.6813 C   0  0  0  0  0  0
   13.1335   37.6790   27.9362 N   0  0  0  0  0  0
    7.1317   41.1643   40.0107 O   0  0  0  0  0  0
   11.8083   39.5336   33.6977 H   0  0  0  0  0  0
    9.7616   40.8992   30.3091 H   0  0  0  0  0  0
   14.3229   36.9217   30.1670 H   0  0  0  0  0  0
   13.7103   37.7006   32.4688 H   0  0  0  0  0  0
    7.8130   43.4298   35.8578 H   0  0  0  0  0  0
   10.3797   43.1123   32.4464 H   0  0  0  0  0  0
    9.6966   45.2885   33.1933 H   0  0  0  0  0  0
    8.2796   45.4214   34.2053 H   0  0  0  0  0  0
   10.0255   45.6793   37.2315 H   0  0  0  0  0  0
    8.5690   38.9863   35.2655 H   0  0  0  0  0  0
    6.4446   39.3721   35.1423 H   0  0  0  0  0  0
    5.2226   38.3436   37.0140 H   0  0  0  0  0  0
    5.5373   39.1851   39.3197 H   0  0  0  0  0  0
    8.3326   42.0878   37.8880 H   0  0  0  0  0  0
   13.8473   36.9763   27.7856 H   0  0  0  0  0  0
   12.5506   38.0148   27.1733 H   0  0  0  0  0  0
    7.9811   41.6201   40.0972 H   0  0  0  0  0  0
  1  2  1  0  0  0
  1  9  1  0  0  0
  1 29  1  0  0  0
  2 10  1  0  0  0
  2  3  2  0  0  0
  3  4  1  0  0  0
  3 30  1  0  0  0
  4  9  1  0  0  0
  4  5  2  0  0  0
  5  6  1  0  0  0
  6  7  2  0  0  0
  6 27  1  0  0  0
  7  8  1  0  0  0
  7 31  1  0  0  0
  8  9  2  0  0  0
  8 32  1  0  0  0
 10 15  2  0  0  0
 10 11  1  0  0  0
 11 20  1  0  0  0
 11 12  2  0  0  0
 12 21  1  0  0  0
 12 13  1  0  0  0
 13 14  2  0  0  0
 13 33  1  0  0  0
 14 15  1  0  0  0
 14 16  1  0  0  0
 15 34  1  0  0  0
 16 17  1  0  0  0
 16 35  1  0  0  0
 16 36  1  0  0  0
 17 18  1  0  0  0
 17 19  2  0  0  0
 18 37  1  0  0  0
 20 38  1  0  0  0
 21 22  2  0  0  0
 21 26  1  0  0  0
 22 23  1  0  0  0
 22 39  1  0  0  0
 23 24  2  0  0  0
 23 40  1  0  0  0
 24 25  1  0  0  0
 24 41  1  0  0  0
 25 26  2  0  0  0
 25 28  1  0  0  0
 26 42  1  0  0  0
 27 43  1  0  0  0
 27 44  1  0  0  0
 28 45  1  0  0  0
M  END
> <s_m_entry_id>
20688

> <s_m_entry_name>
dock_pv.71

> <s_m_Source_Path>
/home/csk/Desktop/cluster/DUD-E-result/fa7

> <s_m_Source_File>
dock_pv.maegz

> <i_m_Source_File_Index>
71

> <chembl_id>
CHEMBL204561

> <chembl_pref_name>
None

> <i_lp_mmshare_version>
53161

> <r_lp_tautomer_probability>
0.99999999999473

> <s_lp_Force_Field>
OPLS_2005

> <r_lp_Energy>
21.906635

> <b_lp_Chiralities_Consistent>
1

> <s_lp_Variant>
CHEMBL3991_lig273-1

> <s_i_glide_gridfile>
glide-grid_1w7x

> <i_i_glide_lignum>
350

> <i_i_glide_rotatable_bonds>
7

> <r_i_docking_score>
-6.85747088227712

> <r_i_glide_ligand_efficiency>
-0.24490967436704

> <r_i_glide_ligand_efficiency_sa>
-0.743690015462571

> <r_i_glide_ligand_efficiency_ln>
-1.58290562372361

> <r_i_glide_gscore>
-6.85747088227712

> <r_i_glide_lipo>
-2.10441077028171

> <r_i_glide_hbond>
-0.748772807193474

> <r_i_glide_metal>
0

> <r_i_glide_rewards>
-1.0111890152453

> <r_i_glide_evdw>
-40.4987983703613

> <r_i_glide_ecoul>
-10.115629196167

> <r_i_glide_erotb>
0.549186008386479

> <r_i_glide_esite>
0

> <r_i_glide_emodel>
-68.0338550898046

> <r_i_glide_energy>
-50.6144275665283

> <r_i_glide_einternal>
6.84020757675171

> <i_i_glide_confnum>
85

> <i_i_glide_posenum>
40

> <r_i_glide_eff_state_penalty>
0

> <s_user_duplicate_titles>
CHEMBL3991_lig273

> <i_f3d_flags>
0

> <s_m_subgroup_title>
dock_pv

> <s_m_subgroupid>
dock_pv

> <b_m_subgroup_collapsed>
1

$$$$
CHEMBL3991_lig271
                    3D
 Schrodinger Suite 2021-1.
 62 66  0  0  1  0            999 V2000
   11.3606   38.8786   29.6252 N   0  0  0  0  0  0
   11.1941   39.3047   30.9326 C   0  0  0  0  0  0
   12.3310   38.8789   31.6266 C   0  0  0  0  0  0
   13.2311   38.2870   30.6953 C   0  0  0  0  0  0
   14.4841   37.8572   30.8710 N   0  0  0  0  0  0
   15.1671   37.5244   29.7488 C   0  0  0  0  0  0
   14.6048   37.4946   28.4763 C   0  0  0  0  0  0
   13.2643   37.8345   28.2927 C   0  0  0  0  0  0
   12.5974   38.3017   29.4289 C   0  0  0  0  0  0
    9.9738   40.0790   31.3894 C   0  0  0  0  0  0
    9.6437   40.2349   32.7492 C   0  0  0  0  0  0
    8.4764   40.9106   33.1529 C   0  0  0  0  0  0
    7.6260   41.4125   32.1627 C   0  0  0  0  0  0
    7.9141   41.2461   30.8071 C   0  0  0  0  0  0
    9.0915   40.5967   30.4310 C   0  0  0  0  0  0
    6.9281   41.7263   29.7458 C   0  0  0  0  0  0
    5.8569   40.6705   29.4250 C   0  0  0  0  0  0
    5.7276   40.4664   28.0837 O   0  0  0  0  0  0
    5.1903   40.0919   30.2829 O   0  0  0  0  0  0
   10.4566   39.6790   33.6969 O   0  0  0  0  0  0
    8.1225   41.1022   34.5929 C   0  0  0  0  0  0
    7.8129   42.3791   35.0767 C   0  0  0  0  0  0
    7.5306   42.5827   36.4259 C   0  0  0  0  0  0
    7.5322   41.5053   37.3092 C   0  0  0  0  0  0
    7.8412   40.2189   36.8592 C   0  0  0  0  0  0
    8.1220   40.0284   35.4972 C   0  0  0  0  0  0
   16.5243   37.2790   29.8890 N   0  0  0  0  0  0
    7.8974   39.0882   37.8933 C   0  0  0  0  0  0
    8.0595   37.7066   37.4260 N   0  0  0  0  0  0
    7.1494   37.0168   36.7222 C   0  0  0  0  0  0
    7.2971   35.6899   36.8969 N   0  0  0  0  0  0
    6.2628   37.5476   36.0491 O   0  0  0  0  0  0
    6.5159   34.6790   36.3168 C   0  0  0  0  0  0
    6.3291   33.4928   37.0326 C   0  0  0  0  0  0
    5.5374   32.4787   36.4899 C   0  0  0  0  0  0
    4.9709   32.6746   35.2293 C   0  0  0  0  0  0
    5.1677   33.8009   34.4972 N   0  0  0  0  0  0
    5.9300   34.7814   35.0450 C   0  0  0  0  0  0
   10.6741   39.0615   28.9079 H   0  0  0  0  0  0
   12.5999   39.0556   32.6563 H   0  0  0  0  0  0
   15.1929   37.1881   27.6215 H   0  0  0  0  0  0
   12.8133   37.8128   27.3121 H   0  0  0  0  0  0
    6.7123   41.9130   32.4503 H   0  0  0  0  0  0
    9.3020   40.4774   29.3784 H   0  0  0  0  0  0
    6.4176   42.6244   30.0958 H   0  0  0  0  0  0
    7.4737   42.0207   28.8480 H   0  0  0  0  0  0
    6.3244   41.0070   27.5646 H   0  0  0  0  0  0
   11.1596   39.1868   33.2666 H   0  0  0  0  0  0
    7.8227   43.2280   34.4080 H   0  0  0  0  0  0
    7.3252   43.5793   36.7890 H   0  0  0  0  0  0
    7.3387   41.6798   38.3583 H   0  0  0  0  0  0
    8.3685   39.0417   35.1342 H   0  0  0  0  0  0
   17.0712   37.0488   29.0726 H   0  0  0  0  0  0
   16.9580   37.4418   30.7823 H   0  0  0  0  0  0
    8.7308   39.3086   38.5622 H   0  0  0  0  0  0
    7.0057   39.1383   38.5222 H   0  0  0  0  0  0
    8.8691   37.2101   37.7686 H   0  0  0  0  0  0
    7.9308   35.3846   37.6238 H   0  0  0  0  0  0
    6.7589   33.3636   38.0164 H   0  0  0  0  0  0
    5.3534   31.5697   37.0434 H   0  0  0  0  0  0
    4.3344   31.9193   34.7908 H   0  0  0  0  0  0
    6.0637   35.6657   34.4421 H   0  0  0  0  0  0
  1  2  1  0  0  0
  1  9  1  0  0  0
  1 39  1  0  0  0
  2 10  1  0  0  0
  2  3  2  0  0  0
  3  4  1  0  0  0
  3 40  1  0  0  0
  4  9  1  0  0  0
  4  5  2  0  0  0
  5  6  1  0  0  0
  6 27  1  0  0  0
  6  7  2  0  0  0
  7  8  1  0  0  0
  7 41  1  0  0  0
  8  9  2  0  0  0
  8 42  1  0  0  0
 10 11  2  0  0  0
 10 15  1  0  0  0
 11 20  1  0  0  0
 11 12  1  0  0  0
 12 21  1  0  0  0
 12 13  2  0  0  0
 13 14  1  0  0  0
 13 43  1  0  0  0
 14 15  2  0  0  0
 14 16  1  0  0  0
 15 44  1  0  0  0
 16 17  1  0  0  0
 16 45  1  0  0  0
 16 46  1  0  0  0
 17 18  1  0  0  0
 17 19  2  0  0  0
 18 47  1  0  0  0
 20 48  1  0  0  0
 21 22  2  0  0  0
 21 26  1  0  0  0
 22 23  1  0  0  0
 22 49  1  0  0  0
 23 24  2  0  0  0
 23 50  1  0  0  0
 24 25  1  0  0  0
 24 51  1  0  0  0
 25 26  2  0  0  0
 25 28  1  0  0  0
 26 52  1  0  0  0
 27 53  1  0  0  0
 27 54  1  0  0  0
 28 29  1  0  0  0
 28 55  1  0  0  0
 28 56  1  0  0  0
 29 30  1  0  0  0
 29 57  1  0  0  0
 30 31  1  0  0  0
 30 32  2  0  0  0
 31 33  1  0  0  0
 31 58  1  0  0  0
 33 34  1  0  0  0
 33 38  2  0  0  0
 34 35  2  0  0  0
 34 59  1  0  0  0
 35 36  1  0  0  0
 35 60  1  0  0  0
 36 37  2  0  0  0
 36 61  1  0  0  0
 37 38  1  0  0  0
 38 62  1  0  0  0
M  END
> <s_m_entry_id>
20689

> <s_m_entry_name>
dock_pv.72

> <s_m_Source_Path>
/home/csk/Desktop/cluster/DUD-E-result/fa7

> <s_m_Source_File>
dock_pv.maegz

> <i_m_Source_File_Index>
72

> <chembl_id>
CHEMBL378366

> <chembl_pref_name>
None

> <i_lp_mmshare_version>
53161

> <r_lp_tautomer_probability>
0.999999999997365

> <s_lp_Force_Field>
OPLS_2005

> <r_lp_Energy>
25.440093

> <b_lp_Chiralities_Consistent>
1

> <s_lp_Variant>
CHEMBL3991_lig271-1

> <s_i_glide_gridfile>
glide-grid_1w7x

> <i_i_glide_lignum>
348

> <i_i_glide_rotatable_bonds>
11

> <r_i_docking_score>
-6.85725727693747

> <r_i_glide_ligand_efficiency>
-0.180454138866776

> <r_i_glide_ligand_efficiency_sa>
-0.606682376189564

> <r_i_glide_ligand_efficiency_ln>
-1.47862638897949

> <r_i_glide_gscore>
-6.85725727693747

> <r_i_glide_lipo>
-2.37973089829861

> <r_i_glide_hbond>
-0.594849632145619

> <r_i_glide_metal>
0

> <r_i_glide_rewards>
0.117211076819632

> <r_i_glide_evdw>
-51.6546440124512

> <r_i_glide_ecoul>
-12.8447246551514

> <r_i_glide_erotb>
0.63337467935018

> <r_i_glide_esite>
-0.123821603767789

> <r_i_glide_emodel>
-84.7592344259891

> <r_i_glide_energy>
-64.4993686676025

> <r_i_glide_einternal>
8.71513080596924

> <i_i_glide_confnum>
6

> <i_i_glide_posenum>
237

> <r_i_glide_eff_state_penalty>
0

> <s_user_duplicate_titles>
CHEMBL3991_lig271,345208

> <i_f3d_flags>
0

> <s_m_subgroup_title>
dock_pv

> <s_m_subgroupid>
dock_pv

> <b_m_subgroup_collapsed>
1

$$$$
CHEMBL3991_lig318
                    3D
 Schrodinger Suite 2021-1.
 51 54  0  0  1  0            999 V2000
   13.3364   38.1376   29.4619 C   0  0  0  0  0  0
   13.5734   37.9361   30.8288 C   0  0  0  0  0  0
   12.7311   38.4780   31.7913 C   0  0  0  0  0  0
   12.1859   38.8791   29.1239 C   0  0  0  0  0  0
   11.3143   39.4267   30.0637 C   0  0  0  0  0  0
   11.6036   39.2121   31.4189 C   0  0  0  0  0  0
   10.8349   39.7804   32.4424 N   0  0  0  0  0  0
    9.7400   40.7142   32.1729 C   0  0  2  0  0  0
    9.8442   41.3264   30.7548 C   0  0  0  0  0  0
   10.1266   40.2993   29.6288 C   0  0  2  0  0  0
    8.9044   39.5718   29.0038 C   0  0  0  0  0  0
    7.6887   40.2534   28.8372 C   0  0  0  0  0  0
    6.6141   39.6512   28.1894 C   0  0  0  0  0  0
    6.7371   38.3546   27.6994 C   0  0  0  0  0  0
    7.9304   37.6577   27.8584 C   0  0  0  0  0  0
    9.0087   38.2674   28.4968 C   0  0  0  0  0  0
    9.6144   41.8094   33.2307 C   0  0  0  0  0  0
    8.3559   42.1435   33.7423 C   0  0  0  0  0  0
    8.2304   43.1359   34.7097 C   0  0  0  0  0  0
    9.3626   43.8153   35.1692 C   0  0  0  0  0  0
   10.6332   43.5039   34.6691 C   0  0  0  0  0  0
   10.7454   42.4971   33.6927 C   0  0  0  0  0  0
   14.3129   37.6784   28.4397 C   0  0  0  0  0  0
   15.4583   37.2794   28.7709 N   0  0  0  0  0  0
   13.8272   37.6790   27.1542 N   0  0  0  0  0  0
    9.2186   44.7766   36.1370 O   0  0  0  0  0  0
   11.7169   44.1859   35.1951 O   0  0  0  0  0  0
   13.0331   43.8655   34.7623 C   0  0  0  0  0  0
   14.4505   37.3979   31.1615 H   0  0  0  0  0  0
   12.9837   38.3552   32.8347 H   0  0  0  0  0  0
   11.9847   39.1220   28.0973 H   0  0  0  0  0  0
   11.0008   39.5569   33.4085 H   0  0  0  0  0  0
    8.8231   40.1215   32.2213 H   0  0  0  0  0  0
    8.9727   41.9462   30.5585 H   0  0  0  0  0  0
   10.6757   42.0406   30.7620 H   0  0  0  0  0  0
   10.4635   40.8793   28.7792 H   0  0  0  0  0  0
    7.5658   41.2716   29.1610 H   0  0  0  0  0  0
    5.6907   40.1929   28.0560 H   0  0  0  0  0  0
    5.9155   37.8853   27.1795 H   0  0  0  0  0  0
    8.0278   36.6574   27.4586 H   0  0  0  0  0  0
    9.9271   37.7035   28.5709 H   0  0  0  0  0  0
    7.4728   41.6295   33.3904 H   0  0  0  0  0  0
    7.2523   43.3888   35.0921 H   0  0  0  0  0  0
   11.7087   42.2311   33.2808 H   0  0  0  0  0  0
   15.9555   36.9390   27.9572 H   0  0  0  0  0  0
   14.3321   37.1913   26.4177 H   0  0  0  0  0  0
   12.8891   37.9927   26.9466 H   0  0  0  0  0  0
    8.3399   44.8408   36.5107 H   0  0  0  0  0  0
   13.7480   44.4827   35.3056 H   0  0  0  0  0  0
   13.2836   42.8177   34.9481 H   0  0  0  0  0  0
   13.1429   44.0755   33.6988 H   0  0  0  0  0  0
  1  2  2  0  0  0
  1  4  1  0  0  0
  1 23  1  0  0  0
  2  3  1  0  0  0
  2 29  1  0  0  0
  3  6  2  0  0  0
  3 30  1  0  0  0
  4  5  2  0  0  0
  4 31  1  0  0  0
  5  6  1  0  0  0
  5 10  1  0  0  0
  6  7  1  0  0  0
  7  8  1  0  0  0
  7 32  1  0  0  0
  8  9  1  0  0  0
  8 17  1  0  0  0
  8 33  1  0  0  0
  9 10  1  0  0  0
  9 34  1  0  0  0
  9 35  1  0  0  0
 10 11  1  0  0  0
 10 36  1  0  0  0
 11 12  2  0  0  0
 11 16  1  0  0  0
 12 13  1  0  0  0
 12 37  1  0  0  0
 13 14  2  0  0  0
 13 38  1  0  0  0
 14 15  1  0  0  0
 14 39  1  0  0  0
 15 16  2  0  0  0
 15 40  1  0  0  0
 16 41  1  0  0  0
 17 18  2  0  0  0
 17 22  1  0  0  0
 18 19  1  0  0  0
 18 42  1  0  0  0
 19 20  2  0  0  0
 19 43  1  0  0  0
 20 21  1  0  0  0
 20 26  1  0  0  0
 21 22  2  0  0  0
 21 27  1  0  0  0
 22 44  1  0  0  0
 23 24  2  0  0  0
 23 25  1  0  0  0
 24 45  1  0  0  0
 25 46  1  0  0  0
 25 47  1  0  0  0
 26 48  1  0  0  0
 27 28  1  0  0  0
 28 49  1  0  0  0
 28 50  1  0  0  0
 28 51  1  0  0  0
M  END
> <s_m_entry_id>
20690

> <s_m_entry_name>
dock_pv.73

> <s_m_Source_Path>
/home/csk/Desktop/cluster/DUD-E-result/fa7

> <s_m_Source_File>
dock_pv.maegz

> <i_m_Source_File_Index>
73

> <chembl_id>
CHEMBL2409316

> <chembl_pref_name>
None

> <i_lp_mmshare_version>
53161

> <r_lp_tautomer_probability>
0.999999999999776

> <s_lp_Force_Field>
OPLS_2005

> <r_lp_Energy>
20.248145

> <b_lp_Chiralities_Consistent>
1

> <s_lp_Variant>
CHEMBL3991_lig318-1

> <s_i_glide_gridfile>
glide-grid_1w7x

> <i_i_glide_lignum>
396

> <i_i_glide_rotatable_bonds>
5

> <r_i_docking_score>
-6.84191944226347

> <r_i_glide_ligand_efficiency>
-0.244354265795124

> <r_i_glide_ligand_efficiency_sa>
-0.742003467920078

> <r_i_glide_ligand_efficiency_ln>
-1.57931589475834

> <r_i_glide_gscore>
-6.84191944226347

> <r_i_glide_lipo>
-2.28842645185774

> <r_i_glide_hbond>
-0.456

> <r_i_glide_metal>
0

> <r_i_glide_rewards>
-1.22654701634783

> <r_i_glide_evdw>
-40.5589599609375

> <r_i_glide_ecoul>
-7.0028600692749

> <r_i_glide_erotb>
0.277136958444851

> <r_i_glide_esite>
-0.069705924064637

> <r_i_glide_emodel>
-63.1333704325746

> <r_i_glide_energy>
-47.5618200302124

> <r_i_glide_einternal>
2.93488216400146

> <i_i_glide_confnum>
5

> <i_i_glide_posenum>
230

> <r_i_glide_eff_state_penalty>
0

> <s_user_duplicate_titles>
CHEMBL3991_lig318

> <i_f3d_flags>
0

> <s_m_subgroup_title>
dock_pv

> <s_m_subgroupid>
dock_pv

> <b_m_subgroup_collapsed>
1

$$$$
CHEMBL3991_lig268
                    3D
 Schrodinger Suite 2021-1.
 54 57  0  0  1  0            999 V2000
   12.1521   38.8105   30.0984 C   0  0  0  0  0  0
   11.4065   39.6783   29.2768 C   0  0  0  0  0  0
   10.4827   40.6088   29.7542 C   0  0  0  0  0  0
   11.9316   38.8790   31.4870 C   0  0  0  0  0  0
   10.9864   39.7767   32.0032 C   0  0  0  0  0  0
   10.2961   40.6431   31.1318 C   0  0  0  0  0  0
    9.5115   41.4048   31.9663 N   0  0  0  0  0  0
    9.7109   40.9408   33.2440 C   0  0  0  0  0  0
   10.5766   39.9561   33.2967 N   0  0  0  0  0  0
    9.0038   41.4807   34.4401 C   0  0  0  0  0  0
    8.2746   40.6396   35.2975 C   0  0  0  0  0  0
    7.6855   41.1485   36.4744 C   0  0  0  0  0  0
    7.9058   42.4973   36.7797 C   0  0  0  0  0  0
    8.5935   43.3665   35.9238 C   0  0  0  0  0  0
    9.1294   42.8409   34.7403 C   0  0  0  0  0  0
    8.7464   44.8510   36.3395 C   0  0  2  0  0  0
    7.3713   45.4742   36.5637 C   0  0  0  0  0  0
    9.4799   45.7985   35.3637 C   0  0  0  0  0  0
   10.9806   45.6298   35.4873 C   0  0  0  0  0  0
   11.4314   46.0789   36.6914 O   0  0  0  0  0  0
   11.7075   45.2086   34.5943 O   0  0  0  0  0  0
    7.2546   45.9962   37.8192 O   0  0  0  0  0  0
    6.4568   45.4575   35.7398 O   0  0  0  0  0  0
    8.1710   39.3048   34.9939 O   0  0  0  0  0  0
   13.1665   37.8601   29.5445 C   0  0  0  0  0  0
   13.9882   37.2796   30.3035 N   0  0  0  0  0  0
   13.1309   37.6789   28.1812 N   0  0  0  0  0  0
    6.8930   40.3053   37.4340 C   0  0  0  0  0  0
    7.1598   40.3900   38.8107 C   0  0  0  0  0  0
    6.4395   39.6472   39.7422 C   0  0  0  0  0  0
    5.4208   38.8014   39.3153 C   0  0  0  0  0  0
    5.1157   38.7160   37.9578 C   0  0  0  0  0  0
    5.8430   39.4578   37.0246 C   0  0  0  0  0  0
    5.4835   39.3569   35.7066 O   0  0  0  0  0  0
    6.7188   39.7610   41.0581 F   0  0  0  0  0  0
   11.5610   39.6780   28.2057 H   0  0  0  0  0  0
    9.9593   41.2712   29.0786 H   0  0  0  0  0  0
   12.4869   38.2485   32.1679 H   0  0  0  0  0  0
    8.8729   42.1499   31.7313 H   0  0  0  0  0  0
    7.5309   42.8950   37.7113 H   0  0  0  0  0  0
    9.6955   43.4690   34.0691 H   0  0  0  0  0  0
    9.2761   44.8361   37.2970 H   0  0  0  0  0  0
    9.1611   45.6235   34.3324 H   0  0  0  0  0  0
    9.2834   46.8555   35.5688 H   0  0  0  0  0  0
   12.3905   46.1440   36.7369 H   0  0  0  0  0  0
    8.0696   45.9294   38.3399 H   0  0  0  0  0  0
    8.7667   39.0601   34.2777 H   0  0  0  0  0  0
   14.5991   36.6854   29.7673 H   0  0  0  0  0  0
   13.7659   37.0214   27.7447 H   0  0  0  0  0  0
   12.4017   38.0842   27.6083 H   0  0  0  0  0  0
    7.9333   41.0450   39.1792 H   0  0  0  0  0  0
    4.8657   38.2217   40.0371 H   0  0  0  0  0  0
    4.3171   38.0674   37.6285 H   0  0  0  0  0  0
    6.2416   39.5669   35.1488 H   0  0  0  0  0  0
  1  4  2  0  0  0
  1 25  1  0  0  0
  1  2  1  0  0  0
  2  3  2  0  0  0
  2 36  1  0  0  0
  3  6  1  0  0  0
  3 37  1  0  0  0
  4  5  1  0  0  0
  4 38  1  0  0  0
  5  9  1  0  0  0
  5  6  2  0  0  0
  6  7  1  0  0  0
  7  8  1  0  0  0
  7 39  1  0  0  0
  8  9  2  0  0  0
  8 10  1  0  0  0
 10 11  2  0  0  0
 10 15  1  0  0  0
 11 24  1  0  0  0
 11 12  1  0  0  0
 12 13  2  0  0  0
 12 28  1  0  0  0
 13 14  1  0  0  0
 13 40  1  0  0  0
 14 15  2  0  0  0
 14 16  1  0  0  0
 15 41  1  0  0  0
 16 17  1  0  0  0
 16 18  1  0  0  0
 16 42  1  0  0  0
 17 22  1  0  0  0
 17 23  2  0  0  0
 18 19  1  0  0  0
 18 43  1  0  0  0
 18 44  1  0  0  0
 19 20  1  0  0  0
 19 21  2  0  0  0
 20 45  1  0  0  0
 22 46  1  0  0  0
 24 47  1  0  0  0
 25 26  2  0  0  0
 25 27  1  0  0  0
 26 48  1  0  0  0
 27 49  1  0  0  0
 27 50  1  0  0  0
 28 29  2  0  0  0
 28 33  1  0  0  0
 29 30  1  0  0  0
 29 51  1  0  0  0
 30 31  2  0  0  0
 30 35  1  0  0  0
 31 32  1  0  0  0
 31 52  1  0  0  0
 32 33  2  0  0  0
 32 53  1  0  0  0
 33 34  1  0  0  0
 34 54  1  0  0  0
M  END
> <s_m_entry_id>
20691

> <s_m_entry_name>
dock_pv.74

> <s_m_Source_Path>
/home/csk/Desktop/cluster/DUD-E-result/fa7

> <s_m_Source_File>
dock_pv.maegz

> <i_m_Source_File_Index>
74

> <chembl_id>
CHEMBL377082

> <chembl_pref_name>
None

> <i_lp_mmshare_version>
53161

> <r_lp_tautomer_probability>
0.99999999999473

> <s_lp_Force_Field>
OPLS_2005

> <r_lp_Energy>
23.608038

> <b_lp_Chiralities_Consistent>
1

> <s_lp_Variant>
CHEMBL3991_lig268-1

> <s_i_glide_gridfile>
glide-grid_1w7x

> <i_i_glide_lignum>
344

> <i_i_glide_rotatable_bonds>
11

> <r_i_docking_score>
-6.8403089504542

> <r_i_glide_ligand_efficiency>
-0.195437398584406

> <r_i_glide_ligand_efficiency_sa>
-0.639288689502718

> <r_i_glide_ligand_efficiency_ln>
-1.50159962710241

> <r_i_glide_gscore>
-6.8403089504542

> <r_i_glide_lipo>
-1.35275904284404

> <r_i_glide_hbond>
-0.378446076160942

> <r_i_glide_metal>
0

> <r_i_glide_rewards>
-1.39023812647415

> <r_i_glide_evdw>
-47.5774765014648

> <r_i_glide_ecoul>
-12.2375593185425

> <r_i_glide_erotb>
0.531189330825976

> <r_i_glide_esite>
-0.0355473129464276

> <r_i_glide_emodel>
-79.4828673057508

> <r_i_glide_energy>
-59.8150358200073

> <r_i_glide_einternal>
13.7630243301392

> <i_i_glide_confnum>
8

> <i_i_glide_posenum>
212

> <r_i_glide_eff_state_penalty>
0

> <s_user_duplicate_titles>
CHEMBL3991_lig268

> <i_f3d_flags>
0

> <s_m_subgroup_title>
dock_pv

> <s_m_subgroupid>
dock_pv

> <b_m_subgroup_collapsed>
1

$$$$
CHEMBL3991_lig263
                    3D
 Schrodinger Suite 2021-1.
 54 57  0  0  1  0            999 V2000
   12.1451   38.8077   30.0516 C   0  0  0  0  0  0
   11.3862   39.6729   29.2417 C   0  0  0  0  0  0
   10.4537   40.5911   29.7301 C   0  0  0  0  0  0
   11.9380   38.8790   31.4453 C   0  0  0  0  0  0
   10.9886   39.7662   31.9752 C   0  0  0  0  0  0
   10.2740   40.6206   31.1089 C   0  0  0  0  0  0
    9.4770   41.3636   31.9501 N   0  0  0  0  0  0
    9.6846   40.8989   33.2286 C   0  0  0  0  0  0
   10.5946   39.9518   33.2753 N   0  0  0  0  0  0
    8.9536   41.4045   34.4318 C   0  0  0  0  0  0
    8.2809   40.5232   35.2972 C   0  0  0  0  0  0
    7.7261   40.9912   36.5006 C   0  0  0  0  0  0
    7.8812   42.3399   36.8261 C   0  0  0  0  0  0
    8.4724   43.2575   35.9512 C   0  0  0  0  0  0
    9.0036   42.7710   34.7446 C   0  0  0  0  0  0
    8.5582   44.7403   36.3942 C   0  0  2  0  0  0
    7.1730   45.2736   36.7731 C   0  0  0  0  0  0
    9.1438   45.7509   35.3846 C   0  0  0  0  0  0
   10.6589   45.6790   35.3936 C   0  0  0  0  0  0
   11.1663   46.0796   36.5924 O   0  0  0  0  0  0
   11.3458   45.3652   34.4268 O   0  0  0  0  0  0
    7.1311   45.7188   38.0678 O   0  0  0  0  0  0
    6.1891   45.2295   36.0349 O   0  0  0  0  0  0
    8.1876   39.1871   34.9922 O   0  0  0  0  0  0
   13.1636   37.8622   29.4820 C   0  0  0  0  0  0
   13.9924   37.2825   30.2307 N   0  0  0  0  0  0
   13.1302   37.6791   28.1168 N   0  0  0  0  0  0
    7.0184   40.0986   37.4621 C   0  0  0  0  0  0
    7.5188   39.9583   38.7628 C   0  0  0  0  0  0
    6.8721   39.1520   39.6974 C   0  0  0  0  0  0
    5.7059   38.4767   39.3442 C   0  0  0  0  0  0
    5.1891   38.6108   38.0569 C   0  0  0  0  0  0
    5.8390   39.4133   37.1194 C   0  0  0  0  0  0
    5.2851   39.5443   35.8722 O   0  0  0  0  0  0
   11.5340   39.6789   28.1709 H   0  0  0  0  0  0
    9.9171   41.2478   29.0612 H   0  0  0  0  0  0
   12.5062   38.2506   32.1168 H   0  0  0  0  0  0
    8.8179   42.0909   31.7196 H   0  0  0  0  0  0
    7.5292   42.6879   37.7867 H   0  0  0  0  0  0
    9.5175   43.4356   34.0660 H   0  0  0  0  0  0
    9.1722   44.7289   37.2980 H   0  0  0  0  0  0
    8.7587   45.5673   34.3782 H   0  0  0  0  0  0
    8.8959   46.7891   35.6272 H   0  0  0  0  0  0
   12.1265   46.1420   36.5859 H   0  0  0  0  0  0
    7.9966   45.6804   38.5064 H   0  0  0  0  0  0
    7.9536   38.6483   35.7533 H   0  0  0  0  0  0
   14.5985   36.6993   29.6752 H   0  0  0  0  0  0
   13.7644   37.0199   27.6832 H   0  0  0  0  0  0
   12.3967   38.0803   27.5443 H   0  0  0  0  0  0
    8.4185   40.4787   39.0546 H   0  0  0  0  0  0
    7.2776   39.0501   40.6941 H   0  0  0  0  0  0
    5.2031   37.8487   40.0662 H   0  0  0  0  0  0
    4.2833   38.0864   37.7881 H   0  0  0  0  0  0
    5.9002   39.9400   35.2480 H   0  0  0  0  0  0
  1  4  2  0  0  0
  1 25  1  0  0  0
  1  2  1  0  0  0
  2  3  2  0  0  0
  2 35  1  0  0  0
  3  6  1  0  0  0
  3 36  1  0  0  0
  4  5  1  0  0  0
  4 37  1  0  0  0
  5  9  1  0  0  0
  5  6  2  0  0  0
  6  7  1  0  0  0
  7  8  1  0  0  0
  7 38  1  0  0  0
  8  9  2  0  0  0
  8 10  1  0  0  0
 10 11  2  0  0  0
 10 15  1  0  0  0
 11 24  1  0  0  0
 11 12  1  0  0  0
 12 13  2  0  0  0
 12 28  1  0  0  0
 13 14  1  0  0  0
 13 39  1  0  0  0
 14 16  1  0  0  0
 14 15  2  0  0  0
 15 40  1  0  0  0
 16 17  1  0  0  0
 16 18  1  0  0  0
 16 41  1  0  0  0
 17 22  1  0  0  0
 17 23  2  0  0  0
 18 19  1  0  0  0
 18 42  1  0  0  0
 18 43  1  0  0  0
 19 20  1  0  0  0
 19 21  2  0  0  0
 20 44  1  0  0  0
 22 45  1  0  0  0
 24 46  1  0  0  0
 25 26  2  0  0  0
 25 27  1  0  0  0
 26 47  1  0  0  0
 27 48  1  0  0  0
 27 49  1  0  0  0
 28 29  2  0  0  0
 28 33  1  0  0  0
 29 30  1  0  0  0
 29 50  1  0  0  0
 30 31  2  0  0  0
 30 51  1  0  0  0
 31 32  1  0  0  0
 31 52  1  0  0  0
 32 33  2  0  0  0
 32 53  1  0  0  0
 33 34  1  0  0  0
 34 54  1  0  0  0
M  END
> <s_m_entry_id>
20692

> <s_m_entry_name>
dock_pv.75

> <s_m_Source_Path>
/home/csk/Desktop/cluster/DUD-E-result/fa7

> <s_m_Source_File>
dock_pv.maegz

> <i_m_Source_File_Index>
75

> <chembl_id>
CHEMBL444622

> <chembl_pref_name>
None

> <i_lp_mmshare_version>
53161

> <r_lp_tautomer_probability>
0.99999999999473

> <s_lp_Force_Field>
OPLS_2005

> <r_lp_Energy>
22.380333

> <b_lp_Chiralities_Consistent>
1

> <s_lp_Variant>
CHEMBL3991_lig263-1

> <s_i_glide_gridfile>
glide-grid_1w7x

> <i_i_glide_lignum>
334

> <i_i_glide_rotatable_bonds>
11

> <r_i_docking_score>
-6.84020890597834

> <r_i_glide_ligand_efficiency>
-0.201182614881716

> <r_i_glide_ligand_efficiency_sa>
-0.651753572616564

> <r_i_glide_ligand_efficiency_ln>
-1.51119400869165

> <r_i_glide_gscore>
-6.84020890597834

> <r_i_glide_lipo>
-1.45238048895933

> <r_i_glide_hbond>
-0.380480419131823

> <r_i_glide_metal>
0

> <r_i_glide_rewards>
-1.09060017481259

> <r_i_glide_evdw>
-47.3008804321289

> <r_i_glide_ecoul>
-13.8599786758423

> <r_i_glide_erotb>
0.569661969288118

> <r_i_glide_esite>
-0.0423689693799344

> <r_i_glide_emodel>
-80.2218185080536

> <r_i_glide_energy>
-61.1608591079712

> <r_i_glide_einternal>
15.507381439209

> <i_i_glide_confnum>
31

> <i_i_glide_posenum>
399

> <r_i_glide_eff_state_penalty>
0

> <s_user_duplicate_titles>
CHEMBL3991_lig263,342050

> <i_f3d_flags>
0

> <s_m_subgroup_title>
dock_pv

> <s_m_subgroupid>
dock_pv

> <b_m_subgroup_collapsed>
1

$$$$
CHEMBL3991_lig228
                    3D
 Schrodinger Suite 2021-1.
 58 61  0  0  1  0            999 V2000
   12.1500   38.8266   30.1148 C   0  0  0  0  0  0
   11.3700   39.6670   29.2969 C   0  0  0  0  0  0
   10.4012   40.5499   29.7814 C   0  0  0  0  0  0
   11.9308   38.8791   31.5049 C   0  0  0  0  0  0
   10.9442   39.7296   32.0256 C   0  0  0  0  0  0
   10.2066   40.5639   31.1597 C   0  0  0  0  0  0
    9.3786   41.2736   32.0021 N   0  0  0  0  0  0
    9.5988   40.8143   33.2814 C   0  0  0  0  0  0
   10.5347   39.8931   33.3212 N   0  0  0  0  0  0
    8.8755   41.3167   34.4961 C   0  0  0  0  0  0
    8.2870   40.4390   35.4294 C   0  0  0  0  0  0
    7.7386   40.9300   36.6339 C   0  0  0  0  0  0
    7.8453   42.3034   36.8830 C   0  0  0  0  0  0
    8.3973   43.2050   35.9706 C   0  0  0  0  0  0
    8.8880   42.6945   34.7591 C   0  0  0  0  0  0
    8.5029   44.6940   36.3941 C   0  0  2  0  0  0
    7.1300   45.2441   36.7870 C   0  0  0  0  0  0
    9.0829   45.6875   35.3657 C   0  0  0  0  0  0
   10.5955   45.5866   35.3506 C   0  0  0  0  0  0
   11.1316   46.0788   36.5007 O   0  0  0  0  0  0
   11.2578   45.1609   34.4099 O   0  0  0  0  0  0
    7.1319   45.7744   38.0479 O   0  0  0  0  0  0
    6.1205   45.1492   36.0899 O   0  0  0  0  0  0
    8.3247   39.0849   35.2004 O   0  0  0  0  0  0
   13.2074   37.9255   29.5609 C   0  0  0  0  0  0
   14.0954   37.4389   30.3100 N   0  0  0  0  0  0
   13.1309   37.6794   28.2108 N   0  0  0  0  0  0
    7.1194   40.0575   37.6875 C   0  0  0  0  0  0
    7.3066   40.3506   39.0482 C   0  0  0  0  0  0
    6.7170   39.5805   40.0453 C   0  0  0  0  0  0
    5.9451   38.4781   39.6974 C   0  0  0  0  0  0
    5.7786   38.1228   38.3540 C   0  0  0  0  0  0
    6.3315   38.9409   37.3631 C   0  0  0  0  0  0
    4.9975   36.8755   37.9437 C   0  0  0  0  0  0
    5.1308   35.7841   38.8966 N   0  0  0  0  0  0
   11.5309   39.6787   28.2278 H   0  0  0  0  0  0
    9.8479   41.1914   29.1113 H   0  0  0  0  0  0
   12.5159   38.2697   32.1800 H   0  0  0  0  0  0
    8.6992   41.9832   31.7729 H   0  0  0  0  0  0
    7.5054   42.6964   37.8287 H   0  0  0  0  0  0
    9.3598   43.3506   34.0433 H   0  0  0  0  0  0
    9.1269   44.6910   37.2956 H   0  0  0  0  0  0
    8.6771   45.5008   34.3689 H   0  0  0  0  0  0
    8.8528   46.7308   35.6053 H   0  0  0  0  0  0
   12.0933   46.0959   36.4858 H   0  0  0  0  0  0
    8.0057   45.7538   38.4697 H   0  0  0  0  0  0
    8.1880   38.5781   36.0045 H   0  0  0  0  0  0
   14.7351   36.8740   29.7745 H   0  0  0  0  0  0
   13.7801   37.0362   27.7752 H   0  0  0  0  0  0
   12.3974   38.0788   27.6369 H   0  0  0  0  0  0
    7.9276   41.1796   39.3533 H   0  0  0  0  0  0
    6.8723   39.8262   41.0859 H   0  0  0  0  0  0
    5.4954   37.8825   40.4779 H   0  0  0  0  0  0
    6.1443   38.6914   36.3289 H   0  0  0  0  0  0
    5.3476   36.5212   36.9728 H   0  0  0  0  0  0
    3.9436   37.1336   37.8366 H   0  0  0  0  0  0
    4.5635   34.9936   38.6203 H   0  0  0  0  0  0
    6.0860   35.4447   38.8964 H   0  0  0  0  0  0
  1  4  2  0  0  0
  1 25  1  0  0  0
  1  2  1  0  0  0
  2  3  2  0  0  0
  2 36  1  0  0  0
  3  6  1  0  0  0
  3 37  1  0  0  0
  4  5  1  0  0  0
  4 38  1  0  0  0
  5  9  1  0  0  0
  5  6  2  0  0  0
  6  7  1  0  0  0
  7  8  1  0  0  0
  7 39  1  0  0  0
  8  9  2  0  0  0
  8 10  1  0  0  0
 10 11  2  0  0  0
 10 15  1  0  0  0
 11 24  1  0  0  0
 11 12  1  0  0  0
 12 13  2  0  0  0
 12 28  1  0  0  0
 13 14  1  0  0  0
 13 40  1  0  0  0
 14 15  2  0  0  0
 14 16  1  0  0  0
 15 41  1  0  0  0
 16 17  1  0  0  0
 16 18  1  0  0  0
 16 42  1  0  0  0
 17 22  1  0  0  0
 17 23  2  0  0  0
 18 19  1  0  0  0
 18 43  1  0  0  0
 18 44  1  0  0  0
 19 20  1  0  0  0
 19 21  2  0  0  0
 20 45  1  0  0  0
 22 46  1  0  0  0
 24 47  1  0  0  0
 25 26  2  0  0  0
 25 27  1  0  0  0
 26 48  1  0  0  0
 27 49  1  0  0  0
 27 50  1  0  0  0
 28 29  2  0  0  0
 28 33  1  0  0  0
 29 30  1  0  0  0
 29 51  1  0  0  0
 30 31  2  0  0  0
 30 52  1  0  0  0
 31 32  1  0  0  0
 31 53  1  0  0  0
 32 33  2  0  0  0
 32 34  1  0  0  0
 33 54  1  0  0  0
 34 35  1  0  0  0
 34 55  1  0  0  0
 34 56  1  0  0  0
 35 57  1  0  0  0
 35 58  1  0  0  0
M  END
> <s_m_entry_id>
20693

> <s_m_entry_name>
dock_pv.76

> <s_m_Source_Path>
/home/csk/Desktop/cluster/DUD-E-result/fa7

> <s_m_Source_File>
dock_pv.maegz

> <i_m_Source_File_Index>
76

> <chembl_id>
CHEMBL202784

> <chembl_pref_name>
None

> <i_lp_mmshare_version>
53161

> <r_lp_tautomer_probability>
0.999999999997365

> <s_lp_Force_Field>
OPLS_2005

> <r_lp_Energy>
22.851109

> <b_lp_Chiralities_Consistent>
1

> <s_lp_Variant>
CHEMBL3991_lig228-1

> <s_i_glide_gridfile>
glide-grid_1w7x

> <i_i_glide_lignum>
264

> <i_i_glide_rotatable_bonds>
11

> <r_i_docking_score>
-6.8342546610532

> <r_i_glide_ligand_efficiency>
-0.195264418887234

> <r_i_glide_ligand_efficiency_sa>
-0.638722861443624

> <r_i_glide_ligand_efficiency_ln>
-1.50027057621118

> <r_i_glide_gscore>
-6.8342546610532

> <r_i_glide_lipo>
-1.40997847462968

> <r_i_glide_hbond>
-0.419986310317071

> <r_i_glide_metal>
0

> <r_i_glide_rewards>
-0.969755783454557

> <r_i_glide_evdw>
-48.7506446838379

> <r_i_glide_ecoul>
-13.9727344512939

> <r_i_glide_erotb>
0.541372736609898

> <r_i_glide_esite>
-0.0424644273757985

> <r_i_glide_emodel>
-81.7337631571026

> <r_i_glide_energy>
-62.7233791351318

> <r_i_glide_einternal>
12.6358003616333

> <i_i_glide_confnum>
14

> <i_i_glide_posenum>
339

> <r_i_glide_eff_state_penalty>
0

> <s_user_duplicate_titles>
CHEMBL3991_lig228

> <i_f3d_flags>
0

> <s_m_subgroup_title>
dock_pv

> <s_m_subgroupid>
dock_pv

> <b_m_subgroup_collapsed>
1

$$$$
CHEMBL3991_lig298
                    3D
 Schrodinger Suite 2021-1.
 70 70  0  0  1  0            999 V2000
   10.5482   43.3078   32.3032 C   0  0  1  0  0  0
    9.8664   43.9411   33.5341 C   0  0  0  0  0  0
   10.0533   45.4579   33.6595 C   0  0  0  0  0  0
    9.5955   46.0790   35.2966 S   0  0  0  0  0  0
   13.1309   38.2193   31.8026 C   0  0  0  0  0  0
   13.8699   37.7772   30.7193 C   0  0  0  0  0  0
   13.4807   38.0789   29.4035 C   0  0  0  0  0  0
   12.2742   38.7752   29.2165 C   0  0  0  0  0  0
   11.5311   39.2251   30.3000 C   0  0  0  0  0  0
   11.9802   38.9803   31.5960 C   0  0  0  0  0  0
   14.3574   37.6789   28.2769 C   0  0  0  0  0  0
   13.7662   37.6790   27.0395 N   0  0  0  0  0  0
   15.5314   37.2790   28.4966 N   0  0  0  0  0  0
   11.2610   39.5817   32.7902 C   0  0  0  0  0  0
   11.2751   41.0375   32.7899 N   0  0  0  0  0  0
   10.2972   41.7921   32.2772 C   0  0  0  0  0  0
    9.2479   41.3288   31.8315 O   0  0  0  0  0  0
   10.2005   43.9676   31.0377 N   0  0  0  0  0  0
    8.9946   44.1189   30.4676 C   0  0  0  0  0  0
    8.9138   44.6926   29.0121 C   0  0  2  0  0  0
    7.9483   43.8604   31.0681 O   0  0  0  0  0  0
    7.6215   44.2050   28.4178 N   0  0  1  0  0  0
   10.1648   44.4782   28.0665 C   0  0  2  0  0  0
   11.6018   44.7335   28.5985 C   0  0  0  0  0  0
   11.8224   46.0849   29.2926 C   0  0  0  0  0  0
    7.4631   42.6491   27.5766 S   0  0  0  0  0  0
    8.1337   41.3555   28.7892 C   0  0  0  0  0  0
    8.2779   39.9657   28.1415 C   0  0  0  0  0  0
    6.9565   39.3242   27.6969 C   0  0  0  0  0  0
    8.3310   42.6564   26.3958 O   0  0  0  0  0  0
    6.0246   42.4169   27.4202 O   0  0  0  0  0  0
    9.9928   45.3088   26.7734 C   0  0  0  0  0  0
   11.1557   45.8322   36.1850 C   0  0  0  0  0  0
   11.6233   43.4608   32.4116 H   0  0  0  0  0  0
    8.7976   43.7223   33.5202 H   0  0  0  0  0  0
   10.2455   43.4591   34.4361 H   0  0  0  0  0  0
   11.0861   45.7404   33.4525 H   0  0  0  0  0  0
    9.4354   45.9687   32.9202 H   0  0  0  0  0  0
   13.4991   38.0242   32.8006 H   0  0  0  0  0  0
   14.7809   37.2313   30.9189 H   0  0  0  0  0  0
   11.9312   39.0435   28.2289 H   0  0  0  0  0  0
   10.6394   39.8091   30.1299 H   0  0  0  0  0  0
   14.2370   37.2092   26.2662 H   0  0  0  0  0  0
   12.8214   38.0112   26.8971 H   0  0  0  0  0  0
   15.9510   36.9388   27.6395 H   0  0  0  0  0  0
   11.7658   39.2790   33.6974 H   0  0  0  0  0  0
   10.2464   39.1846   32.8352 H   0  0  0  0  0  0
   12.1270   41.4720   33.1206 H   0  0  0  0  0  0
   10.9957   44.2672   30.4938 H   0  0  0  0  0  0
    8.7977   45.7692   29.1430 H   0  0  0  0  0  0
    6.8439   44.3496   29.0682 H   0  0  0  0  0  0
   10.1800   43.4291   27.7849 H   0  0  0  0  0  0
   11.9307   43.9170   29.2396 H   0  0  0  0  0  0
   12.2950   44.6693   27.7589 H   0  0  0  0  0  0
   12.7299   46.0630   29.8962 H   0  0  0  0  0  0
   11.9309   46.8789   28.5566 H   0  0  0  0  0  0
   11.0004   46.3633   29.9504 H   0  0  0  0  0  0
    7.4812   41.3459   29.6620 H   0  0  0  0  0  0
    9.1128   41.6990   29.1138 H   0  0  0  0  0  0
    8.7587   39.2956   28.8547 H   0  0  0  0  0  0
    8.9646   40.0338   27.2971 H   0  0  0  0  0  0
    7.1212   38.3091   27.3324 H   0  0  0  0  0  0
    6.4920   39.8834   26.8845 H   0  0  0  0  0  0
    6.2425   39.2710   28.5194 H   0  0  0  0  0  0
   10.0320   46.3779   26.9807 H   0  0  0  0  0  0
   10.7721   45.0835   26.0453 H   0  0  0  0  0  0
    9.0394   45.1156   26.2834 H   0  0  0  0  0  0
   11.0338   46.0744   37.2420 H   0  0  0  0  0  0
   11.4897   44.7997   36.0972 H   0  0  0  0  0  0
   11.9308   46.4791   35.7754 H   0  0  0  0  0  0
  1 18  1  0  0  0
  1  2  1  0  0  0
  1 16  1  0  0  0
  1 34  1  0  0  0
  2  3  1  0  0  0
  2 35  1  0  0  0
  2 36  1  0  0  0
  3  4  1  0  0  0
  3 37  1  0  0  0
  3 38  1  0  0  0
  4 33  1  0  0  0
  5 10  1  0  0  0
  5  6  2  0  0  0
  5 39  1  0  0  0
  6  7  1  0  0  0
  6 40  1  0  0  0
  7 11  1  0  0  0
  7  8  2  0  0  0
  8  9  1  0  0  0
  8 41  1  0  0  0
  9 10  2  0  0  0
  9 42  1  0  0  0
 10 14  1  0  0  0
 11 12  1  0  0  0
 11 13  2  0  0  0
 12 43  1  0  0  0
 12 44  1  0  0  0
 13 45  1  0  0  0
 14 15  1  0  0  0
 14 46  1  0  0  0
 14 47  1  0  0  0
 15 16  1  0  0  0
 15 48  1  0  0  0
 16 17  2  0  0  0
 18 19  1  0  0  0
 18 49  1  0  0  0
 19 20  1  0  0  0
 19 21  2  0  0  0
 20 22  1  0  0  0
 20 23  1  0  0  0
 20 50  1  0  0  0
 22 26  1  0  0  0
 22 51  1  0  0  0
 23 24  1  0  0  0
 23 32  1  0  0  0
 23 52  1  0  0  0
 24 25  1  0  0  0
 24 53  1  0  0  0
 24 54  1  0  0  0
 25 55  1  0  0  0
 25 56  1  0  0  0
 25 57  1  0  0  0
 26 27  1  0  0  0
 26 30  2  0  0  0
 26 31  2  0  0  0
 27 28  1  0  0  0
 27 58  1  0  0  0
 27 59  1  0  0  0
 28 29  1  0  0  0
 28 60  1  0  0  0
 28 61  1  0  0  0
 29 62  1  0  0  0
 29 63  1  0  0  0
 29 64  1  0  0  0
 32 65  1  0  0  0
 32 66  1  0  0  0
 32 67  1  0  0  0
 33 68  1  0  0  0
 33 69  1  0  0  0
 33 70  1  0  0  0
M  END
> <s_m_entry_id>
20694

> <s_m_entry_name>
dock_pv.77

> <s_m_Source_Path>
/home/csk/Desktop/cluster/DUD-E-result/fa7

> <s_m_Source_File>
dock_pv.maegz

> <i_m_Source_File_Index>
77

> <chembl_id>
CHEMBL523575

> <chembl_pref_name>
None

> <i_lp_mmshare_version>
53161

> <r_lp_tautomer_probability>
1

> <s_lp_Force_Field>
OPLS_2005

> <r_lp_Energy>
0.094621

> <b_lp_Chiralities_Consistent>
1

> <s_lp_Variant>
CHEMBL3991_lig298-1

> <s_i_glide_gridfile>
glide-grid_1w7x

> <i_i_glide_lignum>
376

> <i_i_glide_rotatable_bonds>
17

> <r_i_docking_score>
-6.82746408521963

> <r_i_glide_ligand_efficiency>
-0.206892851067261

> <r_i_glide_ligand_efficiency_sa>
-0.663615921655509

> <r_i_glide_ligand_efficiency_ln>
-1.51839266183574

> <r_i_glide_gscore>
-6.82746408521963

> <r_i_glide_lipo>
-2.89617559010844

> <r_i_glide_hbond>
-0.49748757521761

> <r_i_glide_metal>
0

> <r_i_glide_rewards>
-0.534090590503939

> <r_i_glide_evdw>
-43.7659225463867

> <r_i_glide_ecoul>
-11.3278532028198

> <r_i_glide_erotb>
1.06286556949303

> <r_i_glide_esite>
-0.0751017911403601

> <r_i_glide_emodel>
-74.9706003151331

> <r_i_glide_energy>
-55.0937757492065

> <r_i_glide_einternal>
5.57699680328369

> <i_i_glide_confnum>
283

> <i_i_glide_posenum>
262

> <r_i_glide_eff_state_penalty>
0

> <s_user_duplicate_titles>
CHEMBL3991_lig298,510905

> <i_f3d_flags>
0

> <s_m_subgroup_title>
dock_pv

> <s_m_subgroupid>
dock_pv

> <b_m_subgroup_collapsed>
1

$$$$
CHEMBL3991_lig364
                    3D
 Schrodinger Suite 2021-1.
 69 72  0  0  1  0            999 V2000
    8.3308   39.3979   35.0138 C   0  0  0  0  0  0
    8.6158   40.2005   33.9120 C   0  0  0  0  0  0
    7.6048   40.7278   33.0923 C   0  0  0  0  0  0
    6.2691   40.4786   33.4524 C   0  0  0  0  0  0
    5.9490   39.6741   34.5563 C   0  0  0  0  0  0
    6.9923   39.1341   35.3206 C   0  0  0  0  0  0
    7.9206   41.5138   31.7910 C   0  0  1  0  0  0
    8.2024   42.9313   32.0559 N   0  0  0  0  0  0
    9.2526   43.4140   32.8562 C   0  0  0  0  0  0
   10.4804   42.7632   32.9677 C   0  0  0  0  0  0
   11.4692   43.2455   33.8034 C   0  0  0  0  0  0
   11.2766   44.4194   34.5402 C   0  0  0  0  0  0
   10.0639   45.1133   34.3718 C   0  0  0  0  0  0
    9.0635   44.6140   33.5388 C   0  0  0  0  0  0
   12.3446   44.8743   35.4539 C   0  0  0  0  0  0
   13.5310   44.4790   35.3000 N   0  0  0  0  0  0
   11.9030   45.6790   36.4696 N   0  0  0  0  0  0
    8.9006   40.8471   30.8118 C   0  0  0  0  0  0
    9.8952   40.0790   31.1794 N   0  0  0  0  0  0
    8.8627   40.9758   29.4400 N   0  0  0  0  0  0
    4.6020   39.4397   34.7966 O   0  0  0  0  0  0
    4.1283   38.4785   35.7534 C   0  0  0  0  0  0
    4.3075   38.9110   37.2250 C   0  0  0  0  0  0
    9.9226   40.2305   28.9816 C   0  0  0  0  0  0
   10.5617   39.7166   30.1011 C   0  0  0  0  0  0
   11.8069   38.8923   30.2119 C   0  0  0  0  0  0
    4.5308   37.0190   35.4499 C   0  0  0  0  0  0
    9.4116   38.8790   35.7038 O   0  0  0  0  0  0
    9.2238   38.1171   36.8990 C   0  0  0  0  0  0
    8.7762   38.9707   38.0970 C   0  0  0  0  0  0
   12.3611   38.6107   31.4657 C   0  0  0  0  0  0
   13.5312   37.8704   31.5711 C   0  0  0  0  0  0
   14.1622   37.4085   30.4197 C   0  0  0  0  0  0
   13.6235   37.6790   29.1650 C   0  0  0  0  0  0
   12.4483   38.4177   29.0673 C   0  0  0  0  0  0
    7.9373   41.7572   28.6404 C   0  0  0  0  0  0
    5.2599   40.9799   32.6990 F   0  0  0  0  0  0
    9.6547   40.3703   33.6846 H   0  0  0  0  0  0
    6.7732   38.4935   36.1542 H   0  0  0  0  0  0
    6.9763   41.5374   31.2474 H   0  0  0  0  0  0
    7.5441   43.6071   31.6985 H   0  0  0  0  0  0
   10.7218   41.8831   32.4154 H   0  0  0  0  0  0
   12.3926   42.6845   33.8718 H   0  0  0  0  0  0
    9.8774   46.0423   34.8915 H   0  0  0  0  0  0
    8.1344   45.1568   33.4459 H   0  0  0  0  0  0
   14.1385   44.8310   36.0251 H   0  0  0  0  0  0
   12.5710   46.1576   37.0656 H   0  0  0  0  0  0
   10.9200   45.7989   36.6575 H   0  0  0  0  0  0
    3.0486   38.4933   35.6000 H   0  0  0  0  0  0
    4.1309   38.0774   37.9059 H   0  0  0  0  0  0
    5.2934   39.3111   37.4495 H   0  0  0  0  0  0
    3.5828   39.6790   37.4866 H   0  0  0  0  0  0
   10.1552   40.1650   27.9280 H   0  0  0  0  0  0
    4.1375   36.3399   36.2071 H   0  0  0  0  0  0
    4.1153   36.6998   34.4964 H   0  0  0  0  0  0
    5.6048   36.8555   35.4014 H   0  0  0  0  0  0
   10.1876   37.6792   37.1518 H   0  0  0  0  0  0
    8.5509   37.2753   36.7273 H   0  0  0  0  0  0
    8.6306   38.3415   38.9753 H   0  0  0  0  0  0
    7.8429   39.4999   37.9150 H   0  0  0  0  0  0
    9.5311   39.7136   38.3506 H   0  0  0  0  0  0
   11.9012   38.9750   32.3727 H   0  0  0  0  0  0
   13.9456   37.6791   32.5484 H   0  0  0  0  0  0
   15.0797   36.8460   30.4971 H   0  0  0  0  0  0
   14.1162   37.3199   28.2718 H   0  0  0  0  0  0
   12.0473   38.6410   28.0970 H   0  0  0  0  0  0
    8.2997   41.8243   27.6145 H   0  0  0  0  0  0
    6.9642   41.2665   28.6372 H   0  0  0  0  0  0
    7.8514   42.7614   29.0560 H   0  0  0  0  0  0
  1  2  2  0  0  0
  1  6  1  0  0  0
  1 28  1  0  0  0
  2  3  1  0  0  0
  2 38  1  0  0  0
  3  4  2  0  0  0
  3  7  1  0  0  0
  4  5  1  0  0  0
  4 37  1  0  0  0
  5  6  2  0  0  0
  5 21  1  0  0  0
  6 39  1  0  0  0
  7  8  1  0  0  0
  7 18  1  0  0  0
  7 40  1  0  0  0
  8  9  1  0  0  0
  8 41  1  0  0  0
  9 10  2  0  0  0
  9 14  1  0  0  0
 10 11  1  0  0  0
 10 42  1  0  0  0
 11 12  2  0  0  0
 11 43  1  0  0  0
 12 13  1  0  0  0
 12 15  1  0  0  0
 13 14  2  0  0  0
 13 44  1  0  0  0
 14 45  1  0  0  0
 15 16  2  0  0  0
 15 17  1  0  0  0
 16 46  1  0  0  0
 17 47  1  0  0  0
 17 48  1  0  0  0
 18 19  2  0  0  0
 18 20  1  0  0  0
 19 25  1  0  0  0
 20 24  1  0  0  0
 20 36  1  0  0  0
 21 22  1  0  0  0
 22 23  1  0  0  0
 22 27  1  0  0  0
 22 49  1  0  0  0
 23 50  1  0  0  0
 23 51  1  0  0  0
 23 52  1  0  0  0
 24 25  2  0  0  0
 24 53  1  0  0  0
 25 26  1  0  0  0
 26 31  2  0  0  0
 26 35  1  0  0  0
 27 54  1  0  0  0
 27 55  1  0  0  0
 27 56  1  0  0  0
 28 29  1  0  0  0
 29 30  1  0  0  0
 29 57  1  0  0  0
 29 58  1  0  0  0
 30 59  1  0  0  0
 30 60  1  0  0  0
 30 61  1  0  0  0
 31 32  1  0  0  0
 31 62  1  0  0  0
 32 33  2  0  0  0
 32 63  1  0  0  0
 33 34  1  0  0  0
 33 64  1  0  0  0
 34 35  2  0  0  0
 34 65  1  0  0  0
 35 66  1  0  0  0
 36 67  1  0  0  0
 36 68  1  0  0  0
 36 69  1  0  0  0
M  END
> <s_m_entry_id>
20695

> <s_m_entry_name>
dock_pv.78

> <s_m_Source_Path>
/home/csk/Desktop/cluster/DUD-E-result/fa7

> <s_m_Source_File>
dock_pv.maegz

> <i_m_Source_File_Index>
78

> <chembl_id>
CHEMBL3403468

> <chembl_pref_name>
None

> <i_lp_mmshare_version>
53161

> <r_lp_tautomer_probability>
1

> <s_lp_Force_Field>
OPLS_2005

> <r_lp_Energy>
20.676027

> <b_lp_Chiralities_Consistent>
1

> <s_lp_Variant>
CHEMBL3991_lig364-2

> <s_i_glide_gridfile>
glide-grid_1w7x

> <i_i_glide_lignum>
490

> <i_i_glide_rotatable_bonds>
10

> <r_i_docking_score>
-6.82553864983506

> <r_i_glide_ligand_efficiency>
-0.18447401756311

> <r_i_glide_ligand_efficiency_sa>
-0.614708351644827

> <r_i_glide_ligand_efficiency_ln>
-1.48029931982043

> <r_i_glide_gscore>
-6.82553864983506

> <r_i_glide_lipo>
-3.2484622934296

> <r_i_glide_hbond>
-0.301200686519227

> <r_i_glide_metal>
0

> <r_i_glide_rewards>
-0.20470870878537

> <r_i_glide_evdw>
-45.5355415344238

> <r_i_glide_ecoul>
-8.61530017852783

> <r_i_glide_erotb>
0.568337844488109

> <r_i_glide_esite>
-0.0704327020886126

> <r_i_glide_emodel>
-68.9471248440584

> <r_i_glide_energy>
-54.1508417129517

> <r_i_glide_einternal>
15.8652038574219

> <i_i_glide_confnum>
11

> <i_i_glide_posenum>
248

> <r_i_glide_eff_state_penalty>
0

> <s_user_duplicate_titles>
CHEMBL3991_lig364

> <i_f3d_flags>
0

> <s_m_subgroup_title>
dock_pv

> <s_m_subgroupid>
dock_pv

> <b_m_subgroup_collapsed>
1

$$$$
CHEMBL3991_lig213
                    3D
 Schrodinger Suite 2021-1.
 65 69  0  0  1  0            999 V2000
    8.2844   43.7671   31.0706 C   0  0  0  0  0  0
    8.3941   43.9577   29.5730 C   0  0  0  0  0  0
    7.9516   42.5363   31.5525 N   0  0  0  0  0  0
   14.3552   37.6789   28.2783 C   0  0  0  0  0  0
    9.5985   44.4405   28.9542 C   0  0  0  0  0  0
   13.4624   38.0965   29.3913 C   0  0  0  0  0  0
   11.5033   39.3450   30.2328 C   0  0  0  0  0  0
   12.2815   38.8296   29.1686 C   0  0  0  0  0  0
    8.2380   41.2924   30.7923 C   0  0  0  0  0  0
   15.5308   37.2790   28.5011 N   0  0  0  0  0  0
    8.4248   44.7550   31.7949 O   0  0  0  0  0  0
   10.3212   40.0976   30.0086 C   0  0  0  0  0  0
    9.5616   40.5784   31.0810 C   0  0  0  0  0  0
   11.9310   39.1144   31.5688 C   0  0  0  0  0  0
   13.8226   37.8366   30.7218 C   0  0  0  0  0  0
   13.0902   38.3352   31.7911 C   0  0  0  0  0  0
    9.6146   44.6252   27.5324 C   0  0  0  0  0  0
   11.1890   39.6719   32.6340 C   0  0  0  0  0  0
   13.7763   37.6790   27.0350 N   0  0  0  0  0  0
   10.0118   40.3628   32.3849 C   0  0  0  0  0  0
    7.2815   43.6705   28.7724 C   0  0  0  0  0  0
    7.4813   42.4213   32.9545 C   0  0  0  0  0  0
    6.9111   40.4356   35.5688 C   0  0  0  0  0  0
    6.3507   41.3986   33.1998 C   0  0  0  0  0  0
   10.7921   44.7415   29.6767 C   0  0  0  0  0  0
    7.3148   43.8451   27.3958 C   0  0  0  0  0  0
    8.4612   44.3203   26.7741 C   0  0  0  0  0  0
    5.9589   41.2497   34.6870 C   0  0  0  0  0  0
   10.7876   45.1035   26.8985 C   0  0  0  0  0  0
    7.4827   39.2409   35.1125 C   0  0  0  0  0  0
    7.1543   40.8534   36.8815 C   0  0  0  0  0  0
   11.9310   45.1932   29.0203 C   0  0  0  0  0  0
   11.9310   45.3627   27.6427 C   0  0  0  0  0  0
    7.9403   40.0803   37.7324 C   0  0  0  0  0  0
    8.2892   38.4788   35.9549 C   0  0  0  0  0  0
    8.5085   38.8973   37.2646 C   0  0  0  0  0  0
   11.9651   39.0778   28.1663 H   0  0  0  0  0  0
    8.2113   41.4824   29.7204 H   0  0  0  0  0  0
    7.4345   40.5741   30.9352 H   0  0  0  0  0  0
   15.9536   36.9422   27.6450 H   0  0  0  0  0  0
   10.0010   40.2683   28.9898 H   0  0  0  0  0  0
   14.7206   37.2776   30.9452 H   0  0  0  0  0  0
   13.4281   38.1567   32.8023 H   0  0  0  0  0  0
   11.5215   39.5118   33.6484 H   0  0  0  0  0  0
   14.2529   37.2065   26.2669 H   0  0  0  0  0  0
   12.8262   37.9930   26.8888 H   0  0  0  0  0  0
    9.4492   40.6882   33.2391 H   0  0  0  0  0  0
    6.3655   43.3126   29.2219 H   0  0  0  0  0  0
    8.3216   42.2371   33.6184 H   0  0  0  0  0  0
    7.1127   43.3864   33.3088 H   0  0  0  0  0  0
    5.4730   41.7360   32.6467 H   0  0  0  0  0  0
    6.5946   40.4201   32.7964 H   0  0  0  0  0  0
   10.8272   44.6125   30.7483 H   0  0  0  0  0  0
    6.4389   43.6171   26.8062 H   0  0  0  0  0  0
    8.4794   44.4590   25.7029 H   0  0  0  0  0  0
    5.8225   42.2459   35.1102 H   0  0  0  0  0  0
    4.9863   40.7596   34.7451 H   0  0  0  0  0  0
   10.7958   45.2413   25.8261 H   0  0  0  0  0  0
    7.2957   38.8792   34.1143 H   0  0  0  0  0  0
    6.7311   41.7725   37.2550 H   0  0  0  0  0  0
   12.8273   45.4004   29.5869 H   0  0  0  0  0  0
   12.8331   45.6816   27.1459 H   0  0  0  0  0  0
    8.1232   40.4031   38.7479 H   0  0  0  0  0  0
    8.7288   37.5566   35.6017 H   0  0  0  0  0  0
    9.1234   38.2995   37.9228 H   0  0  0  0  0  0
  1  2  1  0  0  0
  1  3  1  0  0  0
  1 11  2  0  0  0
  2  5  1  0  0  0
  2 21  2  0  0  0
  3  9  1  0  0  0
  3 22  1  0  0  0
  4  6  1  0  0  0
  4 10  2  0  0  0
  4 19  1  0  0  0
  5 17  1  0  0  0
  5 25  2  0  0  0
  6  8  1  0  0  0
  6 15  2  0  0  0
  7 12  1  0  0  0
  7  8  2  0  0  0
  7 14  1  0  0  0
  8 37  1  0  0  0
  9 13  1  0  0  0
  9 38  1  0  0  0
  9 39  1  0  0  0
 10 40  1  0  0  0
 12 13  2  0  0  0
 12 41  1  0  0  0
 13 20  1  0  0  0
 14 18  1  0  0  0
 14 16  2  0  0  0
 15 16  1  0  0  0
 15 42  1  0  0  0
 16 43  1  0  0  0
 17 29  2  0  0  0
 17 27  1  0  0  0
 18 20  2  0  0  0
 18 44  1  0  0  0
 19 45  1  0  0  0
 19 46  1  0  0  0
 20 47  1  0  0  0
 21 26  1  0  0  0
 21 48  1  0  0  0
 22 24  1  0  0  0
 22 49  1  0  0  0
 22 50  1  0  0  0
 23 28  1  0  0  0
 23 30  2  0  0  0
 23 31  1  0  0  0
 24 28  1  0  0  0
 24 51  1  0  0  0
 24 52  1  0  0  0
 25 32  1  0  0  0
 25 53  1  0  0  0
 26 27  2  0  0  0
 26 54  1  0  0  0
 27 55  1  0  0  0
 28 56  1  0  0  0
 28 57  1  0  0  0
 29 33  1  0  0  0
 29 58  1  0  0  0
 30 35  1  0  0  0
 30 59  1  0  0  0
 31 34  2  0  0  0
 31 60  1  0  0  0
 32 33  2  0  0  0
 32 61  1  0  0  0
 33 62  1  0  0  0
 34 36  1  0  0  0
 34 63  1  0  0  0
 35 36  2  0  0  0
 35 64  1  0  0  0
 36 65  1  0  0  0
M  END
> <s_m_entry_id>
20696

> <s_m_entry_name>
dock_pv.79

> <s_m_Source_Path>
/home/csk/Desktop/cluster/DUD-E-result/fa7

> <s_m_Source_File>
dock_pv.maegz

> <i_m_Source_File_Index>
79

> <chembl_id>
CHEMBL195238

> <chembl_pref_name>
None

> <i_lp_mmshare_version>
53161

> <r_lp_tautomer_probability>
1

> <s_lp_Force_Field>
OPLS_2005

> <r_lp_Energy>
36.227297

> <b_lp_Chiralities_Consistent>
1

> <s_lp_Variant>
CHEMBL3991_lig213-1

> <s_i_glide_gridfile>
glide-grid_1w7x

> <i_i_glide_lignum>
241

> <i_i_glide_rotatable_bonds>
9

> <r_i_docking_score>
-6.82496970884229

> <r_i_glide_ligand_efficiency>
-0.189582491912286

> <r_i_glide_ligand_efficiency_sa>
-0.625987595210776

> <r_i_glide_ligand_efficiency_ln>
-1.48902400109667

> <r_i_glide_gscore>
-6.82496970884229

> <r_i_glide_lipo>
-3.25386387821758

> <r_i_glide_hbond>
-0.456

> <r_i_glide_metal>
0

> <r_i_glide_rewards>
-0.491568277946662

> <r_i_glide_evdw>
-44.4764099121094

> <r_i_glide_ecoul>
-5.79599142074585

> <r_i_glide_erotb>
0.545336410060778

> <r_i_glide_esite>
-0.0756547540214795

> <r_i_glide_emodel>
-69.4931763969554

> <r_i_glide_energy>
-50.2724013328552

> <r_i_glide_einternal>
5.42623567581177

> <i_i_glide_confnum>
13

> <i_i_glide_posenum>
277

> <r_i_glide_eff_state_penalty>
0

> <s_user_duplicate_titles>
CHEMBL3991_lig213,326281

> <i_f3d_flags>
0

> <s_m_subgroup_title>
dock_pv

> <s_m_subgroupid>
dock_pv

> <b_m_subgroup_collapsed>
1

$$$$
CHEMBL3991_lig366
                    3D
 Schrodinger Suite 2021-1.
 62 65  0  0  1  0            999 V2000
    6.9003   41.9040   34.6503 C   0  0  0  0  0  0
    7.7741   41.7513   33.5647 C   0  0  0  0  0  0
    8.7665   40.7601   33.5454 C   0  0  0  0  0  0
    8.8201   39.8707   34.6421 C   0  0  0  0  0  0
    7.9357   39.9807   35.7216 C   0  0  0  0  0  0
    6.9883   41.0082   35.7106 C   0  0  0  0  0  0
    9.7140   40.6930   32.3110 C   0  0  2  0  0  0
   10.8601   39.8027   32.5096 N   0  0  0  0  0  0
   11.6138   39.2193   31.4805 C   0  0  0  0  0  0
   12.7335   38.4801   31.8576 C   0  0  0  0  0  0
   13.5794   37.9312   30.9055 C   0  0  0  0  0  0
   13.3406   38.1200   29.5371 C   0  0  0  0  0  0
   12.1642   38.8001   29.1728 C   0  0  0  0  0  0
   11.2974   39.3213   30.1268 C   0  0  0  0  0  0
   14.3483   37.6789   28.5397 C   0  0  0  0  0  0
   15.4911   37.2790   28.8968 N   0  0  0  0  0  0
   13.9074   37.6790   27.2436 N   0  0  0  0  0  0
   10.1809   42.0651   31.8099 C   0  0  0  0  0  0
   10.5277   43.0749   32.5762 N   0  0  0  0  0  0
   10.2891   42.3615   30.4687 N   0  0  0  0  0  0
    8.0924   39.0503   36.7382 O   0  0  0  0  0  0
    7.2147   38.9290   37.8643 C   0  0  0  0  0  0
    5.7686   38.5465   37.4928 C   0  0  0  0  0  0
   10.7300   43.6555   30.3599 C   0  0  0  0  0  0
   10.8451   44.0848   31.7055 C   0  0  0  0  0  0
   11.2433   45.4001   31.9775 C   0  0  0  0  0  0
   11.5310   46.2371   30.8964 C   0  0  0  0  0  0
   11.4356   45.7833   29.5799 C   0  0  0  0  0  0
   11.0306   44.4815   29.2742 C   0  0  0  0  0  0
    7.3392   40.0801   38.8815 C   0  0  0  0  0  0
    5.9308   42.8839   34.7530 O   0  0  0  0  0  0
    5.9559   44.0157   33.8795 C   0  0  0  0  0  0
    7.1494   44.9463   34.1594 C   0  0  0  0  0  0
    9.7376   38.8785   34.6975 F   0  0  0  0  0  0
    7.7034   42.4240   32.7238 H   0  0  0  0  0  0
    6.3132   41.1428   36.5337 H   0  0  0  0  0  0
    9.0943   40.2400   31.5358 H   0  0  0  0  0  0
   11.3499   39.9110   33.3849 H   0  0  0  0  0  0
   13.0016   38.3841   32.8970 H   0  0  0  0  0  0
   14.4622   37.4109   31.2479 H   0  0  0  0  0  0
   11.9310   38.9912   28.1370 H   0  0  0  0  0  0
   10.4124   39.8334   29.7891 H   0  0  0  0  0  0
   16.0173   36.9508   28.0996 H   0  0  0  0  0  0
   14.4455   37.1910   26.5339 H   0  0  0  0  0  0
   12.9614   37.9516   27.0125 H   0  0  0  0  0  0
   10.0845   41.7071   29.7290 H   0  0  0  0  0  0
    7.6066   38.0566   38.3906 H   0  0  0  0  0  0
    5.1594   38.4126   38.3874 H   0  0  0  0  0  0
    5.2691   39.2793   36.8647 H   0  0  0  0  0  0
    5.7573   37.5996   36.9523 H   0  0  0  0  0  0
   11.3340   45.7541   32.9942 H   0  0  0  0  0  0
   11.8432   47.2540   31.0838 H   0  0  0  0  0  0
   11.6770   46.4622   28.7757 H   0  0  0  0  0  0
   10.9514   44.1356   28.2528 H   0  0  0  0  0  0
    6.6277   39.9643   39.7000 H   0  0  0  0  0  0
    8.3330   40.0774   39.3272 H   0  0  0  0  0  0
    7.1921   41.0682   38.4548 H   0  0  0  0  0  0
    5.0327   44.5707   34.0493 H   0  0  0  0  0  0
    5.9217   43.7109   32.8331 H   0  0  0  0  0  0
    7.0961   45.8376   33.5344 H   0  0  0  0  0  0
    8.1058   44.4648   33.9581 H   0  0  0  0  0  0
    7.1560   45.2712   35.1994 H   0  0  0  0  0  0
  1  2  2  0  0  0
  1  6  1  0  0  0
  1 31  1  0  0  0
  2  3  1  0  0  0
  2 35  1  0  0  0
  3  4  2  0  0  0
  3  7  1  0  0  0
  4  5  1  0  0  0
  4 34  1  0  0  0
  5  6  2  0  0  0
  5 21  1  0  0  0
  6 36  1  0  0  0
  7  8  1  0  0  0
  7 18  1  0  0  0
  7 37  1  0  0  0
  8  9  1  0  0  0
  8 38  1  0  0  0
  9 10  2  0  0  0
  9 14  1  0  0  0
 10 11  1  0  0  0
 10 39  1  0  0  0
 11 12  2  0  0  0
 11 40  1  0  0  0
 12 13  1  0  0  0
 12 15  1  0  0  0
 13 14  2  0  0  0
 13 41  1  0  0  0
 14 42  1  0  0  0
 15 16  2  0  0  0
 15 17  1  0  0  0
 16 43  1  0  0  0
 17 44  1  0  0  0
 17 45  1  0  0  0
 18 19  2  0  0  0
 18 20  1  0  0  0
 19 25  1  0  0  0
 20 24  1  0  0  0
 20 46  1  0  0  0
 21 22  1  0  0  0
 22 23  1  0  0  0
 22 30  1  0  0  0
 22 47  1  0  0  0
 23 48  1  0  0  0
 23 49  1  0  0  0
 23 50  1  0  0  0
 24 25  2  0  0  0
 24 29  1  0  0  0
 25 26  1  0  0  0
 26 27  2  0  0  0
 26 51  1  0  0  0
 27 28  1  0  0  0
 27 52  1  0  0  0
 28 29  2  0  0  0
 28 53  1  0  0  0
 29 54  1  0  0  0
 30 55  1  0  0  0
 30 56  1  0  0  0
 30 57  1  0  0  0
 31 32  1  0  0  0
 32 33  1  0  0  0
 32 58  1  0  0  0
 32 59  1  0  0  0
 33 60  1  0  0  0
 33 61  1  0  0  0
 33 62  1  0  0  0
M  END
> <s_m_entry_id>
20697

> <s_m_entry_name>
dock_pv.80

> <s_m_Source_Path>
/home/csk/Desktop/cluster/DUD-E-result/fa7

> <s_m_Source_File>
dock_pv.maegz

> <i_m_Source_File_Index>
80

> <chembl_id>
CHEMBL3403465

> <chembl_pref_name>
None

> <i_lp_mmshare_version>
53161

> <r_lp_tautomer_probability>
1

> <s_lp_Force_Field>
OPLS_2005

> <r_lp_Energy>
17.14013

> <b_lp_Chiralities_Consistent>
1

> <s_lp_Variant>
CHEMBL3991_lig366-1

> <s_i_glide_gridfile>
glide-grid_1w7x

> <i_i_glide_lignum>
495

> <i_i_glide_rotatable_bonds>
9

> <r_i_docking_score>
-6.80901423582009

> <r_i_glide_ligand_efficiency>
-0.200265124582944

> <r_i_glide_ligand_efficiency_sa>
-0.648781260220598

> <r_i_glide_ligand_efficiency_ln>
-1.50430223107283

> <r_i_glide_gscore>
-6.80901423582009

> <r_i_glide_lipo>
-2.71245642147707

> <r_i_glide_hbond>
-0.44282330813322

> <r_i_glide_metal>
0

> <r_i_glide_rewards>
-0.720656035301078

> <r_i_glide_evdw>
-44.7666549682617

> <r_i_glide_ecoul>
-7.77489614486694

> <r_i_glide_erotb>
0.567207988135493

> <r_i_glide_esite>
-0.0957192889010878

> <r_i_glide_emodel>
-71.0089465562077

> <r_i_glide_energy>
-52.5415511131287

> <r_i_glide_einternal>
7.2314567565918

> <i_i_glide_confnum>
8

> <i_i_glide_posenum>
256

> <r_i_glide_eff_state_penalty>
0

> <s_user_duplicate_titles>
CHEMBL3991_lig366

> <i_f3d_flags>
0

> <s_m_subgroup_title>
dock_pv

> <s_m_subgroupid>
dock_pv

> <b_m_subgroup_collapsed>
1

$$$$
326880
                    3D
 Schrodinger Suite 2021-1.
 66 69  0  0  1  0            999 V2000
    5.0528   41.9066   33.8193 C   0  0  0  0  0  0
    6.5367   41.7267   33.4593 C   0  0  2  0  0  0
    7.4920   42.3833   34.5020 C   0  0  0  0  0  0
    7.3488   41.9446   35.9806 C   0  0  0  0  0  0
    7.7548   40.5178   36.3557 C   0  0  0  0  0  0
    8.3328   39.6302   35.4388 C   0  0  0  0  0  0
    8.7308   38.3620   35.8515 C   0  0  0  0  0  0
    8.5591   37.9769   37.1783 C   0  0  0  0  0  0
    7.9903   38.8517   38.0993 C   0  0  0  0  0  0
    7.5881   40.1195   37.6870 C   0  0  0  0  0  0
    6.7728   42.1886   32.0894 N   0  0  0  0  0  0
    8.0766   42.0918   31.5748 C   0  0  0  0  0  0
    8.5205   40.9054   30.9804 C   0  0  0  0  0  0
    9.8389   40.8363   30.5220 C   0  0  0  0  0  0
   10.7234   41.8649   30.6545 N   0  0  0  0  0  0
   10.2782   43.0158   31.2209 C   0  0  0  0  0  0
    8.9529   43.1810   31.6551 C   0  0  0  0  0  0
    8.5324   44.3618   32.1718 F   0  0  0  0  0  0
   11.2206   44.0164   31.3180 O   0  0  0  0  0  0
   11.3999   44.5980   32.5541 C   0  0  0  0  0  0
   11.8594   43.7983   33.6067 C   0  0  0  0  0  0
   11.9346   44.3084   34.8970 C   0  0  0  0  0  0
   11.5362   45.6143   35.1576 C   0  0  0  0  0  0
   11.1310   46.4375   34.1084 C   0  0  0  0  0  0
   11.0768   45.9522   32.7881 C   0  0  0  0  0  0
   10.6853   46.8767   31.6565 C   0  0  0  0  0  0
   10.9266   46.6370   30.4755 O   0  0  0  0  0  0
   10.0489   48.0164   32.0441 O   0  0  0  0  0  0
   11.5310   46.0790   36.4448 O   0  0  0  0  0  0
   10.2782   39.6790   29.9197 O   0  0  0  0  0  0
   11.5024   39.1268   30.2176 C   0  0  0  0  0  0
   11.9310   38.9242   31.5305 C   0  0  0  0  0  0
   13.1310   38.2677   31.7780 C   0  0  0  0  0  0
   13.9298   37.8551   30.7171 C   0  0  0  0  0  0
   13.5466   38.0790   29.3816 C   0  0  0  0  0  0
   12.3034   38.6981   29.1648 C   0  0  0  0  0  0
   14.4437   37.6790   28.2674 C   0  0  0  0  0  0
   15.6148   37.2790   28.4971 N   0  0  0  0  0  0
   13.8668   37.6790   27.0228 N   0  0  0  0  0  0
    7.6925   39.8392   30.8533 F   0  0  0  0  0  0
    4.8084   41.4089   34.7565 H   0  0  0  0  0  0
    4.7894   42.9613   33.9094 H   0  0  0  0  0  0
    4.4053   41.4694   33.0580 H   0  0  0  0  0  0
    6.7249   40.6534   33.4515 H   0  0  0  0  0  0
    7.3418   43.4636   34.4608 H   0  0  0  0  0  0
    8.5334   42.2367   34.2143 H   0  0  0  0  0  0
    6.3310   42.1198   36.3207 H   0  0  0  0  0  0
    7.9698   42.6098   36.5840 H   0  0  0  0  0  0
    8.5068   39.9112   34.4120 H   0  0  0  0  0  0
    9.1801   37.6790   35.1469 H   0  0  0  0  0  0
    8.8740   36.9931   37.4983 H   0  0  0  0  0  0
    7.8693   38.5490   39.1296 H   0  0  0  0  0  0
    7.1668   40.7995   38.4133 H   0  0  0  0  0  0
    6.0391   41.9596   31.4342 H   0  0  0  0  0  0
   12.1357   42.7696   33.4227 H   0  0  0  0  0  0
   12.2814   43.6788   35.6970 H   0  0  0  0  0  0
   10.8539   47.4572   34.3402 H   0  0  0  0  0  0
    9.8298   48.5433   31.2746 H   0  0  0  0  0  0
   12.3756   46.4586   36.7283 H   0  0  0  0  0  0
   11.3218   39.2548   32.3586 H   0  0  0  0  0  0
   13.4652   38.1081   32.7933 H   0  0  0  0  0  0
   14.8710   37.3753   30.9464 H   0  0  0  0  0  0
   11.9505   38.9034   28.1666 H   0  0  0  0  0  0
   16.0422   36.9433   27.6427 H   0  0  0  0  0  0
   14.3310   37.1913   26.2558 H   0  0  0  0  0  0
   12.9137   37.9885   26.8856 H   0  0  0  0  0  0
  1  2  1  0  0  0
  1 41  1  0  0  0
  1 42  1  0  0  0
  1 43  1  0  0  0
  2  3  1  0  0  0
  2 11  1  0  0  0
  2 44  1  0  0  0
  3  4  1  0  0  0
  3 45  1  0  0  0
  3 46  1  0  0  0
  4  5  1  0  0  0
  4 47  1  0  0  0
  4 48  1  0  0  0
  5 10  1  0  0  0
  5  6  2  0  0  0
  6  7  1  0  0  0
  6 49  1  0  0  0
  7  8  2  0  0  0
  7 50  1  0  0  0
  8  9  1  0  0  0
  8 51  1  0  0  0
  9 10  2  0  0  0
  9 52  1  0  0  0
 10 53  1  0  0  0
 11 12  1  0  0  0
 11 54  1  0  0  0
 12 17  1  0  0  0
 12 13  2  0  0  0
 13 14  1  0  0  0
 13 40  1  0  0  0
 14 15  2  0  0  0
 14 30  1  0  0  0
 15 16  1  0  0  0
 16 17  2  0  0  0
 16 19  1  0  0  0
 17 18  1  0  0  0
 19 20  1  0  0  0
 20 25  1  0  0  0
 20 21  2  0  0  0
 21 22  1  0  0  0
 21 55  1  0  0  0
 22 23  2  0  0  0
 22 56  1  0  0  0
 23 24  1  0  0  0
 23 29  1  0  0  0
 24 25  2  0  0  0
 24 57  1  0  0  0
 25 26  1  0  0  0
 26 27  2  0  0  0
 26 28  1  0  0  0
 28 58  1  0  0  0
 29 59  1  0  0  0
 30 31  1  0  0  0
 31 36  1  0  0  0
 31 32  2  0  0  0
 32 33  1  0  0  0
 32 60  1  0  0  0
 33 34  2  0  0  0
 33 61  1  0  0  0
 34 35  1  0  0  0
 34 62  1  0  0  0
 35 36  2  0  0  0
 35 37  1  0  0  0
 36 63  1  0  0  0
 37 38  2  3  0  0
 37 39  1  0  0  0
 38 64  1  0  0  0
 39 65  1  0  0  0
 39 66  1  0  0  0
M  END
> <s_m_entry_id>
21036

> <s_m_entry_name>
ligand_docking-pose.2

> <s_m_Source_Path>
/home/csk/Desktop/cluster/DUD-E-result/fa7

> <s_m_Source_File>
ligand_docking-pose.sdf

> <i_m_Source_File_Index>
2

> <i_lp_mmshare_version>
53161

> <i_f3d_flags>
0

> <r_lp_tautomer_probability>
1

> <s_lp_Force_Field>
OPLS_2005

> <r_lp_Energy>
33.428828

> <b_lp_Chiralities_Consistent>
1

> <s_lp_Variant>
326880-1

> <s_i_glide_gridfile>
glide-grid_1w7x

> <i_i_glide_lignum>
539

> <i_i_glide_rotatable_bonds>
13

> <r_i_docking_score>
-8.62345248446492

> <r_i_glide_ligand_efficiency>
-0.215586312111623

> <r_i_glide_ligand_efficiency_sa>
-0.737294815380623

> <r_i_glide_ligand_efficiency_ln>
-1.83912863805847

> <r_i_glide_gscore>
-8.62345248446492

> <r_i_glide_lipo>
-3.66388486688189

> <r_i_glide_hbond>
-0.72

> <r_i_glide_metal>
0

> <r_i_glide_rewards>
-0.453396678088438

> <r_i_glide_evdw>
-50.9283447265625

> <r_i_glide_ecoul>
-11.7980756759644

> <r_i_glide_erotb>
0.619822593491356

> <r_i_glide_esite>
-0.0898649452631713

> <r_i_glide_emodel>
-86.3133782813195

> <r_i_glide_energy>
-62.7264204025269

> <r_i_glide_einternal>
14.4555711746216

> <i_i_glide_confnum>
6

> <i_i_glide_posenum>
281

> <r_i_glide_eff_state_penalty>
0

> <s_user_duplicate_titles>
326880

> <s_m_subgroup_title>
dock_pv

> <s_m_subgroupid>
dock_pv1

> <b_m_subgroup_collapsed>
0

$$$$
343571
                    3D
 Schrodinger Suite 2021-1.
 60 63  0  0  1  0            999 V2000
    6.6415   38.2687   39.0512 C   0  0  0  0  0  0
    7.1125   39.5626   39.2549 C   0  0  0  0  0  0
    7.4572   40.3566   38.1651 C   0  0  0  0  0  0
    7.3334   39.8666   36.8552 C   0  0  0  0  0  0
    6.8287   38.5718   36.6733 C   0  0  0  0  0  0
    6.5192   37.7459   37.7614 C   0  0  0  0  0  0
    6.0004   36.3151   37.5695 C   0  0  0  0  0  0
    6.7044   35.5309   36.4501 C   0  0  0  0  0  0
    6.3374   35.5753   35.2769 O   0  0  0  0  0  0
    7.7879   34.8345   36.8970 O   0  0  0  0  0  0
    7.7808   40.6619   35.6716 C   0  0  0  0  0  0
    7.3171   41.9701   35.4861 C   0  0  0  0  0  0
    7.7247   42.7534   34.3983 C   0  0  0  0  0  0
    8.6174   42.1971   33.4808 C   0  0  0  0  0  0
    9.1123   40.9020   33.6453 C   0  0  0  0  0  0
    8.7050   40.1397   34.7514 C   0  0  0  0  0  0
    9.2212   38.8791   34.9493 O   0  0  0  0  0  0
   10.0539   40.3733   32.6220 C   0  0  0  0  0  0
    9.8305   40.5009   31.2708 N   0  0  0  0  0  0
   10.7938   39.7655   30.6298 C   0  0  0  0  0  0
   11.0337   39.4558   29.2970 C   0  0  0  0  0  0
   12.1353   38.6410   29.0447 C   0  0  0  0  0  0
   12.9987   38.1702   30.0439 C   0  0  0  0  0  0
   12.7192   38.4790   31.3871 C   0  0  0  0  0  0
   11.6065   39.2790   31.6782 C   0  0  0  0  0  0
   11.1310   39.6790   32.8948 N   0  0  0  0  0  0
   14.1790   37.3634   29.6970 C   0  0  0  0  0  0
   14.5611   36.4790   30.4898 N   0  0  0  0  0  0
   14.7655   37.6790   28.4972 N   0  0  0  0  0  0
    7.3071   44.2316   34.2202 C   0  0  2  0  0  0
    8.2658   45.2258   34.9159 C   0  0  0  0  0  0
    8.3108   45.1026   36.4325 C   0  0  0  0  0  0
    7.3944   44.7174   37.1543 O   0  0  0  0  0  0
    9.5068   45.5541   36.8970 O   0  0  0  0  0  0
    5.8327   44.5584   34.4958 C   0  0  0  0  0  0
    4.9938   43.7546   34.8970 O   0  0  0  0  0  0
    5.5360   45.8561   34.1963 O   0  0  0  0  0  0
    7.9310   41.6174   38.3975 O   0  0  0  0  0  0
    9.0446   40.9944   30.8762 H   0  0  0  0  0  0
    6.3685   37.6790   39.9089 H   0  0  0  0  0  0
    7.2089   39.9439   40.2614 H   0  0  0  0  0  0
    6.7051   38.1946   35.6677 H   0  0  0  0  0  0
    4.9357   36.3573   37.3386 H   0  0  0  0  0  0
    6.0832   35.7553   38.5027 H   0  0  0  0  0  0
    7.9310   34.8790   37.8550 H   0  0  0  0  0  0
    6.6516   42.3904   36.2239 H   0  0  0  0  0  0
    8.9583   42.7915   32.6447 H   0  0  0  0  0  0
    8.8560   38.4435   35.7239 H   0  0  0  0  0  0
   10.4096   39.8148   28.4912 H   0  0  0  0  0  0
   12.3310   38.3761   28.0196 H   0  0  0  0  0  0
   13.3539   38.1407   32.1947 H   0  0  0  0  0  0
   13.9513   36.3981   31.2903 H   0  0  0  0  0  0
   15.4711   37.0623   28.1201 H   0  0  0  0  0  0
   14.3891   38.4057   27.9119 H   0  0  0  0  0  0
    7.4070   44.4283   33.1487 H   0  0  0  0  0  0
    9.2697   45.0269   34.5292 H   0  0  0  0  0  0
    8.0366   46.2627   34.6615 H   0  0  0  0  0  0
    9.5310   45.5870   37.8740 H   0  0  0  0  0  0
    6.2948   46.3510   33.8851 H   0  0  0  0  0  0
    8.5230   41.6790   39.1639 H   0  0  0  0  0  0
  1  6  1  0  0  0
  1  2  2  0  0  0
  1 40  1  0  0  0
  2  3  1  0  0  0
  2 41  1  0  0  0
  3  4  2  0  0  0
  3 38  1  0  0  0
  4  5  1  0  0  0
  4 11  1  0  0  0
  5  6  2  0  0  0
  5 42  1  0  0  0
  6  7  1  0  0  0
  7  8  1  0  0  0
  7 43  1  0  0  0
  7 44  1  0  0  0
  8  9  2  0  0  0
  8 10  1  0  0  0
 10 45  1  0  0  0
 11 16  1  0  0  0
 11 12  2  0  0  0
 12 13  1  0  0  0
 12 46  1  0  0  0
 13 14  2  0  0  0
 13 30  1  0  0  0
 14 15  1  0  0  0
 14 47  1  0  0  0
 15 16  2  0  0  0
 15 18  1  0  0  0
 16 17  1  0  0  0
 17 48  1  0  0  0
 18 26  2  0  0  0
 18 19  1  0  0  0
 19 39  1  0  0  0
 19 20  1  0  0  0
 20 25  2  0  0  0
 20 21  1  0  0  0
 21 22  2  0  0  0
 21 49  1  0  0  0
 22 23  1  0  0  0
 22 50  1  0  0  0
 23 24  2  0  0  0
 23 27  1  0  0  0
 24 25  1  0  0  0
 24 51  1  0  0  0
 25 26  1  0  0  0
 27 28  2  3  0  0
 27 29  1  0  0  0
 28 52  1  0  0  0
 29 53  1  0  0  0
 29 54  1  0  0  0
 30 31  1  0  0  0
 30 35  1  0  0  0
 30 55  1  0  0  0
 31 32  1  0  0  0
 31 56  1  0  0  0
 31 57  1  0  0  0
 32 33  2  0  0  0
 32 34  1  0  0  0
 34 58  1  0  0  0
 35 36  2  0  0  0
 35 37  1  0  0  0
 37 59  1  0  0  0
 38 60  1  0  0  0
M  END
> <s_m_entry_id>
21041

> <s_m_entry_name>
ligand_docking-pose.7

> <s_m_Source_Path>
/home/csk/Desktop/cluster/DUD-E-result/fa7

> <s_m_Source_File>
ligand_docking-pose.sdf

> <i_m_Source_File_Index>
7

> <i_lp_mmshare_version>
53161

> <i_f3d_flags>
0

> <r_lp_tautomer_probability>
0.99999999999473

> <s_lp_Force_Field>
OPLS_2005

> <r_lp_Energy>
28.672637

> <b_lp_Chiralities_Consistent>
1

> <s_lp_Variant>
343571-2

> <s_i_glide_gridfile>
glide-grid_1w7x

> <i_i_glide_lignum>
216

> <i_i_glide_rotatable_bonds>
14

> <r_i_docking_score>
-8.12667392478386

> <r_i_glide_ligand_efficiency>
-0.213859840125891

> <r_i_glide_ligand_efficiency_sa>
-0.718991522133406

> <r_i_glide_ligand_efficiency_ln>
-1.75234996070959

> <r_i_glide_gscore>
-8.12667392478386

> <r_i_glide_lipo>
-1.55096626542814

> <r_i_glide_hbond>
-0.383573382003807

> <r_i_glide_metal>
0

> <r_i_glide_rewards>
-0.645426030787403

> <r_i_glide_evdw>
-41.021858215332

> <r_i_glide_ecoul>
-28.6574363708496

> <r_i_glide_erotb>
0.611232286681658

> <r_i_glide_esite>
-0.106847622479566

> <r_i_glide_emodel>
-100.451945841197

> <r_i_glide_energy>
-69.6792945861816

> <r_i_glide_einternal>
11.7465724945068

> <i_i_glide_confnum>
4

> <i_i_glide_posenum>
7

> <r_i_glide_eff_state_penalty>
0

> <s_user_duplicate_titles>
343571

> <s_m_subgroup_title>
dock_pv

> <s_m_subgroupid>
dock_pv1

> <b_m_subgroup_collapsed>
0

$$$$
343609
                    3D
 Schrodinger Suite 2021-1.
 61 64  0  0  1  0            999 V2000
    5.8462   38.2332   39.1712 C   0  0  0  0  0  0
    6.4342   39.3907   39.6717 C   0  0  0  0  0  0
    6.9915   40.3349   38.8085 C   0  0  0  0  0  0
    6.9560   40.1447   37.4083 C   0  0  0  0  0  0
    6.2851   39.0039   36.9356 C   0  0  0  0  0  0
    5.7782   38.0247   37.7948 C   0  0  0  0  0  0
    5.1655   36.7396   37.2351 C   0  0  0  0  0  0
    6.1342   35.9620   36.3294 C   0  0  0  0  0  0
    5.9435   35.9031   35.1164 O   0  0  0  0  0  0
    7.1814   35.3646   36.8967 N   0  0  0  0  0  0
    7.6247   41.0667   36.4164 C   0  0  0  0  0  0
    7.6222   42.4585   36.6043 C   0  0  0  0  0  0
    8.2743   43.3403   35.7361 C   0  0  0  0  0  0
    8.8689   42.8137   34.5823 C   0  0  0  0  0  0
    8.9314   41.4353   34.3725 C   0  0  0  0  0  0
    8.3311   40.5674   35.2977 C   0  0  0  0  0  0
    8.5033   39.2153   35.1211 O   0  0  0  0  0  0
    9.6886   40.9211   33.1922 C   0  0  0  0  0  0
    9.4881   41.3781   31.9114 N   0  0  0  0  0  0
   10.2838   40.6265   31.0814 C   0  0  0  0  0  0
   10.4685   40.5918   29.7050 C   0  0  0  0  0  0
   11.4053   39.6748   29.2290 C   0  0  0  0  0  0
   12.1611   38.8177   30.0507 C   0  0  0  0  0  0
   11.9385   38.8800   31.4403 C   0  0  0  0  0  0
   10.9870   39.7709   31.9568 C   0  0  0  0  0  0
   10.5814   39.9591   33.2520 N   0  0  0  0  0  0
   13.1971   37.8942   29.4928 C   0  0  0  0  0  0
   14.0630   37.3683   30.2390 N   0  0  0  0  0  0
   13.1310   37.6791   28.1370 N   0  0  0  0  0  0
    8.2944   44.8557   36.0641 C   0  0  2  0  0  0
    7.2492   45.6715   35.2830 C   0  0  0  0  0  0
    5.8692   45.3263   35.7953 C   0  0  0  0  0  0
    5.1325   44.4786   35.2969 O   0  0  0  0  0  0
    5.5519   46.0656   36.8972 O   0  0  0  0  0  0
    9.6485   45.5087   35.7659 C   0  0  0  0  0  0
   10.0715   45.7366   34.6335 O   0  0  0  0  0  0
   10.3492   45.8184   36.8970 O   0  0  0  0  0  0
    7.5306   41.4501   39.3922 O   0  0  0  0  0  0
    8.8337   42.1083   31.6727 H   0  0  0  0  0  0
    5.4455   37.5005   39.8562 H   0  0  0  0  0  0
    6.4725   39.5469   40.7404 H   0  0  0  0  0  0
    6.2006   38.8349   35.8718 H   0  0  0  0  0  0
    4.2801   37.0024   36.6559 H   0  0  0  0  0  0
    4.8254   36.0805   38.0348 H   0  0  0  0  0  0
    7.8432   34.8829   36.3092 H   0  0  0  0  0  0
    7.3427   35.3912   37.8973 H   0  0  0  0  0  0
    7.1331   42.8777   37.4653 H   0  0  0  0  0  0
    9.3483   43.4702   33.8704 H   0  0  0  0  0  0
    9.0984   39.0301   34.3881 H   0  0  0  0  0  0
    9.9373   41.2473   29.0301 H   0  0  0  0  0  0
   11.5635   39.6788   28.1595 H   0  0  0  0  0  0
   12.5034   38.2529   32.1163 H   0  0  0  0  0  0
   14.6851   36.7967   29.6890 H   0  0  0  0  0  0
   13.7704   37.0293   27.6969 H   0  0  0  0  0  0
   12.3924   38.0796   27.5700 H   0  0  0  0  0  0
    8.1140   44.9727   37.1389 H   0  0  0  0  0  0
    7.3998   46.7529   35.3740 H   0  0  0  0  0  0
    7.2992   45.4307   34.2169 H   0  0  0  0  0  0
    6.2376   46.6941   37.1297 H   0  0  0  0  0  0
    9.9340   45.6787   37.7681 H   0  0  0  0  0  0
    8.4998   41.4826   39.4496 H   0  0  0  0  0  0
  1  6  1  0  0  0
  1  2  2  0  0  0
  1 40  1  0  0  0
  2  3  1  0  0  0
  2 41  1  0  0  0
  3  4  2  0  0  0
  3 38  1  0  0  0
  4  5  1  0  0  0
  4 11  1  0  0  0
  5  6  2  0  0  0
  5 42  1  0  0  0
  6  7  1  0  0  0
  7  8  1  0  0  0
  7 43  1  0  0  0
  7 44  1  0  0  0
  8  9  2  0  0  0
  8 10  1  0  0  0
 10 45  1  0  0  0
 10 46  1  0  0  0
 11 16  1  0  0  0
 11 12  2  0  0  0
 12 13  1  0  0  0
 12 47  1  0  0  0
 13 14  2  0  0  0
 13 30  1  0  0  0
 14 15  1  0  0  0
 14 48  1  0  0  0
 15 16  2  0  0  0
 15 18  1  0  0  0
 16 17  1  0  0  0
 17 49  1  0  0  0
 18 26  2  0  0  0
 18 19  1  0  0  0
 19 39  1  0  0  0
 19 20  1  0  0  0
 20 25  2  0  0  0
 20 21  1  0  0  0
 21 22  2  0  0  0
 21 50  1  0  0  0
 22 23  1  0  0  0
 22 51  1  0  0  0
 23 24  2  0  0  0
 23 27  1  0  0  0
 24 25  1  0  0  0
 24 52  1  0  0  0
 25 26  1  0  0  0
 27 28  2  3  0  0
 27 29  1  0  0  0
 28 53  1  0  0  0
 29 54  1  0  0  0
 29 55  1  0  0  0
 30 31  1  0  0  0
 30 35  1  0  0  0
 30 56  1  0  0  0
 31 32  1  0  0  0
 31 57  1  0  0  0
 31 58  1  0  0  0
 32 33  2  0  0  0
 32 34  1  0  0  0
 34 59  1  0  0  0
 35 36  2  0  0  0
 35 37  1  0  0  0
 37 60  1  0  0  0
 38 61  1  0  0  0
M  END
> <s_m_entry_id>
21042

> <s_m_entry_name>
ligand_docking-pose.8

> <s_m_Source_Path>
/home/csk/Desktop/cluster/DUD-E-result/fa7

> <s_m_Source_File>
ligand_docking-pose.sdf

> <i_m_Source_File_Index>
8

> <i_lp_mmshare_version>
53161

> <i_f3d_flags>
0

> <r_lp_tautomer_probability>
0.99999999999473

> <s_lp_Force_Field>
OPLS_2005

> <r_lp_Energy>
28.826717

> <b_lp_Chiralities_Consistent>
1

> <s_lp_Variant>
343609-1

> <s_i_glide_gridfile>
glide-grid_1w7x

> <i_i_glide_lignum>
209

> <i_i_glide_rotatable_bonds>
13

> <r_i_docking_score>
-8.10305515077143

> <r_i_glide_ligand_efficiency>
-0.213238293441353

> <r_i_glide_ligand_efficiency_sa>
-0.716901897468347

> <r_i_glide_ligand_efficiency_ln>
-1.74725705823857

> <r_i_glide_gscore>
-8.10305515077143

> <r_i_glide_lipo>
-1.25701702993732

> <r_i_glide_hbond>
-1.18761677760994

> <r_i_glide_metal>
0

> <r_i_glide_rewards>
-0.595576430789485

> <r_i_glide_evdw>
-45.3296852111816

> <r_i_glide_ecoul>
-21.4433479309082

> <r_i_glide_erotb>
0.53670056023111

> <r_i_glide_esite>
-0.116559022470486

> <r_i_glide_emodel>
-94.7572361984718

> <r_i_glide_energy>
-66.7730331420898

> <r_i_glide_einternal>
12.3037233352661

> <i_i_glide_confnum>
9

> <i_i_glide_posenum>
209

> <r_i_glide_eff_state_penalty>
0

> <s_user_duplicate_titles>
343609

> <s_m_subgroup_title>
dock_pv

> <s_m_subgroupid>
dock_pv1

> <b_m_subgroup_collapsed>
0

$$$$
216679
                    3D
 Schrodinger Suite 2021-1.
 51 53  0  0  1  0            999 V2000
    7.8103   42.5188   27.5964 C   0  0  0  0  0  0
    9.1304   42.9801   28.0097 N   0  0  0  0  0  0
    9.5235   43.3181   29.2971 C   0  0  0  0  0  0
    8.8497   42.7261   30.5093 C   0  0  0  0  0  0
    7.9061   41.9270   30.4530 O   0  0  0  0  0  0
    9.4097   43.1456   31.7124 N   0  0  0  0  0  0
   10.4826   44.0445   31.7180 C   0  0  0  0  0  0
   10.9955   44.5236   30.5478 C   0  0  0  0  0  0
   10.5132   44.1358   29.3302 N   0  0  0  0  0  0
   12.3310   45.6792   30.4756 Cl  0  0  0  0  0  0
   11.0356   44.4706   33.0232 C   0  0  0  0  0  0
   10.6072   45.6655   33.6095 C   0  0  0  0  0  0
   11.1309   46.0690   34.8348 C   0  0  0  0  0  0
   12.0844   45.2789   35.4722 C   0  0  0  0  0  0
   12.5167   44.0862   34.8971 C   0  0  0  0  0  0
   11.9834   43.6786   33.6791 C   0  0  0  0  0  0
    8.8092   42.5727   32.9519 C   0  0  0  0  0  0
    9.4490   41.2266   33.3587 C   0  0  0  0  0  0
    8.9453   40.5897   34.2822 O   0  0  0  0  0  0
   10.5410   40.8024   32.7007 N   0  0  0  0  0  0
   11.2508   39.5522   32.9379 C   0  0  0  0  0  0
   11.9321   38.9799   31.6979 C   0  0  0  0  0  0
   11.4425   39.2241   30.4134 C   0  0  0  0  0  0
   12.1475   38.7730   29.3040 C   0  0  0  0  0  0
   13.3637   38.0791   29.4420 C   0  0  0  0  0  0
   13.8169   37.8094   30.7439 C   0  0  0  0  0  0
   13.1179   38.2583   31.8546 C   0  0  0  0  0  0
   14.1888   37.6790   28.2740 C   0  0  0  0  0  0
   15.3763   37.2790   28.4326 N   0  0  0  0  0  0
   13.5317   37.6790   27.0672 N   0  0  0  0  0  0
    7.7318   42.5290   26.5088 H   0  0  0  0  0  0
    7.6293   41.4963   27.9315 H   0  0  0  0  0  0
    7.0239   43.1610   27.9958 H   0  0  0  0  0  0
    9.7309   43.3307   27.2779 H   0  0  0  0  0  0
    9.8735   46.2843   33.1131 H   0  0  0  0  0  0
   10.8055   46.9938   35.2870 H   0  0  0  0  0  0
   12.4975   45.6023   36.4184 H   0  0  0  0  0  0
   13.2662   43.4826   35.3890 H   0  0  0  0  0  0
   12.3309   42.7562   33.2379 H   0  0  0  0  0  0
    7.7412   42.3995   32.8141 H   0  0  0  0  0  0
    8.8916   43.2714   33.7836 H   0  0  0  0  0  0
   10.9790   41.4389   32.0522 H   0  0  0  0  0  0
   10.5889   38.8032   33.3725 H   0  0  0  0  0  0
   12.0072   39.7561   33.6968 H   0  0  0  0  0  0
   10.5305   39.7844   30.2630 H   0  0  0  0  0  0
   11.7599   39.0354   28.3334 H   0  0  0  0  0  0
   14.7447   37.2802   30.9086 H   0  0  0  0  0  0
   13.5285   38.0780   32.8387 H   0  0  0  0  0  0
   15.7629   36.9416   27.5593 H   0  0  0  0  0  0
   13.9848   37.2402   26.2686 H   0  0  0  0  0  0
   12.5919   38.0477   26.9468 H   0  0  0  0  0  0
  1  2  1  0  0  0
  1 31  1  0  0  0
  1 32  1  0  0  0
  1 33  1  0  0  0
  2  3  1  0  0  0
  2 34  1  0  0  0
  3  9  2  0  0  0
  3  4  1  0  0  0
  4  5  2  0  0  0
  4  6  1  0  0  0
  6  7  1  0  0  0
  6 17  1  0  0  0
  7  8  2  0  0  0
  7 11  1  0  0  0
  8  9  1  0  0  0
  8 10  1  0  0  0
 11 16  1  0  0  0
 11 12  2  0  0  0
 12 13  1  0  0  0
 12 35  1  0  0  0
 13 14  2  0  0  0
 13 36  1  0  0  0
 14 15  1  0  0  0
 14 37  1  0  0  0
 15 16  2  0  0  0
 15 38  1  0  0  0
 16 39  1  0  0  0
 17 18  1  0  0  0
 17 40  1  0  0  0
 17 41  1  0  0  0
 18 19  2  0  0  0
 18 20  1  0  0  0
 20 21  1  0  0  0
 20 42  1  0  0  0
 21 22  1  0  0  0
 21 43  1  0  0  0
 21 44  1  0  0  0
 22 27  1  0  0  0
 22 23  2  0  0  0
 23 24  1  0  0  0
 23 45  1  0  0  0
 24 25  2  0  0  0
 24 46  1  0  0  0
 25 26  1  0  0  0
 25 28  1  0  0  0
 26 27  2  0  0  0
 26 47  1  0  0  0
 27 48  1  0  0  0
 28 29  2  3  0  0
 28 30  1  0  0  0
 29 49  1  0  0  0
 30 50  1  0  0  0
 30 51  1  0  0  0
M  END
> <s_m_entry_id>
21044

> <s_m_entry_name>
ligand_docking-pose.10

> <s_m_Source_Path>
/home/csk/Desktop/cluster/DUD-E-result/fa7

> <s_m_Source_File>
ligand_docking-pose.sdf

> <i_m_Source_File_Index>
10

> <i_lp_mmshare_version>
53161

> <i_f3d_flags>
0

> <r_lp_tautomer_probability>
1

> <s_lp_Force_Field>
OPLS_2005

> <r_lp_Energy>
20.241905

> <b_lp_Chiralities_Consistent>
1

> <s_lp_Variant>
216679-1

> <s_i_glide_gridfile>
glide-grid_1w7x

> <i_i_glide_lignum>
771

> <i_i_glide_rotatable_bonds>
8

> <r_i_docking_score>
-8.04660932733022

> <r_i_glide_ligand_efficiency>
-0.268220310911007

> <r_i_glide_ligand_efficiency_sa>
-0.833422867874854

> <r_i_glide_ligand_efficiency_ln>
-1.82827731400025

> <r_i_glide_gscore>
-8.04660932733022

> <r_i_glide_lipo>
-3.5355817673564

> <r_i_glide_hbond>
-0.456

> <r_i_glide_metal>
0

> <r_i_glide_rewards>
-0.981713627632082

> <r_i_glide_evdw>
-43.454345703125

> <r_i_glide_ecoul>
-9.83363723754883

> <r_i_glide_erotb>
0.659151453290068

> <r_i_glide_esite>
-0.0847025148432368

> <r_i_glide_emodel>
-70.415020892551

> <r_i_glide_energy>
-53.2879829406738

> <r_i_glide_einternal>
17.6210918426514

> <i_i_glide_confnum>
74

> <i_i_glide_posenum>
263

> <r_i_glide_eff_state_penalty>
0

> <s_user_duplicate_titles>
216679

> <s_m_subgroup_title>
dock_pv

> <s_m_subgroupid>
dock_pv1

> <b_m_subgroup_collapsed>
0

$$$$
326876
                    3D
 Schrodinger Suite 2021-1.
 73 76  0  0  1  0            999 V2000
    8.9561   47.2088   29.5730 C   0  0  0  0  0  0
    9.1587   45.7911   30.1309 C   0  0  2  0  0  0
   10.6258   45.3053   29.9755 C   0  0  0  0  0  0
   11.5995   45.8561   31.0335 C   0  0  0  0  0  0
   11.2671   45.4077   32.4539 C   0  0  0  0  0  0
   11.5164   44.0864   32.8449 C   0  0  0  0  0  0
   11.2405   43.6849   34.1501 C   0  0  0  0  0  0
   10.7160   44.6028   35.0592 C   0  0  0  0  0  0
   10.4635   45.9186   34.6744 C   0  0  0  0  0  0
   10.7378   46.3223   33.3702 C   0  0  0  0  0  0
    8.1801   44.8668   29.5586 N   0  0  0  0  0  0
    8.0999   43.6060   30.1694 C   0  0  0  0  0  0
    8.6913   42.4963   29.5546 C   0  0  0  0  0  0
    8.6748   41.2714   30.2243 C   0  0  0  0  0  0
    8.0462   41.0963   31.4195 N   0  0  0  0  0  0
    7.4839   42.1851   32.0198 C   0  0  0  0  0  0
    7.4827   43.4474   31.4197 C   0  0  0  0  0  0
    6.9084   44.4965   32.0558 F   0  0  0  0  0  0
    6.9327   42.0516   33.2837 O   0  0  0  0  0  0
    7.0413   40.8872   34.0167 C   0  0  0  0  0  0
    8.2877   40.4687   34.4847 C   0  0  0  0  0  0
    8.4106   39.2797   35.2017 C   0  0  0  0  0  0
    7.2936   38.4782   35.4849 C   0  0  0  0  0  0
    6.0419   38.9243   35.0213 C   0  0  0  0  0  0
    5.9020   40.1243   34.3067 C   0  0  0  0  0  0
    4.5388   40.6097   33.9006 C   0  0  0  0  0  0
    4.1631   41.7626   34.0963 O   0  0  0  0  0  0
    3.7549   39.6785   33.3001 O   0  0  0  0  0  0
    7.4317   37.2597   36.2053 N   0  0  0  0  0  0
    8.6020   37.0530   37.0630 C   0  0  0  0  0  0
    6.2579   36.4400   36.5187 C   0  0  0  0  0  0
    9.3729   40.2038   29.7008 O   0  0  0  0  0  0
   10.4983   39.6876   30.3237 C   0  0  0  0  0  0
   10.8223   39.8959   31.6693 C   0  0  0  0  0  0
   11.9310   39.2789   32.2264 C   0  0  0  0  0  0
   12.7607   38.4808   31.4396 C   0  0  0  0  0  0
   12.5482   38.3543   30.0551 C   0  0  0  0  0  0
   11.3701   38.9295   29.5376 C   0  0  0  0  0  0
   13.5670   37.6789   29.1986 C   0  0  0  0  0  0
   14.6070   37.1744   29.7031 N   0  0  0  0  0  0
   13.2994   37.6788   27.8519 N   0  0  0  0  0  0
    9.3131   42.6107   28.3548 F   0  0  0  0  0  0
    9.6305   47.9241   30.0467 H   0  0  0  0  0  0
    9.1330   47.2428   28.4958 H   0  0  0  0  0  0
    7.9389   47.5610   29.7528 H   0  0  0  0  0  0
    8.9334   45.8495   31.1967 H   0  0  0  0  0  0
   10.9873   45.5511   28.9766 H   0  0  0  0  0  0
   10.6892   44.2188   30.0311 H   0  0  0  0  0  0
   11.6464   46.9450   30.9786 H   0  0  0  0  0  0
   12.6111   45.5166   30.8013 H   0  0  0  0  0  0
   11.9308   43.3735   32.1451 H   0  0  0  0  0  0
   11.4412   42.6690   34.4577 H   0  0  0  0  0  0
   10.5082   44.2988   36.0755 H   0  0  0  0  0  0
   10.0633   46.6253   35.3863 H   0  0  0  0  0  0
   10.5432   47.3437   33.0776 H   0  0  0  0  0  0
    8.1566   44.8590   28.5482 H   0  0  0  0  0  0
    9.1618   41.0666   34.2782 H   0  0  0  0  0  0
    9.3959   38.9910   35.5262 H   0  0  0  0  0  0
    5.1545   38.3476   35.2379 H   0  0  0  0  0  0
    2.9240   40.1104   33.0929 H   0  0  0  0  0  0
    8.6343   37.8144   37.8443 H   0  0  0  0  0  0
    8.5847   36.0804   37.5547 H   0  0  0  0  0  0
    9.5312   37.1145   36.4986 H   0  0  0  0  0  0
    5.6539   36.2583   35.6278 H   0  0  0  0  0  0
    6.5417   35.4675   36.9246 H   0  0  0  0  0  0
    5.6262   36.9436   37.2550 H   0  0  0  0  0  0
   10.2239   40.5093   32.3162 H   0  0  0  0  0  0
   12.1666   39.4199   33.2716 H   0  0  0  0  0  0
   13.6324   38.0443   31.9088 H   0  0  0  0  0  0
   11.1183   38.8311   28.4971 H   0  0  0  0  0  0
   15.1838   36.7846   28.9706 H   0  0  0  0  0  0
   13.9109   37.1710   27.2245 H   0  0  0  0  0  0
   12.4513   38.0786   27.4659 H   0  0  0  0  0  0
  1  2  1  0  0  0
  1 43  1  0  0  0
  1 44  1  0  0  0
  1 45  1  0  0  0
  2  3  1  0  0  0
  2 11  1  0  0  0
  2 46  1  0  0  0
  3  4  1  0  0  0
  3 47  1  0  0  0
  3 48  1  0  0  0
  4  5  1  0  0  0
  4 49  1  0  0  0
  4 50  1  0  0  0
  5 10  1  0  0  0
  5  6  2  0  0  0
  6  7  1  0  0  0
  6 51  1  0  0  0
  7  8  2  0  0  0
  7 52  1  0  0  0
  8  9  1  0  0  0
  8 53  1  0  0  0
  9 10  2  0  0  0
  9 54  1  0  0  0
 10 55  1  0  0  0
 11 12  1  0  0  0
 11 56  1  0  0  0
 12 17  1  0  0  0
 12 13  2  0  0  0
 13 14  1  0  0  0
 13 42  1  0  0  0
 14 15  2  0  0  0
 14 32  1  0  0  0
 15 16  1  0  0  0
 16 17  2  0  0  0
 16 19  1  0  0  0
 17 18  1  0  0  0
 19 20  1  0  0  0
 20 25  1  0  0  0
 20 21  2  0  0  0
 21 22  1  0  0  0
 21 57  1  0  0  0
 22 23  2  0  0  0
 22 58  1  0  0  0
 23 24  1  0  0  0
 23 29  1  0  0  0
 24 25  2  0  0  0
 24 59  1  0  0  0
 25 26  1  0  0  0
 26 27  2  0  0  0
 26 28  1  0  0  0
 28 60  1  0  0  0
 29 30  1  0  0  0
 29 31  1  0  0  0
 30 61  1  0  0  0
 30 62  1  0  0  0
 30 63  1  0  0  0
 31 64  1  0  0  0
 31 65  1  0  0  0
 31 66  1  0  0  0
 32 33  1  0  0  0
 33 38  1  0  0  0
 33 34  2  0  0  0
 34 35  1  0  0  0
 34 67  1  0  0  0
 35 36  2  0  0  0
 35 68  1  0  0  0
 36 37  1  0  0  0
 36 69  1  0  0  0
 37 38  2  0  0  0
 37 39  1  0  0  0
 38 70  1  0  0  0
 39 40  2  3  0  0
 39 41  1  0  0  0
 40 71  1  0  0  0
 41 72  1  0  0  0
 41 73  1  0  0  0
M  END
> <s_m_entry_id>
21045

> <s_m_entry_name>
ligand_docking-pose.11

> <s_m_Source_Path>
/home/csk/Desktop/cluster/DUD-E-result/fa7

> <s_m_Source_File>
ligand_docking-pose.sdf

> <i_m_Source_File_Index>
11

> <i_lp_mmshare_version>
53161

> <i_f3d_flags>
0

> <r_lp_tautomer_probability>
1

> <s_lp_Force_Field>
OPLS_2005

> <r_lp_Energy>
29.613687

> <b_lp_Chiralities_Consistent>
1

> <s_lp_Variant>
326876-1

> <s_i_glide_gridfile>
glide-grid_1w7x

> <i_i_glide_lignum>
519

> <i_i_glide_rotatable_bonds>
13

> <r_i_docking_score>
-8.01902597053426

> <r_i_glide_ligand_efficiency>
-0.190929189774625

> <r_i_glide_ligand_efficiency_sa>
-0.663674950116313

> <r_i_glide_ligand_efficiency_ln>
-1.69260978848919

> <r_i_glide_gscore>
-8.01902597053426

> <r_i_glide_lipo>
-2.50133371269349

> <r_i_glide_hbond>
-0.32

> <r_i_glide_metal>
0

> <r_i_glide_rewards>
-0.431191021713179

> <r_i_glide_evdw>
-47.9478149414062

> <r_i_glide_ecoul>
-18.5536346435547

> <r_i_glide_erotb>
0.471744450168144

> <r_i_glide_esite>
-0.0578097426922252

> <r_i_glide_emodel>
-92.555785492406

> <r_i_glide_energy>
-66.5014495849609

> <r_i_glide_einternal>
7.3862156867981

> <i_i_glide_confnum>
1

> <i_i_glide_posenum>
7

> <r_i_glide_eff_state_penalty>
0

> <s_user_duplicate_titles>
326876

> <s_m_subgroup_title>
dock_pv

> <s_m_subgroupid>
dock_pv1

> <b_m_subgroup_collapsed>
0

$$$$
343596
                    3D
 Schrodinger Suite 2021-1.
 63 66  0  0  1  0            999 V2000
    5.8391   38.5291   39.2803 C   0  0  0  0  0  0
    6.4801   39.7166   39.6192 C   0  0  0  0  0  0
    6.9954   40.5463   38.6241 C   0  0  0  0  0  0
    6.9190   40.1799   37.2658 C   0  0  0  0  0  0
    6.2403   38.9925   36.9478 C   0  0  0  0  0  0
    5.7014   38.1682   37.9397 C   0  0  0  0  0  0
    4.9697   36.8829   37.5658 C   0  0  0  0  0  0
    5.8694   35.6250   37.5664 C   0  0  0  0  0  0
    6.9395   35.6135   36.4656 C   0  0  0  0  0  0
    6.7310   36.0177   35.3225 O   0  0  0  0  0  0
    8.1157   35.0781   36.8970 O   0  0  0  0  0  0
    7.5218   41.0062   36.1646 C   0  0  0  0  0  0
    7.2870   42.3874   36.1084 C   0  0  0  0  0  0
    7.7671   43.1868   35.0656 C   0  0  0  0  0  0
    8.5280   42.5891   34.0680 C   0  0  0  0  0  0
    8.8238   41.2273   34.1103 C   0  0  0  0  0  0
    8.3310   40.4361   35.1619 C   0  0  0  0  0  0
    8.6625   39.1029   35.2197 O   0  0  0  0  0  0
    9.6629   40.7026   33.0047 C   0  0  0  0  0  0
    9.3902   40.9921   31.6894 N   0  0  0  0  0  0
   10.3002   40.3119   30.9285 C   0  0  0  0  0  0
   10.4817   40.1727   29.5612 C   0  0  0  0  0  0
   11.5310   39.3495   29.1626 C   0  0  0  0  0  0
   12.3932   38.6794   30.0505 C   0  0  0  0  0  0
   12.1942   38.8790   31.4325 C   0  0  0  0  0  0
   11.1310   39.6759   31.8745 C   0  0  0  0  0  0
   10.7113   39.9300   33.1524 N   0  0  0  0  0  0
   13.5088   37.8139   29.5556 C   0  0  0  0  0  0
   14.3203   37.2790   30.3551 N   0  0  0  0  0  0
   13.5750   37.6790   28.1884 N   0  0  0  0  0  0
    7.5419   44.7120   35.0259 C   0  0  2  0  0  0
    8.3224   45.4404   36.1402 C   0  0  0  0  0  0
    9.8019   45.4767   35.7898 C   0  0  0  0  0  0
   10.2658   45.3880   34.6542 O   0  0  0  0  0  0
   10.5657   45.6790   36.8970 O   0  0  0  0  0  0
    6.0712   45.1214   35.1028 C   0  0  0  0  0  0
    5.1310   44.3537   35.2970 O   0  0  0  0  0  0
    5.9100   46.4535   34.8518 O   0  0  0  0  0  0
    7.5310   41.7442   39.0104 O   0  0  0  0  0  0
    8.6195   41.5702   31.3916 H   0  0  0  0  0  0
    5.4362   37.8995   40.0608 H   0  0  0  0  0  0
    6.5569   40.0034   40.6582 H   0  0  0  0  0  0
    6.1311   38.6985   35.9128 H   0  0  0  0  0  0
    4.1525   36.7375   38.2746 H   0  0  0  0  0  0
    4.4718   37.0036   36.6015 H   0  0  0  0  0  0
    6.3310   35.5306   38.5487 H   0  0  0  0  0  0
    5.2580   34.7315   37.4381 H   0  0  0  0  0  0
    8.1270   34.8790   37.8462 H   0  0  0  0  0  0
    6.7310   42.8621   36.8969 H   0  0  0  0  0  0
    8.9304   43.2011   33.2721 H   0  0  0  0  0  0
    8.3225   38.6624   36.0025 H   0  0  0  0  0  0
    9.8569   40.6740   28.8364 H   0  0  0  0  0  0
   11.6806   39.2790   28.0970 H   0  0  0  0  0  0
   12.8358   38.4005   32.1601 H   0  0  0  0  0  0
   15.0211   36.7688   29.8438 H   0  0  0  0  0  0
   14.2365   37.0319   27.7776 H   0  0  0  0  0  0
   12.8548   38.0560   27.5897 H   0  0  0  0  0  0
    7.8573   45.0747   34.0413 H   0  0  0  0  0  0
    8.0106   46.4790   36.2494 H   0  0  0  0  0  0
    8.1692   44.9353   37.0989 H   0  0  0  0  0  0
   10.1088   45.6790   37.7568 H   0  0  0  0  0  0
    6.7378   46.9033   34.6739 H   0  0  0  0  0  0
    8.4271   41.6790   39.3829 H   0  0  0  0  0  0
  1  6  1  0  0  0
  1  2  2  0  0  0
  1 41  1  0  0  0
  2  3  1  0  0  0
  2 42  1  0  0  0
  3  4  2  0  0  0
  3 39  1  0  0  0
  4  5  1  0  0  0
  4 12  1  0  0  0
  5  6  2  0  0  0
  5 43  1  0  0  0
  6  7  1  0  0  0
  7  8  1  0  0  0
  7 44  1  0  0  0
  7 45  1  0  0  0
  8  9  1  0  0  0
  8 46  1  0  0  0
  8 47  1  0  0  0
  9 10  2  0  0  0
  9 11  1  0  0  0
 11 48  1  0  0  0
 12 17  1  0  0  0
 12 13  2  0  0  0
 13 14  1  0  0  0
 13 49  1  0  0  0
 14 15  2  0  0  0
 14 31  1  0  0  0
 15 16  1  0  0  0
 15 50  1  0  0  0
 16 17  2  0  0  0
 16 19  1  0  0  0
 17 18  1  0  0  0
 18 51  1  0  0  0
 19 27  2  0  0  0
 19 20  1  0  0  0
 20 40  1  0  0  0
 20 21  1  0  0  0
 21 26  2  0  0  0
 21 22  1  0  0  0
 22 23  2  0  0  0
 22 52  1  0  0  0
 23 24  1  0  0  0
 23 53  1  0  0  0
 24 25  2  0  0  0
 24 28  1  0  0  0
 25 26  1  0  0  0
 25 54  1  0  0  0
 26 27  1  0  0  0
 28 29  2  3  0  0
 28 30  1  0  0  0
 29 55  1  0  0  0
 30 56  1  0  0  0
 30 57  1  0  0  0
 31 32  1  0  0  0
 31 36  1  0  0  0
 31 58  1  0  0  0
 32 33  1  0  0  0
 32 59  1  0  0  0
 32 60  1  0  0  0
 33 34  2  0  0  0
 33 35  1  0  0  0
 35 61  1  0  0  0
 36 37  2  0  0  0
 36 38  1  0  0  0
 38 62  1  0  0  0
 39 63  1  0  0  0
M  END
> <s_m_entry_id>
21047

> <s_m_entry_name>
ligand_docking-pose.13

> <s_m_Source_Path>
/home/csk/Desktop/cluster/DUD-E-result/fa7

> <s_m_Source_File>
ligand_docking-pose.sdf

> <i_m_Source_File_Index>
13

> <i_lp_mmshare_version>
53161

> <i_f3d_flags>
0

> <r_lp_tautomer_probability>
0.99999999999473

> <s_lp_Force_Field>
OPLS_2005

> <r_lp_Energy>
30.317868

> <b_lp_Chiralities_Consistent>
1

> <s_lp_Variant>
343596-1

> <s_i_glide_gridfile>
glide-grid_1w7x

> <i_i_glide_lignum>
192

> <i_i_glide_rotatable_bonds>
15

> <r_i_docking_score>
-7.88037687964876

> <r_i_glide_ligand_efficiency>
-0.20206094563202

> <r_i_glide_ligand_efficiency_sa>
-0.685231390176772

> <r_i_glide_ligand_efficiency_ln>
-1.68977650079715

> <r_i_glide_gscore>
-7.88037687964876

> <r_i_glide_lipo>
-1.23169673589282

> <r_i_glide_hbond>
-0.55425115925657

> <r_i_glide_metal>
0

> <r_i_glide_rewards>
-0.632972551029285

> <r_i_glide_evdw>
-47.6545715332031

> <r_i_glide_ecoul>
-24.47776222229

> <r_i_glide_erotb>
0.654675756345409

> <r_i_glide_esite>
-0.0617392798118316

> <r_i_glide_emodel>
-102.625640843611

> <r_i_glide_energy>
-72.1323337554932

> <r_i_glide_einternal>
12.2453231811523

> <i_i_glide_confnum>
18

> <i_i_glide_posenum>
352

> <r_i_glide_eff_state_penalty>
0

> <s_user_duplicate_titles>
343596

> <s_m_subgroup_title>
dock_pv

> <s_m_subgroupid>
dock_pv1

> <b_m_subgroup_collapsed>
0

$$$$
344106
                    3D
 Schrodinger Suite 2021-1.
 60 63  0  0  1  0            999 V2000
   12.1344   38.6371   29.0459 C   0  0  0  0  0  0
   11.0321   39.4513   29.2970 C   0  0  0  0  0  0
   10.7937   39.7644   30.6299 C   0  0  0  0  0  0
   11.6062   39.2790   31.6798 C   0  0  0  0  0  0
   12.7206   38.4790   31.3889 C   0  0  0  0  0  0
   12.9989   38.1689   30.0453 C   0  0  0  0  0  0
   14.1796   37.3632   29.6971 C   0  0  0  0  0  0
   14.5621   36.4790   30.4897 N   0  0  0  0  0  0
   14.7657   37.6790   28.4972 N   0  0  0  0  0  0
   11.1309   39.6868   32.8955 N   0  0  0  0  0  0
   10.0600   40.3939   32.6209 C   0  0  0  0  0  0
    9.8353   40.5090   31.2684 N   0  0  0  0  0  0
    9.1292   40.9591   33.6407 C   0  0  0  0  0  0
    8.6469   42.2574   33.4487 C   0  0  0  0  0  0
    7.7681   42.8479   34.3597 C   0  0  0  0  0  0
    7.3602   42.0958   35.4660 C   0  0  0  0  0  0
    7.8232   40.7951   35.6956 C   0  0  0  0  0  0
    8.7267   40.2339   34.7748 C   0  0  0  0  0  0
    9.2333   38.9745   34.9999 O   0  0  0  0  0  0
    7.4043   40.0689   36.9361 C   0  0  0  0  0  0
    6.9564   38.7416   36.8584 C   0  0  0  0  0  0
    6.6701   37.9988   38.0140 C   0  0  0  0  0  0
    6.7925   38.6171   39.2600 C   0  0  0  0  0  0
    7.1982   39.9444   39.3560 C   0  0  0  0  0  0
    7.5048   40.6656   38.2056 C   0  0  0  0  0  0
    7.9310   41.9589   38.3473 O   0  0  0  0  0  0
    6.3312   36.6322   38.0102 N   0  0  0  0  0  0
    5.9033   35.8681   36.9886 C   0  0  0  0  0  0
    5.6341   36.2453   35.8507 O   0  0  0  0  0  0
    5.7766   34.5959   37.3467 N   0  0  0  0  0  0
    7.3655   44.3286   34.1668 C   0  0  2  0  0  0
    8.3124   45.3222   34.8833 C   0  0  0  0  0  0
    8.3167   45.2197   36.4044 C   0  0  0  0  0  0
    7.3660   44.8844   37.1068 O   0  0  0  0  0  0
    9.5180   45.6303   36.8970 O   0  0  0  0  0  0
    5.8892   44.6699   34.4191 C   0  0  0  0  0  0
    5.0529   43.9049   34.8970 O   0  0  0  0  0  0
    5.5912   45.9353   34.0043 O   0  0  0  0  0  0
    9.0533   41.0060   30.8705 H   0  0  0  0  0  0
   12.3310   38.3723   28.0210 H   0  0  0  0  0  0
   10.4089   39.8106   28.4907 H   0  0  0  0  0  0
   13.3568   38.1429   32.1962 H   0  0  0  0  0  0
   13.9528   36.3972   31.2903 H   0  0  0  0  0  0
   15.4724   37.0633   28.1201 H   0  0  0  0  0  0
   14.3954   38.4134   27.9171 H   0  0  0  0  0  0
    8.9881   42.8275   32.5960 H   0  0  0  0  0  0
    6.7043   42.5461   36.1941 H   0  0  0  0  0  0
    8.8938   38.5760   35.8052 H   0  0  0  0  0  0
    6.8776   38.2831   35.8847 H   0  0  0  0  0  0
    6.5767   38.0790   40.1679 H   0  0  0  0  0  0
    7.2903   40.4055   40.3289 H   0  0  0  0  0  0
    8.5204   42.0789   39.1087 H   0  0  0  0  0  0
    6.4414   36.1627   38.8957 H   0  0  0  0  0  0
    5.3993   33.9379   36.6842 H   0  0  0  0  0  0
    6.1173   34.2661   38.2379 H   0  0  0  0  0  0
    7.4929   44.5181   33.0970 H   0  0  0  0  0  0
    9.3252   45.1152   34.5250 H   0  0  0  0  0  0
    8.0930   46.3573   34.6125 H   0  0  0  0  0  0
    9.5310   45.6723   37.8745 H   0  0  0  0  0  0
    6.3501   46.4013   33.6512 H   0  0  0  0  0  0
  1  6  1  0  0  0
  1  2  2  0  0  0
  1 40  1  0  0  0
  2  3  1  0  0  0
  2 41  1  0  0  0
  3 12  1  0  0  0
  3  4  2  0  0  0
  4  5  1  0  0  0
  4 10  1  0  0  0
  5  6  2  0  0  0
  5 42  1  0  0  0
  6  7  1  0  0  0
  7  8  2  3  0  0
  7  9  1  0  0  0
  8 43  1  0  0  0
  9 44  1  0  0  0
  9 45  1  0  0  0
 10 11  2  0  0  0
 11 12  1  0  0  0
 11 13  1  0  0  0
 12 39  1  0  0  0
 13 18  1  0  0  0
 13 14  2  0  0  0
 14 15  1  0  0  0
 14 46  1  0  0  0
 15 16  2  0  0  0
 15 31  1  0  0  0
 16 17  1  0  0  0
 16 47  1  0  0  0
 17 18  2  0  0  0
 17 20  1  0  0  0
 18 19  1  0  0  0
 19 48  1  0  0  0
 20 25  1  0  0  0
 20 21  2  0  0  0
 21 22  1  0  0  0
 21 49  1  0  0  0
 22 23  2  0  0  0
 22 27  1  0  0  0
 23 24  1  0  0  0
 23 50  1  0  0  0
 24 25  2  0  0  0
 24 51  1  0  0  0
 25 26  1  0  0  0
 26 52  1  0  0  0
 27 28  1  0  0  0
 27 53  1  0  0  0
 28 29  2  0  0  0
 28 30  1  0  0  0
 30 54  1  0  0  0
 30 55  1  0  0  0
 31 32  1  0  0  0
 31 36  1  0  0  0
 31 56  1  0  0  0
 32 33  1  0  0  0
 32 57  1  0  0  0
 32 58  1  0  0  0
 33 34  2  0  0  0
 33 35  1  0  0  0
 35 59  1  0  0  0
 36 37  2  0  0  0
 36 38  1  0  0  0
 38 60  1  0  0  0
M  END
> <s_m_entry_id>
21048

> <s_m_entry_name>
ligand_docking-pose.14

> <s_m_Source_Path>
/home/csk/Desktop/cluster/DUD-E-result/fa7

> <s_m_Source_File>
ligand_docking-pose.sdf

> <i_m_Source_File_Index>
14

> <i_lp_mmshare_version>
53161

> <i_f3d_flags>
0

> <r_lp_tautomer_probability>
0.99999999999473

> <s_lp_Force_Field>
OPLS_2005

> <r_lp_Energy>
22.262728

> <b_lp_Chiralities_Consistent>
1

> <s_lp_Variant>
344106-2

> <s_i_glide_gridfile>
glide-grid_1w7x

> <i_i_glide_lignum>
56

> <i_i_glide_rotatable_bonds>
13

> <r_i_docking_score>
-7.86225628507361

> <r_i_glide_ligand_efficiency>
-0.206901481186148

> <r_i_glide_ligand_efficiency_sa>
-0.695597690534674

> <r_i_glide_ligand_efficiency_ln>
-1.69533373920917

> <r_i_glide_gscore>
-7.86225628507361

> <r_i_glide_lipo>
-1.5861464494611

> <r_i_glide_hbond>
-0.37298965163222

> <r_i_glide_metal>
0

> <r_i_glide_rewards>
-0.643360658269007

> <r_i_glide_evdw>
-41.9880218505859

> <r_i_glide_ecoul>
-23.5567207336426

> <r_i_glide_erotb>
0.534821993129025

> <r_i_glide_esite>
-0.161672316264624

> <r_i_glide_emodel>
-94.2519761463322

> <r_i_glide_energy>
-65.5447425842285

> <r_i_glide_einternal>
9.79861354827881

> <i_i_glide_confnum>
53

> <i_i_glide_posenum>
394

> <r_i_glide_eff_state_penalty>
0

> <s_user_duplicate_titles>
344106

> <s_m_subgroup_title>
dock_pv

> <s_m_subgroupid>
dock_pv1

> <b_m_subgroup_collapsed>
0

$$$$
216442
                    3D
 Schrodinger Suite 2021-1.
 63 65  0  0  1  0            999 V2000
    8.8491   44.8227   26.5194 C   0  0  0  0  0  0
    7.7800   43.9863   26.0970 O   0  0  0  0  0  0
    7.1365   43.2184   27.1107 C   0  0  0  0  0  0
    7.9167   41.9555   27.5382 C   0  0  0  0  0  0
    9.1310   42.2236   28.3112 N   0  0  0  0  0  0
    9.1629   42.7381   29.6000 C   0  0  0  0  0  0
    8.2548   42.1937   30.6647 C   0  0  0  0  0  0
    7.3685   41.3556   30.4542 O   0  0  0  0  0  0
    8.5588   42.6707   31.9345 N   0  0  0  0  0  0
    9.4692   43.7321   32.1038 C   0  0  0  0  0  0
   10.2040   44.1712   31.0323 C   0  0  0  0  0  0
   10.0762   43.6191   29.7887 N   0  0  0  0  0  0
   11.3559   45.5166   31.0877 Cl  0  0  0  0  0  0
    9.6225   44.3092   33.4761 C   0  0  0  0  0  0
    8.5036   44.6553   34.2460 C   0  0  0  0  0  0
    8.6163   45.0910   35.5758 C   0  0  0  0  0  0
    9.9043   45.3107   36.0947 C   0  0  0  0  0  0
   11.0329   45.0402   35.3160 C   0  0  0  0  0  0
   10.8890   44.5107   34.0363 C   0  0  0  0  0  0
   12.3130   45.2790   35.8106 N   0  0  0  0  0  0
    7.3585   45.2789   36.3984 C   0  0  0  0  0  0
    6.2399   45.0642   35.9292 O   0  0  0  0  0  0
    7.5310   45.6539   37.6970 O   0  0  0  0  0  0
    8.0549   41.8104   33.0496 C   0  0  0  0  0  0
    9.0911   40.7496   33.4747 C   0  0  0  0  0  0
    8.8234   40.0201   34.4274 O   0  0  0  0  0  0
   10.2434   40.6558   32.7869 N   0  0  0  0  0  0
   11.2946   39.6789   33.0199 C   0  0  0  0  0  0
   11.9319   39.0741   31.7689 C   0  0  0  0  0  0
   13.0997   38.3256   31.9271 C   0  0  0  0  0  0
   13.7808   37.8286   30.8279 C   0  0  0  0  0  0
   13.3315   38.0791   29.5221 C   0  0  0  0  0  0
   12.1169   38.7790   29.3782 C   0  0  0  0  0  0
   11.4288   39.2788   30.4816 C   0  0  0  0  0  0
   14.1723   37.6790   28.3615 C   0  0  0  0  0  0
   15.3750   37.3286   28.5251 N   0  0  0  0  0  0
   13.5310   37.6790   27.1495 N   0  0  0  0  0  0
    9.1294   45.4834   25.6989 H   0  0  0  0  0  0
    8.5646   45.4479   27.3671 H   0  0  0  0  0  0
    9.7364   44.2498   26.7845 H   0  0  0  0  0  0
    6.1946   42.8883   26.6722 H   0  0  0  0  0  0
    6.8606   43.8349   27.9681 H   0  0  0  0  0  0
    8.1862   41.3946   26.6444 H   0  0  0  0  0  0
    7.2492   41.2966   28.0915 H   0  0  0  0  0  0
    9.9278   42.4789   27.7396 H   0  0  0  0  0  0
    7.5224   44.5307   33.8076 H   0  0  0  0  0  0
   10.0533   45.6790   37.1000 H   0  0  0  0  0  0
   11.7735   44.2526   33.4730 H   0  0  0  0  0  0
   12.4341   45.8675   36.6280 H   0  0  0  0  0  0
   13.1091   45.0944   35.2190 H   0  0  0  0  0  0
    8.4421   45.6790   38.0190 H   0  0  0  0  0  0
    7.1374   41.2839   32.7849 H   0  0  0  0  0  0
    7.7970   42.3852   33.9314 H   0  0  0  0  0  0
   10.4595   41.3807   32.1194 H   0  0  0  0  0  0
   10.9370   38.8789   33.6623 H   0  0  0  0  0  0
   12.0660   40.1808   33.6005 H   0  0  0  0  0  0
   13.5220   38.1590   32.9049 H   0  0  0  0  0  0
   14.6941   37.2831   31.0151 H   0  0  0  0  0  0
   11.7193   39.0177   28.4058 H   0  0  0  0  0  0
   10.5248   39.8472   30.3180 H   0  0  0  0  0  0
   15.6819   37.4191   29.4791 H   0  0  0  0  0  0
   14.0214   37.2667   26.3600 H   0  0  0  0  0  0
   12.5852   38.0232   27.0172 H   0  0  0  0  0  0
  1  2  1  0  0  0
  1 38  1  0  0  0
  1 39  1  0  0  0
  1 40  1  0  0  0
  2  3  1  0  0  0
  3  4  1  0  0  0
  3 41  1  0  0  0
  3 42  1  0  0  0
  4  5  1  0  0  0
  4 43  1  0  0  0
  4 44  1  0  0  0
  5  6  1  0  0  0
  5 45  1  0  0  0
  6 12  2  0  0  0
  6  7  1  0  0  0
  7  8  2  0  0  0
  7  9  1  0  0  0
  9 10  1  0  0  0
  9 24  1  0  0  0
 10 11  2  0  0  0
 10 14  1  0  0  0
 11 12  1  0  0  0
 11 13  1  0  0  0
 14 19  1  0  0  0
 14 15  2  0  0  0
 15 16  1  0  0  0
 15 46  1  0  0  0
 16 17  2  0  0  0
 16 21  1  0  0  0
 17 18  1  0  0  0
 17 47  1  0  0  0
 18 19  2  0  0  0
 18 20  1  0  0  0
 19 48  1  0  0  0
 20 49  1  0  0  0
 20 50  1  0  0  0
 21 22  2  0  0  0
 21 23  1  0  0  0
 23 51  1  0  0  0
 24 25  1  0  0  0
 24 52  1  0  0  0
 24 53  1  0  0  0
 25 26  2  0  0  0
 25 27  1  0  0  0
 27 28  1  0  0  0
 27 54  1  0  0  0
 28 29  1  0  0  0
 28 55  1  0  0  0
 28 56  1  0  0  0
 29 34  1  0  0  0
 29 30  2  0  0  0
 30 31  1  0  0  0
 30 57  1  0  0  0
 31 32  2  0  0  0
 31 58  1  0  0  0
 32 33  1  0  0  0
 32 35  1  0  0  0
 33 34  2  0  0  0
 33 59  1  0  0  0
 34 60  1  0  0  0
 35 36  2  3  0  0
 35 37  1  0  0  0
 36 61  1  0  0  0
 37 62  1  0  0  0
 37 63  1  0  0  0
M  END
> <s_m_entry_id>
21050

> <s_m_entry_name>
ligand_docking-pose.16

> <s_m_Source_Path>
/home/csk/Desktop/cluster/DUD-E-result/fa7

> <s_m_Source_File>
ligand_docking-pose.sdf

> <i_m_Source_File_Index>
16

> <i_lp_mmshare_version>
53161

> <i_f3d_flags>
0

> <r_lp_tautomer_probability>
1

> <s_lp_Force_Field>
OPLS_2005

> <r_lp_Energy>
31.707113

> <b_lp_Chiralities_Consistent>
1

> <s_lp_Variant>
216442-2

> <s_i_glide_gridfile>
glide-grid_1w7x

> <i_i_glide_lignum>
816

> <i_i_glide_rotatable_bonds>
13

> <r_i_docking_score>
-7.77027179285968

> <r_i_glide_ligand_efficiency>
-0.210007345752964

> <r_i_glide_ligand_efficiency_sa>
-0.699791065681899

> <r_i_glide_ligand_efficiency_ln>
-1.68518979085526

> <r_i_glide_gscore>
-7.77027179285968

> <r_i_glide_lipo>
-2.48537631786859

> <r_i_glide_hbond>
-0.835669878663465

> <r_i_glide_metal>
0

> <r_i_glide_rewards>
-0.469561437227606

> <r_i_glide_evdw>
-45.4491004943848

> <r_i_glide_ecoul>
-15.4447689056396

> <r_i_glide_erotb>
0.738981090691133

> <r_i_glide_esite>
-0.129474889225972

> <r_i_glide_emodel>
-81.4251236525639

> <r_i_glide_energy>
-60.8938694000244

> <r_i_glide_einternal>
16.9530754089355

> <i_i_glide_confnum>
6

> <i_i_glide_posenum>
320

> <r_i_glide_eff_state_penalty>
0

> <s_user_duplicate_titles>
216442

> <s_m_subgroup_title>
dock_pv

> <s_m_subgroupid>
dock_pv1

> <b_m_subgroup_collapsed>
0

$$$$
357461
                    3D
 Schrodinger Suite 2021-1.
 74 78  0  0  1  0            999 V2000
    5.4696   42.0456   29.1394 C   0  0  0  0  0  0
    6.6416   41.0835   28.7736 C   0  0  0  0  0  0
    7.3398   41.7297   27.5367 C   0  0  0  0  0  0
    7.6608   40.9072   29.9362 C   0  0  0  0  0  0
    7.3710   41.3025   31.2476 C   0  0  0  0  0  0
    8.2659   41.0891   32.2982 C   0  0  0  0  0  0
    9.5046   40.4792   32.0330 C   0  0  0  0  0  0
    9.8382   40.0790   30.7262 C   0  0  0  0  0  0
    8.9043   40.3045   29.7042 C   0  0  0  0  0  0
   11.1116   39.3473   30.3715 C   0  0  0  0  0  0
   11.5494   39.0396   29.0929 C   0  0  0  0  0  0
   12.7638   38.3291   29.2121 C   0  0  0  0  0  0
   13.7097   37.7469   28.3481 C   0  0  0  0  0  0
   14.8462   37.2790   28.8888 N   0  0  0  0  0  0
   15.1124   37.2790   30.2061 C   0  0  0  0  0  0
   14.1637   37.7521   31.1173 C   0  0  0  0  0  0
   12.9800   38.3017   30.6025 C   0  0  0  0  0  0
   11.9489   38.8804   31.2764 N   0  0  0  0  0  0
   13.5311   37.6791   26.9720 N   0  0  0  0  0  0
   10.3939   40.2639   33.0581 O   0  0  0  0  0  0
    7.8743   41.5068   33.6673 C   0  0  0  0  0  0
    7.7861   40.5663   34.7002 C   0  0  0  0  0  0
    7.4797   40.9663   35.9986 C   0  0  0  0  0  0
    7.2739   42.3155   36.2767 C   0  0  0  0  0  0
    7.3448   43.2684   35.2559 C   0  0  0  0  0  0
    7.6201   42.8534   33.9501 C   0  0  0  0  0  0
    7.2538   44.7601   35.5907 C   0  0  0  0  0  0
    8.4929   45.5348   35.4036 N   0  0  0  0  0  0
    9.7380   45.1047   35.6978 C   0  0  0  0  0  0
    9.9451   43.9596   36.0968 O   0  0  0  0  0  0
   10.9131   46.0977   35.4950 C   0  0  2  0  0  0
   10.9792   46.7719   34.0987 C   0  0  0  0  0  0
   10.9648   45.8954   32.8333 C   0  0  0  0  0  0
   11.1863   44.5102   32.8620 C   0  0  0  0  0  0
   11.1310   43.7634   31.6887 C   0  0  0  0  0  0
   10.8776   44.3979   30.4755 C   0  0  0  0  0  0
   10.6788   45.7757   30.4290 C   0  0  0  0  0  0
   10.7227   46.5207   31.6052 C   0  0  0  0  0  0
   12.1667   45.4724   35.7571 O   0  0  0  0  0  0
    6.0677   39.6782   28.4056 C   0  0  0  0  0  0
    4.9550   39.2794   28.7538 O   0  0  0  0  0  0
    6.9443   38.9088   27.6969 O   0  0  0  0  0  0
   15.5250   36.8819   28.2535 H   0  0  0  0  0  0
   10.7925   46.8782   36.2467 H   0  0  0  0  0  0
    4.8468   41.6646   29.9504 H   0  0  0  0  0  0
    5.8391   43.0258   29.4453 H   0  0  0  0  0  0
    4.8018   42.2091   28.2918 H   0  0  0  0  0  0
    8.1548   41.1299   27.1314 H   0  0  0  0  0  0
    6.6394   41.8908   26.7150 H   0  0  0  0  0  0
    7.7639   42.7024   27.7905 H   0  0  0  0  0  0
    6.4258   41.7636   31.4864 H   0  0  0  0  0  0
    9.1259   39.9730   28.7032 H   0  0  0  0  0  0
   11.0547   39.3288   28.1815 H   0  0  0  0  0  0
   16.0773   36.8812   30.4862 H   0  0  0  0  0  0
   14.3505   37.7529   32.1791 H   0  0  0  0  0  0
   12.6351   38.0003   26.6031 H   0  0  0  0  0  0
   14.1462   37.1073   26.3932 H   0  0  0  0  0  0
   11.1779   39.8136   32.7126 H   0  0  0  0  0  0
    7.9843   39.5237   34.4981 H   0  0  0  0  0  0
    7.4498   40.2367   36.7951 H   0  0  0  0  0  0
    7.1310   42.6253   37.3001 H   0  0  0  0  0  0
    7.7179   43.5910   33.1655 H   0  0  0  0  0  0
    6.4885   45.2102   34.9562 H   0  0  0  0  0  0
    6.9068   44.9013   36.6162 H   0  0  0  0  0  0
    8.3811   46.4959   35.1182 H   0  0  0  0  0  0
   10.1409   47.4678   34.0256 H   0  0  0  0  0  0
   11.8719   47.3998   34.0826 H   0  0  0  0  0  0
   11.3986   43.9918   33.7852 H   0  0  0  0  0  0
   11.2969   42.6967   31.7217 H   0  0  0  0  0  0
   10.8405   43.8159   29.5655 H   0  0  0  0  0  0
   10.4835   46.2644   29.4859 H   0  0  0  0  0  0
   10.5609   47.5878   31.5602 H   0  0  0  0  0  0
   12.6041   45.9382   36.4807 H   0  0  0  0  0  0
    6.5614   38.0651   27.4436 H   0  0  0  0  0  0
  1  2  1  0  0  0
  1 45  1  0  0  0
  1 46  1  0  0  0
  1 47  1  0  0  0
  2  3  1  0  0  0
  2  4  1  0  0  0
  2 40  1  0  0  0
  3 48  1  0  0  0
  3 49  1  0  0  0
  3 50  1  0  0  0
  4  9  1  0  0  0
  4  5  2  0  0  0
  5  6  1  0  0  0
  5 51  1  0  0  0
  6  7  2  0  0  0
  6 21  1  0  0  0
  7  8  1  0  0  0
  7 20  1  0  0  0
  8  9  2  0  0  0
  8 10  1  0  0  0
  9 52  1  0  0  0
 10 18  1  0  0  0
 10 11  2  0  0  0
 11 12  1  0  0  0
 11 53  1  0  0  0
 12 17  1  0  0  0
 12 13  2  0  0  0
 13 14  1  0  0  0
 13 19  1  0  0  0
 14 43  1  0  0  0
 14 15  1  0  0  0
 15 16  2  0  0  0
 15 54  1  0  0  0
 16 17  1  0  0  0
 16 55  1  0  0  0
 17 18  2  0  0  0
 19 56  1  0  0  0
 19 57  1  0  0  0
 20 58  1  0  0  0
 21 26  1  0  0  0
 21 22  2  0  0  0
 22 23  1  0  0  0
 22 59  1  0  0  0
 23 24  2  0  0  0
 23 60  1  0  0  0
 24 25  1  0  0  0
 24 61  1  0  0  0
 25 26  2  0  0  0
 25 27  1  0  0  0
 26 62  1  0  0  0
 27 28  1  0  0  0
 27 63  1  0  0  0
 27 64  1  0  0  0
 28 29  1  0  0  0
 28 65  1  0  0  0
 29 30  2  0  0  0
 29 31  1  0  0  0
 31 44  1  0  0  0
 31 32  1  0  0  0
 31 39  1  0  0  0
 32 33  1  0  0  0
 32 66  1  0  0  0
 32 67  1  0  0  0
 33 38  1  0  0  0
 33 34  2  0  0  0
 34 35  1  0  0  0
 34 68  1  0  0  0
 35 36  2  0  0  0
 35 69  1  0  0  0
 36 37  1  0  0  0
 36 70  1  0  0  0
 37 38  2  0  0  0
 37 71  1  0  0  0
 38 72  1  0  0  0
 39 73  1  0  0  0
 40 41  2  0  0  0
 40 42  1  0  0  0
 42 74  1  0  0  0
M  END
> <s_m_entry_id>
21052

> <s_m_entry_name>
ligand_docking-pose.18

> <s_m_Source_Path>
/home/csk/Desktop/cluster/DUD-E-result/fa7

> <s_m_Source_File>
ligand_docking-pose.sdf

> <i_m_Source_File_Index>
18

> <i_lp_mmshare_version>
53161

> <i_f3d_flags>
0

> <r_lp_tautomer_probability>
0.999999999997365

> <s_lp_Force_Field>
OPLS_2005

> <r_lp_Energy>
48.065448

> <b_lp_Chiralities_Consistent>
1

> <s_lp_Variant>
357461-1

> <s_i_glide_gridfile>
glide-grid_1w7x

> <i_i_glide_lignum>
500

> <i_i_glide_rotatable_bonds>
13

> <r_i_docking_score>
-7.7473648842913

> <r_i_glide_ligand_efficiency>
-0.184461068673602

> <r_i_glide_ligand_efficiency_sa>
-0.641191588854817

> <r_i_glide_ligand_efficiency_ln>
-1.63526913197853

> <r_i_glide_gscore>
-7.7473648842913

> <r_i_glide_lipo>
-3.28043909801349

> <r_i_glide_hbond>
-0.438652741288593

> <r_i_glide_metal>
0

> <r_i_glide_rewards>
0.000111352015412904

> <r_i_glide_evdw>
-48.3848915100098

> <r_i_glide_ecoul>
-13.4619770050049

> <r_i_glide_erotb>
0.503184893697427

> <r_i_glide_esite>
-0.0930281644508346

> <r_i_glide_emodel>
-88.3261530529202

> <r_i_glide_energy>
-61.8468685150146

> <r_i_glide_einternal>
8.7117223739624

> <i_i_glide_confnum>
24

> <i_i_glide_posenum>
150

> <r_i_glide_eff_state_penalty>
0

> <s_user_duplicate_titles>
357461

> <s_m_subgroup_title>
dock_pv

> <s_m_subgroupid>
dock_pv1

> <b_m_subgroup_collapsed>
0

$$$$
333047
                    3D
 Schrodinger Suite 2021-1.
 64 66  0  0  1  0            999 V2000
   13.7338   43.8312   34.9684 C   0  0  0  0  0  0
   12.3276   44.4429   34.9185 C   0  0  0  0  0  0
   11.9308   44.7414   33.5795 O   0  0  0  0  0  0
   11.1814   43.8409   32.8464 C   0  0  0  0  0  0
   11.0065   42.4929   33.1818 C   0  0  0  0  0  0
   10.1868   41.6637   32.4062 C   0  0  0  0  0  0
    9.5581   42.1877   31.2713 C   0  0  0  0  0  0
    9.7331   43.5273   30.9072 C   0  0  0  0  0  0
   10.5569   44.3301   31.6988 C   0  0  0  0  0  0
    9.1424   44.1454   29.8210 O   0  0  0  0  0  0
    8.1731   43.5195   28.9694 C   0  0  0  0  0  0
    8.7308   42.4685   27.9723 C   0  0  0  0  0  0
    7.6235   42.0307   26.9763 C   0  0  0  0  0  0
    6.3850   41.5924   27.6729 N   0  0  2  0  0  0
    5.8216   42.6496   28.5528 C   0  0  0  0  0  0
    6.8357   43.0850   29.6372 C   0  0  0  0  0  0
    6.3495   39.9191   28.2814 S   0  0  0  0  0  0
    7.7188   39.4850   28.5787 O   0  0  0  0  0  0
    5.2968   39.8171   29.2989 O   0  0  0  0  0  0
    5.7406   38.9406   26.7899 C   0  0  0  0  0  0
    9.9627   40.2191   32.7814 C   0  0  2  0  0  0
    9.1423   40.0790   34.0969 C   0  0  0  0  0  0
    8.1669   40.7872   34.3331 O   0  0  0  0  0  0
    9.5308   39.0424   34.8971 O   0  0  0  0  0  0
   11.1940   39.4366   32.7914 N   0  0  0  0  0  0
   11.9312   38.9976   31.6789 C   0  0  0  0  0  0
   13.0734   38.2190   31.8745 C   0  0  0  0  0  0
   13.8027   37.7572   30.7838 C   0  0  0  0  0  0
   13.4284   38.0845   29.4699 C   0  0  0  0  0  0
   12.2712   38.8644   29.2965 C   0  0  0  0  0  0
   11.5289   39.3052   30.3810 C   0  0  0  0  0  0
   14.2740   37.6790   28.3204 C   0  0  0  0  0  0
   15.4593   37.2793   28.4972 N   0  0  0  0  0  0
   13.6281   37.6790   27.1091 N   0  0  0  0  0  0
   14.0541   43.6787   35.9993 H   0  0  0  0  0  0
   13.7704   42.8704   34.4628 H   0  0  0  0  0  0
   14.4720   44.4783   34.4983 H   0  0  0  0  0  0
   12.3446   45.3893   35.4616 H   0  0  0  0  0  0
   11.5996   43.8240   35.4444 H   0  0  0  0  0  0
   11.4991   42.0740   34.0456 H   0  0  0  0  0  0
    8.9396   41.5362   30.6784 H   0  0  0  0  0  0
   10.6931   45.3670   31.4310 H   0  0  0  0  0  0
    7.9015   44.3689   28.3398 H   0  0  0  0  0  0
    9.5341   42.9146   27.3884 H   0  0  0  0  0  0
    9.1363   41.5959   28.4812 H   0  0  0  0  0  0
    7.3591   42.9126   26.3915 H   0  0  0  0  0  0
    7.9247   41.2791   26.2491 H   0  0  0  0  0  0
    5.6403   43.5221   27.9226 H   0  0  0  0  0  0
    4.8401   42.3473   28.9195 H   0  0  0  0  0  0
    6.9618   42.2594   30.3348 H   0  0  0  0  0  0
    6.4066   43.9272   30.1822 H   0  0  0  0  0  0
    5.8340   37.8744   27.0038 H   0  0  0  0  0  0
    4.6963   39.1942   26.6093 H   0  0  0  0  0  0
    6.3308   39.1915   25.9123 H   0  0  0  0  0  0
    9.3221   39.7706   32.0222 H   0  0  0  0  0  0
    8.9135   38.9330   35.6236 H   0  0  0  0  0  0
   11.5435   39.1274   33.6919 H   0  0  0  0  0  0
   13.4147   37.9827   32.8713 H   0  0  0  0  0  0
   14.6921   37.1730   30.9731 H   0  0  0  0  0  0
   11.9416   39.1727   28.3154 H   0  0  0  0  0  0
   10.6496   39.8989   30.1893 H   0  0  0  0  0  0
   15.8575   36.9436   27.6283 H   0  0  0  0  0  0
   14.0806   37.2338   26.3140 H   0  0  0  0  0  0
   12.6680   37.9917   27.0033 H   0  0  0  0  0  0
  1  2  1  0  0  0
  1 35  1  0  0  0
  1 36  1  0  0  0
  1 37  1  0  0  0
  2  3  1  0  0  0
  2 38  1  0  0  0
  2 39  1  0  0  0
  3  4  1  0  0  0
  4  9  1  0  0  0
  4  5  2  0  0  0
  5  6  1  0  0  0
  5 40  1  0  0  0
  6  7  2  0  0  0
  6 21  1  0  0  0
  7  8  1  0  0  0
  7 41  1  0  0  0
  8  9  2  0  0  0
  8 10  1  0  0  0
  9 42  1  0  0  0
 10 11  1  0  0  0
 11 16  1  0  0  0
 11 12  1  0  0  0
 11 43  1  0  0  0
 12 13  1  0  0  0
 12 44  1  0  0  0
 12 45  1  0  0  0
 13 14  1  0  0  0
 13 46  1  0  0  0
 13 47  1  0  0  0
 14 15  1  0  0  0
 14 17  1  0  0  0
 15 16  1  0  0  0
 15 48  1  0  0  0
 15 49  1  0  0  0
 16 50  1  0  0  0
 16 51  1  0  0  0
 17 18  2  0  0  0
 17 19  2  0  0  0
 17 20  1  0  0  0
 20 52  1  0  0  0
 20 53  1  0  0  0
 20 54  1  0  0  0
 21 22  1  0  0  0
 21 25  1  0  0  0
 21 55  1  0  0  0
 22 23  2  0  0  0
 22 24  1  0  0  0
 24 56  1  0  0  0
 25 26  1  0  0  0
 25 57  1  0  0  0
 26 31  1  0  0  0
 26 27  2  0  0  0
 27 28  1  0  0  0
 27 58  1  0  0  0
 28 29  2  0  0  0
 28 59  1  0  0  0
 29 30  1  0  0  0
 29 32  1  0  0  0
 30 31  2  0  0  0
 30 60  1  0  0  0
 31 61  1  0  0  0
 32 33  2  3  0  0
 32 34  1  0  0  0
 33 62  1  0  0  0
 34 63  1  0  0  0
 34 64  1  0  0  0
M  END
> <s_m_entry_id>
21054

> <s_m_entry_name>
ligand_docking-pose.20

> <s_m_Source_Path>
/home/csk/Desktop/cluster/DUD-E-result/fa7

> <s_m_Source_File>
ligand_docking-pose.sdf

> <i_m_Source_File_Index>
20

> <i_lp_mmshare_version>
53161

> <i_f3d_flags>
0

> <r_lp_tautomer_probability>
1

> <s_lp_Force_Field>
OPLS_2005

> <r_lp_Energy>
17.585146

> <b_lp_Chiralities_Consistent>
1

> <s_lp_Variant>
333047-1

> <s_i_glide_gridfile>
glide-grid_1w7x

> <i_i_glide_lignum>
725

> <i_i_glide_rotatable_bonds>
11

> <r_i_docking_score>
-7.65718583673468

> <r_i_glide_ligand_efficiency>
-0.225211348139255

> <r_i_glide_ligand_efficiency_sa>
-0.729597340355935

> <r_i_glide_ligand_efficiency_ln>
-1.69168712812244

> <r_i_glide_gscore>
-7.65718583673468

> <r_i_glide_lipo>
-3.14003251924885

> <r_i_glide_hbond>
-0.657926343851427

> <r_i_glide_metal>
0

> <r_i_glide_rewards>
-0.682784316542073

> <r_i_glide_evdw>
-42.8056106567383

> <r_i_glide_ecoul>
-10.1203918457031

> <r_i_glide_erotb>
0.59195144386212

> <r_i_glide_esite>
-0.110054791262065

> <r_i_glide_emodel>
-72.0831985232445

> <r_i_glide_energy>
-52.9260025024414

> <r_i_glide_einternal>
10.4183654785156

> <i_i_glide_confnum>
8

> <i_i_glide_posenum>
350

> <r_i_glide_eff_state_penalty>
0

> <s_user_duplicate_titles>
333047

> <s_m_subgroup_title>
dock_pv

> <s_m_subgroupid>
dock_pv1

> <b_m_subgroup_collapsed>
0

$$$$
343565
                    3D
 Schrodinger Suite 2021-1.
 57 60  0  0  1  0            999 V2000
   14.0102   37.6798   30.5439 C   0  0  0  0  0  0
   13.4472   38.0786   31.7511 C   0  0  0  0  0  0
   12.3146   38.8790   31.6681 C   0  0  0  0  0  0
   11.7160   39.2401   30.4433 C   0  0  0  0  0  0
   12.3249   38.8415   29.2445 C   0  0  0  0  0  0
   13.5097   38.0738   29.2873 C   0  0  0  0  0  0
   14.2586   37.6790   28.0629 C   0  0  0  0  0  0
   15.4532   37.2790   28.1399 N   0  0  0  0  0  0
   13.5310   37.6790   26.8996 N   0  0  0  0  0  0
   10.5764   39.9794   30.6564 N   0  0  0  0  0  0
   10.4544   40.0631   31.9653 C   0  0  0  0  0  0
   11.5310   39.4935   32.6068 N   0  0  0  0  0  0
    9.2787   40.6631   32.6954 C   0  0  0  0  0  0
    8.4766   41.5920   32.0247 C   0  0  0  0  0  0
    7.3804   42.1894   32.6526 C   0  0  0  0  0  0
    7.1151   41.8884   33.9922 C   0  0  0  0  0  0
    7.8720   40.9448   34.6895 C   0  0  0  0  0  0
    8.9269   40.3048   34.0141 C   0  0  0  0  0  0
    9.5826   39.2791   34.6460 O   0  0  0  0  0  0
    7.5258   40.6267   36.1118 C   0  0  0  0  0  0
    7.2176   39.3079   36.4770 C   0  0  0  0  0  0
    6.9182   38.9656   37.8030 C   0  0  0  0  0  0
    6.9155   39.9682   38.7777 C   0  0  0  0  0  0
    7.2340   41.2779   38.4367 C   0  0  0  0  0  0
    7.5310   41.6113   37.1166 C   0  0  0  0  0  0
    7.8717   42.9109   36.8398 O   0  0  0  0  0  0
    6.5964   37.5470   38.1910 C   0  0  0  0  0  0
    5.9341   37.2788   39.1894 O   0  0  0  0  0  0
    7.1302   36.5921   37.3810 O   0  0  0  0  0  0
    6.4501   43.1204   31.8541 C   0  0  1  0  0  0
    4.9948   42.6135   31.7403 C   0  0  0  0  0  0
    4.9194   41.2451   31.0813 C   0  0  0  0  0  0
    5.8115   40.6976   30.4379 O   0  0  0  0  0  0
    3.6929   40.6905   31.2973 O   0  0  0  0  0  0
    6.4236   44.5233   32.4632 C   0  0  0  0  0  0
    5.4447   45.0616   32.9794 O   0  0  0  0  0  0
    7.6542   45.1061   32.3844 O   0  0  0  0  0  0
   11.6751   39.5151   33.6050 H   0  0  0  0  0  0
   14.9058   37.0766   30.6016 H   0  0  0  0  0  0
   13.8869   37.8069   32.6993 H   0  0  0  0  0  0
   11.9045   39.1675   28.3049 H   0  0  0  0  0  0
   15.7781   36.9318   27.2438 H   0  0  0  0  0  0
   13.9402   37.2435   26.0739 H   0  0  0  0  0  0
   12.5797   38.0332   26.8447 H   0  0  0  0  0  0
    8.6939   41.8337   30.9934 H   0  0  0  0  0  0
    6.2849   42.3677   34.4897 H   0  0  0  0  0  0
    9.9875   38.6688   34.0251 H   0  0  0  0  0  0
    7.2221   38.5424   35.7127 H   0  0  0  0  0  0
    6.6982   39.7353   39.8119 H   0  0  0  0  0  0
    7.2681   42.0294   39.2129 H   0  0  0  0  0  0
    8.0430   43.4360   37.6267 H   0  0  0  0  0  0
    7.0146   35.7331   37.7959 H   0  0  0  0  0  0
    6.8392   43.2298   30.8362 H   0  0  0  0  0  0
    4.5513   42.5526   32.7385 H   0  0  0  0  0  0
    4.4077   43.3059   31.1292 H   0  0  0  0  0  0
    3.1142   41.2897   31.7721 H   0  0  0  0  0  0
    8.3110   44.5187   32.0075 H   0  0  0  0  0  0
  1  6  1  0  0  0
  1  2  2  0  0  0
  1 39  1  0  0  0
  2  3  1  0  0  0
  2 40  1  0  0  0
  3 12  1  0  0  0
  3  4  2  0  0  0
  4  5  1  0  0  0
  4 10  1  0  0  0
  5  6  2  0  0  0
  5 41  1  0  0  0
  6  7  1  0  0  0
  7  8  2  3  0  0
  7  9  1  0  0  0
  8 42  1  0  0  0
  9 43  1  0  0  0
  9 44  1  0  0  0
 10 11  2  0  0  0
 11 12  1  0  0  0
 11 13  1  0  0  0
 12 38  1  0  0  0
 13 18  1  0  0  0
 13 14  2  0  0  0
 14 15  1  0  0  0
 14 45  1  0  0  0
 15 16  2  0  0  0
 15 30  1  0  0  0
 16 17  1  0  0  0
 16 46  1  0  0  0
 17 18  2  0  0  0
 17 20  1  0  0  0
 18 19  1  0  0  0
 19 47  1  0  0  0
 20 25  1  0  0  0
 20 21  2  0  0  0
 21 22  1  0  0  0
 21 48  1  0  0  0
 22 23  2  0  0  0
 22 27  1  0  0  0
 23 24  1  0  0  0
 23 49  1  0  0  0
 24 25  2  0  0  0
 24 50  1  0  0  0
 25 26  1  0  0  0
 26 51  1  0  0  0
 27 28  2  0  0  0
 27 29  1  0  0  0
 29 52  1  0  0  0
 30 31  1  0  0  0
 30 35  1  0  0  0
 30 53  1  0  0  0
 31 32  1  0  0  0
 31 54  1  0  0  0
 31 55  1  0  0  0
 32 33  2  0  0  0
 32 34  1  0  0  0
 34 56  1  0  0  0
 35 36  2  0  0  0
 35 37  1  0  0  0
 37 57  1  0  0  0
M  END
> <s_m_entry_id>
21057

> <s_m_entry_name>
ligand_docking-pose.23

> <s_m_Source_Path>
/home/csk/Desktop/cluster/DUD-E-result/fa7

> <s_m_Source_File>
ligand_docking-pose.sdf

> <i_m_Source_File_Index>
23

> <i_lp_mmshare_version>
53161

> <i_f3d_flags>
0

> <r_lp_tautomer_probability>
0.999999999997365

> <s_lp_Force_Field>
OPLS_2005

> <r_lp_Energy>
27.149239

> <b_lp_Chiralities_Consistent>
1

> <s_lp_Variant>
343565-3

> <s_i_glide_gridfile>
glide-grid_1w7x

> <i_i_glide_lignum>
39

> <i_i_glide_rotatable_bonds>
13

> <r_i_docking_score>
-7.56033993626921

> <r_i_glide_ligand_efficiency>
-0.20433351179106

> <r_i_glide_ligand_efficiency_sa>
-0.680884592194186

> <r_i_glide_ligand_efficiency_ln>
-1.63966049266177

> <r_i_glide_gscore>
-7.56033993626921

> <r_i_glide_lipo>
-1.9769283771849

> <r_i_glide_hbond>
-0.590147406646658

> <r_i_glide_metal>
0

> <r_i_glide_rewards>
-0.595168011580564

> <r_i_glide_evdw>
-38.948127746582

> <r_i_glide_ecoul>
-19.3954372406006

> <r_i_glide_erotb>
0.562455672516707

> <r_i_glide_esite>
-0.103829839954609

> <r_i_glide_emodel>
-78.7708084941405

> <r_i_glide_energy>
-58.3435649871826

> <r_i_glide_einternal>
5.71680784225464

> <i_i_glide_confnum>
15

> <i_i_glide_posenum>
345

> <r_i_glide_eff_state_penalty>
0

> <s_user_duplicate_titles>
343565

> <s_m_subgroup_title>
dock_pv

> <s_m_subgroupid>
dock_pv1

> <b_m_subgroup_collapsed>
0

$$$$
326875
                    3D
 Schrodinger Suite 2021-1.
 67 70  0  0  1  0            999 V2000
    5.0541   41.7834   33.9800 C   0  0  0  0  0  0
    6.5035   41.5956   33.5053 C   0  0  2  0  0  0
    7.5512   42.1743   34.5073 C   0  0  0  0  0  0
    7.4283   41.7954   36.0058 C   0  0  0  0  0  0
    7.7354   40.3584   36.4326 C   0  0  0  0  0  0
    7.6292   40.0488   37.7937 C   0  0  0  0  0  0
    7.9232   38.7674   38.2527 C   0  0  0  0  0  0
    8.3169   37.7864   37.3469 C   0  0  0  0  0  0
    8.4273   38.0819   35.9909 C   0  0  0  0  0  0
    8.1498   39.3678   35.5332 C   0  0  0  0  0  0
    6.6411   42.1289   32.1465 N   0  0  0  0  0  0
    7.9129   42.1373   31.5505 C   0  0  0  0  0  0
    8.3759   41.0149   30.8541 C   0  0  0  0  0  0
    9.6677   41.0469   30.3220 C   0  0  0  0  0  0
   10.5071   42.1078   30.4760 N   0  0  0  0  0  0
   10.0449   43.1911   31.1475 C   0  0  0  0  0  0
    8.7399   43.2636   31.6582 C   0  0  0  0  0  0
    8.3017   44.3881   32.2766 F   0  0  0  0  0  0
   10.9562   44.2146   31.2891 O   0  0  0  0  0  0
   11.1687   44.7154   32.5569 C   0  0  0  0  0  0
   11.5196   43.8342   33.5893 C   0  0  0  0  0  0
   11.6399   44.2893   34.8973 C   0  0  0  0  0  0
   11.4317   45.6317   35.1896 C   0  0  0  0  0  0
   11.1313   46.5282   34.1652 C   0  0  0  0  0  0
   10.9984   46.0876   32.8364 C   0  0  0  0  0  0
   10.7124   47.0819   31.7376 C   0  0  0  0  0  0
   11.1251   46.9417   30.5891 O   0  0  0  0  0  0
    9.9576   48.1464   32.1310 O   0  0  0  0  0  0
   11.5281   46.0783   36.5034 N   0  0  0  0  0  0
   10.1656   39.9567   29.6486 O   0  0  0  0  0  0
   11.2983   39.3175   30.1028 C   0  0  0  0  0  0
   11.5989   39.1889   31.4605 C   0  0  0  0  0  0
   12.7307   38.4793   31.8517 C   0  0  0  0  0  0
   13.5978   37.9519   30.9052 C   0  0  0  0  0  0
   13.3617   38.1182   29.5308 C   0  0  0  0  0  0
   12.1712   38.7773   29.1619 C   0  0  0  0  0  0
   14.3705   37.6769   28.5344 C   0  0  0  0  0  0
   15.5151   37.2789   28.8956 N   0  0  0  0  0  0
   13.9261   37.6790   27.2386 N   0  0  0  0  0  0
    7.6000   39.9117   30.7114 F   0  0  0  0  0  0
    4.8657   41.2392   34.9038 H   0  0  0  0  0  0
    4.8223   42.8373   34.1385 H   0  0  0  0  0  0
    4.3445   41.3995   33.2460 H   0  0  0  0  0  0
    6.6683   40.5213   33.4240 H   0  0  0  0  0  0
    7.4893   43.2621   34.4547 H   0  0  0  0  0  0
    8.5623   41.9322   34.1769 H   0  0  0  0  0  0
    6.4392   42.0634   36.3732 H   0  0  0  0  0  0
    8.1191   42.4332   36.5609 H   0  0  0  0  0  0
    7.3353   40.8063   38.5061 H   0  0  0  0  0  0
    7.8494   38.5342   39.3053 H   0  0  0  0  0  0
    8.5420   36.7895   37.7011 H   0  0  0  0  0  0
    8.7312   37.3147   35.2965 H   0  0  0  0  0  0
    8.2738   39.5745   34.4825 H   0  0  0  0  0  0
    5.8823   41.8968   31.5218 H   0  0  0  0  0  0
   11.6778   42.7871   33.3752 H   0  0  0  0  0  0
   11.8998   43.6016   35.6851 H   0  0  0  0  0  0
   11.0145   47.5718   34.4239 H   0  0  0  0  0  0
    9.6880   48.0698   33.0479 H   0  0  0  0  0  0
   12.1576   46.8587   36.6785 H   0  0  0  0  0  0
   11.4558   45.3935   37.2414 H   0  0  0  0  0  0
   10.9492   39.6096   32.2132 H   0  0  0  0  0  0
   12.9778   38.3878   32.8927 H   0  0  0  0  0  0
   14.4806   37.4469   31.2689 H   0  0  0  0  0  0
   11.9320   38.9549   28.1249 H   0  0  0  0  0  0
   15.6662   37.3747   29.8859 H   0  0  0  0  0  0
   14.4858   37.2002   26.5391 H   0  0  0  0  0  0
   12.9777   37.9343   27.0026 H   0  0  0  0  0  0
  1  2  1  0  0  0
  1 41  1  0  0  0
  1 42  1  0  0  0
  1 43  1  0  0  0
  2  3  1  0  0  0
  2 11  1  0  0  0
  2 44  1  0  0  0
  3  4  1  0  0  0
  3 45  1  0  0  0
  3 46  1  0  0  0
  4  5  1  0  0  0
  4 47  1  0  0  0
  4 48  1  0  0  0
  5 10  1  0  0  0
  5  6  2  0  0  0
  6  7  1  0  0  0
  6 49  1  0  0  0
  7  8  2  0  0  0
  7 50  1  0  0  0
  8  9  1  0  0  0
  8 51  1  0  0  0
  9 10  2  0  0  0
  9 52  1  0  0  0
 10 53  1  0  0  0
 11 12  1  0  0  0
 11 54  1  0  0  0
 12 17  1  0  0  0
 12 13  2  0  0  0
 13 14  1  0  0  0
 13 40  1  0  0  0
 14 15  2  0  0  0
 14 30  1  0  0  0
 15 16  1  0  0  0
 16 17  2  0  0  0
 16 19  1  0  0  0
 17 18  1  0  0  0
 19 20  1  0  0  0
 20 25  1  0  0  0
 20 21  2  0  0  0
 21 22  1  0  0  0
 21 55  1  0  0  0
 22 23  2  0  0  0
 22 56  1  0  0  0
 23 24  1  0  0  0
 23 29  1  0  0  0
 24 25  2  0  0  0
 24 57  1  0  0  0
 25 26  1  0  0  0
 26 27  2  0  0  0
 26 28  1  0  0  0
 28 58  1  0  0  0
 29 59  1  0  0  0
 29 60  1  0  0  0
 30 31  1  0  0  0
 31 36  1  0  0  0
 31 32  2  0  0  0
 32 33  1  0  0  0
 32 61  1  0  0  0
 33 34  2  0  0  0
 33 62  1  0  0  0
 34 35  1  0  0  0
 34 63  1  0  0  0
 35 36  2  0  0  0
 35 37  1  0  0  0
 36 64  1  0  0  0
 37 38  2  3  0  0
 37 39  1  0  0  0
 38 65  1  0  0  0
 39 66  1  0  0  0
 39 67  1  0  0  0
M  END
> <s_m_entry_id>
21059

> <s_m_entry_name>
ligand_docking-pose.25

> <s_m_Source_Path>
/home/csk/Desktop/cluster/DUD-E-result/fa7

> <s_m_Source_File>
ligand_docking-pose.sdf

> <i_m_Source_File_Index>
25

> <i_lp_mmshare_version>
53161

> <i_f3d_flags>
0

> <r_lp_tautomer_probability>
1

> <s_lp_Force_Field>
OPLS_2005

> <r_lp_Energy>
36.96541

> <b_lp_Chiralities_Consistent>
1

> <s_lp_Variant>
326875-2

> <s_i_glide_gridfile>
glide-grid_1w7x

> <i_i_glide_lignum>
528

> <i_i_glide_rotatable_bonds>
12

> <r_i_docking_score>
-7.55366008184045

> <r_i_glide_ligand_efficiency>
-0.188841502046011

> <r_i_glide_ligand_efficiency_sa>
-0.645828851671826

> <r_i_glide_ligand_efficiency_ln>
-1.61097340116368

> <r_i_glide_gscore>
-7.55366008184045

> <r_i_glide_lipo>
-3.26184975389636

> <r_i_glide_hbond>
-0.403448615289958

> <r_i_glide_metal>
0

> <r_i_glide_rewards>
-0.454882207825348

> <r_i_glide_evdw>
-51.2758750915527

> <r_i_glide_ecoul>
-9.36785984039307

> <r_i_glide_erotb>
0.621881614419381

> <r_i_glide_esite>
-0.0863883886115646

> <r_i_glide_emodel>
-80.407187948703

> <r_i_glide_energy>
-60.6437349319458

> <r_i_glide_einternal>
11.1380748748779

> <i_i_glide_confnum>
20

> <i_i_glide_posenum>
88

> <r_i_glide_eff_state_penalty>
0

> <s_user_duplicate_titles>
326875

> <s_m_subgroup_title>
dock_pv

> <s_m_subgroupid>
dock_pv1

> <b_m_subgroup_collapsed>
0

$$$$
326873
                    3D
 Schrodinger Suite 2021-1.
 68 71  0  0  1  0            999 V2000
   10.7461   48.9521   32.1267 C   0  0  0  0  0  0
   10.8634   47.4645   32.4038 C   0  0  0  0  0  0
   11.1058   46.5730   31.3605 C   0  0  0  0  0  0
   11.2032   45.2098   31.6234 C   0  0  0  0  0  0
   11.0538   44.7187   32.9267 C   0  0  0  0  0  0
   10.8222   45.6093   33.9953 C   0  0  0  0  0  0
   10.7208   46.9778   33.7045 C   0  0  0  0  0  0
   10.6250   45.1224   35.4178 C   0  0  0  0  0  0
   10.3716   43.9539   35.6967 O   0  0  0  0  0  0
   10.7305   46.0794   36.3826 O   0  0  0  0  0  0
   11.1531   43.3629   33.1308 O   0  0  0  0  0  0
   10.2085   42.5597   32.5405 C   0  0  0  0  0  0
    8.8491   42.6219   32.8759 C   0  0  0  0  0  0
    7.9700   41.7126   32.2794 C   0  0  0  0  0  0
    8.4640   40.8081   31.3292 C   0  0  0  0  0  0
    9.8340   40.8081   31.0464 C   0  0  0  0  0  0
   10.7048   41.6595   31.6564 N   0  0  0  0  0  0
   10.3525   39.8927   30.1503 O   0  0  0  0  0  0
   11.5243   39.2004   30.3927 C   0  0  0  0  0  0
   11.9650   38.8793   31.6810 C   0  0  0  0  0  0
   13.1333   38.1486   31.8637 C   0  0  0  0  0  0
   13.8900   37.7627   30.7652 C   0  0  0  0  0  0
   13.4927   38.0782   29.4536 C   0  0  0  0  0  0
   12.2800   38.7791   29.2973 C   0  0  0  0  0  0
   14.3509   37.6790   28.3081 C   0  0  0  0  0  0
   15.5310   37.2789   28.4971 N   0  0  0  0  0  0
   13.7311   37.6790   27.0851 N   0  0  0  0  0  0
    7.6377   39.9272   30.7133 F   0  0  0  0  0  0
    6.6129   41.7005   32.6431 N   0  0  0  0  0  0
    6.2036   41.0948   33.9154 C   0  0  1  0  0  0
    4.6757   40.9307   33.9408 C   0  0  0  0  0  0
    6.9094   39.7474   34.2386 C   0  0  0  0  0  0
    8.1842   39.8442   35.1066 C   0  0  0  0  0  0
    7.9087   39.7129   36.5988 C   0  0  0  0  0  0
    8.0489   38.4682   37.2220 C   0  0  0  0  0  0
    7.8137   38.3425   38.5884 C   0  0  0  0  0  0
    7.4361   39.4617   39.3274 C   0  0  0  0  0  0
    7.2914   40.7041   38.7128 C   0  0  0  0  0  0
    7.5311   40.8318   37.3465 C   0  0  0  0  0  0
    8.3900   43.5270   33.7728 F   0  0  0  0  0  0
   10.1677   49.4591   32.9007 H   0  0  0  0  0  0
   11.7344   49.4090   32.0657 H   0  0  0  0  0  0
   10.2281   49.1262   31.1830 H   0  0  0  0  0  0
   11.2216   46.9324   30.3487 H   0  0  0  0  0  0
   11.3935   44.5235   30.8113 H   0  0  0  0  0  0
   10.5194   47.6791   34.4968 H   0  0  0  0  0  0
   10.5742   45.7010   37.2533 H   0  0  0  0  0  0
   11.4028   39.1886   32.5497 H   0  0  0  0  0  0
   13.4829   37.9181   32.8598 H   0  0  0  0  0  0
   14.8095   37.2247   30.9469 H   0  0  0  0  0  0
   11.9305   39.0610   28.3162 H   0  0  0  0  0  0
   15.9306   36.9448   27.6287 H   0  0  0  0  0  0
   14.1880   37.2193   26.2987 H   0  0  0  0  0  0
   12.7983   38.0476   26.9524 H   0  0  0  0  0  0
    5.9449   41.6435   31.8874 H   0  0  0  0  0  0
    6.4540   41.8161   34.6953 H   0  0  0  0  0  0
    4.3357   40.5379   34.8994 H   0  0  0  0  0  0
    4.1730   41.8858   33.7824 H   0  0  0  0  0  0
    4.3341   40.2471   33.1623 H   0  0  0  0  0  0
    7.1714   39.2789   33.2964 H   0  0  0  0  0  0
    6.2214   39.0399   34.7047 H   0  0  0  0  0  0
    8.7329   40.7660   34.9143 H   0  0  0  0  0  0
    8.8763   39.0510   34.8182 H   0  0  0  0  0  0
    8.3462   37.5980   36.6543 H   0  0  0  0  0  0
    7.9312   37.3828   39.0731 H   0  0  0  0  0  0
    7.2659   39.3653   40.3898 H   0  0  0  0  0  0
    7.0215   41.5687   39.3016 H   0  0  0  0  0  0
    7.4438   41.8003   36.8759 H   0  0  0  0  0  0
  1  2  1  0  0  0
  1 41  1  0  0  0
  1 42  1  0  0  0
  1 43  1  0  0  0
  2  7  1  0  0  0
  2  3  2  0  0  0
  3  4  1  0  0  0
  3 44  1  0  0  0
  4  5  2  0  0  0
  4 45  1  0  0  0
  5  6  1  0  0  0
  5 11  1  0  0  0
  6  7  2  0  0  0
  6  8  1  0  0  0
  7 46  1  0  0  0
  8  9  2  0  0  0
  8 10  1  0  0  0
 10 47  1  0  0  0
 11 12  1  0  0  0
 12 17  1  0  0  0
 12 13  2  0  0  0
 13 14  1  0  0  0
 13 40  1  0  0  0
 14 15  2  0  0  0
 14 29  1  0  0  0
 15 16  1  0  0  0
 15 28  1  0  0  0
 16 17  2  0  0  0
 16 18  1  0  0  0
 18 19  1  0  0  0
 19 24  1  0  0  0
 19 20  2  0  0  0
 20 21  1  0  0  0
 20 48  1  0  0  0
 21 22  2  0  0  0
 21 49  1  0  0  0
 22 23  1  0  0  0
 22 50  1  0  0  0
 23 24  2  0  0  0
 23 25  1  0  0  0
 24 51  1  0  0  0
 25 26  2  3  0  0
 25 27  1  0  0  0
 26 52  1  0  0  0
 27 53  1  0  0  0
 27 54  1  0  0  0
 29 30  1  0  0  0
 29 55  1  0  0  0
 30 31  1  0  0  0
 30 32  1  0  0  0
 30 56  1  0  0  0
 31 57  1  0  0  0
 31 58  1  0  0  0
 31 59  1  0  0  0
 32 33  1  0  0  0
 32 60  1  0  0  0
 32 61  1  0  0  0
 33 34  1  0  0  0
 33 62  1  0  0  0
 33 63  1  0  0  0
 34 39  1  0  0  0
 34 35  2  0  0  0
 35 36  1  0  0  0
 35 64  1  0  0  0
 36 37  2  0  0  0
 36 65  1  0  0  0
 37 38  1  0  0  0
 37 66  1  0  0  0
 38 39  2  0  0  0
 38 67  1  0  0  0
 39 68  1  0  0  0
M  END
> <s_m_entry_id>
21061

> <s_m_entry_name>
ligand_docking-pose.27

> <s_m_Source_Path>
/home/csk/Desktop/cluster/DUD-E-result/fa7

> <s_m_Source_File>
ligand_docking-pose.sdf

> <i_m_Source_File_Index>
27

> <i_lp_mmshare_version>
53161

> <i_f3d_flags>
0

> <r_lp_tautomer_probability>
1

> <s_lp_Force_Field>
OPLS_2005

> <r_lp_Energy>
32.664039

> <b_lp_Chiralities_Consistent>
1

> <s_lp_Variant>
326873-3

> <s_i_glide_gridfile>
glide-grid_1w7x

> <i_i_glide_lignum>
376

> <i_i_glide_rotatable_bonds>
12

> <r_i_docking_score>
-7.50833046113857

> <r_i_glide_ligand_efficiency>
-0.187708261528464

> <r_i_glide_ligand_efficiency_sa>
-0.641953223622983

> <r_i_glide_ligand_efficiency_ln>
-1.60130592705916

> <r_i_glide_gscore>
-7.50833046113857

> <r_i_glide_lipo>
-3.27212817747984

> <r_i_glide_hbond>
-0.456

> <r_i_glide_metal>
0

> <r_i_glide_rewards>
-0.499923843906365

> <r_i_glide_evdw>
-52.1897773742676

> <r_i_glide_ecoul>
-8.06201839447021

> <r_i_glide_erotb>
0.62395788831152

> <r_i_glide_esite>
-0.0854447001799711

> <r_i_glide_emodel>
-83.21027703068

> <r_i_glide_energy>
-60.2517957687378

> <r_i_glide_einternal>
9.49975776672363

> <i_i_glide_confnum>
49

> <i_i_glide_posenum>
290

> <r_i_glide_eff_state_penalty>
0

> <s_user_duplicate_titles>
326873

> <s_m_subgroup_title>
dock_pv

> <s_m_subgroupid>
dock_pv1

> <b_m_subgroup_collapsed>
0

$$$$
326902
                    3D
 Schrodinger Suite 2021-1.
 68 71  0  0  1  0            999 V2000
    3.5185   41.8238   26.4206 C   0  0  0  0  0  0
    4.4728   41.2514   27.4803 C   0  0  2  0  0  0
    3.8731   40.0051   28.2062 C   0  0  0  0  0  0
    4.0118   38.6613   27.4499 C   0  0  0  0  0  0
    5.2701   37.8486   27.7670 C   0  0  0  0  0  0
    5.1550   36.4894   28.0908 C   0  0  0  0  0  0
    6.2982   35.7048   28.2326 C   0  0  0  0  0  0
    7.5575   36.2859   28.0971 C   0  0  0  0  0  0
    7.6838   37.6507   27.8629 C   0  0  0  0  0  0
    6.5415   38.4231   27.6782 C   0  0  0  0  0  0
    4.9104   42.3151   28.3900 N   0  0  0  0  0  0
    5.8472   41.9277   29.3618 C   0  0  0  0  0  0
    7.1570   41.6084   28.9917 C   0  0  0  0  0  0
    8.0014   41.0270   29.9363 C   0  0  0  0  0  0
    7.6027   40.7939   31.2253 N   0  0  0  0  0  0
    6.3576   41.2116   31.6056 C   0  0  0  0  0  0
    5.4560   41.7697   30.6962 C   0  0  0  0  0  0
    4.2040   42.1033   31.0973 F   0  0  0  0  0  0
    5.9126   41.0401   32.9096 O   0  0  0  0  0  0
    6.5226   40.2582   33.8731 C   0  0  0  0  0  0
    7.8786   40.4032   34.1716 C   0  0  0  0  0  0
    8.4797   39.6215   35.1506 C   0  0  0  0  0  0
    7.7339   38.7006   35.8914 C   0  0  0  0  0  0
    6.3630   38.6003   35.6414 C   0  0  0  0  0  0
    5.7444   39.3841   34.6558 C   0  0  0  0  0  0
    4.2616   39.2569   34.4526 C   0  0  0  0  0  0
    3.7320   39.2777   33.3472 O   0  0  0  0  0  0
    3.5559   39.1025   35.6034 O   0  0  0  0  0  0
    8.4018   37.8673   36.9562 C   0  0  0  0  0  0
    9.5591   38.0752   37.2958 O   0  0  0  0  0  0
    7.6361   36.8807   37.5033 O   0  0  0  0  0  0
    9.2508   40.6321   29.4813 O   0  0  0  0  0  0
   10.2725   40.0881   30.2348 C   0  0  0  0  0  0
   10.5085   40.3960   31.5756 C   0  0  0  0  0  0
   11.5322   39.7645   32.2637 C   0  0  0  0  0  0
   12.3611   38.8700   31.5967 C   0  0  0  0  0  0
   12.2333   38.6091   30.2183 C   0  0  0  0  0  0
   11.1463   39.2219   29.5700 C   0  0  0  0  0  0
   13.2389   37.7522   29.5110 C   0  0  0  0  0  0
   14.1515   37.1660   30.1470 N   0  0  0  0  0  0
   13.1193   37.6810   28.1445 N   0  0  0  0  0  0
    7.5905   41.8023   27.7189 F   0  0  0  0  0  0
    3.1310   41.0494   25.7591 H   0  0  0  0  0  0
    2.6712   42.3224   26.8889 H   0  0  0  0  0  0
    4.0212   42.5604   25.7932 H   0  0  0  0  0  0
    5.3564   40.9356   26.9265 H   0  0  0  0  0  0
    2.8174   40.2052   28.3912 H   0  0  0  0  0  0
    4.2867   39.8665   29.2030 H   0  0  0  0  0  0
    3.9663   38.8198   26.3710 H   0  0  0  0  0  0
    3.1374   38.0501   27.6865 H   0  0  0  0  0  0
    4.1857   36.0202   28.1554 H   0  0  0  0  0  0
    6.2131   34.6437   28.4229 H   0  0  0  0  0  0
    8.4417   35.6740   28.1863 H   0  0  0  0  0  0
    8.6632   38.0959   27.7614 H   0  0  0  0  0  0
    6.6708   39.4561   27.4225 H   0  0  0  0  0  0
    5.1249   43.1866   27.9240 H   0  0  0  0  0  0
    8.4698   41.1372   33.6507 H   0  0  0  0  0  0
    9.5352   39.7453   35.3315 H   0  0  0  0  0  0
    5.7673   37.9106   36.2250 H   0  0  0  0  0  0
    2.6328   38.9583   35.3947 H   0  0  0  0  0  0
    8.1345   36.3697   38.1492 H   0  0  0  0  0  0
    9.9153   41.1344   32.0846 H   0  0  0  0  0  0
   11.7151   39.9896   33.3029 H   0  0  0  0  0  0
   13.1683   38.4253   32.1662 H   0  0  0  0  0  0
   10.9663   39.0464   28.5215 H   0  0  0  0  0  0
   14.7460   36.6646   29.5020 H   0  0  0  0  0  0
   13.7495   37.0889   27.6164 H   0  0  0  0  0  0
   12.3715   38.1414   27.6388 H   0  0  0  0  0  0
  1  2  1  0  0  0
  1 43  1  0  0  0
  1 44  1  0  0  0
  1 45  1  0  0  0
  2  3  1  0  0  0
  2 11  1  0  0  0
  2 46  1  0  0  0
  3  4  1  0  0  0
  3 47  1  0  0  0
  3 48  1  0  0  0
  4  5  1  0  0  0
  4 49  1  0  0  0
  4 50  1  0  0  0
  5 10  1  0  0  0
  5  6  2  0  0  0
  6  7  1  0  0  0
  6 51  1  0  0  0
  7  8  2  0  0  0
  7 52  1  0  0  0
  8  9  1  0  0  0
  8 53  1  0  0  0
  9 10  2  0  0  0
  9 54  1  0  0  0
 10 55  1  0  0  0
 11 12  1  0  0  0
 11 56  1  0  0  0
 12 17  1  0  0  0
 12 13  2  0  0  0
 13 14  1  0  0  0
 13 42  1  0  0  0
 14 15  2  0  0  0
 14 32  1  0  0  0
 15 16  1  0  0  0
 16 17  2  0  0  0
 16 19  1  0  0  0
 17 18  1  0  0  0
 19 20  1  0  0  0
 20 25  1  0  0  0
 20 21  2  0  0  0
 21 22  1  0  0  0
 21 57  1  0  0  0
 22 23  2  0  0  0
 22 58  1  0  0  0
 23 24  1  0  0  0
 23 29  1  0  0  0
 24 25  2  0  0  0
 24 59  1  0  0  0
 25 26  1  0  0  0
 26 27  2  0  0  0
 26 28  1  0  0  0
 28 60  1  0  0  0
 29 30  2  0  0  0
 29 31  1  0  0  0
 31 61  1  0  0  0
 32 33  1  0  0  0
 33 38  1  0  0  0
 33 34  2  0  0  0
 34 35  1  0  0  0
 34 62  1  0  0  0
 35 36  2  0  0  0
 35 63  1  0  0  0
 36 37  1  0  0  0
 36 64  1  0  0  0
 37 38  2  0  0  0
 37 39  1  0  0  0
 38 65  1  0  0  0
 39 40  2  3  0  0
 39 41  1  0  0  0
 40 66  1  0  0  0
 41 67  1  0  0  0
 41 68  1  0  0  0
M  END
> <s_m_entry_id>
21062

> <s_m_entry_name>
ligand_docking-pose.28

> <s_m_Source_Path>
/home/csk/Desktop/cluster/DUD-E-result/fa7

> <s_m_Source_File>
ligand_docking-pose.sdf

> <i_m_Source_File_Index>
28

> <i_lp_mmshare_version>
53161

> <i_f3d_flags>
0

> <r_lp_tautomer_probability>
1

> <s_lp_Force_Field>
OPLS_2005

> <r_lp_Energy>
31.341299

> <b_lp_Chiralities_Consistent>
1

> <s_lp_Variant>
326902-1

> <s_i_glide_gridfile>
glide-grid_1w7x

> <i_i_glide_lignum>
515

> <i_i_glide_rotatable_bonds>
14

> <r_i_docking_score>
-7.48964217994435

> <r_i_glide_ligand_efficiency>
-0.178324813808199

> <r_i_glide_ligand_efficiency_sa>
-0.619861803469434

> <r_i_glide_ligand_efficiency_ln>
-1.58087050879207

> <r_i_glide_gscore>
-7.48964217994435

> <r_i_glide_lipo>
-1.24089998974946

> <r_i_glide_hbond>
-0.499578858818099

> <r_i_glide_metal>
0

> <r_i_glide_rewards>
-0.553676161913839

> <r_i_glide_evdw>
-49.7443161010742

> <r_i_glide_ecoul>
-21.4324321746826

> <r_i_glide_erotb>
0.53194597251845

> <r_i_glide_esite>
-0.0253525107252962

> <r_i_glide_emodel>
-93.1223605082915

> <r_i_glide_energy>
-71.1767482757568

> <r_i_glide_einternal>
13.4136819839478

> <i_i_glide_confnum>
19

> <i_i_glide_posenum>
218

> <r_i_glide_eff_state_penalty>
0

> <s_user_duplicate_titles>
326902

> <s_m_subgroup_title>
dock_pv

> <s_m_subgroupid>
dock_pv1

> <b_m_subgroup_collapsed>
0

$$$$
215911
                    3D
 Schrodinger Suite 2021-1.
 69 72  0  0  1  0            999 V2000
   13.6524   43.4261   34.9689 C   0  0  0  0  0  0
   12.7297   44.5041   35.2967 N   0  0  0  0  0  0
   11.6707   44.8399   34.4403 C   0  0  0  0  0  0
   11.0488   46.0737   34.6392 C   0  0  0  0  0  0
    9.9917   46.4714   33.8235 C   0  0  0  0  0  0
    9.5381   45.6263   32.8109 C   0  0  0  0  0  0
   10.1413   44.3821   32.5983 C   0  0  0  0  0  0
   11.2146   44.0000   33.4133 C   0  0  0  0  0  0
    9.5997   43.4713   31.5602 C   0  0  0  0  0  0
    9.9523   43.5842   30.2460 C   0  0  0  0  0  0
    9.3751   42.8109   29.2746 N   0  0  0  0  0  0
    8.4093   42.0289   29.6059 C   0  0  0  0  0  0
    7.9124   41.8210   31.0086 C   0  0  0  0  0  0
    6.9969   41.0440   31.3119 O   0  0  0  0  0  0
    8.6362   42.5376   31.9554 N   0  0  0  0  0  0
    8.4488   42.1016   33.3667 C   0  0  0  0  0  0
    9.3297   40.8731   33.6955 C   0  0  0  0  0  0
    9.0750   40.2171   34.7037 O   0  0  0  0  0  0
   10.3464   40.5631   32.8678 N   0  0  0  0  0  0
   11.2452   39.4303   33.0317 C   0  0  0  0  0  0
   11.9348   38.9273   31.7657 C   0  0  0  0  0  0
   13.1306   38.2194   31.9096 C   0  0  0  0  0  0
   13.8339   37.8006   30.7922 C   0  0  0  0  0  0
   13.3722   38.0789   29.4952 C   0  0  0  0  0  0
   12.1490   38.7651   29.3694 C   0  0  0  0  0  0
   11.4424   39.1948   30.4878 C   0  0  0  0  0  0
   14.1918   37.6790   28.3217 C   0  0  0  0  0  0
   15.3807   37.2792   28.4754 N   0  0  0  0  0  0
   13.5312   37.6790   27.1182 N   0  0  0  0  0  0
    7.8825   41.2875   28.5575 N   0  0  0  0  0  0
    6.4506   41.0785   28.3339 C   0  0  0  0  0  0
    6.1407   40.0517   27.2310 C   0  0  0  0  0  0
    6.3409   38.5940   27.6405 C   0  0  0  0  0  0
    5.2316   37.7535   27.7921 C   0  0  0  0  0  0
    5.4128   36.4048   28.0968 C   0  0  0  0  0  0
    6.7045   35.8955   28.2259 C   0  0  0  0  0  0
    7.8137   36.7295   28.0969 C   0  0  0  0  0  0
    7.6294   38.0803   27.8124 C   0  0  0  0  0  0
   11.1670   44.7338   29.6658 Cl  0  0  0  0  0  0
   14.3311   43.2791   35.8048 H   0  0  0  0  0  0
   13.1385   42.4801   34.7948 H   0  0  0  0  0  0
   14.2542   43.6766   34.0970 H   0  0  0  0  0  0
   13.0684   45.2258   35.9222 H   0  0  0  0  0  0
   11.3854   46.7348   35.4259 H   0  0  0  0  0  0
    9.5210   47.4307   33.9845 H   0  0  0  0  0  0
    8.7056   45.9372   32.1958 H   0  0  0  0  0  0
   11.6787   43.0396   33.2499 H   0  0  0  0  0  0
    7.4091   41.8198   33.5378 H   0  0  0  0  0  0
    8.6582   42.9031   34.0737 H   0  0  0  0  0  0
   10.6000   41.2308   32.1553 H   0  0  0  0  0  0
   10.7312   38.6101   33.5383 H   0  0  0  0  0  0
   12.0364   39.7640   33.6984 H   0  0  0  0  0  0
   13.5320   38.0216   32.8948 H   0  0  0  0  0  0
   14.7675   37.2781   30.9473 H   0  0  0  0  0  0
   11.7485   39.0268   28.4034 H   0  0  0  0  0  0
   10.5219   39.7429   30.3484 H   0  0  0  0  0  0
   15.7630   36.9418   27.6005 H   0  0  0  0  0  0
   13.9829   37.2470   26.3155 H   0  0  0  0  0  0
   12.5937   38.0528   26.9996 H   0  0  0  0  0  0
    8.3932   41.4173   27.6965 H   0  0  0  0  0  0
    5.8961   40.8141   29.2335 H   0  0  0  0  0  0
    6.0520   42.0462   28.0238 H   0  0  0  0  0  0
    5.1074   40.1880   26.9112 H   0  0  0  0  0  0
    6.7305   40.2612   26.3396 H   0  0  0  0  0  0
    4.2329   38.1370   27.6458 H   0  0  0  0  0  0
    4.5619   35.7465   28.1855 H   0  0  0  0  0  0
    6.8509   34.8428   28.4227 H   0  0  0  0  0  0
    8.8119   36.3282   28.1870 H   0  0  0  0  0  0
    8.4933   38.7188   27.6968 H   0  0  0  0  0  0
  1  2  1  0  0  0
  1 40  1  0  0  0
  1 41  1  0  0  0
  1 42  1  0  0  0
  2  3  1  0  0  0
  2 43  1  0  0  0
  3  8  1  0  0  0
  3  4  2  0  0  0
  4  5  1  0  0  0
  4 44  1  0  0  0
  5  6  2  0  0  0
  5 45  1  0  0  0
  6  7  1  0  0  0
  6 46  1  0  0  0
  7  8  2  0  0  0
  7  9  1  0  0  0
  8 47  1  0  0  0
  9 15  1  0  0  0
  9 10  2  0  0  0
 10 11  1  0  0  0
 10 39  1  0  0  0
 11 12  2  0  0  0
 12 13  1  0  0  0
 12 30  1  0  0  0
 13 14  2  0  0  0
 13 15  1  0  0  0
 15 16  1  0  0  0
 16 17  1  0  0  0
 16 48  1  0  0  0
 16 49  1  0  0  0
 17 18  2  0  0  0
 17 19  1  0  0  0
 19 20  1  0  0  0
 19 50  1  0  0  0
 20 21  1  0  0  0
 20 51  1  0  0  0
 20 52  1  0  0  0
 21 26  1  0  0  0
 21 22  2  0  0  0
 22 23  1  0  0  0
 22 53  1  0  0  0
 23 24  2  0  0  0
 23 54  1  0  0  0
 24 25  1  0  0  0
 24 27  1  0  0  0
 25 26  2  0  0  0
 25 55  1  0  0  0
 26 56  1  0  0  0
 27 28  2  3  0  0
 27 29  1  0  0  0
 28 57  1  0  0  0
 29 58  1  0  0  0
 29 59  1  0  0  0
 30 31  1  0  0  0
 30 60  1  0  0  0
 31 32  1  0  0  0
 31 61  1  0  0  0
 31 62  1  0  0  0
 32 33  1  0  0  0
 32 63  1  0  0  0
 32 64  1  0  0  0
 33 38  1  0  0  0
 33 34  2  0  0  0
 34 35  1  0  0  0
 34 65  1  0  0  0
 35 36  2  0  0  0
 35 66  1  0  0  0
 36 37  1  0  0  0
 36 67  1  0  0  0
 37 38  2  0  0  0
 37 68  1  0  0  0
 38 69  1  0  0  0
M  END
> <s_m_entry_id>
21066

> <s_m_entry_name>
ligand_docking-pose.32

> <s_m_Source_Path>
/home/csk/Desktop/cluster/DUD-E-result/fa7

> <s_m_Source_File>
ligand_docking-pose.sdf

> <i_m_Source_File_Index>
32

> <i_lp_mmshare_version>
53161

> <i_f3d_flags>
0

> <r_lp_tautomer_probability>
1

> <s_lp_Force_Field>
OPLS_2005

> <r_lp_Energy>
30.943817

> <b_lp_Chiralities_Consistent>
1

> <s_lp_Variant>
215911-1

> <s_i_glide_gridfile>
glide-grid_1w7x

> <i_i_glide_lignum>
769

> <i_i_glide_rotatable_bonds>
12

> <r_i_docking_score>
-7.39973223333646

> <r_i_glide_ligand_efficiency>
-0.189736723931704

> <r_i_glide_ligand_efficiency_sa>
-0.643437348571457

> <r_i_glide_ligand_efficiency_ln>
-1.58671264471814

> <r_i_glide_gscore>
-7.39973223333646

> <r_i_glide_lipo>
-2.97733768877369

> <r_i_glide_hbond>
-0.454257091669593

> <r_i_glide_metal>
0

> <r_i_glide_rewards>
-0.46066664896025

> <r_i_glide_evdw>
-52.7419509887695

> <r_i_glide_ecoul>
-9.60373687744141

> <r_i_glide_erotb>
0.629295693339509

> <r_i_glide_esite>
-0.0591084162177528

> <r_i_glide_emodel>
-78.4330164412026

> <r_i_glide_energy>
-62.3456878662109

> <r_i_glide_einternal>
22.708423614502

> <i_i_glide_confnum>
10

> <i_i_glide_posenum>
182

> <r_i_glide_eff_state_penalty>
0

> <s_user_duplicate_titles>
215911

> <s_m_subgroup_title>
dock_pv

> <s_m_subgroupid>
dock_pv1

> <b_m_subgroup_collapsed>
0

$$$$
332955
                    3D
 Schrodinger Suite 2021-1.
 49 51  0  0  1  0            999 V2000
   13.6042   44.3268   35.3904 C   0  0  0  0  0  0
   12.7991   44.0681   34.5106 C   0  0  0  0  0  0
   11.8915   43.6169   33.4696 C   0  0  0  0  0  0
   11.4135   42.3137   33.5271 C   0  0  0  0  0  0
   10.5748   41.8087   32.5299 C   0  0  0  0  0  0
   10.2448   42.6326   31.4478 C   0  0  0  0  0  0
   10.7372   43.9375   31.3552 C   0  0  0  0  0  0
   11.5402   44.4356   32.3948 C   0  0  0  0  0  0
   10.4185   44.6386   30.2078 O   0  0  0  0  0  0
   11.0443   45.8962   29.9339 C   0  0  1  0  0  0
   10.8253   46.2346   28.4663 C   0  0  0  0  0  0
    9.8430   47.4076   28.4615 C   0  0  0  0  0  0
    9.3277   47.4772   29.7848 O   0  0  0  0  0  0
   10.3393   47.0352   30.6799 C   0  0  0  0  0  0
   10.0700   40.3860   32.6025 C   0  0  2  0  0  0
    9.2301   40.1259   33.8834 C   0  0  0  0  0  0
    9.5310   39.2957   34.7452 O   0  0  0  0  0  0
    8.1332   40.9375   33.9282 O   0  0  0  0  0  0
   11.1542   39.4243   32.5521 N   0  0  0  0  0  0
   11.8995   38.9823   31.4547 C   0  0  0  0  0  0
   13.0000   38.1669   31.6970 C   0  0  0  0  0  0
   13.7680   37.7042   30.6430 C   0  0  0  0  0  0
   13.4765   38.0790   29.3213 C   0  0  0  0  0  0
   12.3310   38.8663   29.0937 C   0  0  0  0  0  0
   11.5465   39.3135   30.1488 C   0  0  0  0  0  0
   14.3980   37.6790   28.2321 C   0  0  0  0  0  0
   15.5792   37.3244   28.4970 N   0  0  0  0  0  0
   13.8369   37.6790   26.9822 N   0  0  0  0  0  0
   12.1139   45.8603   30.1523 H   0  0  0  0  0  0
   14.3310   44.4802   36.1564 H   0  0  0  0  0  0
   11.7123   41.6789   34.3468 H   0  0  0  0  0  0
    9.6279   42.2533   30.6462 H   0  0  0  0  0  0
   11.9310   45.4406   32.3589 H   0  0  0  0  0  0
   11.7567   46.4790   27.9561 H   0  0  0  0  0  0
   10.3682   45.3954   27.9387 H   0  0  0  0  0  0
   10.3310   48.3530   28.2190 H   0  0  0  0  0  0
    9.0317   47.2809   27.7434 H   0  0  0  0  0  0
    9.8910   46.7239   31.6238 H   0  0  0  0  0  0
   11.0075   47.8628   30.9238 H   0  0  0  0  0  0
    9.4090   40.1976   31.7554 H   0  0  0  0  0  0
    8.1074   41.5571   33.1963 H   0  0  0  0  0  0
   11.4535   39.0553   33.4457 H   0  0  0  0  0  0
   13.2805   37.9019   32.7050 H   0  0  0  0  0  0
   14.6172   37.0802   30.8807 H   0  0  0  0  0  0
   12.0673   39.1958   28.0991 H   0  0  0  0  0  0
   10.6931   39.9390   29.9387 H   0  0  0  0  0  0
   15.8035   37.4258   29.4728 H   0  0  0  0  0  0
   14.3310   37.1938   26.2332 H   0  0  0  0  0  0
   12.8702   37.9367   26.8392 H   0  0  0  0  0  0
  1  2  3  0  0  0
  1 30  1  0  0  0
  2  3  1  0  0  0
  3  8  1  0  0  0
  3  4  2  0  0  0
  4  5  1  0  0  0
  4 31  1  0  0  0
  5  6  2  0  0  0
  5 15  1  0  0  0
  6  7  1  0  0  0
  6 32  1  0  0  0
  7  8  2  0  0  0
  7  9  1  0  0  0
  8 33  1  0  0  0
  9 10  1  0  0  0
 10 29  1  0  0  0
 10 14  1  0  0  0
 10 11  1  0  0  0
 11 12  1  0  0  0
 11 34  1  0  0  0
 11 35  1  0  0  0
 12 13  1  0  0  0
 12 36  1  0  0  0
 12 37  1  0  0  0
 13 14  1  0  0  0
 14 38  1  0  0  0
 14 39  1  0  0  0
 15 16  1  0  0  0
 15 19  1  0  0  0
 15 40  1  0  0  0
 16 17  2  0  0  0
 16 18  1  0  0  0
 18 41  1  0  0  0
 19 20  1  0  0  0
 19 42  1  0  0  0
 20 25  1  0  0  0
 20 21  2  0  0  0
 21 22  1  0  0  0
 21 43  1  0  0  0
 22 23  2  0  0  0
 22 44  1  0  0  0
 23 24  1  0  0  0
 23 26  1  0  0  0
 24 25  2  0  0  0
 24 45  1  0  0  0
 25 46  1  0  0  0
 26 27  2  3  0  0
 26 28  1  0  0  0
 27 47  1  0  0  0
 28 48  1  0  0  0
 28 49  1  0  0  0
M  END
> <s_m_entry_id>
21068

> <s_m_entry_name>
ligand_docking-pose.34

> <s_m_Source_Path>
/home/csk/Desktop/cluster/DUD-E-result/fa7

> <s_m_Source_File>
ligand_docking-pose.sdf

> <i_m_Source_File_Index>
34

> <i_lp_mmshare_version>
53161

> <i_f3d_flags>
0

> <r_lp_tautomer_probability>
1

> <s_lp_Force_Field>
OPLS_2005

> <r_lp_Energy>
24.404185

> <b_lp_Chiralities_Consistent>
1

> <s_lp_Variant>
332955-2

> <s_i_glide_gridfile>
glide-grid_1w7x

> <i_i_glide_lignum>
497

> <i_i_glide_rotatable_bonds>
9

> <r_i_docking_score>
-7.36676906014595

> <r_i_glide_ligand_efficiency>
-0.263098895005212

> <r_i_glide_ligand_efficiency_sa>
-0.798923202198109

> <r_i_glide_ligand_efficiency_ln>
-1.70046659682001

> <r_i_glide_gscore>
-7.36676906014595

> <r_i_glide_lipo>
-3.33036154743689

> <r_i_glide_hbond>
-0.668204049492341

> <r_i_glide_metal>
0

> <r_i_glide_rewards>
-1.34397026775304

> <r_i_glide_evdw>
-38.330940246582

> <r_i_glide_ecoul>
-6.47821378707886

> <r_i_glide_erotb>
0.942866109861336

> <r_i_glide_esite>
-0.0788202249340749

> <r_i_glide_emodel>
-63.5265618217742

> <r_i_glide_energy>
-44.8091540336609

> <r_i_glide_einternal>
3.08619475364685

> <i_i_glide_confnum>
221

> <i_i_glide_posenum>
163

> <r_i_glide_eff_state_penalty>
0

> <s_user_duplicate_titles>
332955

> <s_m_subgroup_title>
dock_pv

> <s_m_subgroupid>
dock_pv1

> <b_m_subgroup_collapsed>
0

$$$$
114922
                    3D
 Schrodinger Suite 2021-1.
 53 57  0  0  1  0            999 V2000
    8.0501   44.0982   37.0537 C   0  0  0  0  0  0
    7.9231   43.8310   35.6942 C   0  0  0  0  0  0
    7.6890   42.5257   35.2575 C   0  0  0  0  0  0
    7.5309   41.5011   36.1969 C   0  0  0  0  0  0
    7.6467   41.7551   37.5670 C   0  0  0  0  0  0
    7.9310   43.0632   37.9776 C   0  0  0  0  0  0
    7.5070   40.6537   38.5720 C   0  0  0  0  0  0
    7.1310   40.8720   39.8236 N   0  0  0  0  0  0
    7.1310   39.6381   40.4351 N   0  0  0  0  0  0
    7.5188   38.8025   39.4721 N   0  0  3  0  0  0
    7.7544   39.3894   38.2943 N   0  0  0  0  0  0
    7.7450   42.1920   33.8192 C   0  0  0  0  0  0
    6.6680   42.4727   32.9755 C   0  0  0  0  0  0
    6.7219   42.1362   31.6209 C   0  0  0  0  0  0
    7.8432   41.4659   31.1247 C   0  0  0  0  0  0
    8.9381   41.1812   31.9499 C   0  0  0  0  0  0
    8.8968   41.5931   33.2903 C   0  0  0  0  0  0
    9.9994   41.4432   34.0968 O   0  0  0  0  0  0
   10.0912   40.4218   31.3723 C   0  0  0  0  0  0
   10.4717   40.2601   30.0545 C   0  0  0  0  0  0
   11.5922   39.3773   30.0202 C   0  0  0  0  0  0
   12.3924   38.8790   28.9982 C   0  0  0  0  0  0
   13.5112   38.0790   29.2842 C   0  0  0  0  0  0
   13.7477   37.7211   30.6227 C   0  0  0  0  0  0
   12.9686   38.1860   31.6802 C   0  0  0  0  0  0
   11.9018   39.0281   31.3544 C   0  0  0  0  0  0
   10.9702   39.6775   32.1334 N   0  0  0  0  0  0
   14.4607   37.6789   28.2157 C   0  0  0  0  0  0
   15.6208   37.2790   28.4970 N   0  0  0  0  0  0
   13.9308   37.6790   26.9503 N   0  0  0  0  0  0
    5.5663   42.4907   30.6887 C   0  0  0  0  0  0
    4.5206   41.3793   30.5416 C   0  0  0  0  0  0
    4.3341   40.4790   31.3575 O   0  0  0  0  0  0
    3.7766   41.5579   29.4172 O   0  0  0  0  0  0
    7.6270   37.8080   39.6204 H   0  0  0  0  0  0
   10.8809   39.6082   33.1360 H   0  0  0  0  0  0
    8.2785   45.0984   37.3953 H   0  0  0  0  0  0
    8.0666   44.6280   34.9786 H   0  0  0  0  0  0
    7.3634   40.4906   35.8518 H   0  0  0  0  0  0
    8.0776   43.2789   39.0230 H   0  0  0  0  0  0
    5.7908   42.9629   33.3725 H   0  0  0  0  0  0
    7.8604   41.1719   30.0852 H   0  0  0  0  0  0
   10.8167   41.4763   33.5927 H   0  0  0  0  0  0
    9.9963   40.7213   29.2011 H   0  0  0  0  0  0
   12.2098   39.2351   28.0013 H   0  0  0  0  0  0
   14.5971   37.0981   30.8672 H   0  0  0  0  0  0
   13.2124   37.9327   32.7006 H   0  0  0  0  0  0
   16.0831   36.9425   27.6619 H   0  0  0  0  0  0
   14.4073   37.1644   26.2088 H   0  0  0  0  0  0
   12.9599   37.9198   26.8067 H   0  0  0  0  0  0
    5.0574   43.3806   31.0604 H   0  0  0  0  0  0
    5.9578   42.7519   29.7042 H   0  0  0  0  0  0
    3.0969   40.8871   29.3447 H   0  0  0  0  0  0
  1  6  1  0  0  0
  1  2  2  0  0  0
  1 37  1  0  0  0
  2  3  1  0  0  0
  2 38  1  0  0  0
  3  4  2  0  0  0
  3 12  1  0  0  0
  4  5  1  0  0  0
  4 39  1  0  0  0
  5  6  2  0  0  0
  5  7  1  0  0  0
  6 40  1  0  0  0
  7  8  1  0  0  0
  7 11  2  0  0  0
  8  9  2  0  0  0
  9 10  1  0  0  0
 10 35  1  0  0  0
 10 11  1  0  0  0
 12 17  1  0  0  0
 12 13  2  0  0  0
 13 14  1  0  0  0
 13 41  1  0  0  0
 14 15  2  0  0  0
 14 31  1  0  0  0
 15 16  1  0  0  0
 15 42  1  0  0  0
 16 17  2  0  0  0
 16 19  1  0  0  0
 17 18  1  0  0  0
 18 43  1  0  0  0
 19 27  1  0  0  0
 19 20  2  0  0  0
 20 21  1  0  0  0
 20 44  1  0  0  0
 21 26  2  0  0  0
 21 22  1  0  0  0
 22 23  2  0  0  0
 22 45  1  0  0  0
 23 24  1  0  0  0
 23 28  1  0  0  0
 24 25  2  0  0  0
 24 46  1  0  0  0
 25 26  1  0  0  0
 25 47  1  0  0  0
 26 27  1  0  0  0
 27 36  1  0  0  0
 28 29  2  3  0  0
 28 30  1  0  0  0
 29 48  1  0  0  0
 30 49  1  0  0  0
 30 50  1  0  0  0
 31 32  1  0  0  0
 31 51  1  0  0  0
 31 52  1  0  0  0
 32 33  2  0  0  0
 32 34  1  0  0  0
 34 53  1  0  0  0
M  END
> <s_m_entry_id>
21069

> <s_m_entry_name>
ligand_docking-pose.35

> <s_m_Source_Path>
/home/csk/Desktop/cluster/DUD-E-result/fa7

> <s_m_Source_File>
ligand_docking-pose.sdf

> <i_m_Source_File_Index>
35

> <i_lp_mmshare_version>
53161

> <i_f3d_flags>
0

> <r_lp_tautomer_probability>
0.199999999999473

> <s_lp_Force_Field>
OPLS_2005

> <r_lp_Energy>
20.729978

> <b_lp_Chiralities_Consistent>
1

> <s_lp_Variant>
114922-3

> <s_i_glide_gridfile>
glide-grid_1w7x

> <i_i_glide_lignum>
178

> <i_i_glide_rotatable_bonds>
8

> <r_i_docking_score>
-7.3355205853328

> <r_i_glide_ligand_efficiency>
-0.215750605450965

> <r_i_glide_ligand_efficiency_sa>
-0.698948206730127

> <r_i_glide_ligand_efficiency_ln>
-1.62062225168307

> <r_i_glide_gscore>
-7.3355205853328

> <r_i_glide_lipo>
-1.91574782832003

> <r_i_glide_hbond>
-0.456

> <r_i_glide_metal>
0

> <r_i_glide_rewards>
-0.674679804495236

> <r_i_glide_evdw>
-41.0530128479004

> <r_i_glide_ecoul>
-17.2600955963135

> <r_i_glide_erotb>
0.488116492100122

> <r_i_glide_esite>
-0.135544462775615

> <r_i_glide_emodel>
-78.1882281882556

> <r_i_glide_energy>
-58.3131084442139

> <r_i_glide_einternal>
6.0868067741394

> <i_i_glide_confnum>
1

> <i_i_glide_posenum>
9

> <r_i_glide_eff_state_penalty>
0

> <s_user_duplicate_titles>
114922

> <s_m_subgroup_title>
dock_pv

> <s_m_subgroupid>
dock_pv1

> <b_m_subgroup_collapsed>
0

$$$$
347745
                    3D
 Schrodinger Suite 2021-1.
 58 62  0  0  1  0            999 V2000
   10.8261   45.4799   35.2444 C   0  0  0  0  0  0
    9.9165   45.2723   36.2832 C   0  0  0  0  0  0
    8.8688   44.3586   36.1276 C   0  0  0  0  0  0
    8.7141   43.7098   34.9020 C   0  0  0  0  0  0
    9.6330   43.8789   33.8670 C   0  0  0  0  0  0
   10.6925   44.7759   34.0456 C   0  0  0  0  0  0
    9.4919   43.0396   32.6490 C   0  0  0  0  0  0
    8.3732   43.2033   31.8252 C   0  0  0  0  0  0
    8.1662   42.3679   30.7320 C   0  0  0  0  0  0
    9.0604   41.3356   30.4645 C   0  0  0  0  0  0
   10.1823   41.1356   31.2789 C   0  0  0  0  0  0
   10.4087   42.0151   32.3568 C   0  0  0  0  0  0
   11.5310   41.8819   33.1412 O   0  0  0  0  0  0
   11.1119   40.0036   30.9788 C   0  0  0  0  0  0
   11.9261   39.2769   31.8359 C   0  0  0  0  0  0
   12.7918   38.4792   31.0338 C   0  0  0  0  0  0
   13.9306   37.7131   31.2792 C   0  0  0  0  0  0
   14.6507   37.1554   30.2761 N   0  0  0  0  0  0
   14.2135   37.3116   29.0039 C   0  0  0  0  0  0
   13.0573   38.0055   28.6402 C   0  0  0  0  0  0
   12.3756   38.6301   29.6869 C   0  0  0  0  0  0
   11.3227   39.5168   29.7034 N   0  0  0  0  0  0
    7.8896   44.0641   37.2619 C   0  0  0  0  0  0
    8.0438   42.7170   37.8347 N   0  0  0  0  0  0
    7.5304   41.5905   37.3082 C   0  0  0  0  0  0
    6.7314   41.5968   36.3681 O   0  0  0  0  0  0
    7.9310   40.4686   37.9382 N   0  0  0  0  0  0
    7.6544   39.1545   37.5138 C   0  0  0  0  0  0
    7.6838   38.7860   36.1622 C   0  0  0  0  0  0
    7.3794   37.4807   35.7860 C   0  0  0  0  0  0
    7.0457   36.5215   36.7499 C   0  0  0  0  0  0
    7.0213   36.8954   38.1003 C   0  0  0  0  0  0
    7.3485   38.1977   38.4826 C   0  0  0  0  0  0
    6.6728   35.1236   36.3191 C   0  0  0  0  0  0
    6.3289   34.8689   35.1644 O   0  0  0  0  0  0
    6.7638   34.1727   37.2943 O   0  0  0  0  0  0
   10.8468   39.8899   28.8944 H   0  0  0  0  0  0
   11.6455   46.1692   35.3809 H   0  0  0  0  0  0
   10.0500   45.7954   37.2193 H   0  0  0  0  0  0
    7.8998   43.0174   34.7553 H   0  0  0  0  0  0
   11.4204   44.9111   33.2592 H   0  0  0  0  0  0
    7.6562   43.9816   32.0405 H   0  0  0  0  0  0
    7.3034   42.5109   30.0987 H   0  0  0  0  0  0
    8.8658   40.6845   29.6241 H   0  0  0  0  0  0
   12.1509   41.2320   32.7979 H   0  0  0  0  0  0
   11.9781   39.3764   32.9111 H   0  0  0  0  0  0
   14.3345   37.6791   32.2761 H   0  0  0  0  0  0
   14.8363   36.8814   28.2331 H   0  0  0  0  0  0
   12.7591   38.1139   27.6089 H   0  0  0  0  0  0
    6.8790   44.1862   36.8641 H   0  0  0  0  0  0
    7.9780   44.8060   38.0565 H   0  0  0  0  0  0
    8.7226   42.6302   38.5816 H   0  0  0  0  0  0
    8.3507   40.5699   38.8510 H   0  0  0  0  0  0
    7.9361   39.5073   35.3993 H   0  0  0  0  0  0
    7.4063   37.2212   34.7361 H   0  0  0  0  0  0
    6.7312   36.1994   38.8746 H   0  0  0  0  0  0
    7.3229   38.4667   39.5297 H   0  0  0  0  0  0
    7.2623   34.4783   38.0611 H   0  0  0  0  0  0
  1  6  1  0  0  0
  1  2  2  0  0  0
  1 38  1  0  0  0
  2  3  1  0  0  0
  2 39  1  0  0  0
  3  4  2  0  0  0
  3 23  1  0  0  0
  4  5  1  0  0  0
  4 40  1  0  0  0
  5  6  2  0  0  0
  5  7  1  0  0  0
  6 41  1  0  0  0
  7 12  1  0  0  0
  7  8  2  0  0  0
  8  9  1  0  0  0
  8 42  1  0  0  0
  9 10  2  0  0  0
  9 43  1  0  0  0
 10 11  1  0  0  0
 10 44  1  0  0  0
 11 12  2  0  0  0
 11 14  1  0  0  0
 12 13  1  0  0  0
 13 45  1  0  0  0
 14 15  2  0  0  0
 14 22  1  0  0  0
 15 16  1  0  0  0
 15 46  1  0  0  0
 16 17  1  0  0  0
 16 21  2  0  0  0
 17 18  2  0  0  0
 17 47  1  0  0  0
 18 19  1  0  0  0
 19 20  2  0  0  0
 19 48  1  0  0  0
 20 49  1  0  0  0
 20 21  1  0  0  0
 21 22  1  0  0  0
 22 37  1  0  0  0
 23 24  1  0  0  0
 23 50  1  0  0  0
 23 51  1  0  0  0
 24 25  1  0  0  0
 24 52  1  0  0  0
 25 26  2  0  0  0
 25 27  1  0  0  0
 27 28  1  0  0  0
 27 53  1  0  0  0
 28 33  1  0  0  0
 28 29  2  0  0  0
 29 30  1  0  0  0
 29 54  1  0  0  0
 30 31  2  0  0  0
 30 55  1  0  0  0
 31 32  1  0  0  0
 31 34  1  0  0  0
 32 33  2  0  0  0
 32 56  1  0  0  0
 33 57  1  0  0  0
 34 35  2  0  0  0
 34 36  1  0  0  0
 36 58  1  0  0  0
M  END
> <s_m_entry_id>
21071

> <s_m_entry_name>
ligand_docking-pose.37

> <s_m_Source_Path>
/home/csk/Desktop/cluster/DUD-E-result/fa7

> <s_m_Source_File>
ligand_docking-pose.sdf

> <i_m_Source_File_Index>
37

> <i_lp_mmshare_version>
53161

> <i_f3d_flags>
0

> <r_lp_tautomer_probability>
0.999931356944416

> <s_lp_Force_Field>
OPLS_2005

> <r_lp_Energy>
29.875708

> <b_lp_Chiralities_Consistent>
1

> <s_lp_Variant>
347745-1

> <s_i_glide_gridfile>
glide-grid_1w7x

> <i_i_glide_lignum>
97

> <i_i_glide_rotatable_bonds>
10

> <r_i_docking_score>
-7.32719364955

> <r_i_glide_ligand_efficiency>
-0.203533156931945

> <r_i_glide_ligand_efficiency_sa>
-0.672051676124364

> <r_i_glide_ligand_efficiency_ln>
-1.59859569643625

> <r_i_glide_gscore>
-7.32719364955

> <r_i_glide_lipo>
-2.29464905512438

> <r_i_glide_hbond>
-0.411124305950543

> <r_i_glide_metal>
0

> <r_i_glide_rewards>
-0.00458894610557309

> <r_i_glide_evdw>
-51.0356292724609

> <r_i_glide_ecoul>
-17.4376411437988

> <r_i_glide_erotb>
0.708064718663947

> <r_i_glide_esite>
-0.157468425840586

> <r_i_glide_emodel>
-91.4040013753761

> <r_i_glide_energy>
-68.4732704162598

> <r_i_glide_einternal>
9.80178546905518

> <i_i_glide_confnum>
31

> <i_i_glide_posenum>
149

> <r_i_glide_eff_state_penalty>
0

> <s_user_duplicate_titles>
347745

> <s_m_subgroup_title>
dock_pv

> <s_m_subgroupid>
dock_pv1

> <b_m_subgroup_collapsed>
0

$$$$
202604
                    3D
 Schrodinger Suite 2021-1.
 64 66  0  0  1  0            999 V2000
   10.4986   46.0578   33.5242 C   0  0  0  0  0  0
    9.3744   45.0024   33.5773 C   0  0  1  0  0  0
    9.8147   43.6458   33.0318 C   0  0  0  0  0  0
    9.2106   43.1074   31.8922 C   0  0  0  0  0  0
    9.5684   41.8352   31.4503 C   0  0  0  0  0  0
   10.5318   41.0904   32.1294 C   0  0  0  0  0  0
   11.1368   41.6403   33.2694 C   0  0  0  0  0  0
   10.7905   42.9107   33.7079 C   0  0  0  0  0  0
   10.8228   39.8389   31.6162 O   0  0  0  0  0  0
   11.9858   39.1455   32.0713 C   0  0  0  0  0  0
   12.7292   38.4788   30.9197 C   0  0  0  0  0  0
   12.2431   38.4833   29.6068 C   0  0  0  0  0  0
   13.0678   38.0759   28.5584 C   0  0  0  0  0  0
   14.3747   37.6791   28.8072 C   0  0  0  0  0  0
   14.8617   37.6267   30.1194 C   0  0  0  0  0  0
   14.0146   37.9907   31.1664 C   0  0  0  0  0  0
   16.1544   37.2835   30.4523 O   0  0  0  0  0  0
   17.1388   37.2801   29.4267 C   0  0  0  0  0  0
    8.8612   44.8108   34.9289 N   0  0  0  0  0  0
    8.0288   45.6204   35.6039 C   0  0  0  0  0  0
    7.6494   46.6997   35.1539 O   0  0  0  0  0  0
    7.5443   45.1829   37.0023 C   0  0  0  0  0  0
    7.9705   43.8366   37.4363 N   0  0  0  0  0  0
    7.5327   42.6844   36.8961 C   0  0  0  0  0  0
    6.7861   42.6564   35.9150 O   0  0  0  0  0  0
    7.9306   41.5872   37.5773 N   0  0  0  0  0  0
    7.7326   40.2396   37.1948 C   0  0  0  0  0  0
    7.7098   39.2627   38.1930 C   0  0  0  0  0  0
    7.4707   37.9247   37.8658 C   0  0  0  0  0  0
    7.2658   37.5299   36.5319 C   0  0  0  0  0  0
    7.3624   38.5150   35.5383 C   0  0  0  0  0  0
    7.5944   39.8468   35.8575 C   0  0  0  0  0  0
    6.9265   36.1369   36.1470 C   0  0  0  0  0  0
    6.1499   35.9182   35.1779 N   0  0  0  0  0  0
    7.5323   35.1647   36.8970 N   0  0  0  0  0  0
   10.8709   46.1907   32.5084 H   0  0  0  0  0  0
   10.1436   47.0290   33.8722 H   0  0  0  0  0  0
   11.3453   45.7768   34.1522 H   0  0  0  0  0  0
    8.5470   45.3565   32.9562 H   0  0  0  0  0  0
    8.4522   43.6610   31.3579 H   0  0  0  0  0  0
    9.0992   41.4205   30.5711 H   0  0  0  0  0  0
   11.8796   41.1065   33.8396 H   0  0  0  0  0  0
   11.2657   43.3169   34.5896 H   0  0  0  0  0  0
   12.7308   39.8211   32.4656 H   0  0  0  0  0  0
   11.7456   38.4794   32.8954 H   0  0  0  0  0  0
   11.2539   38.8562   29.3813 H   0  0  0  0  0  0
   12.7311   38.0975   27.5371 H   0  0  0  0  0  0
   14.9904   37.3960   27.9661 H   0  0  0  0  0  0
   14.4058   37.9952   32.1729 H   0  0  0  0  0  0
   18.1281   37.1513   29.8663 H   0  0  0  0  0  0
   16.9794   36.4832   28.7042 H   0  0  0  0  0  0
   17.1311   38.2277   28.8946 H   0  0  0  0  0  0
    9.0858   43.9233   35.3538 H   0  0  0  0  0  0
    6.4576   45.2550   37.0412 H   0  0  0  0  0  0
    7.9310   45.9138   37.7045 H   0  0  0  0  0  0
    8.6311   43.8171   38.2025 H   0  0  0  0  0  0
    8.3566   41.7272   38.4835 H   0  0  0  0  0  0
    7.8427   39.5343   39.2302 H   0  0  0  0  0  0
    7.4205   37.2009   38.6668 H   0  0  0  0  0  0
    7.2473   38.2583   34.4966 H   0  0  0  0  0  0
    7.6626   40.5597   35.0492 H   0  0  0  0  0  0
    5.8105   36.7819   34.7878 H   0  0  0  0  0  0
    7.3145   34.2045   36.6839 H   0  0  0  0  0  0
    7.9415   35.3557   37.8070 H   0  0  0  0  0  0
  1  2  1  0  0  0
  1 36  1  0  0  0
  1 37  1  0  0  0
  1 38  1  0  0  0
  2  3  1  0  0  0
  2 19  1  0  0  0
  2 39  1  0  0  0
  3  8  1  0  0  0
  3  4  2  0  0  0
  4  5  1  0  0  0
  4 40  1  0  0  0
  5  6  2  0  0  0
  5 41  1  0  0  0
  6  7  1  0  0  0
  6  9  1  0  0  0
  7  8  2  0  0  0
  7 42  1  0  0  0
  8 43  1  0  0  0
  9 10  1  0  0  0
 10 11  1  0  0  0
 10 44  1  0  0  0
 10 45  1  0  0  0
 11 16  1  0  0  0
 11 12  2  0  0  0
 12 13  1  0  0  0
 12 46  1  0  0  0
 13 14  2  0  0  0
 13 47  1  0  0  0
 14 15  1  0  0  0
 14 48  1  0  0  0
 15 16  2  0  0  0
 15 17  1  0  0  0
 16 49  1  0  0  0
 17 18  1  0  0  0
 18 50  1  0  0  0
 18 51  1  0  0  0
 18 52  1  0  0  0
 19 20  1  0  0  0
 19 53  1  0  0  0
 20 21  2  0  0  0
 20 22  1  0  0  0
 22 23  1  0  0  0
 22 54  1  0  0  0
 22 55  1  0  0  0
 23 24  1  0  0  0
 23 56  1  0  0  0
 24 25  2  0  0  0
 24 26  1  0  0  0
 26 27  1  0  0  0
 26 57  1  0  0  0
 27 32  1  0  0  0
 27 28  2  0  0  0
 28 29  1  0  0  0
 28 58  1  0  0  0
 29 30  2  0  0  0
 29 59  1  0  0  0
 30 31  1  0  0  0
 30 33  1  0  0  0
 31 32  2  0  0  0
 31 60  1  0  0  0
 32 61  1  0  0  0
 33 34  2  3  0  0
 33 35  1  0  0  0
 34 62  1  0  0  0
 35 63  1  0  0  0
 35 64  1  0  0  0
M  END
> <s_m_entry_id>
21072

> <s_m_entry_name>
ligand_docking-pose.38

> <s_m_Source_Path>
/home/csk/Desktop/cluster/DUD-E-result/fa7

> <s_m_Source_File>
ligand_docking-pose.sdf

> <i_m_Source_File_Index>
38

> <i_lp_mmshare_version>
53161

> <i_f3d_flags>
0

> <r_lp_tautomer_probability>
1

> <s_lp_Force_Field>
OPLS_2005

> <r_lp_Energy>
22.730931

> <b_lp_Chiralities_Consistent>
1

> <s_lp_Variant>
202604-4

> <s_i_glide_gridfile>
glide-grid_1w7x

> <i_i_glide_lignum>
491

> <i_i_glide_rotatable_bonds>
13

> <r_i_docking_score>
-7.31483749209945

> <r_i_glide_ligand_efficiency>
-0.208995356917127

> <r_i_glide_ligand_efficiency_sa>
-0.683637670187264

> <r_i_glide_ligand_efficiency_ln>
-1.6057691735871

> <r_i_glide_gscore>
-7.31483749209945

> <r_i_glide_lipo>
-3.04021577840727

> <r_i_glide_hbond>
-0.537581955644427

> <r_i_glide_metal>
0

> <r_i_glide_rewards>
-0.128727775898736

> <r_i_glide_evdw>
-48.1366348266602

> <r_i_glide_ecoul>
-12.7786912918091

> <r_i_glide_erotb>
0.984684127624872

> <r_i_glide_esite>
-0.269360674669519

> <r_i_glide_emodel>
-83.0612147282684

> <r_i_glide_energy>
-60.9153261184692

> <r_i_glide_einternal>
6.21615123748779

> <i_i_glide_confnum>
101

> <i_i_glide_posenum>
374

> <r_i_glide_eff_state_penalty>
0

> <s_user_duplicate_titles>
202604

> <s_m_subgroup_title>
dock_pv

> <s_m_subgroupid>
dock_pv1

> <b_m_subgroup_collapsed>
0

$$$$
116193
                    3D
 Schrodinger Suite 2021-1.
 48 51  0  0  1  0            999 V2000
   15.0430   37.4759   29.9714 C   0  0  0  0  0  0
   14.3405   37.7529   31.1378 C   0  0  0  0  0  0
   13.0307   38.2074   31.0724 C   0  0  0  0  0  0
   12.4065   38.4284   29.8385 C   0  0  0  0  0  0
   13.1236   38.1070   28.6728 C   0  0  0  0  0  0
   14.4374   37.6595   28.7344 C   0  0  0  0  0  0
   11.0159   38.9956   29.7822 C   0  0  0  0  0  0
   10.0825   38.4466   28.8972 C   0  0  0  0  0  0
    8.7497   38.8785   28.8387 C   0  0  0  0  0  0
    8.3471   39.9270   29.6663 C   0  0  0  0  0  0
    9.2385   40.4806   30.5888 C   0  0  0  0  0  0
   10.5712   40.0332   30.6281 C   0  0  0  0  0  0
   11.4319   40.6400   31.5078 O   0  0  0  0  0  0
    8.7404   41.4837   31.5756 C   0  0  0  0  0  0
    8.9902   41.5488   32.9352 C   0  0  0  0  0  0
    8.3286   42.6999   33.4543 C   0  0  0  0  0  0
    8.2371   43.2722   34.7265 C   0  0  0  0  0  0
    7.5094   44.4579   34.9137 C   0  0  0  0  0  0
    6.8553   45.0330   33.8123 C   0  0  0  0  0  0
    6.9052   44.4848   32.5280 C   0  0  0  0  0  0
    7.6549   43.3168   32.3664 C   0  0  0  0  0  0
    7.9187   42.5409   31.2542 N   0  0  0  0  0  0
    7.4312   45.0758   36.2523 C   0  0  0  0  0  0
    6.3314   45.5049   36.6906 N   0  0  0  0  0  0
    8.6421   45.0898   36.8968 N   0  0  0  0  0  0
    7.7262   38.1912   27.9184 C   0  0  0  0  0  0
    7.5933   36.6725   28.0975 C   0  0  0  0  0  0
    8.5046   35.9593   28.4970 O   0  0  0  0  0  0
    6.3775   36.2027   27.6970 O   0  0  0  0  0  0
    7.6062   42.7069   30.3090 H   0  0  0  0  0  0
   16.0711   37.1483   30.0220 H   0  0  0  0  0  0
   14.8246   37.6791   32.0966 H   0  0  0  0  0  0
   12.5176   38.4280   31.9966 H   0  0  0  0  0  0
   12.6962   38.2599   27.6969 H   0  0  0  0  0  0
   14.9801   37.4444   27.8242 H   0  0  0  0  0  0
   10.3945   37.6377   28.2523 H   0  0  0  0  0  0
    7.3193   40.2593   29.6460 H   0  0  0  0  0  0
   10.9947   41.3495   31.9860 H   0  0  0  0  0  0
    9.5850   40.8401   33.4926 H   0  0  0  0  0  0
    8.7385   42.7966   35.5569 H   0  0  0  0  0  0
    6.2965   45.9498   33.9439 H   0  0  0  0  0  0
    6.3957   44.9571   31.7004 H   0  0  0  0  0  0
    5.5970   45.4034   36.0076 H   0  0  0  0  0  0
    8.7309   45.4272   37.8546 H   0  0  0  0  0  0
    9.4860   44.8826   36.3876 H   0  0  0  0  0  0
    6.7464   38.6647   27.9875 H   0  0  0  0  0  0
    8.0559   38.3054   26.8972 H   0  0  0  0  0  0
    6.3359   36.1221   26.7095 H   0  0  0  0  0  0
  1  6  1  0  0  0
  1  2  2  0  0  0
  1 31  1  0  0  0
  2  3  1  0  0  0
  2 32  1  0  0  0
  3  4  2  0  0  0
  3 33  1  0  0  0
  4  5  1  0  0  0
  4  7  1  0  0  0
  5  6  2  0  0  0
  5 34  1  0  0  0
  6 35  1  0  0  0
  7 12  1  0  0  0
  7  8  2  0  0  0
  8  9  1  0  0  0
  8 36  1  0  0  0
  9 10  2  0  0  0
  9 26  1  0  0  0
 10 11  1  0  0  0
 10 37  1  0  0  0
 11 12  2  0  0  0
 11 14  1  0  0  0
 12 13  1  0  0  0
 13 38  1  0  0  0
 14 22  1  0  0  0
 14 15  2  0  0  0
 15 16  1  0  0  0
 15 39  1  0  0  0
 16 21  2  0  0  0
 16 17  1  0  0  0
 17 18  2  0  0  0
 17 40  1  0  0  0
 18 19  1  0  0  0
 18 23  1  0  0  0
 19 20  2  0  0  0
 19 41  1  0  0  0
 20 21  1  0  0  0
 20 42  1  0  0  0
 21 22  1  0  0  0
 22 30  1  0  0  0
 23 24  2  3  0  0
 23 25  1  0  0  0
 24 43  1  0  0  0
 25 44  1  0  0  0
 25 45  1  0  0  0
 26 27  1  0  0  0
 26 46  1  0  0  0
 26 47  1  0  0  0
 27 28  2  0  0  0
 27 29  1  0  0  0
 29 48  1  0  0  0
M  END
> <s_m_entry_id>
21075

> <s_m_entry_name>
ligand_docking-pose.41

> <s_m_Source_Path>
/home/csk/Desktop/cluster/DUD-E-result/fa7

> <s_m_Source_File>
ligand_docking-pose.sdf

> <i_m_Source_File_Index>
41

> <i_lp_mmshare_version>
53161

> <i_f3d_flags>
0

> <r_lp_tautomer_probability>
0.999999999997365

> <s_lp_Force_Field>
OPLS_2005

> <r_lp_Energy>
23.891954

> <b_lp_Chiralities_Consistent>
1

> <s_lp_Variant>
116193-2

> <s_i_glide_gridfile>
glide-grid_1w7x

> <i_i_glide_lignum>
90

> <i_i_glide_rotatable_bonds>
7

> <r_i_docking_score>
-7.24658143820063

> <r_i_glide_ligand_efficiency>
-0.249882118558643

> <r_i_glide_ligand_efficiency_sa>
-0.767717036424033

> <r_i_glide_ligand_efficiency_ln>
-1.6592833918977

> <r_i_glide_gscore>
-7.24658143820063

> <r_i_glide_lipo>
-2.21171238770547

> <r_i_glide_hbond>
-0.424114794419017

> <r_i_glide_metal>
0

> <r_i_glide_rewards>
-0.78125959090909

> <r_i_glide_evdw>
-27.5354461669922

> <r_i_glide_ecoul>
-18.4474296569824

> <r_i_glide_erotb>
0.523822012294014

> <r_i_glide_esite>
-0.2094299205641

> <r_i_glide_emodel>
-60.2763416879172

> <r_i_glide_energy>
-45.9828758239746

> <r_i_glide_einternal>
9.11567497253418

> <i_i_glide_confnum>
48

> <i_i_glide_posenum>
17

> <r_i_glide_eff_state_penalty>
0

> <s_user_duplicate_titles>
116193

> <s_m_subgroup_title>
dock_pv

> <s_m_subgroupid>
dock_pv1

> <b_m_subgroup_collapsed>
0

$$$$
115803
                    3D
 Schrodinger Suite 2021-1.
 47 50  0  0  1  0            999 V2000
    6.6766   37.7458   37.6221 C   0  0  0  0  0  0
    7.0330   38.4334   36.4659 C   0  0  0  0  0  0
    7.4023   39.7840   36.5169 C   0  0  0  0  0  0
    7.3760   40.4391   37.7562 C   0  0  0  0  0  0
    7.0027   39.7642   38.9318 C   0  0  0  0  0  0
    6.6630   38.4067   38.8461 C   0  0  0  0  0  0
    6.9637   40.4670   40.2367 N   0  3  0  0  0  0
    7.1310   41.6790   40.2500 O   0  5  0  0  0  0
    6.7284   39.8205   41.2511 O   0  0  0  0  0  0
    7.8297   40.4911   35.2721 C   0  0  0  0  0  0
    7.1789   41.6588   34.8737 C   0  0  0  0  0  0
    7.5162   42.3220   33.6869 C   0  0  0  0  0  0
    8.5299   41.7840   32.8751 C   0  0  0  0  0  0
    9.2210   40.6285   33.2527 C   0  0  0  0  0  0
    8.8674   39.9996   34.4662 C   0  0  0  0  0  0
    9.5310   38.8790   34.8970 O   0  0  0  0  0  0
   10.2909   40.0876   32.3379 C   0  0  0  0  0  0
   10.4460   40.0790   30.9509 C   0  0  0  0  0  0
   11.6051   39.2795   30.6255 C   0  0  0  0  0  0
   12.2516   38.8648   29.4451 C   0  0  0  0  0  0
   13.4238   38.0748   29.5159 C   0  0  0  0  0  0
   13.8860   37.6790   30.7804 C   0  0  0  0  0  0
   13.2934   38.0790   31.9637 C   0  0  0  0  0  0
   12.1653   38.8798   31.8615 C   0  0  0  0  0  0
   11.3830   39.4306   32.8409 N   0  0  0  0  0  0
   14.2217   37.6790   28.3242 C   0  0  0  0  0  0
   15.4386   37.3628   28.4459 N   0  0  0  0  0  0
   13.5310   37.6790   27.1423 N   0  0  0  0  0  0
    6.7482   43.5618   33.2969 C   0  0  0  0  0  0
    5.6927   43.8706   33.8499 O   0  0  0  0  0  0
    7.3226   44.3139   32.3165 O   0  0  0  0  0  0
   11.5090   39.3028   33.8304 H   0  0  0  0  0  0
    6.4123   36.6987   37.5731 H   0  0  0  0  0  0
    7.0301   37.9039   35.5233 H   0  0  0  0  0  0
    7.6687   41.4794   37.8076 H   0  0  0  0  0  0
    6.3797   37.8512   39.7277 H   0  0  0  0  0  0
    6.3850   42.0433   35.4985 H   0  0  0  0  0  0
    8.7963   42.2450   31.9345 H   0  0  0  0  0  0
    9.1310   38.5115   35.6905 H   0  0  0  0  0  0
    9.7694   40.5418   30.2485 H   0  0  0  0  0  0
   11.8630   39.1954   28.4937 H   0  0  0  0  0  0
   14.7599   37.0511   30.8768 H   0  0  0  0  0  0
   13.7058   37.7864   32.9145 H   0  0  0  0  0  0
   15.7703   37.4680   29.3902 H   0  0  0  0  0  0
   14.0016   37.2944   26.3279 H   0  0  0  0  0  0
   12.5760   38.0092   27.0526 H   0  0  0  0  0  0
    8.2003   44.0052   32.0957 H   0  0  0  0  0  0
  1  6  1  0  0  0
  1  2  2  0  0  0
  1 33  1  0  0  0
  2  3  1  0  0  0
  2 34  1  0  0  0
  3  4  2  0  0  0
  3 10  1  0  0  0
  4  5  1  0  0  0
  4 35  1  0  0  0
  5  6  2  0  0  0
  5  7  1  0  0  0
  6 36  1  0  0  0
  7  8  1  0  0  0
  7  9  2  0  0  0
 10 15  1  0  0  0
 10 11  2  0  0  0
 11 12  1  0  0  0
 11 37  1  0  0  0
 12 13  2  0  0  0
 12 29  1  0  0  0
 13 14  1  0  0  0
 13 38  1  0  0  0
 14 15  2  0  0  0
 14 17  1  0  0  0
 15 16  1  0  0  0
 16 39  1  0  0  0
 17 25  1  0  0  0
 17 18  2  0  0  0
 18 19  1  0  0  0
 18 40  1  0  0  0
 19 24  2  0  0  0
 19 20  1  0  0  0
 20 21  2  0  0  0
 20 41  1  0  0  0
 21 22  1  0  0  0
 21 26  1  0  0  0
 22 23  2  0  0  0
 22 42  1  0  0  0
 23 24  1  0  0  0
 23 43  1  0  0  0
 24 25  1  0  0  0
 25 32  1  0  0  0
 26 27  2  3  0  0
 26 28  1  0  0  0
 27 44  1  0  0  0
 28 45  1  0  0  0
 28 46  1  0  0  0
 29 30  2  0  0  0
 29 31  1  0  0  0
 31 47  1  0  0  0
M  CHG  2   7   1   8  -1
M  END
> <s_m_entry_id>
21076

> <s_m_entry_name>
ligand_docking-pose.42

> <s_m_Source_Path>
/home/csk/Desktop/cluster/DUD-E-result/fa7

> <s_m_Source_File>
ligand_docking-pose.sdf

> <i_m_Source_File_Index>
42

> <i_lp_mmshare_version>
53161

> <i_f3d_flags>
0

> <r_lp_tautomer_probability>
1

> <s_lp_Force_Field>
OPLS_2005

> <r_lp_Energy>
26.107028

> <b_lp_Chiralities_Consistent>
1

> <s_lp_Variant>
115803-2

> <s_i_glide_gridfile>
glide-grid_1w7x

> <i_i_glide_lignum>
314

> <i_i_glide_rotatable_bonds>
7

> <r_i_docking_score>
-7.2429636435948

> <r_i_glide_ligand_efficiency>
-0.233643988503058

> <r_i_glide_ligand_efficiency_sa>
-0.733964704190922

> <r_i_glide_ligand_efficiency_ln>
-1.63351027180869

> <r_i_glide_gscore>
-7.2429636435948

> <r_i_glide_lipo>
-2.48944946342112

> <r_i_glide_hbond>
-0.62479408343852

> <r_i_glide_metal>
0

> <r_i_glide_rewards>
-1.29951372909141

> <r_i_glide_evdw>
-41.991756439209

> <r_i_glide_ecoul>
-6.59604406356812

> <r_i_glide_erotb>
0.341834827724663

> <r_i_glide_esite>
-0.0820467638727438

> <r_i_glide_emodel>
-67.4243194894754

> <r_i_glide_energy>
-48.5878005027771

> <r_i_glide_einternal>
2.49485731124878

> <i_i_glide_confnum>
4

> <i_i_glide_posenum>
315

> <r_i_glide_eff_state_penalty>
0

> <s_user_duplicate_titles>
115803

> <s_m_subgroup_title>
dock_pv

> <s_m_subgroupid>
dock_pv1

> <b_m_subgroup_collapsed>
0

$$$$
326882
                    3D
 Schrodinger Suite 2021-1.
 75 78  0  0  1  0            999 V2000
   15.1191   36.8803   30.0964 C   0  0  0  0  0  0
   14.5225   37.5384   28.8459 C   0  0  0  0  0  0
   13.0089   37.7988   28.9214 C   0  0  0  0  0  0
   12.6487   38.3383   30.1979 O   0  0  0  0  0  0
   11.5310   39.1397   30.3176 C   0  0  0  0  0  0
   11.3553   39.8050   31.5297 C   0  0  0  0  0  0
   10.3218   40.7262   31.6891 C   0  0  0  0  0  0
    9.4425   41.0040   30.6341 C   0  0  0  0  0  0
    9.5779   40.2997   29.4337 C   0  0  0  0  0  0
   10.5944   39.3510   29.2972 C   0  0  0  0  0  0
    8.6691   40.5915   28.2828 C   0  0  0  0  0  0
    7.6141   39.9887   28.1066 O   0  0  0  0  0  0
    9.1310   41.5963   27.4885 O   0  0  0  0  0  0
    8.4855   41.9908   30.7322 O   0  0  0  0  0  0
    7.6912   42.0237   31.8453 C   0  0  0  0  0  0
    6.7015   41.0637   32.0798 C   0  0  0  0  0  0
    5.9544   41.1511   33.2598 C   0  0  0  0  0  0
    6.2252   42.2017   34.1493 C   0  0  0  0  0  0
    7.2388   43.1154   33.8494 C   0  0  0  0  0  0
    7.9403   43.0537   32.6877 N   0  0  0  0  0  0
    7.5794   44.0820   34.7811 O   0  0  0  0  0  0
    8.8808   44.4782   35.0580 C   0  0  0  0  0  0
    9.0523   45.6061   35.8554 C   0  0  0  0  0  0
   10.3308   46.0418   36.1960 C   0  0  0  0  0  0
   11.4561   45.3801   35.7258 C   0  0  0  0  0  0
   11.3340   44.2246   34.9423 C   0  0  0  0  0  0
   10.0279   43.7887   34.6424 C   0  0  0  0  0  0
   12.5075   43.4448   34.4781 C   0  0  0  0  0  0
   12.3310   42.4790   33.6970 N   0  0  0  0  0  0
   13.7237   43.8280   34.9895 N   0  0  0  0  0  0
    5.5309   42.3291   35.2970 F   0  0  0  0  0  0
    4.9499   40.2035   33.5365 N   0  0  0  0  0  0
    5.1243   39.1635   34.5590 C   0  0  2  0  0  0
    4.1523   39.3785   35.7287 C   0  0  0  0  0  0
    6.5966   38.8870   34.9862 C   0  0  0  0  0  0
    6.8208   37.8128   36.0798 C   0  0  0  0  0  0
    6.7027   38.3449   37.5064 C   0  0  0  0  0  0
    7.6375   39.2712   37.9792 C   0  0  0  0  0  0
    7.5308   39.7708   39.2739 C   0  0  0  0  0  0
    6.4914   39.3445   40.0969 C   0  0  0  0  0  0
    5.5619   38.4144   39.6379 C   0  0  0  0  0  0
    5.6751   37.9048   38.3466 C   0  0  0  0  0  0
    6.4763   40.0789   31.1780 F   0  0  0  0  0  0
   16.1893   36.7182   29.9703 H   0  0  0  0  0  0
   14.9955   37.5173   30.9727 H   0  0  0  0  0  0
   14.6397   35.9250   30.3104 H   0  0  0  0  0  0
   14.7380   36.9221   27.9714 H   0  0  0  0  0  0
   15.0350   38.4779   28.6586 H   0  0  0  0  0  0
   12.4525   36.8790   28.7585 H   0  0  0  0  0  0
   12.7674   38.4740   28.0990 H   0  0  0  0  0  0
   12.0582   39.6446   32.3350 H   0  0  0  0  0  0
   10.2319   41.2604   32.6204 H   0  0  0  0  0  0
   10.6679   38.7948   28.3824 H   0  0  0  0  0  0
   10.0547   41.7959   27.6973 H   0  0  0  0  0  0
    8.1875   46.1320   36.2308 H   0  0  0  0  0  0
   10.4664   46.8790   36.8553 H   0  0  0  0  0  0
   12.4190   45.7698   36.0208 H   0  0  0  0  0  0
    9.9076   42.8718   34.0935 H   0  0  0  0  0  0
   13.1871   41.9582   33.5161 H   0  0  0  0  0  0
   14.5459   43.2708   34.8072 H   0  0  0  0  0  0
   13.7800   44.5458   35.6952 H   0  0  0  0  0  0
    3.9997   40.5202   33.4030 H   0  0  0  0  0  0
    4.7952   38.2458   34.0707 H   0  0  0  0  0  0
    3.9645   38.4407   36.2498 H   0  0  0  0  0  0
    4.5604   40.0789   36.4528 H   0  0  0  0  0  0
    3.1804   39.7466   35.3965 H   0  0  0  0  0  0
    7.0890   39.8088   35.2958 H   0  0  0  0  0  0
    7.1321   38.5635   34.0968 H   0  0  0  0  0  0
    7.8305   37.4090   35.9806 H   0  0  0  0  0  0
    6.1591   36.9586   35.9242 H   0  0  0  0  0  0
    8.4473   39.6032   37.3465 H   0  0  0  0  0  0
    8.2573   40.4791   39.6417 H   0  0  0  0  0  0
    6.4162   39.7276   41.1042 H   0  0  0  0  0  0
    4.7679   38.0754   40.2875 H   0  0  0  0  0  0
    4.9615   37.1706   38.0023 H   0  0  0  0  0  0
  1  2  1  0  0  0
  1 44  1  0  0  0
  1 45  1  0  0  0
  1 46  1  0  0  0
  2  3  1  0  0  0
  2 47  1  0  0  0
  2 48  1  0  0  0
  3  4  1  0  0  0
  3 49  1  0  0  0
  3 50  1  0  0  0
  4  5  1  0  0  0
  5 10  1  0  0  0
  5  6  2  0  0  0
  6  7  1  0  0  0
  6 51  1  0  0  0
  7  8  2  0  0  0
  7 52  1  0  0  0
  8  9  1  0  0  0
  8 14  1  0  0  0
  9 10  2  0  0  0
  9 11  1  0  0  0
 10 53  1  0  0  0
 11 12  2  0  0  0
 11 13  1  0  0  0
 13 54  1  0  0  0
 14 15  1  0  0  0
 15 20  1  0  0  0
 15 16  2  0  0  0
 16 17  1  0  0  0
 16 43  1  0  0  0
 17 18  2  0  0  0
 17 32  1  0  0  0
 18 19  1  0  0  0
 18 31  1  0  0  0
 19 20  2  0  0  0
 19 21  1  0  0  0
 21 22  1  0  0  0
 22 27  1  0  0  0
 22 23  2  0  0  0
 23 24  1  0  0  0
 23 55  1  0  0  0
 24 25  2  0  0  0
 24 56  1  0  0  0
 25 26  1  0  0  0
 25 57  1  0  0  0
 26 27  2  0  0  0
 26 28  1  0  0  0
 27 58  1  0  0  0
 28 29  2  3  0  0
 28 30  1  0  0  0
 29 59  1  0  0  0
 30 60  1  0  0  0
 30 61  1  0  0  0
 32 33  1  0  0  0
 32 62  1  0  0  0
 33 34  1  0  0  0
 33 35  1  0  0  0
 33 63  1  0  0  0
 34 64  1  0  0  0
 34 65  1  0  0  0
 34 66  1  0  0  0
 35 36  1  0  0  0
 35 67  1  0  0  0
 35 68  1  0  0  0
 36 37  1  0  0  0
 36 69  1  0  0  0
 36 70  1  0  0  0
 37 42  1  0  0  0
 37 38  2  0  0  0
 38 39  1  0  0  0
 38 71  1  0  0  0
 39 40  2  0  0  0
 39 72  1  0  0  0
 40 41  1  0  0  0
 40 73  1  0  0  0
 41 42  2  0  0  0
 41 74  1  0  0  0
 42 75  1  0  0  0
M  END
> <s_m_entry_id>
21077

> <s_m_entry_name>
ligand_docking-pose.43

> <s_m_Source_Path>
/home/csk/Desktop/cluster/DUD-E-result/fa7

> <s_m_Source_File>
ligand_docking-pose.sdf

> <i_m_Source_File_Index>
43

> <i_lp_mmshare_version>
53161

> <i_f3d_flags>
0

> <r_lp_tautomer_probability>
1

> <s_lp_Force_Field>
OPLS_2005

> <r_lp_Energy>
31.233447

> <b_lp_Chiralities_Consistent>
1

> <s_lp_Variant>
326882-1

> <s_i_glide_gridfile>
glide-grid_1w7x

> <i_i_glide_lignum>
652

> <i_i_glide_rotatable_bonds>
15

> <r_i_docking_score>
-7.22726457814858

> <r_i_glide_ligand_efficiency>
-0.16807592042206

> <r_i_glide_ligand_efficiency_sa>
-0.588836852866114

> <r_i_glide_ligand_efficiency_ln>
-1.51795018115843

> <r_i_glide_gscore>
-7.22726457814858

> <r_i_glide_lipo>
-2.39965655063855

> <r_i_glide_hbond>
-0.288284170298403

> <r_i_glide_metal>
0

> <r_i_glide_rewards>
-0.27598089855777

> <r_i_glide_evdw>
-49.1152305603027

> <r_i_glide_ecoul>
-14.9391622543335

> <r_i_glide_erotb>
0.551858318204596

> <r_i_glide_esite>
-0.118565410693294

> <r_i_glide_emodel>
-85.0591874653217

> <r_i_glide_energy>
-64.0543928146362

> <r_i_glide_einternal>
15.2866296768188

> <i_i_glide_confnum>
1

> <i_i_glide_posenum>
60

> <r_i_glide_eff_state_penalty>
0

> <s_user_duplicate_titles>
326882

> <s_m_subgroup_title>
dock_pv

> <s_m_subgroupid>
dock_pv1

> <b_m_subgroup_collapsed>
0

$$$$
344036
                    3D
 Schrodinger Suite 2021-1.
 59 62  0  0  1  0            999 V2000
    6.0802   38.4393   39.2918 C   0  0  0  0  0  0
    6.5968   39.6976   39.5787 C   0  0  0  0  0  0
    7.0660   40.5130   38.5519 C   0  0  0  0  0  0
    7.0355   40.0789   37.2110 C   0  0  0  0  0  0
    6.4795   38.8150   36.9492 C   0  0  0  0  0  0
    6.0307   37.9771   37.9734 C   0  0  0  0  0  0
    5.4862   36.5942   37.6139 C   0  0  0  0  0  0
    5.5310   35.6459   38.7156 N   0  0  0  0  0  0
    7.5855   40.9013   36.0768 C   0  0  0  0  0  0
    7.3069   42.2728   35.9964 C   0  0  0  0  0  0
    7.7788   43.0751   34.9521 C   0  0  0  0  0  0
    8.5563   42.4825   33.9590 C   0  0  0  0  0  0
    8.8905   41.1278   34.0170 C   0  0  0  0  0  0
    8.4168   40.3428   35.0840 C   0  0  0  0  0  0
    8.8097   39.0286   35.1830 O   0  0  0  0  0  0
    9.7650   40.5923   32.9325 C   0  0  0  0  0  0
    9.5522   40.8695   31.6015 N   0  0  0  0  0  0
   10.4771   40.1564   30.8817 C   0  0  0  0  0  0
   10.7104   39.9868   29.5239 C   0  0  0  0  0  0
   11.7604   39.1375   29.1788 C   0  0  0  0  0  0
   12.5912   38.4841   30.1106 C   0  0  0  0  0  0
   12.3310   38.7021   31.4805 C   0  0  0  0  0  0
   11.2597   39.5194   31.8660 C   0  0  0  0  0  0
   10.7927   39.7999   33.1223 N   0  0  0  0  0  0
   13.7232   37.6125   29.6743 C   0  0  0  0  0  0
   14.3310   36.8791   30.4970 N   0  0  0  0  0  0
   14.0296   37.6790   28.3373 N   0  0  0  0  0  0
    7.5279   44.6000   34.9151 C   0  0  2  0  0  0
    8.2610   45.3536   36.0482 C   0  0  0  0  0  0
    9.7548   45.3841   35.7704 C   0  0  0  0  0  0
   10.2755   45.2252   34.6676 O   0  0  0  0  0  0
   10.4601   45.6790   36.8970 O   0  0  0  0  0  0
    6.0502   44.9848   34.9849 C   0  0  0  0  0  0
    5.1310   44.2304   35.2970 O   0  0  0  0  0  0
    5.8594   46.2839   34.6117 O   0  0  0  0  0  0
    7.5310   41.7521   38.8970 O   0  0  0  0  0  0
    8.8052   41.4576   31.2651 H   0  0  0  0  0  0
    5.7120   37.8232   40.0971 H   0  0  0  0  0  0
    6.6246   40.0410   40.6029 H   0  0  0  0  0  0
    6.4110   38.4624   35.9296 H   0  0  0  0  0  0
    6.0585   36.1772   36.7835 H   0  0  0  0  0  0
    4.4534   36.7005   37.2795 H   0  0  0  0  0  0
    5.0625   34.7838   38.4697 H   0  0  0  0  0  0
    6.4965   35.3824   38.8969 H   0  0  0  0  0  0
    6.7310   42.7421   36.7744 H   0  0  0  0  0  0
    8.9494   43.0956   33.1597 H   0  0  0  0  0  0
    8.5618   38.6314   36.0217 H   0  0  0  0  0  0
   10.1183   40.4774   28.7648 H   0  0  0  0  0  0
   11.9311   39.0218   28.1193 H   0  0  0  0  0  0
   12.9364   38.2477   32.2514 H   0  0  0  0  0  0
   13.9498   36.9498   31.4263 H   0  0  0  0  0  0
   14.6938   37.0119   27.9671 H   0  0  0  0  0  0
   13.4224   38.1531   27.6887 H   0  0  0  0  0  0
    7.8633   44.9692   33.9395 H   0  0  0  0  0  0
    7.9501   46.4000   36.1136 H   0  0  0  0  0  0
    8.0651   44.8712   37.0107 H   0  0  0  0  0  0
    9.9823   45.6790   37.7467 H   0  0  0  0  0  0
    6.6751   46.7300   34.3773 H   0  0  0  0  0  0
    8.4062   41.7266   39.3191 H   0  0  0  0  0  0
  1  6  1  0  0  0
  1  2  2  0  0  0
  1 38  1  0  0  0
  2  3  1  0  0  0
  2 39  1  0  0  0
  3  4  2  0  0  0
  3 36  1  0  0  0
  4  5  1  0  0  0
  4  9  1  0  0  0
  5  6  2  0  0  0
  5 40  1  0  0  0
  6  7  1  0  0  0
  7  8  1  0  0  0
  7 41  1  0  0  0
  7 42  1  0  0  0
  8 43  1  0  0  0
  8 44  1  0  0  0
  9 14  1  0  0  0
  9 10  2  0  0  0
 10 11  1  0  0  0
 10 45  1  0  0  0
 11 12  2  0  0  0
 11 28  1  0  0  0
 12 13  1  0  0  0
 12 46  1  0  0  0
 13 14  2  0  0  0
 13 16  1  0  0  0
 14 15  1  0  0  0
 15 47  1  0  0  0
 16 24  2  0  0  0
 16 17  1  0  0  0
 17 37  1  0  0  0
 17 18  1  0  0  0
 18 23  2  0  0  0
 18 19  1  0  0  0
 19 20  2  0  0  0
 19 48  1  0  0  0
 20 21  1  0  0  0
 20 49  1  0  0  0
 21 22  2  0  0  0
 21 25  1  0  0  0
 22 23  1  0  0  0
 22 50  1  0  0  0
 23 24  1  0  0  0
 25 26  2  3  0  0
 25 27  1  0  0  0
 26 51  1  0  0  0
 27 52  1  0  0  0
 27 53  1  0  0  0
 28 29  1  0  0  0
 28 33  1  0  0  0
 28 54  1  0  0  0
 29 30  1  0  0  0
 29 55  1  0  0  0
 29 56  1  0  0  0
 30 31  2  0  0  0
 30 32  1  0  0  0
 32 57  1  0  0  0
 33 34  2  0  0  0
 33 35  1  0  0  0
 35 58  1  0  0  0
 36 59  1  0  0  0
M  END
> <s_m_entry_id>
21078

> <s_m_entry_name>
ligand_docking-pose.44

> <s_m_Source_Path>
/home/csk/Desktop/cluster/DUD-E-result/fa7

> <s_m_Source_File>
ligand_docking-pose.sdf

> <i_m_Source_File_Index>
44

> <i_lp_mmshare_version>
53161

> <i_f3d_flags>
0

> <r_lp_tautomer_probability>
0.99999999999473

> <s_lp_Force_Field>
OPLS_2005

> <r_lp_Energy>
32.840983

> <b_lp_Chiralities_Consistent>
1

> <s_lp_Variant>
344036-2

> <s_i_glide_gridfile>
glide-grid_1w7x

> <i_i_glide_lignum>
236

> <i_i_glide_rotatable_bonds>
12

> <r_i_docking_score>
-7.22519183004232

> <r_i_glide_ligand_efficiency>
-0.200699773056731

> <r_i_glide_ligand_efficiency_sa>
-0.662696048711393

> <r_i_glide_ligand_efficiency_ln>
-1.57634165519037

> <r_i_glide_gscore>
-7.22519183004232

> <r_i_glide_lipo>
-1.2027448475192

> <r_i_glide_hbond>
-0.750353180303713

> <r_i_glide_metal>
0

> <r_i_glide_rewards>
-0.695426109912407

> <r_i_glide_evdw>
-43.1886672973633

> <r_i_glide_ecoul>
-19.3559284210205

> <r_i_glide_erotb>
0.509463736012904

> <r_i_glide_esite>
-0.023308800298665

> <r_i_glide_emodel>
-86.7357384989445

> <r_i_glide_energy>
-62.5445957183838

> <r_i_glide_einternal>
10.2177267074585

> <i_i_glide_confnum>
10

> <i_i_glide_posenum>
177

> <r_i_glide_eff_state_penalty>
0

> <s_user_duplicate_titles>
344036

> <s_m_subgroup_title>
dock_pv

> <s_m_subgroupid>
dock_pv1

> <b_m_subgroup_collapsed>
0

$$$$
216915
                    3D
 Schrodinger Suite 2021-1.
 63 65  0  0  1  0            999 V2000
   11.5310   43.9632   31.8985 C   0  0  0  0  0  0
   11.8906   44.1094   33.2321 C   0  0  0  0  0  0
   11.4406   45.2113   33.9810 C   0  0  0  0  0  0
   10.5966   46.1410   33.3475 C   0  0  0  0  0  0
   10.2564   46.0079   32.0040 C   0  0  0  0  0  0
   10.7368   44.9237   31.2713 C   0  0  0  0  0  0
   10.3821   44.7687   29.7949 C   0  0  0  0  0  0
    9.7396   43.4906   29.4986 N   0  0  0  0  0  0
    8.4795   43.1809   29.8523 C   0  0  0  0  0  0
    7.6820   44.0035   30.3043 O   0  0  0  0  0  0
    8.0262   41.7250   29.6863 C   0  0  0  0  0  0
    9.0601   40.7877   30.2263 N   0  0  0  0  0  0
    9.3866   40.6550   31.5844 C   0  0  0  0  0  0
   10.5040   39.9637   31.9596 C   0  0  0  0  0  0
   11.2901   39.3014   31.0575 N   0  0  0  0  0  0
   10.9367   39.3127   29.8180 C   0  0  0  0  0  0
    9.7699   40.0777   29.2732 C   0  0  0  0  0  0
    9.4615   40.0792   28.0802 O   0  0  0  0  0  0
   11.6350   38.5390   28.8971 N   0  0  0  0  0  0
   12.6471   37.5282   29.1879 C   0  0  0  0  0  0
   14.0267   38.1010   29.4971 C   0  0  0  0  0  0
   15.1035   37.0487   29.7801 C   0  0  0  0  0  0
   16.2503   37.6786   30.3140 O   0  0  0  0  0  0
   10.9336   39.6794   33.6470 Cl  0  0  0  0  0  0
    8.4457   41.2277   32.5809 C   0  0  0  0  0  0
    7.1041   40.8346   32.5819 C   0  0  0  0  0  0
    6.1708   41.4117   33.4495 C   0  0  0  0  0  0
    6.6199   42.3718   34.3714 C   0  0  0  0  0  0
    7.9657   42.7396   34.4179 C   0  0  0  0  0  0
    8.8681   42.1668   33.5266 C   0  0  0  0  0  0
    8.4083   43.6854   35.3429 N   0  0  0  0  0  0
    4.7191   41.0081   33.3592 C   0  0  0  0  0  0
    4.3302   40.0788   32.6515 O   0  0  0  0  0  0
    3.8605   41.7609   34.0973 O   0  0  0  0  0  0
   11.8531   45.4181   35.3879 C   0  0  0  0  0  0
   11.1308   46.0757   36.1789 N   0  0  0  0  0  0
   13.0764   44.8790   35.6969 N   0  0  0  0  0  0
   11.8715   43.0951   31.3512 H   0  0  0  0  0  0
   12.5152   43.3469   33.6784 H   0  0  0  0  0  0
   10.2206   46.9987   33.8902 H   0  0  0  0  0  0
    9.6173   46.7468   31.5398 H   0  0  0  0  0  0
    9.7639   45.5977   29.4418 H   0  0  0  0  0  0
   11.3080   44.8122   29.2203 H   0  0  0  0  0  0
   10.3202   42.7739   29.0797 H   0  0  0  0  0  0
    7.0902   41.5902   30.2205 H   0  0  0  0  0  0
    7.7774   41.5731   28.6355 H   0  0  0  0  0  0
   11.3571   38.6009   27.9111 H   0  0  0  0  0  0
   12.3318   36.8953   30.0156 H   0  0  0  0  0  0
   12.7344   36.8710   28.3229 H   0  0  0  0  0  0
   14.3314   38.7025   28.6420 H   0  0  0  0  0  0
   13.9368   38.7706   30.3529 H   0  0  0  0  0  0
   14.7319   36.3173   30.4978 H   0  0  0  0  0  0
   15.3467   36.4831   28.8807 H   0  0  0  0  0  0
   16.5176   38.3843   29.7153 H   0  0  0  0  0  0
    6.7847   40.0874   31.8674 H   0  0  0  0  0  0
    5.9316   42.8459   35.0539 H   0  0  0  0  0  0
    9.9040   42.4569   33.5577 H   0  0  0  0  0  0
    7.7304   44.1956   35.8894 H   0  0  0  0  0  0
    9.3331   44.0786   35.2268 H   0  0  0  0  0  0
    2.9715   41.4611   33.9028 H   0  0  0  0  0  0
   11.5544   46.1659   37.0928 H   0  0  0  0  0  0
   13.5031   45.1110   36.5829 H   0  0  0  0  0  0
   13.6383   44.4205   34.9977 H   0  0  0  0  0  0
  1  6  1  0  0  0
  1  2  2  0  0  0
  1 38  1  0  0  0
  2  3  1  0  0  0
  2 39  1  0  0  0
  3  4  2  0  0  0
  3 35  1  0  0  0
  4  5  1  0  0  0
  4 40  1  0  0  0
  5  6  2  0  0  0
  5 41  1  0  0  0
  6  7  1  0  0  0
  7  8  1  0  0  0
  7 42  1  0  0  0
  7 43  1  0  0  0
  8  9  1  0  0  0
  8 44  1  0  0  0
  9 10  2  0  0  0
  9 11  1  0  0  0
 11 12  1  0  0  0
 11 45  1  0  0  0
 11 46  1  0  0  0
 12 17  1  0  0  0
 12 13  1  0  0  0
 13 14  2  0  0  0
 13 25  1  0  0  0
 14 15  1  0  0  0
 14 24  1  0  0  0
 15 16  2  0  0  0
 16 17  1  0  0  0
 16 19  1  0  0  0
 17 18  2  0  0  0
 19 20  1  0  0  0
 19 47  1  0  0  0
 20 21  1  0  0  0
 20 48  1  0  0  0
 20 49  1  0  0  0
 21 22  1  0  0  0
 21 50  1  0  0  0
 21 51  1  0  0  0
 22 23  1  0  0  0
 22 52  1  0  0  0
 22 53  1  0  0  0
 23 54  1  0  0  0
 25 30  1  0  0  0
 25 26  2  0  0  0
 26 27  1  0  0  0
 26 55  1  0  0  0
 27 28  2  0  0  0
 27 32  1  0  0  0
 28 29  1  0  0  0
 28 56  1  0  0  0
 29 30  2  0  0  0
 29 31  1  0  0  0
 30 57  1  0  0  0
 31 58  1  0  0  0
 31 59  1  0  0  0
 32 33  2  0  0  0
 32 34  1  0  0  0
 34 60  1  0  0  0
 35 36  2  3  0  0
 35 37  1  0  0  0
 36 61  1  0  0  0
 37 62  1  0  0  0
 37 63  1  0  0  0
M  END
> <s_m_entry_id>
21080

> <s_m_entry_name>
ligand_docking-pose.46

> <s_m_Source_Path>
/home/csk/Desktop/cluster/DUD-E-result/fa7

> <s_m_Source_File>
ligand_docking-pose.sdf

> <i_m_Source_File_Index>
46

> <i_lp_mmshare_version>
53161

> <i_f3d_flags>
0

> <r_lp_tautomer_probability>
1

> <s_lp_Force_Field>
OPLS_2005

> <r_lp_Energy>
25.414476

> <b_lp_Chiralities_Consistent>
1

> <s_lp_Variant>
216915-1

> <s_i_glide_gridfile>
glide-grid_1w7x

> <i_i_glide_lignum>
244

> <i_i_glide_rotatable_bonds>
14

> <r_i_docking_score>
-7.20284343020222

> <r_i_glide_ligand_efficiency>
-0.194671444059519

> <r_i_glide_ligand_efficiency_sa>
-0.648688439005817

> <r_i_glide_ligand_efficiency_ln>
-1.56212788140303

> <r_i_glide_gscore>
-7.20284343020222

> <r_i_glide_lipo>
-1.8917872425856

> <r_i_glide_hbond>
-0.63557404861789

> <r_i_glide_metal>
0

> <r_i_glide_rewards>
-0.246587397783651

> <r_i_glide_evdw>
-45.1187858581543

> <r_i_glide_ecoul>
-19.7299327850342

> <r_i_glide_erotb>
0.812879199760247

> <r_i_glide_esite>
-0.0263447303124827

> <r_i_glide_emodel>
-86.5077797000607

> <r_i_glide_energy>
-64.8487186431885

> <r_i_glide_einternal>
8.87054347991943

> <i_i_glide_confnum>
6

> <i_i_glide_posenum>
45

> <r_i_glide_eff_state_penalty>
0

> <s_user_duplicate_titles>
216915

> <s_m_subgroup_title>
dock_pv

> <s_m_subgroupid>
dock_pv1

> <b_m_subgroup_collapsed>
0

$$$$
344511
                    3D
 Schrodinger Suite 2021-1.
 58 61  0  0  1  0            999 V2000
    5.6243   38.1438   38.3228 C   0  0  0  0  0  0
    6.2607   38.8436   37.2961 C   0  0  0  0  0  0
    7.0141   39.9917   37.5742 C   0  0  0  0  0  0
    7.1203   40.3957   38.9123 C   0  0  0  0  0  0
    6.4731   39.7256   39.9547 C   0  0  0  0  0  0
    5.7184   38.5881   39.6422 C   0  0  0  0  0  0
    6.5599   40.2479   41.3402 N   0  3  0  0  0  0
    5.9387   39.6791   42.2302 O   0  5  0  0  0  0
    7.1948   41.2781   41.5409 O   0  0  0  0  0  0
    7.6519   40.8240   36.5022 C   0  0  0  0  0  0
    7.6426   42.2140   36.6609 C   0  0  0  0  0  0
    8.2629   43.1028   35.7798 C   0  0  0  0  0  0
    8.8389   42.5547   34.6292 C   0  0  0  0  0  0
    8.8959   41.1678   34.4324 C   0  0  0  0  0  0
    8.3223   40.2996   35.3806 C   0  0  0  0  0  0
    8.4603   38.9400   35.2411 O   0  0  0  0  0  0
    9.6624   40.6837   33.2481 C   0  0  0  0  0  0
    9.4324   41.1381   31.9710 N   0  0  0  0  0  0
   10.3071   40.4801   31.1423 C   0  0  0  0  0  0
   10.5154   40.4883   29.7703 C   0  0  0  0  0  0
   11.5230   39.6496   29.2970 C   0  0  0  0  0  0
   12.3165   38.8201   30.1110 C   0  0  0  0  0  0
   12.1041   38.8788   31.5020 C   0  0  0  0  0  0
   11.0748   39.6791   32.0137 C   0  0  0  0  0  0
   10.6396   39.8098   33.3026 N   0  0  0  0  0  0
   13.3548   37.9138   29.5334 C   0  0  0  0  0  0
   14.2565   37.4120   30.2582 N   0  0  0  0  0  0
   13.2256   37.6792   28.1859 N   0  0  0  0  0  0
    8.3895   44.5984   36.1914 C   0  0  1  0  0  0
    9.0802   45.5897   35.1875 C   0  0  0  0  0  0
   10.5276   46.0231   35.5618 C   0  0  0  0  0  0
   11.6305   44.9906   35.2973 C   0  0  0  0  0  0
   11.5111   44.0357   34.5377 O   0  0  0  0  0  0
   12.7684   45.2785   35.9870 O   0  0  0  0  0  0
    7.0448   45.1718   36.7091 C   0  0  0  0  0  0
    6.0005   45.1035   36.0641 O   0  0  0  0  0  0
    7.1311   45.6828   37.9748 O   0  0  0  0  0  0
    8.7211   41.8131   31.7360 H   0  0  0  0  0  0
    5.0403   37.2636   38.0950 H   0  0  0  0  0  0
    6.1352   38.5015   36.2789 H   0  0  0  0  0  0
    7.7001   41.2734   39.1497 H   0  0  0  0  0  0
    5.1897   38.0526   40.4191 H   0  0  0  0  0  0
    7.1610   42.6198   37.5281 H   0  0  0  0  0  0
    9.3248   43.1873   33.9056 H   0  0  0  0  0  0
    8.3098   38.4667   36.0632 H   0  0  0  0  0  0
    9.9335   41.1041   29.0995 H   0  0  0  0  0  0
   11.6927   39.6789   28.2352 H   0  0  0  0  0  0
   12.7002   38.2897   32.1838 H   0  0  0  0  0  0
   14.1940   37.7174   31.2159 H   0  0  0  0  0  0
   13.8644   37.0282   27.7460 H   0  0  0  0  0  0
   12.4752   38.0780   27.6358 H   0  0  0  0  0  0
    9.0445   44.5497   37.0641 H   0  0  0  0  0  0
    9.0180   45.2508   34.1545 H   0  0  0  0  0  0
    8.5120   46.5226   35.1437 H   0  0  0  0  0  0
   10.7957   46.8964   34.9657 H   0  0  0  0  0  0
   10.5596   46.3437   36.6051 H   0  0  0  0  0  0
   12.7561   46.1050   36.4860 H   0  0  0  0  0  0
    8.0231   45.6770   38.3557 H   0  0  0  0  0  0
  1  6  1  0  0  0
  1  2  2  0  0  0
  1 39  1  0  0  0
  2  3  1  0  0  0
  2 40  1  0  0  0
  3  4  2  0  0  0
  3 10  1  0  0  0
  4  5  1  0  0  0
  4 41  1  0  0  0
  5  6  2  0  0  0
  5  7  1  0  0  0
  6 42  1  0  0  0
  7  8  1  0  0  0
  7  9  2  0  0  0
 10 15  1  0  0  0
 10 11  2  0  0  0
 11 12  1  0  0  0
 11 43  1  0  0  0
 12 13  2  0  0  0
 12 29  1  0  0  0
 13 14  1  0  0  0
 13 44  1  0  0  0
 14 15  2  0  0  0
 14 17  1  0  0  0
 15 16  1  0  0  0
 16 45  1  0  0  0
 17 25  2  0  0  0
 17 18  1  0  0  0
 18 38  1  0  0  0
 18 19  1  0  0  0
 19 24  2  0  0  0
 19 20  1  0  0  0
 20 21  2  0  0  0
 20 46  1  0  0  0
 21 22  1  0  0  0
 21 47  1  0  0  0
 22 23  2  0  0  0
 22 26  1  0  0  0
 23 24  1  0  0  0
 23 48  1  0  0  0
 24 25  1  0  0  0
 26 27  2  3  0  0
 26 28  1  0  0  0
 27 49  1  0  0  0
 28 50  1  0  0  0
 28 51  1  0  0  0
 29 30  1  0  0  0
 29 35  1  0  0  0
 29 52  1  0  0  0
 30 31  1  0  0  0
 30 53  1  0  0  0
 30 54  1  0  0  0
 31 32  1  0  0  0
 31 55  1  0  0  0
 31 56  1  0  0  0
 32 33  2  0  0  0
 32 34  1  0  0  0
 34 57  1  0  0  0
 35 36  2  0  0  0
 35 37  1  0  0  0
 37 58  1  0  0  0
M  CHG  2   7   1   8  -1
M  END
> <s_m_entry_id>
21081

> <s_m_entry_name>
ligand_docking-pose.47

> <s_m_Source_Path>
/home/csk/Desktop/cluster/DUD-E-result/fa7

> <s_m_Source_File>
ligand_docking-pose.sdf

> <i_m_Source_File_Index>
47

> <i_lp_mmshare_version>
53161

> <i_f3d_flags>
0

> <r_lp_tautomer_probability>
0.999999999997365

> <s_lp_Force_Field>
OPLS_2005

> <r_lp_Energy>
34.30452

> <b_lp_Chiralities_Consistent>
1

> <s_lp_Variant>
344511-4

> <s_i_glide_gridfile>
glide-grid_1w7x

> <i_i_glide_lignum>
319

> <i_i_glide_rotatable_bonds>
12

> <r_i_docking_score>
-7.1957376639025

> <r_i_glide_ligand_efficiency>
-0.194479396321689

> <r_i_glide_ligand_efficiency_sa>
-0.64804849333803

> <r_i_glide_ligand_efficiency_ln>
-1.56058680727542

> <r_i_glide_gscore>
-7.1957376639025

> <r_i_glide_lipo>
-1.58233620241869

> <r_i_glide_hbond>
-0.370771583080928

> <r_i_glide_metal>
0

> <r_i_glide_rewards>
-0.816863376256873

> <r_i_glide_evdw>
-51.5292778015137

> <r_i_glide_ecoul>
-15.8145971298218

> <r_i_glide_erotb>
0.564475456124261

> <r_i_glide_esite>
-0.0415884987213228

> <r_i_glide_emodel>
-90.1164907401066

> <r_i_glide_energy>
-67.3438749313354

> <r_i_glide_einternal>
11.1577587127686

> <i_i_glide_confnum>
6

> <i_i_glide_posenum>
122

> <r_i_glide_eff_state_penalty>
0

> <s_user_duplicate_titles>
344511

> <s_m_subgroup_title>
dock_pv

> <s_m_subgroupid>
dock_pv1

> <b_m_subgroup_collapsed>
0

$$$$
121472
                    3D
 Schrodinger Suite 2021-1.
 64 67  0  0  1  0            999 V2000
    7.1032   45.5593   25.8157 C   0  0  0  0  0  0
    7.5610   46.8545   26.0465 C   0  0  0  0  0  0
    8.8151   47.0519   26.6200 C   0  0  0  0  0  0
    9.6222   45.9578   26.9564 C   0  0  0  0  0  0
    9.1586   44.6589   26.6957 C   0  0  0  0  0  0
    7.8982   44.4612   26.1379 C   0  0  0  0  0  0
   10.9740   46.2494   27.6205 C   0  0  0  0  0  0
   11.8905   45.0714   28.0354 C   0  0  0  0  0  0
   11.2616   44.0790   28.8972 N   0  0  0  0  0  0
   10.7985   44.2640   30.1913 C   0  0  0  0  0  0
    9.8597   43.2097   30.6814 C   0  0  0  0  0  0
    9.5141   42.2407   29.9914 O   0  0  0  0  0  0
    9.4193   43.4146   31.9840 N   0  0  0  0  0  0
    9.7838   44.5818   32.6690 C   0  0  0  0  0  0
   10.6512   45.4800   32.1119 C   0  0  0  0  0  0
   11.1688   45.3038   30.8577 N   0  0  0  0  0  0
   11.1295   46.9868   32.9121 Cl  0  0  0  0  0  0
    9.1734   44.8391   33.9926 C   0  0  0  0  0  0
    7.8309   45.2256   34.0774 C   0  0  0  0  0  0
    7.2476   45.4714   35.3178 C   0  0  0  0  0  0
    8.0097   45.3329   36.4742 C   0  0  0  0  0  0
    9.3473   44.9578   36.3958 C   0  0  0  0  0  0
    9.9304   44.7041   35.1583 C   0  0  0  0  0  0
    8.5000   42.3768   32.5392 C   0  0  0  0  0  0
    9.1918   41.0643   32.9736 C   0  0  0  0  0  0
    8.4992   40.2097   33.5229 O   0  0  0  0  0  0
   10.5010   40.8835   32.7236 N   0  0  0  0  0  0
   11.2553   39.6554   32.9680 C   0  0  0  0  0  0
   11.9312   39.0560   31.7365 C   0  0  0  0  0  0
   13.1066   38.3201   31.9044 C   0  0  0  0  0  0
   13.7971   37.8339   30.8037 C   0  0  0  0  0  0
   13.3477   38.0822   29.4963 C   0  0  0  0  0  0
   12.1355   38.7810   29.3479 C   0  0  0  0  0  0
   11.4379   39.2666   30.4482 C   0  0  0  0  0  0
   14.1795   37.6790   28.3334 C   0  0  0  0  0  0
   15.3661   37.2790   28.4971 N   0  0  0  0  0  0
   13.5332   37.6790   27.1212 N   0  0  0  0  0  0
    6.1264   45.4060   25.3803 H   0  0  0  0  0  0
    6.9405   47.7022   25.7902 H   0  0  0  0  0  0
    9.1536   48.0602   26.8089 H   0  0  0  0  0  0
    9.7556   43.7909   26.9243 H   0  0  0  0  0  0
    7.5408   43.4587   25.9521 H   0  0  0  0  0  0
   10.7746   46.8591   28.5036 H   0  0  0  0  0  0
   11.5346   46.8794   26.9344 H   0  0  0  0  0  0
   12.7593   45.4828   28.5509 H   0  0  0  0  0  0
   12.2858   44.5833   27.1434 H   0  0  0  0  0  0
   11.1297   43.1687   28.4583 H   0  0  0  0  0  0
    7.2421   45.3457   33.1795 H   0  0  0  0  0  0
    6.2139   45.7765   35.3802 H   0  0  0  0  0  0
    7.5719   45.5337   37.4428 H   0  0  0  0  0  0
    9.9309   44.8802   37.2969 H   0  0  0  0  0  0
   10.9721   44.4204   35.1062 H   0  0  0  0  0  0
    7.7399   42.1202   31.8001 H   0  0  0  0  0  0
    7.9594   42.7504   33.4057 H   0  0  0  0  0  0
   11.0263   41.6483   32.3252 H   0  0  0  0  0  0
   10.6473   38.8783   33.4329 H   0  0  0  0  0  0
   12.0201   39.9082   33.6969 H   0  0  0  0  0  0
   13.5161   38.1540   32.8907 H   0  0  0  0  0  0
   14.7207   37.3002   30.9792 H   0  0  0  0  0  0
   11.7425   39.0221   28.3753 H   0  0  0  0  0  0
   10.5309   39.8299   30.2884 H   0  0  0  0  0  0
   15.7551   36.9430   27.6243 H   0  0  0  0  0  0
   13.9884   37.2403   26.3240 H   0  0  0  0  0  0
   12.5941   38.0466   26.9955 H   0  0  0  0  0  0
  1  6  1  0  0  0
  1  2  2  0  0  0
  1 38  1  0  0  0
  2  3  1  0  0  0
  2 39  1  0  0  0
  3  4  2  0  0  0
  3 40  1  0  0  0
  4  5  1  0  0  0
  4  7  1  0  0  0
  5  6  2  0  0  0
  5 41  1  0  0  0
  6 42  1  0  0  0
  7  8  1  0  0  0
  7 43  1  0  0  0
  7 44  1  0  0  0
  8  9  1  0  0  0
  8 45  1  0  0  0
  8 46  1  0  0  0
  9 10  1  0  0  0
  9 47  1  0  0  0
 10 16  2  0  0  0
 10 11  1  0  0  0
 11 12  2  0  0  0
 11 13  1  0  0  0
 13 14  1  0  0  0
 13 24  1  0  0  0
 14 15  2  0  0  0
 14 18  1  0  0  0
 15 16  1  0  0  0
 15 17  1  0  0  0
 18 23  1  0  0  0
 18 19  2  0  0  0
 19 20  1  0  0  0
 19 48  1  0  0  0
 20 21  2  0  0  0
 20 49  1  0  0  0
 21 22  1  0  0  0
 21 50  1  0  0  0
 22 23  2  0  0  0
 22 51  1  0  0  0
 23 52  1  0  0  0
 24 25  1  0  0  0
 24 53  1  0  0  0
 24 54  1  0  0  0
 25 26  2  0  0  0
 25 27  1  0  0  0
 27 28  1  0  0  0
 27 55  1  0  0  0
 28 29  1  0  0  0
 28 56  1  0  0  0
 28 57  1  0  0  0
 29 34  1  0  0  0
 29 30  2  0  0  0
 30 31  1  0  0  0
 30 58  1  0  0  0
 31 32  2  0  0  0
 31 59  1  0  0  0
 32 33  1  0  0  0
 32 35  1  0  0  0
 33 34  2  0  0  0
 33 60  1  0  0  0
 34 61  1  0  0  0
 35 36  2  3  0  0
 35 37  1  0  0  0
 36 62  1  0  0  0
 37 63  1  0  0  0
 37 64  1  0  0  0
M  END
> <s_m_entry_id>
21084

> <s_m_entry_name>
ligand_docking-pose.50

> <s_m_Source_Path>
/home/csk/Desktop/cluster/DUD-E-result/fa7

> <s_m_Source_File>
ligand_docking-pose.sdf

> <i_m_Source_File_Index>
50

> <i_lp_mmshare_version>
53161

> <i_f3d_flags>
0

> <r_lp_tautomer_probability>
1

> <s_lp_Force_Field>
OPLS_2005

> <r_lp_Energy>
26.489516

> <b_lp_Chiralities_Consistent>
1

> <s_lp_Variant>
121472-1

> <s_i_glide_gridfile>
glide-grid_1w7x

> <i_i_glide_lignum>
202

> <i_i_glide_rotatable_bonds>
11

> <r_i_docking_score>
-7.13181448666009

> <r_i_glide_ligand_efficiency>
-0.192751742882705

> <r_i_glide_ligand_efficiency_sa>
-0.642291568803505

> <r_i_glide_ligand_efficiency_ln>
-1.54672336870344

> <r_i_glide_gscore>
-7.13181448666009

> <r_i_glide_lipo>
-2.80611264153369

> <r_i_glide_hbond>
-0.69781180790188

> <r_i_glide_metal>
0

> <r_i_glide_rewards>
-0.461927532634308

> <r_i_glide_evdw>
-45.0144577026367

> <r_i_glide_ecoul>
-10.2240896224976

> <r_i_glide_erotb>
0.696173436444724

> <r_i_glide_esite>
-0.0777996125284603

> <r_i_glide_emodel>
-75.7193067940324

> <r_i_glide_energy>
-55.2385473251343

> <r_i_glide_einternal>
5.4886679649353

> <i_i_glide_confnum>
2

> <i_i_glide_posenum>
281

> <r_i_glide_eff_state_penalty>
0

> <s_user_duplicate_titles>
121472

> <s_m_subgroup_title>
dock_pv

> <s_m_subgroupid>
dock_pv1

> <b_m_subgroup_collapsed>
0

$$$$
342800
                    3D
 Schrodinger Suite 2021-1.
 54 57  0  0  1  0            999 V2000
   12.1123   38.7957   29.1110 C   0  0  0  0  0  0
   11.0409   39.6464   29.3746 C   0  0  0  0  0  0
   10.7686   39.8880   30.7160 C   0  0  0  0  0  0
   11.5310   39.3135   31.7586 C   0  0  0  0  0  0
   12.6159   38.4790   31.4555 C   0  0  0  0  0  0
   12.9150   38.2194   30.1067 C   0  0  0  0  0  0
   14.0458   37.3442   29.7518 C   0  0  0  0  0  0
   14.3310   36.3825   30.4970 N   0  0  0  0  0  0
   14.6958   37.6790   28.5913 N   0  0  0  0  0  0
   11.0366   39.6790   32.9804 N   0  0  0  0  0  0
    9.9943   40.4310   32.7199 C   0  0  0  0  0  0
    9.8132   40.6248   31.3691 N   0  0  0  0  0  0
    9.0680   40.9880   33.7522 C   0  0  0  0  0  0
    8.5863   42.2845   33.5555 C   0  0  0  0  0  0
    7.7245   42.8864   34.4719 C   0  0  0  0  0  0
    7.3509   42.1591   35.6082 C   0  0  0  0  0  0
    7.8046   40.8557   35.8451 C   0  0  0  0  0  0
    8.6706   40.2736   34.8972 C   0  0  0  0  0  0
    9.1416   39.0024   35.1115 O   0  0  0  0  0  0
    7.4007   40.1744   37.1232 C   0  0  0  0  0  0
    7.5174   40.8790   38.3343 C   0  0  0  0  0  0
    7.1309   40.3105   39.5476 C   0  0  0  0  0  0
    6.6459   39.0079   39.5772 C   0  0  0  0  0  0
    6.5301   38.2823   38.3945 C   0  0  0  0  0  0
    6.8902   38.8592   37.1750 C   0  0  0  0  0  0
    6.7167   38.1053   36.0429 O   0  0  0  0  0  0
    7.2063   41.0268   40.6922 F   0  0  0  0  0  0
    7.2985   44.3553   34.2423 C   0  0  2  0  0  0
    8.2354   45.3799   34.9227 C   0  0  0  0  0  0
    8.2806   45.2737   36.4405 C   0  0  0  0  0  0
    7.3478   44.9414   37.1687 O   0  0  0  0  0  0
    9.5042   45.6515   36.8970 O   0  0  0  0  0  0
    5.8171   44.6706   34.4922 C   0  0  0  0  0  0
    4.9825   43.8638   34.8970 O   0  0  0  0  0  0
    5.5078   45.9557   34.1541 O   0  0  0  0  0  0
    9.0604   41.1698   30.9777 H   0  0  0  0  0  0
   12.3310   38.5854   28.0786 H   0  0  0  0  0  0
   10.4615   40.0789   28.5711 H   0  0  0  0  0  0
   13.2085   38.0651   32.2597 H   0  0  0  0  0  0
   13.6952   36.2901   31.2763 H   0  0  0  0  0  0
   15.3682   37.0361   28.1975 H   0  0  0  0  0  0
   14.4750   38.5279   28.0970 H   0  0  0  0  0  0
    8.9107   42.8461   32.6908 H   0  0  0  0  0  0
    6.7131   42.6262   36.3418 H   0  0  0  0  0  0
    8.5088   38.4957   35.6346 H   0  0  0  0  0  0
    7.9128   41.8856   38.3481 H   0  0  0  0  0  0
    6.3548   38.5630   40.5167 H   0  0  0  0  0  0
    6.1509   37.2711   38.4346 H   0  0  0  0  0  0
    6.3694   37.2307   36.2380 H   0  0  0  0  0  0
    7.4101   44.5239   33.1672 H   0  0  0  0  0  0
    9.2421   45.1964   34.5353 H   0  0  0  0  0  0
    7.9877   46.4094   34.6557 H   0  0  0  0  0  0
    9.5310   45.6789   37.8748 H   0  0  0  0  0  0
    6.2650   46.4530   33.8426 H   0  0  0  0  0  0
  1  6  1  0  0  0
  1  2  2  0  0  0
  1 37  1  0  0  0
  2  3  1  0  0  0
  2 38  1  0  0  0
  3 12  1  0  0  0
  3  4  2  0  0  0
  4  5  1  0  0  0
  4 10  1  0  0  0
  5  6  2  0  0  0
  5 39  1  0  0  0
  6  7  1  0  0  0
  7  8  2  3  0  0
  7  9  1  0  0  0
  8 40  1  0  0  0
  9 41  1  0  0  0
  9 42  1  0  0  0
 10 11  2  0  0  0
 11 12  1  0  0  0
 11 13  1  0  0  0
 12 36  1  0  0  0
 13 18  1  0  0  0
 13 14  2  0  0  0
 14 15  1  0  0  0
 14 43  1  0  0  0
 15 16  2  0  0  0
 15 28  1  0  0  0
 16 17  1  0  0  0
 16 44  1  0  0  0
 17 18  2  0  0  0
 17 20  1  0  0  0
 18 19  1  0  0  0
 19 45  1  0  0  0
 20 25  1  0  0  0
 20 21  2  0  0  0
 21 22  1  0  0  0
 21 46  1  0  0  0
 22 23  2  0  0  0
 22 27  1  0  0  0
 23 24  1  0  0  0
 23 47  1  0  0  0
 24 25  2  0  0  0
 24 48  1  0  0  0
 25 26  1  0  0  0
 26 49  1  0  0  0
 28 29  1  0  0  0
 28 33  1  0  0  0
 28 50  1  0  0  0
 29 30  1  0  0  0
 29 51  1  0  0  0
 29 52  1  0  0  0
 30 31  2  0  0  0
 30 32  1  0  0  0
 32 53  1  0  0  0
 33 34  2  0  0  0
 33 35  1  0  0  0
 35 54  1  0  0  0
M  END
> <s_m_entry_id>
21085

> <s_m_entry_name>
ligand_docking-pose.51

> <s_m_Source_Path>
/home/csk/Desktop/cluster/DUD-E-result/fa7

> <s_m_Source_File>
ligand_docking-pose.sdf

> <i_m_Source_File_Index>
51

> <i_lp_mmshare_version>
53161

> <i_f3d_flags>
0

> <r_lp_tautomer_probability>
0.99999999999473

> <s_lp_Force_Field>
OPLS_2005

> <r_lp_Energy>
25.602487

> <b_lp_Chiralities_Consistent>
1

> <s_lp_Variant>
342800-2

> <s_i_glide_gridfile>
glide-grid_1w7x

> <i_i_glide_lignum>
46

> <i_i_glide_rotatable_bonds>
11

> <r_i_docking_score>
-7.12808729317168

> <r_i_glide_ligand_efficiency>
-0.203659636947762

> <r_i_glide_ligand_efficiency_sa>
-0.666184176375559

> <r_i_glide_ligand_efficiency_ln>
-1.5647733602251

> <r_i_glide_gscore>
-7.12808729317168

> <r_i_glide_lipo>
-1.59424173469474

> <r_i_glide_hbond>
-0.387417221869279

> <r_i_glide_metal>
0

> <r_i_glide_rewards>
-1.23102676327707

> <r_i_glide_evdw>
-40.7167816162109

> <r_i_glide_ecoul>
-15.618408203125

> <r_i_glide_erotb>
0.531189330825976

> <r_i_glide_esite>
-0.0679905928772704

> <r_i_glide_emodel>
-80.490050719597

> <r_i_glide_energy>
-56.3351898193359

> <r_i_glide_einternal>
7.30201292037964

> <i_i_glide_confnum>
13

> <i_i_glide_posenum>
368

> <r_i_glide_eff_state_penalty>
0

> <s_user_duplicate_titles>
342800

> <s_m_subgroup_title>
dock_pv

> <s_m_subgroupid>
dock_pv1

> <b_m_subgroup_collapsed>
0

$$$$
348124
                    3D
 Schrodinger Suite 2021-1.
 55 59  0  0  1  0            999 V2000
    8.4439   36.8792   37.2970 C   0  0  0  0  0  0
    7.1331   36.4028   37.2955 C   0  0  0  0  0  0
    6.0833   37.2459   37.6581 C   0  0  0  0  0  0
    6.3383   38.5738   37.9976 C   0  0  0  0  0  0
    7.6555   39.0636   37.9680 C   0  0  0  0  0  0
    8.7104   38.2025   37.6516 C   0  0  0  0  0  0
    7.9558   40.4017   38.2543 N   0  0  0  0  0  0
    7.4877   41.4263   37.5225 C   0  0  0  0  0  0
    6.7162   41.2889   36.5721 O   0  0  0  0  0  0
    7.9310   42.6225   37.9414 N   0  0  0  0  0  0
    7.7979   43.8801   37.1925 C   0  0  0  0  0  0
    8.7759   43.9964   36.0287 C   0  0  0  0  0  0
    9.8595   44.8771   36.0954 C   0  0  0  0  0  0
   10.7809   44.9283   35.0501 C   0  0  0  0  0  0
   10.6254   44.0956   33.9387 C   0  0  0  0  0  0
    9.5290   43.2279   33.8414 C   0  0  0  0  0  0
    8.5921   43.2230   34.8764 C   0  0  0  0  0  0
    9.3800   42.2734   32.7012 C   0  0  0  0  0  0
    8.2022   42.2621   31.9464 C   0  0  0  0  0  0
    8.0432   41.3755   30.8840 C   0  0  0  0  0  0
    9.0600   40.4824   30.5593 C   0  0  0  0  0  0
   10.2488   40.4568   31.2997 C   0  0  0  0  0  0
   10.3921   41.3510   32.3785 C   0  0  0  0  0  0
   11.5312   41.3334   33.1389 O   0  0  0  0  0  0
   11.3402   39.5119   30.8893 C   0  0  0  0  0  0
   12.3280   38.8789   31.6392 C   0  0  0  0  0  0
   13.2528   38.2904   30.7261 C   0  0  0  0  0  0
   14.5071   37.6792   30.8345 C   0  0  0  0  0  0
   15.2210   37.2789   29.7572 N   0  0  0  0  0  0
   14.6884   37.4733   28.5291 C   0  0  0  0  0  0
   13.4422   38.0570   28.2895 C   0  0  0  0  0  0
   12.7330   38.4785   29.4208 C   0  0  0  0  0  0
   11.5567   39.1761   29.5661 N   0  0  0  0  0  0
    5.2999   39.3702   38.3469 F   0  0  0  0  0  0
   10.9813   39.5302   28.8155 H   0  0  0  0  0  0
    9.2534   36.2118   37.0379 H   0  0  0  0  0  0
    6.9342   35.3732   37.0361 H   0  0  0  0  0  0
    5.0708   36.8710   37.6795 H   0  0  0  0  0  0
    9.7299   38.5572   37.6569 H   0  0  0  0  0  0
    8.7197   40.5868   38.8913 H   0  0  0  0  0  0
    8.5825   42.6393   38.7169 H   0  0  0  0  0  0
    6.7857   43.9798   36.7996 H   0  0  0  0  0  0
    7.9305   44.7157   37.8826 H   0  0  0  0  0  0
   10.0071   45.5028   36.9655 H   0  0  0  0  0  0
   11.6291   45.5968   35.1112 H   0  0  0  0  0  0
   11.3678   44.1161   33.1534 H   0  0  0  0  0  0
    7.7441   42.5613   34.8025 H   0  0  0  0  0  0
    7.4067   42.9567   32.1763 H   0  0  0  0  0  0
    7.1302   41.3880   30.3046 H   0  0  0  0  0  0
    8.9139   39.8095   29.7258 H   0  0  0  0  0  0
   12.2198   40.7697   32.7744 H   0  0  0  0  0  0
   12.4315   38.9057   32.7161 H   0  0  0  0  0  0
   15.0071   37.6291   31.7825 H   0  0  0  0  0  0
   15.2832   37.1188   27.6987 H   0  0  0  0  0  0
   13.0819   38.1916   27.2851 H   0  0  0  0  0  0
  1  6  1  0  0  0
  1  2  2  0  0  0
  1 36  1  0  0  0
  2  3  1  0  0  0
  2 37  1  0  0  0
  3  4  2  0  0  0
  3 38  1  0  0  0
  4  5  1  0  0  0
  4 34  1  0  0  0
  5  6  2  0  0  0
  5  7  1  0  0  0
  6 39  1  0  0  0
  7  8  1  0  0  0
  7 40  1  0  0  0
  8  9  2  0  0  0
  8 10  1  0  0  0
 10 11  1  0  0  0
 10 41  1  0  0  0
 11 12  1  0  0  0
 11 42  1  0  0  0
 11 43  1  0  0  0
 12 17  1  0  0  0
 12 13  2  0  0  0
 13 14  1  0  0  0
 13 44  1  0  0  0
 14 15  2  0  0  0
 14 45  1  0  0  0
 15 16  1  0  0  0
 15 46  1  0  0  0
 16 17  2  0  0  0
 16 18  1  0  0  0
 17 47  1  0  0  0
 18 23  1  0  0  0
 18 19  2  0  0  0
 19 20  1  0  0  0
 19 48  1  0  0  0
 20 21  2  0  0  0
 20 49  1  0  0  0
 21 22  1  0  0  0
 21 50  1  0  0  0
 22 23  2  0  0  0
 22 25  1  0  0  0
 23 24  1  0  0  0
 24 51  1  0  0  0
 25 26  2  0  0  0
 25 33  1  0  0  0
 26 27  1  0  0  0
 26 52  1  0  0  0
 27 28  1  0  0  0
 27 32  2  0  0  0
 28 29  2  0  0  0
 28 53  1  0  0  0
 29 30  1  0  0  0
 30 31  2  0  0  0
 30 54  1  0  0  0
 31 55  1  0  0  0
 31 32  1  0  0  0
 32 33  1  0  0  0
 33 35  1  0  0  0
M  END
> <s_m_entry_id>
21086

> <s_m_entry_name>
ligand_docking-pose.52

> <s_m_Source_Path>
/home/csk/Desktop/cluster/DUD-E-result/fa7

> <s_m_Source_File>
ligand_docking-pose.sdf

> <i_m_Source_File_Index>
52

> <i_lp_mmshare_version>
53161

> <i_f3d_flags>
0

> <r_lp_tautomer_probability>
0.999931356944416

> <s_lp_Force_Field>
OPLS_2005

> <r_lp_Energy>
27.442422

> <b_lp_Chiralities_Consistent>
1

> <s_lp_Variant>
348124-1

> <s_i_glide_gridfile>
glide-grid_1w7x

> <i_i_glide_lignum>
292

> <i_i_glide_rotatable_bonds>
8

> <r_i_docking_score>
-7.11112883365197

> <r_i_glide_ligand_efficiency>
-0.209150848048587

> <r_i_glide_ligand_efficiency_sa>
-0.677567554788948

> <r_i_glide_ligand_efficiency_ln>
-1.57104781976133

> <r_i_glide_gscore>
-7.11112883365197

> <r_i_glide_lipo>
-2.50357311734311

> <r_i_glide_hbond>
-0.680122300077683

> <r_i_glide_metal>
0

> <r_i_glide_rewards>
-0.314984515833295

> <r_i_glide_evdw>
-47.1748237609863

> <r_i_glide_ecoul>
-11.1524257659912

> <r_i_glide_erotb>
0.588033419987007

> <r_i_glide_esite>
-0.168877267436892

> <r_i_glide_emodel>
-79.4820239165236

> <r_i_glide_energy>
-58.3272495269775

> <r_i_glide_einternal>
5.85277414321899

> <i_i_glide_confnum>
23

> <i_i_glide_posenum>
174

> <r_i_glide_eff_state_penalty>
0

> <s_user_duplicate_titles>
348124

> <s_m_subgroup_title>
dock_pv

> <s_m_subgroupid>
dock_pv1

> <b_m_subgroup_collapsed>
0

$$$$
216304
                    3D
 Schrodinger Suite 2021-1.
 63 65  0  0  1  0            999 V2000
   12.1708   45.1795   26.5363 C   0  0  0  0  0  0
   11.0262   46.2051   26.4735 C   0  0  0  0  0  0
    9.5944   45.6120   26.5899 C   0  0  0  0  0  0
    8.4923   46.6970   26.5818 C   0  0  0  0  0  0
    8.3970   47.5101   25.2817 C   0  0  0  0  0  0
    9.3981   44.6834   27.7083 N   0  0  0  0  0  0
    9.7033   44.8542   29.0572 C   0  0  0  0  0  0
    9.2850   43.7274   29.9459 C   0  0  0  0  0  0
    8.6330   42.7554   29.5362 O   0  0  0  0  0  0
    9.6970   43.8773   31.2650 N   0  0  0  0  0  0
   10.3924   45.0261   31.6661 C   0  0  0  0  0  0
   10.6616   46.0191   30.7681 C   0  0  0  0  0  0
   10.3128   45.9192   29.4506 N   0  0  0  0  0  0
   11.5292   47.5021   31.1884 Cl  0  0  0  0  0  0
   10.8143   45.1391   33.0831 C   0  0  0  0  0  0
   11.8758   44.3689   33.5748 C   0  0  0  0  0  0
   12.2845   44.4906   34.8981 C   0  0  0  0  0  0
   11.6313   45.3931   35.7326 C   0  0  0  0  0  0
   10.5687   46.1566   35.2601 C   0  0  0  0  0  0
   10.1611   46.0332   33.9361 C   0  0  0  0  0  0
    9.3735   42.7410   32.1700 C   0  0  0  0  0  0
   10.4919   41.6834   32.1237 C   0  0  0  0  0  0
   11.5310   41.8937   31.5027 O   0  0  0  0  0  0
   10.2647   40.5383   32.7847 N   0  0  0  0  0  0
   11.2295   39.4398   32.9418 C   0  0  0  0  0  0
   11.9306   38.8792   31.6933 C   0  0  0  0  0  0
   13.1374   38.2024   31.8434 C   0  0  0  0  0  0
   13.8566   37.8003   30.7263 C   0  0  0  0  0  0
   13.3886   38.0632   29.4267 C   0  0  0  0  0  0
   12.1392   38.6905   29.2983 C   0  0  0  0  0  0
   11.4157   39.0842   30.4122 C   0  0  0  0  0  0
   14.2065   37.6790   28.2486 C   0  0  0  0  0  0
   15.3956   37.2791   28.3953 N   0  0  0  0  0  0
   13.5343   37.6790   27.0487 N   0  0  0  0  0  0
   13.1336   45.6791   26.5091 H   0  0  0  0  0  0
   12.1416   44.5893   27.4521 H   0  0  0  0  0  0
   12.1413   44.4890   25.6974 H   0  0  0  0  0  0
   11.1109   46.7364   25.5266 H   0  0  0  0  0  0
   11.1792   46.9579   27.2463 H   0  0  0  0  0  0
    9.4522   45.0009   25.6970 H   0  0  0  0  0  0
    7.5237   46.2243   26.7528 H   0  0  0  0  0  0
    8.6408   47.3753   27.4232 H   0  0  0  0  0  0
    7.5699   48.2194   25.3287 H   0  0  0  0  0  0
    9.3059   48.0795   25.0967 H   0  0  0  0  0  0
    8.2275   46.8650   24.4189 H   0  0  0  0  0  0
    8.7152   43.9591   27.5344 H   0  0  0  0  0  0
   12.4079   43.6945   32.9240 H   0  0  0  0  0  0
   13.1140   43.9060   35.2694 H   0  0  0  0  0  0
   11.9574   45.5167   36.7563 H   0  0  0  0  0  0
   10.0778   46.8630   35.9127 H   0  0  0  0  0  0
    9.3458   46.6415   33.5715 H   0  0  0  0  0  0
    8.4286   42.2679   31.8992 H   0  0  0  0  0  0
    9.2505   43.0925   33.1934 H   0  0  0  0  0  0
    9.3998   40.4496   33.2954 H   0  0  0  0  0  0
   10.7158   38.6300   33.4566 H   0  0  0  0  0  0
   11.9906   39.7810   33.6450 H   0  0  0  0  0  0
   13.5505   38.0347   32.8278 H   0  0  0  0  0  0
   14.8061   37.3086   30.8843 H   0  0  0  0  0  0
   11.7297   38.9400   28.3344 H   0  0  0  0  0  0
   10.4769   39.5956   30.2632 H   0  0  0  0  0  0
   15.7738   36.9432   27.5177 H   0  0  0  0  0  0
   13.9795   37.2413   26.2454 H   0  0  0  0  0  0
   12.5970   38.0573   26.9365 H   0  0  0  0  0  0
  1  2  1  0  0  0
  1 35  1  0  0  0
  1 36  1  0  0  0
  1 37  1  0  0  0
  2  3  1  0  0  0
  2 38  1  0  0  0
  2 39  1  0  0  0
  3  4  1  0  0  0
  3  6  1  0  0  0
  3 40  1  0  0  0
  4  5  1  0  0  0
  4 41  1  0  0  0
  4 42  1  0  0  0
  5 43  1  0  0  0
  5 44  1  0  0  0
  5 45  1  0  0  0
  6  7  1  0  0  0
  6 46  1  0  0  0
  7 13  2  0  0  0
  7  8  1  0  0  0
  8  9  2  0  0  0
  8 10  1  0  0  0
 10 11  1  0  0  0
 10 21  1  0  0  0
 11 12  2  0  0  0
 11 15  1  0  0  0
 12 13  1  0  0  0
 12 14  1  0  0  0
 15 20  1  0  0  0
 15 16  2  0  0  0
 16 17  1  0  0  0
 16 47  1  0  0  0
 17 18  2  0  0  0
 17 48  1  0  0  0
 18 19  1  0  0  0
 18 49  1  0  0  0
 19 20  2  0  0  0
 19 50  1  0  0  0
 20 51  1  0  0  0
 21 22  1  0  0  0
 21 52  1  0  0  0
 21 53  1  0  0  0
 22 23  2  0  0  0
 22 24  1  0  0  0
 24 25  1  0  0  0
 24 54  1  0  0  0
 25 26  1  0  0  0
 25 55  1  0  0  0
 25 56  1  0  0  0
 26 31  1  0  0  0
 26 27  2  0  0  0
 27 28  1  0  0  0
 27 57  1  0  0  0
 28 29  2  0  0  0
 28 58  1  0  0  0
 29 30  1  0  0  0
 29 32  1  0  0  0
 30 31  2  0  0  0
 30 59  1  0  0  0
 31 60  1  0  0  0
 32 33  2  3  0  0
 32 34  1  0  0  0
 33 61  1  0  0  0
 34 62  1  0  0  0
 34 63  1  0  0  0
M  END
> <s_m_entry_id>
21088

> <s_m_entry_name>
ligand_docking-pose.54

> <s_m_Source_Path>
/home/csk/Desktop/cluster/DUD-E-result/fa7

> <s_m_Source_File>
ligand_docking-pose.sdf

> <i_m_Source_File_Index>
54

> <i_lp_mmshare_version>
53161

> <i_f3d_flags>
0

> <r_lp_tautomer_probability>
1

> <s_lp_Force_Field>
OPLS_2005

> <r_lp_Energy>
24.280237

> <b_lp_Chiralities_Consistent>
1

> <s_lp_Variant>
216304-1

> <s_i_glide_gridfile>
glide-grid_1w7x

> <i_i_glide_lignum>
554

> <i_i_glide_rotatable_bonds>
11

> <r_i_docking_score>
-7.07593491241788

> <r_i_glide_ligand_efficiency>
-0.208115732718173

> <r_i_glide_ligand_efficiency_sa>
-0.674214182952796

> <r_i_glide_ligand_efficiency_ln>
-1.56327249540467

> <r_i_glide_gscore>
-7.07593491241788

> <r_i_glide_lipo>
-3.11730390781882

> <r_i_glide_hbond>
-0.459783664534119

> <r_i_glide_metal>
0

> <r_i_glide_rewards>
-0.716840402603998

> <r_i_glide_evdw>
-45.700023651123

> <r_i_glide_ecoul>
-7.57918310165405

> <r_i_glide_erotb>
0.701378191536

> <r_i_glide_esite>
-0.0615064811926851

> <r_i_glide_emodel>
-73.4260307624708

> <r_i_glide_energy>
-53.2792067527771

> <r_i_glide_einternal>
6.02200746536255

> <i_i_glide_confnum>
17

> <i_i_glide_posenum>
149

> <r_i_glide_eff_state_penalty>
0

> <s_user_duplicate_titles>
216304

> <s_m_subgroup_title>
dock_pv

> <s_m_subgroupid>
dock_pv1

> <b_m_subgroup_collapsed>
0

$$$$
510976
                    3D
 Schrodinger Suite 2021-1.
 77 78  0  0  1  0            999 V2000
   12.1371   45.5197   26.9954 C   0  0  0  0  0  0
   11.9381   45.8461   28.4859 C   0  0  0  0  0  0
   10.4583   45.7668   28.9270 C   0  0  2  0  0  0
   10.2394   46.6009   30.2103 C   0  0  0  0  0  0
    9.9511   44.2851   28.9598 C   0  0  1  0  0  0
   10.4078   43.5135   30.2266 C   0  0  0  0  0  0
   11.3007   42.6779   30.0973 O   0  0  0  0  0  0
    9.8163   43.7964   31.4074 N   0  0  0  0  0  0
   10.1233   43.1467   32.6873 C   0  0  1  0  0  0
    9.3544   43.8277   33.8487 C   0  0  0  0  0  0
    7.8143   43.9044   33.7004 C   0  0  0  0  0  0
    7.1271   44.4078   34.9749 C   0  0  0  0  0  0
    6.3369   43.6901   35.5907 O   0  0  0  0  0  0
    7.4117   45.6458   35.3780 N   0  0  0  0  0  0
    9.8924   41.6261   32.6354 C   0  0  0  0  0  0
    8.7906   41.1922   32.2996 O   0  0  0  0  0  0
   10.9455   40.8512   32.9383 N   0  0  0  0  0  0
   10.9492   39.4042   32.7551 C   0  0  0  0  0  0
   11.9076   38.9619   31.6617 C   0  0  0  0  0  0
   11.5114   39.0753   30.3317 C   0  0  0  0  0  0
   12.3518   38.6350   29.3219 C   0  0  0  0  0  0
   13.6108   38.0765   29.6170 C   0  0  0  0  0  0
   13.9641   37.9331   30.9676 C   0  0  0  0  0  0
   13.1291   38.3734   31.9781 C   0  0  0  0  0  0
   14.5714   37.6650   28.5630 C   0  0  0  0  0  0
   15.7384   37.2792   28.8536 N   0  0  0  0  0  0
   14.0574   37.6788   27.2951 N   0  0  0  0  0  0
    8.4733   44.2110   28.8382 N   0  0  1  0  0  0
    7.7288   42.8630   27.9890 S   0  0  0  0  0  0
    8.6200   42.4797   26.8879 O   0  0  0  0  0  0
    6.3379   43.2457   27.7328 O   0  0  0  0  0  0
    7.7478   41.4742   29.2653 C   0  0  0  0  0  0
    7.0169   40.2292   28.7677 C   0  0  0  0  0  0
    7.8185   39.2141   28.2284 C   0  0  0  0  0  0
    7.2517   38.0620   27.6975 C   0  0  0  0  0  0
    5.8718   37.9076   27.6969 C   0  0  0  0  0  0
    5.0585   38.9120   28.2139 C   0  0  0  0  0  0
    5.6043   40.0786   28.7793 C   0  0  0  0  0  0
    4.6583   41.1035   29.3806 C   0  0  0  0  0  0
    4.9869   41.9285   30.2266 O   0  0  0  0  0  0
    3.3811   41.0378   28.9152 O   0  0  0  0  0  0
    9.8858   46.2746   28.1472 H   0  0  0  0  0  0
   10.3583   43.7548   28.0999 H   0  0  0  0  0  0
   11.1875   43.3141   32.8653 H   0  0  0  0  0  0
   13.1660   45.6796   26.6924 H   0  0  0  0  0  0
   11.9144   44.4791   26.7689 H   0  0  0  0  0  0
   11.5015   46.1394   26.3628 H   0  0  0  0  0  0
   12.3248   46.8471   28.6774 H   0  0  0  0  0  0
   12.5505   45.1802   29.0974 H   0  0  0  0  0  0
   10.8890   46.2784   31.0244 H   0  0  0  0  0  0
   10.4635   47.6525   30.0292 H   0  0  0  0  0  0
    9.2052   46.5463   30.5497 H   0  0  0  0  0  0
    9.0872   44.4894   31.4318 H   0  0  0  0  0  0
    9.5933   43.2993   34.7722 H   0  0  0  0  0  0
    9.7520   44.8344   33.9838 H   0  0  0  0  0  0
    7.5403   44.5521   32.8673 H   0  0  0  0  0  0
    7.3944   42.9253   33.4756 H   0  0  0  0  0  0
    6.9906   46.0075   36.2214 H   0  0  0  0  0  0
    8.0560   46.2268   34.8609 H   0  0  0  0  0  0
   11.8251   41.2750   33.2056 H   0  0  0  0  0  0
   11.1311   38.8930   33.6960 H   0  0  0  0  0  0
    9.9589   39.0533   32.4711 H   0  0  0  0  0  0
   10.5632   39.5263   30.0786 H   0  0  0  0  0  0
   12.0219   38.7833   28.3059 H   0  0  0  0  0  0
   14.9126   37.5123   31.2621 H   0  0  0  0  0  0
   13.4660   38.2864   32.9977 H   0  0  0  0  0  0
   15.9475   37.3548   29.8352 H   0  0  0  0  0  0
   14.5855   37.2016   26.5687 H   0  0  0  0  0  0
   13.0870   37.8936   27.1197 H   0  0  0  0  0  0
    7.9080   44.6770   29.5508 H   0  0  0  0  0  0
    7.3525   41.8574   30.1997 H   0  0  0  0  0  0
    8.7959   41.2551   29.4574 H   0  0  0  0  0  0
    8.8933   39.3232   28.1942 H   0  0  0  0  0  0
    7.8790   37.2914   27.2705 H   0  0  0  0  0  0
    5.4369   37.0154   27.2706 H   0  0  0  0  0  0
    3.9904   38.7600   28.1685 H   0  0  0  0  0  0
    2.8873   41.7610   29.3023 H   0  0  0  0  0  0
  1  2  1  0  0  0
  1 45  1  0  0  0
  1 46  1  0  0  0
  1 47  1  0  0  0
  2  3  1  0  0  0
  2 48  1  0  0  0
  2 49  1  0  0  0
  3 42  1  0  0  0
  3  4  1  0  0  0
  3  5  1  0  0  0
  4 50  1  0  0  0
  4 51  1  0  0  0
  4 52  1  0  0  0
  5 43  1  0  0  0
  5  6  1  0  0  0
  5 28  1  0  0  0
  6  7  2  0  0  0
  6  8  1  0  0  0
  8  9  1  0  0  0
  8 53  1  0  0  0
  9 44  1  0  0  0
  9 10  1  0  0  0
  9 15  1  0  0  0
 10 11  1  0  0  0
 10 54  1  0  0  0
 10 55  1  0  0  0
 11 12  1  0  0  0
 11 56  1  0  0  0
 11 57  1  0  0  0
 12 13  2  0  0  0
 12 14  1  0  0  0
 14 58  1  0  0  0
 14 59  1  0  0  0
 15 16  2  0  0  0
 15 17  1  0  0  0
 17 18  1  0  0  0
 17 60  1  0  0  0
 18 19  1  0  0  0
 18 61  1  0  0  0
 18 62  1  0  0  0
 19 24  1  0  0  0
 19 20  2  0  0  0
 20 21  1  0  0  0
 20 63  1  0  0  0
 21 22  2  0  0  0
 21 64  1  0  0  0
 22 23  1  0  0  0
 22 25  1  0  0  0
 23 24  2  0  0  0
 23 65  1  0  0  0
 24 66  1  0  0  0
 25 26  2  3  0  0
 25 27  1  0  0  0
 26 67  1  0  0  0
 27 68  1  0  0  0
 27 69  1  0  0  0
 28 29  1  0  0  0
 28 70  1  0  0  0
 29 30  2  0  0  0
 29 31  2  0  0  0
 29 32  1  0  0  0
 32 33  1  0  0  0
 32 71  1  0  0  0
 32 72  1  0  0  0
 33 38  1  0  0  0
 33 34  2  0  0  0
 34 35  1  0  0  0
 34 73  1  0  0  0
 35 36  2  0  0  0
 35 74  1  0  0  0
 36 37  1  0  0  0
 36 75  1  0  0  0
 37 38  2  0  0  0
 37 76  1  0  0  0
 38 39  1  0  0  0
 39 40  2  0  0  0
 39 41  1  0  0  0
 41 77  1  0  0  0
M  END
> <s_m_entry_id>
21089

> <s_m_entry_name>
ligand_docking-pose.55

> <s_m_Source_Path>
/home/csk/Desktop/cluster/DUD-E-result/fa7

> <s_m_Source_File>
ligand_docking-pose.sdf

> <i_m_Source_File_Index>
55

> <i_lp_mmshare_version>
53161

> <i_f3d_flags>
0

> <r_lp_tautomer_probability>
1

> <s_lp_Force_Field>
OPLS_2005

> <r_lp_Energy>
3.547966

> <b_lp_Chiralities_Consistent>
1

> <s_lp_Variant>
510976-2

> <s_i_glide_gridfile>
glide-grid_1w7x

> <i_i_glide_lignum>
587

> <i_i_glide_rotatable_bonds>
19

> <r_i_docking_score>
-7.05620435507213

> <r_i_glide_ligand_efficiency>
-0.172102545245662

> <r_i_glide_ligand_efficiency_sa>
-0.593446962895237

> <r_i_glide_ligand_efficiency_ln>
-1.49699723590007

> <r_i_glide_gscore>
-7.05620435507213

> <r_i_glide_lipo>
-2.23531682306866

> <r_i_glide_hbond>
-0.202275740568934

> <r_i_glide_metal>
0

> <r_i_glide_rewards>
-0.546416617687442

> <r_i_glide_evdw>
-44.6798400878906

> <r_i_glide_ecoul>
-16.9143886566162

> <r_i_glide_erotb>
0.799314307589989

> <r_i_glide_esite>
-0.100359178450112

> <r_i_glide_emodel>
-74.2767946244135

> <r_i_glide_energy>
-61.5942287445068

> <r_i_glide_einternal>
20.8985061645508

> <i_i_glide_confnum>
109

> <i_i_glide_posenum>
90

> <r_i_glide_eff_state_penalty>
0

> <s_user_duplicate_titles>
510976

> <s_m_subgroup_title>
dock_pv

> <s_m_subgroupid>
dock_pv1

> <b_m_subgroup_collapsed>
0

$$$$
303072
                    3D
 Schrodinger Suite 2021-1.
 67 70  0  0  1  0            999 V2000
    6.0512   42.7740   32.5630 C   0  0  0  0  0  0
    5.9841   41.7863   33.5871 O   0  0  0  0  0  0
    7.0944   41.0021   33.8530 C   0  0  0  0  0  0
    8.3038   41.1021   33.1426 C   0  0  0  0  0  0
    9.4131   40.3042   33.4621 C   0  0  0  0  0  0
    9.2754   39.3736   34.4970 C   0  0  0  0  0  0
    8.0837   39.2569   35.2067 C   0  0  0  0  0  0
    6.9802   40.0643   34.8907 C   0  0  0  0  0  0
    5.7650   40.0022   35.5570 O   0  0  0  0  0  0
    5.5129   38.9846   36.5315 C   0  0  0  0  0  0
    5.9306   39.3926   37.9443 C   0  0  0  0  0  0
    6.7818   40.4791   38.1805 C   0  0  0  0  0  0
    7.1311   40.8226   39.4823 C   0  0  0  0  0  0
    6.6409   40.0790   40.5512 C   0  0  0  0  0  0
    5.7866   39.0035   40.3274 C   0  0  0  0  0  0
    5.4379   38.6554   39.0253 C   0  0  0  0  0  0
   10.7459   40.4051   32.7338 C   0  0  2  0  0  0
   11.1338   41.8708   32.3984 C   0  0  0  0  0  0
   10.6718   42.4348   31.4022 O   0  0  0  0  0  0
   11.9308   42.4785   33.2938 N   0  0  0  0  0  0
   12.1647   43.9168   33.3575 C   0  0  0  0  0  0
   11.1835   44.5885   34.3049 C   0  0  0  0  0  0
   11.6403   45.1434   35.5030 C   0  0  0  0  0  0
   10.7288   45.6821   36.4036 C   0  0  0  0  0  0
    9.3700   45.6788   36.0970 C   0  0  0  0  0  0
    8.9120   45.1719   34.8851 C   0  0  0  0  0  0
    9.8225   44.6325   33.9834 C   0  0  0  0  0  0
   10.7853   39.6304   31.4984 N   0  0  0  0  0  0
   11.8909   38.9223   30.9872 C   0  0  0  0  0  0
   12.9110   38.4790   31.8237 C   0  0  0  0  0  0
   14.0561   37.9044   31.2970 C   0  0  0  0  0  0
   14.2255   37.7242   29.9195 C   0  0  0  0  0  0
   13.1393   38.0789   29.0910 C   0  0  0  0  0  0
   11.9906   38.6786   29.6176 C   0  0  0  0  0  0
   15.5485   37.2790   29.3933 C   0  0  0  0  0  0
   16.5901   37.2840   30.0970 N   0  0  0  0  0  0
   15.5310   36.8792   28.0970 N   0  0  0  0  0  0
    5.0966   43.2966   32.5026 H   0  0  0  0  0  0
    6.8211   43.5182   32.7737 H   0  0  0  0  0  0
    6.2423   42.3262   31.5867 H   0  0  0  0  0  0
    8.3925   41.8096   32.3342 H   0  0  0  0  0  0
   10.0893   38.7089   34.7429 H   0  0  0  0  0  0
    8.0408   38.5292   36.0024 H   0  0  0  0  0  0
    4.4329   38.8325   36.5338 H   0  0  0  0  0  0
    5.9412   38.0194   36.2580 H   0  0  0  0  0  0
    7.1782   41.0691   37.3681 H   0  0  0  0  0  0
    7.7852   41.6618   39.6601 H   0  0  0  0  0  0
    6.9229   40.3398   41.5612 H   0  0  0  0  0  0
    5.4029   38.4383   41.1634 H   0  0  0  0  0  0
    4.7828   37.8113   38.8613 H   0  0  0  0  0  0
   11.5201   40.0650   33.4189 H   0  0  0  0  0  0
   12.3066   41.9321   34.0560 H   0  0  0  0  0  0
   12.0765   44.3848   32.3740 H   0  0  0  0  0  0
   13.1868   44.0790   33.6981 H   0  0  0  0  0  0
   12.6906   45.1336   35.7590 H   0  0  0  0  0  0
   11.0728   46.0869   37.3454 H   0  0  0  0  0  0
    8.6652   46.0790   36.8107 H   0  0  0  0  0  0
    7.8577   45.1876   34.6521 H   0  0  0  0  0  0
    9.4664   44.2232   33.0492 H   0  0  0  0  0  0
   10.2611   40.0847   30.7625 H   0  0  0  0  0  0
   12.8777   38.6169   32.8917 H   0  0  0  0  0  0
   14.8471   37.6790   31.9933 H   0  0  0  0  0  0
   13.1983   37.9680   28.0171 H   0  0  0  0  0  0
   11.2071   38.9943   28.9436 H   0  0  0  0  0  0
   16.4156   37.6496   31.0166 H   0  0  0  0  0  0
   16.3684   36.5096   27.6659 H   0  0  0  0  0  0
   14.6625   36.5522   27.6963 H   0  0  0  0  0  0
  1  2  1  0  0  0
  1 38  1  0  0  0
  1 39  1  0  0  0
  1 40  1  0  0  0
  2  3  1  0  0  0
  3  8  1  0  0  0
  3  4  2  0  0  0
  4  5  1  0  0  0
  4 41  1  0  0  0
  5  6  2  0  0  0
  5 17  1  0  0  0
  6  7  1  0  0  0
  6 42  1  0  0  0
  7  8  2  0  0  0
  7 43  1  0  0  0
  8  9  1  0  0  0
  9 10  1  0  0  0
 10 11  1  0  0  0
 10 44  1  0  0  0
 10 45  1  0  0  0
 11 16  1  0  0  0
 11 12  2  0  0  0
 12 13  1  0  0  0
 12 46  1  0  0  0
 13 14  2  0  0  0
 13 47  1  0  0  0
 14 15  1  0  0  0
 14 48  1  0  0  0
 15 16  2  0  0  0
 15 49  1  0  0  0
 16 50  1  0  0  0
 17 18  1  0  0  0
 17 28  1  0  0  0
 17 51  1  0  0  0
 18 19  2  0  0  0
 18 20  1  0  0  0
 20 21  1  0  0  0
 20 52  1  0  0  0
 21 22  1  0  0  0
 21 53  1  0  0  0
 21 54  1  0  0  0
 22 27  1  0  0  0
 22 23  2  0  0  0
 23 24  1  0  0  0
 23 55  1  0  0  0
 24 25  2  0  0  0
 24 56  1  0  0  0
 25 26  1  0  0  0
 25 57  1  0  0  0
 26 27  2  0  0  0
 26 58  1  0  0  0
 27 59  1  0  0  0
 28 29  1  0  0  0
 28 60  1  0  0  0
 29 34  1  0  0  0
 29 30  2  0  0  0
 30 31  1  0  0  0
 30 61  1  0  0  0
 31 32  2  0  0  0
 31 62  1  0  0  0
 32 33  1  0  0  0
 32 35  1  0  0  0
 33 34  2  0  0  0
 33 63  1  0  0  0
 34 64  1  0  0  0
 35 36  2  3  0  0
 35 37  1  0  0  0
 36 65  1  0  0  0
 37 66  1  0  0  0
 37 67  1  0  0  0
M  END
> <s_m_entry_id>
21092

> <s_m_entry_name>
ligand_docking-pose.58

> <s_m_Source_Path>
/home/csk/Desktop/cluster/DUD-E-result/fa7

> <s_m_Source_File>
ligand_docking-pose.sdf

> <i_m_Source_File_Index>
58

> <i_lp_mmshare_version>
53161

> <i_f3d_flags>
0

> <r_lp_tautomer_probability>
1

> <s_lp_Force_Field>
OPLS_2005

> <r_lp_Energy>
25.987849

> <b_lp_Chiralities_Consistent>
1

> <s_lp_Variant>
303072-2

> <s_i_glide_gridfile>
glide-grid_1w7x

> <i_i_glide_lignum>
795

> <i_i_glide_rotatable_bonds>
12

> <r_i_docking_score>
-7.02965254773365

> <r_i_glide_ligand_efficiency>
-0.189990609398207

> <r_i_glide_ligand_efficiency_sa>
-0.633090859482223

> <r_i_glide_ligand_efficiency_ln>
-1.52456683916595

> <r_i_glide_gscore>
-7.02965254773365

> <r_i_glide_lipo>
-3.25709664757964

> <r_i_glide_hbond>
-0.212960167320882

> <r_i_glide_metal>
0

> <r_i_glide_rewards>
-0.378997028367072

> <r_i_glide_evdw>
-48.2299461364746

> <r_i_glide_ecoul>
-9.45945262908936

> <r_i_glide_erotb>
0.749816496721068

> <r_i_glide_esite>
-0.1

> <r_i_glide_emodel>
-79.5428866662113

> <r_i_glide_energy>
-57.689398765564

> <r_i_glide_einternal>
4.4918098449707

> <i_i_glide_confnum>
16

> <i_i_glide_posenum>
21

> <r_i_glide_eff_state_penalty>
0

> <s_user_duplicate_titles>
303072

> <s_m_subgroup_title>
dock_pv

> <s_m_subgroupid>
dock_pv1

> <b_m_subgroup_collapsed>
0

$$$$
333190
                    3D
 Schrodinger Suite 2021-1.
 51 53  0  0  1  0            999 V2000
    8.2261   42.5451   35.6600 C   0  0  0  0  0  0
    8.4460   42.4633   34.1483 C   0  0  0  0  0  0
    9.3385   41.3940   33.8365 O   0  0  0  0  0  0
    9.7605   41.2357   32.5269 C   0  0  0  0  0  0
   10.6332   40.1724   32.2577 C   0  0  0  0  0  0
   11.1308   39.9430   30.9657 C   0  0  0  0  0  0
   10.7313   40.8116   29.9503 C   0  0  0  0  0  0
    9.8705   41.8804   30.1778 C   0  0  0  0  0  0
    9.3775   42.0796   31.4698 C   0  0  0  0  0  0
    9.4864   42.7605   29.0067 C   0  0  2  0  0  0
   10.0386   44.1975   29.1445 C   0  0  0  0  0  0
    9.4548   45.0861   29.7651 O   0  0  0  0  0  0
   11.2543   44.3241   28.5325 O   0  0  0  0  0  0
    8.0595   42.8261   28.7620 N   0  0  0  0  0  0
    7.1995   41.7525   28.4892 C   0  0  0  0  0  0
    5.8279   41.9715   28.5255 C   0  0  0  0  0  0
    4.9476   40.9079   28.3461 C   0  0  0  0  0  0
    5.4144   39.5944   28.1494 C   0  0  0  0  0  0
    6.8065   39.4074   28.0656 C   0  0  0  0  0  0
    7.6849   40.4730   28.2180 C   0  0  0  0  0  0
    4.4652   38.4489   28.0969 C   0  0  0  0  0  0
    3.2735   38.5773   28.4901 N   0  0  0  0  0  0
    5.0052   37.2620   27.6694 N   0  0  0  0  0  0
   12.1323   38.8791   30.6505 C   0  0  0  0  0  0
   12.2771   38.3676   29.3481 C   0  0  0  0  0  0
   13.3697   37.5719   29.0182 C   0  0  0  0  0  0
   14.2861   37.2616   30.0178 C   0  0  0  0  0  0
   14.1433   37.6790   31.2970 N   0  0  0  0  0  0
   13.0811   38.4659   31.5976 C   0  0  0  0  0  0
    7.4412   43.2631   35.8965 H   0  0  0  0  0  0
    7.9344   41.5798   36.0742 H   0  0  0  0  0  0
    9.1300   42.8791   36.1700 H   0  0  0  0  0  0
    8.8469   43.4198   33.8105 H   0  0  0  0  0  0
    7.4901   42.3007   33.6456 H   0  0  0  0  0  0
   10.9303   39.5279   33.0716 H   0  0  0  0  0  0
   11.1087   40.6669   28.9513 H   0  0  0  0  0  0
    8.7005   42.9040   31.6285 H   0  0  0  0  0  0
    9.9155   42.3396   28.0966 H   0  0  0  0  0  0
   11.5304   43.5077   28.0968 H   0  0  0  0  0  0
    7.6232   43.7027   29.0161 H   0  0  0  0  0  0
    5.4350   42.9600   28.7128 H   0  0  0  0  0  0
    3.8915   41.1265   28.3978 H   0  0  0  0  0  0
    7.2366   38.4293   27.9034 H   0  0  0  0  0  0
    8.7436   40.2776   28.1538 H   0  0  0  0  0  0
    3.0685   39.5322   28.7496 H   0  0  0  0  0  0
    4.4001   36.4607   27.6157 H   0  0  0  0  0  0
    5.8315   37.2575   27.0815 H   0  0  0  0  0  0
   11.5838   38.6222   28.5603 H   0  0  0  0  0  0
   13.5115   37.2133   28.0077 H   0  0  0  0  0  0
   15.1547   36.6621   29.7956 H   0  0  0  0  0  0
   13.0651   38.8395   32.6120 H   0  0  0  0  0  0
  1  2  1  0  0  0
  1 30  1  0  0  0
  1 31  1  0  0  0
  1 32  1  0  0  0
  2  3  1  0  0  0
  2 33  1  0  0  0
  2 34  1  0  0  0
  3  4  1  0  0  0
  4  9  1  0  0  0
  4  5  2  0  0  0
  5  6  1  0  0  0
  5 35  1  0  0  0
  6  7  2  0  0  0
  6 24  1  0  0  0
  7  8  1  0  0  0
  7 36  1  0  0  0
  8  9  2  0  0  0
  8 10  1  0  0  0
  9 37  1  0  0  0
 10 11  1  0  0  0
 10 14  1  0  0  0
 10 38  1  0  0  0
 11 12  2  0  0  0
 11 13  1  0  0  0
 13 39  1  0  0  0
 14 15  1  0  0  0
 14 40  1  0  0  0
 15 20  1  0  0  0
 15 16  2  0  0  0
 16 17  1  0  0  0
 16 41  1  0  0  0
 17 18  2  0  0  0
 17 42  1  0  0  0
 18 19  1  0  0  0
 18 21  1  0  0  0
 19 20  2  0  0  0
 19 43  1  0  0  0
 20 44  1  0  0  0
 21 22  2  3  0  0
 21 23  1  0  0  0
 22 45  1  0  0  0
 23 46  1  0  0  0
 23 47  1  0  0  0
 24 29  1  0  0  0
 24 25  2  0  0  0
 25 26  1  0  0  0
 25 48  1  0  0  0
 26 27  2  0  0  0
 26 49  1  0  0  0
 27 28  1  0  0  0
 27 50  1  0  0  0
 28 29  2  0  0  0
 29 51  1  0  0  0
M  END
> <s_m_entry_id>
21093

> <s_m_entry_name>
ligand_docking-pose.59

> <s_m_Source_Path>
/home/csk/Desktop/cluster/DUD-E-result/fa7

> <s_m_Source_File>
ligand_docking-pose.sdf

> <i_m_Source_File_Index>
59

> <i_lp_mmshare_version>
53161

> <i_f3d_flags>
0

> <r_lp_tautomer_probability>
1

> <s_lp_Force_Field>
OPLS_2005

> <r_lp_Energy>
19.748359

> <b_lp_Chiralities_Consistent>
1

> <s_lp_Variant>
333190-2

> <s_i_glide_gridfile>
glide-grid_1w7x

> <i_i_glide_lignum>
704

> <i_i_glide_rotatable_bonds>
9

> <r_i_docking_score>
-7.02526926919002

> <r_i_glide_ligand_efficiency>
-0.242250664454828

> <r_i_glide_ligand_efficiency_sa>
-0.744270791602752

> <r_i_glide_ligand_efficiency_ln>
-1.60860851718666

> <r_i_glide_gscore>
-7.02526926919002

> <r_i_glide_lipo>
-2.19067574452625

> <r_i_glide_hbond>
-0.189393939197258

> <r_i_glide_metal>
0

> <r_i_glide_rewards>
-0.747338295137632

> <r_i_glide_evdw>
-34.4280586242676

> <r_i_glide_ecoul>
-18.4937744140625

> <r_i_glide_erotb>
0.767691931779491

> <r_i_glide_esite>
-0.170084128785618

> <r_i_glide_emodel>
-70.4159956020375

> <r_i_glide_energy>
-52.9218330383301

> <r_i_glide_einternal>
5.86261129379272

> <i_i_glide_confnum>
41

> <i_i_glide_posenum>
287

> <r_i_glide_eff_state_penalty>
0

> <s_user_duplicate_titles>
333190

> <s_m_subgroup_title>
dock_pv

> <s_m_subgroupid>
dock_pv1

> <b_m_subgroup_collapsed>
0

$$$$
216581
                    3D
 Schrodinger Suite 2021-1.
 64 67  0  0  1  0            999 V2000
    6.0781   45.7293   36.5833 C   0  0  0  0  0  0
    5.8781   45.3578   35.2563 C   0  0  0  0  0  0
    6.7878   44.5052   34.6381 C   0  0  0  0  0  0
    7.8968   44.0172   35.3397 C   0  0  0  0  0  0
    8.0764   44.3863   36.6781 C   0  0  0  0  0  0
    7.1704   45.2451   37.2969 C   0  0  0  0  0  0
    8.8756   43.1373   34.6486 C   0  0  0  0  0  0
    8.5108   41.9160   34.1590 C   0  0  0  0  0  0
    9.3922   41.1066   33.5005 N   0  0  0  0  0  0
   10.6091   41.5061   33.3489 C   0  0  0  0  0  0
   11.1375   42.8264   33.8274 C   0  0  0  0  0  0
   12.3200   43.1655   33.6970 O   0  0  0  0  0  0
   10.1752   43.6235   34.4400 N   0  0  0  0  0  0
   10.5912   45.0306   34.7043 C   0  0  0  0  0  0
   10.1276   45.9477   33.5565 C   0  0  0  0  0  0
    9.2328   45.6066   32.7801 O   0  0  0  0  0  0
   10.7780   47.1158   33.4391 N   0  0  0  0  0  0
   10.5466   48.0978   32.3713 C   0  0  0  0  0  0
   10.6469   47.5722   30.9335 C   0  0  0  0  0  0
    9.7948   48.0803   29.9533 C   0  0  0  0  0  0
    9.8492   47.5876   28.6517 C   0  0  0  0  0  0
   10.7619   46.5779   28.2895 C   0  0  0  0  0  0
   11.5923   46.0619   29.2972 C   0  0  0  0  0  0
   11.5311   46.5441   30.5988 C   0  0  0  0  0  0
   10.8861   46.0791   26.8927 C   0  0  0  0  0  0
   11.9270   45.4908   26.4968 N   0  0  0  0  0  0
    9.8013   46.3440   26.0970 N   0  0  0  0  0  0
   11.5309   40.6402   32.7563 N   0  0  0  0  0  0
   11.2288   39.2790   32.2981 C   0  0  0  0  0  0
   11.4694   39.0276   30.7907 C   0  0  0  0  0  0
   12.7924   38.4039   30.3602 C   0  0  0  0  0  0
   12.9824   38.1538   28.9964 C   0  0  0  0  0  0
   14.2057   37.6790   28.5319 C   0  0  0  0  0  0
   15.2334   37.4391   29.4400 C   0  0  0  0  0  0
   15.0480   37.6790   30.7938 C   0  0  0  0  0  0
   13.8164   38.1014   31.2652 C   0  0  0  0  0  0
   16.7674   36.8808   28.8970 Cl  0  0  0  0  0  0
    6.8927   41.2243   34.3597 Cl  0  0  0  0  0  0
    5.3852   46.4064   37.0619 H   0  0  0  0  0  0
    5.0368   45.7459   34.7021 H   0  0  0  0  0  0
    6.6482   44.2415   33.5995 H   0  0  0  0  0  0
    8.9269   44.0274   37.2401 H   0  0  0  0  0  0
    7.3294   45.5427   38.3240 H   0  0  0  0  0  0
   11.6708   45.1308   34.8247 H   0  0  0  0  0  0
   10.1623   45.3926   35.6358 H   0  0  0  0  0  0
   11.4282   47.3788   34.1645 H   0  0  0  0  0  0
   11.2757   48.9000   32.4882 H   0  0  0  0  0  0
    9.5691   48.5538   32.5433 H   0  0  0  0  0  0
    9.0856   48.8585   30.1958 H   0  0  0  0  0  0
    9.1838   48.0288   27.9239 H   0  0  0  0  0  0
   12.3008   45.2748   29.0770 H   0  0  0  0  0  0
   12.1820   46.1121   31.3433 H   0  0  0  0  0  0
   11.8301   45.2057   25.5330 H   0  0  0  0  0  0
    9.8265   46.0791   25.1150 H   0  0  0  0  0  0
    8.9280   46.6511   26.4959 H   0  0  0  0  0  0
   12.5167   40.8741   32.8669 H   0  0  0  0  0  0
   11.8068   38.5824   32.8970 H   0  0  0  0  0  0
   10.1899   39.0338   32.5102 H   0  0  0  0  0  0
   10.7308   38.3137   30.4395 H   0  0  0  0  0  0
   11.2956   39.9438   30.2232 H   0  0  0  0  0  0
   12.1992   38.3651   28.2832 H   0  0  0  0  0  0
   14.3564   37.4927   27.4769 H   0  0  0  0  0  0
   15.8675   37.5500   31.4801 H   0  0  0  0  0  0
   13.7264   38.2883   32.3228 H   0  0  0  0  0  0
  1  6  1  0  0  0
  1  2  2  0  0  0
  1 39  1  0  0  0
  2  3  1  0  0  0
  2 40  1  0  0  0
  3  4  2  0  0  0
  3 41  1  0  0  0
  4  5  1  0  0  0
  4  7  1  0  0  0
  5  6  2  0  0  0
  5 42  1  0  0  0
  6 43  1  0  0  0
  7 13  1  0  0  0
  7  8  2  0  0  0
  8  9  1  0  0  0
  8 38  1  0  0  0
  9 10  2  0  0  0
 10 11  1  0  0  0
 10 28  1  0  0  0
 11 12  2  0  0  0
 11 13  1  0  0  0
 13 14  1  0  0  0
 14 15  1  0  0  0
 14 44  1  0  0  0
 14 45  1  0  0  0
 15 16  2  0  0  0
 15 17  1  0  0  0
 17 18  1  0  0  0
 17 46  1  0  0  0
 18 19  1  0  0  0
 18 47  1  0  0  0
 18 48  1  0  0  0
 19 24  1  0  0  0
 19 20  2  0  0  0
 20 21  1  0  0  0
 20 49  1  0  0  0
 21 22  2  0  0  0
 21 50  1  0  0  0
 22 23  1  0  0  0
 22 25  1  0  0  0
 23 24  2  0  0  0
 23 51  1  0  0  0
 24 52  1  0  0  0
 25 26  2  3  0  0
 25 27  1  0  0  0
 26 53  1  0  0  0
 27 54  1  0  0  0
 27 55  1  0  0  0
 28 29  1  0  0  0
 28 56  1  0  0  0
 29 30  1  0  0  0
 29 57  1  0  0  0
 29 58  1  0  0  0
 30 31  1  0  0  0
 30 59  1  0  0  0
 30 60  1  0  0  0
 31 36  1  0  0  0
 31 32  2  0  0  0
 32 33  1  0  0  0
 32 61  1  0  0  0
 33 34  2  0  0  0
 33 62  1  0  0  0
 34 35  1  0  0  0
 34 37  1  0  0  0
 35 36  2  0  0  0
 35 63  1  0  0  0
 36 64  1  0  0  0
M  END
> <s_m_entry_id>
21095

> <s_m_entry_name>
ligand_docking-pose.61

> <s_m_Source_Path>
/home/csk/Desktop/cluster/DUD-E-result/fa7

> <s_m_Source_File>
ligand_docking-pose.sdf

> <i_m_Source_File_Index>
61

> <i_lp_mmshare_version>
53161

> <i_f3d_flags>
0

> <r_lp_tautomer_probability>
1

> <s_lp_Force_Field>
OPLS_2005

> <r_lp_Energy>
25.389183

> <b_lp_Chiralities_Consistent>
1

> <s_lp_Variant>
216581-1

> <s_i_glide_gridfile>
glide-grid_1w7x

> <i_i_glide_lignum>
156

> <i_i_glide_rotatable_bonds>
11

> <r_i_docking_score>
-7.00869357323559

> <r_i_glide_ligand_efficiency>
-0.184439304558831

> <r_i_glide_ligand_efficiency_sa>
-0.620080405222029

> <r_i_glide_ligand_efficiency_ln>
-1.51128050926586

> <r_i_glide_gscore>
-7.00869357323559

> <r_i_glide_lipo>
-3.00945020440248

> <r_i_glide_hbond>
-0.608

> <r_i_glide_metal>
0

> <r_i_glide_rewards>
-0.188093173542618

> <r_i_glide_evdw>
-51.4276809692383

> <r_i_glide_ecoul>
-8.12957096099854

> <r_i_glide_erotb>
0.617922562252738

> <r_i_glide_esite>
-0.0302530649315388

> <r_i_glide_emodel>
-81.6022525966299

> <r_i_glide_energy>
-59.5572519302368

> <r_i_glide_einternal>
9.36958885192871

> <i_i_glide_confnum>
10

> <i_i_glide_posenum>
29

> <r_i_glide_eff_state_penalty>
0

> <s_user_duplicate_titles>
216581

> <s_m_subgroup_title>
dock_pv

> <s_m_subgroupid>
dock_pv1

> <b_m_subgroup_collapsed>
0

$$$$
226184
                    3D
 Schrodinger Suite 2021-1.
 64 67  0  0  1  0            999 V2000
   14.0163   37.6792   30.8758 C   0  0  0  0  0  0
   13.0642   38.3423   31.6454 C   0  0  0  0  0  0
   11.9309   38.8788   31.0355 C   0  0  0  0  0  0
   11.7428   38.7527   29.6503 C   0  0  0  0  0  0
   12.7134   38.0794   28.8971 C   0  0  0  0  0  0
   13.8444   37.5478   29.5040 C   0  0  0  0  0  0
   10.5334   39.3345   28.8969 C   0  0  0  0  0  0
    9.4536   39.8998   29.7065 N   0  0  0  0  0  0
    9.5973   41.0250   30.5376 C   0  0  0  0  0  0
   10.7080   41.8655   30.4553 C   0  0  0  0  0  0
   10.8869   42.8834   31.3818 C   0  0  0  0  0  0
    9.9876   43.0714   32.4330 C   0  0  0  0  0  0
    8.8488   42.2423   32.5164 C   0  0  0  0  0  0
    8.6487   41.2449   31.5456 C   0  0  0  0  0  0
    7.5603   40.4374   31.6305 F   0  0  0  0  0  0
    7.8658   42.3287   33.6957 C   0  0  0  0  0  0
    8.1725   41.3338   34.8285 C   0  0  0  0  0  0
    8.9375   40.3830   34.6550 O   0  0  0  0  0  0
    7.5100   41.5397   35.9824 N   0  0  0  0  0  0
    7.5309   40.6617   37.1633 C   0  0  0  0  0  0
    7.2156   39.1876   36.8994 C   0  0  0  0  0  0
    6.1968   38.8287   36.0147 C   0  0  0  0  0  0
    5.9494   37.4895   35.7344 C   0  0  0  0  0  0
    6.7087   36.4653   36.3291 C   0  0  0  0  0  0
    7.7287   36.8495   37.2213 C   0  0  0  0  0  0
    7.9825   38.1907   37.5004 C   0  0  0  0  0  0
    6.4271   35.0346   36.0097 C   0  0  0  0  0  0
    5.7420   34.7167   34.9980 N   0  0  0  0  0  0
    6.9612   34.1371   36.8973 N   0  0  0  0  0  0
   10.3277   44.1090   33.4373 C   0  0  0  0  0  0
    9.5108   45.2259   33.6574 C   0  0  0  0  0  0
    9.8806   46.2019   34.5834 C   0  0  0  0  0  0
   11.0829   46.0794   35.2812 C   0  0  0  0  0  0
   11.9118   44.9855   35.0463 C   0  0  0  0  0  0
   11.5315   44.0017   34.1412 C   0  0  0  0  0  0
   13.1311   44.8790   35.6967 N   0  0  0  0  0  0
   14.9058   37.2800   31.3366 H   0  0  0  0  0  0
   13.2099   38.4630   32.7103 H   0  0  0  0  0  0
   11.2107   39.3778   31.6629 H   0  0  0  0  0  0
   12.6078   37.9722   27.8257 H   0  0  0  0  0  0
   14.5866   37.0370   28.9059 H   0  0  0  0  0  0
   10.0850   38.5247   28.3222 H   0  0  0  0  0  0
   10.8752   40.0774   28.1779 H   0  0  0  0  0  0
    8.5763   39.4023   29.7310 H   0  0  0  0  0  0
   11.4577   41.7183   29.6948 H   0  0  0  0  0  0
   11.7614   43.5129   31.3070 H   0  0  0  0  0  0
    6.8628   42.1132   33.3291 H   0  0  0  0  0  0
    7.8107   43.3352   34.1037 H   0  0  0  0  0  0
    7.0596   42.4344   36.0984 H   0  0  0  0  0  0
    6.7781   41.0366   37.8574 H   0  0  0  0  0  0
    8.4798   40.7701   37.6926 H   0  0  0  0  0  0
    5.6067   39.5873   35.5251 H   0  0  0  0  0  0
    5.1503   37.2645   35.0456 H   0  0  0  0  0  0
    8.3612   36.1105   37.6962 H   0  0  0  0  0  0
    8.7894   38.4430   38.1732 H   0  0  0  0  0  0
    5.4492   35.5368   34.4940 H   0  0  0  0  0  0
    6.7561   33.1576   36.7828 H   0  0  0  0  0  0
    7.3882   34.4487   37.7633 H   0  0  0  0  0  0
    8.5904   45.3426   33.1017 H   0  0  0  0  0  0
    9.2476   47.0618   34.7493 H   0  0  0  0  0  0
   11.3757   46.8434   35.9869 H   0  0  0  0  0  0
   12.1800   43.1537   33.9687 H   0  0  0  0  0  0
   13.4026   45.6049   36.3507 H   0  0  0  0  0  0
   13.7523   44.1095   35.4863 H   0  0  0  0  0  0
  1  6  1  0  0  0
  1  2  2  0  0  0
  1 37  1  0  0  0
  2  3  1  0  0  0
  2 38  1  0  0  0
  3  4  2  0  0  0
  3 39  1  0  0  0
  4  5  1  0  0  0
  4  7  1  0  0  0
  5  6  2  0  0  0
  5 40  1  0  0  0
  6 41  1  0  0  0
  7  8  1  0  0  0
  7 42  1  0  0  0
  7 43  1  0  0  0
  8  9  1  0  0  0
  8 44  1  0  0  0
  9 14  1  0  0  0
  9 10  2  0  0  0
 10 11  1  0  0  0
 10 45  1  0  0  0
 11 12  2  0  0  0
 11 46  1  0  0  0
 12 13  1  0  0  0
 12 30  1  0  0  0
 13 14  2  0  0  0
 13 16  1  0  0  0
 14 15  1  0  0  0
 16 17  1  0  0  0
 16 47  1  0  0  0
 16 48  1  0  0  0
 17 18  2  0  0  0
 17 19  1  0  0  0
 19 20  1  0  0  0
 19 49  1  0  0  0
 20 21  1  0  0  0
 20 50  1  0  0  0
 20 51  1  0  0  0
 21 26  1  0  0  0
 21 22  2  0  0  0
 22 23  1  0  0  0
 22 52  1  0  0  0
 23 24  2  0  0  0
 23 53  1  0  0  0
 24 25  1  0  0  0
 24 27  1  0  0  0
 25 26  2  0  0  0
 25 54  1  0  0  0
 26 55  1  0  0  0
 27 28  2  3  0  0
 27 29  1  0  0  0
 28 56  1  0  0  0
 29 57  1  0  0  0
 29 58  1  0  0  0
 30 35  1  0  0  0
 30 31  2  0  0  0
 31 32  1  0  0  0
 31 59  1  0  0  0
 32 33  2  0  0  0
 32 60  1  0  0  0
 33 34  1  0  0  0
 33 61  1  0  0  0
 34 35  2  0  0  0
 34 36  1  0  0  0
 35 62  1  0  0  0
 36 63  1  0  0  0
 36 64  1  0  0  0
M  END
> <s_m_entry_id>
21096

> <s_m_entry_name>
ligand_docking-pose.62

> <s_m_Source_Path>
/home/csk/Desktop/cluster/DUD-E-result/fa7

> <s_m_Source_File>
ligand_docking-pose.sdf

> <i_m_Source_File_Index>
62

> <i_lp_mmshare_version>
53161

> <i_f3d_flags>
0

> <r_lp_tautomer_probability>
1

> <s_lp_Force_Field>
OPLS_2005

> <r_lp_Energy>
24.985161

> <b_lp_Chiralities_Consistent>
1

> <s_lp_Variant>
226184-2

> <s_i_glide_gridfile>
glide-grid_1w7x

> <i_i_glide_lignum>
230

> <i_i_glide_rotatable_bonds>
10

> <r_i_docking_score>
-6.99446540770556

> <r_i_glide_ligand_efficiency>
-0.194290705769599

> <r_i_glide_ligand_efficiency_sa>
-0.641533774821291

> <r_i_glide_ligand_efficiency_ln>
-1.52600338334405

> <r_i_glide_gscore>
-6.99446540770556

> <r_i_glide_lipo>
-3.0037333015202

> <r_i_glide_hbond>
-0.541555685966533

> <r_i_glide_metal>
0

> <r_i_glide_rewards>
-0.174742353603602

> <r_i_glide_evdw>
-51.1349143981934

> <r_i_glide_ecoul>
-9.34596252441406

> <r_i_glide_erotb>
0.787330711988124

> <r_i_glide_esite>
-0.103124680031576

> <r_i_glide_emodel>
-84.3110391053171

> <r_i_glide_energy>
-60.4808769226074

> <r_i_glide_einternal>
2.6968412399292

> <i_i_glide_confnum>
23

> <i_i_glide_posenum>
356

> <r_i_glide_eff_state_penalty>
0

> <s_user_duplicate_titles>
226184

> <s_m_subgroup_title>
dock_pv

> <s_m_subgroupid>
dock_pv1

> <b_m_subgroup_collapsed>
0

$$$$
348128
                    3D
 Schrodinger Suite 2021-1.
 59 63  0  0  1  0            999 V2000
   17.0486   36.9815   29.1051 C   0  0  0  0  0  0
   16.0455   36.9531   30.0970 O   0  0  0  0  0  0
   14.8011   37.4545   29.8146 C   0  0  0  0  0  0
   13.9697   37.7461   30.8973 C   0  0  0  0  0  0
   12.7038   38.2881   30.6914 C   0  0  0  0  0  0
   12.2562   38.5005   29.3829 C   0  0  0  0  0  0
   13.0675   38.1407   28.3106 C   0  0  0  0  0  0
   14.3486   37.6771   28.5148 C   0  0  0  0  0  0
   11.0564   39.1295   29.0265 N   0  0  0  0  0  0
   10.2765   39.9389   29.7601 C   0  0  0  0  0  0
   10.3231   40.0773   30.9834 O   0  0  0  0  0  0
    9.4683   40.6469   28.9523 N   0  0  0  0  0  0
    8.6774   41.8288   29.3182 C   0  0  0  0  0  0
    9.4075   42.8555   30.1779 C   0  0  0  0  0  0
   10.4473   43.6248   29.6515 C   0  0  0  0  0  0
   11.1343   44.5150   30.4707 C   0  0  0  0  0  0
   10.7928   44.6322   31.8192 C   0  0  0  0  0  0
    9.7379   43.8826   32.3659 C   0  0  0  0  0  0
    9.0385   43.0185   31.5129 C   0  0  0  0  0  0
    9.3410   44.0258   33.8024 C   0  0  0  0  0  0
    9.3937   45.2945   34.3938 C   0  0  0  0  0  0
    8.9760   45.4933   35.7031 C   0  0  0  0  0  0
    8.4750   44.4342   36.4502 C   0  0  0  0  0  0
    8.4005   43.1504   35.8990 C   0  0  0  0  0  0
    8.8811   42.9438   34.5893 C   0  0  0  0  0  0
    8.9565   41.6622   34.0948 O   0  0  0  0  0  0
    7.8015   42.0503   36.7236 C   0  0  0  0  0  0
    7.0510   40.9482   36.3355 C   0  0  0  0  0  0
    6.7073   40.2060   37.5125 C   0  0  0  0  0  0
    5.9706   39.0466   37.7940 C   0  0  0  0  0  0
    5.7931   38.5937   39.0590 N   0  0  0  0  0  0
    6.3615   39.2793   40.0825 C   0  0  0  0  0  0
    7.1308   40.4349   39.9303 C   0  0  0  0  0  0
    7.2815   40.8879   38.6158 C   0  0  0  0  0  0
    7.9309   41.9854   38.0956 N   0  0  0  0  0  0
    8.4891   42.6462   38.6202 H   0  0  0  0  0  0
   17.9306   36.4792   29.4899 H   0  0  0  0  0  0
   17.3124   38.0166   28.8968 H   0  0  0  0  0  0
   16.7319   36.4656   28.1944 H   0  0  0  0  0  0
   14.3245   37.6092   31.9054 H   0  0  0  0  0  0
   12.1071   38.5477   31.5520 H   0  0  0  0  0  0
   12.7350   38.2832   27.2979 H   0  0  0  0  0  0
   14.9460   37.4429   27.6467 H   0  0  0  0  0  0
   10.8758   39.0976   28.0299 H   0  0  0  0  0  0
    9.3631   40.3232   28.0046 H   0  0  0  0  0  0
    8.3723   42.3154   28.3905 H   0  0  0  0  0  0
    7.7510   41.5057   29.7962 H   0  0  0  0  0  0
   10.7356   43.5148   28.6149 H   0  0  0  0  0  0
   11.9493   45.0974   30.0695 H   0  0  0  0  0  0
   11.3677   45.3057   32.4388 H   0  0  0  0  0  0
    8.1968   42.4557   31.8869 H   0  0  0  0  0  0
    9.7410   46.1504   33.8323 H   0  0  0  0  0  0
    9.0281   46.4788   36.1313 H   0  0  0  0  0  0
    8.1377   44.6303   37.4597 H   0  0  0  0  0  0
    9.4292   41.6233   33.2568 H   0  0  0  0  0  0
    6.7923   40.7144   35.3136 H   0  0  0  0  0  0
    5.5131   38.4662   37.0051 H   0  0  0  0  0  0
    6.1881   38.8778   41.0697 H   0  0  0  0  0  0
    7.5749   40.9439   40.7735 H   0  0  0  0  0  0
  1  2  1  0  0  0
  1 37  1  0  0  0
  1 38  1  0  0  0
  1 39  1  0  0  0
  2  3  1  0  0  0
  3  8  1  0  0  0
  3  4  2  0  0  0
  4  5  1  0  0  0
  4 40  1  0  0  0
  5  6  2  0  0  0
  5 41  1  0  0  0
  6  7  1  0  0  0
  6  9  1  0  0  0
  7  8  2  0  0  0
  7 42  1  0  0  0
  8 43  1  0  0  0
  9 10  1  0  0  0
  9 44  1  0  0  0
 10 11  2  0  0  0
 10 12  1  0  0  0
 12 13  1  0  0  0
 12 45  1  0  0  0
 13 14  1  0  0  0
 13 46  1  0  0  0
 13 47  1  0  0  0
 14 19  1  0  0  0
 14 15  2  0  0  0
 15 16  1  0  0  0
 15 48  1  0  0  0
 16 17  2  0  0  0
 16 49  1  0  0  0
 17 18  1  0  0  0
 17 50  1  0  0  0
 18 19  2  0  0  0
 18 20  1  0  0  0
 19 51  1  0  0  0
 20 25  1  0  0  0
 20 21  2  0  0  0
 21 22  1  0  0  0
 21 52  1  0  0  0
 22 23  2  0  0  0
 22 53  1  0  0  0
 23 24  1  0  0  0
 23 54  1  0  0  0
 24 25  2  0  0  0
 24 27  1  0  0  0
 25 26  1  0  0  0
 26 55  1  0  0  0
 27 28  2  0  0  0
 27 35  1  0  0  0
 28 29  1  0  0  0
 28 56  1  0  0  0
 29 30  1  0  0  0
 29 34  2  0  0  0
 30 31  2  0  0  0
 30 57  1  0  0  0
 31 32  1  0  0  0
 32 33  2  0  0  0
 32 58  1  0  0  0
 33 59  1  0  0  0
 33 34  1  0  0  0
 34 35  1  0  0  0
 35 36  1  0  0  0
M  END
> <s_m_entry_id>
21097

> <s_m_entry_name>
ligand_docking-pose.63

> <s_m_Source_Path>
/home/csk/Desktop/cluster/DUD-E-result/fa7

> <s_m_Source_File>
ligand_docking-pose.sdf

> <i_m_Source_File_Index>
63

> <i_lp_mmshare_version>
53161

> <i_f3d_flags>
0

> <r_lp_tautomer_probability>
0.999931356944416

> <s_lp_Force_Field>
OPLS_2005

> <r_lp_Energy>
29.719281

> <b_lp_Chiralities_Consistent>
1

> <s_lp_Variant>
348128-1

> <s_i_glide_gridfile>
glide-grid_1w7x

> <i_i_glide_lignum>
791

> <i_i_glide_rotatable_bonds>
9

> <r_i_docking_score>
-6.98898585985886

> <r_i_glide_ligand_efficiency>
-0.199685310281682

> <r_i_glide_ligand_efficiency_sa>
-0.653183890327865

> <r_i_glide_ligand_efficiency_ln>
-1.53423750842296

> <r_i_glide_gscore>
-6.98898585985886

> <r_i_glide_lipo>
-2.90255848794619

> <r_i_glide_hbond>
-0.600467666056419

> <r_i_glide_metal>
0

> <r_i_glide_rewards>
-0.247622126404068

> <r_i_glide_evdw>
-44.5518989562988

> <r_i_glide_ecoul>
-9.90789031982422

> <r_i_glide_erotb>
0.6540163759032

> <r_i_glide_esite>
-0.178575459566803

> <r_i_glide_emodel>
-74.0388683241474

> <r_i_glide_energy>
-54.459789276123

> <r_i_glide_einternal>
8.06302833557129

> <i_i_glide_confnum>
14

> <i_i_glide_posenum>
367

> <r_i_glide_eff_state_penalty>
0

> <s_user_duplicate_titles>
348128

> <s_m_subgroup_title>
dock_pv

> <s_m_subgroupid>
dock_pv1

> <b_m_subgroup_collapsed>
0

$$$$
342572
                    3D
 Schrodinger Suite 2021-1.
 58 61  0  0  1  0            999 V2000
    6.0715   38.5667   38.5738 C   0  0  0  0  0  0
    6.3001   39.1446   39.8225 C   0  0  0  0  0  0
    6.9328   40.3901   39.9160 C   0  0  0  0  0  0
    7.3325   41.0296   38.7397 C   0  0  0  0  0  0
    7.1143   40.4684   37.4759 C   0  0  0  0  0  0
    6.4705   39.2258   37.4100 C   0  0  0  0  0  0
    7.5673   41.1935   36.2490 C   0  0  0  0  0  0
    7.2873   42.5608   36.1212 C   0  0  0  0  0  0
    7.7206   43.3104   35.0238 C   0  0  0  0  0  0
    8.4644   42.6707   34.0347 C   0  0  0  0  0  0
    8.7851   41.3142   34.1338 C   0  0  0  0  0  0
    8.3310   40.5737   35.2398 C   0  0  0  0  0  0
    8.6705   39.2475   35.3579 O   0  0  0  0  0  0
    9.6303   40.7427   33.0464 C   0  0  0  0  0  0
    9.3724   40.9901   31.7197 N   0  0  0  0  0  0
   10.2913   40.2883   30.9869 C   0  0  0  0  0  0
   10.4844   40.1144   29.6255 C   0  0  0  0  0  0
   11.5337   39.2790   29.2562 C   0  0  0  0  0  0
   12.3989   38.6366   30.1637 C   0  0  0  0  0  0
   12.1928   38.8790   31.5412 C   0  0  0  0  0  0
   11.1171   39.6790   31.9554 C   0  0  0  0  0  0
   10.6786   39.9705   33.2220 N   0  0  0  0  0  0
   13.5121   37.7510   29.6864 C   0  0  0  0  0  0
   14.2552   37.1387   30.4970 N   0  0  0  0  0  0
   13.6513   37.6790   28.3216 N   0  0  0  0  0  0
    7.4753   44.8324   34.9292 C   0  0  2  0  0  0
    8.2196   45.6195   36.0300 C   0  0  0  0  0  0
    9.7136   45.5927   35.7501 C   0  0  0  0  0  0
   10.2171   45.5409   34.6294 O   0  0  0  0  0  0
   10.4425   45.6790   36.8970 O   0  0  0  0  0  0
    5.9995   45.2266   34.9880 C   0  0  0  0  0  0
    5.0738   44.4789   35.2970 O   0  0  0  0  0  0
    5.8178   46.5226   34.5997 O   0  0  0  0  0  0
    7.2100   41.1080   41.2370 C   0  0  0  0  0  0
    6.7310   40.4471   42.4380 N   0  0  0  0  0  0
    8.6058   41.5598   31.3960 H   0  0  0  0  0  0
    5.5843   37.6043   38.5091 H   0  0  0  0  0  0
    5.9822   38.6136   40.7071 H   0  0  0  0  0  0
    7.8420   41.9808   38.8161 H   0  0  0  0  0  0
    6.2703   38.7639   36.4538 H   0  0  0  0  0  0
    6.7319   43.0633   36.8970 H   0  0  0  0  0  0
    8.8392   43.2492   33.2014 H   0  0  0  0  0  0
    8.4064   38.8808   36.2057 H   0  0  0  0  0  0
    9.8636   40.5939   28.8828 H   0  0  0  0  0  0
   11.6823   39.1772   28.1934 H   0  0  0  0  0  0
   12.8271   38.4371   32.2957 H   0  0  0  0  0  0
   14.0015   37.3112   31.4558 H   0  0  0  0  0  0
   14.3226   37.0240   27.9411 H   0  0  0  0  0  0
   12.9633   38.0790   27.7022 H   0  0  0  0  0  0
    7.8086   45.1643   33.9397 H   0  0  0  0  0  0
    7.9311   46.6730   36.0470 H   0  0  0  0  0  0
    8.0046   45.1915   37.0138 H   0  0  0  0  0  0
    9.9680   45.6790   37.7486 H   0  0  0  0  0  0
    6.6372   46.9624   34.3662 H   0  0  0  0  0  0
    6.7310   42.0790   41.1918 H   0  0  0  0  0  0
    8.2819   41.2790   41.3323 H   0  0  0  0  0  0
    5.8060   40.0667   42.2988 H   0  0  0  0  0  0
    7.3524   39.6790   42.6768 H   0  0  0  0  0  0
  1  6  1  0  0  0
  1  2  2  0  0  0
  1 37  1  0  0  0
  2  3  1  0  0  0
  2 38  1  0  0  0
  3  4  2  0  0  0
  3 34  1  0  0  0
  4  5  1  0  0  0
  4 39  1  0  0  0
  5  6  2  0  0  0
  5  7  1  0  0  0
  6 40  1  0  0  0
  7 12  1  0  0  0
  7  8  2  0  0  0
  8  9  1  0  0  0
  8 41  1  0  0  0
  9 10  2  0  0  0
  9 26  1  0  0  0
 10 11  1  0  0  0
 10 42  1  0  0  0
 11 12  2  0  0  0
 11 14  1  0  0  0
 12 13  1  0  0  0
 13 43  1  0  0  0
 14 22  2  0  0  0
 14 15  1  0  0  0
 15 36  1  0  0  0
 15 16  1  0  0  0
 16 21  2  0  0  0
 16 17  1  0  0  0
 17 18  2  0  0  0
 17 44  1  0  0  0
 18 19  1  0  0  0
 18 45  1  0  0  0
 19 20  2  0  0  0
 19 23  1  0  0  0
 20 21  1  0  0  0
 20 46  1  0  0  0
 21 22  1  0  0  0
 23 24  2  3  0  0
 23 25  1  0  0  0
 24 47  1  0  0  0
 25 48  1  0  0  0
 25 49  1  0  0  0
 26 27  1  0  0  0
 26 31  1  0  0  0
 26 50  1  0  0  0
 27 28  1  0  0  0
 27 51  1  0  0  0
 27 52  1  0  0  0
 28 29  2  0  0  0
 28 30  1  0  0  0
 30 53  1  0  0  0
 31 32  2  0  0  0
 31 33  1  0  0  0
 33 54  1  0  0  0
 34 35  1  0  0  0
 34 55  1  0  0  0
 34 56  1  0  0  0
 35 57  1  0  0  0
 35 58  1  0  0  0
M  END
> <s_m_entry_id>
21100

> <s_m_entry_name>
ligand_docking-pose.66

> <s_m_Source_Path>
/home/csk/Desktop/cluster/DUD-E-result/fa7

> <s_m_Source_File>
ligand_docking-pose.sdf

> <i_m_Source_File_Index>
66

> <i_lp_mmshare_version>
53161

> <i_f3d_flags>
0

> <r_lp_tautomer_probability>
0.999999999997365

> <s_lp_Force_Field>
OPLS_2005

> <r_lp_Energy>
28.019789

> <b_lp_Chiralities_Consistent>
1

> <s_lp_Variant>
342572-2

> <s_i_glide_gridfile>
glide-grid_1w7x

> <i_i_glide_lignum>
121

> <i_i_glide_rotatable_bonds>
11

> <r_i_docking_score>
-6.93564057348222

> <r_i_glide_ligand_efficiency>
-0.198161159242349

> <r_i_glide_ligand_efficiency_sa>
-0.648198291217375

> <r_i_glide_ligand_efficiency_ln>
-1.52252703412844

> <r_i_glide_gscore>
-6.93564057348222

> <r_i_glide_lipo>
-1.41787692784872

> <r_i_glide_hbond>
-0.586172132200295

> <r_i_glide_metal>
0

> <r_i_glide_rewards>
-0.819257217312125

> <r_i_glide_evdw>
-46.977855682373

> <r_i_glide_ecoul>
-15.234393119812

> <r_i_glide_erotb>
0.541372736609898

> <r_i_glide_esite>
-0.0196552806405273

> <r_i_glide_emodel>
-86.62213877661

> <r_i_glide_energy>
-62.2122488021851

> <r_i_glide_einternal>
5.47418308258057

> <i_i_glide_confnum>
8

> <i_i_glide_posenum>
344

> <r_i_glide_eff_state_penalty>
0

> <s_user_duplicate_titles>
342572

> <s_m_subgroup_title>
dock_pv

> <s_m_subgroupid>
dock_pv1

> <b_m_subgroup_collapsed>
0

$$$$
339548
                    3D
 Schrodinger Suite 2021-1.
 69 71  0  0  1  0            999 V2000
    4.6323   40.3707   25.6661 C   0  0  0  0  0  0
    4.9597   40.6347   27.1526 C   0  0  0  0  0  0
    5.0885   42.1649   27.3602 C   0  0  0  0  0  0
    6.1272   39.8612   27.6400 N   0  0  0  0  0  0
    6.7484   40.2914   28.8416 C   0  0  0  0  0  0
    8.1212   40.5813   28.8211 C   0  0  0  0  0  0
    8.7417   41.0187   29.9815 C   0  0  0  0  0  0
    8.0725   41.2088   31.1396 N   0  0  0  0  0  0
    6.7451   40.9314   31.1851 C   0  0  0  0  0  0
    6.0478   40.4790   30.0522 C   0  0  0  0  0  0
    4.7244   40.1998   30.1405 F   0  0  0  0  0  0
    6.0985   41.1112   32.4012 O   0  0  0  0  0  0
    6.5136   40.4790   33.5692 C   0  0  0  0  0  0
    7.8531   40.4881   33.9771 C   0  0  0  0  0  0
    8.2759   39.8059   35.1062 C   0  0  0  0  0  0
    7.3759   39.1020   35.9135 C   0  0  0  0  0  0
    6.0176   39.1768   35.5670 C   0  0  0  0  0  0
    5.5724   39.8605   34.4207 C   0  0  0  0  0  0
    4.0870   39.9867   34.1934 C   0  0  0  0  0  0
    3.2904   40.0511   35.1256 O   0  0  0  0  0  0
    3.6893   40.0251   32.8957 O   0  0  0  0  0  0
    7.8249   38.3828   37.0550 N   0  0  0  0  0  0
    7.0021   37.3002   37.5994 C   0  0  0  0  0  0
    9.2627   38.2785   37.3146 C   0  0  0  0  0  0
   10.0874   41.2699   29.9950 O   0  0  0  0  0  0
   10.8967   40.2998   30.5292 C   0  0  0  0  0  0
   11.0677   40.2387   31.9064 C   0  0  0  0  0  0
   11.9311   39.3024   32.4553 C   0  0  0  0  0  0
   12.6895   38.4785   31.6250 C   0  0  0  0  0  0
   12.5516   38.5207   30.2233 C   0  0  0  0  0  0
   11.6071   39.4312   29.6972 C   0  0  0  0  0  0
   13.4324   37.6789   29.3668 C   0  0  0  0  0  0
   14.3833   37.0192   29.8637 N   0  0  0  0  0  0
   13.1315   37.6790   28.0295 N   0  0  0  0  0  0
    8.8581   40.4791   27.6963 F   0  0  0  0  0  0
    6.2166   38.4178   27.3003 C   0  0  0  0  0  0
    5.0058   37.6107   27.8129 C   0  0  0  0  0  0
    7.5178   37.6895   27.7173 C   0  0  0  0  0  0
    3.7996   40.9876   25.3234 H   0  0  0  0  0  0
    5.4894   40.5911   25.0272 H   0  0  0  0  0  0
    4.3414   39.3378   25.4822 H   0  0  0  0  0  0
    4.0958   40.3148   27.7357 H   0  0  0  0  0  0
    4.2247   42.6921   26.9561 H   0  0  0  0  0  0
    5.1509   42.4435   28.4118 H   0  0  0  0  0  0
    5.9774   42.5565   26.8608 H   0  0  0  0  0  0
    8.6014   41.0377   33.4398 H   0  0  0  0  0  0
    9.3291   39.8340   35.3265 H   0  0  0  0  0  0
    5.2850   38.7039   36.2033 H   0  0  0  0  0  0
    2.7579   40.2441   32.8641 H   0  0  0  0  0  0
    6.0028   37.6402   37.8736 H   0  0  0  0  0  0
    7.4525   36.8690   38.4948 H   0  0  0  0  0  0
    6.8945   36.5027   36.8612 H   0  0  0  0  0  0
    9.7680   37.8081   36.4693 H   0  0  0  0  0  0
    9.6973   39.2704   37.4575 H   0  0  0  0  0  0
    9.4893   37.6793   38.1926 H   0  0  0  0  0  0
   10.5545   40.9345   32.5489 H   0  0  0  0  0  0
   12.0842   39.2792   33.5228 H   0  0  0  0  0  0
   13.4013   37.8110   32.0932 H   0  0  0  0  0  0
   11.4660   39.5381   28.6296 H   0  0  0  0  0  0
   14.8486   36.5097   29.1250 H   0  0  0  0  0  0
   13.6884   37.1150   27.3994 H   0  0  0  0  0  0
   12.3113   38.1411   27.6491 H   0  0  0  0  0  0
    6.1973   38.3602   26.2095 H   0  0  0  0  0  0
    5.0689   36.5693   27.4967 H   0  0  0  0  0  0
    4.9541   37.6274   28.8967 H   0  0  0  0  0  0
    4.0625   38.0005   27.4311 H   0  0  0  0  0  0
    7.5267   36.6652   27.3408 H   0  0  0  0  0  0
    8.4048   38.1583   27.2975 H   0  0  0  0  0  0
    7.6449   37.6432   28.7976 H   0  0  0  0  0  0
  1  2  1  0  0  0
  1 39  1  0  0  0
  1 40  1  0  0  0
  1 41  1  0  0  0
  2  3  1  0  0  0
  2  4  1  0  0  0
  2 42  1  0  0  0
  3 43  1  0  0  0
  3 44  1  0  0  0
  3 45  1  0  0  0
  4  5  1  0  0  0
  4 36  1  0  0  0
  5 10  1  0  0  0
  5  6  2  0  0  0
  6  7  1  0  0  0
  6 35  1  0  0  0
  7  8  2  0  0  0
  7 25  1  0  0  0
  8  9  1  0  0  0
  9 10  2  0  0  0
  9 12  1  0  0  0
 10 11  1  0  0  0
 12 13  1  0  0  0
 13 18  1  0  0  0
 13 14  2  0  0  0
 14 15  1  0  0  0
 14 46  1  0  0  0
 15 16  2  0  0  0
 15 47  1  0  0  0
 16 17  1  0  0  0
 16 22  1  0  0  0
 17 18  2  0  0  0
 17 48  1  0  0  0
 18 19  1  0  0  0
 19 20  2  0  0  0
 19 21  1  0  0  0
 21 49  1  0  0  0
 22 23  1  0  0  0
 22 24  1  0  0  0
 23 50  1  0  0  0
 23 51  1  0  0  0
 23 52  1  0  0  0
 24 53  1  0  0  0
 24 54  1  0  0  0
 24 55  1  0  0  0
 25 26  1  0  0  0
 26 31  1  0  0  0
 26 27  2  0  0  0
 27 28  1  0  0  0
 27 56  1  0  0  0
 28 29  2  0  0  0
 28 57  1  0  0  0
 29 30  1  0  0  0
 29 58  1  0  0  0
 30 31  2  0  0  0
 30 32  1  0  0  0
 31 59  1  0  0  0
 32 33  2  3  0  0
 32 34  1  0  0  0
 33 60  1  0  0  0
 34 61  1  0  0  0
 34 62  1  0  0  0
 36 37  1  0  0  0
 36 38  1  0  0  0
 36 63  1  0  0  0
 37 64  1  0  0  0
 37 65  1  0  0  0
 37 66  1  0  0  0
 38 67  1  0  0  0
 38 68  1  0  0  0
 38 69  1  0  0  0
M  END
> <s_m_entry_id>
21101

> <s_m_entry_name>
ligand_docking-pose.67

> <s_m_Source_Path>
/home/csk/Desktop/cluster/DUD-E-result/fa7

> <s_m_Source_File>
ligand_docking-pose.sdf

> <i_m_Source_File_Index>
67

> <i_lp_mmshare_version>
53161

> <i_f3d_flags>
0

> <r_lp_tautomer_probability>
1

> <s_lp_Force_Field>
OPLS_2005

> <r_lp_Energy>
36.794575

> <b_lp_Chiralities_Consistent>
1

> <s_lp_Variant>
339548-1

> <s_i_glide_gridfile>
glide-grid_1w7x

> <i_i_glide_lignum>
622

> <i_i_glide_rotatable_bonds>
11

> <r_i_docking_score>
-6.92234740044519

> <r_i_glide_ligand_efficiency>
-0.182167036853821

> <r_i_glide_ligand_efficiency_sa>
-0.612441097089384

> <r_i_glide_ligand_efficiency_ln>
-1.49266173436519

> <r_i_glide_gscore>
-6.92234740044519

> <r_i_glide_lipo>
-1.46926121865471

> <r_i_glide_hbond>
-0.432310008321159

> <r_i_glide_metal>
0

> <r_i_glide_rewards>
-0.446558927555359

> <r_i_glide_evdw>
-44.2055473327637

> <r_i_glide_ecoul>
-18.0861854553223

> <r_i_glide_erotb>
0.444002849087944

> <r_i_glide_esite>
-0.0950149100653832

> <r_i_glide_emodel>
-80.7896137865511

> <r_i_glide_energy>
-62.2917327880859

> <r_i_glide_einternal>
12.1164255142212

> <i_i_glide_confnum>
22

> <i_i_glide_posenum>
247

> <r_i_glide_eff_state_penalty>
0

> <s_user_duplicate_titles>
339548

> <s_m_subgroup_title>
dock_pv

> <s_m_subgroupid>
dock_pv1

> <b_m_subgroup_collapsed>
0

$$$$
152150
                    3D
 Schrodinger Suite 2021-1.
 42 45  0  0  1  0            999 V2000
    6.7339   39.4872   38.9348 C   0  0  0  0  0  0
    7.1465   40.8086   38.7918 C   0  0  0  0  0  0
    7.5310   41.2798   37.5383 C   0  0  0  0  0  0
    7.5022   40.4379   36.4196 C   0  0  0  0  0  0
    7.0713   39.1141   36.5794 C   0  0  0  0  0  0
    6.6925   38.6380   37.8324 C   0  0  0  0  0  0
    7.9309   40.9445   35.0810 C   0  0  0  0  0  0
    7.3553   42.1150   34.5733 C   0  0  0  0  0  0
    7.7179   42.6100   33.3241 C   0  0  0  0  0  0
    8.6732   41.9456   32.5609 C   0  0  0  0  0  0
    9.2886   40.7866   33.0416 C   0  0  0  0  0  0
    8.9143   40.2913   34.3106 C   0  0  0  0  0  0
    9.5290   39.1760   34.8329 O   0  0  0  0  0  0
   10.3233   40.1390   32.1694 C   0  0  0  0  0  0
   10.4700   40.0790   30.7870 C   0  0  0  0  0  0
   11.6263   39.2788   30.4895 C   0  0  0  0  0  0
   12.2807   38.8651   29.3193 C   0  0  0  0  0  0
   13.4461   38.0732   29.4026 C   0  0  0  0  0  0
   13.8995   37.6790   30.6728 C   0  0  0  0  0  0
   13.2926   38.0765   31.8531 C   0  0  0  0  0  0
   12.1671   38.8790   31.7355 C   0  0  0  0  0  0
   11.3817   39.4501   32.7016 N   0  0  0  0  0  0
   14.2335   37.6790   28.2073 C   0  0  0  0  0  0
   15.4481   37.3569   28.3250 N   0  0  0  0  0  0
   13.5310   37.6790   27.0301 N   0  0  0  0  0  0
   11.4977   39.3518   33.6970 H   0  0  0  0  0  0
    6.4521   39.1146   39.9094 H   0  0  0  0  0  0
    7.1958   41.4595   39.6534 H   0  0  0  0  0  0
    7.8755   42.3003   37.4450 H   0  0  0  0  0  0
    7.0274   38.4466   35.7303 H   0  0  0  0  0  0
    6.3739   37.6120   37.9511 H   0  0  0  0  0  0
    6.6118   42.6471   35.1479 H   0  0  0  0  0  0
    7.2603   43.5127   32.9460 H   0  0  0  0  0  0
    8.9464   42.3489   31.5962 H   0  0  0  0  0  0
    9.1299   38.9139   35.6674 H   0  0  0  0  0  0
    9.8088   40.5450   30.0720 H   0  0  0  0  0  0
   11.9064   39.2045   28.3652 H   0  0  0  0  0  0
   14.7732   37.0515   30.7732 H   0  0  0  0  0  0
   13.6881   37.7879   32.8157 H   0  0  0  0  0  0
   15.7814   37.4605   29.2688 H   0  0  0  0  0  0
   13.9883   37.2628   26.2224 H   0  0  0  0  0  0
   12.5753   38.0117   26.9467 H   0  0  0  0  0  0
  1  6  1  0  0  0
  1  2  2  0  0  0
  1 27  1  0  0  0
  2  3  1  0  0  0
  2 28  1  0  0  0
  3  4  2  0  0  0
  3 29  1  0  0  0
  4  5  1  0  0  0
  4  7  1  0  0  0
  5  6  2  0  0  0
  5 30  1  0  0  0
  6 31  1  0  0  0
  7 12  1  0  0  0
  7  8  2  0  0  0
  8  9  1  0  0  0
  8 32  1  0  0  0
  9 10  2  0  0  0
  9 33  1  0  0  0
 10 11  1  0  0  0
 10 34  1  0  0  0
 11 12  2  0  0  0
 11 14  1  0  0  0
 12 13  1  0  0  0
 13 35  1  0  0  0
 14 22  1  0  0  0
 14 15  2  0  0  0
 15 16  1  0  0  0
 15 36  1  0  0  0
 16 21  2  0  0  0
 16 17  1  0  0  0
 17 18  2  0  0  0
 17 37  1  0  0  0
 18 19  1  0  0  0
 18 23  1  0  0  0
 19 20  2  0  0  0
 19 38  1  0  0  0
 20 21  1  0  0  0
 20 39  1  0  0  0
 21 22  1  0  0  0
 22 26  1  0  0  0
 23 24  2  3  0  0
 23 25  1  0  0  0
 24 40  1  0  0  0
 25 41  1  0  0  0
 25 42  1  0  0  0
M  END
> <s_m_entry_id>
21102

> <s_m_entry_name>
ligand_docking-pose.68

> <s_m_Source_Path>
/home/csk/Desktop/cluster/DUD-E-result/fa7

> <s_m_Source_File>
ligand_docking-pose.sdf

> <i_m_Source_File_Index>
68

> <i_lp_mmshare_version>
53161

> <i_f3d_flags>
0

> <r_lp_tautomer_probability>
0.999999999997365

> <s_lp_Force_Field>
OPLS_2005

> <r_lp_Energy>
21.352282

> <b_lp_Chiralities_Consistent>
1

> <s_lp_Variant>
152150-2

> <s_i_glide_gridfile>
glide-grid_1w7x

> <i_i_glide_lignum>
88

> <i_i_glide_rotatable_bonds>
4

> <r_i_docking_score>
-6.91532742906472

> <r_i_glide_ligand_efficiency>
-0.276613097162589

> <r_i_glide_ligand_efficiency_sa>
-0.808821601857577

> <r_i_glide_ligand_efficiency_ln>
-1.6391398363285

> <r_i_glide_gscore>
-6.91532742906472

> <r_i_glide_lipo>
-2.39940617090651

> <r_i_glide_hbond>
-0.589762504434612

> <r_i_glide_metal>
0

> <r_i_glide_rewards>
-1.5483300850157

> <r_i_glide_evdw>
-33.5940704345703

> <r_i_glide_ecoul>
-6.58289909362793

> <r_i_glide_erotb>
0.35021251521435

> <r_i_glide_esite>
-0.0609027981495445

> <r_i_glide_emodel>
-54.6938701210956

> <r_i_glide_energy>
-40.1769695281982

> <r_i_glide_einternal>
3.4111316204071

> <i_i_glide_confnum>
4

> <i_i_glide_posenum>
188

> <r_i_glide_eff_state_penalty>
0

> <s_user_duplicate_titles>
152150

> <s_m_subgroup_title>
dock_pv

> <s_m_subgroupid>
dock_pv1

> <b_m_subgroup_collapsed>
0

$$$$
342201
                    3D
 Schrodinger Suite 2021-1.
 55 58  0  0  1  0            999 V2000
    6.8069   39.1845   39.7131 C   0  0  0  0  0  0
    5.6557   38.4803   39.3737 C   0  0  0  0  0  0
    5.1360   38.5818   38.0853 C   0  0  0  0  0  0
    5.7643   39.3860   37.1320 C   0  0  0  0  0  0
    6.9329   40.1026   37.4598 C   0  0  0  0  0  0
    7.4359   39.9853   38.7634 C   0  0  0  0  0  0
    7.6432   40.9992   36.4941 C   0  0  0  0  0  0
    7.8070   42.3454   36.8278 C   0  0  0  0  0  0
    8.4480   43.2602   35.9830 C   0  0  0  0  0  0
    8.9951   42.7774   34.7834 C   0  0  0  0  0  0
    8.9204   41.4166   34.4538 C   0  0  0  0  0  0
    8.2232   40.5362   35.3000 C   0  0  0  0  0  0
    8.1506   39.2038   34.9773 O   0  0  0  0  0  0
    9.6548   40.9086   33.2531 C   0  0  0  0  0  0
    9.4799   41.3865   31.9749 N   0  0  0  0  0  0
   10.2801   40.6340   31.1433 C   0  0  0  0  0  0
   10.4839   40.6036   29.7678 C   0  0  0  0  0  0
   11.4187   39.6786   29.2970 C   0  0  0  0  0  0
   12.1674   38.8191   30.1245 C   0  0  0  0  0  0
   11.9311   38.8807   31.5128 C   0  0  0  0  0  0
   10.9673   39.7663   32.0180 C   0  0  0  0  0  0
   10.5303   39.9309   33.3048 N   0  0  0  0  0  0
   13.1987   37.8868   29.5713 C   0  0  0  0  0  0
   14.0545   37.3470   30.3242 N   0  0  0  0  0  0
   13.1316   37.6794   28.2150 N   0  0  0  0  0  0
    8.5719   44.7312   36.4523 C   0  0  1  0  0  0
    9.2229   45.7396   35.4782 C   0  0  0  0  0  0
   10.7369   45.6536   35.5627 C   0  0  0  0  0  0
   11.4618   45.3017   34.6376 O   0  0  0  0  0  0
   11.1995   46.0793   36.7724 O   0  0  0  0  0  0
    7.1922   45.2984   36.7999 C   0  0  0  0  0  0
    6.2288   45.2930   36.0350 O   0  0  0  0  0  0
    7.1311   45.7374   38.0943 O   0  0  0  0  0  0
    5.1896   39.4631   35.8634 N   0  0  0  0  0  0
    8.8401   42.1303   31.7382 H   0  0  0  0  0  0
    7.2173   39.1079   40.7099 H   0  0  0  0  0  0
    5.1688   37.8542   40.1074 H   0  0  0  0  0  0
    4.2419   38.0294   37.8357 H   0  0  0  0  0  0
    8.3287   40.5181   39.0494 H   0  0  0  0  0  0
    7.4346   42.6887   37.7811 H   0  0  0  0  0  0
    9.5405   43.4370   34.1252 H   0  0  0  0  0  0
    8.7416   38.9898   34.2499 H   0  0  0  0  0  0
    9.9616   41.2612   29.0884 H   0  0  0  0  0  0
   11.5808   39.6795   28.2282 H   0  0  0  0  0  0
   12.4664   38.2468   32.2040 H   0  0  0  0  0  0
   13.9597   37.6341   31.2845 H   0  0  0  0  0  0
   13.7807   37.0250   27.7957 H   0  0  0  0  0  0
   12.4025   38.0812   27.6385 H   0  0  0  0  0  0
    9.1569   44.6799   37.3742 H   0  0  0  0  0  0
    8.8871   45.5623   34.4535 H   0  0  0  0  0  0
    8.9696   46.7810   35.6969 H   0  0  0  0  0  0
   12.1602   46.1368   36.8053 H   0  0  0  0  0  0
    7.9904   45.6842   38.5450 H   0  0  0  0  0  0
    4.4995   38.7548   35.6645 H   0  0  0  0  0  0
    5.8507   39.6902   35.1327 H   0  0  0  0  0  0
  1  6  1  0  0  0
  1  2  2  0  0  0
  1 36  1  0  0  0
  2  3  1  0  0  0
  2 37  1  0  0  0
  3  4  2  0  0  0
  3 38  1  0  0  0
  4  5  1  0  0  0
  4 34  1  0  0  0
  5  6  2  0  0  0
  5  7  1  0  0  0
  6 39  1  0  0  0
  7 12  1  0  0  0
  7  8  2  0  0  0
  8  9  1  0  0  0
  8 40  1  0  0  0
  9 10  2  0  0  0
  9 26  1  0  0  0
 10 11  1  0  0  0
 10 41  1  0  0  0
 11 12  2  0  0  0
 11 14  1  0  0  0
 12 13  1  0  0  0
 13 42  1  0  0  0
 14 22  2  0  0  0
 14 15  1  0  0  0
 15 35  1  0  0  0
 15 16  1  0  0  0
 16 21  2  0  0  0
 16 17  1  0  0  0
 17 18  2  0  0  0
 17 43  1  0  0  0
 18 19  1  0  0  0
 18 44  1  0  0  0
 19 20  2  0  0  0
 19 23  1  0  0  0
 20 21  1  0  0  0
 20 45  1  0  0  0
 21 22  1  0  0  0
 23 24  2  3  0  0
 23 25  1  0  0  0
 24 46  1  0  0  0
 25 47  1  0  0  0
 25 48  1  0  0  0
 26 27  1  0  0  0
 26 31  1  0  0  0
 26 49  1  0  0  0
 27 28  1  0  0  0
 27 50  1  0  0  0
 27 51  1  0  0  0
 28 29  2  0  0  0
 28 30  1  0  0  0
 30 52  1  0  0  0
 31 32  2  0  0  0
 31 33  1  0  0  0
 33 53  1  0  0  0
 34 54  1  0  0  0
 34 55  1  0  0  0
M  END
> <s_m_entry_id>
21103

> <s_m_entry_name>
ligand_docking-pose.69

> <s_m_Source_Path>
/home/csk/Desktop/cluster/DUD-E-result/fa7

> <s_m_Source_File>
ligand_docking-pose.sdf

> <i_m_Source_File_Index>
69

> <i_lp_mmshare_version>
53161

> <i_f3d_flags>
0

> <r_lp_tautomer_probability>
0.999999999997365

> <s_lp_Force_Field>
OPLS_2005

> <r_lp_Energy>
30.307068

> <b_lp_Chiralities_Consistent>
1

> <s_lp_Variant>
342201-4

> <s_i_glide_gridfile>
glide-grid_1w7x

> <i_i_glide_lignum>
139

> <i_i_glide_rotatable_bonds>
10

> <r_i_docking_score>
-6.902680980083

> <r_i_glide_ligand_efficiency>
-0.203020028825971

> <r_i_glide_ligand_efficiency_sa>
-0.657706080507207

> <r_i_glide_ligand_efficiency_ln>
-1.5249958421437

> <r_i_glide_gscore>
-6.902680980083

> <r_i_glide_lipo>
-1.43196786740783

> <r_i_glide_hbond>
-0.385367255538294

> <r_i_glide_metal>
0

> <r_i_glide_rewards>
-1.09427604503805

> <r_i_glide_evdw>
-47.639778137207

> <r_i_glide_ecoul>
-13.9864282608032

> <r_i_glide_erotb>
0.571887818193928

> <r_i_glide_esite>
-0.0830044843119155

> <r_i_glide_emodel>
-82.2368857041417

> <r_i_glide_energy>
-61.6262063980103

> <r_i_glide_einternal>
10.1745119094849

> <i_i_glide_confnum>
9

> <i_i_glide_posenum>
398

> <r_i_glide_eff_state_penalty>
0

> <s_user_duplicate_titles>
342201

> <s_m_subgroup_title>
dock_pv

> <s_m_subgroupid>
dock_pv1

> <b_m_subgroup_collapsed>
0

$$$$
342383
                    3D
 Schrodinger Suite 2021-1.
 55 58  0  0  1  0            999 V2000
    5.6619   38.2822   38.3522 C   0  0  0  0  0  0
    6.3121   39.0116   37.3565 C   0  0  0  0  0  0
    7.1141   40.1166   37.6780 C   0  0  0  0  0  0
    7.2355   40.4564   39.0352 C   0  0  0  0  0  0
    6.5468   39.7749   40.0456 C   0  0  0  0  0  0
    5.7702   38.6657   39.6876 C   0  0  0  0  0  0
    6.5990   40.2588   41.4468 N   0  3  0  0  0  0
    7.2384   41.2772   41.6930 O   0  5  0  0  0  0
    5.9315   39.6790   42.2976 O   0  0  0  0  0  0
    7.7716   40.9678   36.6278 C   0  0  0  0  0  0
    7.8782   42.3444   36.8648 C   0  0  0  0  0  0
    8.4341   43.2409   35.9512 C   0  0  0  0  0  0
    8.9353   42.7222   34.7478 C   0  0  0  0  0  0
    8.9186   41.3419   34.4945 C   0  0  0  0  0  0
    8.3287   40.4684   35.4310 C   0  0  0  0  0  0
    8.3620   39.1137   35.2075 O   0  0  0  0  0  0
    9.6281   40.8306   33.2766 C   0  0  0  0  0  0
    9.3930   41.2819   31.9974 N   0  0  0  0  0  0
   10.2104   40.5652   31.1511 C   0  0  0  0  0  0
   10.3929   40.5433   29.7713 C   0  0  0  0  0  0
   11.3597   39.6598   29.2854 C   0  0  0  0  0  0
   12.1454   38.8223   30.0992 C   0  0  0  0  0  0
   11.9324   38.8796   31.4903 C   0  0  0  0  0  0
   10.9525   39.7322   32.0146 C   0  0  0  0  0  0
   10.5585   39.9038   33.3128 N   0  0  0  0  0  0
   13.2021   37.9205   29.5415 C   0  0  0  0  0  0
   14.0887   37.4302   30.2897 N   0  0  0  0  0  0
   13.1281   37.6793   28.1897 N   0  0  0  0  0  0
    8.5260   44.7328   36.3659 C   0  0  1  0  0  0
    9.0958   45.7266   35.3321 C   0  0  0  0  0  0
   10.6108   45.6534   35.3197 C   0  0  0  0  0  0
   11.2830   45.3127   34.3515 O   0  0  0  0  0  0
   11.1361   46.0790   36.5023 O   0  0  0  0  0  0
    7.1489   45.2730   36.7615 C   0  0  0  0  0  0
    6.1503   45.2176   36.0467 O   0  0  0  0  0  0
    7.1326   45.7346   38.0487 O   0  0  0  0  0  0
    8.7137   41.9923   31.7713 H   0  0  0  0  0  0
    5.0519   37.4307   38.0865 H   0  0  0  0  0  0
    6.1567   38.7208   36.3279 H   0  0  0  0  0  0
    7.8669   41.2865   39.3172 H   0  0  0  0  0  0
    5.2332   38.1044   40.4404 H   0  0  0  0  0  0
    7.5237   42.7518   37.7986 H   0  0  0  0  0  0
    9.4096   43.3741   34.0292 H   0  0  0  0  0  0
    8.2361   38.6081   36.0139 H   0  0  0  0  0  0
    9.8350   41.1816   29.1022 H   0  0  0  0  0  0
   11.5148   39.6663   28.2159 H   0  0  0  0  0  0
   12.5218   38.2727   32.1646 H   0  0  0  0  0  0
   14.7282   36.8675   29.7519 H   0  0  0  0  0  0
   13.7765   37.0358   27.7529 H   0  0  0  0  0  0
   12.3954   38.0798   27.6157 H   0  0  0  0  0  0
    9.1493   44.7391   37.2680 H   0  0  0  0  0  0
    8.6955   45.5265   34.3350 H   0  0  0  0  0  0
    8.8513   46.7686   35.5623 H   0  0  0  0  0  0
   12.0974   46.1314   36.4814 H   0  0  0  0  0  0
    8.0017   45.6954   38.4808 H   0  0  0  0  0  0
  1  6  1  0  0  0
  1  2  2  0  0  0
  1 38  1  0  0  0
  2  3  1  0  0  0
  2 39  1  0  0  0
  3  4  2  0  0  0
  3 10  1  0  0  0
  4  5  1  0  0  0
  4 40  1  0  0  0
  5  6  2  0  0  0
  5  7  1  0  0  0
  6 41  1  0  0  0
  7  8  1  0  0  0
  7  9  2  0  0  0
 10 15  1  0  0  0
 10 11  2  0  0  0
 11 12  1  0  0  0
 11 42  1  0  0  0
 12 13  2  0  0  0
 12 29  1  0  0  0
 13 14  1  0  0  0
 13 43  1  0  0  0
 14 15  2  0  0  0
 14 17  1  0  0  0
 15 16  1  0  0  0
 16 44  1  0  0  0
 17 25  2  0  0  0
 17 18  1  0  0  0
 18 37  1  0  0  0
 18 19  1  0  0  0
 19 24  2  0  0  0
 19 20  1  0  0  0
 20 21  2  0  0  0
 20 45  1  0  0  0
 21 22  1  0  0  0
 21 46  1  0  0  0
 22 23  2  0  0  0
 22 26  1  0  0  0
 23 24  1  0  0  0
 23 47  1  0  0  0
 24 25  1  0  0  0
 26 27  2  3  0  0
 26 28  1  0  0  0
 27 48  1  0  0  0
 28 49  1  0  0  0
 28 50  1  0  0  0
 29 30  1  0  0  0
 29 34  1  0  0  0
 29 51  1  0  0  0
 30 31  1  0  0  0
 30 52  1  0  0  0
 30 53  1  0  0  0
 31 32  2  0  0  0
 31 33  1  0  0  0
 33 54  1  0  0  0
 34 35  2  0  0  0
 34 36  1  0  0  0
 36 55  1  0  0  0
M  CHG  2   7   1   8  -1
M  END
> <s_m_entry_id>
21104

> <s_m_entry_name>
ligand_docking-pose.70

> <s_m_Source_Path>
/home/csk/Desktop/cluster/DUD-E-result/fa7

> <s_m_Source_File>
ligand_docking-pose.sdf

> <i_m_Source_File_Index>
70

> <i_lp_mmshare_version>
53161

> <i_f3d_flags>
0

> <r_lp_tautomer_probability>
0.999999999997365

> <s_lp_Force_Field>
OPLS_2005

> <r_lp_Energy>
27.506642

> <b_lp_Chiralities_Consistent>
1

> <s_lp_Variant>
342383-3

> <s_i_glide_gridfile>
glide-grid_1w7x

> <i_i_glide_lignum>
324

> <i_i_glide_rotatable_bonds>
11

> <r_i_docking_score>
-6.89724577570526

> <r_i_glide_ligand_efficiency>
-0.191590160436257

> <r_i_glide_ligand_efficiency_sa>
-0.632616770608907

> <r_i_glide_ligand_efficiency_ln>
-1.50479268621251

> <r_i_glide_gscore>
-6.89724577570526

> <r_i_glide_lipo>
-1.39426126374668

> <r_i_glide_hbond>
-0.378737913307681

> <r_i_glide_metal>
0

> <r_i_glide_rewards>
-0.877618445450611

> <r_i_glide_evdw>
-51.7156677246094

> <r_i_glide_ecoul>
-14.1924562454224

> <r_i_glide_erotb>
0.509545778950688

> <r_i_glide_esite>
-0.0415221091071572

> <r_i_glide_emodel>
-86.6842291858005

> <r_i_glide_energy>
-65.9081239700317

> <r_i_glide_einternal>
12.3502073287964

> <i_i_glide_confnum>
14

> <i_i_glide_posenum>
168

> <r_i_glide_eff_state_penalty>
0

> <s_user_duplicate_titles>
342383

> <s_m_subgroup_title>
dock_pv

> <s_m_subgroupid>
dock_pv1

> <b_m_subgroup_collapsed>
0

$$$$
342648
                    3D
 Schrodinger Suite 2021-1.
 53 56  0  0  1  0            999 V2000
   13.0438   38.2475   28.9663 C   0  0  0  0  0  0
   11.8414   38.9475   29.0856 C   0  0  0  0  0  0
   11.4352   39.2882   30.3682 C   0  0  0  0  0  0
   12.1508   38.8790   31.5091 C   0  0  0  0  0  0
   13.3448   38.1523   31.3642 C   0  0  0  0  0  0
   13.8498   37.9087   30.0708 C   0  0  0  0  0  0
   15.2584   37.4580   29.8826 C   0  0  0  0  0  0
   16.1295   37.6790   30.7610 N   0  0  0  0  0  0
   15.5310   36.8790   28.6738 N   0  0  0  0  0  0
   11.5230   39.3243   32.6431 N   0  0  0  0  0  0
   10.4444   39.9650   32.2421 C   0  0  0  0  0  0
   10.3797   40.0195   30.8664 N   0  0  0  0  0  0
    9.3345   40.4481   33.1520 C   0  0  0  0  0  0
    8.4570   41.4471   32.7098 C   0  0  0  0  0  0
    7.3704   41.8582   33.4913 C   0  0  0  0  0  0
    7.1533   41.2410   34.7270 C   0  0  0  0  0  0
    7.9987   40.2428   35.2071 C   0  0  0  0  0  0
    9.0982   39.8660   34.4149 C   0  0  0  0  0  0
    9.9304   38.8789   34.8657 O   0  0  0  0  0  0
    7.6892   39.6102   36.5284 C   0  0  0  0  0  0
    7.5969   40.4238   37.6689 C   0  0  0  0  0  0
    7.3051   39.8830   38.9214 C   0  0  0  0  0  0
    7.1367   38.5080   39.0587 C   0  0  0  0  0  0
    7.2110   37.6835   37.9385 C   0  0  0  0  0  0
    7.4564   38.2264   36.6748 C   0  0  0  0  0  0
    7.3987   37.1560   35.3125 Cl  0  0  0  0  0  0
    7.1310   40.9152   40.2954 Cl  0  0  0  0  0  0
    6.3797   42.9138   32.9610 C   0  0  1  0  0  0
    5.0051   42.3402   32.5518 C   0  0  0  0  0  0
    5.1434   41.2257   31.5344 C   0  0  0  0  0  0
    4.7310   40.0822   31.7157 O   0  0  0  0  0  0
    5.7392   41.6518   30.3850 O   0  0  0  0  0  0
    6.1272   44.0075   34.0048 C   0  0  0  0  0  0
    5.1394   44.0771   34.7393 O   0  0  0  0  0  0
    7.1820   44.8690   34.0728 O   0  0  0  0  0  0
    9.6262   40.4542   30.3556 H   0  0  0  0  0  0
   13.3959   38.0672   27.9595 H   0  0  0  0  0  0
   11.2972   39.2791   28.2150 H   0  0  0  0  0  0
   13.9272   37.9036   32.2404 H   0  0  0  0  0  0
   17.0416   37.3804   30.4510 H   0  0  0  0  0  0
   16.4698   36.6063   28.4231 H   0  0  0  0  0  0
   14.7804   36.5160   28.0965 H   0  0  0  0  0  0
    8.6104   41.8993   31.7408 H   0  0  0  0  0  0
    6.2974   41.5268   35.3202 H   0  0  0  0  0  0
   10.5482   38.6021   34.1766 H   0  0  0  0  0  0
    7.7554   41.4897   37.5859 H   0  0  0  0  0  0
    6.9295   38.0806   40.0288 H   0  0  0  0  0  0
    7.0568   36.6194   38.0510 H   0  0  0  0  0  0
    6.8206   43.4052   32.0887 H   0  0  0  0  0  0
    4.4974   41.9150   33.4226 H   0  0  0  0  0  0
    4.3518   43.1138   32.1368 H   0  0  0  0  0  0
    5.9298   42.5903   30.3951 H   0  0  0  0  0  0
    7.8998   44.6386   33.4816 H   0  0  0  0  0  0
  1  6  1  0  0  0
  1  2  2  0  0  0
  1 37  1  0  0  0
  2  3  1  0  0  0
  2 38  1  0  0  0
  3 12  1  0  0  0
  3  4  2  0  0  0
  4  5  1  0  0  0
  4 10  1  0  0  0
  5  6  2  0  0  0
  5 39  1  0  0  0
  6  7  1  0  0  0
  7  8  2  3  0  0
  7  9  1  0  0  0
  8 40  1  0  0  0
  9 41  1  0  0  0
  9 42  1  0  0  0
 10 11  2  0  0  0
 11 12  1  0  0  0
 11 13  1  0  0  0
 12 36  1  0  0  0
 13 18  1  0  0  0
 13 14  2  0  0  0
 14 15  1  0  0  0
 14 43  1  0  0  0
 15 16  2  0  0  0
 15 28  1  0  0  0
 16 17  1  0  0  0
 16 44  1  0  0  0
 17 18  2  0  0  0
 17 20  1  0  0  0
 18 19  1  0  0  0
 19 45  1  0  0  0
 20 25  1  0  0  0
 20 21  2  0  0  0
 21 22  1  0  0  0
 21 46  1  0  0  0
 22 23  2  0  0  0
 22 27  1  0  0  0
 23 24  1  0  0  0
 23 47  1  0  0  0
 24 25  2  0  0  0
 24 48  1  0  0  0
 25 26  1  0  0  0
 28 29  1  0  0  0
 28 33  1  0  0  0
 28 49  1  0  0  0
 29 30  1  0  0  0
 29 50  1  0  0  0
 29 51  1  0  0  0
 30 31  2  0  0  0
 30 32  1  0  0  0
 32 52  1  0  0  0
 33 34  2  0  0  0
 33 35  1  0  0  0
 35 53  1  0  0  0
M  END
> <s_m_entry_id>
21105

> <s_m_entry_name>
ligand_docking-pose.71

> <s_m_Source_Path>
/home/csk/Desktop/cluster/DUD-E-result/fa7

> <s_m_Source_File>
ligand_docking-pose.sdf

> <i_m_Source_File_Index>
71

> <i_lp_mmshare_version>
53161

> <i_f3d_flags>
0

> <r_lp_tautomer_probability>
0.999999999997365

> <s_lp_Force_Field>
OPLS_2005

> <r_lp_Energy>
26.612601

> <b_lp_Chiralities_Consistent>
1

> <s_lp_Variant>
342648-3

> <s_i_glide_gridfile>
glide-grid_1w7x

> <i_i_glide_lignum>
7

> <i_i_glide_rotatable_bonds>
10

> <r_i_docking_score>
-6.87482400858398

> <r_i_glide_ligand_efficiency>
-0.1964235431024

> <r_i_glide_ligand_efficiency_sa>
-0.642514433608681

> <r_i_glide_ligand_efficiency_ln>
-1.50917644838234

> <r_i_glide_gscore>
-6.87482400858398

> <r_i_glide_lipo>
-2.42975054310375

> <r_i_glide_hbond>
-0.5606617647112

> <r_i_glide_metal>
0

> <r_i_glide_rewards>
-0.669757203612783

> <r_i_glide_evdw>
-36.8120269775391

> <r_i_glide_ecoul>
-11.7085437774658

> <r_i_glide_erotb>
0.466904607022728

> <r_i_glide_esite>
-0.0846761886821547

> <r_i_glide_emodel>
-68.1538561990682

> <r_i_glide_energy>
-48.5205707550049

> <r_i_glide_einternal>
4.07686042785645

> <i_i_glide_confnum>
4

> <i_i_glide_posenum>
341

> <r_i_glide_eff_state_penalty>
0

> <s_user_duplicate_titles>
342648

> <s_m_subgroup_title>
dock_pv

> <s_m_subgroupid>
dock_pv1

> <b_m_subgroup_collapsed>
0

$$$$
357215
                    3D
 Schrodinger Suite 2021-1.
 62 66  0  0  1  0            999 V2000
    5.6900   32.2618   36.0971 C   0  0  0  0  0  0
    4.9178   32.9112   35.1348 C   0  0  0  0  0  0
    5.0471   34.2876   34.9571 C   0  0  0  0  0  0
    5.9564   35.0057   35.7385 C   0  0  0  0  0  0
    6.7310   34.3457   36.6940 C   0  0  0  0  0  0
    6.5948   32.9752   36.8801 C   0  0  0  0  0  0
    6.0955   36.5157   35.5963 C   0  0  0  0  0  0
    5.3731   37.2774   36.7354 C   0  0  1  0  0  0
    5.7804   38.7673   36.8276 C   0  0  0  0  0  0
    5.0169   39.6790   36.4978 O   0  0  0  0  0  0
    7.0095   38.9961   37.3247 N   0  0  0  0  0  0
    7.5953   40.3077   37.6046 C   0  0  0  0  0  0
    7.8110   41.2532   36.4212 C   0  0  0  0  0  0
    7.7492   42.6310   36.6517 C   0  0  0  0  0  0
    7.9719   43.5314   35.6146 C   0  0  0  0  0  0
    8.2562   43.0592   34.3362 C   0  0  0  0  0  0
    8.3274   41.6853   34.0756 C   0  0  0  0  0  0
    8.0944   40.7867   35.1272 C   0  0  0  0  0  0
    8.6235   41.2188   32.6924 C   0  0  0  0  0  0
    7.7462   41.5920   31.6698 C   0  0  0  0  0  0
    7.9877   41.2266   30.3525 C   0  0  0  0  0  0
    9.1194   40.4857   30.0354 C   0  0  0  0  0  0
   10.0294   40.0841   31.0258 C   0  0  0  0  0  0
    9.7653   40.4588   32.3623 C   0  0  0  0  0  0
   10.6440   40.0831   33.3454 O   0  0  0  0  0  0
   11.2352   39.2791   30.5878 C   0  0  0  0  0  0
   11.5318   38.8563   29.2970 C   0  0  0  0  0  0
   12.8093   38.2438   29.3160 C   0  0  0  0  0  0
   13.7351   37.7105   28.3907 C   0  0  0  0  0  0
   14.9152   37.2790   28.8584 N   0  0  0  0  0  0
   15.2600   37.2790   30.1535 C   0  0  0  0  0  0
   14.3671   37.7538   31.1176 C   0  0  0  0  0  0
   13.1359   38.2665   30.6846 C   0  0  0  0  0  0
   12.1700   38.8790   31.4249 N   0  0  0  0  0  0
   13.5310   37.6790   27.0179 N   0  0  0  0  0  0
    3.9665   37.1378   36.5756 O   0  0  0  0  0  0
    5.6436   36.8274   37.6934 H   0  0  0  0  0  0
   15.5695   36.9142   28.1794 H   0  0  0  0  0  0
    5.5806   31.1965   36.2428 H   0  0  0  0  0  0
    4.2119   32.3485   34.5414 H   0  0  0  0  0  0
    4.4293   34.7919   34.2299 H   0  0  0  0  0  0
    7.4401   34.8941   37.2970 H   0  0  0  0  0  0
    7.1907   32.4792   37.6315 H   0  0  0  0  0  0
    7.1651   36.7388   35.5975 H   0  0  0  0  0  0
    5.7379   36.8435   34.6185 H   0  0  0  0  0  0
    7.5678   38.1991   37.5940 H   0  0  0  0  0  0
    6.9810   40.7952   38.3649 H   0  0  0  0  0  0
    8.5662   40.1444   38.0751 H   0  0  0  0  0  0
    7.5464   43.0131   37.6424 H   0  0  0  0  0  0
    7.9340   44.5946   35.8035 H   0  0  0  0  0  0
    8.4336   43.7694   33.5412 H   0  0  0  0  0  0
    8.1500   39.7245   34.9364 H   0  0  0  0  0  0
    6.8683   42.1799   31.8973 H   0  0  0  0  0  0
    7.3037   41.5288   29.5729 H   0  0  0  0  0  0
    9.2724   40.2374   28.9965 H   0  0  0  0  0  0
   11.3938   39.6339   32.9254 H   0  0  0  0  0  0
   10.9154   39.0430   28.4391 H   0  0  0  0  0  0
   16.2557   36.9182   30.3672 H   0  0  0  0  0  0
   14.6408   37.8012   32.1571 H   0  0  0  0  0  0
   12.6284   38.0047   26.6706 H   0  0  0  0  0  0
   14.1418   37.1307   26.4133 H   0  0  0  0  0  0
    3.7571   36.1998   36.5527 H   0  0  0  0  0  0
  1  6  1  0  0  0
  1  2  2  0  0  0
  1 39  1  0  0  0
  2  3  1  0  0  0
  2 40  1  0  0  0
  3  4  2  0  0  0
  3 41  1  0  0  0
  4  5  1  0  0  0
  4  7  1  0  0  0
  5  6  2  0  0  0
  5 42  1  0  0  0
  6 43  1  0  0  0
  7  8  1  0  0  0
  7 44  1  0  0  0
  7 45  1  0  0  0
  8 37  1  0  0  0
  8  9  1  0  0  0
  8 36  1  0  0  0
  9 10  2  0  0  0
  9 11  1  0  0  0
 11 12  1  0  0  0
 11 46  1  0  0  0
 12 13  1  0  0  0
 12 47  1  0  0  0
 12 48  1  0  0  0
 13 18  1  0  0  0
 13 14  2  0  0  0
 14 15  1  0  0  0
 14 49  1  0  0  0
 15 16  2  0  0  0
 15 50  1  0  0  0
 16 17  1  0  0  0
 16 51  1  0  0  0
 17 18  2  0  0  0
 17 19  1  0  0  0
 18 52  1  0  0  0
 19 24  1  0  0  0
 19 20  2  0  0  0
 20 21  1  0  0  0
 20 53  1  0  0  0
 21 22  2  0  0  0
 21 54  1  0  0  0
 22 23  1  0  0  0
 22 55  1  0  0  0
 23 24  2  0  0  0
 23 26  1  0  0  0
 24 25  1  0  0  0
 25 56  1  0  0  0
 26 34  1  0  0  0
 26 27  2  0  0  0
 27 28  1  0  0  0
 27 57  1  0  0  0
 28 33  1  0  0  0
 28 29  2  0  0  0
 29 30  1  0  0  0
 29 35  1  0  0  0
 30 38  1  0  0  0
 30 31  1  0  0  0
 31 32  2  0  0  0
 31 58  1  0  0  0
 32 33  1  0  0  0
 32 59  1  0  0  0
 33 34  2  0  0  0
 35 60  1  0  0  0
 35 61  1  0  0  0
 36 62  1  0  0  0
M  END
> <s_m_entry_id>
21107

> <s_m_entry_name>
ligand_docking-pose.73

> <s_m_Source_Path>
/home/csk/Desktop/cluster/DUD-E-result/fa7

> <s_m_Source_File>
ligand_docking-pose.sdf

> <i_m_Source_File_Index>
73

> <i_lp_mmshare_version>
53161

> <i_f3d_flags>
0

> <r_lp_tautomer_probability>
0.999999999997365

> <s_lp_Force_Field>
OPLS_2005

> <r_lp_Energy>
34.986014

> <b_lp_Chiralities_Consistent>
1

> <s_lp_Variant>
357215-1

> <s_i_glide_gridfile>
glide-grid_1w7x

> <i_i_glide_lignum>
198

> <i_i_glide_rotatable_bonds>
10

> <r_i_docking_score>
-6.86782804369146

> <r_i_glide_ligand_efficiency>
-0.190773001213652

> <r_i_glide_ligand_efficiency_sa>
-0.629918570308323

> <r_i_glide_ligand_efficiency_ln>
-1.49837453186237

> <r_i_glide_gscore>
-6.86782804369146

> <r_i_glide_lipo>
-2.37860681364919

> <r_i_glide_hbond>
-0.59493649498135

> <r_i_glide_metal>
0

> <r_i_glide_rewards>
-0.146269307830546

> <r_i_glide_evdw>
-44.947826385498

> <r_i_glide_ecoul>
-13.3788032531738

> <r_i_glide_erotb>
0.619454771543532

> <r_i_glide_esite>
-0.113258391522928

> <r_i_glide_emodel>
-80.6306420243406

> <r_i_glide_energy>
-58.3266296386719

> <r_i_glide_einternal>
3.5252513885498

> <i_i_glide_confnum>
18

> <i_i_glide_posenum>
243

> <r_i_glide_eff_state_penalty>
0

> <s_user_duplicate_titles>
357215

> <s_m_subgroup_title>
dock_pv

> <s_m_subgroupid>
dock_pv1

> <b_m_subgroup_collapsed>
0

$$$$
348135
                    3D
 Schrodinger Suite 2021-1.
 57 61  0  0  1  0            999 V2000
   11.1307   43.9930   31.3295 C   0  0  0  0  0  0
   10.7429   45.3295   31.3650 C   0  0  0  0  0  0
   10.7315   46.0108   32.5788 C   0  0  0  0  0  0
   11.1181   45.3598   33.7561 C   0  0  0  0  0  0
   11.5308   44.0214   33.7032 C   0  0  0  0  0  0
   11.5307   43.3384   32.4921 C   0  0  0  0  0  0
   10.9552   46.0794   35.0990 C   0  0  1  0  0  0
    9.5237   45.7587   35.5976 C   0  0  0  0  0  0
    8.5599   46.3398   35.0966 O   0  0  0  0  0  0
    9.3805   44.7729   36.4969 N   0  0  0  0  0  0
    8.1299   44.1296   36.8937 C   0  0  0  0  0  0
    7.9293   42.7774   36.2079 C   0  0  0  0  0  0
    7.5307   41.6662   36.9571 C   0  0  0  0  0  0
    7.4097   40.4162   36.3516 C   0  0  0  0  0  0
    7.7135   40.2628   34.9992 C   0  0  0  0  0  0
    8.1383   41.3557   34.2327 C   0  0  0  0  0  0
    8.2141   42.6116   34.8441 C   0  0  0  0  0  0
    8.5806   41.1785   32.8186 C   0  0  0  0  0  0
    7.9438   41.8814   31.7921 C   0  0  0  0  0  0
    8.3575   41.7382   30.4704 C   0  0  0  0  0  0
    9.4259   40.9013   30.1573 C   0  0  0  0  0  0
   10.1041   40.1948   31.1596 C   0  0  0  0  0  0
    9.6654   40.3424   32.4937 C   0  0  0  0  0  0
   10.2878   39.6792   33.5216 O   0  0  0  0  0  0
   11.2880   39.3462   30.7734 C   0  0  0  0  0  0
   12.3309   38.8788   31.5598 C   0  0  0  0  0  0
   13.2831   38.2360   30.7161 C   0  0  0  0  0  0
   14.5543   37.6792   30.8972 C   0  0  0  0  0  0
   15.3010   37.2309   29.8614 N   0  0  0  0  0  0
   14.7734   37.2805   28.6160 C   0  0  0  0  0  0
   13.4963   37.7650   28.3142 C   0  0  0  0  0  0
   12.7669   38.2749   29.3964 C   0  0  0  0  0  0
   11.5508   38.9226   29.4807 N   0  0  0  0  0  0
   11.9311   45.6787   36.0650 O   0  0  0  0  0  0
   10.9437   39.1381   28.7032 H   0  0  0  0  0  0
   11.1297   43.4588   30.3900 H   0  0  0  0  0  0
   10.4352   45.8305   30.4593 H   0  0  0  0  0  0
   10.3910   47.0362   32.6096 H   0  0  0  0  0  0
   11.8195   43.5000   34.6042 H   0  0  0  0  0  0
   11.8401   42.3035   32.4555 H   0  0  0  0  0  0
   11.0496   47.1568   34.9501 H   0  0  0  0  0  0
   10.2289   44.4369   36.9270 H   0  0  0  0  0  0
    8.1529   44.0125   37.9790 H   0  0  0  0  0  0
    7.2683   44.7578   36.6584 H   0  0  0  0  0  0
    7.3363   41.7608   38.0162 H   0  0  0  0  0  0
    7.1084   39.5595   36.9372 H   0  0  0  0  0  0
    7.6417   39.2816   34.5508 H   0  0  0  0  0  0
    8.5495   43.4566   34.2594 H   0  0  0  0  0  0
    7.1212   42.5445   32.0191 H   0  0  0  0  0  0
    7.8577   42.2887   29.6868 H   0  0  0  0  0  0
    9.7386   40.8313   29.1251 H   0  0  0  0  0  0
    9.8537   39.8926   34.3499 H   0  0  0  0  0  0
   12.4492   39.0492   32.6198 H   0  0  0  0  0  0
   15.0212   37.6796   31.8681 H   0  0  0  0  0  0
   15.3967   36.8852   27.8240 H   0  0  0  0  0  0
   13.1307   37.7826   27.2977 H   0  0  0  0  0  0
   12.4187   46.4470   36.3938 H   0  0  0  0  0  0
  1  6  1  0  0  0
  1  2  2  0  0  0
  1 36  1  0  0  0
  2  3  1  0  0  0
  2 37  1  0  0  0
  3  4  2  0  0  0
  3 38  1  0  0  0
  4  5  1  0  0  0
  4  7  1  0  0  0
  5  6  2  0  0  0
  5 39  1  0  0  0
  6 40  1  0  0  0
  7  8  1  0  0  0
  7 34  1  0  0  0
  7 41  1  0  0  0
  8  9  2  0  0  0
  8 10  1  0  0  0
 10 11  1  0  0  0
 10 42  1  0  0  0
 11 12  1  0  0  0
 11 43  1  0  0  0
 11 44  1  0  0  0
 12 17  1  0  0  0
 12 13  2  0  0  0
 13 14  1  0  0  0
 13 45  1  0  0  0
 14 15  2  0  0  0
 14 46  1  0  0  0
 15 16  1  0  0  0
 15 47  1  0  0  0
 16 17  2  0  0  0
 16 18  1  0  0  0
 17 48  1  0  0  0
 18 23  1  0  0  0
 18 19  2  0  0  0
 19 20  1  0  0  0
 19 49  1  0  0  0
 20 21  2  0  0  0
 20 50  1  0  0  0
 21 22  1  0  0  0
 21 51  1  0  0  0
 22 23  2  0  0  0
 22 25  1  0  0  0
 23 24  1  0  0  0
 24 52  1  0  0  0
 25 26  2  0  0  0
 25 33  1  0  0  0
 26 27  1  0  0  0
 26 53  1  0  0  0
 27 28  1  0  0  0
 27 32  2  0  0  0
 28 29  2  0  0  0
 28 54  1  0  0  0
 29 30  1  0  0  0
 30 31  2  0  0  0
 30 55  1  0  0  0
 31 56  1  0  0  0
 31 32  1  0  0  0
 32 33  1  0  0  0
 33 35  1  0  0  0
 34 57  1  0  0  0
M  END
> <s_m_entry_id>
21108

> <s_m_entry_name>
ligand_docking-pose.74

> <s_m_Source_Path>
/home/csk/Desktop/cluster/DUD-E-result/fa7

> <s_m_Source_File>
ligand_docking-pose.sdf

> <i_m_Source_File_Index>
74

> <i_lp_mmshare_version>
53161

> <i_f3d_flags>
0

> <r_lp_tautomer_probability>
0.999931356944416

> <s_lp_Force_Field>
OPLS_2005

> <r_lp_Energy>
16.752798

> <b_lp_Chiralities_Consistent>
1

> <s_lp_Variant>
348135-2

> <s_i_glide_gridfile>
glide-grid_1w7x

> <i_i_glide_lignum>
214

> <i_i_glide_rotatable_bonds>
9

> <r_i_docking_score>
-6.86074890107087

> <r_i_glide_ligand_efficiency>
-0.201786732384437

> <r_i_glide_ligand_efficiency_sa>
-0.653710678805438

> <r_i_glide_ligand_efficiency_ln>
-1.51573186973494

> <r_i_glide_gscore>
-6.86074890107087

> <r_i_glide_lipo>
-3.21473359993914

> <r_i_glide_hbond>
-0.384721547283012

> <r_i_glide_metal>
0

> <r_i_glide_rewards>
-0.409645832774977

> <r_i_glide_evdw>
-48.9647445678711

> <r_i_glide_ecoul>
-6.25982046127319

> <r_i_glide_erotb>
0.595139846362875

> <r_i_glide_esite>
-0.05957746985208

> <r_i_glide_emodel>
-75.9714036165318

> <r_i_glide_energy>
-55.2245650291443

> <r_i_glide_einternal>
7.40804100036621

> <i_i_glide_confnum>
31

> <i_i_glide_posenum>
16

> <r_i_glide_eff_state_penalty>
0

> <s_user_duplicate_titles>
348135

> <s_m_subgroup_title>
dock_pv

> <s_m_subgroupid>
dock_pv1

> <b_m_subgroup_collapsed>
0

$$$$
357463
                    3D
 Schrodinger Suite 2021-1.
 69 73  0  0  1  0            999 V2000
    8.8466   39.6538   35.1871 C   0  0  0  0  0  0
    8.2440   40.8453   34.3862 C   0  0  0  0  0  0
    8.8420   42.1674   34.9512 C   0  0  0  0  0  0
    8.6003   40.7980   32.8734 C   0  0  0  0  0  0
    7.8731   41.5705   31.9665 C   0  0  0  0  0  0
    8.1768   41.6307   30.6064 C   0  0  0  0  0  0
    9.2451   40.8568   30.1228 C   0  0  0  0  0  0
   10.0298   40.0791   31.0059 C   0  0  0  0  0  0
    9.6970   40.0804   32.3715 C   0  0  0  0  0  0
   11.2181   39.2522   30.5630 C   0  0  0  0  0  0
   11.4799   38.7486   29.2970 C   0  0  0  0  0  0
   12.7893   38.2018   29.3048 C   0  0  0  0  0  0
   13.7271   37.6924   28.3780 C   0  0  0  0  0  0
   14.9149   37.2790   28.8448 N   0  0  0  0  0  0
   15.2598   37.2790   30.1403 C   0  0  0  0  0  0
   14.3691   37.7626   31.1018 C   0  0  0  0  0  0
   13.1310   38.2580   30.6680 C   0  0  0  0  0  0
   12.1652   38.8790   31.4000 N   0  0  0  0  0  0
   13.5310   37.6790   27.0039 N   0  0  0  0  0  0
    9.5310   40.9222   28.7822 O   0  0  0  0  0  0
    7.3793   42.5766   29.7664 C   0  0  0  0  0  0
    6.8364   42.2313   28.5235 C   0  0  0  0  0  0
    6.0353   43.1377   27.8258 C   0  0  0  0  0  0
    5.7510   44.3911   28.3732 C   0  0  0  0  0  0
    6.2793   44.7608   29.6147 C   0  0  0  0  0  0
    7.1204   43.8560   30.2673 C   0  0  0  0  0  0
    5.9234   46.1287   30.2190 C   0  0  0  0  0  0
    6.8569   46.7368   31.1821 N   0  0  0  0  0  0
    7.1140   46.3153   32.4335 C   0  0  0  0  0  0
    6.4574   45.4429   33.0053 O   0  0  0  0  0  0
    8.2418   46.8799   32.9054 N   0  0  0  0  0  0
    9.0215   46.4533   33.9989 C   0  0  0  0  0  0
   10.4139   46.4623   33.8231 C   0  0  0  0  0  0
   11.2604   46.0766   34.8617 C   0  0  0  0  0  0
   10.7311   45.6790   36.0858 C   0  0  0  0  0  0
    9.3510   45.6705   36.2723 C   0  0  0  0  0  0
    8.4928   46.0739   35.2489 C   0  0  0  0  0  0
    7.1661   46.1232   35.5104 F   0  0  0  0  0  0
   10.9586   46.8473   32.6437 F   0  0  0  0  0  0
    6.6902   40.7798   34.5883 C   0  0  0  0  0  0
    6.0488   39.7313   34.5281 O   0  0  0  0  0  0
    6.1092   42.0000   34.7998 O   0  0  0  0  0  0
   15.5742   36.9246   28.1651 H   0  0  0  0  0  0
    8.5042   38.6876   34.8129 H   0  0  0  0  0  0
    9.9310   39.6378   35.1417 H   0  0  0  0  0  0
    8.5817   39.6961   36.2454 H   0  0  0  0  0  0
    8.5159   43.0474   34.3931 H   0  0  0  0  0  0
    8.5788   42.3300   35.9979 H   0  0  0  0  0  0
    9.9310   42.1638   34.8911 H   0  0  0  0  0  0
    7.0523   42.1717   32.3288 H   0  0  0  0  0  0
   10.3090   39.4962   33.0400 H   0  0  0  0  0  0
   10.8168   38.8448   28.4614 H   0  0  0  0  0  0
   16.2589   36.9296   30.3578 H   0  0  0  0  0  0
   14.6483   37.8267   32.1393 H   0  0  0  0  0  0
   12.6258   37.9970   26.6563 H   0  0  0  0  0  0
   14.1451   37.1346   26.3986 H   0  0  0  0  0  0
   10.4178   40.6226   28.5597 H   0  0  0  0  0  0
    7.0183   41.2525   28.1042 H   0  0  0  0  0  0
    5.6172   42.8601   26.8695 H   0  0  0  0  0  0
    5.1080   45.0701   27.8320 H   0  0  0  0  0  0
    7.5724   44.1133   31.2078 H   0  0  0  0  0  0
    5.8246   46.8418   29.3992 H   0  0  0  0  0  0
    4.9316   46.0570   30.6698 H   0  0  0  0  0  0
    7.3792   47.5273   30.8369 H   0  0  0  0  0  0
    8.7286   47.4945   32.2711 H   0  0  0  0  0  0
   12.3310   46.0960   34.7226 H   0  0  0  0  0  0
   11.3900   45.4048   36.8969 H   0  0  0  0  0  0
    8.9477   45.3887   37.2353 H   0  0  0  0  0  0
    6.7500   42.7118   34.7310 H   0  0  0  0  0  0
  1  2  1  0  0  0
  1 44  1  0  0  0
  1 45  1  0  0  0
  1 46  1  0  0  0
  2  3  1  0  0  0
  2  4  1  0  0  0
  2 40  1  0  0  0
  3 47  1  0  0  0
  3 48  1  0  0  0
  3 49  1  0  0  0
  4  9  1  0  0  0
  4  5  2  0  0  0
  5  6  1  0  0  0
  5 50  1  0  0  0
  6  7  2  0  0  0
  6 21  1  0  0  0
  7  8  1  0  0  0
  7 20  1  0  0  0
  8  9  2  0  0  0
  8 10  1  0  0  0
  9 51  1  0  0  0
 10 18  1  0  0  0
 10 11  2  0  0  0
 11 12  1  0  0  0
 11 52  1  0  0  0
 12 17  1  0  0  0
 12 13  2  0  0  0
 13 14  1  0  0  0
 13 19  1  0  0  0
 14 43  1  0  0  0
 14 15  1  0  0  0
 15 16  2  0  0  0
 15 53  1  0  0  0
 16 17  1  0  0  0
 16 54  1  0  0  0
 17 18  2  0  0  0
 19 55  1  0  0  0
 19 56  1  0  0  0
 20 57  1  0  0  0
 21 26  1  0  0  0
 21 22  2  0  0  0
 22 23  1  0  0  0
 22 58  1  0  0  0
 23 24  2  0  0  0
 23 59  1  0  0  0
 24 25  1  0  0  0
 24 60  1  0  0  0
 25 26  2  0  0  0
 25 27  1  0  0  0
 26 61  1  0  0  0
 27 28  1  0  0  0
 27 62  1  0  0  0
 27 63  1  0  0  0
 28 29  1  0  0  0
 28 64  1  0  0  0
 29 30  2  0  0  0
 29 31  1  0  0  0
 31 32  1  0  0  0
 31 65  1  0  0  0
 32 37  1  0  0  0
 32 33  2  0  0  0
 33 34  1  0  0  0
 33 39  1  0  0  0
 34 35  2  0  0  0
 34 66  1  0  0  0
 35 36  1  0  0  0
 35 67  1  0  0  0
 36 37  2  0  0  0
 36 68  1  0  0  0
 37 38  1  0  0  0
 40 41  2  0  0  0
 40 42  1  0  0  0
 42 69  1  0  0  0
M  END
> <s_m_entry_id>
21110

> <s_m_entry_name>
ligand_docking-pose.76

> <s_m_Source_Path>
/home/csk/Desktop/cluster/DUD-E-result/fa7

> <s_m_Source_File>
ligand_docking-pose.sdf

> <i_m_Source_File_Index>
76

> <i_lp_mmshare_version>
53161

> <i_f3d_flags>
0

> <r_lp_tautomer_probability>
0.999999999997365

> <s_lp_Force_Field>
OPLS_2005

> <r_lp_Energy>
47.644986

> <b_lp_Chiralities_Consistent>
1

> <s_lp_Variant>
357463-1

> <s_i_glide_gridfile>
glide-grid_1w7x

> <i_i_glide_lignum>
502

> <i_i_glide_rotatable_bonds>
11

> <r_i_docking_score>
-6.85393004058802

> <r_i_glide_ligand_efficiency>
-0.163188810490191

> <r_i_glide_ligand_efficiency_sa>
-0.5672486527045

> <r_i_glide_ligand_efficiency_ln>
-1.44668805400395

> <r_i_glide_gscore>
-6.85393004058802

> <r_i_glide_lipo>
-2.79916698517733

> <r_i_glide_hbond>
-0.446694206354936

> <r_i_glide_metal>
0

> <r_i_glide_rewards>
-0.160609702767767

> <r_i_glide_evdw>
-41.05810546875

> <r_i_glide_ecoul>
-11.5342617034912

> <r_i_glide_erotb>
0.419244438239717

> <r_i_glide_esite>
-0.0836590555665231

> <r_i_glide_emodel>
-75.8189488916955

> <r_i_glide_energy>
-52.5923671722412

> <r_i_glide_einternal>
1.2890419960022

> <i_i_glide_confnum>
8

> <i_i_glide_posenum>
285

> <r_i_glide_eff_state_penalty>
0

> <s_user_duplicate_titles>
357463

> <s_m_subgroup_title>
dock_pv

> <s_m_subgroupid>
dock_pv1

> <b_m_subgroup_collapsed>
0

$$$$
40184
                    3D
 Schrodinger Suite 2021-1.
 75 79  0  0  1  0            999 V2000
   11.1309   45.6663   26.4983 C   0  0  0  0  0  0
   11.9273   45.2755   27.5672 C   0  0  0  0  0  0
   11.6590   45.7518   28.8483 C   0  0  0  0  0  0
   10.5892   46.6263   29.0507 C   0  0  0  0  0  0
    9.7982   47.0232   27.9659 C   0  0  0  0  0  0
   10.0604   46.5342   26.6897 C   0  0  0  0  0  0
   10.2547   47.1417   30.4514 C   0  0  0  0  0  0
    9.2232   46.2908   31.2678 C   0  0  2  0  0  0
    8.5942   47.1374   32.4006 C   0  0  0  0  0  0
    9.5986   47.4845   33.5154 C   0  0  0  0  0  0
   10.1766   46.2462   34.0340 N   0  0  2  0  0  0
   11.1861   46.4124   35.0735 C   0  0  0  0  0  0
   12.0788   45.1742   35.0186 C   0  0  0  0  0  0
   11.5425   44.4077   33.7930 C   0  0  2  0  0  0
   10.8625   45.4579   33.0074 N   0  0  1  0  0  0
    9.9256   45.0669   31.9290 C   0  0  0  0  0  0
   10.6050   43.2373   34.2145 C   0  0  0  0  0  0
    9.9751   43.2843   35.2750 O   0  0  0  0  0  0
   10.5059   42.2066   33.3534 N   0  0  0  0  0  0
    9.6638   40.9919   33.4192 C   0  0  1  0  0  0
    8.2613   41.2168   34.0811 C   0  0  0  0  0  0
    7.3743   39.9610   34.2114 C   0  0  0  0  0  0
    7.8897   38.9049   35.2112 C   0  0  0  0  0  0
    8.0158   39.4202   36.5687 N   0  0  0  0  0  0
    7.0271   39.9511   37.3877 C   0  0  0  0  0  0
    5.8122   40.0767   37.0692 N   0  0  0  0  0  0
    7.5325   40.3449   38.6126 N   0  0  0  0  0  0
    9.5635   40.5956   31.9437 C   0  0  0  0  0  0
    8.5609   40.8962   31.2864 O   0  0  0  0  0  0
   10.6755   39.8630   31.3213 C   0  0  0  0  0  0
   11.6580   39.2792   31.9545 N   0  0  0  0  0  0
   12.4894   38.6135   31.1083 C   0  0  0  0  0  0
   13.6446   37.9314   31.5084 C   0  0  0  0  0  0
   14.4525   37.3643   30.5225 C   0  0  0  0  0  0
   14.1103   37.4334   29.1781 C   0  0  0  0  0  0
   12.9523   38.0798   28.7558 C   0  0  0  0  0  0
   12.1498   38.6897   29.7334 C   0  0  0  0  0  0
   10.6962   39.6612   29.5712 S   0  0  0  0  0  0
    8.1476   45.8372   30.4032 N   0  0  0  0  0  0
   12.3318   43.9448   33.1985 H   0  0  0  0  0  0
   10.2131   40.2368   33.9808 H   0  0  0  0  0  0
   11.3327   45.2794   25.5091 H   0  0  0  0  0  0
   12.7289   44.5800   27.3925 H   0  0  0  0  0  0
   12.2706   45.4346   29.6788 H   0  0  0  0  0  0
    8.9610   47.6895   28.1200 H   0  0  0  0  0  0
    9.4417   46.8259   25.8541 H   0  0  0  0  0  0
    9.8697   48.1555   30.3379 H   0  0  0  0  0  0
   11.1818   47.2699   31.0137 H   0  0  0  0  0  0
    7.7731   46.5977   32.8730 H   0  0  0  0  0  0
    8.1441   48.0459   31.9983 H   0  0  0  0  0  0
    9.0808   48.0105   34.3163 H   0  0  0  0  0  0
   10.3881   48.1368   33.1409 H   0  0  0  0  0  0
   10.7451   46.6469   36.0408 H   0  0  0  0  0  0
   11.8056   47.2779   34.8425 H   0  0  0  0  0  0
   12.0177   44.6090   35.9514 H   0  0  0  0  0  0
   13.1302   45.4323   34.8970 H   0  0  0  0  0  0
   10.4603   44.4862   31.1772 H   0  0  0  0  0  0
    9.1559   44.4075   32.3317 H   0  0  0  0  0  0
   11.1074   42.2406   32.5414 H   0  0  0  0  0  0
    8.3563   41.6084   35.0909 H   0  0  0  0  0  0
    7.7173   41.9856   33.5293 H   0  0  0  0  0  0
    6.3704   40.2786   34.4886 H   0  0  0  0  0  0
    7.2591   39.4982   33.2351 H   0  0  0  0  0  0
    7.2142   38.0468   35.2239 H   0  0  0  0  0  0
    8.8618   38.5222   34.8970 H   0  0  0  0  0  0
    8.9127   39.2567   37.0045 H   0  0  0  0  0  0
    5.6436   39.6794   36.1578 H   0  0  0  0  0  0
    6.9071   40.9236   39.1537 H   0  0  0  0  0  0
    8.4305   40.8071   38.5697 H   0  0  0  0  0  0
   13.9300   37.8941   32.5507 H   0  0  0  0  0  0
   15.3725   36.8794   30.7995 H   0  0  0  0  0  0
   14.7579   36.9775   28.4401 H   0  0  0  0  0  0
   12.7307   38.1479   27.7000 H   0  0  0  0  0  0
    8.5475   45.2867   29.6556 H   0  0  0  0  0  0
    7.5275   45.2296   30.9197 H   0  0  0  0  0  0
  1  6  1  0  0  0
  1  2  2  0  0  0
  1 42  1  0  0  0
  2  3  1  0  0  0
  2 43  1  0  0  0
  3  4  2  0  0  0
  3 44  1  0  0  0
  4  5  1  0  0  0
  4  7  1  0  0  0
  5  6  2  0  0  0
  5 45  1  0  0  0
  6 46  1  0  0  0
  7  8  1  0  0  0
  7 47  1  0  0  0
  7 48  1  0  0  0
  8 16  1  0  0  0
  8  9  1  0  0  0
  8 39  1  0  0  0
  9 10  1  0  0  0
  9 49  1  0  0  0
  9 50  1  0  0  0
 10 11  1  0  0  0
 10 51  1  0  0  0
 10 52  1  0  0  0
 11 15  1  0  0  0
 11 12  1  0  0  0
 12 13  1  0  0  0
 12 53  1  0  0  0
 12 54  1  0  0  0
 13 14  1  0  0  0
 13 55  1  0  0  0
 13 56  1  0  0  0
 14 40  1  0  0  0
 14 15  1  0  0  0
 14 17  1  0  0  0
 15 16  1  0  0  0
 16 57  1  0  0  0
 16 58  1  0  0  0
 17 18  2  0  0  0
 17 19  1  0  0  0
 19 20  1  0  0  0
 19 59  1  0  0  0
 20 41  1  0  0  0
 20 21  1  0  0  0
 20 28  1  0  0  0
 21 22  1  0  0  0
 21 60  1  0  0  0
 21 61  1  0  0  0
 22 23  1  0  0  0
 22 62  1  0  0  0
 22 63  1  0  0  0
 23 24  1  0  0  0
 23 64  1  0  0  0
 23 65  1  0  0  0
 24 25  1  0  0  0
 24 66  1  0  0  0
 25 26  2  3  0  0
 25 27  1  0  0  0
 26 67  1  0  0  0
 27 68  1  0  0  0
 27 69  1  0  0  0
 28 29  2  0  0  0
 28 30  1  0  0  0
 30 38  1  0  0  0
 30 31  2  0  0  0
 31 32  1  0  0  0
 32 37  2  0  0  0
 32 33  1  0  0  0
 33 34  2  0  0  0
 33 70  1  0  0  0
 34 35  1  0  0  0
 34 71  1  0  0  0
 35 36  2  0  0  0
 35 72  1  0  0  0
 36 37  1  0  0  0
 36 73  1  0  0  0
 37 38  1  0  0  0
 39 74  1  0  0  0
 39 75  1  0  0  0
M  END
> <s_m_entry_id>
21111

> <s_m_entry_name>
ligand_docking-pose.77

> <s_m_Source_Path>
/home/csk/Desktop/cluster/DUD-E-result/fa7

> <s_m_Source_File>
ligand_docking-pose.sdf

> <i_m_Source_File_Index>
77

> <i_lp_mmshare_version>
53161

> <i_f3d_flags>
0

> <r_lp_tautomer_probability>
0.99990000499975

> <s_lp_Force_Field>
OPLS_2005

> <r_lp_Energy>
46.483518

> <b_lp_Chiralities_Consistent>
1

> <s_lp_Variant>
40184-2

> <s_i_glide_gridfile>
glide-grid_1w7x

> <i_i_glide_lignum>
189

> <i_i_glide_rotatable_bonds>
12

> <r_i_docking_score>
-6.85250752468537

> <r_i_glide_ligand_efficiency>
-0.175705321145779

> <r_i_glide_ligand_efficiency_sa>
-0.595853894940394

> <r_i_glide_ligand_efficiency_ln>
-1.46937213328623

> <r_i_glide_gscore>
-6.85250752468537

> <r_i_glide_lipo>
-3.26350447875468

> <r_i_glide_hbond>
-0.202593958513888

> <r_i_glide_metal>
0

> <r_i_glide_rewards>
-0.514116387184657

> <r_i_glide_evdw>
-50.1608200073242

> <r_i_glide_ecoul>
-7.40375471115112

> <r_i_glide_erotb>
0.757136705908622

> <r_i_glide_esite>
-0.0108251991018825

> <r_i_glide_emodel>
-77.3037215491907

> <r_i_glide_energy>
-57.5645747184753

> <r_i_glide_einternal>
10.577241897583

> <i_i_glide_confnum>
65

> <i_i_glide_posenum>
294

> <r_i_glide_eff_state_penalty>
0

> <s_user_duplicate_titles>
40184

> <s_m_subgroup_title>
dock_pv

> <s_m_subgroupid>
dock_pv1

> <b_m_subgroup_collapsed>
0

$$$$
342010
                    3D
 Schrodinger Suite 2021-1.
 55 58  0  0  1  0            999 V2000
    5.4358   38.4531   38.2518 C   0  0  0  0  0  0
    6.1113   39.1773   37.2673 C   0  0  0  0  0  0
    7.0179   40.1908   37.6128 C   0  0  0  0  0  0
    7.2220   40.4509   38.9773 C   0  0  0  0  0  0
    6.5324   39.7514   39.9627 C   0  0  0  0  0  0
    5.6406   38.7452   39.6001 C   0  0  0  0  0  0
    6.7310   40.0786   41.3010 N   0  0  0  0  0  0
    7.7090   41.0289   36.5808 C   0  0  0  0  0  0
    7.8633   42.3934   36.8425 C   0  0  0  0  0  0
    8.4525   43.2803   35.9422 C   0  0  0  0  0  0
    8.9638   42.7599   34.7442 C   0  0  0  0  0  0
    8.9034   41.3842   34.4728 C   0  0  0  0  0  0
    8.2545   40.5241   35.3825 C   0  0  0  0  0  0
    8.2125   39.1741   35.1348 O   0  0  0  0  0  0
    9.6246   40.8630   33.2666 C   0  0  0  0  0  0
    9.4253   41.3273   31.9859 N   0  0  0  0  0  0
   10.2439   40.5991   31.1508 C   0  0  0  0  0  0
   10.4473   40.5782   29.7744 C   0  0  0  0  0  0
   11.4021   39.6764   29.2976 C   0  0  0  0  0  0
   12.1646   38.8255   30.1227 C   0  0  0  0  0  0
   11.9310   38.8797   31.5122 C   0  0  0  0  0  0
   10.9564   39.7500   32.0231 C   0  0  0  0  0  0
   10.5367   39.9188   33.3151 N   0  0  0  0  0  0
   13.2087   37.9076   29.5687 C   0  0  0  0  0  0
   14.0818   37.3938   30.3197 N   0  0  0  0  0  0
   13.1309   37.6790   28.2164 N   0  0  0  0  0  0
    8.5454   44.7687   36.3615 C   0  0  1  0  0  0
    9.1709   45.7555   35.3542 C   0  0  0  0  0  0
   10.6831   45.6757   35.4206 C   0  0  0  0  0  0
   11.4041   45.3584   34.4807 O   0  0  0  0  0  0
   11.1463   46.0789   36.6359 O   0  0  0  0  0  0
    7.1575   45.3235   36.6930 C   0  0  0  0  0  0
    6.1649   45.1817   35.9799 O   0  0  0  0  0  0
    7.1324   45.9346   37.9167 O   0  0  0  0  0  0
    8.7628   42.0507   31.7517 H   0  0  0  0  0  0
    4.7421   37.6737   37.9709 H   0  0  0  0  0  0
    5.9014   38.9578   36.2307 H   0  0  0  0  0  0
    7.9241   41.2134   39.2830 H   0  0  0  0  0  0
    5.1039   38.1908   40.3560 H   0  0  0  0  0  0
    6.4029   39.4058   41.9785 H   0  0  0  0  0  0
    7.5753   40.5867   41.5184 H   0  0  0  0  0  0
    7.5125   42.7944   37.7810 H   0  0  0  0  0  0
    9.4720   43.4059   34.0435 H   0  0  0  0  0  0
    7.9791   38.6717   35.9198 H   0  0  0  0  0  0
    9.9101   41.2278   29.0987 H   0  0  0  0  0  0
   11.5629   39.6789   28.2286 H   0  0  0  0  0  0
   12.4800   38.2559   32.2024 H   0  0  0  0  0  0
   13.9901   37.6943   31.2762 H   0  0  0  0  0  0
   13.7837   37.0279   27.7984 H   0  0  0  0  0  0
   12.4013   38.0780   27.6386 H   0  0  0  0  0  0
    9.1238   44.7650   37.2921 H   0  0  0  0  0  0
    8.8206   45.5545   34.3389 H   0  0  0  0  0  0
    8.9202   46.7996   35.5672 H   0  0  0  0  0  0
   12.1064   46.1338   36.6651 H   0  0  0  0  0  0
    7.9932   45.9348   38.3624 H   0  0  0  0  0  0
  1  6  1  0  0  0
  1  2  2  0  0  0
  1 36  1  0  0  0
  2  3  1  0  0  0
  2 37  1  0  0  0
  3  4  2  0  0  0
  3  8  1  0  0  0
  4  5  1  0  0  0
  4 38  1  0  0  0
  5  6  2  0  0  0
  5  7  1  0  0  0
  6 39  1  0  0  0
  7 40  1  0  0  0
  7 41  1  0  0  0
  8 13  1  0  0  0
  8  9  2  0  0  0
  9 10  1  0  0  0
  9 42  1  0  0  0
 10 11  2  0  0  0
 10 27  1  0  0  0
 11 12  1  0  0  0
 11 43  1  0  0  0
 12 13  2  0  0  0
 12 15  1  0  0  0
 13 14  1  0  0  0
 14 44  1  0  0  0
 15 23  2  0  0  0
 15 16  1  0  0  0
 16 35  1  0  0  0
 16 17  1  0  0  0
 17 22  2  0  0  0
 17 18  1  0  0  0
 18 19  2  0  0  0
 18 45  1  0  0  0
 19 20  1  0  0  0
 19 46  1  0  0  0
 20 21  2  0  0  0
 20 24  1  0  0  0
 21 22  1  0  0  0
 21 47  1  0  0  0
 22 23  1  0  0  0
 24 25  2  3  0  0
 24 26  1  0  0  0
 25 48  1  0  0  0
 26 49  1  0  0  0
 26 50  1  0  0  0
 27 28  1  0  0  0
 27 32  1  0  0  0
 27 51  1  0  0  0
 28 29  1  0  0  0
 28 52  1  0  0  0
 28 53  1  0  0  0
 29 30  2  0  0  0
 29 31  1  0  0  0
 31 54  1  0  0  0
 32 33  2  0  0  0
 32 34  1  0  0  0
 34 55  1  0  0  0
M  END
> <s_m_entry_id>
21113

> <s_m_entry_name>
ligand_docking-pose.79

> <s_m_Source_Path>
/home/csk/Desktop/cluster/DUD-E-result/fa7

> <s_m_Source_File>
ligand_docking-pose.sdf

> <i_m_Source_File_Index>
79

> <i_lp_mmshare_version>
53161

> <i_f3d_flags>
0

> <r_lp_tautomer_probability>
0.999999999997365

> <s_lp_Force_Field>
OPLS_2005

> <r_lp_Energy>
29.570463

> <b_lp_Chiralities_Consistent>
1

> <s_lp_Variant>
342010-4

> <s_i_glide_gridfile>
glide-grid_1w7x

> <i_i_glide_lignum>
276

> <i_i_glide_rotatable_bonds>
10

> <r_i_docking_score>
-6.83588923355456

> <r_i_glide_ligand_efficiency>
-0.201055565692781

> <r_i_glide_ligand_efficiency_sa>
-0.651341982565232

> <r_i_glide_ligand_efficiency_ln>
-1.51023967189053

> <r_i_glide_gscore>
-6.83588923355456

> <r_i_glide_lipo>
-1.3771049099272

> <r_i_glide_hbond>
-0.385776730969047

> <r_i_glide_metal>
0

> <r_i_glide_rewards>
-1.09442552211456

> <r_i_glide_evdw>
-49.7513999938965

> <r_i_glide_ecoul>
-13.4950227737427

> <r_i_glide_erotb>
0.571887818193928

> <r_i_glide_esite>
-0.0386464729814596

> <r_i_glide_emodel>
-83.5564183346657

> <r_i_glide_energy>
-63.2464227676392

> <r_i_glide_einternal>
11.299201965332

> <i_i_glide_confnum>
14

> <i_i_glide_posenum>
361

> <r_i_glide_eff_state_penalty>
0

> <s_user_duplicate_titles>
342010

> <s_m_subgroup_title>
dock_pv

> <s_m_subgroupid>
dock_pv1

> <b_m_subgroup_collapsed>
0

$$$$
342207
                    3D
 Schrodinger Suite 2021-1.
 56 59  0  0  1  0            999 V2000
   15.6851   37.0288   29.2080 C   0  0  0  0  0  0
   14.3370   37.6021   29.5772 C   0  0  0  0  0  0
   13.9297   37.6794   30.9028 C   0  0  0  0  0  0
   12.7280   38.3027   31.2204 C   0  0  0  0  0  0
   11.9160   38.9071   30.2358 C   0  0  0  0  0  0
   12.3413   38.7505   28.9086 C   0  0  0  0  0  0
   13.5106   38.0790   28.5718 C   0  0  0  0  0  0
   10.6386   39.6815   30.5391 C   0  0  0  0  0  0
    9.7458   40.0249   29.4926 C   0  0  0  0  0  0
    8.5281   40.6864   29.7060 C   0  0  0  0  0  0
    8.1442   40.9603   31.0168 C   0  0  0  0  0  0
    8.9883   40.6515   32.0808 C   0  0  0  0  0  0
   10.2552   40.0921   31.8405 C   0  0  0  0  0  0
   11.1089   40.0016   32.9139 O   0  0  0  0  0  0
    8.5032   40.8783   33.4687 C   0  0  0  0  0  0
    8.4406   42.1082   34.0821 N   0  0  0  0  0  0
    8.0759   41.8851   35.3913 C   0  0  0  0  0  0
    7.9302   42.7034   36.5110 C   0  0  0  0  0  0
    7.5974   42.0628   37.7085 C   0  0  0  0  0  0
    7.3364   40.6832   37.8066 C   0  0  0  0  0  0
    7.4891   39.8849   36.6606 C   0  0  0  0  0  0
    7.8803   40.4854   35.4580 C   0  0  0  0  0  0
    8.1404   39.8959   34.2556 N   0  0  0  0  0  0
    6.8813   40.0732   39.0770 C   0  0  0  0  0  0
    5.9651   39.2104   39.0728 N   0  0  0  0  0  0
    7.5309   40.5391   40.1895 N   0  0  0  0  0  0
    7.6517   41.1908   28.5292 C   0  0  2  0  0  0
    7.1806   40.0930   27.5372 C   0  0  0  0  0  0
    6.0166   39.2999   28.1015 C   0  0  0  0  0  0
    5.2854   39.6775   29.0174 O   0  0  0  0  0  0
    5.8402   38.1138   27.4452 O   0  0  0  0  0  0
    8.3418   42.3205   27.7498 C   0  0  0  0  0  0
    8.3315   42.4720   26.5285 O   0  0  0  0  0  0
    8.9361   43.2163   28.5859 O   0  0  0  0  0  0
    8.7035   42.9714   33.6293 H   0  0  0  0  0  0
   16.3635   37.8243   28.8984 H   0  0  0  0  0  0
   15.5616   36.3620   28.3579 H   0  0  0  0  0  0
   16.1393   36.4815   30.0320 H   0  0  0  0  0  0
   14.5445   37.2824   31.6946 H   0  0  0  0  0  0
   12.4717   38.2795   32.2639 H   0  0  0  0  0  0
   11.8217   39.2158   28.0974 H   0  0  0  0  0  0
   13.8119   38.0110   27.5359 H   0  0  0  0  0  0
    9.9729   39.7971   28.4656 H   0  0  0  0  0  0
    7.1908   41.4307   31.2111 H   0  0  0  0  0  0
   12.0359   39.9931   32.6572 H   0  0  0  0  0  0
    8.1139   43.7681   36.4752 H   0  0  0  0  0  0
    7.5314   42.6818   38.5937 H   0  0  0  0  0  0
    7.3369   38.8153   36.6995 H   0  0  0  0  0  0
    5.6394   38.9997   38.1428 H   0  0  0  0  0  0
    7.3222   40.1120   41.0787 H   0  0  0  0  0  0
    8.3883   41.0803   40.0930 H   0  0  0  0  0  0
    6.7754   41.6963   28.9464 H   0  0  0  0  0  0
    6.7941   40.5255   26.6094 H   0  0  0  0  0  0
    8.0130   39.4275   27.3011 H   0  0  0  0  0  0
    6.4348   37.9347   26.7098 H   0  0  0  0  0  0
    9.3752   43.8966   28.0733 H   0  0  0  0  0  0
  1  2  1  0  0  0
  1 36  1  0  0  0
  1 37  1  0  0  0
  1 38  1  0  0  0
  2  7  1  0  0  0
  2  3  2  0  0  0
  3  4  1  0  0  0
  3 39  1  0  0  0
  4  5  2  0  0  0
  4 40  1  0  0  0
  5  6  1  0  0  0
  5  8  1  0  0  0
  6  7  2  0  0  0
  6 41  1  0  0  0
  7 42  1  0  0  0
  8 13  1  0  0  0
  8  9  2  0  0  0
  9 10  1  0  0  0
  9 43  1  0  0  0
 10 11  2  0  0  0
 10 27  1  0  0  0
 11 12  1  0  0  0
 11 44  1  0  0  0
 12 13  2  0  0  0
 12 15  1  0  0  0
 13 14  1  0  0  0
 14 45  1  0  0  0
 15 23  2  0  0  0
 15 16  1  0  0  0
 16 35  1  0  0  0
 16 17  1  0  0  0
 17 22  2  0  0  0
 17 18  1  0  0  0
 18 19  2  0  0  0
 18 46  1  0  0  0
 19 20  1  0  0  0
 19 47  1  0  0  0
 20 21  2  0  0  0
 20 24  1  0  0  0
 21 22  1  0  0  0
 21 48  1  0  0  0
 22 23  1  0  0  0
 24 25  2  3  0  0
 24 26  1  0  0  0
 25 49  1  0  0  0
 26 50  1  0  0  0
 26 51  1  0  0  0
 27 28  1  0  0  0
 27 32  1  0  0  0
 27 52  1  0  0  0
 28 29  1  0  0  0
 28 53  1  0  0  0
 28 54  1  0  0  0
 29 30  2  0  0  0
 29 31  1  0  0  0
 31 55  1  0  0  0
 32 33  2  0  0  0
 32 34  1  0  0  0
 34 56  1  0  0  0
M  END
> <s_m_entry_id>
21119

> <s_m_entry_name>
ligand_docking-pose.85

> <s_m_Source_Path>
/home/csk/Desktop/cluster/DUD-E-result/fa7

> <s_m_Source_File>
ligand_docking-pose.sdf

> <i_m_Source_File_Index>
85

> <i_lp_mmshare_version>
53161

> <i_f3d_flags>
0

> <r_lp_tautomer_probability>
0.999999999997365

> <s_lp_Force_Field>
OPLS_2005

> <r_lp_Energy>
29.974341

> <b_lp_Chiralities_Consistent>
1

> <s_lp_Variant>
342207-2

> <s_i_glide_gridfile>
glide-grid_1w7x

> <i_i_glide_lignum>
351

> <i_i_glide_rotatable_bonds>
10

> <r_i_docking_score>
-6.8107858067399

> <r_i_glide_ligand_efficiency>
-0.200317229609997

> <r_i_glide_ligand_efficiency_sa>
-0.648950060280947

> <r_i_glide_ligand_efficiency_ln>
-1.5046936207799

> <r_i_glide_gscore>
-6.8107858067399

> <r_i_glide_lipo>
-2.28836731265334

> <r_i_glide_hbond>
-0.606560102049259

> <r_i_glide_metal>
0

> <r_i_glide_rewards>
-0.369361749867976

> <r_i_glide_evdw>
-43.2958030700684

> <r_i_glide_ecoul>
-12.8671064376831

> <r_i_glide_erotb>
0.574134305569734

> <r_i_glide_esite>
-0.0257748285831781

> <r_i_glide_emodel>
-63.6447678890871

> <r_i_glide_energy>
-56.1629095077515

> <r_i_glide_einternal>
21.2438011169434

> <i_i_glide_confnum>
16

> <i_i_glide_posenum>
304

> <r_i_glide_eff_state_penalty>
0

> <s_user_duplicate_titles>
342207

> <s_m_subgroup_title>
dock_pv

> <s_m_subgroupid>
dock_pv1

> <b_m_subgroup_collapsed>
0

$$$$
342298
                    3D
 Schrodinger Suite 2021-1.
 54 57  0  0  1  0            999 V2000
   11.7605   39.1519   29.2007 C   0  0  0  0  0  0
   10.7114   39.9999   29.5503 C   0  0  0  0  0  0
   10.4750   40.1587   30.9085 C   0  0  0  0  0  0
   11.2559   39.5159   31.8908 C   0  0  0  0  0  0
   12.3310   38.7027   31.5000 C   0  0  0  0  0  0
   12.5898   38.4906   30.1281 C   0  0  0  0  0  0
   13.7169   37.6154   29.6819 C   0  0  0  0  0  0
   14.3310   36.8790   30.4970 N   0  0  0  0  0  0
   14.0114   37.6790   28.3420 N   0  0  0  0  0  0
   10.7795   39.7864   33.1475 N   0  0  0  0  0  0
    9.7534   40.5825   32.9584 C   0  0  0  0  0  0
    9.5473   40.8671   31.6284 N   0  0  0  0  0  0
    8.8759   41.1229   34.0396 C   0  0  0  0  0  0
    8.5552   42.4814   33.9794 C   0  0  0  0  0  0
    7.7782   43.0826   34.9677 C   0  0  0  0  0  0
    7.2978   42.2871   36.0122 C   0  0  0  0  0  0
    7.5584   40.9125   36.0934 C   0  0  0  0  0  0
    8.3846   40.3427   35.1027 C   0  0  0  0  0  0
    8.7551   39.0217   35.1981 O   0  0  0  0  0  0
    6.9954   40.0987   37.2265 C   0  0  0  0  0  0
    6.3896   38.8615   36.9556 C   0  0  0  0  0  0
    5.9104   38.0480   37.9799 C   0  0  0  0  0  0
    6.0216   38.4614   39.3035 C   0  0  0  0  0  0
    6.5940   39.6949   39.6039 C   0  0  0  0  0  0
    7.0567   40.5191   38.5722 C   0  0  0  0  0  0
    7.5310   41.7610   38.8976 O   0  0  0  0  0  0
    6.7310   40.2392   41.4288 Br  0  0  0  0  0  0
    5.1874   36.5268   37.6063 Cl  0  0  0  0  0  0
    7.5350   44.6086   34.9275 C   0  0  2  0  0  0
    8.2762   45.3602   36.0573 C   0  0  0  0  0  0
    9.7696   45.3852   35.7739 C   0  0  0  0  0  0
   10.2847   45.2200   34.6694 O   0  0  0  0  0  0
   10.4817   45.6792   36.8970 O   0  0  0  0  0  0
    6.0581   45.0016   34.9973 C   0  0  0  0  0  0
    5.1314   44.2501   35.2970 O   0  0  0  0  0  0
    5.8768   46.3053   34.6350 O   0  0  0  0  0  0
    8.8016   41.4566   31.2916 H   0  0  0  0  0  0
   11.9310   39.0432   28.1404 H   0  0  0  0  0  0
   10.1202   40.4953   28.7938 H   0  0  0  0  0  0
   12.9356   38.2418   32.2676 H   0  0  0  0  0  0
   13.9611   36.9503   31.4308 H   0  0  0  0  0  0
   14.6727   37.0119   27.9667 H   0  0  0  0  0  0
   13.4044   38.1631   27.7008 H   0  0  0  0  0  0
    8.9582   43.0908   33.1820 H   0  0  0  0  0  0
    6.7298   42.7660   36.7899 H   0  0  0  0  0  0
    8.5146   38.6234   36.0380 H   0  0  0  0  0  0
    6.2912   38.5164   35.9359 H   0  0  0  0  0  0
    5.6544   37.8276   40.0970 H   0  0  0  0  0  0
    8.4099   41.7360   39.3132 H   0  0  0  0  0  0
    7.8702   44.9734   33.9503 H   0  0  0  0  0  0
    7.9695   46.4076   36.1228 H   0  0  0  0  0  0
    8.0824   44.8793   37.0210 H   0  0  0  0  0  0
   10.0092   45.6790   37.7492 H   0  0  0  0  0  0
    6.6961   46.7483   34.4077 H   0  0  0  0  0  0
  1  6  1  0  0  0
  1  2  2  0  0  0
  1 38  1  0  0  0
  2  3  1  0  0  0
  2 39  1  0  0  0
  3 12  1  0  0  0
  3  4  2  0  0  0
  4  5  1  0  0  0
  4 10  1  0  0  0
  5  6  2  0  0  0
  5 40  1  0  0  0
  6  7  1  0  0  0
  7  8  2  3  0  0
  7  9  1  0  0  0
  8 41  1  0  0  0
  9 42  1  0  0  0
  9 43  1  0  0  0
 10 11  2  0  0  0
 11 12  1  0  0  0
 11 13  1  0  0  0
 12 37  1  0  0  0
 13 18  1  0  0  0
 13 14  2  0  0  0
 14 15  1  0  0  0
 14 44  1  0  0  0
 15 16  2  0  0  0
 15 29  1  0  0  0
 16 17  1  0  0  0
 16 45  1  0  0  0
 17 18  2  0  0  0
 17 20  1  0  0  0
 18 19  1  0  0  0
 19 46  1  0  0  0
 20 25  1  0  0  0
 20 21  2  0  0  0
 21 22  1  0  0  0
 21 47  1  0  0  0
 22 23  2  0  0  0
 22 28  1  0  0  0
 23 24  1  0  0  0
 23 48  1  0  0  0
 24 25  2  0  0  0
 24 27  1  0  0  0
 25 26  1  0  0  0
 26 49  1  0  0  0
 29 30  1  0  0  0
 29 34  1  0  0  0
 29 50  1  0  0  0
 30 31  1  0  0  0
 30 51  1  0  0  0
 30 52  1  0  0  0
 31 32  2  0  0  0
 31 33  1  0  0  0
 33 53  1  0  0  0
 34 35  2  0  0  0
 34 36  1  0  0  0
 36 54  1  0  0  0
M  END
> <s_m_entry_id>
21120

> <s_m_entry_name>
ligand_docking-pose.86

> <s_m_Source_Path>
/home/csk/Desktop/cluster/DUD-E-result/fa7

> <s_m_Source_File>
ligand_docking-pose.sdf

> <i_m_Source_File_Index>
86

> <i_lp_mmshare_version>
53161

> <i_f3d_flags>
0

> <r_lp_tautomer_probability>
0.99999999999473

> <s_lp_Force_Field>
OPLS_2005

> <r_lp_Energy>
26.49111

> <b_lp_Chiralities_Consistent>
1

> <s_lp_Variant>
342298-2

> <s_i_glide_gridfile>
glide-grid_1w7x

> <i_i_glide_lignum>
22

> <i_i_glide_rotatable_bonds>
11

> <r_i_docking_score>
-6.80813145444385

> <r_i_glide_ligand_efficiency>
-0.18911476262344

> <r_i_glide_ligand_efficiency_sa>
-0.624443187128675

> <r_i_glide_ligand_efficiency_ln>
-1.48535034890399

> <r_i_glide_gscore>
-6.80813145444385

> <r_i_glide_lipo>
-1.20625692624017

> <r_i_glide_hbond>
-0.492651701834895

> <r_i_glide_metal>
0

> <r_i_glide_rewards>
-0.625356403010727

> <r_i_glide_evdw>
-45.999942779541

> <r_i_glide_ecoul>
-16.3168277740479

> <r_i_glide_erotb>
0.286724509486523

> <r_i_glide_esite>
-0.0230696277603533

> <r_i_glide_emodel>
-85.7194838877374

> <r_i_glide_energy>
-62.3167705535889

> <r_i_glide_einternal>
8.30758380889893

> <i_i_glide_confnum>
44

> <i_i_glide_posenum>
391

> <r_i_glide_eff_state_penalty>
0

> <s_user_duplicate_titles>
342298

> <s_m_subgroup_title>
dock_pv

> <s_m_subgroupid>
dock_pv1

> <b_m_subgroup_collapsed>
0

$$$$
