CHEMBL4338_lig64
                    3D
 Schrodinger Suite 2021-1.
 43 45  0  0  1  0            999 V2000
   14.1878   11.1763   56.6701 C   0  0  0  0  0  0
   14.9071   10.9709   55.5272 C   0  0  0  0  0  0
   13.1511   10.4047   57.1270 N   0  0  0  0  0  0
   14.6950   12.3522   57.1849 N   0  0  0  0  0  0
   13.5971    9.1237   55.2013 N   0  0  0  0  0  0
   15.7557   11.9742   55.3060 N   0  0  0  0  0  0
   14.6727    9.8013   54.7080 C   0  0  0  0  0  0
   12.8524    9.4330   56.3176 C   0  0  0  0  0  0
   15.6397   12.7644   56.3301 C   0  0  0  0  0  0
   12.2995   15.8751   60.9175 P   0  0  0  0  0  0
   14.1545   13.1960   58.2475 C   0  0  0  0  0  0
   14.8900   13.2633   59.5941 C   0  0  0  0  0  0
   15.3041    9.4019   53.7348 O   0  0  0  0  0  0
   12.8377   16.9948   60.1060 O   0  0  0  0  0  0
   11.7996    8.6333   56.5060 N   0  0  0  0  0  0
   14.3326   12.7285   60.7671 C   0  0  0  0  0  0
   10.9540   16.2328   61.7060 O   0  0  0  0  0  0
   13.2705   15.3738   62.1086 O   0  0  0  0  0  0
   11.6761   14.3644   60.1258 C   0  0  0  0  0  0
   11.7967   13.1132   61.0327 C   0  0  0  0  0  0
   12.9540   12.1003   60.7749 C   0  0  0  0  0  0
   16.0738   14.0040   59.7059 C   0  0  0  0  0  0
   15.0136   12.8442   61.9845 C   0  0  0  0  0  0
   16.7481   14.1233   60.9181 C   0  0  0  0  0  0
   16.2250   13.5254   62.0589 C   0  0  0  0  0  0
   16.1539   13.7038   56.4702 H   0  0  0  0  0  0
   13.1312   12.8468   58.2958 H   0  0  0  0  0  0
   14.1535   14.2011   57.8272 H   0  0  0  0  0  0
   13.3470    8.2929   54.6817 H   0  0  0  0  0  0
   11.1207    8.8397   57.2194 H   0  0  0  0  0  0
   11.7540    7.7150   56.0338 H   0  0  0  0  0  0
   10.0929   15.9088   61.3199 H   0  0  0  0  0  0
   12.8194   14.8516   62.8052 H   0  0  0  0  0  0
   10.6257   14.5401   59.8949 H   0  0  0  0  0  0
   12.1264   14.3089   59.1536 H   0  0  0  0  0  0
   11.8355   13.4030   62.0807 H   0  0  0  0  0  0
   10.8294   12.6330   60.9604 H   0  0  0  0  0  0
   12.9540   11.3461   61.5624 H   0  0  0  0  0  0
   12.7870   11.5094   59.8749 H   0  0  0  0  0  0
   16.4698   14.5301   58.8532 H   0  0  0  0  0  0
   14.5883   12.4325   62.8881 H   0  0  0  0  0  0
   17.6618   14.6967   60.9712 H   0  0  0  0  0  0
   16.7353   13.6175   63.0060 H   0  0  0  0  0  0
  1  4  1  0  0  0
  1  3  1  0  0  0
  1  2  2  0  0  0
  2  7  1  0  0  0
  2  6  1  0  0  0
  3  8  2  0  0  0
  4  9  1  0  0  0
  4 11  1  0  0  0
  5  8  1  0  0  0
  5 29  1  0  0  0
  5  7  1  0  0  0
  6  9  2  0  0  0
  7 13  2  0  0  0
  8 15  1  0  0  0
  9 26  1  0  0  0
 10 19  1  0  0  0
 10 14  2  0  0  0
 10 17  1  0  0  0
 10 18  1  0  0  0
 11 12  1  0  0  0
 11 27  1  0  0  0
 11 28  1  0  0  0
 12 16  1  0  0  0
 12 22  2  0  0  0
 15 30  1  0  0  0
 15 31  1  0  0  0
 16 21  1  0  0  0
 16 23  2  0  0  0
 17 32  1  0  0  0
 18 33  1  0  0  0
 19 20  1  0  0  0
 19 34  1  0  0  0
 19 35  1  0  0  0
 20 21  1  0  0  0
 20 36  1  0  0  0
 20 37  1  0  0  0
 21 38  1  0  0  0
 21 39  1  0  0  0
 22 24  1  0  0  0
 22 40  1  0  0  0
 23 25  1  0  0  0
 23 41  1  0  0  0
 24 25  2  0  0  0
 24 42  1  0  0  0
 25 43  1  0  0  0
M  END
> <s_m_entry_id>
11799

> <s_m_entry_name>
dock_pv.2

> <s_m_Source_Path>
/home/csk/Desktop/cluster/DUD-E-result/pnph

> <s_m_Source_File>
dock_pv.maegz

> <i_m_Source_File_Index>
2

> <chembl_id>
CHEMBL125508

> <chembl_pref_name>
None

> <i_lp_mmshare_version>
53161

> <r_lp_tautomer_probability>
0.999940409345307

> <s_lp_Force_Field>
OPLS_2005

> <r_lp_Energy>
2.687814

> <b_lp_Chiralities_Consistent>
1

> <s_lp_Variant>
CHEMBL4338_lig64-1

> <s_i_glide_gridfile>
glide-grid_3bgs

> <i_i_glide_lignum>
82

> <i_i_glide_rotatable_bonds>
8

> <r_i_docking_score>
-10.4584691202537

> <r_i_glide_ligand_efficiency>
-0.418338764810146

> <r_i_glide_ligand_efficiency_sa>
-1.22322996757445

> <r_i_glide_ligand_efficiency_ln>
-2.47897059652861

> <r_i_glide_gscore>
-10.4584691202537

> <r_i_glide_lipo>
-2.32636760518034

> <r_i_glide_hbond>
-0.750229866868376

> <r_i_glide_metal>
0

> <r_i_glide_rewards>
-2.49045089790727

> <r_i_glide_evdw>
-32.7256736755371

> <r_i_glide_ecoul>
-28.2482261657715

> <r_i_glide_erotb>
0.873317126648011

> <r_i_glide_esite>
-0.128454193168819

> <r_i_glide_emodel>
-75.3337762557927

> <r_i_glide_energy>
-60.9738998413086

> <r_i_glide_einternal>
5.54850816726685

> <i_i_glide_confnum>
53

> <i_i_glide_posenum>
63

> <r_i_glide_eff_state_penalty>
0

> <s_user_duplicate_titles>
CHEMBL4338_lig64,204754

> <i_f3d_flags>
0

> <s_m_subgroup_title>
dock_pv

> <s_m_subgroupid>
dock_pv

> <b_m_subgroup_collapsed>
1

$$$$
CHEMBL4338_lig18
                    3D
 Schrodinger Suite 2021-1.
 40 42  0  0  1  0            999 V2000
   13.9558   11.1977   56.6200 C   0  0  0  0  0  0
   14.7019   11.0704   55.4830 C   0  0  0  0  0  0
   13.5960   14.7975   61.3873 C   0  0  0  0  0  0
   13.0293   10.3410   57.1110 N   0  0  0  0  0  0
   14.3351   12.3673   57.1887 N   0  0  0  0  0  0
   12.0346   15.0570   60.4273 P   0  0  0  0  0  0
   13.5499    9.1061   55.1782 N   0  0  0  0  0  0
   15.4810   12.1508   55.3060 N   0  0  0  0  0  0
   14.6003    9.8446   54.7057 C   0  0  0  0  0  0
   12.7811    9.3936   56.2884 C   0  0  0  0  0  0
   15.2395   12.9103   56.3492 C   0  0  0  0  0  0
   13.8551   13.3019   61.6347 C   0  0  2  0  0  0
   15.0918   12.7696   60.9204 C   0  0  0  0  0  0
   14.0435   12.7837   58.5709 C   0  0  0  0  0  0
   15.1459   12.3895   59.5610 C   0  0  0  0  0  0
   11.1558   16.0238   61.3745 O   0  0  0  0  0  0
   12.5540   16.0806   59.3060 O   0  0  0  0  0  0
   11.2646   13.9245   59.8424 O   0  0  0  0  0  0
   14.5550   15.3965   60.6742 F   0  0  0  0  0  0
   13.4413   15.5046   62.5060 F   0  0  0  0  0  0
   15.3132    9.4433   53.7907 O   0  0  0  0  0  0
   11.7327    8.6330   56.5060 N   0  0  0  0  0  0
   12.8457   12.4591   61.4355 F   0  0  0  0  0  0
   16.2265   12.6330   61.7060 C   0  0  0  0  0  0
   16.2764   11.6795   59.1112 C   0  0  0  0  0  0
   17.3445   11.9920   61.2151 C   0  0  0  0  0  0
   17.3637   11.4665   59.9383 C   0  0  0  0  0  0
   15.7427   13.8330   56.5964 H   0  0  0  0  0  0
   14.0037   13.1887   62.7108 H   0  0  0  0  0  0
   13.0860   12.3378   58.8416 H   0  0  0  0  0  0
   13.9316   13.8651   58.5237 H   0  0  0  0  0  0
   10.1896   15.8330   61.3060 H   0  0  0  0  0  0
   12.5175   15.6916   58.3998 H   0  0  0  0  0  0
   13.3529    8.2559   54.6666 H   0  0  0  0  0  0
   11.0762    8.8603   57.2339 H   0  0  0  0  0  0
   11.6751    7.7084   56.0499 H   0  0  0  0  0  0
   16.2312   12.9631   62.7350 H   0  0  0  0  0  0
   16.3611   11.2971   58.1070 H   0  0  0  0  0  0
   18.1541   11.8330   61.8896 H   0  0  0  0  0  0
   18.2325   10.9318   59.5893 H   0  0  0  0  0  0
  1  5  1  0  0  0
  1  4  1  0  0  0
  1  2  2  0  0  0
  2  9  1  0  0  0
  2  8  1  0  0  0
  3 12  1  0  0  0
  3  6  1  0  0  0
  3 19  1  0  0  0
  3 20  1  0  0  0
  4 10  2  0  0  0
  5 11  1  0  0  0
  5 14  1  0  0  0
  6 16  1  0  0  0
  6 17  1  0  0  0
  6 18  2  0  0  0
  7 10  1  0  0  0
  7 34  1  0  0  0
  7  9  1  0  0  0
  8 11  2  0  0  0
  9 21  2  0  0  0
 10 22  1  0  0  0
 11 28  1  0  0  0
 12 13  1  0  0  0
 12 23  1  0  0  0
 12 29  1  0  0  0
 13 15  1  0  0  0
 13 24  2  0  0  0
 14 15  1  0  0  0
 14 30  1  0  0  0
 14 31  1  0  0  0
 15 25  2  0  0  0
 16 32  1  0  0  0
 17 33  1  0  0  0
 22 35  1  0  0  0
 22 36  1  0  0  0
 24 26  1  0  0  0
 24 37  1  0  0  0
 25 27  1  0  0  0
 25 38  1  0  0  0
 26 27  2  0  0  0
 26 39  1  0  0  0
 27 40  1  0  0  0
M  END
> <s_m_entry_id>
11800

> <s_m_entry_name>
dock_pv.3

> <s_m_Source_Path>
/home/csk/Desktop/cluster/DUD-E-result/pnph

> <s_m_Source_File>
dock_pv.maegz

> <i_m_Source_File_Index>
3

> <chembl_id>
CHEMBL1161035

> <chembl_pref_name>
None

> <i_lp_mmshare_version>
53161

> <r_lp_tautomer_probability>
0.999940409345307

> <s_lp_Force_Field>
OPLS_2005

> <r_lp_Energy>
7.921661

> <b_lp_Chiralities_Consistent>
1

> <s_lp_Variant>
CHEMBL4338_lig18-1

> <s_i_glide_gridfile>
glide-grid_3bgs

> <i_i_glide_lignum>
19

> <i_i_glide_rotatable_bonds>
7

> <r_i_docking_score>
-10.1987860476575

> <r_i_glide_ligand_efficiency>
-0.377732816579908

> <r_i_glide_ligand_efficiency_sa>
-1.13319844849478

> <r_i_glide_ligand_efficiency_ln>
-2.37410925176581

> <r_i_glide_gscore>
-10.1987860476575

> <r_i_glide_lipo>
-2.21536709119624

> <r_i_glide_hbond>
-0.59846540371215

> <r_i_glide_metal>
0

> <r_i_glide_rewards>
-2.69520007417389

> <r_i_glide_evdw>
-30.3622932434082

> <r_i_glide_ecoul>
-24.1913223266602

> <r_i_glide_erotb>
0.603631557766669

> <r_i_glide_esite>
-0.146572025172488

> <r_i_glide_emodel>
-70.234358339299

> <r_i_glide_energy>
-54.5536155700684

> <r_i_glide_einternal>
14.5602464675903

> <i_i_glide_confnum>
92

> <i_i_glide_posenum>
393

> <r_i_glide_eff_state_penalty>
0

> <s_user_duplicate_titles>
CHEMBL4338_lig18,642574

> <i_f3d_flags>
0

> <s_m_subgroup_title>
dock_pv

> <s_m_subgroupid>
dock_pv

> <b_m_subgroup_collapsed>
1

$$$$
CHEMBL4338_lig116
                    3D
 Schrodinger Suite 2021-1.
 46 47  0  0  1  0            999 V2000
   13.9577   11.2315   56.8560 C   0  0  0  0  0  0
   14.7781   11.1421   55.7670 C   0  0  0  0  0  0
   12.9724   10.3728   57.2312 N   0  0  0  0  0  0
   13.6095    9.2135   55.2916 N   0  0  0  0  0  0
   15.6253   12.1847   55.7060 N   0  0  0  0  0  0
   14.6604    9.9909   54.8922 C   0  0  0  0  0  0
   12.7905    9.4332   56.3756 C   0  0  0  0  0  0
   14.3263   12.3728   57.4969 N   0  0  0  0  0  0
   16.3279   17.5495   64.2489 P   0  0  0  0  0  0
   15.3153   12.9081   56.7559 C   0  0  0  0  0  0
   15.3752   16.0965   63.6003 C   0  0  0  0  0  0
   16.3086   14.6665   62.9748 P   0  0  1  0  0  0
   15.3540    9.6772   53.9347 O   0  0  0  0  0  0
   17.3537   18.1357   63.3060 O   0  0  0  0  0  0
   17.7539   14.6330   63.3267 O   0  0  0  0  0  0
   11.7540    8.6330   56.5060 N   0  0  0  0  0  0
   15.0852   18.6330   64.6577 O   0  0  0  0  0  0
   17.0090   16.9284   65.6843 O   0  0  0  0  0  0
   15.4632   13.4528   63.6358 O   0  0  0  0  0  0
   13.7803   12.8959   58.7614 C   0  0  0  0  0  0
   15.8784   14.4839   61.1943 C   0  0  0  0  0  0
   13.9156   11.8785   59.9271 C   0  0  0  0  0  0
   16.6874   13.3770   60.4829 C   0  0  0  0  0  0
   16.3592   11.9297   60.9060 C   0  0  0  0  0  0
   15.2931   11.1846   60.0795 C   0  0  0  0  0  0
   15.7781   13.8330   57.0511 H   0  0  0  0  0  0
   14.7092   15.7430   64.3897 H   0  0  0  0  0  0
   14.6992   16.4271   62.8106 H   0  0  0  0  0  0
   13.4301    8.3997   54.7186 H   0  0  0  0  0  0
   11.0443    8.8240   57.1934 H   0  0  0  0  0  0
   11.7481    7.7161   56.0285 H   0  0  0  0  0  0
   14.5037   19.0442   63.9708 H   0  0  0  0  0  0
   17.6094   16.1591   65.6885 H   0  0  0  0  0  0
   14.4978   13.4456   63.4807 H   0  0  0  0  0  0
   12.7363   13.1310   58.5492 H   0  0  0  0  0  0
   14.2935   13.8363   58.9530 H   0  0  0  0  0  0
   14.8058   14.3322   61.1017 H   0  0  0  0  0  0
   16.0966   15.4330   60.7072 H   0  0  0  0  0  0
   13.1663   11.0996   59.7796 H   0  0  0  0  0  0
   13.6266   12.3459   60.8685 H   0  0  0  0  0  0
   16.5540   13.4708   59.4069 H   0  0  0  0  0  0
   17.7490   13.5650   60.6537 H   0  0  0  0  0  0
   17.2780   11.3420   60.8613 H   0  0  0  0  0  0
   16.0665   11.8983   61.9496 H   0  0  0  0  0  0
   15.7114   10.9214   59.1082 H   0  0  0  0  0  0
   15.1251   10.2206   60.5616 H   0  0  0  0  0  0
  1  8  1  0  0  0
  1  3  1  0  0  0
  1  2  2  0  0  0
  2  6  1  0  0  0
  2  5  1  0  0  0
  3  7  2  0  0  0
  4  7  1  0  0  0
  4 29  1  0  0  0
  4  6  1  0  0  0
  5 10  2  0  0  0
  6 13  2  0  0  0
  7 16  1  0  0  0
  8 10  1  0  0  0
  8 20  1  0  0  0
  9 11  1  0  0  0
  9 14  2  0  0  0
  9 17  1  0  0  0
  9 18  1  0  0  0
 10 26  1  0  0  0
 11 12  1  0  0  0
 11 27  1  0  0  0
 11 28  1  0  0  0
 12 21  1  0  0  0
 12 15  2  0  0  0
 12 19  1  0  0  0
 16 30  1  0  0  0
 16 31  1  0  0  0
 17 32  1  0  0  0
 18 33  1  0  0  0
 19 34  1  0  0  0
 20 22  1  0  0  0
 20 35  1  0  0  0
 20 36  1  0  0  0
 21 23  1  0  0  0
 21 37  1  0  0  0
 21 38  1  0  0  0
 22 25  1  0  0  0
 22 39  1  0  0  0
 22 40  1  0  0  0
 23 24  1  0  0  0
 23 41  1  0  0  0
 23 42  1  0  0  0
 24 25  1  0  0  0
 24 43  1  0  0  0
 24 44  1  0  0  0
 25 45  1  0  0  0
 25 46  1  0  0  0
M  END
> <s_m_entry_id>
11801

> <s_m_entry_name>
dock_pv.4

> <s_m_Source_Path>
/home/csk/Desktop/cluster/DUD-E-result/pnph

> <s_m_Source_File>
dock_pv.maegz

> <i_m_Source_File_Index>
4

> <chembl_id>
CHEMBL7319

> <chembl_pref_name>
None

> <i_lp_mmshare_version>
53161

> <r_lp_tautomer_probability>
0.999940409345307

> <s_lp_Force_Field>
OPLS_2005

> <r_lp_Energy>
0.860942

> <b_lp_Chiralities_Consistent>
1

> <s_lp_Variant>
CHEMBL4338_lig116-1

> <s_i_glide_gridfile>
glide-grid_3bgs

> <i_i_glide_lignum>
140

> <i_i_glide_rotatable_bonds>
12

> <r_i_docking_score>
-10.1538995559122

> <r_i_glide_ligand_efficiency>
-0.406155982236489

> <r_i_glide_ligand_efficiency_sa>
-1.18760729526651

> <r_i_glide_ligand_efficiency_ln>
-2.40677848256637

> <r_i_glide_gscore>
-10.1538995559122

> <r_i_glide_lipo>
-2.13843140803518

> <r_i_glide_hbond>
-1.03411252987884

> <r_i_glide_metal>
0

> <r_i_glide_rewards>
-2.3354147376987

> <r_i_glide_evdw>
-33.4822387695312

> <r_i_glide_ecoul>
-27.1853199005127

> <r_i_glide_erotb>
1.13665323310778

> <r_i_glide_esite>
-0.10848217493071

> <r_i_glide_emodel>
-93.2948450042816

> <r_i_glide_energy>
-60.6675586700439

> <r_i_glide_einternal>
8.3059720993042

> <i_i_glide_confnum>
466

> <i_i_glide_posenum>
379

> <r_i_glide_eff_state_penalty>
0

> <s_user_duplicate_titles>
CHEMBL4338_lig116,1659

> <i_f3d_flags>
0

> <s_m_subgroup_title>
dock_pv

> <s_m_subgroupid>
dock_pv

> <b_m_subgroup_collapsed>
1

$$$$
CHEMBL4338_lig19
                    3D
 Schrodinger Suite 2021-1.
 38 40  0  0  1  0            999 V2000
   14.0453   11.1833   56.5390 C   0  0  0  0  0  0
   14.8334   10.9714   55.4456 C   0  0  0  0  0  0
   13.0557   10.3900   57.0229 N   0  0  0  0  0  0
   14.4647   12.3634   57.0643 N   0  0  0  0  0  0
   13.5893    9.0548   55.1625 N   0  0  0  0  0  0
   15.7297   11.9621   55.3060 N   0  0  0  0  0  0
   14.6652    9.7528   54.6735 C   0  0  0  0  0  0
   12.6498   16.6099   61.7350 P   0  0  0  0  0  0
   12.8065    9.3960   56.2514 C   0  0  0  0  0  0
   13.8621   15.2858   61.7370 C   0  0  0  0  0  0
   15.4685   12.7928   56.2809 C   0  0  0  0  0  0
   14.3982   14.8570   60.5831 C   0  0  0  0  0  0
   14.0608   12.9483   58.3444 C   0  0  0  0  0  0
   15.3268   13.7202   60.4342 C   0  0  0  0  0  0
   15.1409   12.7675   59.4147 C   0  0  0  0  0  0
   11.3050   15.8093   62.1060 O   0  0  0  0  0  0
   12.9911   17.4330   63.0863 O   0  0  0  0  0  0
   12.5540   17.4330   60.5060 O   0  0  0  0  0  0
   15.3420    9.3361   53.7388 O   0  0  0  0  0  0
   11.7540    8.6330   56.5060 N   0  0  0  0  0  0
   14.1656   14.7247   62.9274 F   0  0  0  0  0  0
   16.3543   13.5266   61.3646 C   0  0  0  0  0  0
   15.9461   11.6158   59.3924 C   0  0  0  0  0  0
   17.1536   12.3932   61.3060 C   0  0  0  0  0  0
   16.9540   11.4330   60.3261 C   0  0  0  0  0  0
   16.0100   13.6981   56.5138 H   0  0  0  0  0  0
   14.1272   15.3858   59.6864 H   0  0  0  0  0  0
   13.1263   12.4739   58.6462 H   0  0  0  0  0  0
   13.8539   13.9885   58.1060 H   0  0  0  0  0  0
   11.3868   15.1722   62.8549 H   0  0  0  0  0  0
   13.3540   18.3479   62.9458 H   0  0  0  0  0  0
   13.3770    8.1897   54.6785 H   0  0  0  0  0  0
   11.0916    8.8869   57.2195 H   0  0  0  0  0  0
   11.6878    7.7023   56.0641 H   0  0  0  0  0  0
   16.5184   14.2385   62.1601 H   0  0  0  0  0  0
   15.8004   10.8455   58.6501 H   0  0  0  0  0  0
   17.9091   12.2331   62.0582 H   0  0  0  0  0  0
   17.5633   10.5410   60.3055 H   0  0  0  0  0  0
  1  4  1  0  0  0
  1  3  1  0  0  0
  1  2  2  0  0  0
  2  7  1  0  0  0
  2  6  1  0  0  0
  3  9  2  0  0  0
  4 11  1  0  0  0
  4 13  1  0  0  0
  5  9  1  0  0  0
  5 32  1  0  0  0
  5  7  1  0  0  0
  6 11  2  0  0  0
  7 19  2  0  0  0
  8 10  1  0  0  0
  8 16  1  0  0  0
  8 17  1  0  0  0
  8 18  2  0  0  0
  9 20  1  0  0  0
 10 12  2  0  0  0
 10 21  1  0  0  0
 11 26  1  0  0  0
 12 14  1  0  0  0
 12 27  1  0  0  0
 13 15  1  0  0  0
 13 28  1  0  0  0
 13 29  1  0  0  0
 14 15  1  0  0  0
 14 22  2  0  0  0
 15 23  2  0  0  0
 16 30  1  0  0  0
 17 31  1  0  0  0
 20 33  1  0  0  0
 20 34  1  0  0  0
 22 24  1  0  0  0
 22 35  1  0  0  0
 23 25  1  0  0  0
 23 36  1  0  0  0
 24 25  2  0  0  0
 24 37  1  0  0  0
 25 38  1  0  0  0
M  END
> <s_m_entry_id>
11802

> <s_m_entry_name>
dock_pv.5

> <s_m_Source_Path>
/home/csk/Desktop/cluster/DUD-E-result/pnph

> <s_m_Source_File>
dock_pv.maegz

> <i_m_Source_File_Index>
5

> <chembl_id>
CHEMBL1161032

> <chembl_pref_name>
None

> <i_lp_mmshare_version>
53161

> <r_lp_tautomer_probability>
0.999940409345307

> <s_lp_Force_Field>
OPLS_2005

> <r_lp_Energy>
6.872904

> <b_lp_Chiralities_Consistent>
1

> <s_lp_Variant>
CHEMBL4338_lig19-1

> <s_i_glide_gridfile>
glide-grid_3bgs

> <i_i_glide_lignum>
21

> <i_i_glide_rotatable_bonds>
6

> <r_i_docking_score>
-10.094722860452

> <r_i_glide_ligand_efficiency>
-0.403788914418079

> <r_i_glide_ligand_efficiency_sa>
-1.18068594698535

> <r_i_glide_ligand_efficiency_ln>
-2.39275183235983

> <r_i_glide_gscore>
-10.094722860452

> <r_i_glide_lipo>
-2.28443739566803

> <r_i_glide_hbond>
-0.577186183248584

> <r_i_glide_metal>
0

> <r_i_glide_rewards>
-2.65315817631701

> <r_i_glide_evdw>
-29.6506671905518

> <r_i_glide_ecoul>
-23.3729114532471

> <r_i_glide_erotb>
0.576681651782955

> <r_i_glide_esite>
-0.168152679486645

> <r_i_glide_emodel>
-75.8125181295521

> <r_i_glide_energy>
-53.0235786437988

> <r_i_glide_einternal>
5.04654312133789

> <i_i_glide_confnum>
42

> <i_i_glide_posenum>
141

> <r_i_glide_eff_state_penalty>
0

> <s_user_duplicate_titles>
CHEMBL4338_lig19,642571

> <i_f3d_flags>
0

> <s_m_subgroup_title>
dock_pv

> <s_m_subgroupid>
dock_pv

> <b_m_subgroup_collapsed>
1

$$$$
CHEMBL4338_lig210
                    3D
 Schrodinger Suite 2021-1.
 35 37  0  0  1  0            999 V2000
   14.2263   15.1553   61.8275 C   0  0  0  0  0  0
   15.0843   15.4646   62.6582 O   0  0  0  0  0  0
   14.2219   13.9903   61.1460 N   0  0  0  0  0  0
   13.1890   13.6020   60.1771 C   0  0  0  0  0  0
   13.5825   12.1830   59.7880 C   0  0  2  0  0  0
   14.5050   11.6947   60.8972 C   0  0  0  0  0  0
   15.2212   12.9454   61.3909 C   0  0  0  0  0  0
   12.8620   16.3553   61.4545 P   0  0  0  0  0  0
   15.4801   12.5556   56.6904 N   0  0  0  0  0  0
   15.1549   12.9038   57.9173 C   0  0  0  0  0  0
   14.2005   12.1138   58.4506 N   0  0  0  0  0  0
   13.8906   11.2086   57.4908 C   0  0  0  0  0  0
   12.9540   10.2375   57.5846 N   0  0  0  0  0  0
   12.8104    9.5413   56.5173 C   0  0  0  0  0  0
   11.8296    8.6407   56.5058 N   0  0  0  0  0  0
   13.6266    9.7018   55.4188 N   0  0  0  0  0  0
   14.6285   10.6299   55.2746 C   0  0  0  0  0  0
   15.3538   10.6300   54.2964 O   0  0  0  0  0  0
   14.6946   11.4921   56.4354 C   0  0  0  0  0  0
   12.9541   16.9820   60.1063 O   0  0  0  0  0  0
   11.5244   15.4881   61.7457 O   0  0  0  0  0  0
   12.9541   17.3658   62.7190 O   0  0  0  0  0  0
   12.2090   13.5538   60.6511 H   0  0  0  0  0  0
   13.1552   14.2647   59.3095 H   0  0  0  0  0  0
   12.6842   11.5619   59.7555 H   0  0  0  0  0  0
   15.1855   10.8954   60.5979 H   0  0  0  0  0  0
   13.9021   11.2925   61.7138 H   0  0  0  0  0  0
   16.1083   13.1234   60.7776 H   0  0  0  0  0  0
   15.4850   12.8353   62.4464 H   0  0  0  0  0  0
   15.5762   13.7233   58.4763 H   0  0  0  0  0  0
   11.1844    8.6133   57.2791 H   0  0  0  0  0  0
   11.8066    7.8620   55.8415 H   0  0  0  0  0  0
   13.5195    9.0590   54.6469 H   0  0  0  0  0  0
   11.5007   15.0342   62.6226 H   0  0  0  0  0  0
   13.5727   18.1279   62.6493 H   0  0  0  0  0  0
  1  3  1  0  0  0
  1  8  1  0  0  0
  1  2  2  0  0  0
  3  7  1  0  0  0
  3  4  1  0  0  0
  4  5  1  0  0  0
  4 23  1  0  0  0
  4 24  1  0  0  0
  5  6  1  0  0  0
  5 11  1  0  0  0
  5 25  1  0  0  0
  6  7  1  0  0  0
  6 26  1  0  0  0
  6 27  1  0  0  0
  7 28  1  0  0  0
  7 29  1  0  0  0
  8 20  2  0  0  0
  8 21  1  0  0  0
  8 22  1  0  0  0
  9 10  2  0  0  0
  9 19  1  0  0  0
 10 11  1  0  0  0
 10 30  1  0  0  0
 11 12  1  0  0  0
 12 13  1  0  0  0
 12 19  2  0  0  0
 13 14  2  0  0  0
 14 15  1  0  0  0
 14 16  1  0  0  0
 15 31  1  0  0  0
 15 32  1  0  0  0
 16 17  1  0  0  0
 16 33  1  0  0  0
 17 18  2  0  0  0
 17 19  1  0  0  0
 21 34  1  0  0  0
 22 35  1  0  0  0
M  END
> <s_m_entry_id>
11803

> <s_m_entry_name>
dock_pv.6

> <s_m_Source_Path>
/home/csk/Desktop/cluster/DUD-E-result/pnph

> <s_m_Source_File>
dock_pv.maegz

> <i_m_Source_File_Index>
6

> <chembl_id>
CHEMBL2024003

> <chembl_pref_name>
None

> <i_lp_mmshare_version>
53161

> <r_lp_tautomer_probability>
0.999940409345307

> <s_lp_Force_Field>
OPLS_2005

> <r_lp_Energy>
29.807028

> <b_lp_Chiralities_Consistent>
1

> <s_lp_Variant>
CHEMBL4338_lig210-1

> <s_i_glide_gridfile>
glide-grid_3bgs

> <i_i_glide_lignum>
282

> <i_i_glide_rotatable_bonds>
5

> <r_i_docking_score>
-10.0936854721946

> <r_i_glide_ligand_efficiency>
-0.458803885099755

> <r_i_glide_ligand_efficiency_sa>
-1.28558652978241

> <r_i_glide_ligand_efficiency_ln>
-2.46726490552762

> <r_i_glide_gscore>
-10.0936854721946

> <r_i_glide_lipo>
-1.52877933743794

> <r_i_glide_hbond>
-0.8

> <r_i_glide_metal>
0

> <r_i_glide_rewards>
-2.96553599405694

> <r_i_glide_evdw>
-29.7515144348145

> <r_i_glide_ecoul>
-24.8982353210449

> <r_i_glide_erotb>
0.522940879197734

> <r_i_glide_esite>
-0.1

> <r_i_glide_emodel>
-81.9218112424384

> <r_i_glide_energy>
-54.6497497558594

> <r_i_glide_einternal>
2.78239965438843

> <i_i_glide_confnum>
31

> <i_i_glide_posenum>
128

> <r_i_glide_eff_state_penalty>
0

> <s_user_duplicate_titles>
CHEMBL4338_lig210

> <i_f3d_flags>
0

> <s_m_subgroup_title>
dock_pv

> <s_m_subgroupid>
dock_pv

> <b_m_subgroup_collapsed>
1

$$$$
CHEMBL4338_lig148
                    3D
 Schrodinger Suite 2021-1.
 41 43  0  0  1  0            999 V2000
   14.0511   11.1900   56.5337 C   0  0  0  0  0  0
   14.8432   10.9623   55.4462 C   0  0  0  0  0  0
   13.0535   10.4042   57.0182 N   0  0  0  0  0  0
   14.4719   12.3799   57.0417 N   0  0  0  0  0  0
   13.5825    9.0563   55.1655 N   0  0  0  0  0  0
   15.7529   11.9405   55.3060 N   0  0  0  0  0  0
   14.6582    9.7479   54.6711 C   0  0  0  0  0  0
   12.8030    9.4032   56.2532 C   0  0  0  0  0  0
   15.4884   12.7877   56.2643 C   0  0  0  0  0  0
   12.8255   16.1434   61.5227 P   0  0  0  0  0  0
   14.0574   12.9997   58.2996 C   0  0  0  0  0  0
   15.3261    9.3263   53.7322 O   0  0  0  0  0  0
   13.1174   16.4875   60.1060 O   0  0  0  0  0  0
   14.0389   15.2364   62.5779 C   0  0  0  0  0  0
   11.7540    8.6330   56.5060 N   0  0  0  0  0  0
   15.1424   12.8596   59.3467 C   0  0  0  0  0  0
   11.4904   15.2527   61.7060 O   0  0  0  0  0  0
   12.5540   17.4330   62.4536 O   0  0  0  0  0  0
   15.3226   15.8096   62.3193 O   0  0  0  0  0  0
   15.4263   13.9468   60.1655 C   0  0  0  0  0  0
   16.3086   13.8199   61.2369 C   0  0  0  0  0  0
   16.8137   11.5625   60.5060 C   0  0  0  0  0  0
   16.4444   14.9219   62.2868 C   0  0  0  0  0  0
   15.8398   11.6585   59.5205 C   0  0  0  0  0  0
   17.0238   12.6328   61.3750 C   0  0  0  0  0  0
   16.0333   13.6932   56.4890 H   0  0  0  0  0  0
   13.8359   14.0445   58.0882 H   0  0  0  0  0  0
   13.1354   12.5140   58.6212 H   0  0  0  0  0  0
   13.3668    8.1903   54.6846 H   0  0  0  0  0  0
   13.9734   14.1678   62.3717 H   0  0  0  0  0  0
   13.7914   15.3834   63.6284 H   0  0  0  0  0  0
   11.0863    8.8834   57.2158 H   0  0  0  0  0  0
   11.6936    7.7022   56.0633 H   0  0  0  0  0  0
   11.3540   14.9177   62.6226 H   0  0  0  0  0  0
   13.2839   18.0902   62.5060 H   0  0  0  0  0  0
   14.9087   14.8756   60.0057 H   0  0  0  0  0  0
   17.3613   10.6405   60.6393 H   0  0  0  0  0  0
   16.5769   14.4850   63.2782 H   0  0  0  0  0  0
   17.3413   15.5027   62.0716 H   0  0  0  0  0  0
   15.6361   10.8015   58.8948 H   0  0  0  0  0  0
   17.7354   12.5190   62.1785 H   0  0  0  0  0  0
  1  4  1  0  0  0
  1  3  1  0  0  0
  1  2  2  0  0  0
  2  7  1  0  0  0
  2  6  1  0  0  0
  3  8  2  0  0  0
  4  9  1  0  0  0
  4 11  1  0  0  0
  5  8  1  0  0  0
  5 29  1  0  0  0
  5  7  1  0  0  0
  6  9  2  0  0  0
  7 12  2  0  0  0
  8 15  1  0  0  0
  9 26  1  0  0  0
 10 14  1  0  0  0
 10 13  2  0  0  0
 10 17  1  0  0  0
 10 18  1  0  0  0
 11 16  1  0  0  0
 11 27  1  0  0  0
 11 28  1  0  0  0
 14 19  1  0  0  0
 14 30  1  0  0  0
 14 31  1  0  0  0
 15 32  1  0  0  0
 15 33  1  0  0  0
 16 20  2  0  0  0
 16 24  1  0  0  0
 17 34  1  0  0  0
 18 35  1  0  0  0
 19 23  1  0  0  0
 20 21  1  0  0  0
 20 36  1  0  0  0
 21 23  1  0  0  0
 21 25  2  0  0  0
 22 24  2  0  0  0
 22 25  1  0  0  0
 22 37  1  0  0  0
 23 38  1  0  0  0
 23 39  1  0  0  0
 24 40  1  0  0  0
 25 41  1  0  0  0
M  END
> <s_m_entry_id>
11804

> <s_m_entry_name>
dock_pv.7

> <s_m_Source_Path>
/home/csk/Desktop/cluster/DUD-E-result/pnph

> <s_m_Source_File>
dock_pv.maegz

> <i_m_Source_File_Index>
7

> <chembl_id>
CHEMBL326595

> <chembl_pref_name>
None

> <i_lp_mmshare_version>
53161

> <r_lp_tautomer_probability>
0.999940409345307

> <s_lp_Force_Field>
OPLS_2005

> <r_lp_Energy>
9.262015

> <b_lp_Chiralities_Consistent>
1

> <s_lp_Variant>
CHEMBL4338_lig148-1

> <s_i_glide_gridfile>
glide-grid_3bgs

> <i_i_glide_lignum>
193

> <i_i_glide_rotatable_bonds>
8

> <r_i_docking_score>
-10.0071842873982

> <r_i_glide_ligand_efficiency>
-0.40028737149593

> <r_i_glide_ligand_efficiency_sa>
-1.17044737338086

> <r_i_glide_ligand_efficiency_ln>
-2.37200256722675

> <r_i_glide_gscore>
-10.0071842873982

> <r_i_glide_lipo>
-2.21912612593551

> <r_i_glide_hbond>
-0.762102923459505

> <r_i_glide_metal>
0

> <r_i_glide_rewards>
-2.639636284352

> <r_i_glide_evdw>
-34.6377334594727

> <r_i_glide_ecoul>
-22.5123558044434

> <r_i_glide_erotb>
0.864917573385342

> <r_i_glide_esite>
-0.142496483396435

> <r_i_glide_emodel>
-86.4677598898302

> <r_i_glide_energy>
-57.150089263916

> <r_i_glide_einternal>
5.09654092788696

> <i_i_glide_confnum>
150

> <i_i_glide_posenum>
201

> <r_i_glide_eff_state_penalty>
0

> <s_user_duplicate_titles>
CHEMBL4338_lig148,191562

> <i_f3d_flags>
0

> <s_m_subgroup_title>
dock_pv

> <s_m_subgroupid>
dock_pv

> <b_m_subgroup_collapsed>
1

$$$$
CHEMBL4338_lig3
                    3D
 Schrodinger Suite 2021-1.
 36 38  0  0  1  0            999 V2000
   14.0847   14.8116   61.7869 C   0  0  0  0  0  0
   15.1025   15.1122   62.4166 O   0  0  0  0  0  0
   13.7708   13.5719   61.3538 N   0  0  0  0  0  0
   14.5801   12.4190   61.7658 C   0  0  0  0  0  0
   15.2854   12.0047   60.4816 C   0  0  1  0  0  0
   14.0994   12.1574   59.5232 C   0  0  1  0  0  0
   13.3378   13.4238   59.9488 C   0  0  0  0  0  0
   12.8088   16.0906   61.4323 P   0  0  0  0  0  0
   16.3663   12.8817   60.2021 O   0  0  0  0  0  0
   15.5066   12.3877   56.1649 N   0  0  0  0  0  0
   15.2891   12.8455   57.3787 C   0  0  0  0  0  0
   14.4343   12.0784   58.0873 N   0  0  0  0  0  0
   13.9675   11.1509   57.2152 C   0  0  0  0  0  0
   12.9971   10.2329   57.4557 N   0  0  0  0  0  0
   12.7810    9.4599   56.4551 C   0  0  0  0  0  0
   11.7538    8.6331   56.5068 N   0  0  0  0  0  0
   13.5621    9.4540   55.3197 N   0  0  0  0  0  0
   14.6115   10.2923   55.0517 C   0  0  0  0  0  0
   15.3541   10.1111   54.1003 O   0  0  0  0  0  0
   14.7095   11.3067   56.0832 C   0  0  0  0  0  0
   12.9537   16.7529   60.1053 O   0  0  0  0  0  0
   11.4239   15.2920   61.7060 O   0  0  0  0  0  0
   12.9537   17.0336   62.7392 O   0  0  0  0  0  0
   15.2359   12.5783   62.6236 H   0  0  0  0  0  0
   13.9053   11.6103   62.0523 H   0  0  0  0  0  0
   15.6721   10.9858   60.5481 H   0  0  0  0  0  0
   13.4395   11.3088   59.7243 H   0  0  0  0  0  0
   12.2863   13.1530   59.8436 H   0  0  0  0  0  0
   13.6859   14.2215   59.2879 H   0  0  0  0  0  0
   16.7592   13.1571   61.0342 H   0  0  0  0  0  0
   15.7539   13.7071   57.8320 H   0  0  0  0  0  0
   11.0718    8.7360   57.2396 H   0  0  0  0  0  0
   11.7539    7.7448   55.9764 H   0  0  0  0  0  0
   13.3924    8.7339   54.6324 H   0  0  0  0  0  0
   11.3531   14.8885   62.6038 H   0  0  0  0  0  0
   13.7085   17.6581   62.7394 H   0  0  0  0  0  0
  1  3  1  0  0  0
  1  8  1  0  0  0
  1  2  2  0  0  0
  3  7  1  0  0  0
  3  4  1  0  0  0
  4  5  1  0  0  0
  4 24  1  0  0  0
  4 25  1  0  0  0
  5  6  1  0  0  0
  5  9  1  0  0  0
  5 26  1  0  0  0
  6  7  1  0  0  0
  6 12  1  0  0  0
  6 27  1  0  0  0
  7 28  1  0  0  0
  7 29  1  0  0  0
  8 21  2  0  0  0
  8 22  1  0  0  0
  8 23  1  0  0  0
  9 30  1  0  0  0
 10 11  2  0  0  0
 10 20  1  0  0  0
 11 12  1  0  0  0
 11 31  1  0  0  0
 12 13  1  0  0  0
 13 14  1  0  0  0
 13 20  2  0  0  0
 14 15  2  0  0  0
 15 16  1  0  0  0
 15 17  1  0  0  0
 16 32  1  0  0  0
 16 33  1  0  0  0
 17 18  1  0  0  0
 17 34  1  0  0  0
 18 19  2  0  0  0
 18 20  1  0  0  0
 22 35  1  0  0  0
 23 36  1  0  0  0
M  END
> <s_m_entry_id>
11805

> <s_m_entry_name>
dock_pv.8

> <s_m_Source_Path>
/home/csk/Desktop/cluster/DUD-E-result/pnph

> <s_m_Source_File>
dock_pv.maegz

> <i_m_Source_File_Index>
8

> <chembl_id>
CHEMBL2024005

> <chembl_pref_name>
None

> <i_lp_mmshare_version>
53161

> <r_lp_tautomer_probability>
0.999940409345307

> <s_lp_Force_Field>
OPLS_2005

> <r_lp_Energy>
28.209764

> <b_lp_Chiralities_Consistent>
1

> <s_lp_Variant>
CHEMBL4338_lig3-1

> <s_i_glide_gridfile>
glide-grid_3bgs

> <i_i_glide_lignum>
3

> <i_i_glide_rotatable_bonds>
6

> <r_i_docking_score>
-9.93799140002613

> <r_i_glide_ligand_efficiency>
-0.432086582609832

> <r_i_glide_ligand_efficiency_sa>
-1.22879676343671

> <r_i_glide_ligand_efficiency_ln>
-2.40309643325019

> <r_i_glide_gscore>
-9.93799140002613

> <r_i_glide_lipo>
-1.46491176608782

> <r_i_glide_hbond>
-0.8

> <r_i_glide_metal>
0

> <r_i_glide_rewards>
-2.81413570786881

> <r_i_glide_evdw>
-39.8802719116211

> <r_i_glide_ecoul>
-21.6373710632324

> <r_i_glide_erotb>
0.480675328996417

> <r_i_glide_esite>
-0.1

> <r_i_glide_emodel>
-89.2685344916513

> <r_i_glide_energy>
-61.5176429748535

> <r_i_glide_einternal>
7.4667534828186

> <i_i_glide_confnum>
2

> <i_i_glide_posenum>
115

> <r_i_glide_eff_state_penalty>
0

> <s_user_duplicate_titles>
CHEMBL4338_lig3

> <i_f3d_flags>
0

> <s_m_subgroup_title>
dock_pv

> <s_m_subgroupid>
dock_pv

> <b_m_subgroup_collapsed>
1

$$$$
CHEMBL4338_lig58
                    3D
 Schrodinger Suite 2021-1.
 44 46  0  0  1  0            999 V2000
   13.9505   11.2470   56.5528 C   0  0  0  0  0  0
   14.7320   11.0741   55.4461 C   0  0  0  0  0  0
   13.0015   10.4104   57.0427 N   0  0  0  0  0  0
   14.3806   12.3955   57.1366 N   0  0  0  0  0  0
   13.5572    9.1176   55.1600 N   0  0  0  0  0  0
   15.5877   12.1014   55.3060 N   0  0  0  0  0  0
   14.6141    9.8429   54.6799 C   0  0  0  0  0  0
   12.7782    9.4239   56.2580 C   0  0  0  0  0  0
   15.3538   12.8751   56.3396 C   0  0  0  0  0  0
   12.2996   15.7456   60.6192 P   0  0  0  0  0  0
   14.0796   12.8336   58.5098 C   0  0  0  0  0  0
   15.1199   12.2883   59.4857 C   0  0  0  0  0  0
   15.3163    9.4319   53.7611 O   0  0  0  0  0  0
   13.1146   15.8331   59.3903 O   0  0  0  0  0  0
   15.5767   13.0503   60.5730 C   0  0  0  0  0  0
   11.7540    8.6330   56.5060 N   0  0  0  0  0  0
   11.7307   14.2776   60.9971 O   0  0  0  0  0  0
   10.9540   16.6088   60.5070 O   0  0  0  0  0  0
   12.9813   16.3576   62.2092 C   0  0  0  0  0  0
   14.9132   14.1838   60.9663 O   0  0  0  0  0  0
   14.2668   15.6745   62.7379 C   0  0  0  0  0  0
   15.6974   11.0328   59.2482 C   0  0  0  0  0  0
   14.5002   14.2134   62.3370 C   0  0  0  0  0  0
   16.7317   12.6505   61.2477 C   0  0  0  0  0  0
   16.8226   10.6331   59.9392 C   0  0  0  0  0  0
   17.3551   11.4606   60.9059 C   0  0  0  0  0  0
   15.9042   13.7641   56.6113 H   0  0  0  0  0  0
   13.0645   12.5175   58.7530 H   0  0  0  0  0  0
   14.1195   13.9160   58.4585 H   0  0  0  0  0  0
   13.3605    8.2601   54.6604 H   0  0  0  0  0  0
   11.0879    8.8630   57.2244 H   0  0  0  0  0  0
   11.7089    7.7040   56.0571 H   0  0  0  0  0  0
   11.4400   14.1780   61.9260 H   0  0  0  0  0  0
   10.1045   16.1018   60.5963 H   0  0  0  0  0  0
   13.1425   17.4319   62.1326 H   0  0  0  0  0  0
   12.1842   16.2327   62.9289 H   0  0  0  0  0  0
   15.1490   16.2330   62.4322 H   0  0  0  0  0  0
   14.2602   15.7414   63.8267 H   0  0  0  0  0  0
   15.3262   10.3668   58.4889 H   0  0  0  0  0  0
   15.2487   13.8008   63.0144 H   0  0  0  0  0  0
   13.6031   13.6099   62.4832 H   0  0  0  0  0  0
   17.1479   13.2546   62.0384 H   0  0  0  0  0  0
   17.2842    9.6811   59.7264 H   0  0  0  0  0  0
   18.2500   11.1454   61.4088 H   0  0  0  0  0  0
  1  4  1  0  0  0
  1  3  1  0  0  0
  1  2  2  0  0  0
  2  7  1  0  0  0
  2  6  1  0  0  0
  3  8  2  0  0  0
  4  9  1  0  0  0
  4 11  1  0  0  0
  5  8  1  0  0  0
  5 30  1  0  0  0
  5  7  1  0  0  0
  6  9  2  0  0  0
  7 13  2  0  0  0
  8 16  1  0  0  0
  9 27  1  0  0  0
 10 19  1  0  0  0
 10 14  2  0  0  0
 10 17  1  0  0  0
 10 18  1  0  0  0
 11 12  1  0  0  0
 11 28  1  0  0  0
 11 29  1  0  0  0
 12 15  1  0  0  0
 12 22  2  0  0  0
 15 20  1  0  0  0
 15 24  2  0  0  0
 16 31  1  0  0  0
 16 32  1  0  0  0
 17 33  1  0  0  0
 18 34  1  0  0  0
 19 21  1  0  0  0
 19 35  1  0  0  0
 19 36  1  0  0  0
 20 23  1  0  0  0
 21 23  1  0  0  0
 21 37  1  0  0  0
 21 38  1  0  0  0
 22 25  1  0  0  0
 22 39  1  0  0  0
 23 40  1  0  0  0
 23 41  1  0  0  0
 24 26  1  0  0  0
 24 42  1  0  0  0
 25 26  2  0  0  0
 25 43  1  0  0  0
 26 44  1  0  0  0
M  END
> <s_m_entry_id>
11806

> <s_m_entry_name>
dock_pv.9

> <s_m_Source_Path>
/home/csk/Desktop/cluster/DUD-E-result/pnph

> <s_m_Source_File>
dock_pv.maegz

> <i_m_Source_File_Index>
9

> <chembl_id>
CHEMBL324839

> <chembl_pref_name>
None

> <i_lp_mmshare_version>
53161

> <r_lp_tautomer_probability>
0.999940409345307

> <s_lp_Force_Field>
OPLS_2005

> <r_lp_Energy>
-3.505415

> <b_lp_Chiralities_Consistent>
1

> <s_lp_Variant>
CHEMBL4338_lig58-1

> <s_i_glide_gridfile>
glide-grid_3bgs

> <i_i_glide_lignum>
73

> <i_i_glide_rotatable_bonds>
9

> <r_i_docking_score>
-9.81561594970203

> <r_i_glide_ligand_efficiency>
-0.377523690373155

> <r_i_glide_ligand_efficiency_sa>
-1.11841244724648

> <r_i_glide_ligand_efficiency_ln>
-2.30516519812462

> <r_i_glide_gscore>
-9.81561594970203

> <r_i_glide_lipo>
-2.31126007975187

> <r_i_glide_hbond>
-0.785729146105509

> <r_i_glide_metal>
0

> <r_i_glide_rewards>
-2.56252687336548

> <r_i_glide_evdw>
-29.3870620727539

> <r_i_glide_ecoul>
-23.3153972625732

> <r_i_glide_erotb>
0.943317954183732

> <r_i_glide_esite>
-0.132755111639219

> <r_i_glide_emodel>
-61.3784750711058

> <r_i_glide_energy>
-52.7024593353271

> <r_i_glide_einternal>
10.4501495361328

> <i_i_glide_confnum>
33

> <i_i_glide_posenum>
373

> <r_i_glide_eff_state_penalty>
0

> <s_user_duplicate_titles>
CHEMBL4338_lig58

> <i_f3d_flags>
0

> <s_m_subgroup_title>
dock_pv

> <s_m_subgroupid>
dock_pv

> <b_m_subgroup_collapsed>
1

$$$$
CHEMBL4338_lig54
                    3D
 Schrodinger Suite 2021-1.
 40 42  0  0  1  0            999 V2000
   14.0896   11.0854   56.6141 C   0  0  0  0  0  0
   14.8307   10.9446   55.4774 C   0  0  0  0  0  0
   13.1160   10.2777   57.0877 N   0  0  0  0  0  0
   14.4464   12.2709   57.1496 N   0  0  0  0  0  0
   13.5828    9.0390   55.1435 N   0  0  0  0  0  0
   15.6401   12.0030   55.3060 N   0  0  0  0  0  0
   14.6519    9.7537   54.6632 C   0  0  0  0  0  0
   12.8298    9.3470   56.2630 C   0  0  0  0  0  0
   15.3602   12.7974   56.3107 C   0  0  0  0  0  0
   11.6239   14.9601   59.9854 P   0  0  0  0  0  0
   13.8909   12.8679   58.3700 C   0  0  0  0  0  0
   14.7408   12.7401   59.6381 C   0  0  0  0  0  0
   15.3168    9.3705   53.7061 O   0  0  0  0  0  0
   10.7345   14.2330   59.0374 O   0  0  0  0  0  0
   14.2035   12.7975   60.9372 C   0  0  0  0  0  0
   12.1633   14.1284   61.4911 C   0  0  0  0  0  0
   11.7540    8.6330   56.5060 N   0  0  0  0  0  0
   12.7221   12.7445   61.2164 C   0  0  0  0  0  0
   10.9540   16.2330   60.6912 O   0  0  0  0  0  0
   12.9342   15.6137   59.3060 O   0  0  0  0  0  0
   16.1227   12.6956   59.5091 C   0  0  0  0  0  0
   15.0481   12.9550   62.0425 C   0  0  0  0  0  0
   16.9540   12.8674   60.6020 C   0  0  0  0  0  0
   16.4237   13.0330   61.8722 C   0  0  0  0  0  0
   15.7977   13.7671   56.4988 H   0  0  0  0  0  0
   12.8818   12.4738   58.4683 H   0  0  0  0  0  0
   13.8124   13.9113   58.1059 H   0  0  0  0  0  0
   13.3543    8.1935   54.6326 H   0  0  0  0  0  0
   12.8455   14.7603   62.0607 H   0  0  0  0  0  0
   11.2652   14.0212   62.0940 H   0  0  0  0  0  0
   11.1210    8.8890   57.2448 H   0  0  0  0  0  0
   11.6607    7.7071   56.0596 H   0  0  0  0  0  0
   12.5820   12.1331   62.1060 H   0  0  0  0  0  0
   12.1641   12.2330   60.4375 H   0  0  0  0  0  0
    9.9973   16.0431   60.9060 H   0  0  0  0  0  0
   12.9551   15.4330   58.3390 H   0  0  0  0  0  0
   16.5540   12.5775   58.5368 H   0  0  0  0  0  0
   14.6335   13.0328   63.0371 H   0  0  0  0  0  0
   18.0102   12.8954   60.4367 H   0  0  0  0  0  0
   17.0734   13.1672   62.7240 H   0  0  0  0  0  0
  1  4  1  0  0  0
  1  3  1  0  0  0
  1  2  2  0  0  0
  2  7  1  0  0  0
  2  6  1  0  0  0
  3  8  2  0  0  0
  4  9  1  0  0  0
  4 11  1  0  0  0
  5  8  1  0  0  0
  5 28  1  0  0  0
  5  7  1  0  0  0
  6  9  2  0  0  0
  7 13  2  0  0  0
  8 17  1  0  0  0
  9 25  1  0  0  0
 10 16  1  0  0  0
 10 14  2  0  0  0
 10 19  1  0  0  0
 10 20  1  0  0  0
 11 12  1  0  0  0
 11 26  1  0  0  0
 11 27  1  0  0  0
 12 15  1  0  0  0
 12 21  2  0  0  0
 15 18  1  0  0  0
 15 22  2  0  0  0
 16 18  1  0  0  0
 16 29  1  0  0  0
 16 30  1  0  0  0
 17 31  1  0  0  0
 17 32  1  0  0  0
 18 33  1  0  0  0
 18 34  1  0  0  0
 19 35  1  0  0  0
 20 36  1  0  0  0
 21 23  1  0  0  0
 21 37  1  0  0  0
 22 24  1  0  0  0
 22 38  1  0  0  0
 23 24  2  0  0  0
 23 39  1  0  0  0
 24 40  1  0  0  0
M  END
> <s_m_entry_id>
11807

> <s_m_entry_name>
dock_pv.10

> <s_m_Source_Path>
/home/csk/Desktop/cluster/DUD-E-result/pnph

> <s_m_Source_File>
dock_pv.maegz

> <i_m_Source_File_Index>
10

> <chembl_id>
CHEMBL333946

> <chembl_pref_name>
None

> <i_lp_mmshare_version>
53161

> <r_lp_tautomer_probability>
0.999940409345307

> <s_lp_Force_Field>
OPLS_2005

> <r_lp_Energy>
8.863245

> <b_lp_Chiralities_Consistent>
1

> <s_lp_Variant>
CHEMBL4338_lig54-1

> <s_i_glide_gridfile>
glide-grid_3bgs

> <i_i_glide_lignum>
66

> <i_i_glide_rotatable_bonds>
7

> <r_i_docking_score>
-9.78159567936477

> <r_i_glide_ligand_efficiency>
-0.407566486640199

> <r_i_glide_ligand_efficiency_sa>
-1.17562517921165

> <r_i_glide_ligand_efficiency_ln>
-2.34118469425038

> <r_i_glide_gscore>
-9.78159567936477

> <r_i_glide_lipo>
-2.0292166073296

> <r_i_glide_hbond>
-0.354153597473692

> <r_i_glide_metal>
0

> <r_i_glide_rewards>
-2.64245860415622

> <r_i_glide_evdw>
-27.8015193939209

> <r_i_glide_ecoul>
-28.8756084442139

> <r_i_glide_erotb>
0.780623330949026

> <r_i_glide_esite>
-0.146314231658237

> <r_i_glide_emodel>
-75.3277421896966

> <r_i_glide_energy>
-56.6771278381348

> <r_i_glide_einternal>
4.04822969436646

> <i_i_glide_confnum>
71

> <i_i_glide_posenum>
78

> <r_i_glide_eff_state_penalty>
0

> <s_user_duplicate_titles>
CHEMBL4338_lig54,192028

> <i_f3d_flags>
0

> <s_m_subgroup_title>
dock_pv

> <s_m_subgroupid>
dock_pv

> <b_m_subgroup_collapsed>
1

$$$$
CHEMBL4338_lig1
                    3D
 Schrodinger Suite 2021-1.
 33 35  0  0  1  0            999 V2000
   12.7900    9.8330   57.0980 N   0  0  0  0  0  0
   12.6706    9.0330   56.1060 C   0  0  0  0  0  0
   13.5452    9.0812   55.0457 N   0  0  0  0  0  0
   14.5895    9.9474   54.8755 C   0  0  0  0  0  0
   13.7670   10.7784   57.0531 C   0  0  0  0  0  0
   14.6326   10.9048   55.9755 C   0  0  0  0  0  0
   15.4920   11.9332   56.2473 N   0  0  0  0  0  0
   15.1797   12.4385   57.4879 C   0  0  0  0  0  0
   14.1101   11.7194   58.0349 C   0  0  0  0  0  0
   15.3540    9.8330   53.9317 O   0  0  0  0  0  0
   13.3971   11.8758   59.3682 C   0  0  1  0  0  0
   13.5130   13.9532   60.5640 C   0  0  1  0  0  0
   14.1738   12.5748   60.5037 C   0  0  1  0  0  0
   12.1826   12.6330   59.0952 N   0  0  1  0  0  0
   12.0709   13.6673   60.1146 C   0  0  2  0  0  0
   11.3669   14.9234   59.5832 C   0  0  0  0  0  0
   13.6397   14.6585   61.7882 O   0  0  0  0  0  0
   14.0579   11.8330   61.7060 O   0  0  0  0  0  0
   10.1540   14.6329   58.9060 O   0  0  0  0  0  0
   11.8970    8.2709   56.1058 H   0  0  0  0  0  0
   13.4688    8.3554   54.3446 H   0  0  0  0  0  0
   16.2495   12.2415   55.6539 H   0  0  0  0  0  0
   15.7538   13.2600   57.8901 H   0  0  0  0  0  0
   13.1282   10.8634   59.6762 H   0  0  0  0  0  0
   14.0108   14.5602   59.8043 H   0  0  0  0  0  0
   15.2318   12.6547   60.2506 H   0  0  0  0  0  0
   12.2997   13.1056   58.2052 H   0  0  0  0  0  0
   11.4991   13.2495   60.9460 H   0  0  0  0  0  0
   12.0440   15.4330   58.9060 H   0  0  0  0  0  0
   11.1729   15.6224   60.3978 H   0  0  0  0  0  0
   13.1009   14.2241   62.4594 H   0  0  0  0  0  0
   14.4085   12.3535   62.4336 H   0  0  0  0  0  0
    9.4517   14.7980   59.5570 H   0  0  0  0  0  0
  1  5  1  0  0  0
  1  2  2  0  0  0
  2  3  1  0  0  0
  2 20  1  0  0  0
  3  4  1  0  0  0
  3 21  1  0  0  0
  4 10  2  0  0  0
  4  6  1  0  0  0
  5  9  1  0  0  0
  5  6  2  0  0  0
  6  7  1  0  0  0
  7  8  1  0  0  0
  7 22  1  0  0  0
  8  9  2  0  0  0
  8 23  1  0  0  0
  9 11  1  0  0  0
 11 13  1  0  0  0
 11 14  1  0  0  0
 11 24  1  0  0  0
 12 13  1  0  0  0
 12 15  1  0  0  0
 12 17  1  0  0  0
 12 25  1  0  0  0
 13 18  1  0  0  0
 13 26  1  0  0  0
 14 15  1  0  0  0
 14 27  1  0  0  0
 15 16  1  0  0  0
 15 28  1  0  0  0
 16 19  1  0  0  0
 16 29  1  0  0  0
 16 30  1  0  0  0
 17 31  1  0  0  0
 18 32  1  0  0  0
 19 33  1  0  0  0
M  END
> <s_m_entry_id>
11808

> <s_m_entry_name>
dock_pv.11

> <s_m_Source_Path>
/home/csk/Desktop/cluster/DUD-E-result/pnph

> <s_m_Source_File>
dock_pv.maegz

> <i_m_Source_File_Index>
11

> <chembl_id>
CHEMBL550755

> <chembl_pref_name>
FORODESINE HYDROCHLORIDE

> <i_lp_mmshare_version>
53161

> <r_lp_tautomer_probability>
1

> <s_lp_Force_Field>
OPLS_2005

> <r_lp_Energy>
48.842742

> <b_lp_Chiralities_Consistent>
1

> <s_lp_Variant>
CHEMBL4338_lig1-1

> <s_i_glide_gridfile>
glide-grid_3bgs

> <i_i_glide_lignum>
1

> <i_i_glide_rotatable_bonds>
5

> <r_i_docking_score>
-9.4303648829146

> <r_i_glide_ligand_efficiency>
-0.49633499383761

> <r_i_glide_ligand_efficiency_sa>
-1.32442111457478

> <r_i_glide_ligand_efficiency_ln>
-2.39080004348488

> <r_i_glide_gscore>
-9.4303648829146

> <r_i_glide_lipo>
-2.60480240987369

> <r_i_glide_hbond>
-1.08244639888917

> <r_i_glide_metal>
0

> <r_i_glide_rewards>
-2.25536691065114

> <r_i_glide_evdw>
-27.2156429290771

> <r_i_glide_ecoul>
-16.9773845672607

> <r_i_glide_erotb>
0.502481002716467

> <r_i_glide_esite>
-0.0828403346740909

> <r_i_glide_emodel>
-66.397575939682

> <r_i_glide_energy>
-44.1930274963379

> <r_i_glide_einternal>
3.29847526550293

> <i_i_glide_confnum>
23

> <i_i_glide_posenum>
261

> <r_i_glide_eff_state_penalty>
0

> <s_user_duplicate_titles>
CHEMBL4338_lig1,CHEMBL4338_lig65,685497,360237

> <i_f3d_flags>
0

> <s_m_subgroup_title>
dock_pv

> <s_m_subgroupid>
dock_pv

> <b_m_subgroup_collapsed>
1

$$$$
CHEMBL4338_lig118
                    3D
 Schrodinger Suite 2021-1.
 35 37  0  0  1  0            999 V2000
   10.1540   14.2330   59.3060 O   0  0  0  0  0  0
   11.3540   14.8355   59.7525 C   0  0  0  0  0  0
   12.3025   13.8429   60.4442 C   0  0  1  0  0  0
   12.5033   12.6330   59.6565 N   0  0  2  0  0  0
   13.6958   14.4504   60.6686 C   0  0  1  0  0  0
   13.7898   15.3248   61.7814 O   0  0  0  0  0  0
   14.6233   13.2319   60.6870 C   0  0  1  0  0  0
   14.7966   12.6647   61.9780 O   0  0  0  0  0  0
   13.9046   12.2464   59.7384 C   0  0  2  0  0  0
   14.4176   12.1453   58.3040 C   0  0  0  0  0  0
   15.2992   12.9671   57.6056 C   0  0  0  0  0  0
   15.5679   12.4463   56.3593 N   0  0  0  0  0  0
   14.7873   11.3379   56.1966 C   0  0  0  0  0  0
   14.6748   10.3639   55.1106 C   0  0  0  0  0  0
   15.3540   10.2334   54.1060 O   0  0  0  0  0  0
   13.6496    9.5005   55.3649 N   0  0  0  0  0  0
   11.7408    8.6330   56.5060 N   0  0  0  0  0  0
   12.8495    9.4686   56.4771 C   0  0  0  0  0  0
   13.0746   10.2330   57.4799 N   0  0  0  0  0  0
   14.0344   11.1846   57.3574 C   0  0  0  0  0  0
    9.4627   14.5604   59.9130 H   0  0  0  0  0  0
   11.8583   15.2875   58.9060 H   0  0  0  0  0  0
   11.1152   15.6569   60.4295 H   0  0  0  0  0  0
   11.8728   13.5354   61.3997 H   0  0  0  0  0  0
   12.3050   12.8581   58.6891 H   0  0  0  0  0  0
   13.9759   15.0329   59.7881 H   0  0  0  0  0  0
   13.5469   14.8362   62.5742 H   0  0  0  0  0  0
   15.6094   13.4977   60.3044 H   0  0  0  0  0  0
   13.9344   12.4623   62.3525 H   0  0  0  0  0  0
   13.9718   11.2303   60.1344 H   0  0  0  0  0  0
   15.7542   13.8839   57.9250 H   0  0  0  0  0  0
   16.1997   12.8293   55.6697 H   0  0  0  0  0  0
   13.4841    8.8117   54.6457 H   0  0  0  0  0  0
   11.2709    8.5031   57.3870 H   0  0  0  0  0  0
   11.7540    7.7587   55.9650 H   0  0  0  0  0  0
  1  2  1  0  0  0
  1 21  1  0  0  0
  2  3  1  0  0  0
  2 22  1  0  0  0
  2 23  1  0  0  0
  3  4  1  0  0  0
  3  5  1  0  0  0
  3 24  1  0  0  0
  4  9  1  0  0  0
  4 25  1  0  0  0
  5  6  1  0  0  0
  5  7  1  0  0  0
  5 26  1  0  0  0
  6 27  1  0  0  0
  7  8  1  0  0  0
  7  9  1  0  0  0
  7 28  1  0  0  0
  8 29  1  0  0  0
  9 10  1  0  0  0
  9 30  1  0  0  0
 10 11  2  0  0  0
 10 20  1  0  0  0
 11 12  1  0  0  0
 11 31  1  0  0  0
 12 13  1  0  0  0
 12 32  1  0  0  0
 13 14  1  0  0  0
 13 20  2  0  0  0
 14 15  2  0  0  0
 14 16  1  0  0  0
 16 18  1  0  0  0
 16 33  1  0  0  0
 17 18  1  0  0  0
 17 34  1  0  0  0
 17 35  1  0  0  0
 18 19  2  0  0  0
 19 20  1  0  0  0
M  END
> <s_m_entry_id>
11809

> <s_m_entry_name>
dock_pv.12

> <s_m_Source_Path>
/home/csk/Desktop/cluster/DUD-E-result/pnph

> <s_m_Source_File>
dock_pv.maegz

> <i_m_Source_File_Index>
12

> <chembl_id>
CHEMBL473922

> <chembl_pref_name>
None

> <i_lp_mmshare_version>
53161

> <r_lp_tautomer_probability>
1

> <s_lp_Force_Field>
OPLS_2005

> <r_lp_Energy>
48.634763

> <b_lp_Chiralities_Consistent>
1

> <s_lp_Variant>
CHEMBL4338_lig118-1

> <s_i_glide_gridfile>
glide-grid_3bgs

> <i_i_glide_lignum>
144

> <i_i_glide_rotatable_bonds>
5

> <r_i_docking_score>
-9.40995395968986

> <r_i_glide_ligand_efficiency>
-0.470497697984493

> <r_i_glide_ligand_efficiency_sa>
-1.27712723870115

> <r_i_glide_ligand_efficiency_ln>
-2.35500111505724

> <r_i_glide_gscore>
-9.40995395968986

> <r_i_glide_lipo>
-2.49319704142369

> <r_i_glide_hbond>
-1.20857552759119

> <r_i_glide_metal>
0

> <r_i_glide_rewards>
-1.73915769791516

> <r_i_glide_evdw>
-24.3857593536377

> <r_i_glide_ecoul>
-20.7110767364502

> <r_i_glide_erotb>
0.456925785389594

> <r_i_glide_esite>
-0.1

> <r_i_glide_emodel>
-64.0611110705347

> <r_i_glide_energy>
-45.0968360900879

> <r_i_glide_einternal>
4.98921394348145

> <i_i_glide_confnum>
23

> <i_i_glide_posenum>
2

> <r_i_glide_eff_state_penalty>
0

> <s_user_duplicate_titles>
CHEMBL4338_lig118,454608

> <i_f3d_flags>
0

> <s_m_subgroup_title>
dock_pv

> <s_m_subgroupid>
dock_pv

> <b_m_subgroup_collapsed>
1

$$$$
CHEMBL4338_lig95
                    3D
 Schrodinger Suite 2021-1.
 39 40  0  0  1  0            999 V2000
   14.8197   10.9721   55.5738 C   0  0  0  0  0  0
   13.6914   10.5054   56.2941 C   0  0  0  0  0  0
   15.3540   10.3174   54.5430 N   0  0  0  0  0  0
   15.2663   12.1268   56.1172 N   0  0  0  0  0  0
   13.6659    8.6330   54.8573 N   0  0  0  0  0  0
   13.0903    9.3136   55.8669 C   0  0  0  0  0  0
   14.4059   12.2604   57.1489 N   0  0  3  0  0  0
   13.4238   11.3511   57.3186 N   0  0  0  0  0  0
   14.7599    9.1391   54.2625 C   0  0  0  0  0  0
   12.0244   15.1867   60.1323 P   0  0  0  0  0  0
   11.9703    8.8749   56.5060 O   0  0  0  0  0  0
   13.2479   15.9127   59.7060 O   0  0  0  0  0  0
   14.5532   13.3469   58.0651 C   0  0  0  0  0  0
   15.3540    8.3319   53.3123 N   0  0  0  0  0  0
   11.1611   14.5814   58.9060 O   0  0  0  0  0  0
   10.9540   16.1307   60.8999 O   0  0  0  0  0  0
   12.1412   13.7016   61.1996 C   0  0  0  0  0  0
   15.7539   13.2960   58.7751 O   0  0  0  0  0  0
   15.9786   12.2116   59.6786 C   0  0  0  0  0  0
   13.3541   13.7118   62.1567 C   0  0  0  0  0  0
   14.9403   12.1676   60.8116 C   0  0  0  0  0  0
   14.7359   13.5319   61.5069 C   0  0  0  0  0  0
   11.7538    8.0106   56.1213 H   0  0  0  0  0  0
   13.6912   13.3871   58.7259 H   0  0  0  0  0  0
   14.5558   14.2330   57.4483 H   0  0  0  0  0  0
   14.8819    7.4542   53.1211 H   0  0  0  0  0  0
   16.1217    8.6908   52.7574 H   0  0  0  0  0  0
   11.6159   14.6330   58.0303 H   0  0  0  0  0  0
    9.9989   15.8264   60.9060 H   0  0  0  0  0  0
   11.2090   13.6430   61.7535 H   0  0  0  0  0  0
   12.1462   12.8148   60.5711 H   0  0  0  0  0  0
   16.9743   12.3426   60.1041 H   0  0  0  0  0  0
   16.0046   11.2624   59.1406 H   0  0  0  0  0  0
   13.3543   14.6521   62.7099 H   0  0  0  0  0  0
   13.2244   12.9285   62.9050 H   0  0  0  0  0  0
   15.2433   11.4331   61.5553 H   0  0  0  0  0  0
   14.0126   11.7781   60.3990 H   0  0  0  0  0  0
   14.9053   14.3553   60.8153 H   0  0  0  0  0  0
   15.5071   13.6521   62.2690 H   0  0  0  0  0  0
  1  2  1  0  0  0
  1  3  1  0  0  0
  1  4  2  0  0  0
  2  6  1  0  0  0
  2  8  2  0  0  0
  3  9  2  0  0  0
  4  7  1  0  0  0
  5  9  1  0  0  0
  5  6  2  0  0  0
  6 11  1  0  0  0
  7 13  1  0  0  0
  7  8  1  0  0  0
  9 14  1  0  0  0
 10 17  1  0  0  0
 10 12  2  0  0  0
 10 15  1  0  0  0
 10 16  1  0  0  0
 11 23  1  0  0  0
 13 18  1  0  0  0
 13 24  1  0  0  0
 13 25  1  0  0  0
 14 26  1  0  0  0
 14 27  1  0  0  0
 15 28  1  0  0  0
 16 29  1  0  0  0
 17 20  1  0  0  0
 17 30  1  0  0  0
 17 31  1  0  0  0
 18 19  1  0  0  0
 19 21  1  0  0  0
 19 32  1  0  0  0
 19 33  1  0  0  0
 20 22  1  0  0  0
 20 34  1  0  0  0
 20 35  1  0  0  0
 21 22  1  0  0  0
 21 36  1  0  0  0
 21 37  1  0  0  0
 22 38  1  0  0  0
 22 39  1  0  0  0
M  END
> <s_m_entry_id>
11811

> <s_m_entry_name>
dock_pv.14

> <s_m_Source_Path>
/home/csk/Desktop/cluster/DUD-E-result/pnph

> <s_m_Source_File>
dock_pv.maegz

> <i_m_Source_File_Index>
14

> <chembl_id>
CHEMBL172306

> <chembl_pref_name>
None

> <i_lp_mmshare_version>
53161

> <r_lp_tautomer_probability>
1

> <s_lp_Force_Field>
OPLS_2005

> <r_lp_Energy>
-1.938738

> <b_lp_Chiralities_Consistent>
1

> <s_lp_Variant>
CHEMBL4338_lig95-1

> <s_i_glide_gridfile>
glide-grid_3bgs

> <i_i_glide_lignum>
115

> <i_i_glide_rotatable_bonds>
11

> <r_i_docking_score>
-9.31780428278413

> <r_i_glide_ligand_efficiency>
-0.423536558308369

> <r_i_glide_ligand_efficiency_sa>
-1.18676609312769

> <r_i_glide_ligand_efficiency_ln>
-2.27761124188168

> <r_i_glide_gscore>
-9.31780428278413

> <r_i_glide_lipo>
-0.95225555723429

> <r_i_glide_hbond>
-1.21176196819716

> <r_i_glide_metal>
0

> <r_i_glide_rewards>
-3.00832644730733

> <r_i_glide_evdw>
-29.1874046325684

> <r_i_glide_ecoul>
-32.9936981201172

> <r_i_glide_erotb>
1.36473799579443

> <r_i_glide_esite>
-0.0508280742113645

> <r_i_glide_emodel>
-92.6232831181618

> <r_i_glide_energy>
-62.1811027526855

> <r_i_glide_einternal>
6.8068528175354

> <i_i_glide_confnum>
60

> <i_i_glide_posenum>
305

> <r_i_glide_eff_state_penalty>
0

> <s_user_duplicate_titles>
CHEMBL4338_lig95,291560

> <i_f3d_flags>
0

> <s_m_subgroup_title>
dock_pv

> <s_m_subgroupid>
dock_pv

> <b_m_subgroup_collapsed>
1

$$$$
CHEMBL4338_lig108
                    3D
 Schrodinger Suite 2021-1.
 45 46  0  0  1  0            999 V2000
   14.0110   11.2012   56.8490 C   0  0  0  0  0  0
   14.8099   11.1072   55.7441 C   0  0  0  0  0  0
   13.0184   10.3558   57.2392 N   0  0  0  0  0  0
   13.5983    9.2064   55.2739 N   0  0  0  0  0  0
   15.6581   12.1485   55.6656 N   0  0  0  0  0  0
   14.6668    9.9577   54.8704 C   0  0  0  0  0  0
   12.7975    9.4330   56.3715 C   0  0  0  0  0  0
   14.3871   12.3503   57.4675 N   0  0  0  0  0  0
   15.3539   12.8907   56.7023 C   0  0  0  0  0  0
   12.5540   15.6600   61.3370 P   0  0  0  0  0  0
   15.3540    9.6264   53.9132 O   0  0  0  0  0  0
   12.9809   15.9619   59.9451 O   0  0  0  0  0  0
   11.7540    8.6330   56.5060 N   0  0  0  0  0  0
   12.3843   14.0938   61.7060 O   0  0  0  0  0  0
   11.0961   16.2329   61.7060 O   0  0  0  0  0  0
   13.8683   12.8772   58.7337 C   0  0  0  0  0  0
   13.5509   16.2949   62.7613 C   0  0  0  0  0  0
   14.6445   15.3310   63.2716 C   0  0  0  0  0  0
   14.6905   12.3500   59.9266 C   0  0  0  0  0  0
   15.6674   14.8779   62.2130 C   0  0  0  0  0  0
   16.9046   12.8094   61.2567 C   0  0  0  0  0  0
   16.1567   12.8371   59.9078 C   0  0  0  0  0  0
   16.1752   13.4402   62.4583 C   0  0  0  0  0  0
   15.8063   13.8308   56.9748 H   0  0  0  0  0  0
   13.3981    8.3969   54.7012 H   0  0  0  0  0  0
   11.0540    8.8207   57.2044 H   0  0  0  0  0  0
   11.7426    7.7173   56.0266 H   0  0  0  0  0  0
   12.1531   13.9443   62.6535 H   0  0  0  0  0  0
   10.3178   15.7941   61.2896 H   0  0  0  0  0  0
   12.8177   12.5891   58.7910 H   0  0  0  0  0  0
   13.9135   13.9628   58.6470 H   0  0  0  0  0  0
   13.9576   17.2682   62.5060 H   0  0  0  0  0  0
   12.8731   16.4859   63.5897 H   0  0  0  0  0  0
   15.1751   15.7913   64.1063 H   0  0  0  0  0  0
   14.1537   14.4588   63.7042 H   0  0  0  0  0  0
   14.6555   11.2596   59.9656 H   0  0  0  0  0  0
   14.1909   12.6848   60.8311 H   0  0  0  0  0  0
   15.2122   14.9348   61.2278 H   0  0  0  0  0  0
   16.5062   15.5739   62.1771 H   0  0  0  0  0  0
   17.8383   13.3472   61.1206 H   0  0  0  0  0  0
   17.1761   11.7818   61.4988 H   0  0  0  0  0  0
   16.1927   13.8560   59.5194 H   0  0  0  0  0  0
   16.7156   12.2330   59.1910 H   0  0  0  0  0  0
   16.8382   13.4331   63.3242 H   0  0  0  0  0  0
   15.3444   12.7891   62.7333 H   0  0  0  0  0  0
  1  8  1  0  0  0
  1  3  1  0  0  0
  1  2  2  0  0  0
  2  6  1  0  0  0
  2  5  1  0  0  0
  3  7  2  0  0  0
  4  7  1  0  0  0
  4 25  1  0  0  0
  4  6  1  0  0  0
  5  9  2  0  0  0
  6 11  2  0  0  0
  7 13  1  0  0  0
  8  9  1  0  0  0
  8 16  1  0  0  0
  9 24  1  0  0  0
 10 17  1  0  0  0
 10 12  2  0  0  0
 10 14  1  0  0  0
 10 15  1  0  0  0
 13 26  1  0  0  0
 13 27  1  0  0  0
 14 28  1  0  0  0
 15 29  1  0  0  0
 16 19  1  0  0  0
 16 30  1  0  0  0
 16 31  1  0  0  0
 17 18  1  0  0  0
 17 32  1  0  0  0
 17 33  1  0  0  0
 18 20  1  0  0  0
 18 34  1  0  0  0
 18 35  1  0  0  0
 19 22  1  0  0  0
 19 36  1  0  0  0
 19 37  1  0  0  0
 20 23  1  0  0  0
 20 38  1  0  0  0
 20 39  1  0  0  0
 21 22  1  0  0  0
 21 23  1  0  0  0
 21 40  1  0  0  0
 21 41  1  0  0  0
 22 42  1  0  0  0
 22 43  1  0  0  0
 23 44  1  0  0  0
 23 45  1  0  0  0
M  END
> <s_m_entry_id>
11812

> <s_m_entry_name>
dock_pv.15

> <s_m_Source_Path>
/home/csk/Desktop/cluster/DUD-E-result/pnph

> <s_m_Source_File>
dock_pv.maegz

> <i_m_Source_File_Index>
15

> <chembl_id>
CHEMBL354409

> <chembl_pref_name>
None

> <i_lp_mmshare_version>
53161

> <r_lp_tautomer_probability>
0.999940409345307

> <s_lp_Force_Field>
OPLS_2005

> <r_lp_Energy>
1.201149

> <b_lp_Chiralities_Consistent>
1

> <s_lp_Variant>
CHEMBL4338_lig108-1

> <s_i_glide_gridfile>
glide-grid_3bgs

> <i_i_glide_lignum>
128

> <i_i_glide_rotatable_bonds>
11

> <r_i_docking_score>
-9.31460682889815

> <r_i_glide_ligand_efficiency>
-0.404982905604267

> <r_i_glide_ligand_efficiency_sa>
-1.15171751144858

> <r_i_glide_ligand_efficiency_ln>
-2.25235639141267

> <r_i_glide_gscore>
-9.31460682889815

> <r_i_glide_lipo>
-1.88253376556755

> <r_i_glide_hbond>
-0.678707075331142

> <r_i_glide_metal>
0

> <r_i_glide_rewards>
-2.6551007249378

> <r_i_glide_evdw>
-32.4137878417969

> <r_i_glide_ecoul>
-25.4076671600342

> <r_i_glide_erotb>
1.4487559015424

> <r_i_glide_esite>
-0.115181698509081

> <r_i_glide_emodel>
-84.7674039740609

> <r_i_glide_energy>
-57.8214550018311

> <r_i_glide_einternal>
6.21911191940308

> <i_i_glide_confnum>
228

> <i_i_glide_posenum>
343

> <r_i_glide_eff_state_penalty>
0

> <s_user_duplicate_titles>
CHEMBL4338_lig108,291419

> <i_f3d_flags>
0

> <s_m_subgroup_title>
dock_pv

> <s_m_subgroupid>
dock_pv

> <b_m_subgroup_collapsed>
1

$$$$
CHEMBL4338_lig26
                    3D
 Schrodinger Suite 2021-1.
 39 41  0  0  1  0            999 V2000
   14.6034   10.8600   57.6729 C   0  0  0  0  0  0
   15.4489   11.8301   58.1924 C   0  0  0  0  0  0
   15.9595   11.3582   59.4081 N   0  0  0  0  0  0
   14.5540    9.8330   58.5709 N   0  3  0  0  0  0
   11.3540   14.3300   60.0839 P   0  0  0  0  0  0
   13.1755   14.4363   59.9864 C   0  0  0  0  0  0
   15.7540   12.9737   57.5076 N   0  0  0  0  0  0
   15.3540   10.1409   59.6436 C   0  0  0  0  0  0
   14.0906   11.0155   56.3165 C   0  0  0  0  0  0
   14.5540   12.1214   55.7060 N   0  5  0  0  0  0
   16.9193   11.9684   60.3198 C   0  0  0  0  0  0
   15.2988   12.9998   56.2962 C   0  0  0  0  0  0
   13.8761   13.7402   61.1615 C   0  0  0  0  0  0
   16.1733   12.6250   61.5065 C   0  0  2  0  0  0
   15.4069   13.8589   61.0640 C   0  0  2  0  0  0
   10.5540   14.0048   58.8721 O   0  0  0  0  0  0
   17.2713   14.5307   62.3112 O   0  0  0  0  0  0
   13.3540   10.1762   55.8103 O   0  0  0  0  0  0
   13.4482   13.8330   58.8422 F   0  0  0  0  0  0
   13.4562   15.7364   59.8738 F   0  0  0  0  0  0
   11.1007   13.3035   61.3060 O   0  0  0  0  0  0
   10.9540   15.7409   60.7631 O   0  0  0  0  0  0
   17.0888   13.1598   62.6027 C   0  0  0  0  0  0
   16.0064   14.9992   61.8721 C   0  0  0  0  0  0
   15.5080    9.5115   60.5058 H   0  0  0  0  0  0
   17.5294   12.6821   59.7672 H   0  0  0  0  0  0
   17.5928   11.1846   60.6722 H   0  0  0  0  0  0
   15.5724   13.8768   55.7187 H   0  0  0  0  0  0
   13.5154   14.1227   62.1175 H   0  0  0  0  0  0
   13.5872   12.6879   61.1346 H   0  0  0  0  0  0
   15.5170   11.8830   61.9654 H   0  0  0  0  0  0
   15.6672   14.0724   60.0243 H   0  0  0  0  0  0
   14.0240    8.9821   58.4475 H   0  0  0  0  0  0
   11.3748   13.6302   62.1898 H   0  0  0  0  0  0
    9.9616   15.7814   60.9060 H   0  0  0  0  0  0
   16.6629   13.0692   63.6019 H   0  0  0  0  0  0
   18.0313   12.6330   62.6595 H   0  0  0  0  0  0
   16.1540   15.8330   61.2144 H   0  0  0  0  0  0
   15.4097   15.3249   62.7262 H   0  0  0  0  0  0
  1  4  1  0  0  0
  1  9  1  0  0  0
  1  2  2  0  0  0
  2  7  1  0  0  0
  2  3  1  0  0  0
  3 11  1  0  0  0
  3  8  1  0  0  0
  4  8  2  0  0  0
  4 33  1  0  0  0
  5  6  1  0  0  0
  5 16  2  0  0  0
  5 21  1  0  0  0
  5 22  1  0  0  0
  6 13  1  0  0  0
  6 19  1  0  0  0
  6 20  1  0  0  0
  7 12  2  0  0  0
  8 25  1  0  0  0
  9 18  2  0  0  0
  9 10  1  0  0  0
 10 12  1  0  0  0
 11 14  1  0  0  0
 11 26  1  0  0  0
 11 27  1  0  0  0
 12 28  1  0  0  0
 13 15  1  0  0  0
 13 29  1  0  0  0
 13 30  1  0  0  0
 14 15  1  0  0  0
 14 23  1  0  0  0
 14 31  1  0  0  0
 15 24  1  0  0  0
 15 32  1  0  0  0
 17 23  1  0  0  0
 17 24  1  0  0  0
 21 34  1  0  0  0
 22 35  1  0  0  0
 23 36  1  0  0  0
 23 37  1  0  0  0
 24 38  1  0  0  0
 24 39  1  0  0  0
M  CHG  2   4   1  10  -1
M  END
> <s_m_entry_id>
11813

> <s_m_entry_name>
dock_pv.16

> <s_m_Source_Path>
/home/csk/Desktop/cluster/DUD-E-result/pnph

> <s_m_Source_File>
dock_pv.maegz

> <i_m_Source_File_Index>
16

> <chembl_id>
CHEMBL94920

> <chembl_pref_name>
None

> <i_lp_mmshare_version>
53161

> <r_lp_tautomer_probability>
0.144281265051876

> <s_lp_Force_Field>
OPLS_2005

> <r_lp_Energy>
28.553908

> <b_lp_Chiralities_Consistent>
1

> <s_lp_Variant>
CHEMBL4338_lig26-2

> <s_i_glide_gridfile>
glide-grid_3bgs

> <i_i_glide_lignum>
31

> <i_i_glide_rotatable_bonds>
7

> <r_i_docking_score>
-9.30307918000172

> <r_i_glide_ligand_efficiency>
-0.387628299166738

> <r_i_glide_ligand_efficiency_sa>
-1.11811349463997

> <r_i_glide_ligand_efficiency_ln>
-2.22665373826143

> <r_i_glide_gscore>
-9.30307918000172

> <r_i_glide_lipo>
-1.72255548937673

> <r_i_glide_hbond>
-0.575084764923579

> <r_i_glide_metal>
0

> <r_i_glide_rewards>
-2.74729323610158

> <r_i_glide_evdw>
-22.5238914489746

> <r_i_glide_ecoul>
-25.7092685699463

> <r_i_glide_erotb>
0.724439168340842

> <r_i_glide_esite>
0

> <r_i_glide_emodel>
-70.6233088410961

> <r_i_glide_energy>
-48.2331600189209

> <r_i_glide_einternal>
6.04655647277832

> <i_i_glide_confnum>
54

> <i_i_glide_posenum>
372

> <r_i_glide_eff_state_penalty>
0

> <s_user_duplicate_titles>
CHEMBL4338_lig26,CHEMBL4338_lig26,157206

> <i_f3d_flags>
0

> <s_m_subgroup_title>
dock_pv

> <s_m_subgroupid>
dock_pv

> <b_m_subgroup_collapsed>
1

$$$$
CHEMBL4338_lig23
                    3D
 Schrodinger Suite 2021-1.
 36 37  0  0  1  0            999 V2000
   13.9820   11.2013   56.9300 C   0  0  0  0  0  0
   14.7728   11.1695   55.8167 C   0  0  0  0  0  0
   13.0054   10.3268   57.2916 N   0  0  0  0  0  0
   13.5989    9.2588   55.2852 N   0  0  0  0  0  0
   15.5966   12.2330   55.7700 N   0  0  0  0  0  0
   14.6517   10.0471   54.9060 C   0  0  0  0  0  0
   12.9701   15.6281   61.0945 P   0  0  0  0  0  0
   12.7967    9.4330   56.3928 C   0  0  0  0  0  0
   14.3485   12.3206   57.6032 N   0  0  0  0  0  0
   14.5836   14.8135   61.5927 C   0  0  0  0  0  0
   15.3065   12.9074   56.8604 C   0  0  0  0  0  0
   11.9212   14.4111   60.8808 O   0  0  0  0  0  0
   12.4824   16.2330   62.5060 O   0  0  0  0  0  0
   12.9540   16.6330   59.9977 O   0  0  0  0  0  0
   15.3540    9.7605   53.9463 O   0  0  0  0  0  0
   11.7540    8.6330   56.5060 N   0  0  0  0  0  0
   15.3577   14.8292   60.5089 F   0  0  0  0  0  0
   15.1240   15.6636   62.4686 F   0  0  0  0  0  0
   13.8203   12.7663   58.8965 C   0  0  0  0  0  0
   14.4585   13.4189   62.2543 C   0  0  0  0  0  0
   14.5037   11.9888   60.0456 C   0  0  0  0  0  0
   13.8921   12.2305   61.4390 C   0  0  0  0  0  0
   15.7540   13.8330   57.1834 H   0  0  0  0  0  0
   11.7540   13.8597   61.6684 H   0  0  0  0  0  0
   12.2332   15.5659   63.1844 H   0  0  0  0  0  0
   13.4157    8.4630   54.6886 H   0  0  0  0  0  0
   11.0538    8.8033   57.2084 H   0  0  0  0  0  0
   11.7510    7.7211   56.0187 H   0  0  0  0  0  0
   12.7442   12.5891   58.8609 H   0  0  0  0  0  0
   13.9671   13.8430   58.9247 H   0  0  0  0  0  0
   15.4566   13.1337   62.5908 H   0  0  0  0  0  0
   13.8739   13.5139   63.1705 H   0  0  0  0  0  0
   15.5749   12.1961   60.0645 H   0  0  0  0  0  0
   14.4189   10.9206   59.8331 H   0  0  0  0  0  0
   14.0739   11.3369   62.0370 H   0  0  0  0  0  0
   12.8073   12.2670   61.3693 H   0  0  0  0  0  0
  1  9  1  0  0  0
  1  3  1  0  0  0
  1  2  2  0  0  0
  2  6  1  0  0  0
  2  5  1  0  0  0
  3  8  2  0  0  0
  4  8  1  0  0  0
  4 26  1  0  0  0
  4  6  1  0  0  0
  5 11  2  0  0  0
  6 15  2  0  0  0
  7 10  1  0  0  0
  7 12  1  0  0  0
  7 13  1  0  0  0
  7 14  2  0  0  0
  8 16  1  0  0  0
  9 11  1  0  0  0
  9 19  1  0  0  0
 10 20  1  0  0  0
 10 17  1  0  0  0
 10 18  1  0  0  0
 11 23  1  0  0  0
 12 24  1  0  0  0
 13 25  1  0  0  0
 16 27  1  0  0  0
 16 28  1  0  0  0
 19 21  1  0  0  0
 19 29  1  0  0  0
 19 30  1  0  0  0
 20 22  1  0  0  0
 20 31  1  0  0  0
 20 32  1  0  0  0
 21 22  1  0  0  0
 21 33  1  0  0  0
 21 34  1  0  0  0
 22 35  1  0  0  0
 22 36  1  0  0  0
M  END
> <s_m_entry_id>
11814

> <s_m_entry_name>
dock_pv.17

> <s_m_Source_Path>
/home/csk/Desktop/cluster/DUD-E-result/pnph

> <s_m_Source_File>
dock_pv.maegz

> <i_m_Source_File_Index>
17

> <chembl_id>
CHEMBL236708

> <chembl_pref_name>
None

> <i_lp_mmshare_version>
53161

> <r_lp_tautomer_probability>
0.999940409345307

> <s_lp_Force_Field>
OPLS_2005

> <r_lp_Energy>
1.779894

> <b_lp_Chiralities_Consistent>
1

> <s_lp_Variant>
CHEMBL4338_lig23-1

> <s_i_glide_gridfile>
glide-grid_3bgs

> <i_i_glide_lignum>
25

> <i_i_glide_rotatable_bonds>
8

> <r_i_docking_score>
-9.23312578139381

> <r_i_glide_ligand_efficiency>
-0.419687535517901

> <r_i_glide_ligand_efficiency_sa>
-1.17598097989532

> <r_i_glide_ligand_efficiency_ln>
-2.25691272741851

> <r_i_glide_gscore>
-9.23312578139381

> <r_i_glide_lipo>
-1.48836353410387

> <r_i_glide_hbond>
-0.762928575551482

> <r_i_glide_metal>
0

> <r_i_glide_rewards>
-2.90986482272727

> <r_i_glide_evdw>
-35.1313285827637

> <r_i_glide_ecoul>
-21.4109439849854

> <r_i_glide_erotb>
0.997021187944635

> <r_i_glide_esite>
-0.100782010069841

> <r_i_glide_emodel>
-85.0636977387546

> <r_i_glide_energy>
-56.542272567749

> <r_i_glide_einternal>
3.28398942947388

> <i_i_glide_confnum>
8

> <i_i_glide_posenum>
20

> <r_i_glide_eff_state_penalty>
0

> <s_user_duplicate_titles>
CHEMBL4338_lig23,398258

> <i_f3d_flags>
0

> <s_m_subgroup_title>
dock_pv

> <s_m_subgroupid>
dock_pv

> <b_m_subgroup_collapsed>
1

$$$$
CHEMBL4338_lig111
                    3D
 Schrodinger Suite 2021-1.
 42 43  0  0  1  0            999 V2000
   14.0834   11.1271   56.7341 C   0  0  0  0  0  0
   14.8743   10.9871   55.6318 C   0  0  0  0  0  0
   13.0542   10.3406   57.1348 N   0  0  0  0  0  0
   13.5816    9.1323   55.1906 N   0  0  0  0  0  0
   15.7540   11.9994   55.5444 N   0  0  0  0  0  0
   14.6805    9.8330   54.7689 C   0  0  0  0  0  0
   12.8023    9.4069   56.2971 C   0  0  0  0  0  0
   14.4984   12.2621   57.3440 N   0  0  0  0  0  0
   15.4879   12.7581   56.5803 C   0  0  0  0  0  0
   12.0987   15.1374   60.6428 P   0  0  0  0  0  0
   15.3540    9.4578   53.8153 O   0  0  0  0  0  0
   11.5365   13.7689   60.5045 O   0  0  0  0  0  0
   11.7540    8.6330   56.5060 N   0  0  0  0  0  0
   10.9540   16.2330   60.9118 O   0  0  0  0  0  0
   12.7987   15.7266   59.3060 O   0  0  0  0  0  0
   13.9008   12.8553   58.5378 C   0  0  0  0  0  0
   13.3258   15.5594   61.9649 C   0  0  0  0  0  0
   14.4960   14.5591   62.0959 C   0  0  0  0  0  0
   14.1543   12.0100   59.8087 C   0  0  0  0  0  0
   15.5676   12.0712   60.4197 C   0  0  0  0  0  0
   16.2721   13.4459   60.4554 C   0  0  0  0  0  0
   15.5170   14.7016   60.9493 C   0  0  0  0  0  0
   15.9704   13.6893   56.8309 H   0  0  0  0  0  0
   13.3541    8.3142   54.6405 H   0  0  0  0  0  0
   11.0909    8.8504   57.2310 H   0  0  0  0  0  0
   11.7074    7.7091   56.0463 H   0  0  0  0  0  0
   10.0234   15.8556   60.9060 H   0  0  0  0  0  0
   12.5540   15.2901   58.4561 H   0  0  0  0  0  0
   12.8361   12.9325   58.3136 H   0  0  0  0  0  0
   14.2966   13.8629   58.5950 H   0  0  0  0  0  0
   13.6954   16.5684   61.7978 H   0  0  0  0  0  0
   12.7943   15.6158   62.9060 H   0  0  0  0  0  0
   15.0119   14.7311   63.0417 H   0  0  0  0  0  0
   14.0985   13.5508   62.1851 H   0  0  0  0  0  0
   13.8977   10.9662   59.6227 H   0  0  0  0  0  0
   13.4452   12.3023   60.5739 H   0  0  0  0  0  0
   16.2091   11.3784   59.8723 H   0  0  0  0  0  0
   15.5220   11.6713   61.4332 H   0  0  0  0  0  0
   16.5541   13.6655   59.4289 H   0  0  0  0  0  0
   17.2041   13.3413   61.0131 H   0  0  0  0  0  0
   15.0461   15.1806   60.0965 H   0  0  0  0  0  0
   16.2646   15.4330   61.2543 H   0  0  0  0  0  0
  1  8  1  0  0  0
  1  3  1  0  0  0
  1  2  2  0  0  0
  2  6  1  0  0  0
  2  5  1  0  0  0
  3  7  2  0  0  0
  4  7  1  0  0  0
  4 24  1  0  0  0
  4  6  1  0  0  0
  5  9  2  0  0  0
  6 11  2  0  0  0
  7 13  1  0  0  0
  8  9  1  0  0  0
  8 16  1  0  0  0
  9 23  1  0  0  0
 10 17  1  0  0  0
 10 12  2  0  0  0
 10 14  1  0  0  0
 10 15  1  0  0  0
 13 25  1  0  0  0
 13 26  1  0  0  0
 14 27  1  0  0  0
 15 28  1  0  0  0
 16 19  1  0  0  0
 16 29  1  0  0  0
 16 30  1  0  0  0
 17 18  1  0  0  0
 17 31  1  0  0  0
 17 32  1  0  0  0
 18 22  1  0  0  0
 18 33  1  0  0  0
 18 34  1  0  0  0
 19 20  1  0  0  0
 19 35  1  0  0  0
 19 36  1  0  0  0
 20 21  1  0  0  0
 20 37  1  0  0  0
 20 38  1  0  0  0
 21 22  1  0  0  0
 21 39  1  0  0  0
 21 40  1  0  0  0
 22 41  1  0  0  0
 22 42  1  0  0  0
M  END
> <s_m_entry_id>
11815

> <s_m_entry_name>
dock_pv.18

> <s_m_Source_Path>
/home/csk/Desktop/cluster/DUD-E-result/pnph

> <s_m_Source_File>
dock_pv.maegz

> <i_m_Source_File_Index>
18

> <chembl_id>
CHEMBL172844

> <chembl_pref_name>
None

> <i_lp_mmshare_version>
53161

> <r_lp_tautomer_probability>
0.999940409345307

> <s_lp_Force_Field>
OPLS_2005

> <r_lp_Energy>
-3.104997

> <b_lp_Chiralities_Consistent>
1

> <s_lp_Variant>
CHEMBL4338_lig111-1

> <s_i_glide_gridfile>
glide-grid_3bgs

> <i_i_glide_lignum>
131

> <i_i_glide_rotatable_bonds>
10

> <r_i_docking_score>
-9.22146601119181

> <r_i_glide_ligand_efficiency>
-0.419157545963264

> <r_i_glide_ligand_efficiency_sa>
-1.17449592831992

> <r_i_glide_ligand_efficiency_ln>
-2.25406265428068

> <r_i_glide_gscore>
-9.22146601119181

> <r_i_glide_lipo>
-1.76247516288431

> <r_i_glide_hbond>
-0.443196028697047

> <r_i_glide_metal>
0

> <r_i_glide_rewards>
-2.76035694518638

> <r_i_glide_evdw>
-30.280029296875

> <r_i_glide_ecoul>
-27.4726943969727

> <r_i_glide_erotb>
1.38650664823469

> <r_i_glide_esite>
-0.127943057815024

> <r_i_glide_emodel>
-85.9291113226798

> <r_i_glide_energy>
-57.7527236938477

> <r_i_glide_einternal>
5.97167825698853

> <i_i_glide_confnum>
150

> <i_i_glide_posenum>
184

> <r_i_glide_eff_state_penalty>
0

> <s_user_duplicate_titles>
CHEMBL4338_lig111,291103

> <i_f3d_flags>
0

> <s_m_subgroup_title>
dock_pv

> <s_m_subgroupid>
dock_pv

> <b_m_subgroup_collapsed>
1

$$$$
CHEMBL4338_lig92
                    3D
 Schrodinger Suite 2021-1.
 37 38  0  0  1  0            999 V2000
   13.9525   11.2358   56.8490 C   0  0  0  0  0  0
   14.8068   11.1167   55.7906 C   0  0  0  0  0  0
   12.9552   10.3872   57.2096 N   0  0  0  0  0  0
   14.2575   12.4131   57.4584 N   0  0  0  0  0  0
   13.6204    9.2012   55.2989 N   0  0  0  0  0  0
   15.6724   12.1424   55.7512 N   0  0  0  0  0  0
   14.6782    9.9725   54.9057 C   0  0  0  0  0  0
   12.7886    9.4337   56.3693 C   0  0  0  0  0  0
   12.9540   16.0185   61.2954 P   0  0  0  0  0  0
   15.4959   14.5603   61.7817 P   0  0  2  0  0  0
   14.2904   15.5965   62.1145 O   0  0  0  0  0  0
   15.3102   12.8939   56.7662 C   0  0  0  0  0  0
   11.8461   14.9126   61.7060 O   0  0  0  0  0  0
   16.6304   15.0216   62.8432 O   0  0  0  0  0  0
   15.3553    9.6655   53.9350 O   0  0  0  0  0  0
   13.1251   16.2345   59.8347 O   0  0  0  0  0  0
   15.9631   14.5439   60.3703 O   0  0  0  0  0  0
   13.4720   13.0507   58.5897 C   0  0  0  0  0  0
   11.7540    8.6360   56.5067 N   0  0  0  0  0  0
   15.0230   13.1301   62.4111 O   0  0  0  0  0  0
   12.4873   17.3437   62.1049 O   0  0  0  0  0  0
   14.0034   12.3204   61.8435 C   0  0  0  0  0  0
   13.2260   12.1034   59.5826 O   0  0  0  0  0  0
   14.3160   11.7794   60.4363 C   0  0  0  0  0  0
   15.7548   13.8320   57.0499 H   0  0  0  0  0  0
   11.7553   14.7199   62.6701 H   0  0  0  0  0  0
   16.3316   15.0297   63.7709 H   0  0  0  0  0  0
   13.4350    8.3919   54.7216 H   0  0  0  0  0  0
   12.5468   13.3598   58.1050 H   0  0  0  0  0  0
   14.0609   13.9137   58.8946 H   0  0  0  0  0  0
   11.0400    8.8369   57.1853 H   0  0  0  0  0  0
   11.7444    7.7150   56.0342 H   0  0  0  0  0  0
   13.1929   18.0037   62.2785 H   0  0  0  0  0  0
   13.8467   11.4712   62.5054 H   0  0  0  0  0  0
   13.0603   12.8608   61.8582 H   0  0  0  0  0  0
   15.2821   12.1166   60.0586 H   0  0  0  0  0  0
   14.3891   10.6916   60.4720 H   0  0  0  0  0  0
  1  4  1  0  0  0
  1  3  1  0  0  0
  1  2  2  0  0  0
  2  7  1  0  0  0
  2  6  1  0  0  0
  3  8  2  0  0  0
  4 12  1  0  0  0
  4 18  1  0  0  0
  5  8  1  0  0  0
  5 28  1  0  0  0
  5  7  1  0  0  0
  6 12  2  0  0  0
  7 15  2  0  0  0
  8 19  1  0  0  0
  9 11  1  0  0  0
  9 13  1  0  0  0
  9 16  2  0  0  0
  9 21  1  0  0  0
 10 20  1  0  0  0
 10 11  1  0  0  0
 10 14  1  0  0  0
 10 17  2  0  0  0
 12 25  1  0  0  0
 13 26  1  0  0  0
 14 27  1  0  0  0
 18 23  1  0  0  0
 18 29  1  0  0  0
 18 30  1  0  0  0
 19 31  1  0  0  0
 19 32  1  0  0  0
 20 22  1  0  0  0
 21 33  1  0  0  0
 22 24  1  0  0  0
 22 34  1  0  0  0
 22 35  1  0  0  0
 23 24  1  0  0  0
 24 36  1  0  0  0
 24 37  1  0  0  0
M  END
> <s_m_entry_id>
11816

> <s_m_entry_name>
dock_pv.19

> <s_m_Source_Path>
/home/csk/Desktop/cluster/DUD-E-result/pnph

> <s_m_Source_File>
dock_pv.maegz

> <i_m_Source_File_Index>
19

> <chembl_id>
CHEMBL7193

> <chembl_pref_name>
ACYCLOVIR DIPHOSPHATE

> <i_lp_mmshare_version>
53161

> <r_lp_tautomer_probability>
0.999940409345307

> <s_lp_Force_Field>
OPLS_2005

> <r_lp_Energy>
-10.28453

> <b_lp_Chiralities_Consistent>
1

> <s_lp_Variant>
CHEMBL4338_lig92-2

> <s_i_glide_gridfile>
glide-grid_3bgs

> <i_i_glide_lignum>
112

> <i_i_glide_rotatable_bonds>
11

> <r_i_docking_score>
-9.03694440002067

> <r_i_glide_ligand_efficiency>
-0.376539350000861

> <r_i_glide_ligand_efficiency_sa>
-1.08612743033456

> <r_i_glide_ligand_efficiency_ln>
-2.16295547328266

> <r_i_glide_gscore>
-9.03694440002067

> <r_i_glide_lipo>
-1.03872836060475

> <r_i_glide_hbond>
-0.740013244291884

> <r_i_glide_metal>
0

> <r_i_glide_rewards>
-2.58296972727273

> <r_i_glide_evdw>
-39.2783126831055

> <r_i_glide_ecoul>
-24.3340377807617

> <r_i_glide_erotb>
1.04886821590182

> <r_i_glide_esite>
-0.110079982483595

> <r_i_glide_emodel>
-91.1128578267993

> <r_i_glide_energy>
-63.6123504638672

> <r_i_glide_einternal>
11.0913543701172

> <i_i_glide_confnum>
60

> <i_i_glide_posenum>
222

> <r_i_glide_eff_state_penalty>
0

> <s_user_duplicate_titles>
CHEMBL4338_lig92,1491

> <i_f3d_flags>
0

> <s_m_subgroup_title>
dock_pv

> <s_m_subgroupid>
dock_pv

> <b_m_subgroup_collapsed>
1

$$$$
CHEMBL4338_lig35
                    3D
 Schrodinger Suite 2021-1.
 29 31  0  0  1  0            999 V2000
   14.8283   10.9116   55.5572 C   0  0  0  0  0  0
   13.7308   10.5924   56.3068 C   0  0  0  0  0  0
   15.3540   10.2259   54.5069 N   0  0  0  0  0  0
   13.5889    8.7397   54.9755 N   0  0  0  0  0  0
   12.9559    9.4206   55.9833 C   0  0  0  0  0  0
   13.5469   11.4573   57.3101 N   0  0  0  0  0  0
   15.3463   12.0184   56.1390 N   0  0  0  0  0  0
   14.7362    9.1116   54.2932 C   0  0  0  0  0  0
   14.5562   12.2824   57.1943 C   0  0  0  0  0  0
   14.4490   13.1718   59.5389 C   0  0  0  0  0  0
   14.7831   13.4331   58.0890 C   0  0  0  0  0  0
   15.2726   12.6760   60.5574 C   0  0  0  0  0  0
   12.8470   13.5314   60.1292 S   0  0  0  0  0  0
   13.2737   13.0045   61.7062 C   0  0  0  0  0  0
   11.9139    9.0330   56.5060 O   0  0  0  0  0  0
   14.5816   12.5749   61.7694 C   0  0  0  0  0  0
   15.2085    8.2335   53.4114 N   0  0  0  0  0  0
   16.6989   12.2118   60.3628 C   0  0  0  0  0  0
   16.1764   12.5193   55.8636 H   0  0  0  0  0  0
   14.1599   14.2331   57.7094 H   0  0  0  0  0  0
   15.8071   13.7852   57.9928 H   0  0  0  0  0  0
   12.5532   13.0317   62.5060 H   0  0  0  0  0  0
   13.1589    7.8525   54.7363 H   0  0  0  0  0  0
   15.0264   12.1997   62.6781 H   0  0  0  0  0  0
   16.0239    8.4657   52.8601 H   0  0  0  0  0  0
   14.7508    7.3286   53.3060 H   0  0  0  0  0  0
   16.8438   11.7598   59.3807 H   0  0  0  0  0  0
   17.4040   13.0383   60.4447 H   0  0  0  0  0  0
   16.9861   11.4464   61.0850 H   0  0  0  0  0  0
  1  7  1  0  0  0
  1  3  1  0  0  0
  1  2  2  0  0  0
  2  5  1  0  0  0
  2  6  1  0  0  0
  3  8  2  0  0  0
  4  8  1  0  0  0
  4 23  1  0  0  0
  4  5  1  0  0  0
  5 15  2  0  0  0
  6  9  2  0  0  0
  7  9  1  0  0  0
  7 19  1  0  0  0
  8 17  1  0  0  0
  9 11  1  0  0  0
 10 11  1  0  0  0
 10 12  2  0  0  0
 10 13  1  0  0  0
 11 20  1  0  0  0
 11 21  1  0  0  0
 12 16  1  0  0  0
 12 18  1  0  0  0
 13 14  1  0  0  0
 14 16  2  0  0  0
 14 22  1  0  0  0
 16 24  1  0  0  0
 17 25  1  0  0  0
 17 26  1  0  0  0
 18 27  1  0  0  0
 18 28  1  0  0  0
 18 29  1  0  0  0
M  END
> <s_m_entry_id>
11817

> <s_m_entry_name>
dock_pv.20

> <s_m_Source_Path>
/home/csk/Desktop/cluster/DUD-E-result/pnph

> <s_m_Source_File>
dock_pv.maegz

> <i_m_Source_File_Index>
20

> <chembl_id>
CHEMBL159556

> <chembl_pref_name>
None

> <i_lp_mmshare_version>
53161

> <r_lp_tautomer_probability>
0.882445856688025

> <s_lp_Force_Field>
OPLS_2005

> <r_lp_Energy>
3.773576

> <b_lp_Chiralities_Consistent>
1

> <s_lp_Variant>
CHEMBL4338_lig35-1

> <s_i_glide_gridfile>
glide-grid_3bgs

> <i_i_glide_lignum>
42

> <i_i_glide_rotatable_bonds>
2

> <r_i_docking_score>
-9.00505278860828

> <r_i_glide_ligand_efficiency>
-0.500280710478238

> <r_i_glide_ligand_efficiency_sa>
-1.31110636541136

> <r_i_glide_ligand_efficiency_ln>
-2.31470238553193

> <r_i_glide_gscore>
-9.00505278860828

> <r_i_glide_lipo>
-1.93281247357787

> <r_i_glide_hbond>
-0.876711455040948

> <r_i_glide_metal>
0

> <r_i_glide_rewards>
-3.27568981433597

> <r_i_glide_evdw>
-36.7361679077148

> <r_i_glide_ecoul>
-9.48886299133301

> <r_i_glide_erotb>
0.519012029979729

> <r_i_glide_esite>
-0.17871323154753

> <r_i_glide_emodel>
-70.4719391726789

> <r_i_glide_energy>
-46.2250308990479

> <r_i_glide_einternal>
0.912788391113281

> <i_i_glide_confnum>
2

> <i_i_glide_posenum>
62

> <r_i_glide_eff_state_penalty>
0

> <s_user_duplicate_titles>
CHEMBL4338_lig35,CHEMBL4338_lig35,267466

> <i_f3d_flags>
0

> <s_m_subgroup_title>
dock_pv

> <s_m_subgroupid>
dock_pv

> <b_m_subgroup_collapsed>
1

$$$$
CHEMBL4338_lig92
                    3D
 Schrodinger Suite 2021-1.
 37 38  0  0  1  0            999 V2000
   14.0752   11.1729   56.5552 C   0  0  0  0  0  0
   14.8599   10.9422   55.4627 C   0  0  0  0  0  0
   13.0556   10.4025   57.0188 N   0  0  0  0  0  0
   14.4959   12.3599   57.0780 N   0  0  0  0  0  0
   13.5807    9.0536   55.1668 N   0  0  0  0  0  0
   15.7540   11.9269   55.3060 N   0  0  0  0  0  0
   14.6621    9.7374   54.6769 C   0  0  0  0  0  0
   12.8026    9.4028   56.2535 C   0  0  0  0  0  0
   16.5869   14.6251   61.7988 P   0  0  0  0  0  0
   13.7360   15.1628   61.4942 P   0  0  1  0  0  0
   15.1642   15.2585   62.2525 O   0  0  0  0  0  0
   15.5117   12.7536   56.2900 C   0  0  0  0  0  0
   16.3027   13.0330   61.7472 O   0  0  0  0  0  0
   12.7089   15.8889   62.5060 O   0  0  0  0  0  0
   15.3216    9.3195   53.7303 O   0  0  0  0  0  0
   17.7540   15.0330   62.6258 O   0  0  0  0  0  0
   13.7025   15.6998   60.1060 O   0  0  0  0  0  0
   13.9051   13.0612   58.2715 C   0  0  0  0  0  0
   11.7540    8.6330   56.5060 N   0  0  0  0  0  0
   13.3375   13.6009   61.6844 O   0  0  0  0  0  0
   16.7057   15.0330   60.2390 O   0  0  0  0  0  0
   12.3559   13.0013   60.8682 C   0  0  0  0  0  0
   14.1747   12.2819   59.3912 O   0  0  0  0  0  0
   13.0278   11.8447   60.1094 C   0  0  0  0  0  0
   16.0358   13.6756   56.4877 H   0  0  0  0  0  0
   16.9766   12.4747   62.1778 H   0  0  0  0  0  0
   12.3408   15.2771   63.1889 H   0  0  0  0  0  0
   13.3591    8.1910   54.6824 H   0  0  0  0  0  0
   12.8560   13.1773   57.9913 H   0  0  0  0  0  0
   14.4327   14.0136   58.2989 H   0  0  0  0  0  0
   11.0858    8.8831   57.2152 H   0  0  0  0  0  0
   11.6940    7.7020   56.0635 H   0  0  0  0  0  0
   16.9344   15.9834   60.1060 H   0  0  0  0  0  0
   11.5607   12.6330   61.5148 H   0  0  0  0  0  0
   11.8926   13.7076   60.1768 H   0  0  0  0  0  0
   13.3540   11.0788   60.8144 H   0  0  0  0  0  0
   12.3189   11.3658   59.4332 H   0  0  0  0  0  0
  1  4  1  0  0  0
  1  3  1  0  0  0
  1  2  2  0  0  0
  2  7  1  0  0  0
  2  6  1  0  0  0
  3  8  2  0  0  0
  4 12  1  0  0  0
  4 18  1  0  0  0
  5  8  1  0  0  0
  5 28  1  0  0  0
  5  7  1  0  0  0
  6 12  2  0  0  0
  7 15  2  0  0  0
  8 19  1  0  0  0
  9 11  1  0  0  0
  9 13  1  0  0  0
  9 16  2  0  0  0
  9 21  1  0  0  0
 10 20  1  0  0  0
 10 11  1  0  0  0
 10 14  1  0  0  0
 10 17  2  0  0  0
 12 25  1  0  0  0
 13 26  1  0  0  0
 14 27  1  0  0  0
 18 23  1  0  0  0
 18 29  1  0  0  0
 18 30  1  0  0  0
 19 31  1  0  0  0
 19 32  1  0  0  0
 20 22  1  0  0  0
 21 33  1  0  0  0
 22 24  1  0  0  0
 22 34  1  0  0  0
 22 35  1  0  0  0
 23 24  1  0  0  0
 24 36  1  0  0  0
 24 37  1  0  0  0
M  END
> <s_m_entry_id>
11818

> <s_m_entry_name>
dock_pv.21

> <s_m_Source_Path>
/home/csk/Desktop/cluster/DUD-E-result/pnph

> <s_m_Source_File>
dock_pv.maegz

> <i_m_Source_File_Index>
21

> <chembl_id>
CHEMBL7193

> <chembl_pref_name>
ACYCLOVIR DIPHOSPHATE

> <i_lp_mmshare_version>
53161

> <r_lp_tautomer_probability>
0.999940409345307

> <s_lp_Force_Field>
OPLS_2005

> <r_lp_Energy>
-0.276594

> <b_lp_Chiralities_Consistent>
1

> <s_lp_Variant>
CHEMBL4338_lig92-1

> <s_i_glide_gridfile>
glide-grid_3bgs

> <i_i_glide_lignum>
111

> <i_i_glide_rotatable_bonds>
11

> <r_i_docking_score>
-8.95621709636634

> <r_i_glide_ligand_efficiency>
-0.373175712348598

> <r_i_glide_ligand_efficiency_sa>
-1.07642502042754

> <r_i_glide_ligand_efficiency_ln>
-2.14363372518359

> <r_i_glide_gscore>
-8.95621709636634

> <r_i_glide_lipo>
-0.824565484608977

> <r_i_glide_hbond>
-0.759361902003097

> <r_i_glide_metal>
0

> <r_i_glide_rewards>
-2.58296972727273

> <r_i_glide_evdw>
-34.7872772216797

> <r_i_glide_ecoul>
-26.3720073699951

> <r_i_glide_erotb>
1.04886821590182

> <r_i_glide_esite>
-0.143023231800107

> <r_i_glide_emodel>
-89.0926852511888

> <r_i_glide_energy>
-61.1592845916748

> <r_i_glide_einternal>
7.59596824645996

> <i_i_glide_confnum>
260

> <i_i_glide_posenum>
364

> <r_i_glide_eff_state_penalty>
0

> <s_user_duplicate_titles>
CHEMBL4338_lig92

> <i_f3d_flags>
0

> <s_m_subgroup_title>
dock_pv

> <s_m_subgroupid>
dock_pv

> <b_m_subgroup_collapsed>
1

$$$$
CHEMBL4338_lig112
                    3D
 Schrodinger Suite 2021-1.
 34 36  0  0  1  0            999 V2000
   13.4177   14.0995   61.2885 C   0  0  1  0  0  0
   14.4323   13.8448   60.1894 C   0  0  2  0  0  0
   13.9352   12.5172   59.5934 C   0  0  1  0  0  0
   12.5151   12.5512   59.7530 O   0  0  0  0  0  0
   12.1118   13.6128   60.6253 C   0  0  2  0  0  0
   11.4201   14.6822   59.7543 C   0  0  0  0  0  0
   10.1617   14.2332   59.2949 O   0  0  0  0  0  0
   13.7546   13.4332   62.4992 O   0  0  0  0  0  0
   15.7819   13.8630   60.6248 O   0  0  0  0  0  0
   14.3577   12.2898   58.1492 C   0  0  0  0  0  0
   13.8673   11.2783   57.2739 C   0  0  0  0  0  0
   14.4443   11.5685   55.9041 C   0  0  1  0  0  0
   13.5587    9.3453   55.3102 N   0  0  0  0  0  0
   15.6024   12.3584   56.2184 N   0  0  0  0  0  0
   14.6345   10.2239   55.1391 C   0  0  0  0  0  0
   15.2618   12.9600   57.4042 C   0  0  0  0  0  0
   12.8685    9.4486   56.3867 C   0  0  0  0  0  0
   13.0735   10.2953   57.4745 N   0  0  0  0  0  0
   11.7829    8.6341   56.5062 N   0  0  0  0  0  0
   15.6648   10.0405   54.5048 O   0  0  0  0  0  0
   13.3621   15.1690   61.4991 H   0  0  0  0  0  0
   14.3198   14.6329   59.4440 H   0  0  0  0  0  0
   14.2923   11.6814   60.1992 H   0  0  0  0  0  0
   11.4318   13.2574   61.4018 H   0  0  0  0  0  0
   12.0413   14.9643   58.9056 H   0  0  0  0  0  0
   11.2572   15.5902   60.3367 H   0  0  0  0  0  0
    9.5014   14.5991   59.9145 H   0  0  0  0  0  0
   13.0338   13.5345   63.1350 H   0  0  0  0  0  0
   15.8518   13.2459   61.3601 H   0  0  0  0  0  0
   13.7541   12.1492   55.3057 H   0  0  0  0  0  0
   15.9196   12.9379   55.4527 H   0  0  0  0  0  0
   15.8081   13.8361   57.6965 H   0  0  0  0  0  0
   11.7540    7.7751   55.9390 H   0  0  0  0  0  0
   11.2446    8.6632   57.3503 H   0  0  0  0  0  0
  1  5  1  0  0  0
  1  2  1  0  0  0
  1  8  1  0  0  0
  1 21  1  0  0  0
  2  3  1  0  0  0
  2  9  1  0  0  0
  2 22  1  0  0  0
  3  4  1  0  0  0
  3 10  1  0  0  0
  3 23  1  0  0  0
  4  5  1  0  0  0
  5  6  1  0  0  0
  5 24  1  0  0  0
  6  7  1  0  0  0
  6 25  1  0  0  0
  6 26  1  0  0  0
  7 27  1  0  0  0
  8 28  1  0  0  0
  9 29  1  0  0  0
 10 11  1  0  0  0
 10 16  2  0  0  0
 11 12  1  0  0  0
 11 18  2  0  0  0
 12 15  1  0  0  0
 12 14  1  0  0  0
 12 30  1  0  0  0
 13 17  2  0  0  0
 13 15  1  0  0  0
 14 16  1  0  0  0
 14 31  1  0  0  0
 15 20  2  0  0  0
 16 32  1  0  0  0
 17 18  1  0  0  0
 17 19  1  0  0  0
 19 33  1  0  0  0
 19 34  1  0  0  0
M  END
> <s_m_entry_id>
11819

> <s_m_entry_name>
dock_pv.22

> <s_m_Source_Path>
/home/csk/Desktop/cluster/DUD-E-result/pnph

> <s_m_Source_File>
dock_pv.maegz

> <i_m_Source_File_Index>
22

> <chembl_id>
CHEMBL3143997

> <chembl_pref_name>
None

> <i_lp_mmshare_version>
53161

> <r_lp_tautomer_probability>
1

> <s_lp_Force_Field>
OPLS_2005

> <r_lp_Energy>
60.156379

> <b_lp_Chiralities_Consistent>
1

> <s_lp_Variant>
CHEMBL4338_lig112-1

> <s_i_glide_gridfile>
glide-grid_3bgs

> <i_i_glide_lignum>
132

> <i_i_glide_rotatable_bonds>
5

> <r_i_docking_score>
-8.93438858022056

> <r_i_glide_ligand_efficiency>
-0.446719429011028

> <r_i_glide_ligand_efficiency_sa>
-1.21258308657189

> <r_i_glide_ligand_efficiency_ln>
-2.23598278577206

> <r_i_glide_gscore>
-8.93438858022056

> <r_i_glide_lipo>
-1.96820366866477

> <r_i_glide_hbond>
-0.48

> <r_i_glide_metal>
0

> <r_i_glide_rewards>
-2.53048707359654

> <r_i_glide_evdw>
-25.1235980987549

> <r_i_glide_ecoul>
-20.3578433990479

> <r_i_glide_erotb>
0.454158576835664

> <r_i_glide_esite>
-0.1

> <r_i_glide_emodel>
-66.918296756524

> <r_i_glide_energy>
-45.4814414978027

> <r_i_glide_einternal>
1.15830898284912

> <i_i_glide_confnum>
26

> <i_i_glide_posenum>
377

> <r_i_glide_eff_state_penalty>
0

> <s_user_duplicate_titles>
CHEMBL4338_lig112

> <i_f3d_flags>
0

> <s_m_subgroup_title>
dock_pv

> <s_m_subgroupid>
dock_pv

> <b_m_subgroup_collapsed>
1

$$$$
CHEMBL4338_lig25
                    3D
 Schrodinger Suite 2021-1.
 39 41  0  0  1  0            999 V2000
   14.7641   10.7279   55.4032 C   0  0  0  0  0  0
   13.9474   10.8845   56.5112 C   0  0  0  0  0  0
   14.3728   12.0299   57.1343 N   0  0  0  0  0  0
   15.6331   11.7134   55.3063 N   0  0  0  0  0  0
   12.4974   16.1076   60.9505 P   0  0  0  0  0  0
   13.9393   14.9560   61.0508 C   0  0  0  0  0  0
   12.9541   10.0360   56.8961 N   0  0  0  0  0  0
   15.3850   12.4950   56.3306 C   0  0  0  0  0  0
   14.6247    9.5195   54.5901 C   0  0  0  0  0  0
   13.5441    8.7928   55.0097 N   0  0  0  0  0  0
   13.9537   12.5584   58.4147 C   0  0  0  0  0  0
   12.7425    9.0336   56.1065 C   0  0  0  0  0  0
   13.4704   13.5086   61.2693 C   0  0  0  0  0  0
   15.0599   12.3806   59.5117 C   0  0  1  0  0  0
   14.5244   12.4414   60.9455 C   0  0  2  0  0  0
   12.5821   17.4331   60.2905 O   0  0  0  0  0  0
   14.9546   10.2323   60.4309 O   0  0  0  0  0  0
   15.3510    9.1069   53.6964 O   0  0  0  0  0  0
   14.5878   15.1356   59.9161 F   0  0  0  0  0  0
   14.7109   15.4011   62.0451 F   0  0  0  0  0  0
   11.2953   15.1754   60.3910 O   0  0  0  0  0  0
   12.1570   16.2324   62.5060 O   0  0  0  0  0  0
   15.7573   11.0116   59.5564 C   0  0  0  0  0  0
   13.9701   11.0338   61.0818 C   0  0  0  0  0  0
   15.9171   13.3952   56.5980 H   0  0  0  0  0  0
   13.0227   12.0567   58.6783 H   0  0  0  0  0  0
   13.6932   13.6067   58.2688 H   0  0  0  0  0  0
   11.9451    8.3220   56.3058 H   0  0  0  0  0  0
   13.1386   13.3904   62.3022 H   0  0  0  0  0  0
   12.5977   13.2920   60.6579 H   0  0  0  0  0  0
   15.8249   13.1389   59.3420 H   0  0  0  0  0  0
   15.3441   12.5676   61.6593 H   0  0  0  0  0  0
   13.3845    7.9310   54.4973 H   0  0  0  0  0  0
   10.3742   15.4367   60.6358 H   0  0  0  0  0  0
   12.1543   15.3937   63.0202 H   0  0  0  0  0  0
   15.8608   10.5441   58.5802 H   0  0  0  0  0  0
   16.7589   11.1353   59.9733 H   0  0  0  0  0  0
   13.7538   10.7441   62.1049 H   0  0  0  0  0  0
   13.0016   10.9660   60.5790 H   0  0  0  0  0  0
  1  4  1  0  0  0
  1  9  1  0  0  0
  1  2  2  0  0  0
  2  7  1  0  0  0
  2  3  1  0  0  0
  3 11  1  0  0  0
  3  8  1  0  0  0
  4  8  2  0  0  0
  5  6  1  0  0  0
  5 16  2  0  0  0
  5 21  1  0  0  0
  5 22  1  0  0  0
  6 13  1  0  0  0
  6 19  1  0  0  0
  6 20  1  0  0  0
  7 12  2  0  0  0
  8 25  1  0  0  0
  9 18  2  0  0  0
  9 10  1  0  0  0
 10 33  1  0  0  0
 10 12  1  0  0  0
 11 14  1  0  0  0
 11 26  1  0  0  0
 11 27  1  0  0  0
 12 28  1  0  0  0
 13 15  1  0  0  0
 13 29  1  0  0  0
 13 30  1  0  0  0
 14 15  1  0  0  0
 14 23  1  0  0  0
 14 31  1  0  0  0
 15 24  1  0  0  0
 15 32  1  0  0  0
 17 23  1  0  0  0
 17 24  1  0  0  0
 21 34  1  0  0  0
 22 35  1  0  0  0
 23 36  1  0  0  0
 23 37  1  0  0  0
 24 38  1  0  0  0
 24 39  1  0  0  0
M  END
> <s_m_entry_id>
11820

> <s_m_entry_name>
dock_pv.23

> <s_m_Source_Path>
/home/csk/Desktop/cluster/DUD-E-result/pnph

> <s_m_Source_File>
dock_pv.maegz

> <i_m_Source_File_Index>
23

> <chembl_id>
CHEMBL94840

> <chembl_pref_name>
None

> <i_lp_mmshare_version>
53161

> <r_lp_tautomer_probability>
0.855710295894835

> <s_lp_Force_Field>
OPLS_2005

> <r_lp_Energy>
31.955195

> <b_lp_Chiralities_Consistent>
1

> <s_lp_Variant>
CHEMBL4338_lig25-1

> <s_i_glide_gridfile>
glide-grid_3bgs

> <i_i_glide_lignum>
28

> <i_i_glide_rotatable_bonds>
7

> <r_i_docking_score>
-8.91792900739338

> <r_i_glide_ligand_efficiency>
-0.371580375308057

> <r_i_glide_ligand_efficiency_sa>
-1.07182327210998

> <r_i_glide_ligand_efficiency_ln>
-2.13446962856644

> <r_i_glide_gscore>
-8.91792900739338

> <r_i_glide_lipo>
-1.80342280196621

> <r_i_glide_hbond>
-0.718796596323601

> <r_i_glide_metal>
0

> <r_i_glide_rewards>
-2.55906871024663

> <r_i_glide_evdw>
-27.5480632781982

> <r_i_glide_ecoul>
-20.3710269927979

> <r_i_glide_erotb>
0.724439168340842

> <r_i_glide_esite>
-0.12802285436818

> <r_i_glide_emodel>
-66.2630126481298

> <r_i_glide_energy>
-47.9190902709961

> <r_i_glide_einternal>
6.31623888015747

> <i_i_glide_confnum>
147

> <i_i_glide_posenum>
16

> <r_i_glide_eff_state_penalty>
0

> <s_user_duplicate_titles>
CHEMBL4338_lig25,CHEMBL4338_lig25,157204

> <i_f3d_flags>
0

> <s_m_subgroup_title>
dock_pv

> <s_m_subgroupid>
dock_pv

> <b_m_subgroup_collapsed>
1

$$$$
CHEMBL4338_lig121
                    3D
 Schrodinger Suite 2021-1.
 49 50  0  0  1  0            999 V2000
   13.9971   11.2095   56.7854 C   0  0  0  0  0  0
   14.7761   11.1143   55.6681 C   0  0  0  0  0  0
   13.0236   10.3586   57.2042 N   0  0  0  0  0  0
   13.5820    9.1949   55.2393 N   0  0  0  0  0  0
   15.6023   12.1699   55.5595 N   0  0  0  0  0  0
   14.6484    9.9421   54.8212 C   0  0  0  0  0  0
   12.7929    9.4326   56.3449 C   0  0  0  0  0  0
   14.3945   12.3473   57.4071 N   0  0  0  0  0  0
   12.6071   15.8335   61.1240 P   0  0  0  0  0  0
   15.3356   12.8988   56.6168 C   0  0  0  0  0  0
   14.3714   15.3594   61.4667 C   0  0  0  0  0  0
   15.2548   15.5480   63.0687 P   0  0  2  0  0  0
   15.3541    9.5878   53.8845 O   0  0  0  0  0  0
   12.1541   17.1522   61.7059 O   0  0  0  0  0  0
   14.7513   14.7445   64.2104 O   0  0  0  0  0  0
   11.7541    8.6330   56.5060 N   0  0  0  0  0  0
   12.5642   15.8059   59.4120 O   0  0  0  0  0  0
   11.7457   14.4823   61.7059 O   0  0  0  0  0  0
   15.1567   17.1474   63.3276 O   0  0  0  0  0  0
   13.9937   12.7834   58.7496 C   0  0  0  0  0  0
   17.0634   15.3731   62.7263 C   0  0  0  0  0  0
   14.7603   11.9553   59.8054 C   0  0  0  0  0  0
   17.3548   14.3552   61.6043 C   0  0  0  0  0  0
   16.9817   12.9115   62.0091 C   0  0  0  0  0  0
   17.1151   11.8380   60.9077 C   0  0  0  0  0  0
   16.2905   12.0930   59.6465 C   0  0  0  0  0  0
   15.8216   13.8188   56.8984 H   0  0  0  0  0  0
   14.4553   14.3105   61.2161 H   0  0  0  0  0  0
   14.9812   15.8330   60.7023 H   0  0  0  0  0  0
   13.3837    8.3736   54.6833 H   0  0  0  0  0  0
   11.0659    8.8246   57.2144 H   0  0  0  0  0  0
   11.7360    7.7148   56.0315 H   0  0  0  0  0  0
   12.0755   15.1430   58.8840 H   0  0  0  0  0  0
   11.7539   14.2349   62.6670 H   0  0  0  0  0  0
   14.2647   17.5513   63.2875 H   0  0  0  0  0  0
   12.9126   12.6536   58.8126 H   0  0  0  0  0  0
   14.2238   13.8479   58.8079 H   0  0  0  0  0  0
   17.4648   16.3480   62.4649 H   0  0  0  0  0  0
   17.5672   15.0911   63.6506 H   0  0  0  0  0  0
   14.4832   10.9020   59.7284 H   0  0  0  0  0  0
   14.4361   12.2424   60.8030 H   0  0  0  0  0  0
   16.8261   14.6586   60.7049 H   0  0  0  0  0  0
   18.4000   14.4133   61.3059 H   0  0  0  0  0  0
   17.6204   12.6330   62.8456 H   0  0  0  0  0  0
   15.9666   12.8733   62.4034 H   0  0  0  0  0  0
   18.1539   11.7292   60.6198 H   0  0  0  0  0  0
   16.8425   10.8664   61.3060 H   0  0  0  0  0  0
   16.5342   13.0872   59.2859 H   0  0  0  0  0  0
   16.6257   11.4111   58.8627 H   0  0  0  0  0  0
  1  8  1  0  0  0
  1  3  1  0  0  0
  1  2  2  0  0  0
  2  6  1  0  0  0
  2  5  1  0  0  0
  3  7  2  0  0  0
  4  7  1  0  0  0
  4 30  1  0  0  0
  4  6  1  0  0  0
  5 10  2  0  0  0
  6 13  2  0  0  0
  7 16  1  0  0  0
  8 10  1  0  0  0
  8 20  1  0  0  0
  9 11  1  0  0  0
  9 14  2  0  0  0
  9 17  1  0  0  0
  9 18  1  0  0  0
 10 27  1  0  0  0
 11 12  1  0  0  0
 11 28  1  0  0  0
 11 29  1  0  0  0
 12 21  1  0  0  0
 12 15  2  0  0  0
 12 19  1  0  0  0
 16 31  1  0  0  0
 16 32  1  0  0  0
 17 33  1  0  0  0
 18 34  1  0  0  0
 19 35  1  0  0  0
 20 22  1  0  0  0
 20 36  1  0  0  0
 20 37  1  0  0  0
 21 23  1  0  0  0
 21 38  1  0  0  0
 21 39  1  0  0  0
 22 26  1  0  0  0
 22 40  1  0  0  0
 22 41  1  0  0  0
 23 24  1  0  0  0
 23 42  1  0  0  0
 23 43  1  0  0  0
 24 25  1  0  0  0
 24 44  1  0  0  0
 24 45  1  0  0  0
 25 26  1  0  0  0
 25 46  1  0  0  0
 25 47  1  0  0  0
 26 48  1  0  0  0
 26 49  1  0  0  0
M  END
> <s_m_entry_id>
11821

> <s_m_entry_name>
dock_pv.24

> <s_m_Source_Path>
/home/csk/Desktop/cluster/DUD-E-result/pnph

> <s_m_Source_File>
dock_pv.maegz

> <i_m_Source_File_Index>
24

> <chembl_id>
CHEMBL7247

> <chembl_pref_name>
None

> <i_lp_mmshare_version>
53161

> <r_lp_tautomer_probability>
0.999940409345307

> <s_lp_Force_Field>
OPLS_2005

> <r_lp_Energy>
0.548615

> <b_lp_Chiralities_Consistent>
1

> <s_lp_Variant>
CHEMBL4338_lig121-2

> <s_i_glide_gridfile>
glide-grid_3bgs

> <i_i_glide_lignum>
149

> <i_i_glide_rotatable_bonds>
13

> <r_i_docking_score>
-8.89330618587866

> <r_i_glide_ligand_efficiency>
-0.34205023791841

> <r_i_glide_ligand_efficiency_sa>
-1.01332248393059

> <r_i_glide_ligand_efficiency_ln>
-2.08856377643587

> <r_i_glide_gscore>
-8.89330618587866

> <r_i_glide_lipo>
-1.80982562102773

> <r_i_glide_hbond>
-0.596444559591456

> <r_i_glide_metal>
0

> <r_i_glide_rewards>
-2.28981588453453

> <r_i_glide_evdw>
-35.1207008361816

> <r_i_glide_ecoul>
-23.4139080047607

> <r_i_glide_erotb>
1.18573725472997

> <r_i_glide_esite>
-0.114836132931722

> <r_i_glide_emodel>
-84.2334880344423

> <r_i_glide_energy>
-58.5346088409424

> <r_i_glide_einternal>
8.92140293121338

> <i_i_glide_confnum>
317

> <i_i_glide_posenum>
134

> <r_i_glide_eff_state_penalty>
0

> <s_user_duplicate_titles>
CHEMBL4338_lig121,1579

> <i_f3d_flags>
0

> <s_m_subgroup_title>
dock_pv

> <s_m_subgroupid>
dock_pv

> <b_m_subgroup_collapsed>
1

$$$$
CHEMBL4338_lig22
                    3D
 Schrodinger Suite 2021-1.
 40 42  0  0  1  0            999 V2000
   13.9728   11.1328   57.2903 C   0  0  0  0  0  0
   14.7296   11.3137   56.1707 C   0  0  0  0  0  0
   12.9790   10.2327   57.4889 N   0  0  0  0  0  0
   14.4733   11.9978   58.2088 N   0  0  0  0  0  0
   13.5734    9.4917   55.3438 N   0  0  0  0  0  0
   17.0635   15.2395   62.8630 P   0  0  0  0  0  0
   15.5587   12.3662   56.3092 N   0  0  0  0  0  0
   14.6096   10.3552   55.0873 C   0  0  0  0  0  0
   12.7797    9.4692   56.4744 C   0  0  0  0  0  0
   16.1711   14.2253   61.5882 C   0  0  0  0  0  0
   15.3543   12.7693   57.5443 C   0  0  0  0  0  0
   14.1525   12.0420   59.6461 C   0  0  0  0  0  0
   14.7997   13.7169   62.0965 C   0  0  0  0  0  0
   13.3061   13.2410   60.0542 C   0  0  0  0  0  0
   13.6338   14.0407   61.1664 C   0  0  0  0  0  0
   15.9511   16.3379   63.3066 O   0  0  0  0  0  0
   17.1223   14.2441   64.1448 O   0  0  0  0  0  0
   18.3799   15.8330   62.5059 O   0  0  0  0  0  0
   15.3329   10.2327   54.1063 O   0  0  0  0  0  0
   16.0971   15.0206   60.5195 F   0  0  0  0  0  0
   17.0042   13.2249   61.3059 F   0  0  0  0  0  0
   11.7537    8.6333   56.5048 N   0  0  0  0  0  0
   12.8623   15.1724   61.4479 C   0  0  0  0  0  0
   12.1585   13.5326   59.3093 C   0  0  0  0  0  0
   11.3731   14.6328   59.6319 C   0  0  0  0  0  0
   11.7427   15.4687   60.6807 C   0  0  0  0  0  0
   15.8530   13.5857   58.0453 H   0  0  0  0  0  0
   15.1233   12.0039   60.1349 H   0  0  0  0  0  0
   13.6332   11.1150   59.8914 H   0  0  0  0  0  0
   14.8280   12.6400   62.2779 H   0  0  0  0  0  0
   14.5626   14.1135   63.0833 H   0  0  0  0  0  0
   15.1315   15.9954   63.7055 H   0  0  0  0  0  0
   16.2739   13.8731   64.4493 H   0  0  0  0  0  0
   13.4123    8.7842   54.6420 H   0  0  0  0  0  0
   11.0570    8.7278   57.2257 H   0  0  0  0  0  0
   11.7549    7.7474   55.9665 H   0  0  0  0  0  0
   13.1028   15.8059   62.2877 H   0  0  0  0  0  0
   11.8879   12.9166   58.4638 H   0  0  0  0  0  0
   10.4855   14.8508   59.0568 H   0  0  0  0  0  0
   11.1273   16.3212   60.9205 H   0  0  0  0  0  0
  1  4  1  0  0  0
  1  3  1  0  0  0
  1  2  2  0  0  0
  2  8  1  0  0  0
  2  7  1  0  0  0
  3  9  2  0  0  0
  4 11  1  0  0  0
  4 12  1  0  0  0
  5  9  1  0  0  0
  5 34  1  0  0  0
  5  8  1  0  0  0
  6 10  1  0  0  0
  6 16  1  0  0  0
  6 17  1  0  0  0
  6 18  2  0  0  0
  7 11  2  0  0  0
  8 19  2  0  0  0
  9 22  1  0  0  0
 10 13  1  0  0  0
 10 20  1  0  0  0
 10 21  1  0  0  0
 11 27  1  0  0  0
 12 14  1  0  0  0
 12 28  1  0  0  0
 12 29  1  0  0  0
 13 15  1  0  0  0
 13 30  1  0  0  0
 13 31  1  0  0  0
 14 15  1  0  0  0
 14 24  2  0  0  0
 15 23  2  0  0  0
 16 32  1  0  0  0
 17 33  1  0  0  0
 22 35  1  0  0  0
 22 36  1  0  0  0
 23 26  1  0  0  0
 23 37  1  0  0  0
 24 25  1  0  0  0
 24 38  1  0  0  0
 25 26  2  0  0  0
 25 39  1  0  0  0
 26 40  1  0  0  0
M  END
> <s_m_entry_id>
11823

> <s_m_entry_name>
dock_pv.26

> <s_m_Source_Path>
/home/csk/Desktop/cluster/DUD-E-result/pnph

> <s_m_Source_File>
dock_pv.maegz

> <i_m_Source_File_Index>
26

> <chembl_id>
CHEMBL1161034

> <chembl_pref_name>
None

> <i_lp_mmshare_version>
53161

> <r_lp_tautomer_probability>
0.999940409345307

> <s_lp_Force_Field>
OPLS_2005

> <r_lp_Energy>
8.811587

> <b_lp_Chiralities_Consistent>
1

> <s_lp_Variant>
CHEMBL4338_lig22-1

> <s_i_glide_gridfile>
glide-grid_3bgs

> <i_i_glide_lignum>
24

> <i_i_glide_rotatable_bonds>
7

> <r_i_docking_score>
-8.85000078335716

> <r_i_glide_ligand_efficiency>
-0.340384645513737

> <r_i_glide_ligand_efficiency_sa>
-1.00838817298554

> <r_i_glide_ligand_efficiency_ln>
-2.07839364475031

> <r_i_glide_gscore>
-8.85000078335716

> <r_i_glide_lipo>
-1.96042352841468

> <r_i_glide_hbond>
-0.726853186672495

> <r_i_glide_metal>
0

> <r_i_glide_rewards>
-2.58230027727273

> <r_i_glide_evdw>
-37.9836616516113

> <r_i_glide_ecoul>
-14.90989112854

> <r_i_glide_erotb>
0.655242960864315

> <r_i_glide_esite>
-0.1

> <r_i_glide_emodel>
-72.7194241205842

> <r_i_glide_energy>
-52.8935527801514

> <r_i_glide_einternal>
5.39860725402832

> <i_i_glide_confnum>
70

> <i_i_glide_posenum>
131

> <r_i_glide_eff_state_penalty>
0

> <s_user_duplicate_titles>
CHEMBL4338_lig22,642573

> <i_f3d_flags>
0

> <s_m_subgroup_title>
dock_pv

> <s_m_subgroupid>
dock_pv

> <b_m_subgroup_collapsed>
1

$$$$
CHEMBL4338_lig102
                    3D
 Schrodinger Suite 2021-1.
 38 39  0  0  1  0            999 V2000
   14.1794   11.1406   56.6736 C   0  0  0  0  0  0
   14.8569   11.0008   55.4951 C   0  0  0  0  0  0
   13.1835   10.3384   57.1510 N   0  0  0  0  0  0
   14.7219   12.2524   57.2582 N   0  0  0  0  0  0
   13.5593    9.1410   55.1607 N   0  0  0  0  0  0
   15.7179   12.0073   55.3061 N   0  0  0  0  0  0
   14.6288    9.8328   54.6693 C   0  0  0  0  0  0
   12.8458    9.4162   56.3076 C   0  0  0  0  0  0
   15.5899   12.7514   56.3643 C   0  0  0  0  0  0
   12.1534   14.7117   60.4222 P   0  0  0  0  0  0
   15.2723    9.4325   53.7061 O   0  0  0  0  0  0
   11.3755   13.5592   59.8907 O   0  0  0  0  0  0
   14.5506   12.7742   58.6539 C   0  0  0  0  0  0
   11.7863    8.6332   56.5059 N   0  0  0  0  0  0
   11.3539   15.6876   61.4242 O   0  0  0  0  0  0
   12.6749   15.7489   59.3060 O   0  0  0  0  0  0
   13.5205   14.3689   61.2291 O   0  0  0  0  0  0
   15.7539   12.4815   59.2917 O   0  0  0  0  0  0
   13.5433   13.4454   62.2976 C   0  0  0  0  0  0
   16.1684   13.3795   60.3102 C   0  0  0  0  0  0
   15.9714   12.7240   61.6841 C   0  0  0  0  0  0
   14.5243   12.3006   62.0130 C   0  0  0  0  0  0
   16.1542   13.6438   56.5801 H   0  0  0  0  0  0
   13.3080    8.3152   54.6333 H   0  0  0  0  0  0
   13.6876   12.2370   59.0492 H   0  0  0  0  0  0
   14.3555   13.8338   58.4830 H   0  0  0  0  0  0
   11.1304    8.8331   57.2423 H   0  0  0  0  0  0
   11.7427    7.7131   56.0374 H   0  0  0  0  0  0
   10.3760   15.5882   61.3418 H   0  0  0  0  0  0
   12.5544   15.4328   58.3790 H   0  0  0  0  0  0
   13.8418   13.9762   63.2019 H   0  0  0  0  0  0
   12.5543   13.0319   62.4973 H   0  0  0  0  0  0
   15.7101   14.3667   60.2413 H   0  0  0  0  0  0
   17.2341   13.5545   60.1574 H   0  0  0  0  0  0
   16.3515   13.3840   62.4641 H   0  0  0  0  0  0
   16.6060   11.8369   61.7059 H   0  0  0  0  0  0
   14.5542   11.6865   62.9059 H   0  0  0  0  0  0
   14.1289   11.6490   61.2344 H   0  0  0  0  0  0
  1  4  1  0  0  0
  1  3  1  0  0  0
  1  2  2  0  0  0
  2  7  1  0  0  0
  2  6  1  0  0  0
  3  8  2  0  0  0
  4  9  1  0  0  0
  4 13  1  0  0  0
  5  8  1  0  0  0
  5 24  1  0  0  0
  5  7  1  0  0  0
  6  9  2  0  0  0
  7 11  2  0  0  0
  8 14  1  0  0  0
  9 23  1  0  0  0
 10 17  1  0  0  0
 10 12  2  0  0  0
 10 15  1  0  0  0
 10 16  1  0  0  0
 13 18  1  0  0  0
 13 25  1  0  0  0
 13 26  1  0  0  0
 14 27  1  0  0  0
 14 28  1  0  0  0
 15 29  1  0  0  0
 16 30  1  0  0  0
 17 19  1  0  0  0
 18 20  1  0  0  0
 19 22  1  0  0  0
 19 31  1  0  0  0
 19 32  1  0  0  0
 20 21  1  0  0  0
 20 33  1  0  0  0
 20 34  1  0  0  0
 21 22  1  0  0  0
 21 35  1  0  0  0
 21 36  1  0  0  0
 22 37  1  0  0  0
 22 38  1  0  0  0
M  END
> <s_m_entry_id>
11824

> <s_m_entry_name>
dock_pv.27

> <s_m_Source_Path>
/home/csk/Desktop/cluster/DUD-E-result/pnph

> <s_m_Source_File>
dock_pv.maegz

> <i_m_Source_File_Index>
27

> <chembl_id>
CHEMBL172316

> <chembl_pref_name>
None

> <i_lp_mmshare_version>
53161

> <r_lp_tautomer_probability>
0.999940409345307

> <s_lp_Force_Field>
OPLS_2005

> <r_lp_Energy>
-4.96354

> <b_lp_Chiralities_Consistent>
1

> <s_lp_Variant>
CHEMBL4338_lig102-1

> <s_i_glide_gridfile>
glide-grid_3bgs

> <i_i_glide_lignum>
122

> <i_i_glide_rotatable_bonds>
10

> <r_i_docking_score>
-8.83438313964066

> <r_i_glide_ligand_efficiency>
-0.401562869983666

> <r_i_glide_ligand_efficiency_sa>
-1.12519495426575

> <r_i_glide_ligand_efficiency_ln>
-2.15944548128279

> <r_i_glide_gscore>
-8.83438313964066

> <r_i_glide_lipo>
-1.00359568679532

> <r_i_glide_hbond>
-0.70626838107794

> <r_i_glide_metal>
0

> <r_i_glide_rewards>
-2.93701568181818

> <r_i_glide_evdw>
-34.1341438293457

> <r_i_glide_ecoul>
-24.7331466674805

> <r_i_glide_erotb>
1.3576121044247

> <r_i_glide_esite>
-0.128436302784565

> <r_i_glide_emodel>
-78.4852443622078

> <r_i_glide_energy>
-58.8672904968262

> <r_i_glide_einternal>
11.6867904663086

> <i_i_glide_confnum>
156

> <i_i_glide_posenum>
288

> <r_i_glide_eff_state_penalty>
0

> <s_user_duplicate_titles>
CHEMBL4338_lig102,291430

> <i_f3d_flags>
0

> <s_m_subgroup_title>
dock_pv

> <s_m_subgroupid>
dock_pv

> <b_m_subgroup_collapsed>
1

$$$$
CHEMBL4338_lig94
                    3D
 Schrodinger Suite 2021-1.
 42 43  0  0  1  0            999 V2000
   14.4394   11.1703   56.3936 C   0  0  0  0  0  0
   13.3540   10.4113   56.8786 C   0  0  0  0  0  0
   15.1678   10.8614   55.3060 N   0  0  0  0  0  0
   14.5239   12.2343   57.2825 N   0  0  0  0  0  0
   12.9367   10.9299   58.0618 N   0  0  0  0  0  0
   13.5750   12.1182   58.2291 N   0  0  0  0  0  0
   13.6386    8.9944   55.0136 N   0  0  0  0  0  0
   12.9263    9.3223   56.1060 C   0  0  0  0  0  0
   14.7222    9.7227   54.7028 C   0  0  0  0  0  0
   12.3057   15.2573   60.6910 P   0  0  0  0  0  0
   11.8180    8.6330   56.5060 O   0  0  0  0  0  0
   12.9343   16.2750   59.8069 O   0  0  0  0  0  0
   15.4490   13.3255   57.3591 C   0  0  0  0  0  0
   15.4671    9.1361   53.7060 N   0  0  0  0  0  0
   10.9540   14.5876   60.1060 O   0  0  0  0  0  0
   11.7898   15.8330   62.1060 O   0  0  0  0  0  0
   13.2719   13.7848   61.2095 C   0  0  0  0  0  0
   15.7540   13.6498   58.6908 O   0  0  0  0  0  0
   16.3881   12.6285   59.4766 C   0  0  0  0  0  0
   14.0889   13.9903   62.5059 C   0  0  0  0  0  0
   17.2524   13.2801   60.5709 C   0  0  0  0  0  0
   16.4680   14.1910   61.5300 C   0  0  0  0  0  0
   15.5123   13.4191   62.4634 C   0  0  0  0  0  0
   11.7540    7.7822   56.0224 H   0  0  0  0  0  0
   14.9540   14.1829   56.9060 H   0  0  0  0  0  0
   16.3359   13.0712   56.7771 H   0  0  0  0  0  0
   15.1126    8.2576   53.3553 H   0  0  0  0  0  0
   16.3410    9.5211   53.3731 H   0  0  0  0  0  0
   10.1049   15.0121   60.4033 H   0  0  0  0  0  0
   11.7064   15.1524   62.8152 H   0  0  0  0  0  0
   12.5963   12.9381   61.3306 H   0  0  0  0  0  0
   13.9172   13.5309   60.3773 H   0  0  0  0  0  0
   17.0090   11.9700   58.8671 H   0  0  0  0  0  0
   15.6357   11.9822   59.9278 H   0  0  0  0  0  0
   14.1360   15.0420   62.7929 H   0  0  0  0  0  0
   13.5686   13.4709   63.3060 H   0  0  0  0  0  0
   18.0427   13.8672   60.1060 H   0  0  0  0  0  0
   17.7540   12.4979   61.1428 H   0  0  0  0  0  0
   15.9299   14.9440   60.9505 H   0  0  0  0  0  0
   17.1727   14.7597   62.1381 H   0  0  0  0  0  0
   15.9254   13.4330   63.4730 H   0  0  0  0  0  0
   15.4571   12.3624   62.1975 H   0  0  0  0  0  0
  1  2  1  0  0  0
  1  3  2  0  0  0
  1  4  1  0  0  0
  2  5  1  0  0  0
  2  8  2  0  0  0
  3  9  1  0  0  0
  4  6  1  0  0  0
  4 13  1  0  0  0
  5  6  2  0  0  0
  7  9  2  0  0  0
  7  8  1  0  0  0
  8 11  1  0  0  0
  9 14  1  0  0  0
 10 17  1  0  0  0
 10 12  2  0  0  0
 10 15  1  0  0  0
 10 16  1  0  0  0
 11 24  1  0  0  0
 13 18  1  0  0  0
 13 25  1  0  0  0
 13 26  1  0  0  0
 14 27  1  0  0  0
 14 28  1  0  0  0
 15 29  1  0  0  0
 16 30  1  0  0  0
 17 20  1  0  0  0
 17 31  1  0  0  0
 17 32  1  0  0  0
 18 19  1  0  0  0
 19 21  1  0  0  0
 19 33  1  0  0  0
 19 34  1  0  0  0
 20 23  1  0  0  0
 20 35  1  0  0  0
 20 36  1  0  0  0
 21 22  1  0  0  0
 21 37  1  0  0  0
 21 38  1  0  0  0
 22 23  1  0  0  0
 22 39  1  0  0  0
 22 40  1  0  0  0
 23 41  1  0  0  0
 23 42  1  0  0  0
M  END
> <s_m_entry_id>
11826

> <s_m_entry_name>
dock_pv.29

> <s_m_Source_Path>
/home/csk/Desktop/cluster/DUD-E-result/pnph

> <s_m_Source_File>
dock_pv.maegz

> <i_m_Source_File_Index>
29

> <chembl_id>
CHEMBL366963

> <chembl_pref_name>
None

> <i_lp_mmshare_version>
53161

> <r_lp_tautomer_probability>
1

> <s_lp_Force_Field>
OPLS_2005

> <r_lp_Energy>
-2.885337

> <b_lp_Chiralities_Consistent>
1

> <s_lp_Variant>
CHEMBL4338_lig94-1

> <s_i_glide_gridfile>
glide-grid_3bgs

> <i_i_glide_lignum>
114

> <i_i_glide_rotatable_bonds>
12

> <r_i_docking_score>
-8.75929293863671

> <r_i_glide_ligand_efficiency>
-0.380838823418987

> <r_i_glide_ligand_efficiency_sa>
-1.08305495343481

> <r_i_glide_ligand_efficiency_ln>
-2.11807645743949

> <r_i_glide_gscore>
-8.75929293863671

> <r_i_glide_lipo>
-0.917014419964468

> <r_i_glide_hbond>
-0.963371709927891

> <r_i_glide_metal>
0

> <r_i_glide_rewards>
-2.57237300367434

> <r_i_glide_evdw>
-34.1807518005371

> <r_i_glide_ecoul>
-29.1921977996826

> <r_i_glide_erotb>
1.42683853412914

> <r_i_glide_esite>
-0.024334749172299

> <r_i_glide_emodel>
-85.6050548250091

> <r_i_glide_energy>
-63.3729496002197

> <r_i_glide_einternal>
16.2114181518555

> <i_i_glide_confnum>
26

> <i_i_glide_posenum>
84

> <r_i_glide_eff_state_penalty>
0

> <s_user_duplicate_titles>
CHEMBL4338_lig94,291549

> <i_f3d_flags>
0

> <s_m_subgroup_title>
dock_pv

> <s_m_subgroupid>
dock_pv

> <b_m_subgroup_collapsed>
1

$$$$
CHEMBL4338_lig37
                    3D
 Schrodinger Suite 2021-1.
 27 29  0  0  1  0            999 V2000
   13.6059   10.6665   56.5720 C   0  0  0  0  0  0
   14.7347   11.1936   55.9819 C   0  0  0  0  0  0
   13.6197    8.9591   54.9149 N   0  0  0  0  0  0
   13.0251    9.5325   55.9828 C   0  0  0  0  0  0
   15.3536   10.6333   54.9077 N   0  0  0  0  0  0
   13.2254   11.3745   57.7050 N   0  0  0  0  0  0
   14.7595    9.5017   54.4498 C   0  0  0  0  0  0
   14.0240   12.3581   57.8386 C   0  0  0  0  0  0
   15.1171   12.4068   56.7646 C   0  0  0  0  0  0
   16.9534   14.2477   61.5366 S   0  0  0  0  0  0
   15.1069   13.3899   59.8819 C   0  0  0  0  0  0
   11.8731    9.0326   56.5061 O   0  0  0  0  0  0
   15.5964   14.5342   60.5048 C   0  0  0  0  0  0
   16.9079   12.5693   61.1372 C   0  0  0  0  0  0
   13.9068   13.3913   58.9488 C   0  0  0  0  0  0
   15.8732   12.2700   60.2656 C   0  0  0  0  0  0
   15.3541    8.7806   53.4353 N   0  0  0  0  0  0
   15.0534   13.3245   56.1805 H   0  0  0  0  0  0
   16.1114   12.3284   57.2047 H   0  0  0  0  0  0
   11.7113    8.1653   56.1051 H   0  0  0  0  0  0
   15.2139   15.5378   60.4058 H   0  0  0  0  0  0
   17.6221   11.8845   61.5701 H   0  0  0  0  0  0
   13.0014   13.2060   59.5280 H   0  0  0  0  0  0
   13.7554   14.3743   58.5070 H   0  0  0  0  0  0
   15.6742   11.2659   59.9174 H   0  0  0  0  0  0
   16.2009    9.1103   52.9808 H   0  0  0  0  0  0
   14.9122    7.9048   53.1855 H   0  0  0  0  0  0
  1  2  2  0  0  0
  1  4  1  0  0  0
  1  6  1  0  0  0
  2  5  1  0  0  0
  2  9  1  0  0  0
  3  4  2  0  0  0
  3  7  1  0  0  0
  4 12  1  0  0  0
  5  7  2  0  0  0
  6  8  2  0  0  0
  7 17  1  0  0  0
  8 15  1  0  0  0
  8  9  1  0  0  0
  9 18  1  0  0  0
  9 19  1  0  0  0
 10 13  1  0  0  0
 10 14  1  0  0  0
 11 15  1  0  0  0
 11 13  2  0  0  0
 11 16  1  0  0  0
 12 20  1  0  0  0
 13 21  1  0  0  0
 14 16  2  0  0  0
 14 22  1  0  0  0
 15 23  1  0  0  0
 15 24  1  0  0  0
 16 25  1  0  0  0
 17 26  1  0  0  0
 17 27  1  0  0  0
M  END
> <s_m_entry_id>
11827

> <s_m_entry_name>
dock_pv.30

> <s_m_Source_Path>
/home/csk/Desktop/cluster/DUD-E-result/pnph

> <s_m_Source_File>
dock_pv.maegz

> <i_m_Source_File_Index>
30

> <chembl_id>
CHEMBL159271

> <chembl_pref_name>
None

> <i_lp_mmshare_version>
53161

> <r_lp_tautomer_probability>
0.999601159137504

> <s_lp_Force_Field>
OPLS_2005

> <r_lp_Energy>
13.13041

> <b_lp_Chiralities_Consistent>
1

> <s_lp_Variant>
CHEMBL4338_lig37-1

> <s_i_glide_gridfile>
glide-grid_3bgs

> <i_i_glide_lignum>
45

> <i_i_glide_rotatable_bonds>
3

> <r_i_docking_score>
-8.72084602772175

> <r_i_glide_ligand_efficiency>
-0.512990942807162

> <r_i_glide_ligand_efficiency_sa>
-1.31904416616876

> <r_i_glide_ligand_efficiency_ln>
-2.27507452493984

> <r_i_glide_gscore>
-8.72084602772175

> <r_i_glide_lipo>
-2.40767813007679

> <r_i_glide_hbond>
-0.716979906820342

> <r_i_glide_metal>
0

> <r_i_glide_rewards>
-3.23534256258298

> <r_i_glide_evdw>
-32.0457954406738

> <r_i_glide_ecoul>
-8.8083553314209

> <r_i_glide_erotb>
0.574528349225712

> <r_i_glide_esite>
-0.0118307057205254

> <r_i_glide_emodel>
-61.7182709585994

> <r_i_glide_energy>
-40.8541507720947

> <r_i_glide_einternal>
1.24848699569702

> <i_i_glide_confnum>
1

> <i_i_glide_posenum>
367

> <r_i_glide_eff_state_penalty>
0

> <s_user_duplicate_titles>
CHEMBL4338_lig37,267562

> <i_f3d_flags>
0

> <s_m_subgroup_title>
dock_pv

> <s_m_subgroupid>
dock_pv

> <b_m_subgroup_collapsed>
1

$$$$
CHEMBL4338_lig119
                    3D
 Schrodinger Suite 2021-1.
 40 41  0  0  1  0            999 V2000
   14.6073   11.0667   56.5880 C   0  0  0  0  0  0
   13.4366   10.4509   56.9104 C   0  0  0  0  0  0
   15.3540   10.8664   55.4409 N   0  0  0  0  0  0
   13.7252    9.2225   55.0056 N   0  0  0  0  0  0
   12.9540   10.7999   58.1038 N   0  0  0  0  0  0
   12.8614    9.5050   56.0140 C   0  0  0  0  0  0
   14.9106    9.8615   54.7357 C   0  0  0  0  0  0
   14.9185   11.7388   57.7503 N   0  0  0  0  0  0
   12.1758   15.5940   60.6658 P   0  0  0  0  0  0
   13.8754   11.5574   58.5860 C   0  0  0  0  0  0
   13.2306   14.1432   61.0679 C   0  0  0  0  0  0
   14.7636   14.2769   62.0603 P   0  0  1  0  0  0
   11.7540    9.0330   56.1061 O   0  0  0  0  0  0
   12.8141   16.8432   60.1060 O   0  0  0  0  0  0
   15.6529   15.4330   61.7836 O   0  0  0  0  0  0
   15.5585    9.3160   53.7061 N   0  0  0  0  0  0
   10.9540   14.9200   59.7060 O   0  0  0  0  0  0
   11.3540   15.8330   62.1060 O   0  0  0  0  0  0
   14.1540   14.3120   63.5591 O   0  0  0  0  0  0
   16.1540   12.4602   58.0705 C   0  0  0  0  0  0
   15.5969   12.6329   62.0615 C   0  0  0  0  0  0
   16.2173   13.0647   59.5160 C   0  0  0  0  0  0
   16.1478   12.0796   60.7144 C   0  0  0  0  0  0
   13.8426   11.9224   59.5910 H   0  0  0  0  0  0
   12.6209   13.3458   61.4977 H   0  0  0  0  0  0
   13.4946   13.7989   60.0822 H   0  0  0  0  0  0
   13.4281    8.4604   54.4114 H   0  0  0  0  0  0
   16.4236    9.7005   53.3421 H   0  0  0  0  0  0
   15.2309    8.4482   53.3057 H   0  0  0  0  0  0
   10.0206   15.0330   60.0090 H   0  0  0  0  0  0
   11.6029   15.4330   62.9677 H   0  0  0  0  0  0
   13.3228   13.8066   63.7060 H   0  0  0  0  0  0
   16.1540   13.2494   57.3160 H   0  0  0  0  0  0
   16.9577   11.7511   57.8786 H   0  0  0  0  0  0
   16.4283   12.7353   62.7566 H   0  0  0  0  0  0
   14.9173   11.9057   62.5059 H   0  0  0  0  0  0
   15.4594   13.8346   59.5297 H   0  0  0  0  0  0
   17.1236   13.6413   59.7060 H   0  0  0  0  0  0
   17.1543   11.6943   60.8907 H   0  0  0  0  0  0
   15.6057   11.1695   60.4644 H   0  0  0  0  0  0
  1  8  1  0  0  0
  1  3  1  0  0  0
  1  2  2  0  0  0
  2  6  1  0  0  0
  2  5  1  0  0  0
  3  7  2  0  0  0
  4  7  1  0  0  0
  4 27  1  0  0  0
  4  6  1  0  0  0
  5 10  2  0  0  0
  6 13  2  0  0  0
  7 16  1  0  0  0
  8 10  1  0  0  0
  8 20  1  0  0  0
  9 11  1  0  0  0
  9 14  2  0  0  0
  9 17  1  0  0  0
  9 18  1  0  0  0
 10 24  1  0  0  0
 11 12  1  0  0  0
 11 25  1  0  0  0
 11 26  1  0  0  0
 12 21  1  0  0  0
 12 15  2  0  0  0
 12 19  1  0  0  0
 16 28  1  0  0  0
 16 29  1  0  0  0
 17 30  1  0  0  0
 18 31  1  0  0  0
 19 32  1  0  0  0
 20 22  1  0  0  0
 20 33  1  0  0  0
 20 34  1  0  0  0
 21 23  1  0  0  0
 21 35  1  0  0  0
 21 36  1  0  0  0
 22 23  1  0  0  0
 22 37  1  0  0  0
 22 38  1  0  0  0
 23 39  1  0  0  0
 23 40  1  0  0  0
M  END
> <s_m_entry_id>
11828

> <s_m_entry_name>
dock_pv.31

> <s_m_Source_Path>
/home/csk/Desktop/cluster/DUD-E-result/pnph

> <s_m_Source_File>
dock_pv.maegz

> <i_m_Source_File_Index>
31

> <chembl_id>
CHEMBL7068

> <chembl_pref_name>
None

> <i_lp_mmshare_version>
53161

> <r_lp_tautomer_probability>
0.999940409345307

> <s_lp_Force_Field>
OPLS_2005

> <r_lp_Energy>
7.932882

> <b_lp_Chiralities_Consistent>
1

> <s_lp_Variant>
CHEMBL4338_lig119-1

> <s_i_glide_gridfile>
glide-grid_3bgs

> <i_i_glide_lignum>
145

> <i_i_glide_rotatable_bonds>
10

> <r_i_docking_score>
-8.67037724605557

> <r_i_glide_ligand_efficiency>
-0.376972923741547

> <r_i_glide_ligand_efficiency_sa>
-1.07206084900621

> <r_i_glide_ligand_efficiency_ln>
-2.09657583673045

> <r_i_glide_gscore>
-8.67037724605557

> <r_i_glide_lipo>
-1.09210927242362

> <r_i_glide_hbond>
-0.797801923317919

> <r_i_glide_metal>
0

> <r_i_glide_rewards>
-2.38020233968301

> <r_i_glide_evdw>
-27.3543033599854

> <r_i_glide_ecoul>
-29.3793354034424

> <r_i_glide_erotb>
1.00937482538175

> <r_i_glide_esite>
-0.0419233680135161

> <r_i_glide_emodel>
-72.7839707195748

> <r_i_glide_energy>
-56.7336387634277

> <r_i_glide_einternal>
12.6113586425781

> <i_i_glide_confnum>
157

> <i_i_glide_posenum>
349

> <r_i_glide_eff_state_penalty>
0

> <s_user_duplicate_titles>
CHEMBL4338_lig119,1694

> <i_f3d_flags>
0

> <s_m_subgroup_title>
dock_pv

> <s_m_subgroupid>
dock_pv

> <b_m_subgroup_collapsed>
1

$$$$
CHEMBL4338_lig122
                    3D
 Schrodinger Suite 2021-1.
 49 50  0  0  1  0            999 V2000
   14.4801   10.9398   56.4592 C   0  0  0  0  0  0
   13.3046   10.4574   56.9414 C   0  0  0  0  0  0
   15.1228   10.5773   55.3057 N   0  0  0  0  0  0
   13.3557    9.0329   55.1452 N   0  0  0  0  0  0
   12.9541   11.0258   58.1057 N   0  0  0  0  0  0
   12.6012    9.4327   56.2131 C   0  0  0  0  0  0
   14.5579    9.5669   54.7255 C   0  0  0  0  0  0
   14.9540   11.6912   57.4926 N   0  0  0  0  0  0
   15.7272   17.1619   64.2451 P   0  0  1  0  0  0
   13.9691   11.7722   58.4082 C   0  0  0  0  0  0
   14.4995   16.0115   63.4223 C   0  0  0  0  0  0
   15.0409   14.4520   62.6173 P   0  0  1  0  0  0
   11.5252    8.9308   56.5061 O   0  0  0  0  0  0
   16.7824   17.7186   63.3100 O   0  0  0  0  0  0
   15.7242   13.4383   63.4613 O   0  0  0  0  0  0
   15.1378    8.9366   53.7054 N   0  0  0  0  0  0
   14.7155   18.3828   64.9057 O   0  0  0  0  0  0
   16.3903   16.2140   65.5380 O   0  0  0  0  0  0
   13.6422   13.9309   61.9808 O   0  0  0  0  0  0
   16.2925   12.2330   57.6274 C   0  0  0  0  0  0
   15.9687   15.0236   61.1498 C   0  0  0  0  0  0
   15.5254   15.5036   66.4167 C   0  0  0  0  0  0
   16.9539   11.8160   58.9824 C   0  0  0  0  0  0
   16.1532   14.0869   59.9598 C   0  0  0  0  0  0
   16.5614   12.6289   60.2464 C   0  0  0  0  0  0
   14.6449   16.4143   67.2873 C   0  0  0  0  0  0
   14.0578   12.3272   59.3265 H   0  0  0  0  0  0
   13.6907   15.7743   64.1062 H   0  0  0  0  0  0
   13.9927   16.5907   62.6488 H   0  0  0  0  0  0
   13.0028    8.2040   54.6801 H   0  0  0  0  0  0
   15.9772    9.3026   53.2731 H   0  0  0  0  0  0
   14.7776    8.0427   53.3930 H   0  0  0  0  0  0
   14.1746   18.9548   64.3150 H   0  0  0  0  0  0
   12.9155   13.8348   62.6331 H   0  0  0  0  0  0
   16.1540   13.3014   57.4664 H   0  0  0  0  0  0
   16.8690   11.8491   56.7859 H   0  0  0  0  0  0
   15.3836   15.8328   60.7487 H   0  0  0  0  0  0
   16.9257   15.4327   61.4733 H   0  0  0  0  0  0
   16.1666   14.9143   67.0732 H   0  0  0  0  0  0
   14.9288   14.7755   65.8682 H   0  0  0  0  0  0
   18.0392   11.8330   58.8782 H   0  0  0  0  0  0
   16.7490   10.7600   59.1722 H   0  0  0  0  0  0
   15.2255   14.1038   59.3893 H   0  0  0  0  0  0
   16.8891   14.5689   59.3160 H   0  0  0  0  0  0
   17.3931   12.6134   60.9522 H   0  0  0  0  0  0
   15.7485   12.1220   60.7680 H   0  0  0  0  0  0
   14.1282   15.8342   68.0537 H   0  0  0  0  0  0
   13.8802   16.9245   66.7047 H   0  0  0  0  0  0
   15.2444   17.1711   67.7931 H   0  0  0  0  0  0
  1  8  1  0  0  0
  1  3  1  0  0  0
  1  2  2  0  0  0
  2  6  1  0  0  0
  2  5  1  0  0  0
  3  7  2  0  0  0
  4  7  1  0  0  0
  4 30  1  0  0  0
  4  6  1  0  0  0
  5 10  2  0  0  0
  6 13  2  0  0  0
  7 16  1  0  0  0
  8 10  1  0  0  0
  8 20  1  0  0  0
  9 11  1  0  0  0
  9 14  2  0  0  0
  9 17  1  0  0  0
  9 18  1  0  0  0
 10 27  1  0  0  0
 11 12  1  0  0  0
 11 28  1  0  0  0
 11 29  1  0  0  0
 12 21  1  0  0  0
 12 15  2  0  0  0
 12 19  1  0  0  0
 16 31  1  0  0  0
 16 32  1  0  0  0
 17 33  1  0  0  0
 18 22  1  0  0  0
 19 34  1  0  0  0
 20 23  1  0  0  0
 20 35  1  0  0  0
 20 36  1  0  0  0
 21 24  1  0  0  0
 21 37  1  0  0  0
 21 38  1  0  0  0
 22 26  1  0  0  0
 22 39  1  0  0  0
 22 40  1  0  0  0
 23 25  1  0  0  0
 23 41  1  0  0  0
 23 42  1  0  0  0
 24 25  1  0  0  0
 24 43  1  0  0  0
 24 44  1  0  0  0
 25 45  1  0  0  0
 25 46  1  0  0  0
 26 47  1  0  0  0
 26 48  1  0  0  0
 26 49  1  0  0  0
M  END
> <s_m_entry_id>
11829

> <s_m_entry_name>
dock_pv.32

> <s_m_Source_Path>
/home/csk/Desktop/cluster/DUD-E-result/pnph

> <s_m_Source_File>
dock_pv.maegz

> <i_m_Source_File_Index>
32

> <chembl_id>
CHEMBL268378

> <chembl_pref_name>
None

> <i_lp_mmshare_version>
53161

> <r_lp_tautomer_probability>
0.999940409345307

> <s_lp_Force_Field>
OPLS_2005

> <r_lp_Energy>
-6.927764

> <b_lp_Chiralities_Consistent>
1

> <s_lp_Variant>
CHEMBL4338_lig122-1

> <s_i_glide_gridfile>
glide-grid_3bgs

> <i_i_glide_lignum>
150

> <i_i_glide_rotatable_bonds>
12

> <r_i_docking_score>
-8.64400403430763

> <r_i_glide_ligand_efficiency>
-0.332461693627217

> <r_i_glide_ligand_efficiency_sa>
-0.984916459197034

> <r_i_glide_ligand_efficiency_ln>
-2.0300159841665

> <r_i_glide_gscore>
-8.64400403430763

> <r_i_glide_lipo>
-1.28457217459263

> <r_i_glide_hbond>
-0.700470569726955

> <r_i_glide_metal>
0

> <r_i_glide_rewards>
-2.92875032683258

> <r_i_glide_evdw>
-34.8340339660645

> <r_i_glide_ecoul>
-19.6391544342041

> <r_i_glide_erotb>
1.06716352925698

> <r_i_glide_esite>
-0.1097996289786

> <r_i_glide_emodel>
-67.1457648643457

> <r_i_glide_energy>
-54.4731884002686

> <r_i_glide_einternal>
5.92355298995972

> <i_i_glide_confnum>
90

> <i_i_glide_posenum>
200

> <r_i_glide_eff_state_penalty>
0

> <s_user_duplicate_titles>
CHEMBL4338_lig122

> <i_f3d_flags>
0

> <s_m_subgroup_title>
dock_pv

> <s_m_subgroupid>
dock_pv

> <b_m_subgroup_collapsed>
1

$$$$
CHEMBL4338_lig49
                    3D
 Schrodinger Suite 2021-1.
 27 29  0  0  1  0            999 V2000
   13.5572   10.6829   56.5812 C   0  0  0  0  0  0
   14.6918   11.2085   56.0004 C   0  0  0  0  0  0
   13.6086    8.9526   54.9512 N   0  0  0  0  0  0
   12.9926    9.5356   55.9993 C   0  0  0  0  0  0
   15.3284   10.6403   54.9396 N   0  0  0  0  0  0
   13.1592   11.4057   57.6994 N   0  0  0  0  0  0
   14.7472    9.4992   54.4892 C   0  0  0  0  0  0
   13.9586   12.3903   57.8351 C   0  0  0  0  0  0
   15.0574   12.4344   56.7709 C   0  0  0  0  0  0
   15.0587   13.4378   59.8564 C   0  0  0  0  0  0
   15.7699   11.9772   60.5053 S   0  0  0  0  0  0
   13.8450   13.4264   58.9441 C   0  0  0  0  0  0
   11.8333    9.0320   56.5060 O   0  0  0  0  0  0
   16.9540   12.8723   61.3803 C   0  0  0  0  0  0
   15.7493   14.5434   60.3532 C   0  0  0  0  0  0
   15.3543    8.7767   53.4827 N   0  0  0  0  0  0
   16.8145   14.2331   61.1974 C   0  0  0  0  0  0
   14.9887   13.3444   56.1756 H   0  0  0  0  0  0
   16.0489   12.3704   57.2185 H   0  0  0  0  0  0
   12.9464   13.2428   59.5340 H   0  0  0  0  0  0
   13.7011   14.4110   58.5059 H   0  0  0  0  0  0
   11.6799    8.1615   56.1061 H   0  0  0  0  0  0
   17.6840   12.3502   61.9815 H   0  0  0  0  0  0
   15.4854   15.5592   60.1055 H   0  0  0  0  0  0
   16.2008    9.1106   53.0323 H   0  0  0  0  0  0
   14.9147    7.8985   53.2337 H   0  0  0  0  0  0
   17.4484   14.9772   61.6561 H   0  0  0  0  0  0
  1  2  2  0  0  0
  1  4  1  0  0  0
  1  6  1  0  0  0
  2  5  1  0  0  0
  2  9  1  0  0  0
  3  4  2  0  0  0
  3  7  1  0  0  0
  4 13  1  0  0  0
  5  7  2  0  0  0
  6  8  2  0  0  0
  7 16  1  0  0  0
  8 12  1  0  0  0
  8  9  1  0  0  0
  9 18  1  0  0  0
  9 19  1  0  0  0
 10 12  1  0  0  0
 10 11  1  0  0  0
 10 15  2  0  0  0
 11 14  1  0  0  0
 12 20  1  0  0  0
 12 21  1  0  0  0
 13 22  1  0  0  0
 14 17  2  0  0  0
 14 23  1  0  0  0
 15 17  1  0  0  0
 15 24  1  0  0  0
 16 25  1  0  0  0
 16 26  1  0  0  0
 17 27  1  0  0  0
M  END
> <s_m_entry_id>
11830

> <s_m_entry_name>
dock_pv.33

> <s_m_Source_Path>
/home/csk/Desktop/cluster/DUD-E-result/pnph

> <s_m_Source_File>
dock_pv.maegz

> <i_m_Source_File_Index>
33

> <chembl_id>
CHEMBL349855

> <chembl_pref_name>
None

> <i_lp_mmshare_version>
53161

> <r_lp_tautomer_probability>
0.999601159137504

> <s_lp_Force_Field>
OPLS_2005

> <r_lp_Energy>
11.417954

> <b_lp_Chiralities_Consistent>
1

> <s_lp_Variant>
CHEMBL4338_lig49-1

> <s_i_glide_gridfile>
glide-grid_3bgs

> <i_i_glide_lignum>
60

> <i_i_glide_rotatable_bonds>
3

> <r_i_docking_score>
-8.59922837331376

> <r_i_glide_ligand_efficiency>
-0.505836963136103

> <r_i_glide_ligand_efficiency_sa>
-1.30064926995799

> <r_i_glide_ligand_efficiency_ln>
-2.2433471871968

> <r_i_glide_gscore>
-8.59922837331376

> <r_i_glide_lipo>
-2.42244848215953

> <r_i_glide_hbond>
-0.717773267308894

> <r_i_glide_metal>
0

> <r_i_glide_rewards>
-3.27743127728055

> <r_i_glide_evdw>
-31.8960571289062

> <r_i_glide_ecoul>
-7.65919399261475

> <r_i_glide_erotb>
0.574528349225712

> <r_i_glide_esite>
-0.0124217404529701

> <r_i_glide_emodel>
-59.4975572167564

> <r_i_glide_energy>
-39.555251121521

> <r_i_glide_einternal>
1.49225151538849

> <i_i_glide_confnum>
1

> <i_i_glide_posenum>
36

> <r_i_glide_eff_state_penalty>
0

> <s_user_duplicate_titles>
CHEMBL4338_lig49,267231

> <i_f3d_flags>
0

> <s_m_subgroup_title>
dock_pv

> <s_m_subgroupid>
dock_pv

> <b_m_subgroup_collapsed>
1

$$$$
CHEMBL4338_lig151
                    3D
 Schrodinger Suite 2021-1.
 32 33  0  0  1  0            999 V2000
   13.6622   11.7327   57.7399 N   0  0  0  0  0  0
   13.0075   12.0393   59.0019 C   0  0  2  0  0  0
   14.1902   10.6786   55.9999 C   0  0  0  0  0  0
   14.9993   11.7332   55.9909 N   0  0  0  0  0  0
   13.3540   10.6377   57.0329 N   0  0  0  0  0  0
   14.6981   12.3501   57.0934 C   0  0  0  0  0  0
   12.5735   13.4950   59.1858 C   0  0  2  0  0  0
   13.8857   11.7646   60.0497 O   0  0  0  0  0  0
   12.5959   13.6141   60.7081 C   0  0  2  0  0  0
   13.6226   12.5735   61.1923 C   0  0  2  0  0  0
   14.2910    9.6136   54.9758 C   0  0  0  0  0  0
   15.2017    9.6580   54.1060 N   0  0  0  0  0  0
   15.3540   13.4330   57.5703 N   0  0  0  0  0  0
   11.3540   13.7531   58.5060 O   0  0  0  0  0  0
   13.3540    8.6330   55.1284 N   0  0  0  0  0  0
   11.3348   13.4330   61.3060 O   0  0  0  0  0  0
   14.9635   13.1584   61.6732 C   0  0  0  0  0  0
   14.7887   13.8320   62.9060 O   0  0  0  0  0  0
   12.1540   11.3665   59.0975 H   0  0  0  0  0  0
   13.3388   14.1653   58.8042 H   0  0  0  0  0  0
   12.9183   14.6245   60.9673 H   0  0  0  0  0  0
   13.2212   11.9178   61.9674 H   0  0  0  0  0  0
   15.1749    8.8566   53.4922 H   0  0  0  0  0  0
   16.1326   13.8207   57.0603 H   0  0  0  0  0  0
   15.2315   13.7447   58.5215 H   0  0  0  0  0  0
   11.5898   14.2430   57.7006 H   0  0  0  0  0  0
   13.3639    7.7739   54.5760 H   0  0  0  0  0  0
   12.6418    8.7089   55.8376 H   0  0  0  0  0  0
   11.3993   13.6813   62.2378 H   0  0  0  0  0  0
   15.6900   12.3569   61.8169 H   0  0  0  0  0  0
   15.3845   13.8412   60.9342 H   0  0  0  0  0  0
   14.4394   13.2079   63.5540 H   0  0  0  0  0  0
  1  2  1  0  0  0
  1  5  1  0  0  0
  1  6  1  0  0  0
  2  7  1  0  0  0
  2  8  1  0  0  0
  2 19  1  0  0  0
  3  4  1  0  0  0
  3  5  2  0  0  0
  3 11  1  0  0  0
  4  6  2  0  0  0
  6 13  1  0  0  0
  7  9  1  0  0  0
  7 14  1  0  0  0
  7 20  1  0  0  0
  8 10  1  0  0  0
  9 10  1  0  0  0
  9 16  1  0  0  0
  9 21  1  0  0  0
 10 17  1  0  0  0
 10 22  1  0  0  0
 11 12  2  0  0  0
 11 15  1  0  0  0
 12 23  1  0  0  0
 13 24  1  0  0  0
 13 25  1  0  0  0
 14 26  1  0  0  0
 15 27  1  0  0  0
 15 28  1  0  0  0
 16 29  1  0  0  0
 17 18  1  0  0  0
 17 30  1  0  0  0
 17 31  1  0  0  0
 18 32  1  0  0  0
M  END
> <s_m_entry_id>
11831

> <s_m_entry_name>
dock_pv.34

> <s_m_Source_Path>
/home/csk/Desktop/cluster/DUD-E-result/pnph

> <s_m_Source_File>
dock_pv.maegz

> <i_m_Source_File_Index>
34

> <chembl_id>
CHEMBL552896

> <chembl_pref_name>
None

> <i_lp_mmshare_version>
53161

> <r_lp_tautomer_probability>
1

> <s_lp_Force_Field>
OPLS_2005

> <r_lp_Energy>
33.548069

> <b_lp_Chiralities_Consistent>
1

> <s_lp_Variant>
CHEMBL4338_lig151-1

> <s_i_glide_gridfile>
glide-grid_3bgs

> <i_i_glide_lignum>
197

> <i_i_glide_rotatable_bonds>
6

> <r_i_docking_score>
-8.58465625868271

> <r_i_glide_ligand_efficiency>
-0.476925347704595

> <r_i_glide_ligand_efficiency_sa>
-1.24989799947268

> <r_i_glide_ligand_efficiency_ln>
-2.20664162525309

> <r_i_glide_gscore>
-8.58465625868271

> <r_i_glide_lipo>
-0.739729769921562

> <r_i_glide_hbond>
-0.608193018321136

> <r_i_glide_metal>
0

> <r_i_glide_rewards>
-3.44840072727273

> <r_i_glide_evdw>
-31.4445667266846

> <r_i_glide_ecoul>
-16.5792064666748

> <r_i_glide_erotb>
0.370776563168167

> <r_i_glide_esite>
-0.1

> <r_i_glide_emodel>
-68.8008833415708

> <r_i_glide_energy>
-48.0237731933594

> <r_i_glide_einternal>
6.30938291549683

> <i_i_glide_confnum>
17

> <i_i_glide_posenum>
267

> <r_i_glide_eff_state_penalty>
0

> <s_user_duplicate_titles>
CHEMBL4338_lig151

> <i_f3d_flags>
0

> <s_m_subgroup_title>
dock_pv

> <s_m_subgroupid>
dock_pv

> <b_m_subgroup_collapsed>
1

$$$$
CHEMBL4338_lig112
                    3D
 Schrodinger Suite 2021-1.
 34 36  0  0  1  0            999 V2000
   17.1074   15.7426   63.0546 C   0  0  1  0  0  0
   17.0015   14.9942   61.7284 C   0  0  2  0  0  0
   16.5715   13.5997   62.1901 C   0  0  1  0  0  0
   15.8104   13.8229   63.3800 O   0  0  0  0  0  0
   15.9048   15.1793   63.8270 C   0  0  2  0  0  0
   14.5627   15.8687   63.5084 C   0  0  0  0  0  0
   14.4095   17.0359   64.2882 O   0  0  0  0  0  0
   18.3429   15.5593   63.7318 O   0  0  0  0  0  0
   18.1543   15.0329   60.9062 O   0  0  0  0  0  0
   15.8087   12.8069   61.1413 C   0  0  0  0  0  0
   14.4336   12.9669   60.7711 C   0  0  0  0  0  0
   14.0798   11.7632   59.9255 C   0  0  2  0  0  0
   12.0091   13.0329   59.4127 N   0  0  0  0  0  0
   15.3665   11.3923   59.3921 N   0  0  0  0  0  0
   12.9540   12.1218   58.9058 C   0  0  0  0  0  0
   16.2626   11.8142   60.3436 C   0  0  0  0  0  0
   12.3411   13.7749   60.4095 C   0  0  0  0  0  0
   13.5718   13.8732   61.0564 N   0  0  0  0  0  0
   11.3577   14.5807   60.9057 N   0  0  0  0  0  0
   12.9541   11.5779   57.8061 O   0  0  0  0  0  0
   16.9717   16.8132   62.8998 H   0  0  0  0  0  0
   16.1876   15.4326   61.1486 H   0  0  0  0  0  0
   17.4534   13.0329   62.4923 H   0  0  0  0  0  0
   16.0692   15.1507   64.9060 H   0  0  0  0  0  0
   13.7540   15.1954   63.7755 H   0  0  0  0  0  0
   14.4371   16.0888   62.4495 H   0  0  0  0  0  0
   14.1522   17.7685   63.7173 H   0  0  0  0  0  0
   18.2530   15.8811   64.6330 H   0  0  0  0  0  0
   18.1891   15.8996   60.4869 H   0  0  0  0  0  0
   13.6700   10.9721   60.5551 H   0  0  0  0  0  0
   15.4137   10.4360   59.0654 H   0  0  0  0  0  0
   17.2566   11.3889   60.3099 H   0  0  0  0  0  0
   10.4253   14.5810   60.5143 H   0  0  0  0  0  0
   11.5179   15.0325   61.7926 H   0  0  0  0  0  0
  1  5  1  0  0  0
  1  2  1  0  0  0
  1  8  1  0  0  0
  1 21  1  0  0  0
  2  3  1  0  0  0
  2  9  1  0  0  0
  2 22  1  0  0  0
  3  4  1  0  0  0
  3 10  1  0  0  0
  3 23  1  0  0  0
  4  5  1  0  0  0
  5  6  1  0  0  0
  5 24  1  0  0  0
  6  7  1  0  0  0
  6 25  1  0  0  0
  6 26  1  0  0  0
  7 27  1  0  0  0
  8 28  1  0  0  0
  9 29  1  0  0  0
 10 11  1  0  0  0
 10 16  2  0  0  0
 11 12  1  0  0  0
 11 18  2  0  0  0
 12 15  1  0  0  0
 12 14  1  0  0  0
 12 30  1  0  0  0
 13 17  2  0  0  0
 13 15  1  0  0  0
 14 16  1  0  0  0
 14 31  1  0  0  0
 15 20  2  0  0  0
 16 32  1  0  0  0
 17 18  1  0  0  0
 17 19  1  0  0  0
 19 33  1  0  0  0
 19 34  1  0  0  0
M  END
> <s_m_entry_id>
11832

> <s_m_entry_name>
dock_pv.35

> <s_m_Source_Path>
/home/csk/Desktop/cluster/DUD-E-result/pnph

> <s_m_Source_File>
dock_pv.maegz

> <i_m_Source_File_Index>
35

> <chembl_id>
CHEMBL3143997

> <chembl_pref_name>
None

> <i_lp_mmshare_version>
53161

> <r_lp_tautomer_probability>
1

> <s_lp_Force_Field>
OPLS_2005

> <r_lp_Energy>
60.722492

> <b_lp_Chiralities_Consistent>
1

> <s_lp_Variant>
CHEMBL4338_lig112-2

> <s_i_glide_gridfile>
glide-grid_3bgs

> <i_i_glide_lignum>
133

> <i_i_glide_rotatable_bonds>
5

> <r_i_docking_score>
-8.57412744810735

> <r_i_glide_ligand_efficiency>
-0.428706372405367

> <r_i_glide_ligand_efficiency_sa>
-1.16368812844159

> <r_i_glide_ligand_efficiency_ln>
-2.1458213066115

> <r_i_glide_gscore>
-8.57412744810735

> <r_i_glide_lipo>
-1.20017486771468

> <r_i_glide_hbond>
-0.660069563302421

> <r_i_glide_metal>
0

> <r_i_glide_rewards>
-3.38231542083686

> <r_i_glide_evdw>
-33.0073585510254

> <r_i_glide_ecoul>
-14.1604585647583

> <r_i_glide_erotb>
0.454158576835664

> <r_i_glide_esite>
-0.0112894608240318

> <r_i_glide_emodel>
-66.9221336079598

> <r_i_glide_energy>
-47.1678171157837

> <r_i_glide_einternal>
5.5799880027771

> <i_i_glide_confnum>
20

> <i_i_glide_posenum>
113

> <r_i_glide_eff_state_penalty>
0

> <s_user_duplicate_titles>
CHEMBL4338_lig112

> <i_f3d_flags>
0

> <s_m_subgroup_title>
dock_pv

> <s_m_subgroupid>
dock_pv

> <b_m_subgroup_collapsed>
1

$$$$
CHEMBL4338_lig101
                    3D
 Schrodinger Suite 2021-1.
 37 38  0  0  1  0            999 V2000
   13.9809   11.2253   56.8583 C   0  0  0  0  0  0
   14.8069   11.1132   55.7752 C   0  0  0  0  0  0
   12.9847   10.3778   57.2366 N   0  0  0  0  0  0
   14.3206   12.3936   57.4691 N   0  0  0  0  0  0
   13.6155    9.1994   55.3053 N   0  0  0  0  0  0
   15.6612   12.1470   55.7060 N   0  0  0  0  0  0
   14.6737    9.9628   54.9020 C   0  0  0  0  0  0
   12.7952    9.4330   56.3848 C   0  0  0  0  0  0
   15.3319   12.8943   56.7321 C   0  0  0  0  0  0
   12.9540   16.0550   61.4118 P   0  0  0  0  0  0
   15.3540    9.6430   53.9369 O   0  0  0  0  0  0
   13.2808   16.2330   59.9726 O   0  0  0  0  0  0
   13.6703   12.9662   58.7097 C   0  0  0  0  0  0
   11.7540    8.6330   56.5060 N   0  0  0  0  0  0
   11.6839   15.0976   61.7060 O   0  0  0  0  0  0
   12.5540   17.4330   62.1623 O   0  0  0  0  0  0
   14.2183   15.3748   62.5667 C   0  0  0  0  0  0
   14.0558   12.2095   59.8203 O   0  0  0  0  0  0
   15.3822   12.4113   60.3100 C   0  0  0  0  0  0
   14.5752   13.9128   62.2407 C   0  0  0  0  0  0
   15.5264   13.7628   61.0348 C   0  0  0  0  0  0
   15.7823   13.8330   57.0055 H   0  0  0  0  0  0
   13.4257    8.3873   54.7333 H   0  0  0  0  0  0
   12.6051   12.8619   58.5002 H   0  0  0  0  0  0
   13.9610   14.0162   58.7147 H   0  0  0  0  0  0
   11.0407    8.8242   57.1897 H   0  0  0  0  0  0
   11.7517    7.7157   56.0295 H   0  0  0  0  0  0
   11.5918   14.8031   62.6438 H   0  0  0  0  0  0
   13.2906   18.0450   62.3836 H   0  0  0  0  0  0
   15.1084   16.0029   62.5572 H   0  0  0  0  0  0
   13.8071   15.4309   63.5741 H   0  0  0  0  0  0
   16.1143   12.3259   59.5055 H   0  0  0  0  0  0
   15.6078   11.5997   61.0029 H   0  0  0  0  0  0
   15.0396   13.4467   63.1114 H   0  0  0  0  0  0
   13.6533   13.3503   62.0805 H   0  0  0  0  0  0
   15.3766   14.5714   60.3206 H   0  0  0  0  0  0
   16.5560   13.8790   61.3751 H   0  0  0  0  0  0
  1  4  1  0  0  0
  1  3  1  0  0  0
  1  2  2  0  0  0
  2  7  1  0  0  0
  2  6  1  0  0  0
  3  8  2  0  0  0
  4  9  1  0  0  0
  4 13  1  0  0  0
  5  8  1  0  0  0
  5 23  1  0  0  0
  5  7  1  0  0  0
  6  9  2  0  0  0
  7 11  2  0  0  0
  8 14  1  0  0  0
  9 22  1  0  0  0
 10 17  1  0  0  0
 10 12  2  0  0  0
 10 15  1  0  0  0
 10 16  1  0  0  0
 13 18  1  0  0  0
 13 24  1  0  0  0
 13 25  1  0  0  0
 14 26  1  0  0  0
 14 27  1  0  0  0
 15 28  1  0  0  0
 16 29  1  0  0  0
 17 20  1  0  0  0
 17 30  1  0  0  0
 17 31  1  0  0  0
 18 19  1  0  0  0
 19 21  1  0  0  0
 19 32  1  0  0  0
 19 33  1  0  0  0
 20 21  1  0  0  0
 20 34  1  0  0  0
 20 35  1  0  0  0
 21 36  1  0  0  0
 21 37  1  0  0  0
M  END
> <s_m_entry_id>
11833

> <s_m_entry_name>
dock_pv.36

> <s_m_Source_Path>
/home/csk/Desktop/cluster/DUD-E-result/pnph

> <s_m_Source_File>
dock_pv.maegz

> <i_m_Source_File_Index>
36

> <chembl_id>
CHEMBL177948

> <chembl_pref_name>
None

> <i_lp_mmshare_version>
53161

> <r_lp_tautomer_probability>
0.999940409345307

> <s_lp_Force_Field>
OPLS_2005

> <r_lp_Energy>
-5.77658

> <b_lp_Chiralities_Consistent>
1

> <s_lp_Variant>
CHEMBL4338_lig101-1

> <s_i_glide_gridfile>
glide-grid_3bgs

> <i_i_glide_lignum>
121

> <i_i_glide_rotatable_bonds>
9

> <r_i_docking_score>
-8.56530046177195

> <r_i_glide_ligand_efficiency>
-0.407871450560569

> <r_i_glide_ligand_efficiency_sa>
-1.1252864046652

> <r_i_glide_ligand_efficiency_ln>
-2.11775323135386

> <r_i_glide_gscore>
-8.56530046177195

> <r_i_glide_lipo>
-1.06046520063614

> <r_i_glide_hbond>
-0.743465438158697

> <r_i_glide_metal>
0

> <r_i_glide_rewards>
-3.0461025

> <r_i_glide_evdw>
-33.6919403076172

> <r_i_glide_ecoul>
-21.4396305084229

> <r_i_glide_erotb>
1.29566982096907

> <r_i_glide_esite>
-0.110395552301899

> <r_i_glide_emodel>
-81.2178842949953

> <r_i_glide_energy>
-55.13157081604

> <r_i_glide_einternal>
4.26237678527832

> <i_i_glide_confnum>
210

> <i_i_glide_posenum>
73

> <r_i_glide_eff_state_penalty>
0

> <s_user_duplicate_titles>
CHEMBL4338_lig101,293802

> <i_f3d_flags>
0

> <s_m_subgroup_title>
dock_pv

> <s_m_subgroupid>
dock_pv

> <b_m_subgroup_collapsed>
1

$$$$
CHEMBL4338_lig38
                    3D
 Schrodinger Suite 2021-1.
 30 32  0  0  1  0            999 V2000
   13.7543   10.6007   56.2997 C   0  0  0  0  0  0
   14.8926   10.9668   55.6184 C   0  0  0  0  0  0
   13.6518    8.6674   54.9061 N   0  0  0  0  0  0
   13.1079    9.4216   55.8885 C   0  0  0  0  0  0
   15.4393   10.2350   54.6171 N   0  0  0  0  0  0
   13.4701   11.4790   57.3425 N   0  0  0  0  0  0
   14.7901    9.0899   54.3259 C   0  0  0  0  0  0
   14.3905   12.3703   57.3607 C   0  0  0  0  0  0
   14.3431   13.1361   59.7867 C   0  0  0  0  0  0
   15.4111   12.2145   56.2357 C   0  0  0  0  0  0
   14.5126   13.5288   58.3367 C   0  0  0  0  0  0
   15.3292   12.8578   60.7440 C   0  0  0  0  0  0
   12.7487   13.1100   60.4953 S   0  0  0  0  0  0
   13.3982   12.7441   62.0424 C   0  0  0  0  0  0
   11.9589    9.0330   56.5059 O   0  0  0  0  0  0
   14.7706   12.6332   62.0078 C   0  0  0  0  0  0
   15.3540    8.2330   53.4023 N   0  0  0  0  0  0
   16.8089   12.7415   60.4499 C   0  0  0  0  0  0
   15.3802   13.0650   55.5541 H   0  0  0  0  0  0
   16.4221   12.1038   56.6281 H   0  0  0  0  0  0
   13.7546   14.2687   58.1061 H   0  0  0  0  0  0
   15.4730   14.0229   58.1931 H   0  0  0  0  0  0
   12.7544   12.6330   62.9014 H   0  0  0  0  0  0
   11.7444    8.1511   56.1666 H   0  0  0  0  0  0
   15.3535   12.3999   62.8855 H   0  0  0  0  0  0
   16.1849    8.5037   52.8929 H   0  0  0  0  0  0
   14.8641    7.3514   53.2637 H   0  0  0  0  0  0
   17.2848   13.7189   60.3677 H   0  0  0  0  0  0
   17.3418   12.1587   61.2032 H   0  0  0  0  0  0
   16.9793   12.2308   59.5019 H   0  0  0  0  0  0
  1  2  2  0  0  0
  1  4  1  0  0  0
  1  6  1  0  0  0
  2  5  1  0  0  0
  2 10  1  0  0  0
  3  4  2  0  0  0
  3  7  1  0  0  0
  4 15  1  0  0  0
  5  7  2  0  0  0
  6  8  2  0  0  0
  7 17  1  0  0  0
  8 11  1  0  0  0
  8 10  1  0  0  0
  9 11  1  0  0  0
  9 12  2  0  0  0
  9 13  1  0  0  0
 10 19  1  0  0  0
 10 20  1  0  0  0
 11 21  1  0  0  0
 11 22  1  0  0  0
 12 16  1  0  0  0
 12 18  1  0  0  0
 13 14  1  0  0  0
 14 16  2  0  0  0
 14 23  1  0  0  0
 15 24  1  0  0  0
 16 25  1  0  0  0
 17 26  1  0  0  0
 17 27  1  0  0  0
 18 28  1  0  0  0
 18 29  1  0  0  0
 18 30  1  0  0  0
M  END
> <s_m_entry_id>
11834

> <s_m_entry_name>
dock_pv.37

> <s_m_Source_Path>
/home/csk/Desktop/cluster/DUD-E-result/pnph

> <s_m_Source_File>
dock_pv.maegz

> <i_m_Source_File_Index>
37

> <chembl_id>
CHEMBL159409

> <chembl_pref_name>
None

> <i_lp_mmshare_version>
53161

> <r_lp_tautomer_probability>
0.999601159137504

> <s_lp_Force_Field>
OPLS_2005

> <r_lp_Energy>
12.989652

> <b_lp_Chiralities_Consistent>
1

> <s_lp_Variant>
CHEMBL4338_lig38-1

> <s_i_glide_gridfile>
glide-grid_3bgs

> <i_i_glide_lignum>
46

> <i_i_glide_rotatable_bonds>
3

> <r_i_docking_score>
-8.55076533356412

> <r_i_glide_ligand_efficiency>
-0.47504251853134

> <r_i_glide_ligand_efficiency_sa>
-1.24496359112486

> <r_i_glide_ligand_efficiency_ln>
-2.19793013770699

> <r_i_glide_gscore>
-8.55076533356412

> <r_i_glide_lipo>
-2.28118524967438

> <r_i_glide_hbond>
-0.850204155406566

> <r_i_glide_metal>
0

> <r_i_glide_rewards>
-2.9494958166054

> <r_i_glide_evdw>
-32.035961151123

> <r_i_glide_ecoul>
-8.89494514465332

> <r_i_glide_erotb>
0.522410641540984

> <r_i_glide_esite>
-0.0562509241646111

> <r_i_glide_emodel>
-60.8873476042195

> <r_i_glide_energy>
-40.9309062957764

> <r_i_glide_einternal>
2.47418594360352

> <i_i_glide_confnum>
4

> <i_i_glide_posenum>
125

> <r_i_glide_eff_state_penalty>
0

> <s_user_duplicate_titles>
CHEMBL4338_lig38,267913

> <i_f3d_flags>
0

> <s_m_subgroup_title>
dock_pv

> <s_m_subgroupid>
dock_pv

> <b_m_subgroup_collapsed>
1

$$$$
CHEMBL4338_lig45
                    3D
 Schrodinger Suite 2021-1.
 26 28  0  0  1  0            999 V2000
   14.8726   11.0178   55.7062 C   0  0  0  0  0  0
   13.7561   10.5863   56.4126 C   0  0  0  0  0  0
   15.3540   10.3347   54.6251 N   0  0  0  0  0  0
   13.6408    8.8098   54.9838 N   0  0  0  0  0  0
   12.9851    9.4330   56.0149 C   0  0  0  0  0  0
   13.6504   11.4146   57.4820 N   0  0  0  0  0  0
   15.4489   12.0476   56.3104 N   0  0  0  0  0  0
   14.7931    9.2100   54.3287 C   0  0  0  0  0  0
   14.7325   12.2578   57.3992 C   0  0  0  0  0  0
   11.8054   13.7726   60.8603 S   0  0  0  0  0  0
   14.0549   13.3358   59.5846 C   0  0  0  0  0  0
   11.9360    9.0330   56.5060 O   0  0  0  0  0  0
   15.0937   13.2593   58.4801 C   0  0  0  0  0  0
   12.7663   13.8392   59.4262 C   0  0  0  0  0  0
   13.1228   13.0362   61.7060 C   0  0  0  0  0  0
   14.2408   12.8806   60.8997 C   0  0  0  0  0  0
   15.3540    8.3593   53.3606 N   0  0  0  0  0  0
   12.9769   11.3589   58.2331 H   0  0  0  0  0  0
   13.2256    7.9253   54.7103 H   0  0  0  0  0  0
   15.2218   14.2330   58.0172 H   0  0  0  0  0  0
   16.0710   13.0164   58.8998 H   0  0  0  0  0  0
   12.3356   14.2330   58.5185 H   0  0  0  0  0  0
   13.0152   12.7656   62.7482 H   0  0  0  0  0  0
   15.1630   12.4401   61.2508 H   0  0  0  0  0  0
   16.0866    8.6947   52.7475 H   0  0  0  0  0  0
   14.8424    7.5555   53.0180 H   0  0  0  0  0  0
  1  7  1  0  0  0
  1  3  1  0  0  0
  1  2  2  0  0  0
  2  5  1  0  0  0
  2  6  1  0  0  0
  3  8  2  0  0  0
  4  8  1  0  0  0
  4 19  1  0  0  0
  4  5  1  0  0  0
  5 12  2  0  0  0
  6  9  1  0  0  0
  6 18  1  0  0  0
  7  9  2  0  0  0
  8 17  1  0  0  0
  9 13  1  0  0  0
 10 14  1  0  0  0
 10 15  1  0  0  0
 11 13  1  0  0  0
 11 14  2  0  0  0
 11 16  1  0  0  0
 13 20  1  0  0  0
 13 21  1  0  0  0
 14 22  1  0  0  0
 15 16  2  0  0  0
 15 23  1  0  0  0
 16 24  1  0  0  0
 17 25  1  0  0  0
 17 26  1  0  0  0
M  END
> <s_m_entry_id>
11835

> <s_m_entry_name>
dock_pv.38

> <s_m_Source_Path>
/home/csk/Desktop/cluster/DUD-E-result/pnph

> <s_m_Source_File>
dock_pv.maegz

> <i_m_Source_File_Index>
38

> <chembl_id>
CHEMBL159525

> <chembl_pref_name>
None

> <i_lp_mmshare_version>
53161

> <r_lp_tautomer_probability>
0.116206038698038

> <s_lp_Force_Field>
OPLS_2005

> <r_lp_Energy>
17.177316

> <b_lp_Chiralities_Consistent>
1

> <s_lp_Variant>
CHEMBL4338_lig45-2

> <s_i_glide_gridfile>
glide-grid_3bgs

> <i_i_glide_lignum>
56

> <i_i_glide_rotatable_bonds>
2

> <r_i_docking_score>
-8.54030129973631

> <r_i_glide_ligand_efficiency>
-0.502370664690371

> <r_i_glide_ligand_efficiency_sa>
-1.29173644058517

> <r_i_glide_ligand_efficiency_ln>
-2.22797442594186

> <r_i_glide_gscore>
-8.54030129973631

> <r_i_glide_lipo>
-1.6313357712042

> <r_i_glide_hbond>
-0.886075176675258

> <r_i_glide_metal>
0

> <r_i_glide_rewards>
-3.32321024966267

> <r_i_glide_evdw>
-34.0284652709961

> <r_i_glide_ecoul>
-9.62240314483643

> <r_i_glide_erotb>
0.570604580029327

> <r_i_glide_esite>
-0.125500946948245

> <r_i_glide_emodel>
-63.7318705483644

> <r_i_glide_energy>
-43.6508684158325

> <r_i_glide_einternal>
2.63441300392151

> <i_i_glide_confnum>
5

> <i_i_glide_posenum>
31

> <r_i_glide_eff_state_penalty>
0

> <s_user_duplicate_titles>
CHEMBL4338_lig45,CHEMBL4338_lig45,267914

> <i_f3d_flags>
0

> <s_m_subgroup_title>
dock_pv

> <s_m_subgroupid>
dock_pv

> <b_m_subgroup_collapsed>
1

$$$$
CHEMBL4338_lig63
                    3D
 Schrodinger Suite 2021-1.
 37 39  0  0  1  0            999 V2000
   14.6060   14.8987   62.6207 C   0  0  0  0  0  0
   14.4713   16.2248   63.1309 C   0  0  0  0  0  0
   13.5173   14.6457   61.7060 C   0  0  0  0  0  0
   16.3920   15.8791   64.4585 N   0  0  0  0  0  0
   15.4007   16.7098   64.0600 C   0  0  0  0  0  0
   15.6009   14.1009   63.0242 N   0  0  0  0  0  0
   13.3510   16.7562   62.5357 N   0  0  0  0  0  0
   16.4407   14.6402   63.9322 C   0  0  0  0  0  0
   12.7972   15.8330   61.6868 C   0  0  0  0  0  0
   13.1860   13.3204   61.0252 C   0  0  2  0  0  0
   14.2990   12.7415   60.1421 C   0  0  0  0  0  0
   15.2507   17.9939   64.5060 O   0  0  0  0  0  0
   14.5452   13.2089   58.8431 C   0  0  0  0  0  0
   17.4631   13.8330   64.3813 N   0  0  0  0  0  0
   15.4563   12.5527   58.0171 C   0  0  0  0  0  0
   15.6567   13.0330   56.3724 Cl  0  0  0  0  0  0
   15.0560   11.6669   60.6226 C   0  0  0  0  0  0
   11.7760   13.2626   60.3780 C   0  0  0  0  0  0
   10.1540   14.2330   58.9060 O   0  0  0  0  0  0
   16.0189   11.0546   59.8229 C   0  0  0  0  0  0
   16.2093   11.4945   58.5167 C   0  0  0  0  0  0
   11.5321   14.0693   59.0960 C   0  0  0  0  0  0
   12.9628   17.6799   62.6732 H   0  0  0  0  0  0
   11.8846   16.0815   61.1655 H   0  0  0  0  0  0
   13.0934   12.6269   61.8651 H   0  0  0  0  0  0
   14.6003   18.4973   64.0051 H   0  0  0  0  0  0
   14.0179   14.0598   58.4462 H   0  0  0  0  0  0
   17.4781   12.8782   64.0607 H   0  0  0  0  0  0
   18.0021   14.1556   65.1691 H   0  0  0  0  0  0
   14.8976   11.3030   61.6265 H   0  0  0  0  0  0
   11.5747   12.2330   60.1060 H   0  0  0  0  0  0
   11.0401   13.5262   61.1413 H   0  0  0  0  0  0
    9.7857   14.7092   59.6660 H   0  0  0  0  0  0
   16.6034   10.2330   60.2109 H   0  0  0  0  0  0
   16.9539   11.0330   57.8889 H   0  0  0  0  0  0
   11.9981   15.0522   59.1368 H   0  0  0  0  0  0
   11.9352   13.5448   58.2296 H   0  0  0  0  0  0
  1  2  1  0  0  0
  1  3  1  0  0  0
  1  6  2  0  0  0
  2  5  2  0  0  0
  2  7  1  0  0  0
  3  9  2  0  0  0
  3 10  1  0  0  0
  4  8  2  0  0  0
  4  5  1  0  0  0
  5 12  1  0  0  0
  6  8  1  0  0  0
  7  9  1  0  0  0
  7 23  1  0  0  0
  8 14  1  0  0  0
  9 24  1  0  0  0
 10 11  1  0  0  0
 10 18  1  0  0  0
 10 25  1  0  0  0
 11 13  1  0  0  0
 11 17  2  0  0  0
 12 26  1  0  0  0
 13 15  2  0  0  0
 13 27  1  0  0  0
 14 28  1  0  0  0
 14 29  1  0  0  0
 15 16  1  0  0  0
 15 21  1  0  0  0
 17 20  1  0  0  0
 17 30  1  0  0  0
 18 22  1  0  0  0
 18 31  1  0  0  0
 18 32  1  0  0  0
 19 22  1  0  0  0
 19 33  1  0  0  0
 20 21  2  0  0  0
 20 34  1  0  0  0
 21 35  1  0  0  0
 22 36  1  0  0  0
 22 37  1  0  0  0
M  END
> <s_m_entry_id>
11836

> <s_m_entry_name>
dock_pv.39

> <s_m_Source_Path>
/home/csk/Desktop/cluster/DUD-E-result/pnph

> <s_m_Source_File>
dock_pv.maegz

> <i_m_Source_File_Index>
39

> <chembl_id>
CHEMBL331949

> <chembl_pref_name>
None

> <i_lp_mmshare_version>
53161

> <r_lp_tautomer_probability>
1

> <s_lp_Force_Field>
OPLS_2005

> <r_lp_Energy>
6.37535

> <b_lp_Chiralities_Consistent>
1

> <s_lp_Variant>
CHEMBL4338_lig63-1

> <s_i_glide_gridfile>
glide-grid_3bgs

> <i_i_glide_lignum>
80

> <i_i_glide_rotatable_bonds>
6

> <r_i_docking_score>
-8.51239158615209

> <r_i_glide_ligand_efficiency>
-0.38692689027964

> <r_i_glide_ligand_efficiency_sa>
-1.08418436353465

> <r_i_glide_ligand_efficiency_ln>
-2.0807390006829

> <r_i_glide_gscore>
-8.51239158615209

> <r_i_glide_lipo>
-2.46915583564245

> <r_i_glide_hbond>
-1.3094504323337

> <r_i_glide_metal>
0

> <r_i_glide_rewards>
-1.46305576725293

> <r_i_glide_evdw>
-33.9593658447266

> <r_i_glide_ecoul>
-15.3796033859253

> <r_i_glide_erotb>
0.734179249202114

> <r_i_glide_esite>
0

> <r_i_glide_emodel>
-70.297547002566

> <r_i_glide_energy>
-49.3389692306519

> <r_i_glide_einternal>
2.15301513671875

> <i_i_glide_confnum>
12

> <i_i_glide_posenum>
117

> <r_i_glide_eff_state_penalty>
0

> <s_user_duplicate_titles>
CHEMBL4338_lig63,204866

> <i_f3d_flags>
0

> <s_m_subgroup_title>
dock_pv

> <s_m_subgroupid>
dock_pv

> <b_m_subgroup_collapsed>
1

$$$$
CHEMBL4338_lig39
                    3D
 Schrodinger Suite 2021-1.
 26 28  0  0  1  0            999 V2000
   14.8233   10.9238   55.5885 C   0  0  0  0  0  0
   13.7246   10.6043   56.3359 C   0  0  0  0  0  0
   15.3540   10.2330   54.5414 N   0  0  0  0  0  0
   13.5926    8.7462   55.0029 N   0  0  0  0  0  0
   12.9540    9.4285   56.0049 C   0  0  0  0  0  0
   13.5434   11.4693   57.3432 N   0  0  0  0  0  0
   15.3479   12.0236   56.1812 N   0  0  0  0  0  0
   14.7422    9.1158   54.3270 C   0  0  0  0  0  0
   14.5597   12.2903   57.2390 C   0  0  0  0  0  0
   14.8111   13.4330   58.1511 C   0  0  0  0  0  0
   14.5899   13.1447   59.6208 C   0  0  0  0  0  0
   12.9837   13.0378   60.3033 S   0  0  0  0  0  0
   11.9047    9.0330   56.5060 O   0  0  0  0  0  0
   13.6144   12.7702   61.8893 C   0  0  0  0  0  0
   15.5380   12.9757   60.6277 C   0  0  0  0  0  0
   15.2198    8.2330   53.4506 N   0  0  0  0  0  0
   14.9949   12.7740   61.8972 C   0  0  0  0  0  0
   13.1617    7.8602   54.7613 H   0  0  0  0  0  0
   14.1540   14.2330   57.8378 H   0  0  0  0  0  0
   15.8172   13.8132   57.9924 H   0  0  0  0  0  0
   16.0378    8.4635   52.9029 H   0  0  0  0  0  0
   12.9540   12.6330   62.7345 H   0  0  0  0  0  0
   16.6016   13.0081   60.4436 H   0  0  0  0  0  0
   14.7531    7.3343   53.3312 H   0  0  0  0  0  0
   16.1852   12.5163   55.9126 H   0  0  0  0  0  0
   15.5865   12.6330   62.7891 H   0  0  0  0  0  0
  1  7  1  0  0  0
  1  3  1  0  0  0
  1  2  2  0  0  0
  2  5  1  0  0  0
  2  6  1  0  0  0
  3  8  2  0  0  0
  4  8  1  0  0  0
  4 18  1  0  0  0
  4  5  1  0  0  0
  5 13  2  0  0  0
  6  9  2  0  0  0
  7  9  1  0  0  0
  7 25  1  0  0  0
  8 16  1  0  0  0
  9 10  1  0  0  0
 10 11  1  0  0  0
 10 19  1  0  0  0
 10 20  1  0  0  0
 11 12  1  0  0  0
 11 15  2  0  0  0
 12 14  1  0  0  0
 14 17  2  0  0  0
 14 22  1  0  0  0
 15 17  1  0  0  0
 15 23  1  0  0  0
 16 24  1  0  0  0
 16 21  1  0  0  0
 17 26  1  0  0  0
M  END
> <s_m_entry_id>
11837

> <s_m_entry_name>
dock_pv.40

> <s_m_Source_Path>
/home/csk/Desktop/cluster/DUD-E-result/pnph

> <s_m_Source_File>
dock_pv.maegz

> <i_m_Source_File_Index>
40

> <chembl_id>
CHEMBL159889

> <chembl_pref_name>
None

> <i_lp_mmshare_version>
53161

> <r_lp_tautomer_probability>
0.882445856688025

> <s_lp_Force_Field>
OPLS_2005

> <r_lp_Energy>
3.052735

> <b_lp_Chiralities_Consistent>
1

> <s_lp_Variant>
CHEMBL4338_lig39-1

> <s_i_glide_gridfile>
glide-grid_3bgs

> <i_i_glide_lignum>
47

> <i_i_glide_rotatable_bonds>
2

> <r_i_docking_score>
-8.49758877045249

> <r_i_glide_ligand_efficiency>
-0.499858162967794

> <r_i_glide_ligand_efficiency_sa>
-1.28527609116551

> <r_i_glide_ligand_efficiency_ln>
-2.21683167821297

> <r_i_glide_gscore>
-8.49758877045249

> <r_i_glide_lipo>
-1.65587821446669

> <r_i_glide_hbond>
-0.860180623513803

> <r_i_glide_metal>
0

> <r_i_glide_rewards>
-3.34300013710004

> <r_i_glide_evdw>
-34.2241020202637

> <r_i_glide_ecoul>
-8.81833457946777

> <r_i_glide_erotb>
0.570604580029327

> <r_i_glide_esite>
-0.175179087467945

> <r_i_glide_emodel>
-65.7443698644739

> <r_i_glide_energy>
-43.0424365997314

> <r_i_glide_einternal>
0.59353506565094

> <i_i_glide_confnum>
4

> <i_i_glide_posenum>
267

> <r_i_glide_eff_state_penalty>
0

> <s_user_duplicate_titles>
CHEMBL4338_lig39,CHEMBL4338_lig39,267416

> <i_f3d_flags>
0

> <s_m_subgroup_title>
dock_pv

> <s_m_subgroupid>
dock_pv

> <b_m_subgroup_collapsed>
1

$$$$
CHEMBL4338_lig147
                    3D
 Schrodinger Suite 2021-1.
 44 46  0  0  1  0            999 V2000
   15.6234   14.9685   65.6136 C   0  0  0  0  0  0
   15.0789   16.1806   65.9495 C   0  0  0  0  0  0
   15.7756   13.8719   66.4179 N   0  0  0  0  0  0
   15.9791   15.0890   64.2975 N   0  0  0  0  0  0
   14.7432   15.2438   68.0253 N   0  0  0  0  0  0
   15.0455   17.0143   64.8950 N   0  0  0  0  0  0
   14.6120   16.4051   67.3060 C   0  0  0  0  0  0
   15.3095   14.0515   67.6089 C   0  0  0  0  0  0
   15.5951   16.3269   63.9210 C   0  0  0  0  0  0
   12.3590   15.5237   60.9319 P   0  0  0  0  0  0
   16.7451   14.1227   63.4875 C   0  0  0  0  0  0
   11.9055   13.7467   60.9064 C   0  0  0  0  0  0
   14.1540   17.4330   67.7999 O   0  0  0  0  0  0
   13.4647   16.0281   60.0818 O   0  0  0  0  0  0
   15.3540   13.0641   68.5060 N   0  0  0  0  0  0
   16.1971   13.8620   62.0889 C   0  0  0  0  0  0
   10.9540   16.2330   60.5965 O   0  0  0  0  0  0
   12.5540   15.8330   62.5060 O   0  0  0  0  0  0
   15.2765   12.8347   61.8536 C   0  0  0  0  0  0
   14.8277   12.5592   60.5539 C   0  0  0  0  0  0
   12.1541   13.1658   59.4953 C   0  0  0  0  0  0
   12.7049   11.8452   59.4422 O   0  0  0  0  0  0
   16.1924   14.3704   59.7253 C   0  0  0  0  0  0
   16.6441   14.6330   61.0154 C   0  0  0  0  0  0
   13.7836   11.4657   60.3167 C   0  0  0  0  0  0
   15.3181   13.3150   59.4865 C   0  0  0  0  0  0
   15.7575   16.6787   62.9125 H   0  0  0  0  0  0
   16.8083   13.2016   64.0602 H   0  0  0  0  0  0
   17.7539   14.5333   63.4442 H   0  0  0  0  0  0
   12.5026   13.2579   61.6703 H   0  0  0  0  0  0
   10.8702   13.6082   61.2113 H   0  0  0  0  0  0
   14.3911   15.2933   68.9692 H   0  0  0  0  0  0
   15.8998   12.2425   68.3042 H   0  0  0  0  0  0
   14.7603   13.0621   69.3323 H   0  0  0  0  0  0
   10.0903   15.8330   60.9060 H   0  0  0  0  0  0
   12.1540   15.1831   63.1356 H   0  0  0  0  0  0
   14.9147   12.2451   62.6842 H   0  0  0  0  0  0
   11.2212   13.1677   58.9334 H   0  0  0  0  0  0
   12.8062   13.8086   58.9060 H   0  0  0  0  0  0
   16.5540   14.9776   58.9079 H   0  0  0  0  0  0
   17.3515   15.4330   61.1712 H   0  0  0  0  0  0
   13.3540   11.1483   61.2683 H   0  0  0  0  0  0
   14.2733   10.5834   59.9052 H   0  0  0  0  0  0
   14.9899   13.1131   58.4770 H   0  0  0  0  0  0
  1  4  1  0  0  0
  1  3  1  0  0  0
  1  2  2  0  0  0
  2  7  1  0  0  0
  2  6  1  0  0  0
  3  8  2  0  0  0
  4  9  1  0  0  0
  4 11  1  0  0  0
  5  8  1  0  0  0
  5 32  1  0  0  0
  5  7  1  0  0  0
  6  9  2  0  0  0
  7 13  2  0  0  0
  8 15  1  0  0  0
  9 27  1  0  0  0
 10 12  1  0  0  0
 10 14  2  0  0  0
 10 17  1  0  0  0
 10 18  1  0  0  0
 11 16  1  0  0  0
 11 28  1  0  0  0
 11 29  1  0  0  0
 12 21  1  0  0  0
 12 30  1  0  0  0
 12 31  1  0  0  0
 15 33  1  0  0  0
 15 34  1  0  0  0
 16 19  2  0  0  0
 16 24  1  0  0  0
 17 35  1  0  0  0
 18 36  1  0  0  0
 19 20  1  0  0  0
 19 37  1  0  0  0
 20 25  1  0  0  0
 20 26  2  0  0  0
 21 22  1  0  0  0
 21 38  1  0  0  0
 21 39  1  0  0  0
 22 25  1  0  0  0
 23 24  2  0  0  0
 23 26  1  0  0  0
 23 40  1  0  0  0
 24 41  1  0  0  0
 25 42  1  0  0  0
 25 43  1  0  0  0
 26 44  1  0  0  0
M  END
> <s_m_entry_id>
11838

> <s_m_entry_name>
dock_pv.41

> <s_m_Source_Path>
/home/csk/Desktop/cluster/DUD-E-result/pnph

> <s_m_Source_File>
dock_pv.maegz

> <i_m_Source_File_Index>
41

> <chembl_id>
CHEMBL119243

> <chembl_pref_name>
None

> <i_lp_mmshare_version>
53161

> <r_lp_tautomer_probability>
0.999940409345307

> <s_lp_Force_Field>
OPLS_2005

> <r_lp_Energy>
5.051578

> <b_lp_Chiralities_Consistent>
1

> <s_lp_Variant>
CHEMBL4338_lig147-1

> <s_i_glide_gridfile>
glide-grid_3bgs

> <i_i_glide_lignum>
192

> <i_i_glide_rotatable_bonds>
9

> <r_i_docking_score>
-8.49387727960979

> <r_i_glide_ligand_efficiency>
-0.326687587677299

> <r_i_glide_ligand_efficiency_sa>
-0.967810693040414

> <r_i_glide_ligand_efficiency_ln>
-1.99475920843177

> <r_i_glide_gscore>
-8.49387727960979

> <r_i_glide_lipo>
-1.87830389414177

> <r_i_glide_hbond>
-0.589404362549556

> <r_i_glide_metal>
0

> <r_i_glide_rewards>
-1.37645776415053

> <r_i_glide_evdw>
-31.8605842590332

> <r_i_glide_ecoul>
-28.6866626739502

> <r_i_glide_erotb>
0.943317954183731

> <r_i_glide_esite>
0

> <r_i_glide_emodel>
-85.6257244267431

> <r_i_glide_energy>
-60.5472469329834

> <r_i_glide_einternal>
7.11193943023682

> <i_i_glide_confnum>
146

> <i_i_glide_posenum>
245

> <r_i_glide_eff_state_penalty>
0

> <s_user_duplicate_titles>
CHEMBL4338_lig147,192020

> <i_f3d_flags>
0

> <s_m_subgroup_title>
dock_pv

> <s_m_subgroupid>
dock_pv

> <b_m_subgroup_collapsed>
1

$$$$
CHEMBL4338_lig18
                    3D
 Schrodinger Suite 2021-1.
 40 42  0  0  1  0            999 V2000
   14.0587   10.9875   56.4511 C   0  0  0  0  0  0
   14.8510   10.6227   55.4052 C   0  0  0  0  0  0
   12.4630   14.8444   60.1098 C   0  0  0  0  0  0
   12.9623   10.3437   56.9288 N   0  0  0  0  0  0
   14.5875   12.1581   56.8924 N   0  0  0  0  0  0
   12.4721   16.0334   61.4807 P   0  0  0  0  0  0
   13.4020    8.8771   55.1409 N   0  0  0  0  0  0
   15.8946   11.4459   55.3060 N   0  0  0  0  0  0
   14.5469    9.4330   54.6407 C   0  0  0  0  0  0
   12.6512    9.3274   56.2101 C   0  0  0  0  0  0
   15.6752   12.4014   56.1533 C   0  0  0  0  0  0
   12.7228   13.3927   60.5543 C   0  0  1  0  0  0
   14.1985   13.0212   60.5338 C   0  0  0  0  0  0
   14.1269   12.9743   57.9918 C   0  0  0  0  0  0
   14.8329   12.7008   59.3222 C   0  0  0  0  0  0
   12.1540   17.4323   60.7351 O   0  0  0  0  0  0
   11.0430   15.6765   62.1060 O   0  0  0  0  0  0
   13.5953   16.0752   62.4543 O   0  0  0  0  0  0
   11.2621   14.9634   59.5509 F   0  0  0  0  0  0
   13.3540   15.3891   59.3060 F   0  0  0  0  0  0
   15.1696    8.9402   53.7060 O   0  0  0  0  0  0
   11.5700    8.6330   56.5060 N   0  0  0  0  0  0
   12.1540   13.0534   61.7060 F   0  0  0  0  0  0
   14.9321   13.0065   61.7227 C   0  0  0  0  0  0
   16.1540   12.2302   59.3489 C   0  0  0  0  0  0
   16.2719   12.6330   61.7079 C   0  0  0  0  0  0
   16.8694   12.1930   60.5362 C   0  0  0  0  0  0
   16.2980   13.2678   56.3234 H   0  0  0  0  0  0
   12.2019   12.7167   59.8794 H   0  0  0  0  0  0
   13.0468   12.8485   57.9922 H   0  0  0  0  0  0
   14.3344   13.9953   57.6797 H   0  0  0  0  0  0
   11.3720   17.3777   60.1536 H   0  0  0  0  0  0
   11.1131   15.0473   62.8632 H   0  0  0  0  0  0
   13.1195    8.0120   54.6936 H   0  0  0  0  0  0
   10.9147    8.9523   57.2001 H   0  0  0  0  0  0
   11.4569    7.6956   56.0942 H   0  0  0  0  0  0
   14.4684   13.2862   62.6589 H   0  0  0  0  0  0
   16.6631   11.9112   58.4543 H   0  0  0  0  0  0
   16.8385   12.6334   62.6254 H   0  0  0  0  0  0
   17.8853   11.8327   60.5477 H   0  0  0  0  0  0
  1  5  1  0  0  0
  1  4  1  0  0  0
  1  2  2  0  0  0
  2  9  1  0  0  0
  2  8  1  0  0  0
  3 12  1  0  0  0
  3  6  1  0  0  0
  3 19  1  0  0  0
  3 20  1  0  0  0
  4 10  2  0  0  0
  5 11  1  0  0  0
  5 14  1  0  0  0
  6 16  1  0  0  0
  6 17  1  0  0  0
  6 18  2  0  0  0
  7 10  1  0  0  0
  7 34  1  0  0  0
  7  9  1  0  0  0
  8 11  2  0  0  0
  9 21  2  0  0  0
 10 22  1  0  0  0
 11 28  1  0  0  0
 12 13  1  0  0  0
 12 23  1  0  0  0
 12 29  1  0  0  0
 13 15  1  0  0  0
 13 24  2  0  0  0
 14 15  1  0  0  0
 14 30  1  0  0  0
 14 31  1  0  0  0
 15 25  2  0  0  0
 16 32  1  0  0  0
 17 33  1  0  0  0
 22 35  1  0  0  0
 22 36  1  0  0  0
 24 26  1  0  0  0
 24 37  1  0  0  0
 25 27  1  0  0  0
 25 38  1  0  0  0
 26 27  2  0  0  0
 26 39  1  0  0  0
 27 40  1  0  0  0
M  END
> <s_m_entry_id>
11839

> <s_m_entry_name>
dock_pv.42

> <s_m_Source_Path>
/home/csk/Desktop/cluster/DUD-E-result/pnph

> <s_m_Source_File>
dock_pv.maegz

> <i_m_Source_File_Index>
42

> <chembl_id>
CHEMBL1161035

> <chembl_pref_name>
None

> <i_lp_mmshare_version>
53161

> <r_lp_tautomer_probability>
0.999940409345307

> <s_lp_Force_Field>
OPLS_2005

> <r_lp_Energy>
7.301661

> <b_lp_Chiralities_Consistent>
1

> <s_lp_Variant>
CHEMBL4338_lig18-2

> <s_i_glide_gridfile>
glide-grid_3bgs

> <i_i_glide_lignum>
20

> <i_i_glide_rotatable_bonds>
7

> <r_i_docking_score>
-8.4616790052125

> <r_i_glide_ligand_efficiency>
-0.313395518711574

> <r_i_glide_ligand_efficiency_sa>
-0.940186555101822

> <r_i_glide_ligand_efficiency_ln>
-1.96973937073242

> <r_i_glide_gscore>
-8.4616790052125

> <r_i_glide_lipo>
-2.34274540481088

> <r_i_glide_hbond>
-0.57503518927027

> <r_i_glide_metal>
0

> <r_i_glide_rewards>
-2.53432743065653

> <r_i_glide_evdw>
-27.5727062225342

> <r_i_glide_ecoul>
-13.385705947876

> <r_i_glide_erotb>
0.603631557766669

> <r_i_glide_esite>
-0.226711334933384

> <r_i_glide_emodel>
-50.0364897531802

> <r_i_glide_energy>
-40.9584121704102

> <r_i_glide_einternal>
8.68732070922852

> <i_i_glide_confnum>
91

> <i_i_glide_posenum>
273

> <r_i_glide_eff_state_penalty>
0

> <s_user_duplicate_titles>
CHEMBL4338_lig18

> <i_f3d_flags>
0

> <s_m_subgroup_title>
dock_pv

> <s_m_subgroupid>
dock_pv

> <b_m_subgroup_collapsed>
1

$$$$
CHEMBL4338_lig198
                    3D
 Schrodinger Suite 2021-1.
 37 38  0  0  1  0            999 V2000
   15.5619    9.3916   59.7056 C   0  0  0  0  0  0
   15.2790   10.8111   59.5227 N   0  0  1  0  0  0
   13.9875   10.9916   58.8357 C   0  0  0  0  0  0
   14.0260   12.2109   57.8717 C   0  0  2  0  0  0
   12.7038   12.6330   57.6095 O   0  0  0  0  0  0
   14.8294   11.9839   56.5705 C   0  0  0  0  0  0
   14.3398   10.8339   55.6719 C   0  0  0  0  0  0
   15.2440   10.6291   54.6085 O   0  0  0  0  0  0
   15.3078   11.4304   60.8595 C   0  0  0  0  0  0
   15.0747   12.9166   60.8319 C   0  0  0  0  0  0
   16.0306   13.9109   60.6547 C   0  0  0  0  0  0
   15.3955   15.1125   60.5066 N   0  0  0  0  0  0
   14.0472   14.9190   60.6190 C   0  0  0  0  0  0
   12.9332   15.8377   60.4257 C   0  0  0  0  0  0
   12.9540   17.0226   60.1061 O   0  0  0  0  0  0
   11.7531   15.1677   60.6058 N   0  0  0  0  0  0
   11.5748   13.8329   60.9058 C   0  0  0  0  0  0
   12.5791   13.0458   61.0847 N   0  0  0  0  0  0
   13.8305   13.5734   60.9132 C   0  0  0  0  0  0
   15.3541    8.8175   58.8029 H   0  0  0  0  0  0
   16.6118    9.2450   59.9610 H   0  0  0  0  0  0
   14.9540    8.9633   60.5007 H   0  0  0  0  0  0
   13.1781   11.0775   59.5605 H   0  0  0  0  0  0
   13.7255   10.1051   58.2606 H   0  0  0  0  0  0
   14.4796   13.0664   58.3628 H   0  0  0  0  0  0
   12.7183   13.5488   57.2949 H   0  0  0  0  0  0
   15.8694   11.8006   56.8450 H   0  0  0  0  0  0
   14.8382   12.9087   55.9918 H   0  0  0  0  0  0
   13.3316   11.0291   55.3065 H   0  0  0  0  0  0
   14.2615    9.9009   56.2279 H   0  0  0  0  0  0
   14.9912    9.8204   54.1501 H   0  0  0  0  0  0
   14.5582   10.9652   61.5029 H   0  0  0  0  0  0
   16.2822   11.2294   61.3059 H   0  0  0  0  0  0
   17.1028   13.8461   60.5421 H   0  0  0  0  0  0
   15.8518   15.9948   60.2975 H   0  0  0  0  0  0
   10.9190   15.7296   60.5062 H   0  0  0  0  0  0
   10.5548   13.4736   61.0056 H   0  0  0  0  0  0
  1  2  1  0  0  0
  1 20  1  0  0  0
  1 21  1  0  0  0
  1 22  1  0  0  0
  2  3  1  0  0  0
  2  9  1  0  0  0
  3  4  1  0  0  0
  3 23  1  0  0  0
  3 24  1  0  0  0
  4  5  1  0  0  0
  4  6  1  0  0  0
  4 25  1  0  0  0
  5 26  1  0  0  0
  6  7  1  0  0  0
  6 27  1  0  0  0
  6 28  1  0  0  0
  7  8  1  0  0  0
  7 29  1  0  0  0
  7 30  1  0  0  0
  8 31  1  0  0  0
  9 10  1  0  0  0
  9 32  1  0  0  0
  9 33  1  0  0  0
 10 11  2  0  0  0
 10 19  1  0  0  0
 11 12  1  0  0  0
 11 34  1  0  0  0
 12 13  1  0  0  0
 12 35  1  0  0  0
 13 14  1  0  0  0
 13 19  2  0  0  0
 14 15  2  0  0  0
 14 16  1  0  0  0
 16 17  1  0  0  0
 16 36  1  0  0  0
 17 18  2  0  0  0
 17 37  1  0  0  0
 18 19  1  0  0  0
M  END
> <s_m_entry_id>
11840

> <s_m_entry_name>
dock_pv.43

> <s_m_Source_Path>
/home/csk/Desktop/cluster/DUD-E-result/pnph

> <s_m_Source_File>
dock_pv.maegz

> <i_m_Source_File_Index>
43

> <chembl_id>
CHEMBL453099

> <chembl_pref_name>
None

> <i_lp_mmshare_version>
53161

> <r_lp_tautomer_probability>
1

> <s_lp_Force_Field>
OPLS_2005

> <r_lp_Energy>
25.970274

> <b_lp_Chiralities_Consistent>
1

> <s_lp_Variant>
CHEMBL4338_lig198-1

> <s_i_glide_gridfile>
glide-grid_3bgs

> <i_i_glide_lignum>
265

> <i_i_glide_rotatable_bonds>
8

> <r_i_docking_score>
-8.44502938106642

> <r_i_glide_ligand_efficiency>
-0.444475230582443

> <r_i_glide_ligand_efficiency_sa>
-1.18603843693819

> <r_i_glide_ligand_efficiency_ln>
-2.14099633070026

> <r_i_glide_gscore>
-8.44502938106642

> <r_i_glide_lipo>
-2.56201855697616

> <r_i_glide_hbond>
-1.37452870228468

> <r_i_glide_metal>
0

> <r_i_glide_rewards>
-1.85227020574627

> <r_i_glide_evdw>
-32.3034782409668

> <r_i_glide_ecoul>
-15.3125982284546

> <r_i_glide_erotb>
1.25585173025721

> <r_i_glide_esite>
0

> <r_i_glide_emodel>
-66.4048045120572

> <r_i_glide_energy>
-47.6160764694214

> <r_i_glide_einternal>
8.61673736572266

> <i_i_glide_confnum>
240

> <i_i_glide_posenum>
354

> <r_i_glide_eff_state_penalty>
0

> <s_user_duplicate_titles>
CHEMBL4338_lig198,455091

> <i_f3d_flags>
0

> <s_m_subgroup_title>
dock_pv

> <s_m_subgroupid>
dock_pv

> <b_m_subgroup_collapsed>
1

$$$$
CHEMBL4338_lig140
                    3D
 Schrodinger Suite 2021-1.
 41 43  0  0  1  0            999 V2000
   14.0422   11.0009   57.0951 C   0  0  0  0  0  0
   14.8093   11.0327   55.9607 C   0  0  0  0  0  0
   12.9540   10.2358   57.3394 N   0  0  0  0  0  0
   14.7020   11.7579   58.0066 N   0  0  0  0  0  0
   13.4413    9.3311   55.2266 N   0  0  0  0  0  0
   15.8738   11.8329   56.1137 N   0  0  0  0  0  0
   14.5543   10.0645   54.9108 C   0  0  0  0  0  0
   12.6873    9.4330   56.3782 C   0  0  0  0  0  0
   15.7935   12.1881   57.3706 C   0  0  0  0  0  0
   15.2151   14.3426   63.4748 P   0  0  0  0  0  0
   14.4162   11.9269   59.4415 C   0  0  0  0  0  0
   13.5404   13.1398   59.7391 C   0  0  0  0  0  0
   15.2356    9.8238   53.9219 O   0  0  0  0  0  0
   15.5538   14.2455   64.9189 O   0  0  0  0  0  0
   16.5778   14.5894   62.2592 C   0  0  0  0  0  0
   11.6511    8.6330   56.5060 N   0  0  0  0  0  0
   14.0577   14.4130   60.0632 C   0  0  0  0  0  0
   14.1540   15.5083   63.1169 O   0  0  0  0  0  0
   14.4624   13.0330   62.9059 O   0  0  0  0  0  0
   16.2734   13.9576   61.0162 O   0  0  0  0  0  0
   15.5539   14.7271   60.0582 C   0  0  0  0  0  0
   12.1574   12.9512   59.7070 C   0  0  0  0  0  0
   13.1675   15.4553   60.3515 C   0  0  0  0  0  0
   11.2888   13.9901   60.0209 C   0  0  0  0  0  0
   11.7929   15.2421   60.3498 C   0  0  0  0  0  0
   16.5539   12.6331   57.9602 H   0  0  0  0  0  0
   13.9348   11.0026   59.7669 H   0  0  0  0  0  0
   15.3767   11.9607   59.9539 H   0  0  0  0  0  0
   13.2143    8.5883   54.5791 H   0  0  0  0  0  0
   17.4480   14.0762   62.6621 H   0  0  0  0  0  0
   16.8477   15.6413   62.1704 H   0  0  0  0  0  0
   10.9945    8.7719   57.2557 H   0  0  0  0  0  0
   11.6401    7.7274   56.0081 H   0  0  0  0  0  0
   13.2276   15.2516   63.3060 H   0  0  0  0  0  0
   14.1540   12.4115   63.6110 H   0  0  0  0  0  0
   15.9408   14.4722   59.0740 H   0  0  0  0  0  0
   15.7362   15.7977   60.1675 H   0  0  0  0  0  0
   11.7604   11.9809   59.4493 H   0  0  0  0  0  0
   13.5389   16.4366   60.6007 H   0  0  0  0  0  0
   10.2202   13.8327   60.0208 H   0  0  0  0  0  0
   11.1132   16.0446   60.5958 H   0  0  0  0  0  0
  1  4  1  0  0  0
  1  3  1  0  0  0
  1  2  2  0  0  0
  2  7  1  0  0  0
  2  6  1  0  0  0
  3  8  2  0  0  0
  4  9  1  0  0  0
  4 11  1  0  0  0
  5  8  1  0  0  0
  5 29  1  0  0  0
  5  7  1  0  0  0
  6  9  2  0  0  0
  7 13  2  0  0  0
  8 16  1  0  0  0
  9 26  1  0  0  0
 10 15  1  0  0  0
 10 14  2  0  0  0
 10 18  1  0  0  0
 10 19  1  0  0  0
 11 12  1  0  0  0
 11 27  1  0  0  0
 11 28  1  0  0  0
 12 17  2  0  0  0
 12 22  1  0  0  0
 15 20  1  0  0  0
 15 30  1  0  0  0
 15 31  1  0  0  0
 16 32  1  0  0  0
 16 33  1  0  0  0
 17 21  1  0  0  0
 17 23  1  0  0  0
 18 34  1  0  0  0
 19 35  1  0  0  0
 20 21  1  0  0  0
 21 36  1  0  0  0
 21 37  1  0  0  0
 22 24  2  0  0  0
 22 38  1  0  0  0
 23 25  2  0  0  0
 23 39  1  0  0  0
 24 25  1  0  0  0
 24 40  1  0  0  0
 25 41  1  0  0  0
M  END
> <s_m_entry_id>
11841

> <s_m_entry_name>
dock_pv.44

> <s_m_Source_Path>
/home/csk/Desktop/cluster/DUD-E-result/pnph

> <s_m_Source_File>
dock_pv.maegz

> <i_m_Source_File_Index>
44

> <chembl_id>
CHEMBL331133

> <chembl_pref_name>
None

> <i_lp_mmshare_version>
53161

> <r_lp_tautomer_probability>
0.999940409345307

> <s_lp_Force_Field>
OPLS_2005

> <r_lp_Energy>
12.956064

> <b_lp_Chiralities_Consistent>
1

> <s_lp_Variant>
CHEMBL4338_lig140-1

> <s_i_glide_gridfile>
glide-grid_3bgs

> <i_i_glide_lignum>
185

> <i_i_glide_rotatable_bonds>
8

> <r_i_docking_score>
-8.41977750548863

> <r_i_glide_ligand_efficiency>
-0.336791100219545

> <r_i_glide_ligand_efficiency_sa>
-0.984783150057546

> <r_i_glide_ligand_efficiency_ln>
-1.99573958917164

> <r_i_glide_gscore>
-8.41977750548863

> <r_i_glide_lipo>
-2.05568651522782

> <r_i_glide_hbond>
-0.423437778360373

> <r_i_glide_metal>
0

> <r_i_glide_rewards>
-2.31127957511122

> <r_i_glide_evdw>
-34.6427536010742

> <r_i_glide_ecoul>
-17.7476902008057

> <r_i_glide_erotb>
0.864917573385342

> <r_i_glide_esite>
-0.1

> <r_i_glide_emodel>
-70.6569573301749

> <r_i_glide_energy>
-52.3904438018799

> <r_i_glide_einternal>
5.70690870285034

> <i_i_glide_confnum>
110

> <i_i_glide_posenum>
258

> <r_i_glide_eff_state_penalty>
0

> <s_user_duplicate_titles>
CHEMBL4338_lig140,191564

> <i_f3d_flags>
0

> <s_m_subgroup_title>
dock_pv

> <s_m_subgroupid>
dock_pv

> <b_m_subgroup_collapsed>
1

$$$$
CHEMBL4338_lig80
                    3D
 Schrodinger Suite 2021-1.
 33 35  0  0  1  0            999 V2000
   12.9320   14.4438   60.8365 C   0  0  1  0  0  0
   12.6436   13.5439   59.6354 C   0  0  2  0  0  0
   13.9534   13.6324   58.8334 C   0  0  1  0  0  0
   15.0181   13.6459   59.8228 N   0  0  1  0  0  0
   14.4622   14.2647   61.0335 C   0  0  2  0  0  0
   14.8615   13.4868   62.3068 C   0  0  0  0  0  0
   14.5541   14.2376   63.4641 O   0  0  0  0  0  0
   12.5539   15.7979   60.6174 O   0  0  0  0  0  0
   11.4594   13.8319   58.9059 O   0  0  0  0  0  0
   14.1745   12.5420   57.7920 C   0  0  0  0  0  0
   15.0896   12.3999   56.7390 C   0  0  0  0  0  0
   13.3525   11.4453   57.7199 N   0  0  0  0  0  0
   13.6683   10.6860   56.6354 C   0  0  0  0  0  0
   14.7741   11.2405   56.0092 C   0  0  0  0  0  0
   15.3538   10.6737   54.9061 N   0  0  0  0  0  0
   14.8387    9.5702   54.4645 C   0  0  0  0  0  0
   13.7047    9.0299   55.0424 N   0  0  0  0  0  0
   12.9941    9.5196   56.1059 C   0  0  0  0  0  0
   11.9444    9.0328   56.5060 O   0  0  0  0  0  0
   12.3818   14.0692   61.7024 H   0  0  0  0  0  0
   12.5417   12.5262   60.0193 H   0  0  0  0  0  0
   13.9871   14.5814   58.3038 H   0  0  0  0  0  0
   15.3073   12.6940   60.0066 H   0  0  0  0  0  0
   14.9281   15.2502   61.1015 H   0  0  0  0  0  0
   15.9378   13.3081   62.3179 H   0  0  0  0  0  0
   14.3654   12.5163   62.3585 H   0  0  0  0  0  0
   13.6257   14.0981   63.6892 H   0  0  0  0  0  0
   11.5917   15.8270   60.6235 H   0  0  0  0  0  0
   11.7302   14.2240   58.0613 H   0  0  0  0  0  0
   15.8913   13.0836   56.5054 H   0  0  0  0  0  0
   12.5717   11.2633   58.3341 H   0  0  0  0  0  0
   15.2692    9.0415   53.6172 H   0  0  0  0  0  0
   13.3395    8.1582   54.6709 H   0  0  0  0  0  0
  1  5  1  0  0  0
  1  2  1  0  0  0
  1  8  1  0  0  0
  1 20  1  0  0  0
  2  3  1  0  0  0
  2  9  1  0  0  0
  2 21  1  0  0  0
  3 10  1  0  0  0
  3  4  1  0  0  0
  3 22  1  0  0  0
  4  5  1  0  0  0
  4 23  1  0  0  0
  5  6  1  0  0  0
  5 24  1  0  0  0
  6  7  1  0  0  0
  6 25  1  0  0  0
  6 26  1  0  0  0
  7 27  1  0  0  0
  8 28  1  0  0  0
  9 29  1  0  0  0
 10 11  2  0  0  0
 10 12  1  0  0  0
 11 14  1  0  0  0
 11 30  1  0  0  0
 12 13  1  0  0  0
 12 31  1  0  0  0
 13 14  2  0  0  0
 13 18  1  0  0  0
 14 15  1  0  0  0
 15 16  2  0  0  0
 16 17  1  0  0  0
 16 32  1  0  0  0
 17 18  1  0  0  0
 17 33  1  0  0  0
 18 19  2  0  0  0
M  END
> <s_m_entry_id>
11843

> <s_m_entry_name>
dock_pv.46

> <s_m_Source_Path>
/home/csk/Desktop/cluster/DUD-E-result/pnph

> <s_m_Source_File>
dock_pv.maegz

> <i_m_Source_File_Index>
46

> <chembl_id>
CHEMBL549687

> <chembl_pref_name>
None

> <i_lp_mmshare_version>
53161

> <r_lp_tautomer_probability>
1

> <s_lp_Force_Field>
OPLS_2005

> <r_lp_Energy>
51.272205

> <b_lp_Chiralities_Consistent>
1

> <s_lp_Variant>
CHEMBL4338_lig80-1

> <s_i_glide_gridfile>
glide-grid_3bgs

> <i_i_glide_lignum>
99

> <i_i_glide_rotatable_bonds>
5

> <r_i_docking_score>
-8.41251736434874

> <r_i_glide_ligand_efficiency>
-0.442764071807828

> <r_i_glide_ligand_efficiency_sa>
-1.18147237804726

> <r_i_glide_ligand_efficiency_ln>
-2.13275383616823

> <r_i_glide_gscore>
-8.41251736434874

> <r_i_glide_lipo>
-2.33940787224608

> <r_i_glide_hbond>
-0.686480890480627

> <r_i_glide_metal>
0

> <r_i_glide_rewards>
-1.7856592313644

> <r_i_glide_evdw>
-36.4108276367188

> <r_i_glide_ecoul>
-14.917384147644

> <r_i_glide_erotb>
0.502481002716467

> <r_i_glide_esite>
-0.0453013689915502

> <r_i_glide_emodel>
-73.2430211559799

> <r_i_glide_energy>
-51.3282117843628

> <r_i_glide_einternal>
5.37226295471191

> <i_i_glide_confnum>
19

> <i_i_glide_posenum>
22

> <r_i_glide_eff_state_penalty>
0

> <s_user_duplicate_titles>
CHEMBL4338_lig80

> <i_f3d_flags>
0

> <s_m_subgroup_title>
dock_pv

> <s_m_subgroupid>
dock_pv

> <b_m_subgroup_collapsed>
1

$$$$
CHEMBL4338_lig123
                    3D
 Schrodinger Suite 2021-1.
 33 34  0  0  1  0            999 V2000
   14.3471   11.8776   57.9880 C   0  0  0  0  0  0
   14.2257   10.6266   56.1425 C   0  0  0  0  0  0
   14.7657   12.8672   59.0797 C   0  0  1  0  0  0
   14.8366   11.7710   56.6701 C   0  0  0  0  0  0
   13.4227   10.9714   58.2280 N   0  0  0  0  0  0
   13.7170   13.8461   59.3059 N   0  0  2  0  0  0
   13.3591   10.2331   57.1271 N   0  0  0  0  0  0
   15.0807   12.2373   60.4622 C   0  0  2  0  0  0
   13.8552   12.6035   61.3493 C   0  0  2  0  0  0
   12.8806   13.2700   60.3503 C   0  0  1  0  0  0
   14.4693    9.9033   54.9151 C   0  0  0  0  0  0
   15.7539   12.5946   56.0814 N   0  0  0  0  0  0
   15.3540   10.2330   54.1353 O   0  0  0  0  0  0
   16.2960   12.7549   60.9774 O   0  0  0  0  0  0
   13.7538    8.7944   54.7288 N   0  0  0  0  0  0
   14.1575   13.4331   62.4715 O   0  0  0  0  0  0
   11.8445   14.2565   60.9065 C   0  0  0  0  0  0
   10.9540   14.6114   59.8671 O   0  0  0  0  0  0
   15.6452   13.3878   58.6977 H   0  0  0  0  0  0
   13.2136   14.1148   58.4649 H   0  0  0  0  0  0
   12.7568    9.4245   57.0679 H   0  0  0  0  0  0
   15.1722   11.1516   60.3944 H   0  0  0  0  0  0
   13.3946   11.6878   61.7238 H   0  0  0  0  0  0
   12.2997   12.4633   59.9016 H   0  0  0  0  0  0
   16.1662   13.3687   56.5795 H   0  0  0  0  0  0
   16.0190   12.4781   55.1152 H   0  0  0  0  0  0
   16.0393   13.3981   61.6480 H   0  0  0  0  0  0
   13.9955    8.1542   53.9813 H   0  0  0  0  0  0
   12.9706    8.5342   55.3070 H   0  0  0  0  0  0
   13.8530   12.9853   63.2711 H   0  0  0  0  0  0
   11.2738   13.7844   61.7059 H   0  0  0  0  0  0
   12.3137   15.1428   61.3355 H   0  0  0  0  0  0
   10.1797   15.0330   60.2718 H   0  0  0  0  0  0
  1  3  1  0  0  0
  1  4  1  0  0  0
  1  5  2  0  0  0
  2  4  2  0  0  0
  2 11  1  0  0  0
  2  7  1  0  0  0
  3  6  1  0  0  0
  3  8  1  0  0  0
  3 19  1  0  0  0
  4 12  1  0  0  0
  5  7  1  0  0  0
  6 10  1  0  0  0
  6 20  1  0  0  0
  7 21  1  0  0  0
  8  9  1  0  0  0
  8 14  1  0  0  0
  8 22  1  0  0  0
  9 16  1  0  0  0
  9 10  1  0  0  0
  9 23  1  0  0  0
 10 17  1  0  0  0
 10 24  1  0  0  0
 11 13  2  0  0  0
 11 15  1  0  0  0
 12 25  1  0  0  0
 12 26  1  0  0  0
 14 27  1  0  0  0
 15 28  1  0  0  0
 15 29  1  0  0  0
 16 30  1  0  0  0
 17 18  1  0  0  0
 17 31  1  0  0  0
 17 32  1  0  0  0
 18 33  1  0  0  0
M  END
> <s_m_entry_id>
11844

> <s_m_entry_name>
dock_pv.47

> <s_m_Source_Path>
/home/csk/Desktop/cluster/DUD-E-result/pnph

> <s_m_Source_File>
dock_pv.maegz

> <i_m_Source_File_Index>
47

> <chembl_id>
CHEMBL41949

> <chembl_pref_name>
None

> <i_lp_mmshare_version>
53161

> <r_lp_tautomer_probability>
1

> <s_lp_Force_Field>
OPLS_2005

> <r_lp_Energy>
43.612326

> <b_lp_Chiralities_Consistent>
1

> <s_lp_Variant>
CHEMBL4338_lig123-2

> <s_i_glide_gridfile>
glide-grid_3bgs

> <i_i_glide_lignum>
155

> <i_i_glide_rotatable_bonds>
6

> <r_i_docking_score>
-8.40145030221603

> <r_i_glide_ligand_efficiency>
-0.466747239012001

> <r_i_glide_ligand_efficiency_sa>
-1.22322380873294

> <r_i_glide_ligand_efficiency_ln>
-2.15954947882908

> <r_i_glide_gscore>
-8.40145030221603

> <r_i_glide_lipo>
-2.0041148618287

> <r_i_glide_hbond>
-0.885428469697171

> <r_i_glide_metal>
0

> <r_i_glide_rewards>
-1.98725770661681

> <r_i_glide_evdw>
-32.4297828674316

> <r_i_glide_ecoul>
-15.6050863265991

> <r_i_glide_erotb>
0.533185859131566

> <r_i_glide_esite>
-0.0955830308434616

> <r_i_glide_emodel>
-71.9192326326008

> <r_i_glide_energy>
-48.0348691940308

> <r_i_glide_einternal>
1.46140539646149

> <i_i_glide_confnum>
19

> <i_i_glide_posenum>
78

> <r_i_glide_eff_state_penalty>
0

> <s_user_duplicate_titles>
CHEMBL4338_lig123,60357

> <i_f3d_flags>
0

> <s_m_subgroup_title>
dock_pv

> <s_m_subgroupid>
dock_pv

> <b_m_subgroup_collapsed>
1

$$$$
CHEMBL4338_lig41
                    3D
 Schrodinger Suite 2021-1.
 30 32  0  0  1  0            999 V2000
   13.5540   10.6910   56.5727 C   0  0  0  0  0  0
   14.6840   11.2153   55.9813 C   0  0  0  0  0  0
   13.6261    8.9259   54.9781 N   0  0  0  0  0  0
   13.0020    9.5269   56.0115 C   0  0  0  0  0  0
   15.3260   10.6339   54.9311 N   0  0  0  0  0  0
   13.1317   11.4491   57.6592 N   0  0  0  0  0  0
   14.7556    9.4783   54.5029 C   0  0  0  0  0  0
   13.8876   12.4718   57.7397 C   0  0  0  0  0  0
   15.0230   12.4736   56.7118 C   0  0  0  0  0  0
   11.8341    9.0328   56.5060 O   0  0  0  0  0  0
   15.3552    8.7484   53.4985 N   0  0  0  0  0  0
   13.6896   13.5861   58.7499 C   0  0  0  0  0  0
   14.6711   13.5385   59.9007 C   0  0  0  0  0  0
   14.3323   12.8202   61.0442 C   0  0  0  0  0  0
   15.8865   14.2263   59.8316 C   0  0  0  0  0  0
   16.7771   14.1737   60.9000 C   0  0  0  0  0  0
   15.2198   12.7748   62.1063 C   0  0  0  0  0  0
   16.4417   13.4380   62.0334 C   0  0  0  0  0  0
   14.9774   13.3580   56.0762 H   0  0  0  0  0  0
   15.9966   12.4298   57.1995 H   0  0  0  0  0  0
   11.6796    8.1643   56.1047 H   0  0  0  0  0  0
   16.1951    9.0802   53.0349 H   0  0  0  0  0  0
   14.9120    7.8700   53.2596 H   0  0  0  0  0  0
   12.6724   13.5502   59.1449 H   0  0  0  0  0  0
   13.7541   14.5558   58.2697 H   0  0  0  0  0  0
   13.3916   12.2922   61.1093 H   0  0  0  0  0  0
   16.1540   14.7802   58.9461 H   0  0  0  0  0  0
   17.7214   14.6952   60.8435 H   0  0  0  0  0  0
   14.9538   12.2132   62.9826 H   0  0  0  0  0  0
   17.1274   13.3845   62.8658 H   0  0  0  0  0  0
  1  2  2  0  0  0
  1  4  1  0  0  0
  1  6  1  0  0  0
  2  5  1  0  0  0
  2  9  1  0  0  0
  3  4  2  0  0  0
  3  7  1  0  0  0
  4 10  1  0  0  0
  5  7  2  0  0  0
  6  8  2  0  0  0
  7 11  1  0  0  0
  8 12  1  0  0  0
  8  9  1  0  0  0
  9 19  1  0  0  0
  9 20  1  0  0  0
 10 21  1  0  0  0
 11 22  1  0  0  0
 11 23  1  0  0  0
 12 13  1  0  0  0
 12 24  1  0  0  0
 12 25  1  0  0  0
 13 14  2  0  0  0
 13 15  1  0  0  0
 14 17  1  0  0  0
 14 26  1  0  0  0
 15 16  2  0  0  0
 15 27  1  0  0  0
 16 18  1  0  0  0
 16 28  1  0  0  0
 17 18  2  0  0  0
 17 29  1  0  0  0
 18 30  1  0  0  0
M  END
> <s_m_entry_id>
11845

> <s_m_entry_name>
dock_pv.48

> <s_m_Source_Path>
/home/csk/Desktop/cluster/DUD-E-result/pnph

> <s_m_Source_File>
dock_pv.maegz

> <i_m_Source_File_Index>
48

> <chembl_id>
CHEMBL159747

> <chembl_pref_name>
None

> <i_lp_mmshare_version>
53161

> <r_lp_tautomer_probability>
0.999601159137504

> <s_lp_Force_Field>
OPLS_2005

> <r_lp_Energy>
17.35935

> <b_lp_Chiralities_Consistent>
1

> <s_lp_Variant>
CHEMBL4338_lig41-1

> <s_i_glide_gridfile>
glide-grid_3bgs

> <i_i_glide_lignum>
50

> <i_i_glide_rotatable_bonds>
3

> <r_i_docking_score>
-8.39365940411483

> <r_i_glide_ligand_efficiency>
-0.466314411339713

> <r_i_glide_ligand_efficiency_sa>
-1.22208947933671

> <r_i_glide_ligand_efficiency_ln>
-2.15754686864526

> <r_i_glide_gscore>
-8.39365940411483

> <r_i_glide_lipo>
-2.39677958250937

> <r_i_glide_hbond>
-0.717222374415615

> <r_i_glide_metal>
0

> <r_i_glide_rewards>
-3.18745850735681

> <r_i_glide_evdw>
-29.4690704345703

> <r_i_glide_ecoul>
-8.04493999481201

> <r_i_glide_erotb>
0.59937954943178

> <r_i_glide_esite>
-0.0113839683144968

> <r_i_glide_emodel>
-55.9149893638841

> <r_i_glide_energy>
-37.5140104293823

> <r_i_glide_einternal>
2.26593637466431

> <i_i_glide_confnum>
1

> <i_i_glide_posenum>
341

> <r_i_glide_eff_state_penalty>
0

> <s_user_duplicate_titles>
CHEMBL4338_lig41,267276

> <i_f3d_flags>
0

> <s_m_subgroup_title>
dock_pv

> <s_m_subgroupid>
dock_pv

> <b_m_subgroup_collapsed>
1

$$$$
CHEMBL4338_lig78
                    3D
 Schrodinger Suite 2021-1.
 33 35  0  0  1  0            999 V2000
   13.4867   14.0466   58.9475 N   0  0  1  0  0  0
   13.0350   14.2934   60.3065 C   0  0  1  0  0  0
   13.5892   13.1397   61.1701 C   0  0  2  0  0  0
   14.1289   12.1101   60.1537 C   0  0  1  0  0  0
   13.5019   12.6032   58.8306 C   0  0  2  0  0  0
   12.5540   12.6330   61.9786 O   0  0  0  0  0  0
   15.5533   12.0537   60.1394 O   0  0  0  0  0  0
   13.3827   15.6872   60.8335 C   0  0  0  0  0  0
   12.6141   16.6703   60.1626 O   0  0  0  0  0  0
   14.2220   12.1838   57.5650 C   0  0  0  0  0  0
   13.9375   11.0524   56.7891 C   0  0  0  0  0  0
   14.8684   10.9809   55.7567 C   0  0  0  0  0  0
   15.7225   12.0413   55.8755 N   0  0  0  0  0  0
   15.3239   12.7862   56.9529 C   0  0  0  0  0  0
   14.8914    9.8330   54.8625 C   0  0  0  0  0  0
   13.8055    9.0330   55.0950 N   0  0  0  0  0  0
   12.8792    9.1620   56.1058 C   0  0  0  0  0  0
   12.9540   10.1232   56.9618 N   0  0  0  0  0  0
   15.7539    9.5175   54.0606 O   0  0  0  0  0  0
   12.9529   14.5163   58.2167 H   0  0  0  0  0  0
   11.9451   14.2069   60.2849 H   0  0  0  0  0  0
   14.4011   13.5023   61.8040 H   0  0  0  0  0  0
   13.7475   11.1052   60.3474 H   0  0  0  0  0  0
   12.4689   12.2600   58.7414 H   0  0  0  0  0  0
   12.4795   13.1656   62.7819 H   0  0  0  0  0  0
   15.8603   11.8068   61.0157 H   0  0  0  0  0  0
   14.4577   15.8336   60.7292 H   0  0  0  0  0  0
   13.1561   15.7529   61.8990 H   0  0  0  0  0  0
   11.6874   16.4775   60.3328 H   0  0  0  0  0  0
   16.5349   12.2196   55.3038 H   0  0  0  0  0  0
   15.8734   13.6682   57.2432 H   0  0  0  0  0  0
   13.7543    8.1995   54.5187 H   0  0  0  0  0  0
   12.0990    8.4085   56.1697 H   0  0  0  0  0  0
  1  2  1  0  0  0
  1  5  1  0  0  0
  1 20  1  0  0  0
  2  3  1  0  0  0
  2  8  1  0  0  0
  2 21  1  0  0  0
  3  4  1  0  0  0
  3  6  1  0  0  0
  3 22  1  0  0  0
  4  5  1  0  0  0
  4  7  1  0  0  0
  4 23  1  0  0  0
  5 10  1  0  0  0
  5 24  1  0  0  0
  6 25  1  0  0  0
  7 26  1  0  0  0
  8  9  1  0  0  0
  8 27  1  0  0  0
  8 28  1  0  0  0
  9 29  1  0  0  0
 10 11  1  0  0  0
 10 14  2  0  0  0
 11 18  1  0  0  0
 11 12  2  0  0  0
 12 13  1  0  0  0
 12 15  1  0  0  0
 13 14  1  0  0  0
 13 30  1  0  0  0
 14 31  1  0  0  0
 15 16  1  0  0  0
 15 19  2  0  0  0
 16 17  1  0  0  0
 16 32  1  0  0  0
 17 18  2  0  0  0
 17 33  1  0  0  0
M  END
> <s_m_entry_id>
11847

> <s_m_entry_name>
dock_pv.50

> <s_m_Source_Path>
/home/csk/Desktop/cluster/DUD-E-result/pnph

> <s_m_Source_File>
dock_pv.maegz

> <i_m_Source_File_Index>
50

> <chembl_id>
CHEMBL565167

> <chembl_pref_name>
None

> <i_lp_mmshare_version>
53161

> <r_lp_tautomer_probability>
1

> <s_lp_Force_Field>
OPLS_2005

> <r_lp_Energy>
50.378867

> <b_lp_Chiralities_Consistent>
1

> <s_lp_Variant>
CHEMBL4338_lig78-1

> <s_i_glide_gridfile>
glide-grid_3bgs

> <i_i_glide_lignum>
97

> <i_i_glide_rotatable_bonds>
5

> <r_i_docking_score>
-8.29857928704349

> <r_i_glide_ligand_efficiency>
-0.436767330897026

> <r_i_glide_ligand_efficiency_sa>
-1.16547066472962

> <r_i_glide_ligand_efficiency_ln>
-2.10386808640584

> <r_i_glide_gscore>
-8.29857928704349

> <r_i_glide_lipo>
-2.62918658402367

> <r_i_glide_hbond>
-1.20699855982946

> <r_i_glide_metal>
0

> <r_i_glide_rewards>
-1.60181816172078

> <r_i_glide_evdw>
-29.8360939025879

> <r_i_glide_ecoul>
-12.2165794372559

> <r_i_glide_erotb>
0.502481002716467

> <r_i_glide_esite>
-0.0387653734682798

> <r_i_glide_emodel>
-58.7764973489519

> <r_i_glide_energy>
-42.0526733398438

> <r_i_glide_einternal>
3.73436212539673

> <i_i_glide_confnum>
4

> <i_i_glide_posenum>
224

> <r_i_glide_eff_state_penalty>
0

> <s_user_duplicate_titles>
CHEMBL4338_lig78,249194

> <i_f3d_flags>
0

> <s_m_subgroup_title>
dock_pv

> <s_m_subgroupid>
dock_pv

> <b_m_subgroup_collapsed>
1

$$$$
CHEMBL4338_lig60
                    3D
 Schrodinger Suite 2021-1.
 36 38  0  0  1  0            999 V2000
   14.8755   12.9687   60.3751 C   0  0  0  0  0  0
   15.1202   12.9745   61.7738 C   0  0  0  0  0  0
   13.8116   12.0674   60.0705 C   0  0  0  0  0  0
   16.7264   14.6611   61.4796 N   0  0  0  0  0  0
   16.0606   13.8483   62.3271 C   0  0  0  0  0  0
   15.5265   13.7782   59.5702 N   0  0  0  0  0  0
   14.2787   12.0411   62.2765 N   0  0  0  0  0  0
   16.4084   14.5665   60.1746 C   0  0  0  0  0  0
   13.6086   11.4330   61.2651 C   0  0  0  0  0  0
   12.9931   11.9578   58.7940 C   0  0  1  0  0  0
   11.2037   13.8332   59.3933 C   0  0  0  0  0  0
   12.3338   13.3275   58.5059 C   0  0  0  0  0  0
   16.2236   13.8361   63.6825 O   0  0  0  0  0  0
   13.7341   11.4466   57.5422 C   0  0  0  0  0  0
   16.9540   15.4330   59.3060 N   0  0  0  0  0  0
   10.1540   14.2329   58.9060 O   0  0  0  0  0  0
   11.4799   13.8464   60.7225 O   0  0  0  0  0  0
   14.6961   12.2334   56.8942 C   0  0  0  0  0  0
   13.3540   10.2330   56.9560 C   0  0  0  0  0  0
   13.9313    9.8052   55.7637 C   0  0  0  0  0  0
   15.2901   11.8039   55.7127 C   0  0  0  0  0  0
   14.9050   10.5888   55.1512 C   0  0  0  0  0  0
   14.1538   11.7754   63.2503 H   0  0  0  0  0  0
   12.9540   10.6330   61.5269 H   0  0  0  0  0  0
   12.1824   11.2498   58.9735 H   0  0  0  0  0  0
   13.0879   14.1134   58.5060 H   0  0  0  0  0  0
   11.9168   13.2852   57.5002 H   0  0  0  0  0  0
   15.5625   13.2852   64.1022 H   0  0  0  0  0  0
   16.5535   15.3655   58.3872 H   0  0  0  0  0  0
   17.1341   16.3634   59.7060 H   0  0  0  0  0  0
   10.7430   14.2422   61.1952 H   0  0  0  0  0  0
   14.9641   13.2056   57.2680 H   0  0  0  0  0  0
   12.5782    9.6259   57.3951 H   0  0  0  0  0  0
   13.6211    8.8705   55.3157 H   0  0  0  0  0  0
   16.0295   12.4281   55.2347 H   0  0  0  0  0  0
   15.3511   10.2447   54.2295 H   0  0  0  0  0  0
  1  2  1  0  0  0
  1  3  1  0  0  0
  1  6  2  0  0  0
  2  5  2  0  0  0
  2  7  1  0  0  0
  3  9  2  0  0  0
  3 10  1  0  0  0
  4  8  2  0  0  0
  4  5  1  0  0  0
  5 13  1  0  0  0
  6  8  1  0  0  0
  7  9  1  0  0  0
  7 23  1  0  0  0
  8 15  1  0  0  0
  9 24  1  0  0  0
 10 12  1  0  0  0
 10 14  1  0  0  0
 10 25  1  0  0  0
 11 12  1  0  0  0
 11 16  2  0  0  0
 11 17  1  0  0  0
 12 26  1  0  0  0
 12 27  1  0  0  0
 13 28  1  0  0  0
 14 18  2  0  0  0
 14 19  1  0  0  0
 15 29  1  0  0  0
 15 30  1  0  0  0
 17 31  1  0  0  0
 18 21  1  0  0  0
 18 32  1  0  0  0
 19 20  2  0  0  0
 19 33  1  0  0  0
 20 22  1  0  0  0
 20 34  1  0  0  0
 21 22  2  0  0  0
 21 35  1  0  0  0
 22 36  1  0  0  0
M  END
> <s_m_entry_id>
11848

> <s_m_entry_name>
dock_pv.51

> <s_m_Source_Path>
/home/csk/Desktop/cluster/DUD-E-result/pnph

> <s_m_Source_File>
dock_pv.maegz

> <i_m_Source_File_Index>
51

> <chembl_id>
CHEMBL79460

> <chembl_pref_name>
None

> <i_lp_mmshare_version>
53161

> <r_lp_tautomer_probability>
1

> <s_lp_Force_Field>
OPLS_2005

> <r_lp_Energy>
7.945671

> <b_lp_Chiralities_Consistent>
1

> <s_lp_Variant>
CHEMBL4338_lig60-2

> <s_i_glide_gridfile>
glide-grid_3bgs

> <i_i_glide_lignum>
76

> <i_i_glide_rotatable_bonds>
6

> <r_i_docking_score>
-8.26807535154235

> <r_i_glide_ligand_efficiency>
-0.375821606888289

> <r_i_glide_ligand_efficiency_sa>
-1.05306692272607

> <r_i_glide_ligand_efficiency_ln>
-2.02101920129309

> <r_i_glide_gscore>
-8.26807535154235

> <r_i_glide_lipo>
-2.9416281103436

> <r_i_glide_hbond>
-1.13509096430292

> <r_i_glide_metal>
0

> <r_i_glide_rewards>
-1.78239041406864

> <r_i_glide_evdw>
-7.17304515838623

> <r_i_glide_ecoul>
-18.7321796417236

> <r_i_glide_erotb>
0.824842482205512

> <r_i_glide_esite>
-0.0653291408548402

> <r_i_glide_emodel>
-28.291859964508

> <r_i_glide_energy>
-25.9052248001099

> <r_i_glide_einternal>
6.13670969009399

> <i_i_glide_confnum>
27

> <i_i_glide_posenum>
197

> <r_i_glide_eff_state_penalty>
0

> <s_user_duplicate_titles>
CHEMBL4338_lig60,129047

> <i_f3d_flags>
0

> <s_m_subgroup_title>
dock_pv

> <s_m_subgroupid>
dock_pv

> <b_m_subgroup_collapsed>
1

$$$$
CHEMBL4338_lig51
                    3D
 Schrodinger Suite 2021-1.
 42 44  0  0  1  0            999 V2000
   14.0446   11.2459   56.9393 C   0  0  0  0  0  0
   14.8106   11.1118   55.7465 C   0  0  0  0  0  0
   14.4933   12.4134   57.6488 C   0  0  0  0  0  0
   13.5472    9.1933   55.2011 N   0  0  0  0  0  0
   14.5613   10.0203   54.9060 C   0  0  0  0  0  0
   13.0797   10.3779   57.2491 N   0  0  0  0  0  0
   15.6846   12.1760   55.7231 N   0  0  0  0  0  0
   12.8494    9.4330   56.3168 C   0  0  0  0  0  0
   15.4741   12.9504   56.8345 C   0  0  0  0  0  0
   13.9857   12.9403   58.9883 C   0  0  1  0  0  0
   11.7959   14.2014   59.7060 C   0  0  0  0  0  0
   12.4371   13.0552   58.9196 C   0  0  0  0  0  0
   15.3540    9.8330   53.8277 O   0  0  0  0  0  0
   11.7540    8.6330   56.5060 N   0  0  0  0  0  0
   12.2965   15.3113   59.8754 O   0  0  0  0  0  0
   14.4858   12.0250   60.1594 C   0  0  0  0  0  0
   10.5540   13.8330   60.1060 O   0  0  0  0  0  0
   16.0318   11.9085   60.2488 C   0  0  0  0  0  0
   13.9676   12.3920   61.5767 C   0  0  0  0  0  0
   14.5628   13.7221   62.0879 C   0  0  0  0  0  0
   16.6780   13.2316   60.7139 C   0  0  0  0  0  0
   16.1059   13.6998   62.0696 C   0  0  0  0  0  0
   16.3761   12.4107   55.0252 H   0  0  0  0  0  0
   16.0716   13.8330   56.9671 H   0  0  0  0  0  0
   14.4034   13.9394   59.1215 H   0  0  0  0  0  0
   12.1153   13.2262   57.8922 H   0  0  0  0  0  0
   11.9946   12.0987   59.2015 H   0  0  0  0  0  0
   15.1141    9.0106   53.3926 H   0  0  0  0  0  0
   11.2937    8.6919   57.3955 H   0  0  0  0  0  0
   11.7540    7.7408   55.9813 H   0  0  0  0  0  0
   14.1171   11.0152   59.9662 H   0  0  0  0  0  0
   10.0434   14.5560   60.5060 H   0  0  0  0  0  0
   16.4562   11.6169   59.2879 H   0  0  0  0  0  0
   16.3047   11.1088   60.9384 H   0  0  0  0  0  0
   14.2230   11.5967   62.2779 H   0  0  0  0  0  0
   12.8802   12.4506   61.5954 H   0  0  0  0  0  0
   14.2096   14.5525   61.4785 H   0  0  0  0  0  0
   14.2045   13.9196   63.0994 H   0  0  0  0  0  0
   16.5315   14.0082   59.9627 H   0  0  0  0  0  0
   17.7540   13.1017   60.8000 H   0  0  0  0  0  0
   16.4943   14.6887   62.3159 H   0  0  0  0  0  0
   16.4607   13.0330   62.8564 H   0  0  0  0  0  0
  1  2  1  0  0  0
  1  3  1  0  0  0
  1  6  2  0  0  0
  2  5  2  0  0  0
  2  7  1  0  0  0
  3  9  2  0  0  0
  3 10  1  0  0  0
  4  8  2  0  0  0
  4  5  1  0  0  0
  5 13  1  0  0  0
  6  8  1  0  0  0
  7  9  1  0  0  0
  7 23  1  0  0  0
  8 14  1  0  0  0
  9 24  1  0  0  0
 10 12  1  0  0  0
 10 16  1  0  0  0
 10 25  1  0  0  0
 11 12  1  0  0  0
 11 15  2  0  0  0
 11 17  1  0  0  0
 12 26  1  0  0  0
 12 27  1  0  0  0
 13 28  1  0  0  0
 14 29  1  0  0  0
 14 30  1  0  0  0
 16 18  1  0  0  0
 16 19  1  0  0  0
 16 31  1  0  0  0
 17 32  1  0  0  0
 18 21  1  0  0  0
 18 33  1  0  0  0
 18 34  1  0  0  0
 19 20  1  0  0  0
 19 35  1  0  0  0
 19 36  1  0  0  0
 20 22  1  0  0  0
 20 37  1  0  0  0
 20 38  1  0  0  0
 21 22  1  0  0  0
 21 39  1  0  0  0
 21 40  1  0  0  0
 22 41  1  0  0  0
 22 42  1  0  0  0
M  END
> <s_m_entry_id>
11849

> <s_m_entry_name>
dock_pv.52

> <s_m_Source_Path>
/home/csk/Desktop/cluster/DUD-E-result/pnph

> <s_m_Source_File>
dock_pv.maegz

> <i_m_Source_File_Index>
52

> <chembl_id>
CHEMBL126109

> <chembl_pref_name>
None

> <i_lp_mmshare_version>
53161

> <r_lp_tautomer_probability>
1

> <s_lp_Force_Field>
OPLS_2005

> <r_lp_Energy>
13.874357

> <b_lp_Chiralities_Consistent>
1

> <s_lp_Variant>
CHEMBL4338_lig51-2

> <s_i_glide_gridfile>
glide-grid_3bgs

> <i_i_glide_lignum>
63

> <i_i_glide_rotatable_bonds>
6

> <r_i_docking_score>
-8.26799326817594

> <r_i_glide_ligand_efficiency>
-0.375817875826179

> <r_i_glide_ligand_efficiency_sa>
-1.0530564681433

> <r_i_glide_ligand_efficiency_ln>
-2.02099913712428

> <r_i_glide_gscore>
-8.26799326817594

> <r_i_glide_lipo>
-3.04452930534302

> <r_i_glide_hbond>
-0.42839764876007

> <r_i_glide_metal>
0

> <r_i_glide_rewards>
-2.11155820668615

> <r_i_glide_evdw>
-32.6607551574707

> <r_i_glide_ecoul>
-11.6455373764038

> <r_i_glide_erotb>
0.796360256947414

> <r_i_glide_esite>
-0.1

> <r_i_glide_emodel>
-61.0286096104949

> <r_i_glide_energy>
-44.3062925338745

> <r_i_glide_einternal>
4.909348487854

> <i_i_glide_confnum>
85

> <i_i_glide_posenum>
258

> <r_i_glide_eff_state_penalty>
0

> <s_user_duplicate_titles>
CHEMBL4338_lig51,204934

> <i_f3d_flags>
0

> <s_m_subgroup_title>
dock_pv

> <s_m_subgroupid>
dock_pv

> <b_m_subgroup_collapsed>
1

$$$$
CHEMBL4338_lig7
                    3D
 Schrodinger Suite 2021-1.
 35 37  0  0  1  0            999 V2000
   13.9877   14.9542   61.2753 N   0  0  0  0  0  0
   13.4580   14.0691   60.3598 C   0  0  0  0  0  0
   12.9588   15.8329   61.5683 C   0  0  0  0  0  0
   15.3246   14.9139   61.8151 C   0  0  1  0  0  0
   12.1567   14.5432   60.1060 C   0  0  0  0  0  0
   11.8683   15.6440   60.8715 N   0  0  0  0  0  0
   14.0260   13.0018   59.7853 N   0  0  0  0  0  0
   15.4796   14.0584   63.0623 C   0  0  1  0  0  0
   11.9904   12.7750   58.5120 N   0  0  0  0  0  0
   16.1921   14.3649   60.8701 O   0  0  0  0  0  0
   11.4230   13.8330   59.1455 C   0  0  0  0  0  0
   13.2402   12.4146   58.8624 C   0  0  0  0  0  0
   16.9921   13.8766   62.9909 C   0  0  1  0  0  0
   17.2102   13.5980   61.4922 C   0  0  1  0  0  0
   13.1032   16.8113   62.5060 N   0  0  0  0  0  0
   14.9540   14.7127   64.2030 O   0  0  0  0  0  0
   13.7758   11.3256   58.2050 N   0  0  0  0  0  0
   10.1540   14.2533   58.9060 O   0  0  0  0  0  0
   17.7262   15.0035   63.4579 O   0  0  0  0  0  0
   17.0641   12.1046   61.0981 C   0  0  0  0  0  0
   17.3540   11.8330   59.7406 O   0  0  0  0  0  0
   15.6248   15.9441   62.0090 H   0  0  0  0  0  0
   14.9722   13.1033   62.9020 H   0  0  0  0  0  0
   17.3045   13.0330   63.6000 H   0  0  0  0  0  0
   18.1658   13.9888   61.1699 H   0  0  0  0  0  0
   12.5540   17.6547   62.4957 H   0  0  0  0  0  0
   13.8668   16.7966   63.1678 H   0  0  0  0  0  0
   14.0109   14.5148   64.2418 H   0  0  0  0  0  0
   13.2657   10.9461   57.4237 H   0  0  0  0  0  0
   14.7510   11.1283   58.3604 H   0  0  0  0  0  0
    9.8741   14.8903   59.5790 H   0  0  0  0  0  0
   17.2862   15.3201   64.2539 H   0  0  0  0  0  0
   16.0657   11.7323   61.3280 H   0  0  0  0  0  0
   17.7547   11.5094   61.6909 H   0  0  0  0  0  0
   17.2695   10.8871   59.5958 H   0  0  0  0  0  0
  1  2  1  0  0  0
  1  3  1  0  0  0
  1  4  1  0  0  0
  2  5  1  0  0  0
  2  7  2  0  0  0
  3  6  2  0  0  0
  3 15  1  0  0  0
  4  8  1  0  0  0
  4 10  1  0  0  0
  4 22  1  0  0  0
  5 11  2  0  0  0
  5  6  1  0  0  0
  7 12  1  0  0  0
  8 13  1  0  0  0
  8 16  1  0  0  0
  8 23  1  0  0  0
  9 12  2  0  0  0
  9 11  1  0  0  0
 10 14  1  0  0  0
 11 18  1  0  0  0
 12 17  1  0  0  0
 13 19  1  0  0  0
 13 14  1  0  0  0
 13 24  1  0  0  0
 14 20  1  0  0  0
 14 25  1  0  0  0
 15 26  1  0  0  0
 15 27  1  0  0  0
 16 28  1  0  0  0
 17 29  1  0  0  0
 17 30  1  0  0  0
 18 31  1  0  0  0
 19 32  1  0  0  0
 20 21  1  0  0  0
 20 33  1  0  0  0
 20 34  1  0  0  0
 21 35  1  0  0  0
M  END
> <s_m_entry_id>
11850

> <s_m_entry_name>
dock_pv.53

> <s_m_Source_Path>
/home/csk/Desktop/cluster/DUD-E-result/pnph

> <s_m_Source_File>
dock_pv.maegz

> <i_m_Source_File_Index>
53

> <chembl_id>
CHEMBL2021376

> <chembl_pref_name>
None

> <i_lp_mmshare_version>
53161

> <r_lp_tautomer_probability>
1

> <s_lp_Force_Field>
OPLS_2005

> <r_lp_Energy>
33.034069

> <b_lp_Chiralities_Consistent>
1

> <s_lp_Variant>
CHEMBL4338_lig7-1

> <s_i_glide_gridfile>
glide-grid_3bgs

> <i_i_glide_lignum>
7

> <i_i_glide_rotatable_bonds>
6

> <r_i_docking_score>
-8.26581138613419

> <r_i_glide_ligand_efficiency>
-0.39361006600639

> <r_i_glide_ligand_efficiency_sa>
-1.08594032606994

> <r_i_glide_ligand_efficiency_ln>
-2.04370516257708

> <r_i_glide_gscore>
-8.26581138613419

> <r_i_glide_lipo>
-0.878765204078996

> <r_i_glide_hbond>
-1.08392413133025

> <r_i_glide_metal>
0

> <r_i_glide_rewards>
-3.1733519986847

> <r_i_glide_evdw>
-31.5348434448242

> <r_i_glide_ecoul>
-13.0658273696899

> <r_i_glide_erotb>
0.412521124831316

> <r_i_glide_esite>
-0.00567489917685939

> <r_i_glide_emodel>
-63.6570979177296

> <r_i_glide_energy>
-44.6006708145142

> <r_i_glide_einternal>
2.81863379478455

> <i_i_glide_confnum>
19

> <i_i_glide_posenum>
363

> <r_i_glide_eff_state_penalty>
0

> <s_user_duplicate_titles>
CHEMBL4338_lig7

> <i_f3d_flags>
0

> <s_m_subgroup_title>
dock_pv

> <s_m_subgroupid>
dock_pv

> <b_m_subgroup_collapsed>
1

$$$$
CHEMBL4338_lig116
                    3D
 Schrodinger Suite 2021-1.
 46 47  0  0  1  0            999 V2000
   14.5465   11.0683   56.3757 C   0  0  0  0  0  0
   13.3646   10.5681   56.8262 C   0  0  0  0  0  0
   15.2857   10.6330   55.3060 N   0  0  0  0  0  0
   13.5636    9.0330   55.1366 N   0  0  0  0  0  0
   12.9375   11.2060   57.9239 N   0  0  0  0  0  0
   12.7705    9.4330   56.1767 C   0  0  0  0  0  0
   14.7553    9.6017   54.7256 C   0  0  0  0  0  0
   14.8577   11.9947   57.3307 N   0  0  0  0  0  0
   16.6893   17.9889   64.3695 P   0  0  0  0  0  0
   13.7663   12.1800   58.0787 C   0  0  0  0  0  0
   15.8934   16.4150   63.7788 C   0  0  0  0  0  0
   16.9352   14.9768   63.3353 P   0  0  2  0  0  0
   11.7361    8.8702   56.5060 O   0  0  0  0  0  0
   17.6256   18.6291   63.3691 O   0  0  0  0  0  0
   17.7608   14.3989   64.4282 O   0  0  0  0  0  0
   15.3540    8.9862   53.7060 N   0  0  0  0  0  0
   15.3554   18.9764   64.7984 O   0  0  0  0  0  0
   17.4703   17.4857   65.8013 O   0  0  0  0  0  0
   17.8307   15.5545   62.1091 O   0  0  0  0  0  0
   16.1540   12.5073   57.6876 C   0  0  0  0  0  0
   15.8398   13.8220   62.4382 C   0  0  0  0  0  0
   16.9197   11.4852   58.5985 C   0  0  0  0  0  0
   16.6122   12.8403   61.5351 C   0  0  0  0  0  0
   15.6246   11.8771   60.8692 C   0  0  0  0  0  0
   16.2057   10.8895   59.8380 C   0  0  0  0  0  0
   13.7031   12.9429   58.8369 H   0  0  0  0  0  0
   15.1793   16.0750   64.5305 H   0  0  0  0  0  0
   15.2832   16.6510   62.9061 H   0  0  0  0  0  0
   13.2488    8.1840   54.6806 H   0  0  0  0  0  0
   16.1755    9.3812   53.2591 H   0  0  0  0  0  0
   15.0142    8.0895   53.3824 H   0  0  0  0  0  0
   14.6829   19.2758   64.1448 H   0  0  0  0  0  0
   18.1184   16.7557   65.8233 H   0  0  0  0  0  0
   17.3386   15.8329   61.3103 H   0  0  0  0  0  0
   15.9797   13.4644   58.1847 H   0  0  0  0  0  0
   16.6558   12.6766   56.7341 H   0  0  0  0  0  0
   15.2430   13.2835   63.1760 H   0  0  0  0  0  0
   15.1423   14.4071   61.8387 H   0  0  0  0  0  0
   17.8949   11.8466   58.9118 H   0  0  0  0  0  0
   17.1926   10.6503   57.9761 H   0  0  0  0  0  0
   17.1636   13.3899   60.7712 H   0  0  0  0  0  0
   17.3543   12.2812   62.1060 H   0  0  0  0  0  0
   15.1007   11.3158   61.6416 H   0  0  0  0  0  0
   14.8467   12.4741   60.4191 H   0  0  0  0  0  0
   16.9081   10.2328   60.3527 H   0  0  0  0  0  0
   15.4028   10.2315   59.5012 H   0  0  0  0  0  0
  1  8  1  0  0  0
  1  3  1  0  0  0
  1  2  2  0  0  0
  2  6  1  0  0  0
  2  5  1  0  0  0
  3  7  2  0  0  0
  4  7  1  0  0  0
  4 29  1  0  0  0
  4  6  1  0  0  0
  5 10  2  0  0  0
  6 13  2  0  0  0
  7 16  1  0  0  0
  8 10  1  0  0  0
  8 20  1  0  0  0
  9 11  1  0  0  0
  9 14  2  0  0  0
  9 17  1  0  0  0
  9 18  1  0  0  0
 10 26  1  0  0  0
 11 12  1  0  0  0
 11 27  1  0  0  0
 11 28  1  0  0  0
 12 21  1  0  0  0
 12 15  2  0  0  0
 12 19  1  0  0  0
 16 30  1  0  0  0
 16 31  1  0  0  0
 17 32  1  0  0  0
 18 33  1  0  0  0
 19 34  1  0  0  0
 20 22  1  0  0  0
 20 35  1  0  0  0
 20 36  1  0  0  0
 21 23  1  0  0  0
 21 37  1  0  0  0
 21 38  1  0  0  0
 22 25  1  0  0  0
 22 39  1  0  0  0
 22 40  1  0  0  0
 23 24  1  0  0  0
 23 41  1  0  0  0
 23 42  1  0  0  0
 24 25  1  0  0  0
 24 43  1  0  0  0
 24 44  1  0  0  0
 25 45  1  0  0  0
 25 46  1  0  0  0
M  END
> <s_m_entry_id>
11851

> <s_m_entry_name>
dock_pv.54

> <s_m_Source_Path>
/home/csk/Desktop/cluster/DUD-E-result/pnph

> <s_m_Source_File>
dock_pv.maegz

> <i_m_Source_File_Index>
54

> <chembl_id>
CHEMBL7319

> <chembl_pref_name>
None

> <i_lp_mmshare_version>
53161

> <r_lp_tautomer_probability>
0.999940409345307

> <s_lp_Force_Field>
OPLS_2005

> <r_lp_Energy>
1.874128

> <b_lp_Chiralities_Consistent>
1

> <s_lp_Variant>
CHEMBL4338_lig116-2

> <s_i_glide_gridfile>
glide-grid_3bgs

> <i_i_glide_lignum>
141

> <i_i_glide_rotatable_bonds>
12

> <r_i_docking_score>
-8.25579957014644

> <r_i_glide_ligand_efficiency>
-0.330231982805858

> <r_i_glide_ligand_efficiency_sa>
-0.965604174413481

> <r_i_glide_ligand_efficiency_ln>
-1.95687190447336

> <r_i_glide_gscore>
-8.25579957014644

> <r_i_glide_lipo>
-1.54567499478668

> <r_i_glide_hbond>
-0.776274865316322

> <r_i_glide_metal>
0

> <r_i_glide_rewards>
-2.42344127581724

> <r_i_glide_evdw>
-32.8046340942383

> <r_i_glide_ecoul>
-19.5435085296631

> <r_i_glide_erotb>
1.13665323310778

> <r_i_glide_esite>
-0.0753036831726077

> <r_i_glide_emodel>
-68.0031878431926

> <r_i_glide_energy>
-52.3481426239014

> <r_i_glide_einternal>
9.98316383361816

> <i_i_glide_confnum>
223

> <i_i_glide_posenum>
29

> <r_i_glide_eff_state_penalty>
0

> <s_user_duplicate_titles>
CHEMBL4338_lig116

> <i_f3d_flags>
0

> <s_m_subgroup_title>
dock_pv

> <s_m_subgroupid>
dock_pv

> <b_m_subgroup_collapsed>
1

$$$$
CHEMBL4338_lig131
                    3D
 Schrodinger Suite 2021-1.
 36 38  0  0  1  0            999 V2000
   13.8704   11.7834   58.0772 C   0  0  0  0  0  0
   14.5143   10.8758   56.1119 C   0  0  0  0  0  0
   13.5738   10.7608   57.1562 C   0  0  0  0  0  0
   15.3605   11.9061   56.3481 N   0  0  0  0  0  0
   13.1286   12.0869   59.3838 C   0  0  2  0  0  0
   14.9455   12.4331   57.4771 C   0  0  0  0  0  0
   12.2358   13.2353   59.2265 N   0  0  1  0  0  0
   14.0264   12.3245   60.6283 C   0  0  1  0  0  0
   14.4428    9.9312   55.0687 C   0  0  0  0  0  0
   13.6618   13.7376   61.1117 C   0  0  2  0  0  0
   12.2574   13.9415   60.5091 C   0  0  1  0  0  0
   12.6226    9.8342   57.1806 N   0  0  0  0  0  0
   13.4453    9.0340   55.1008 N   0  0  0  0  0  0
   12.5548    9.0307   56.1074 C   0  0  0  0  0  0
   15.3550    9.8307   54.0655 O   0  0  0  0  0  0
   13.7530   11.3873   61.6444 O   0  0  0  0  0  0
   14.6130   14.7346   60.7687 O   0  0  0  0  0  0
   15.5760   13.6700   57.9778 C   0  0  0  0  0  0
   11.7743   15.4032   60.4078 C   0  0  0  0  0  0
   11.7550   16.0196   61.6823 O   0  0  0  0  0  0
   12.5020   11.2119   59.5559 H   0  0  0  0  0  0
   12.5578   13.8342   58.4731 H   0  0  0  0  0  0
   15.0885   12.2624   60.3924 H   0  0  0  0  0  0
   13.5730   13.7590   62.2009 H   0  0  0  0  0  0
   11.5478   13.4064   61.1453 H   0  0  0  0  0  0
   13.3799    8.3056   54.3991 H   0  0  0  0  0  0
   11.8229    8.2509   56.1414 H   0  0  0  0  0  0
   15.2214    9.0605   53.5073 H   0  0  0  0  0  0
   13.7237   10.5064   61.2585 H   0  0  0  0  0  0
   14.6661   14.7936   59.8147 H   0  0  0  0  0  0
   14.7121   14.2358   58.2692 H   0  0  0  0  0  0
   16.1558   13.5084   58.8799 H   0  0  0  0  0  0
   16.1489   14.2331   57.2442 H   0  0  0  0  0  0
   10.7735   15.4322   59.9826 H   0  0  0  0  0  0
   12.4227   15.9879   59.7548 H   0  0  0  0  0  0
   11.3498   15.4107   62.3114 H   0  0  0  0  0  0
  1  3  2  0  0  0
  1  5  1  0  0  0
  1  6  1  0  0  0
  2  3  1  0  0  0
  2  9  2  0  0  0
  2  4  1  0  0  0
  3 12  1  0  0  0
  4  6  2  0  0  0
  5  7  1  0  0  0
  5  8  1  0  0  0
  5 21  1  0  0  0
  6 18  1  0  0  0
  7 11  1  0  0  0
  7 22  1  0  0  0
  8 10  1  0  0  0
  8 16  1  0  0  0
  8 23  1  0  0  0
  9 15  1  0  0  0
  9 13  1  0  0  0
 10 17  1  0  0  0
 10 11  1  0  0  0
 10 24  1  0  0  0
 11 19  1  0  0  0
 11 25  1  0  0  0
 12 14  2  0  0  0
 13 14  1  0  0  0
 13 26  1  0  0  0
 14 27  1  0  0  0
 15 28  1  0  0  0
 16 29  1  0  0  0
 17 30  1  0  0  0
 18 31  1  0  0  0
 18 32  1  0  0  0
 18 33  1  0  0  0
 19 20  1  0  0  0
 19 34  1  0  0  0
 19 35  1  0  0  0
 20 36  1  0  0  0
M  END
> <s_m_entry_id>
11852

> <s_m_entry_name>
dock_pv.55

> <s_m_Source_Path>
/home/csk/Desktop/cluster/DUD-E-result/pnph

> <s_m_Source_File>
dock_pv.maegz

> <i_m_Source_File_Index>
55

> <chembl_id>
CHEMBL114003

> <chembl_pref_name>
None

> <i_lp_mmshare_version>
53161

> <r_lp_tautomer_probability>
1

> <s_lp_Force_Field>
OPLS_2005

> <r_lp_Energy>
52.686449

> <b_lp_Chiralities_Consistent>
1

> <s_lp_Variant>
CHEMBL4338_lig131-2

> <s_i_glide_gridfile>
glide-grid_3bgs

> <i_i_glide_lignum>
169

> <i_i_glide_rotatable_bonds>
6

> <r_i_docking_score>
-8.24650225635165

> <r_i_glide_ligand_efficiency>
-0.412325112817583

> <r_i_glide_ligand_efficiency_sa>
-1.1192225488789

> <r_i_glide_ligand_efficiency_ln>
-2.06382752691707

> <r_i_glide_gscore>
-8.24650225635165

> <r_i_glide_lipo>
-2.58840778741677

> <r_i_glide_hbond>
-0.47783718152473

> <r_i_glide_metal>
0

> <r_i_glide_rewards>
-2.34670160853645

> <r_i_glide_evdw>
-24.7202892303467

> <r_i_glide_ecoul>
-13.0201568603516

> <r_i_glide_erotb>
0.459727958825088

> <r_i_glide_esite>
-0.104245647128729

> <r_i_glide_emodel>
-54.0915114943661

> <r_i_glide_energy>
-37.7404460906982

> <r_i_glide_einternal>
6.08235740661621

> <i_i_glide_confnum>
18

> <i_i_glide_posenum>
63

> <r_i_glide_eff_state_penalty>
0

> <s_user_duplicate_titles>
CHEMBL4338_lig131,189948

> <i_f3d_flags>
0

> <s_m_subgroup_title>
dock_pv

> <s_m_subgroupid>
dock_pv

> <b_m_subgroup_collapsed>
1

$$$$
CHEMBL4338_lig103
                    3D
 Schrodinger Suite 2021-1.
 43 44  0  0  1  0            999 V2000
   14.0229   11.1921   56.9207 C   0  0  0  0  0  0
   14.7833   11.1517   55.7863 C   0  0  0  0  0  0
   13.0399   10.3251   57.2951 N   0  0  0  0  0  0
   14.4485   12.2866   57.6102 N   0  0  0  0  0  0
   13.5919    9.2485   55.2821 N   0  0  0  0  0  0
   15.6026   12.2129   55.7062 N   0  0  0  0  0  0
   14.6525   10.0186   54.8931 C   0  0  0  0  0  0
   12.8030    9.4330   56.3961 C   0  0  0  0  0  0
   15.3540   12.8806   56.8075 C   0  0  0  0  0  0
   12.9540   15.9456   61.5112 P   0  0  0  0  0  0
   15.3540    9.7118   53.9378 O   0  0  0  0  0  0
   13.5187   15.8774   60.1376 O   0  0  0  0  0  0
   13.9972   12.6942   58.9954 C   0  0  0  0  0  0
   11.7540    8.6330   56.5060 N   0  0  0  0  0  0
   11.5951   15.0917   61.7060 O   0  0  0  0  0  0
   12.5126   17.4330   61.9698 O   0  0  0  0  0  0
   13.9342   15.4330   62.9885 C   0  0  0  0  0  0
   14.4282   11.7404   59.9288 O   0  0  0  0  0  0
   15.8371   11.5376   60.1040 C   0  0  0  0  0  0
   15.4524   15.7150   62.9446 C   0  0  0  0  0  0
   16.6074   12.8048   60.5334 C   0  0  0  0  0  0
   16.0231   13.4796   61.7858 C   0  0  0  0  0  0
   16.2234   15.0083   61.8110 C   0  0  0  0  0  0
   15.8093   13.8113   57.1056 H   0  0  0  0  0  0
   13.3959    8.4513   54.6915 H   0  0  0  0  0  0
   12.9105   12.7233   58.9096 H   0  0  0  0  0  0
   14.4074   13.6932   59.1376 H   0  0  0  0  0  0
   11.0596    8.8010   57.2149 H   0  0  0  0  0  0
   11.7476    7.7217   56.0178 H   0  0  0  0  0  0
   11.4244   14.8032   62.6341 H   0  0  0  0  0  0
   13.2378   18.0149   62.2860 H   0  0  0  0  0  0
   13.5125   15.9558   63.8443 H   0  0  0  0  0  0
   13.7540   14.3784   63.1907 H   0  0  0  0  0  0
   16.2729   11.1195   59.1953 H   0  0  0  0  0  0
   15.9596   10.7693   60.8668 H   0  0  0  0  0  0
   15.6262   16.7907   62.9060 H   0  0  0  0  0  0
   15.8826   15.3981   63.8961 H   0  0  0  0  0  0
   16.6123   13.5101   59.7057 H   0  0  0  0  0  0
   17.6534   12.5532   60.7076 H   0  0  0  0  0  0
   16.4426   13.0327   62.6874 H   0  0  0  0  0  0
   14.9579   13.2605   61.8173 H   0  0  0  0  0  0
   15.9230   15.4330   60.8535 H   0  0  0  0  0  0
   17.2870   15.2314   61.9025 H   0  0  0  0  0  0
  1  4  1  0  0  0
  1  3  1  0  0  0
  1  2  2  0  0  0
  2  7  1  0  0  0
  2  6  1  0  0  0
  3  8  2  0  0  0
  4  9  1  0  0  0
  4 13  1  0  0  0
  5  8  1  0  0  0
  5 25  1  0  0  0
  5  7  1  0  0  0
  6  9  2  0  0  0
  7 11  2  0  0  0
  8 14  1  0  0  0
  9 24  1  0  0  0
 10 17  1  0  0  0
 10 12  2  0  0  0
 10 15  1  0  0  0
 10 16  1  0  0  0
 13 18  1  0  0  0
 13 26  1  0  0  0
 13 27  1  0  0  0
 14 28  1  0  0  0
 14 29  1  0  0  0
 15 30  1  0  0  0
 16 31  1  0  0  0
 17 20  1  0  0  0
 17 32  1  0  0  0
 17 33  1  0  0  0
 18 19  1  0  0  0
 19 21  1  0  0  0
 19 34  1  0  0  0
 19 35  1  0  0  0
 20 23  1  0  0  0
 20 36  1  0  0  0
 20 37  1  0  0  0
 21 22  1  0  0  0
 21 38  1  0  0  0
 21 39  1  0  0  0
 22 23  1  0  0  0
 22 40  1  0  0  0
 22 41  1  0  0  0
 23 42  1  0  0  0
 23 43  1  0  0  0
M  END
> <s_m_entry_id>
11853

> <s_m_entry_name>
dock_pv.56

> <s_m_Source_Path>
/home/csk/Desktop/cluster/DUD-E-result/pnph

> <s_m_Source_File>
dock_pv.maegz

> <i_m_Source_File_Index>
56

> <chembl_id>
CHEMBL177945

> <chembl_pref_name>
None

> <i_lp_mmshare_version>
53161

> <r_lp_tautomer_probability>
0.999940409345307

> <s_lp_Force_Field>
OPLS_2005

> <r_lp_Energy>
-9.470158

> <b_lp_Chiralities_Consistent>
1

> <s_lp_Variant>
CHEMBL4338_lig103-1

> <s_i_glide_gridfile>
glide-grid_3bgs

> <i_i_glide_lignum>
123

> <i_i_glide_rotatable_bonds>
11

> <r_i_docking_score>
-8.2297053401804

> <r_i_glide_ligand_efficiency>
-0.357813275660017

> <r_i_glide_ligand_efficiency_sa>
-1.01757335853852

> <r_i_glide_ligand_efficiency_ln>
-1.99001737409791

> <r_i_glide_gscore>
-8.2297053401804

> <r_i_glide_lipo>
-1.42464696448958

> <r_i_glide_hbond>
-0.480511647041277

> <r_i_glide_metal>
0

> <r_i_glide_rewards>
-2.90224211993807

> <r_i_glide_evdw>
-36.2081260681152

> <r_i_glide_ecoul>
-19.6194591522217

> <r_i_glide_erotb>
1.43409654824211

> <r_i_glide_esite>
-0.103075980714563

> <r_i_glide_emodel>
-78.7850108447993

> <r_i_glide_energy>
-55.8275852203369

> <r_i_glide_einternal>
6.75725078582764

> <i_i_glide_confnum>
144

> <i_i_glide_posenum>
39

> <r_i_glide_eff_state_penalty>
0

> <s_user_duplicate_titles>
CHEMBL4338_lig103,293801

> <i_f3d_flags>
0

> <s_m_subgroup_title>
dock_pv

> <s_m_subgroupid>
dock_pv

> <b_m_subgroup_collapsed>
1

$$$$
CHEMBL4338_lig157
                    3D
 Schrodinger Suite 2021-1.
 36 37  0  0  1  0            999 V2000
   13.9829   11.2159   56.7875 C   0  0  0  0  0  0
   14.8606   11.0479   55.7546 C   0  0  0  0  0  0
   12.9577   10.4064   57.1574 N   0  0  0  0  0  0
   13.6342    9.1510   55.2922 N   0  0  0  0  0  0
   15.7451   12.0615   55.7060 N   0  0  0  0  0  0
   14.7282    9.8756   54.9060 C   0  0  0  0  0  0
   12.7883    9.4330   56.3429 C   0  0  0  0  0  0
   14.2917   12.4141   57.3418 N   0  0  0  0  0  0
   15.3540   12.8768   56.6587 C   0  0  0  0  0  0
   13.2133   15.4396   61.4464 P   0  0  0  0  0  0
   15.4366    9.5053   53.9801 O   0  0  0  0  0  0
   13.3540   15.9197   60.0467 O   0  0  0  0  0  0
   11.7540    8.6330   56.5060 N   0  0  0  0  0  0
   11.9446   14.4658   61.7060 O   0  0  0  0  0  0
   12.9540   16.6330   62.5071 O   0  0  0  0  0  0
   13.5329   13.0992   58.3932 C   0  0  0  0  0  0
   14.6152   14.5572   62.2693 C   0  0  0  0  0  0
   14.7607   13.0450   61.9809 C   0  0  0  0  0  0
   13.6404   12.3895   59.7531 C   0  0  0  0  0  0
   14.9611   12.6660   60.5003 C   0  0  0  0  0  0
   15.7867   13.8330   56.9010 H   0  0  0  0  0  0
   13.4488    8.3223   54.7427 H   0  0  0  0  0  0
   11.0388    8.8498   57.1799 H   0  0  0  0  0  0
   11.7413    7.7092   56.0431 H   0  0  0  0  0  0
   11.7540   14.2591   62.6556 H   0  0  0  0  0  0
   12.8109   16.3420   63.4263 H   0  0  0  0  0  0
   12.5025   13.1316   58.0371 H   0  0  0  0  0  0
   13.9056   14.1217   58.4252 H   0  0  0  0  0  0
   15.5378   15.0782   62.0137 H   0  0  0  0  0  0
   14.4949   14.6808   63.3450 H   0  0  0  0  0  0
   15.6279   12.6870   62.5376 H   0  0  0  0  0  0
   13.9160   12.4978   62.4042 H   0  0  0  0  0  0
   13.4961   11.3131   59.6466 H   0  0  0  0  0  0
   12.7899   12.7041   60.3514 H   0  0  0  0  0  0
   15.5469   13.4411   60.0029 H   0  0  0  0  0  0
   15.5782   11.7675   60.4416 H   0  0  0  0  0  0
  1  8  1  0  0  0
  1  3  1  0  0  0
  1  2  2  0  0  0
  2  6  1  0  0  0
  2  5  1  0  0  0
  3  7  2  0  0  0
  4  7  1  0  0  0
  4 22  1  0  0  0
  4  6  1  0  0  0
  5  9  2  0  0  0
  6 11  2  0  0  0
  7 13  1  0  0  0
  8  9  1  0  0  0
  8 16  1  0  0  0
  9 21  1  0  0  0
 10 17  1  0  0  0
 10 12  2  0  0  0
 10 14  1  0  0  0
 10 15  1  0  0  0
 13 23  1  0  0  0
 13 24  1  0  0  0
 14 25  1  0  0  0
 15 26  1  0  0  0
 16 19  1  0  0  0
 16 27  1  0  0  0
 16 28  1  0  0  0
 17 18  1  0  0  0
 17 29  1  0  0  0
 17 30  1  0  0  0
 18 20  1  0  0  0
 18 31  1  0  0  0
 18 32  1  0  0  0
 19 20  1  0  0  0
 19 33  1  0  0  0
 19 34  1  0  0  0
 20 35  1  0  0  0
 20 36  1  0  0  0
M  END
> <s_m_entry_id>
11854

> <s_m_entry_name>
dock_pv.57

> <s_m_Source_Path>
/home/csk/Desktop/cluster/DUD-E-result/pnph

> <s_m_Source_File>
dock_pv.maegz

> <i_m_Source_File_Index>
57

> <chembl_id>
CHEMBL267803

> <chembl_pref_name>
None

> <i_lp_mmshare_version>
53161

> <r_lp_tautomer_probability>
0.999940409345307

> <s_lp_Force_Field>
OPLS_2005

> <r_lp_Energy>
0.385085

> <b_lp_Chiralities_Consistent>
1

> <s_lp_Variant>
CHEMBL4338_lig157-1

> <s_i_glide_gridfile>
glide-grid_3bgs

> <i_i_glide_lignum>
213

> <i_i_glide_rotatable_bonds>
8

> <r_i_docking_score>
-8.21399264564114

> <r_i_glide_ligand_efficiency>
-0.410699632282057

> <r_i_glide_ligand_efficiency_sa>
-1.11481031588224

> <r_i_glide_ligand_efficiency_ln>
-2.05569144359495

> <r_i_glide_gscore>
-8.21399264564114

> <r_i_glide_lipo>
-1.32132872593714

> <r_i_glide_hbond>
-0.472971629618407

> <r_i_glide_metal>
0

> <r_i_glide_rewards>
-2.93579799506755

> <r_i_glide_evdw>
-32.2607688903809

> <r_i_glide_ecoul>
-19.7832260131836

> <r_i_glide_erotb>
1.21619510345953

> <r_i_glide_esite>
-0.119567051980989

> <r_i_glide_emodel>
-74.5362240053878

> <r_i_glide_energy>
-52.0439949035645

> <r_i_glide_einternal>
3.73086643218994

> <i_i_glide_confnum>
6

> <i_i_glide_posenum>
365

> <r_i_glide_eff_state_penalty>
0

> <s_user_duplicate_titles>
CHEMBL4338_lig157,3498

> <i_f3d_flags>
0

> <s_m_subgroup_title>
dock_pv

> <s_m_subgroupid>
dock_pv

> <b_m_subgroup_collapsed>
1

$$$$
CHEMBL4338_lig33
                    3D
 Schrodinger Suite 2021-1.
 26 28  0  0  1  0            999 V2000
   14.8626   10.9873   55.6378 C   0  0  0  0  0  0
   13.7310   10.6037   56.3444 C   0  0  0  0  0  0
   15.3540   10.2497   54.5981 N   0  0  0  0  0  0
   13.6478    8.7357   55.0268 N   0  0  0  0  0  0
   12.9748    9.4212   56.0075 C   0  0  0  0  0  0
   13.5725   11.5300   57.3242 N   0  0  0  0  0  0
   15.4147   12.0680   56.1684 N   0  0  0  0  0  0
   14.7946    9.1144   54.3495 C   0  0  0  0  0  0
   14.6509   12.3686   57.2007 C   0  0  0  0  0  0
   14.8646   13.5425   58.1210 C   0  0  0  0  0  0
   14.6083   13.2411   59.5813 C   0  0  0  0  0  0
   11.9244    9.0330   56.5060 O   0  0  0  0  0  0
   14.2740   14.3078   60.3561 O   0  0  0  0  0  0
   14.6327   12.0934   60.3630 C   0  0  0  0  0  0
   14.0512   13.8421   61.6106 C   0  0  0  0  0  0
   15.3540    8.2330   53.4101 N   0  0  0  0  0  0
   14.2583   12.4762   61.6488 C   0  0  0  0  0  0
   12.8555   11.5551   58.0347 H   0  0  0  0  0  0
   14.1540   14.2919   57.8074 H   0  0  0  0  0  0
   15.8454   13.9940   57.9881 H   0  0  0  0  0  0
   13.2474    7.8263   54.8060 H   0  0  0  0  0  0
   14.8760   11.0927   60.0352 H   0  0  0  0  0  0
   13.7540   14.5696   62.3521 H   0  0  0  0  0  0
   16.0842    8.5434   52.7829 H   0  0  0  0  0  0
   14.8495    7.4048   53.1133 H   0  0  0  0  0  0
   14.1540   11.8330   62.5060 H   0  0  0  0  0  0
  1  7  1  0  0  0
  1  3  1  0  0  0
  1  2  2  0  0  0
  2  5  1  0  0  0
  2  6  1  0  0  0
  3  8  2  0  0  0
  4  8  1  0  0  0
  4 21  1  0  0  0
  4  5  1  0  0  0
  5 12  2  0  0  0
  6  9  1  0  0  0
  6 18  1  0  0  0
  7  9  2  0  0  0
  8 16  1  0  0  0
  9 10  1  0  0  0
 10 11  1  0  0  0
 10 19  1  0  0  0
 10 20  1  0  0  0
 11 13  1  0  0  0
 11 14  2  0  0  0
 13 15  1  0  0  0
 14 17  1  0  0  0
 14 22  1  0  0  0
 15 17  2  0  0  0
 15 23  1  0  0  0
 16 24  1  0  0  0
 16 25  1  0  0  0
 17 26  1  0  0  0
M  END
> <s_m_entry_id>
11855

> <s_m_entry_name>
dock_pv.58

> <s_m_Source_Path>
/home/csk/Desktop/cluster/DUD-E-result/pnph

> <s_m_Source_File>
dock_pv.maegz

> <i_m_Source_File_Index>
58

> <chembl_id>
CHEMBL159555

> <chembl_pref_name>
None

> <i_lp_mmshare_version>
53161

> <r_lp_tautomer_probability>
0.116206038698038

> <s_lp_Force_Field>
OPLS_2005

> <r_lp_Energy>
16.189293

> <b_lp_Chiralities_Consistent>
1

> <s_lp_Variant>
CHEMBL4338_lig33-2

> <s_i_glide_gridfile>
glide-grid_3bgs

> <i_i_glide_lignum>
40

> <i_i_glide_rotatable_bonds>
2

> <r_i_docking_score>
-8.20344392614423

> <r_i_glide_ligand_efficiency>
-0.482555525067307

> <r_i_glide_ligand_efficiency_sa>
-1.24078613690418

> <r_i_glide_ligand_efficiency_ln>
-2.14009583861657

> <r_i_glide_gscore>
-8.20344392614423

> <r_i_glide_lipo>
-1.51251762729316

> <r_i_glide_hbond>
-0.911448745133305

> <r_i_glide_metal>
0

> <r_i_glide_rewards>
-3.40891295379976

> <r_i_glide_evdw>
-31.7669868469238

> <r_i_glide_ecoul>
-8.47005081176758

> <r_i_glide_erotb>
0.639857996113071

> <r_i_glide_esite>
-0.151565631919754

> <r_i_glide_emodel>
-60.5418124574704

> <r_i_glide_energy>
-40.2370376586914

> <r_i_glide_einternal>
0.770716488361359

> <i_i_glide_confnum>
2

> <i_i_glide_posenum>
4

> <r_i_glide_eff_state_penalty>
0

> <s_user_duplicate_titles>
CHEMBL4338_lig33,CHEMBL4338_lig33,267465

> <i_f3d_flags>
0

> <s_m_subgroup_title>
dock_pv

> <s_m_subgroupid>
dock_pv

> <b_m_subgroup_collapsed>
1

$$$$
CHEMBL4338_lig106
                    3D
 Schrodinger Suite 2021-1.
 45 46  0  0  1  0            999 V2000
   14.4645   10.9747   56.4465 C   0  0  0  0  0  0
   13.2876   10.4840   56.9356 C   0  0  0  0  0  0
   15.1002   10.5741   55.3060 N   0  0  0  0  0  0
   13.3786    9.0331   55.1488 N   0  0  0  0  0  0
   12.6231    9.4330   56.2098 C   0  0  0  0  0  0
   14.5825    9.5437   54.7314 C   0  0  0  0  0  0
   14.9326   11.7537   57.4691 N   0  0  0  0  0  0
   14.0239   11.9703   58.4349 N   0  0  0  0  0  0
   13.0208   11.2027   58.1061 C   0  0  0  0  0  0
   12.7060   15.6303   60.5655 P   0  0  0  0  0  0
   11.5603    8.9170   56.5060 O   0  0  0  0  0  0
   12.5540   17.0330   60.1060 O   0  0  0  0  0  0
   15.2609    8.8779   53.7059 N   0  0  0  0  0  0
   13.7555   14.7494   59.7060 O   0  0  0  0  0  0
   11.3540   14.7415   60.4561 O   0  0  0  0  0  0
   13.2024   15.3351   62.3084 C   0  0  0  0  0  0
   16.2689   12.2330   57.6517 C   0  0  0  0  0  0
   14.5780   15.8351   62.8081 C   0  0  0  0  0  0
   17.0087   11.5557   58.8520 C   0  0  0  0  0  0
   15.7921   15.3955   61.9726 C   0  0  0  0  0  0
   16.7060   13.4518   60.5855 C   0  0  0  0  0  0
   16.5783   11.9481   60.2808 C   0  0  0  0  0  0
   15.9753   13.8659   61.8705 C   0  0  0  0  0  0
   13.0405    8.1707   54.7346 H   0  0  0  0  0  0
   12.1541   11.1214   58.7396 H   0  0  0  0  0  0
   16.0870    9.3283   53.3384 H   0  0  0  0  0  0
   14.7012    8.4947   52.9601 H   0  0  0  0  0  0
   13.6746   13.7805   59.8010 H   0  0  0  0  0  0
   10.4946   15.2114   60.5661 H   0  0  0  0  0  0
   12.4443   15.8330   62.9060 H   0  0  0  0  0  0
   13.0959   14.2702   62.5058 H   0  0  0  0  0  0
   16.1540   13.3104   57.7590 H   0  0  0  0  0  0
   16.8259   12.0795   56.7264 H   0  0  0  0  0  0
   14.5623   16.9219   62.9060 H   0  0  0  0  0  0
   14.7167   15.4766   63.8294 H   0  0  0  0  0  0
   18.0773   11.7533   58.7687 H   0  0  0  0  0  0
   16.9147   10.4753   58.7685 H   0  0  0  0  0  0
   15.6923   15.8328   60.9795 H   0  0  0  0  0  0
   16.7007   15.8333   62.3872 H   0  0  0  0  0  0
   16.2819   14.0238   59.7634 H   0  0  0  0  0  0
   17.7543   13.7431   60.6370 H   0  0  0  0  0  0
   17.1853   11.3934   60.9985 H   0  0  0  0  0  0
   15.5590   11.6082   60.4599 H   0  0  0  0  0  0
   16.4994   13.4861   62.7486 H   0  0  0  0  0  0
   15.0047   13.3728   61.8755 H   0  0  0  0  0  0
  1  2  2  0  0  0
  1  3  1  0  0  0
  1  7  1  0  0  0
  2  5  1  0  0  0
  2  9  1  0  0  0
  3  6  2  0  0  0
  4  6  1  0  0  0
  4  5  1  0  0  0
  4 24  1  0  0  0
  5 11  2  0  0  0
  6 13  1  0  0  0
  7  8  1  0  0  0
  7 17  1  0  0  0
  8  9  2  0  0  0
  9 25  1  0  0  0
 10 16  1  0  0  0
 10 12  2  0  0  0
 10 14  1  0  0  0
 10 15  1  0  0  0
 13 26  1  0  0  0
 13 27  1  0  0  0
 14 28  1  0  0  0
 15 29  1  0  0  0
 16 18  1  0  0  0
 16 30  1  0  0  0
 16 31  1  0  0  0
 17 19  1  0  0  0
 17 32  1  0  0  0
 17 33  1  0  0  0
 18 20  1  0  0  0
 18 34  1  0  0  0
 18 35  1  0  0  0
 19 22  1  0  0  0
 19 36  1  0  0  0
 19 37  1  0  0  0
 20 23  1  0  0  0
 20 38  1  0  0  0
 20 39  1  0  0  0
 21 22  1  0  0  0
 21 23  1  0  0  0
 21 40  1  0  0  0
 21 41  1  0  0  0
 22 42  1  0  0  0
 22 43  1  0  0  0
 23 44  1  0  0  0
 23 45  1  0  0  0
M  END
> <s_m_entry_id>
11856

> <s_m_entry_name>
dock_pv.59

> <s_m_Source_Path>
/home/csk/Desktop/cluster/DUD-E-result/pnph

> <s_m_Source_File>
dock_pv.maegz

> <i_m_Source_File_Index>
59

> <chembl_id>
CHEMBL176649

> <chembl_pref_name>
None

> <i_lp_mmshare_version>
53161

> <r_lp_tautomer_probability>
1

> <s_lp_Force_Field>
OPLS_2005

> <r_lp_Energy>
10.277599

> <b_lp_Chiralities_Consistent>
1

> <s_lp_Variant>
CHEMBL4338_lig106-1

> <s_i_glide_gridfile>
glide-grid_3bgs

> <i_i_glide_lignum>
126

> <i_i_glide_rotatable_bonds>
11

> <r_i_docking_score>
-8.20098516475408

> <r_i_glide_ligand_efficiency>
-0.356564572380612

> <r_i_glide_ligand_efficiency_sa>
-1.0140222125183

> <r_i_glide_ligand_efficiency_ln>
-1.98307257525967

> <r_i_glide_gscore>
-8.20098516475408

> <r_i_glide_lipo>
-1.6835910040352

> <r_i_glide_hbond>
-0.765499251602926

> <r_i_glide_metal>
0

> <r_i_glide_rewards>
-2.70276694479448

> <r_i_glide_evdw>
-33.628963470459

> <r_i_glide_ecoul>
-15.2747812271118

> <r_i_glide_erotb>
1.01412913107968

> <r_i_glide_esite>
-0.0905917378114379

> <r_i_glide_emodel>
-63.8477447729765

> <r_i_glide_energy>
-48.9037446975708

> <r_i_glide_einternal>
3.85224509239197

> <i_i_glide_confnum>
202

> <i_i_glide_posenum>
2

> <r_i_glide_eff_state_penalty>
0

> <s_user_duplicate_titles>
CHEMBL4338_lig106

> <i_f3d_flags>
0

> <s_m_subgroup_title>
dock_pv

> <s_m_subgroupid>
dock_pv

> <b_m_subgroup_collapsed>
1

$$$$
CHEMBL4338_lig146
                    3D
 Schrodinger Suite 2021-1.
 38 40  0  0  1  0            999 V2000
   14.1383   11.0633   56.9999 C   0  0  0  0  0  0
   14.8570   11.0968   55.8403 C   0  0  0  0  0  0
   13.1088   10.2358   57.3224 N   0  0  0  0  0  0
   14.7180   11.9906   57.8022 N   0  0  0  0  0  0
   13.5523    9.3042   55.2154 N   0  0  0  0  0  0
   15.7388   12.1132   55.8371 N   0  0  0  0  0  0
   14.6547   10.0418   54.8686 C   0  0  0  0  0  0
   12.8049    9.4318   56.3703 C   0  0  0  0  0  0
   15.6049   12.6464   57.0301 C   0  0  0  0  0  0
   16.0121   13.6107   62.5925 P   0  0  0  0  0  0
   14.4681   12.1868   59.2336 C   0  0  0  0  0  0
   13.5269   13.3366   59.5379 C   0  0  0  0  0  0
   15.8497   15.0736   61.5046 C   0  0  0  0  0  0
   15.3540    9.7573   53.9032 O   0  0  0  0  0  0
   16.4950   13.8334   63.9804 O   0  0  0  0  0  0
   15.3772   14.6818   60.2200 O   0  0  0  0  0  0
   14.0173   14.5344   60.0725 C   0  0  0  0  0  0
   11.7540    8.6330   56.5060 N   0  0  0  0  0  0
   14.5676   12.8773   62.5060 O   0  0  0  0  0  0
   16.9526   12.6331   61.7065 O   0  0  0  0  0  0
   12.1546   13.1638   59.3506 C   0  0  0  0  0  0
   13.1209   15.5525   60.4191 C   0  0  0  0  0  0
   11.2703   14.1785   59.7062 C   0  0  0  0  0  0
   11.7540   15.3664   60.2494 C   0  0  0  0  0  0
   16.1539   13.4884   57.4216 H   0  0  0  0  0  0
   15.4510   12.3059   59.6882 H   0  0  0  0  0  0
   14.0642   11.2482   59.6176 H   0  0  0  0  0  0
   16.8519   15.4788   61.3956 H   0  0  0  0  0  0
   15.2532   15.8334   62.0035 H   0  0  0  0  0  0
   13.3309    8.5391   54.5925 H   0  0  0  0  0  0
   11.1005    8.7764   57.2575 H   0  0  0  0  0  0
   11.7349    7.7271   56.0079 H   0  0  0  0  0  0
   14.2015   12.5737   63.3689 H   0  0  0  0  0  0
   17.0392   11.7260   62.0615 H   0  0  0  0  0  0
   11.7807   12.2329   58.9492 H   0  0  0  0  0  0
   13.4711   16.4880   60.8222 H   0  0  0  0  0  0
   10.2054   14.0476   59.5846 H   0  0  0  0  0  0
   11.0590   16.1433   60.5325 H   0  0  0  0  0  0
  1  4  1  0  0  0
  1  3  1  0  0  0
  1  2  2  0  0  0
  2  7  1  0  0  0
  2  6  1  0  0  0
  3  8  2  0  0  0
  4  9  1  0  0  0
  4 11  1  0  0  0
  5  8  1  0  0  0
  5 30  1  0  0  0
  5  7  1  0  0  0
  6  9  2  0  0  0
  7 14  2  0  0  0
  8 18  1  0  0  0
  9 25  1  0  0  0
 10 13  1  0  0  0
 10 15  2  0  0  0
 10 19  1  0  0  0
 10 20  1  0  0  0
 11 12  1  0  0  0
 11 26  1  0  0  0
 11 27  1  0  0  0
 12 17  2  0  0  0
 12 21  1  0  0  0
 13 16  1  0  0  0
 13 28  1  0  0  0
 13 29  1  0  0  0
 16 17  1  0  0  0
 17 22  1  0  0  0
 18 31  1  0  0  0
 18 32  1  0  0  0
 19 33  1  0  0  0
 20 34  1  0  0  0
 21 23  2  0  0  0
 21 35  1  0  0  0
 22 24  2  0  0  0
 22 36  1  0  0  0
 23 24  1  0  0  0
 23 37  1  0  0  0
 24 38  1  0  0  0
M  END
> <s_m_entry_id>
11857

> <s_m_entry_name>
dock_pv.60

> <s_m_Source_Path>
/home/csk/Desktop/cluster/DUD-E-result/pnph

> <s_m_Source_File>
dock_pv.maegz

> <i_m_Source_File_Index>
60

> <chembl_id>
CHEMBL327010

> <chembl_pref_name>
None

> <i_lp_mmshare_version>
53161

> <r_lp_tautomer_probability>
0.999940409345307

> <s_lp_Force_Field>
OPLS_2005

> <r_lp_Energy>
5.421921

> <b_lp_Chiralities_Consistent>
1

> <s_lp_Variant>
CHEMBL4338_lig146-1

> <s_i_glide_gridfile>
glide-grid_3bgs

> <i_i_glide_lignum>
191

> <i_i_glide_rotatable_bonds>
7

> <r_i_docking_score>
-8.18959077312316

> <r_i_glide_ligand_efficiency>
-0.341232948880132

> <r_i_glide_ligand_efficiency_sa>
-0.984286146751494

> <r_i_glide_ligand_efficiency_ln>
-1.96014486784177

> <r_i_glide_gscore>
-8.18959077312316

> <r_i_glide_lipo>
-1.79408741419376

> <r_i_glide_hbond>
-0.409469399104742

> <r_i_glide_metal>
0

> <r_i_glide_rewards>
-2.54280642359916

> <r_i_glide_evdw>
-39.5585746765137

> <r_i_glide_ecoul>
-14.2542943954468

> <r_i_glide_erotb>
0.772845356917205

> <r_i_glide_esite>
-0.1

> <r_i_glide_emodel>
-73.4364947154162

> <r_i_glide_energy>
-53.8128690719604

> <r_i_glide_einternal>
7.00475597381592

> <i_i_glide_confnum>
79

> <i_i_glide_posenum>
393

> <r_i_glide_eff_state_penalty>
0

> <s_user_duplicate_titles>
CHEMBL4338_lig146,190576

> <i_f3d_flags>
0

> <s_m_subgroup_title>
dock_pv

> <s_m_subgroupid>
dock_pv

> <b_m_subgroup_collapsed>
1

$$$$
CHEMBL4338_lig48
                    3D
 Schrodinger Suite 2021-1.
 27 29  0  0  1  0            999 V2000
   13.7505   10.6159   56.2813 C   0  0  0  0  0  0
   14.8416   11.0331   55.5583 C   0  0  0  0  0  0
   13.6522    8.6935   54.8776 N   0  0  0  0  0  0
   13.1119    9.4330   55.8721 C   0  0  0  0  0  0
   15.3540   10.3388   54.5138 N   0  0  0  0  0  0
   13.5143   11.4369   57.3760 N   0  0  0  0  0  0
   14.7554    9.1561   54.2594 C   0  0  0  0  0  0
   14.4344   12.3293   57.4112 C   0  0  0  0  0  0
   15.3657   12.2706   56.1995 C   0  0  0  0  0  0
   13.4160   13.7384   59.2848 C   0  0  0  0  0  0
   14.6732   13.3554   58.5189 C   0  0  0  0  0  0
   11.9763    9.0329   56.5060 O   0  0  0  0  0  0
   13.3251   15.0297   59.7062 O   0  0  0  0  0  0
   12.3227   13.0331   59.7639 C   0  0  0  0  0  0
   12.1584   15.1509   60.3913 C   0  0  0  0  0  0
   15.3540    8.2959   53.3582 N   0  0  0  0  0  0
   11.5021   13.9345   60.4331 C   0  0  0  0  0  0
   15.2512   13.1531   55.5698 H   0  0  0  0  0  0
   16.4085   12.1798   56.5035 H   0  0  0  0  0  0
   15.1430   14.2314   58.0813 H   0  0  0  0  0  0
   15.4058   12.9472   59.2150 H   0  0  0  0  0  0
   11.7530    8.1541   56.1631 H   0  0  0  0  0  0
   12.1540   11.9778   59.6200 H   0  0  0  0  0  0
   11.9294   16.1291   60.7862 H   0  0  0  0  0  0
   16.1708    8.5902   52.8375 H   0  0  0  0  0  0
   14.8949    7.3969   53.2325 H   0  0  0  0  0  0
   10.5567   13.7203   60.9060 H   0  0  0  0  0  0
  1  2  2  0  0  0
  1  4  1  0  0  0
  1  6  1  0  0  0
  2  5  1  0  0  0
  2  9  1  0  0  0
  3  4  2  0  0  0
  3  7  1  0  0  0
  4 12  1  0  0  0
  5  7  2  0  0  0
  6  8  2  0  0  0
  7 16  1  0  0  0
  8 11  1  0  0  0
  8  9  1  0  0  0
  9 18  1  0  0  0
  9 19  1  0  0  0
 10 11  1  0  0  0
 10 13  1  0  0  0
 10 14  2  0  0  0
 11 20  1  0  0  0
 11 21  1  0  0  0
 12 22  1  0  0  0
 13 15  1  0  0  0
 14 17  1  0  0  0
 14 23  1  0  0  0
 15 17  2  0  0  0
 15 24  1  0  0  0
 16 25  1  0  0  0
 16 26  1  0  0  0
 17 27  1  0  0  0
M  END
> <s_m_entry_id>
11858

> <s_m_entry_name>
dock_pv.61

> <s_m_Source_Path>
/home/csk/Desktop/cluster/DUD-E-result/pnph

> <s_m_Source_File>
dock_pv.maegz

> <i_m_Source_File_Index>
61

> <chembl_id>
CHEMBL349024

> <chembl_pref_name>
None

> <i_lp_mmshare_version>
53161

> <r_lp_tautomer_probability>
0.999601159137504

> <s_lp_Force_Field>
OPLS_2005

> <r_lp_Energy>
12.447329

> <b_lp_Chiralities_Consistent>
1

> <s_lp_Variant>
CHEMBL4338_lig48-1

> <s_i_glide_gridfile>
glide-grid_3bgs

> <i_i_glide_lignum>
59

> <i_i_glide_rotatable_bonds>
3

> <r_i_docking_score>
-8.16846113080184

> <r_i_glide_ligand_efficiency>
-0.480497713576579

> <r_i_glide_ligand_efficiency_sa>
-1.23549492410602

> <r_i_glide_ligand_efficiency_ln>
-2.13096960634029

> <r_i_glide_gscore>
-8.16846113080184

> <r_i_glide_lipo>
-2.0419577923164

> <r_i_glide_hbond>
-0.885869429485514

> <r_i_glide_metal>
0

> <r_i_glide_rewards>
-3.08939068181818

> <r_i_glide_evdw>
-32.6739234924316

> <r_i_glide_ecoul>
-7.40419578552246

> <r_i_glide_erotb>
0.644526848513468

> <r_i_glide_esite>
-0.0514445332452596

> <r_i_glide_emodel>
-58.0629998952154

> <r_i_glide_energy>
-40.0781192779541

> <r_i_glide_einternal>
2.27677583694458

> <i_i_glide_confnum>
7

> <i_i_glide_posenum>
251

> <r_i_glide_eff_state_penalty>
0

> <s_user_duplicate_titles>
CHEMBL4338_lig48,267597

> <i_f3d_flags>
0

> <s_m_subgroup_title>
dock_pv

> <s_m_subgroupid>
dock_pv

> <b_m_subgroup_collapsed>
1

$$$$
CHEMBL4338_lig114
                    3D
 Schrodinger Suite 2021-1.
 32 34  0  0  1  0            999 V2000
   13.4578   13.7955   61.0415 C   0  0  1  0  0  0
   14.4342   13.5347   59.9083 C   0  0  2  0  0  0
   13.8344   12.2810   59.2543 C   0  0  1  0  0  0
   12.4229   12.4604   59.3893 O   0  0  0  0  0  0
   12.1075   13.4324   60.3965 C   0  0  2  0  0  0
   13.7537   13.0330   62.1997 O   0  0  0  0  0  0
   15.7890   13.4320   60.3160 O   0  0  0  0  0  0
   11.4184   14.6209   59.7067 C   0  0  0  0  0  0
   10.1540   14.2330   59.2107 O   0  0  0  0  0  0
   14.2537   12.0673   57.8056 C   0  0  0  0  0  0
   14.3264   11.3127   55.5635 C   0  0  1  0  0  0
   13.7543   11.0470   56.9393 C   0  0  0  0  0  0
   15.4731   12.1329   55.8573 N   0  0  0  0  0  0
   15.1955   12.7053   57.0728 C   0  0  0  0  0  0
   14.5560    9.9620   54.8138 C   0  0  0  0  0  0
   13.5374    9.0330   55.0342 N   0  0  0  0  0  0
   12.9720   10.0583   57.1596 N   0  0  0  0  0  0
   12.8392    9.1473   56.1060 C   0  0  0  0  0  0
   15.5456    9.8330   54.1060 O   0  0  0  0  0  0
   13.4858   14.8516   61.3164 H   0  0  0  0  0  0
   14.3618   14.3701   59.2105 H   0  0  0  0  0  0
   14.0969   11.3928   59.8341 H   0  0  0  0  0  0
   11.4499   13.0137   61.1603 H   0  0  0  0  0  0
   13.0820   13.1911   62.8739 H   0  0  0  0  0  0
   15.8299   12.7626   61.0066 H   0  0  0  0  0  0
   12.0367   15.0190   58.9060 H   0  0  0  0  0  0
   11.2712   15.4353   60.4170 H   0  0  0  0  0  0
    9.4975   14.5877   59.8393 H   0  0  0  0  0  0
   13.5918   11.8330   54.9588 H   0  0  0  0  0  0
   15.7610   12.7318   55.0949 H   0  0  0  0  0  0
   15.8168   13.5351   57.3762 H   0  0  0  0  0  0
   12.0398    8.4197   56.2177 H   0  0  0  0  0  0
  1  5  1  0  0  0
  1  2  1  0  0  0
  1  6  1  0  0  0
  1 20  1  0  0  0
  2  7  1  0  0  0
  2  3  1  0  0  0
  2 21  1  0  0  0
  3  4  1  0  0  0
  3 10  1  0  0  0
  3 22  1  0  0  0
  4  5  1  0  0  0
  5  8  1  0  0  0
  5 23  1  0  0  0
  6 24  1  0  0  0
  7 25  1  0  0  0
  8  9  1  0  0  0
  8 26  1  0  0  0
  8 27  1  0  0  0
  9 28  1  0  0  0
 10 12  1  0  0  0
 10 14  2  0  0  0
 11 12  1  0  0  0
 11 15  1  0  0  0
 11 13  1  0  0  0
 11 29  1  0  0  0
 12 17  2  0  0  0
 13 14  1  0  0  0
 13 30  1  0  0  0
 14 31  1  0  0  0
 15 19  2  0  0  0
 15 16  1  0  0  0
 16 18  2  0  0  0
 17 18  1  0  0  0
 18 32  1  0  0  0
M  END
> <s_m_entry_id>
11859

> <s_m_entry_name>
dock_pv.62

> <s_m_Source_Path>
/home/csk/Desktop/cluster/DUD-E-result/pnph

> <s_m_Source_File>
dock_pv.maegz

> <i_m_Source_File_Index>
62

> <chembl_id>
CHEMBL3143996

> <chembl_pref_name>
None

> <i_lp_mmshare_version>
53161

> <r_lp_tautomer_probability>
1

> <s_lp_Force_Field>
OPLS_2005

> <r_lp_Energy>
56.793542

> <b_lp_Chiralities_Consistent>
1

> <s_lp_Variant>
CHEMBL4338_lig114-1

> <s_i_glide_gridfile>
glide-grid_3bgs

> <i_i_glide_lignum>
136

> <i_i_glide_rotatable_bonds>
5

> <r_i_docking_score>
-8.15433196693209

> <r_i_glide_ligand_efficiency>
-0.429175366680637

> <r_i_glide_ligand_efficiency_sa>
-1.14521225491745

> <r_i_glide_ligand_efficiency_ln>
-2.06729829260923

> <r_i_glide_gscore>
-8.15433196693209

> <r_i_glide_lipo>
-2.11608137373158

> <r_i_glide_hbond>
-0.31473258898004

> <r_i_glide_metal>
0

> <r_i_glide_rewards>
-2.39903092524135

> <r_i_glide_evdw>
-30.8581428527832

> <r_i_glide_ecoul>
-15.1754198074341

> <r_i_glide_erotb>
0.49928692995382

> <r_i_glide_esite>
-0.00455389517868022

> <r_i_glide_emodel>
-66.0120303228669

> <r_i_glide_energy>
-46.0335626602173

> <r_i_glide_einternal>
1.30884945392609

> <i_i_glide_confnum>
27

> <i_i_glide_posenum>
319

> <r_i_glide_eff_state_penalty>
0

> <s_user_duplicate_titles>
CHEMBL4338_lig114

> <i_f3d_flags>
0

> <s_m_subgroup_title>
dock_pv

> <s_m_subgroupid>
dock_pv

> <b_m_subgroup_collapsed>
1

$$$$
CHEMBL4338_lig47
                    3D
 Schrodinger Suite 2021-1.
 32 34  0  0  1  0            999 V2000
   13.6540   10.6447   56.6151 C   0  0  0  0  0  0
   14.7794   11.1632   56.0105 C   0  0  0  0  0  0
   13.5872    9.0064   54.8854 N   0  0  0  0  0  0
   13.0242    9.5556   55.9819 C   0  0  0  0  0  0
   15.3542   10.6328   54.9059 N   0  0  0  0  0  0
   13.3890   11.2704   57.8324 N   0  0  0  0  0  0
   14.7395    9.5264   54.4265 C   0  0  0  0  0  0
   14.3382   12.1074   58.0300 C   0  0  0  0  0  0
   15.2783   12.2839   56.8481 C   0  0  0  0  0  0
   13.2731   14.0083   60.8135 C   0  0  0  0  0  0
   13.7544   15.0266   61.6498 C   0  0  0  0  0  0
   11.7541   14.4457   60.0936 S   0  0  0  0  0  0
   11.7542   15.9595   60.9056 C   0  0  0  0  0  0
   14.6216   12.8227   59.1773 N   0  0  0  0  0  0
   11.8831    9.0329   56.5060 O   0  0  0  0  0  0
   12.8689   16.1126   61.7060 C   0  0  0  0  0  0
   13.9083   12.6920   60.4401 C   0  0  0  0  0  0
   15.3539    8.7972   53.4273 N   0  0  0  0  0  0
   15.0296   14.9427   62.4593 C   0  0  0  0  0  0
   15.1432   13.2577   56.3777 H   0  0  0  0  0  0
   16.3210   12.1606   57.1396 H   0  0  0  0  0  0
   10.9249   16.6330   60.7656 H   0  0  0  0  0  0
   15.4052   13.4586   59.1885 H   0  0  0  0  0  0
   11.7422    8.1631   56.1019 H   0  0  0  0  0  0
   13.0466   16.9852   62.3178 H   0  0  0  0  0  0
   14.6256   12.3692   61.1950 H   0  0  0  0  0  0
   13.1598   11.8979   60.3942 H   0  0  0  0  0  0
   16.2139    9.1218   52.9952 H   0  0  0  0  0  0
   14.9086    7.9262   53.1657 H   0  0  0  0  0  0
   15.1617   13.9473   62.8859 H   0  0  0  0  0  0
   15.9103   15.1374   61.8457 H   0  0  0  0  0  0
   15.0357   15.6335   63.3029 H   0  0  0  0  0  0
  1  2  2  0  0  0
  1  4  1  0  0  0
  1  6  1  0  0  0
  2  5  1  0  0  0
  2  9  1  0  0  0
  3  4  2  0  0  0
  3  7  1  0  0  0
  4 15  1  0  0  0
  5  7  2  0  0  0
  6  8  2  0  0  0
  7 18  1  0  0  0
  8 14  1  0  0  0
  8  9  1  0  0  0
  9 20  1  0  0  0
  9 21  1  0  0  0
 10 17  1  0  0  0
 10 11  2  0  0  0
 10 12  1  0  0  0
 11 16  1  0  0  0
 11 19  1  0  0  0
 12 13  1  0  0  0
 13 16  2  0  0  0
 13 22  1  0  0  0
 14 17  1  0  0  0
 14 23  1  0  0  0
 15 24  1  0  0  0
 16 25  1  0  0  0
 17 26  1  0  0  0
 17 27  1  0  0  0
 18 28  1  0  0  0
 18 29  1  0  0  0
 19 30  1  0  0  0
 19 31  1  0  0  0
 19 32  1  0  0  0
M  END
> <s_m_entry_id>
11860

> <s_m_entry_name>
dock_pv.63

> <s_m_Source_Path>
/home/csk/Desktop/cluster/DUD-E-result/pnph

> <s_m_Source_File>
dock_pv.maegz

> <i_m_Source_File_Index>
63

> <chembl_id>
CHEMBL348923

> <chembl_pref_name>
None

> <i_lp_mmshare_version>
53161

> <r_lp_tautomer_probability>
0.999601159137504

> <s_lp_Force_Field>
OPLS_2005

> <r_lp_Energy>
8.291368

> <b_lp_Chiralities_Consistent>
1

> <s_lp_Variant>
CHEMBL4338_lig47-1

> <s_i_glide_gridfile>
glide-grid_3bgs

> <i_i_glide_lignum>
58

> <i_i_glide_rotatable_bonds>
4

> <r_i_docking_score>
-8.12718898962167

> <r_i_glide_ligand_efficiency>
-0.427746788927456

> <r_i_glide_ligand_efficiency_sa>
-1.14140023568928

> <r_i_glide_ligand_efficiency_ln>
-2.06041696488334

> <r_i_glide_gscore>
-8.12718898962167

> <r_i_glide_lipo>
-2.06413230786882

> <r_i_glide_hbond>
-0.717769360370017

> <r_i_glide_metal>
0

> <r_i_glide_rewards>
-2.83870347177163

> <r_i_glide_evdw>
-38.9702682495117

> <r_i_glide_ecoul>
-8.37982368469238

> <r_i_glide_erotb>
0.711244798943364

> <r_i_glide_esite>
-0.0123416833751293

> <r_i_glide_emodel>
-67.034501449351

> <r_i_glide_energy>
-47.3500919342041

> <r_i_glide_einternal>
4.46575689315796

> <i_i_glide_confnum>
9

> <i_i_glide_posenum>
99

> <r_i_glide_eff_state_penalty>
0

> <s_user_duplicate_titles>
CHEMBL4338_lig47,267946

> <i_f3d_flags>
0

> <s_m_subgroup_title>
dock_pv

> <s_m_subgroupid>
dock_pv

> <b_m_subgroup_collapsed>
1

$$$$
CHEMBL4338_lig99
                    3D
 Schrodinger Suite 2021-1.
 35 36  0  0  1  0            999 V2000
   14.1540   11.1522   56.8656 C   0  0  0  0  0  0
   14.9353   10.9977   55.7060 C   0  0  0  0  0  0
   13.1166   10.3846   57.2106 N   0  0  0  0  0  0
   15.9141   11.9476   55.7060 N   0  0  0  0  0  0
   15.7540   12.7143   56.8371 N   0  0  0  0  0  0
   13.5259    9.1580   55.1569 N   0  0  0  0  0  0
   14.5890    9.9276   54.8570 C   0  0  0  0  0  0
   14.7078   12.2299   57.5280 N   0  0  0  0  0  0
   12.8479    9.4330   56.2839 C   0  0  0  0  0  0
   12.1395   14.8560   60.4942 P   0  0  0  0  0  0
   15.3540    9.6836   53.7661 O   0  0  0  0  0  0
   11.2691   13.7527   60.0072 O   0  0  0  0  0  0
   11.7540    8.6330   56.5060 N   0  0  0  0  0  0
   11.3540   15.9585   61.3670 O   0  0  0  0  0  0
   12.7554   15.7606   59.3060 O   0  0  0  0  0  0
   14.3260   12.8095   58.7962 C   0  0  0  0  0  0
   13.6439   14.5233   61.5123 C   0  0  0  0  0  0
   13.7480   13.1019   62.1060 C   0  0  0  0  0  0
   14.7047   11.8849   59.9778 C   0  0  0  0  0  0
   13.6823   11.9091   61.1303 C   0  0  0  0  0  0
   15.0496    8.8858   53.3258 H   0  0  0  0  0  0
   11.7540    7.7357   55.9898 H   0  0  0  0  0  0
   11.2966    8.6953   57.3971 H   0  0  0  0  0  0
   10.3767   15.8330   61.3121 H   0  0  0  0  0  0
   12.5540   15.4329   58.3967 H   0  0  0  0  0  0
   13.2487   12.9337   58.7214 H   0  0  0  0  0  0
   14.7702   13.8006   58.8930 H   0  0  0  0  0  0
   14.5333   14.7476   60.9269 H   0  0  0  0  0  0
   13.6536   15.2483   62.3260 H   0  0  0  0  0  0
   14.6752   13.0322   62.6768 H   0  0  0  0  0  0
   12.9540   12.9709   62.8412 H   0  0  0  0  0  0
   15.7049   12.1222   60.3431 H   0  0  0  0  0  0
   14.7649   10.8494   59.6347 H   0  0  0  0  0  0
   13.8066   10.9972   61.7149 H   0  0  0  0  0  0
   12.6815   11.8330   60.7134 H   0  0  0  0  0  0
  1  2  1  0  0  0
  1  3  2  0  0  0
  1  8  1  0  0  0
  2  4  1  0  0  0
  2  7  2  0  0  0
  3  9  1  0  0  0
  4  5  2  0  0  0
  5  8  1  0  0  0
  6  9  2  0  0  0
  6  7  1  0  0  0
  7 11  1  0  0  0
  8 16  1  0  0  0
  9 13  1  0  0  0
 10 17  1  0  0  0
 10 12  2  0  0  0
 10 14  1  0  0  0
 10 15  1  0  0  0
 11 21  1  0  0  0
 13 22  1  0  0  0
 13 23  1  0  0  0
 14 24  1  0  0  0
 15 25  1  0  0  0
 16 19  1  0  0  0
 16 26  1  0  0  0
 16 27  1  0  0  0
 17 18  1  0  0  0
 17 28  1  0  0  0
 17 29  1  0  0  0
 18 20  1  0  0  0
 18 30  1  0  0  0
 18 31  1  0  0  0
 19 20  1  0  0  0
 19 32  1  0  0  0
 19 33  1  0  0  0
 20 34  1  0  0  0
 20 35  1  0  0  0
M  END
> <s_m_entry_id>
11861

> <s_m_entry_name>
dock_pv.64

> <s_m_Source_Path>
/home/csk/Desktop/cluster/DUD-E-result/pnph

> <s_m_Source_File>
dock_pv.maegz

> <i_m_Source_File_Index>
64

> <chembl_id>
CHEMBL369052

> <chembl_pref_name>
None

> <i_lp_mmshare_version>
53161

> <r_lp_tautomer_probability>
1

> <s_lp_Force_Field>
OPLS_2005

> <r_lp_Energy>
4.275034

> <b_lp_Chiralities_Consistent>
1

> <s_lp_Variant>
CHEMBL4338_lig99-1

> <s_i_glide_gridfile>
glide-grid_3bgs

> <i_i_glide_lignum>
119

> <i_i_glide_rotatable_bonds>
9

> <r_i_docking_score>
-8.12548282811421

> <r_i_glide_ligand_efficiency>
-0.406274141405711

> <r_i_glide_ligand_efficiency_sa>
-1.1027976854974

> <r_i_glide_ligand_efficiency_ln>
-2.03354035551712

> <r_i_glide_gscore>
-8.12548282811421

> <r_i_glide_lipo>
-1.3570117572135

> <r_i_glide_hbond>
-0.54456311853286

> <r_i_glide_metal>
0

> <r_i_glide_rewards>
-2.4934128412168

> <r_i_glide_evdw>
-31.9017028808594

> <r_i_glide_ecoul>
-21.6310081481934

> <r_i_glide_erotb>
1.20924125512092

> <r_i_glide_esite>
-0.1

> <r_i_glide_emodel>
-72.821047326819

> <r_i_glide_energy>
-53.5327110290527

> <r_i_glide_einternal>
9.13224315643311

> <i_i_glide_confnum>
73

> <i_i_glide_posenum>
310

> <r_i_glide_eff_state_penalty>
0

> <s_user_duplicate_titles>
CHEMBL4338_lig99,292754

> <i_f3d_flags>
0

> <s_m_subgroup_title>
dock_pv

> <s_m_subgroupid>
dock_pv

> <b_m_subgroup_collapsed>
1

$$$$
CHEMBL4338_lig151
                    3D
 Schrodinger Suite 2021-1.
 32 33  0  0  1  0            999 V2000
   13.9192   11.5270   57.8959 N   0  0  0  0  0  0
   13.3865   11.7295   59.2360 C   0  0  1  0  0  0
   14.2659   10.6152   56.0373 C   0  0  0  0  0  0
   14.9770   11.7382   55.9755 N   0  0  0  0  0  0
   13.5818   10.4577   57.1654 N   0  0  0  0  0  0
   14.7771   12.2830   57.1395 C   0  0  0  0  0  0
   14.3640   11.5830   60.4207 C   0  0  2  0  0  0
   12.8394   13.0122   59.3220 O   0  0  0  0  0  0
   13.6578   12.4833   61.4358 C   0  0  2  0  0  0
   13.1108   13.6296   60.5773 C   0  0  2  0  0  0
   14.3267    9.5869   54.9728 C   0  0  0  0  0  0
   15.2393    9.6379   54.1060 N   0  0  0  0  0  0
   15.3540   13.4330   57.5671 N   0  0  0  0  0  0
   15.6943   11.9928   60.1367 O   0  0  0  0  0  0
   13.3540    8.6330   55.0877 N   0  0  0  0  0  0
   14.4779   12.9316   62.5060 O   0  0  0  0  0  0
   11.8294   14.2662   61.1386 C   0  0  0  0  0  0
   11.3540   15.2966   60.3019 O   0  0  0  0  0  0
   12.5540   11.0330   59.3464 H   0  0  0  0  0  0
   14.3695   10.5454   60.7563 H   0  0  0  0  0  0
   12.8194   11.9229   61.8503 H   0  0  0  0  0  0
   13.8714   14.3984   60.4275 H   0  0  0  0  0  0
   15.1879    8.8646   53.4587 H   0  0  0  0  0  0
   15.9857   13.9490   56.9770 H   0  0  0  0  0  0
   15.3456   13.6555   58.5532 H   0  0  0  0  0  0
   16.1887   11.9677   60.9614 H   0  0  0  0  0  0
   13.3549    7.7787   54.5273 H   0  0  0  0  0  0
   12.6567    8.7008   55.8124 H   0  0  0  0  0  0
   14.1540   12.5475   63.3367 H   0  0  0  0  0  0
   11.0466   13.5198   61.2818 H   0  0  0  0  0  0
   12.0400   14.7137   62.1060 H   0  0  0  0  0  0
   10.4136   15.4330   60.5060 H   0  0  0  0  0  0
  1  2  1  0  0  0
  1  5  1  0  0  0
  1  6  1  0  0  0
  2  7  1  0  0  0
  2  8  1  0  0  0
  2 19  1  0  0  0
  3  4  1  0  0  0
  3  5  2  0  0  0
  3 11  1  0  0  0
  4  6  2  0  0  0
  6 13  1  0  0  0
  7  9  1  0  0  0
  7 14  1  0  0  0
  7 20  1  0  0  0
  8 10  1  0  0  0
  9 10  1  0  0  0
  9 16  1  0  0  0
  9 21  1  0  0  0
 10 17  1  0  0  0
 10 22  1  0  0  0
 11 12  2  0  0  0
 11 15  1  0  0  0
 12 23  1  0  0  0
 13 24  1  0  0  0
 13 25  1  0  0  0
 14 26  1  0  0  0
 15 27  1  0  0  0
 15 28  1  0  0  0
 16 29  1  0  0  0
 17 18  1  0  0  0
 17 30  1  0  0  0
 17 31  1  0  0  0
 18 32  1  0  0  0
M  END
> <s_m_entry_id>
11862

> <s_m_entry_name>
dock_pv.65

> <s_m_Source_Path>
/home/csk/Desktop/cluster/DUD-E-result/pnph

> <s_m_Source_File>
dock_pv.maegz

> <i_m_Source_File_Index>
65

> <chembl_id>
CHEMBL552896

> <chembl_pref_name>
None

> <i_lp_mmshare_version>
53161

> <r_lp_tautomer_probability>
1

> <s_lp_Force_Field>
OPLS_2005

> <r_lp_Energy>
39.667763

> <b_lp_Chiralities_Consistent>
1

> <s_lp_Variant>
CHEMBL4338_lig151-2

> <s_i_glide_gridfile>
glide-grid_3bgs

> <i_i_glide_lignum>
198

> <i_i_glide_rotatable_bonds>
6

> <r_i_docking_score>
-8.09030120819487

> <r_i_glide_ligand_efficiency>
-0.449461178233048

> <r_i_glide_ligand_efficiency_sa>
-1.17792151375038

> <r_i_glide_ligand_efficiency_ln>
-2.07957020862447

> <r_i_glide_gscore>
-8.09030120819487

> <r_i_glide_lipo>
-0.794456441645064

> <r_i_glide_hbond>
-0.270700321403132

> <r_i_glide_metal>
0

> <r_i_glide_rewards>
-3.44840072727273

> <r_i_glide_evdw>
-31.678897857666

> <r_i_glide_ecoul>
-16.1498641967773

> <r_i_glide_erotb>
0.529680804525953

> <r_i_glide_esite>
-0.1

> <r_i_glide_emodel>
-67.5804455047085

> <r_i_glide_energy>
-47.8287620544434

> <r_i_glide_einternal>
6.46653413772583

> <i_i_glide_confnum>
2

> <i_i_glide_posenum>
178

> <r_i_glide_eff_state_penalty>
0

> <s_user_duplicate_titles>
CHEMBL4338_lig151

> <i_f3d_flags>
0

> <s_m_subgroup_title>
dock_pv

> <s_m_subgroupid>
dock_pv

> <b_m_subgroup_collapsed>
1

$$$$
CHEMBL4338_lig107
                    3D
 Schrodinger Suite 2021-1.
 51 52  0  0  1  0            999 V2000
   13.2616   11.8330   59.3261 C   0  0  0  0  0  0
   12.5748   12.7273   58.5671 C   0  0  0  0  0  0
   13.3531   11.7790   60.6758 N   0  0  0  0  0  0
   11.9221   13.6336   60.5768 N   0  0  0  0  0  0
   12.9541   12.6311   57.2816 N   0  0  0  0  0  0
   11.6411   13.6223   59.2348 C   0  0  0  0  0  0
   12.7764   12.7663   61.2343 C   0  0  0  0  0  0
   14.0053   11.0966   58.4731 N   0  0  0  0  0  0
   13.7878   11.6141   57.2495 C   0  0  0  0  0  0
   16.9022   18.6457   64.6011 P   0  0  0  0  0  0
   10.6799   14.2332   58.7692 O   0  0  0  0  0  0
   17.4849   18.2335   63.2995 O   0  0  0  0  0  0
   13.0188   12.9540   62.5060 N   0  0  0  0  0  0
   15.7538   19.7821   64.5063 O   0  0  0  0  0  0
   17.9595   19.3123   65.6289 O   0  0  0  0  0  0
   14.9790   10.0817   58.8826 C   0  0  0  0  0  0
   16.1126   17.3603   65.6454 C   0  0  0  0  0  0
   14.8360   16.7358   65.0374 C   0  0  0  0  0  0
   16.3416   10.7328   59.2474 C   0  0  0  0  0  0
   17.3003   13.5644   61.9047 C   0  0  0  0  0  0
   16.0108   15.1285   63.3987 C   0  0  0  0  0  0
   14.9259   16.2008   63.5899 C   0  0  0  0  0  0
   16.1026   14.5267   61.9795 C   0  0  0  0  0  0
   16.2027   11.8529   60.3092 C   0  0  0  0  0  0
   17.4461   12.5941   60.7069 C   0  0  0  0  0  0
   14.3059   11.2359   56.3797 H   0  0  0  0  0  0
   11.3902   14.2906   61.1261 H   0  0  0  0  0  0
   13.6398   12.3228   62.9991 H   0  0  0  0  0  0
   12.4379   13.5637   63.0875 H   0  0  0  0  0  0
   15.0854   19.6767   63.7894 H   0  0  0  0  0  0
   17.5592   19.7363   66.4105 H   0  0  0  0  0  0
   14.9548    9.3244   58.1054 H   0  0  0  0  0  0
   14.5575    9.6039   59.7628 H   0  0  0  0  0  0
   16.8512   16.5839   65.8451 H   0  0  0  0  0  0
   15.8732   17.7976   66.6142 H   0  0  0  0  0  0
   14.5539   15.9116   65.6912 H   0  0  0  0  0  0
   14.0226   17.4615   65.0912 H   0  0  0  0  0  0
   16.8169   11.1278   58.3490 H   0  0  0  0  0  0
   17.0029    9.9577   59.6356 H   0  0  0  0  0  0
   18.1539   14.2298   61.9084 H   0  0  0  0  0  0
   17.3502   12.9787   62.8228 H   0  0  0  0  0  0
   16.9801   15.5551   63.6589 H   0  0  0  0  0  0
   15.8360   14.3239   64.1151 H   0  0  0  0  0  0
   13.9577   15.7844   63.3085 H   0  0  0  0  0  0
   15.1001   17.0292   62.9065 H   0  0  0  0  0  0
   15.1813   14.0110   61.7389 H   0  0  0  0  0  0
   16.2121   15.3156   61.2339 H   0  0  0  0  0  0
   15.7626   11.4328   61.2143 H   0  0  0  0  0  0
   15.5644   12.6427   59.9228 H   0  0  0  0  0  0
   17.8363   13.1167   59.8378 H   0  0  0  0  0  0
   18.1539   11.8180   60.9810 H   0  0  0  0  0  0
  1  8  1  0  0  0
  1  3  1  0  0  0
  1  2  2  0  0  0
  2  6  1  0  0  0
  2  5  1  0  0  0
  3  7  2  0  0  0
  4  7  1  0  0  0
  4 27  1  0  0  0
  4  6  1  0  0  0
  5  9  2  0  0  0
  6 11  2  0  0  0
  7 13  1  0  0  0
  8  9  1  0  0  0
  8 16  1  0  0  0
  9 26  1  0  0  0
 10 17  1  0  0  0
 10 12  2  0  0  0
 10 14  1  0  0  0
 10 15  1  0  0  0
 13 28  1  0  0  0
 13 29  1  0  0  0
 14 30  1  0  0  0
 15 31  1  0  0  0
 16 19  1  0  0  0
 16 32  1  0  0  0
 16 33  1  0  0  0
 17 18  1  0  0  0
 17 34  1  0  0  0
 17 35  1  0  0  0
 18 22  1  0  0  0
 18 36  1  0  0  0
 18 37  1  0  0  0
 19 24  1  0  0  0
 19 38  1  0  0  0
 19 39  1  0  0  0
 20 25  1  0  0  0
 20 23  1  0  0  0
 20 40  1  0  0  0
 20 41  1  0  0  0
 21 23  1  0  0  0
 21 22  1  0  0  0
 21 42  1  0  0  0
 21 43  1  0  0  0
 22 44  1  0  0  0
 22 45  1  0  0  0
 23 46  1  0  0  0
 23 47  1  0  0  0
 24 25  1  0  0  0
 24 48  1  0  0  0
 24 49  1  0  0  0
 25 50  1  0  0  0
 25 51  1  0  0  0
M  END
> <s_m_entry_id>
11863

> <s_m_entry_name>
dock_pv.66

> <s_m_Source_Path>
/home/csk/Desktop/cluster/DUD-E-result/pnph

> <s_m_Source_File>
dock_pv.maegz

> <i_m_Source_File_Index>
66

> <chembl_id>
CHEMBL176447

> <chembl_pref_name>
None

> <i_lp_mmshare_version>
53161

> <r_lp_tautomer_probability>
0.999940409345307

> <s_lp_Force_Field>
OPLS_2005

> <r_lp_Energy>
0.986753

> <b_lp_Chiralities_Consistent>
1

> <s_lp_Variant>
CHEMBL4338_lig107-1

> <s_i_glide_gridfile>
glide-grid_3bgs

> <i_i_glide_lignum>
127

> <i_i_glide_rotatable_bonds>
13

> <r_i_docking_score>
-8.04813736719043

> <r_i_glide_ligand_efficiency>
-0.321925494687617

> <r_i_glide_ligand_efficiency_sa>
-0.941315855839551

> <r_i_glide_ligand_efficiency_ln>
-1.90764973923874

> <r_i_glide_gscore>
-8.04813736719043

> <r_i_glide_lipo>
-1.68208438719846

> <r_i_glide_hbond>
-1.1962691119493

> <r_i_glide_metal>
0

> <r_i_glide_rewards>
-2.51814730598901

> <r_i_glide_evdw>
-21.0634708404541

> <r_i_glide_ecoul>
-20.7792644500732

> <r_i_glide_erotb>
1.53952324189189

> <r_i_glide_esite>
-0.0210965944118602

> <r_i_glide_emodel>
-42.1931118685646

> <r_i_glide_energy>
-41.8427352905273

> <r_i_glide_einternal>
6.556480884552

> <i_i_glide_confnum>
91

> <i_i_glide_posenum>
49

> <r_i_glide_eff_state_penalty>
0

> <s_user_duplicate_titles>
CHEMBL4338_lig107

> <i_f3d_flags>
0

> <s_m_subgroup_title>
dock_pv

> <s_m_subgroupid>
dock_pv

> <b_m_subgroup_collapsed>
1

$$$$
CHEMBL4338_lig163
                    3D
 Schrodinger Suite 2021-1.
 35 37  0  0  1  0            999 V2000
   12.9540   10.2330   57.3967 N   0  0  0  0  0  0
   12.7693    9.4330   56.3985 C   0  0  0  0  0  0
   13.5718    9.4880   55.2825 N   0  0  0  0  0  0
   14.5989   10.3593   55.0513 C   0  0  0  0  0  0
   13.9386   11.1698   57.2847 C   0  0  0  0  0  0
   14.6857   11.3294   56.1239 C   0  0  0  0  0  0
   15.5138   12.4021   56.2809 N   0  0  0  0  0  0
   15.3540   12.8616   57.5621 C   0  0  0  0  0  0
   14.4831   12.0227   58.2560 C   0  0  0  0  0  0
   15.3540   10.2330   54.1060 O   0  0  0  0  0  0
   14.2157   12.0124   59.7398 C   0  0  0  0  0  0
   13.5650   13.2368   60.1659 N   0  0  2  0  0  0
   13.5088   13.5259   61.5946 C   0  0  2  0  0  0
   12.1082   13.3225   60.0924 C   0  0  1  0  0  0
   12.0892   14.0586   61.4179 C   0  0  0  0  0  0
   14.5725   14.5311   62.0820 C   0  0  0  0  0  0
   14.5540   14.6330   63.4878 O   0  0  0  0  0  0
   11.5604   14.1060   58.9060 C   0  0  0  0  0  0
   10.1540   14.2330   58.9060 O   0  0  0  0  0  0
   11.9941    8.6698   56.4144 H   0  0  0  0  0  0
   13.4566    8.7702   54.5802 H   0  0  0  0  0  0
   16.1632   12.7546   55.5916 H   0  0  0  0  0  0
   15.9409   13.6938   57.9173 H   0  0  0  0  0  0
   15.1660   11.9266   60.2690 H   0  0  0  0  0  0
   13.6278   11.1436   60.0420 H   0  0  0  0  0  0
   13.5621   12.6186   62.2032 H   0  0  0  0  0  0
   11.6366   12.3400   60.1083 H   0  0  0  0  0  0
   12.0106   15.1445   61.3475 H   0  0  0  0  0  0
   11.3540   13.6592   62.1060 H   0  0  0  0  0  0
   15.5697   14.1977   61.7921 H   0  0  0  0  0  0
   14.4142   15.5171   61.6436 H   0  0  0  0  0  0
   13.6301   14.6330   63.7645 H   0  0  0  0  0  0
   11.8307   13.5552   58.0071 H   0  0  0  0  0  0
   12.0092   15.0995   58.9060 H   0  0  0  0  0  0
    9.8738   14.7289   59.6901 H   0  0  0  0  0  0
  1  2  2  0  0  0
  1  5  1  0  0  0
  2  3  1  0  0  0
  2 20  1  0  0  0
  3  4  1  0  0  0
  3 21  1  0  0  0
  4  6  1  0  0  0
  4 10  2  0  0  0
  5  9  1  0  0  0
  5  6  2  0  0  0
  6  7  1  0  0  0
  7  8  1  0  0  0
  7 22  1  0  0  0
  8  9  2  0  0  0
  8 23  1  0  0  0
  9 11  1  0  0  0
 11 12  1  0  0  0
 11 24  1  0  0  0
 11 25  1  0  0  0
 12 13  1  0  0  0
 12 14  1  0  0  0
 13 15  1  0  0  0
 13 16  1  0  0  0
 13 26  1  0  0  0
 14 15  1  0  0  0
 14 18  1  0  0  0
 14 27  1  0  0  0
 15 28  1  0  0  0
 15 29  1  0  0  0
 16 17  1  0  0  0
 16 30  1  0  0  0
 16 31  1  0  0  0
 17 32  1  0  0  0
 18 19  1  0  0  0
 18 33  1  0  0  0
 18 34  1  0  0  0
 19 35  1  0  0  0
M  END
> <s_m_entry_id>
11864

> <s_m_entry_name>
dock_pv.67

> <s_m_Source_Path>
/home/csk/Desktop/cluster/DUD-E-result/pnph

> <s_m_Source_File>
dock_pv.maegz

> <i_m_Source_File_Index>
67

> <chembl_id>
CHEMBL405926

> <chembl_pref_name>
None

> <i_lp_mmshare_version>
53161

> <r_lp_tautomer_probability>
1

> <s_lp_Force_Field>
OPLS_2005

> <r_lp_Energy>
33.89034

> <b_lp_Chiralities_Consistent>
1

> <s_lp_Variant>
CHEMBL4338_lig163-2

> <s_i_glide_gridfile>
glide-grid_3bgs

> <i_i_glide_lignum>
223

> <i_i_glide_rotatable_bonds>
6

> <r_i_docking_score>
-8.01895428378103

> <r_i_glide_ligand_efficiency>
-0.422050225462159

> <r_i_glide_ligand_efficiency_sa>
-1.12619951636135

> <r_i_glide_ligand_efficiency_ln>
-2.03297714228441

> <r_i_glide_gscore>
-8.01895428378103

> <r_i_glide_lipo>
-1.9798540259487

> <r_i_glide_hbond>
-1.46676676644631

> <r_i_glide_metal>
0

> <r_i_glide_rewards>
-1.85500435173892

> <r_i_glide_evdw>
-28.0597896575928

> <r_i_glide_ecoul>
-15.5485782623291

> <r_i_glide_erotb>
1.0179470825819

> <r_i_glide_esite>
0

> <r_i_glide_emodel>
-59.6142173825633

> <r_i_glide_energy>
-43.6083679199219

> <r_i_glide_einternal>
5.69775295257568

> <i_i_glide_confnum>
30

> <i_i_glide_posenum>
244

> <r_i_glide_eff_state_penalty>
0

> <s_user_duplicate_titles>
CHEMBL4338_lig163,442097

> <i_f3d_flags>
0

> <s_m_subgroup_title>
dock_pv

> <s_m_subgroupid>
dock_pv

> <b_m_subgroup_collapsed>
1

$$$$
CHEMBL4338_lig93
                    3D
 Schrodinger Suite 2021-1.
 38 39  0  0  1  0            999 V2000
   14.4291   11.2833   56.6923 C   0  0  0  0  0  0
   13.2847   10.5209   57.0084 C   0  0  0  0  0  0
   15.2486   11.0330   55.6625 N   0  0  0  0  0  0
   12.6882   11.0402   58.1086 N   0  0  0  0  0  0
   13.3893   12.1525   58.4632 N   0  0  0  0  0  0
   13.7742    9.1467   55.1530 N   0  0  0  0  0  0
   12.9541    9.4330   56.1848 C   0  0  0  0  0  0
   14.4857   12.2373   57.7017 N   0  0  0  0  0  0
   14.8657    9.9200   54.9714 C   0  0  0  0  0  0
   12.1700   15.2877   60.1060 P   0  0  0  0  0  0
   11.8412    8.7011   56.5060 O   0  0  0  0  0  0
   13.3540   16.0850   59.7060 O   0  0  0  0  0  0
   15.7540    9.3848   54.0776 N   0  0  0  0  0  0
   11.5062   14.4118   58.9078 O   0  0  0  0  0  0
   10.9540   16.2330   60.5822 O   0  0  0  0  0  0
   15.5271   13.1559   58.1227 C   0  0  0  0  0  0
   12.2776   14.1870   61.5670 C   0  0  0  0  0  0
   13.2420   12.9874   61.5368 C   0  0  0  0  0  0
   16.3274   12.6121   59.3561 C   0  0  0  0  0  0
   14.7156   13.3425   61.2460 C   0  0  0  0  0  0
   15.5369   12.1918   60.6192 C   0  0  0  0  0  0
   11.7571    7.9145   55.9407 H   0  0  0  0  0  0
   15.4876    8.5066   53.6575 H   0  0  0  0  0  0
   16.6769    9.7703   53.9438 H   0  0  0  0  0  0
   11.8884   14.6139   58.0167 H   0  0  0  0  0  0
   10.0483   15.8289   60.7058 H   0  0  0  0  0  0
   15.0478   14.1030   58.3700 H   0  0  0  0  0  0
   16.1540   13.3421   57.2544 H   0  0  0  0  0  0
   12.5765   14.8512   62.3760 H   0  0  0  0  0  0
   11.2695   13.8336   61.7742 H   0  0  0  0  0  0
   13.2003   12.4854   62.5051 H   0  0  0  0  0  0
   12.8504   12.2491   60.8445 H   0  0  0  0  0  0
   17.0246   13.3755   59.7060 H   0  0  0  0  0  0
   16.9419   11.7707   59.0316 H   0  0  0  0  0  0
   14.7701   14.2159   60.6028 H   0  0  0  0  0  0
   15.1909   13.6680   62.1726 H   0  0  0  0  0  0
   16.2460   11.8275   61.3639 H   0  0  0  0  0  0
   14.9153   11.3232   60.3994 H   0  0  0  0  0  0
  1  2  1  0  0  0
  1  3  2  0  0  0
  1  8  1  0  0  0
  2  4  1  0  0  0
  2  7  2  0  0  0
  3  9  1  0  0  0
  4  5  2  0  0  0
  5  8  1  0  0  0
  6  9  2  0  0  0
  6  7  1  0  0  0
  7 11  1  0  0  0
  8 16  1  0  0  0
  9 13  1  0  0  0
 10 17  1  0  0  0
 10 12  2  0  0  0
 10 14  1  0  0  0
 10 15  1  0  0  0
 11 22  1  0  0  0
 13 23  1  0  0  0
 13 24  1  0  0  0
 14 25  1  0  0  0
 15 26  1  0  0  0
 16 19  1  0  0  0
 16 27  1  0  0  0
 16 28  1  0  0  0
 17 18  1  0  0  0
 17 29  1  0  0  0
 17 30  1  0  0  0
 18 20  1  0  0  0
 18 31  1  0  0  0
 18 32  1  0  0  0
 19 21  1  0  0  0
 19 33  1  0  0  0
 19 34  1  0  0  0
 20 21  1  0  0  0
 20 35  1  0  0  0
 20 36  1  0  0  0
 21 37  1  0  0  0
 21 38  1  0  0  0
M  END
> <s_m_entry_id>
11865

> <s_m_entry_name>
dock_pv.68

> <s_m_Source_Path>
/home/csk/Desktop/cluster/DUD-E-result/pnph

> <s_m_Source_File>
dock_pv.maegz

> <i_m_Source_File_Index>
68

> <chembl_id>
CHEMBL368064

> <chembl_pref_name>
None

> <i_lp_mmshare_version>
53161

> <r_lp_tautomer_probability>
1

> <s_lp_Force_Field>
OPLS_2005

> <r_lp_Energy>
0.357219

> <b_lp_Chiralities_Consistent>
1

> <s_lp_Variant>
CHEMBL4338_lig93-1

> <s_i_glide_gridfile>
glide-grid_3bgs

> <i_i_glide_lignum>
113

> <i_i_glide_rotatable_bonds>
10

> <r_i_docking_score>
-7.9948253190741

> <r_i_glide_ligand_efficiency>
-0.380705967574957

> <r_i_glide_ligand_efficiency_sa>
-1.05033889696919

> <r_i_glide_ligand_efficiency_ln>
-1.97670440507538

> <r_i_glide_gscore>
-7.9948253190741

> <r_i_glide_lipo>
-1.18049874695279

> <r_i_glide_hbond>
-0.577978819851388

> <r_i_glide_metal>
0

> <r_i_glide_rewards>
-2.44255549874765

> <r_i_glide_evdw>
-21.3883514404297

> <r_i_glide_ecoul>
-29.3832206726074

> <r_i_glide_erotb>
1.30277911856354

> <r_i_glide_esite>
-0.0271538000643254

> <r_i_glide_emodel>
-69.4236548962739

> <r_i_glide_energy>
-50.7715721130371

> <r_i_glide_einternal>
5.85942983627319

> <i_i_glide_confnum>
165

> <i_i_glide_posenum>
308

> <r_i_glide_eff_state_penalty>
0

> <s_user_duplicate_titles>
CHEMBL4338_lig93,291358

> <i_f3d_flags>
0

> <s_m_subgroup_title>
dock_pv

> <s_m_subgroupid>
dock_pv

> <b_m_subgroup_collapsed>
1

$$$$
CHEMBL4338_lig151
                    3D
 Schrodinger Suite 2021-1.
 32 33  0  0  1  0            999 V2000
   13.5401   11.9082   58.2026 N   0  0  0  0  0  0
   12.6779   12.2260   59.3282 C   0  0  2  0  0  0
   14.2341   10.9484   56.4649 C   0  0  0  0  0  0
   15.1301   11.9133   56.6856 N   0  0  0  0  0  0
   13.2804   10.8851   57.3802 N   0  0  0  0  0  0
   14.7137   12.4707   57.7890 C   0  0  0  0  0  0
   12.1393   13.6606   59.3700 C   0  0  2  0  0  0
   13.4033   12.0786   60.5119 O   0  0  0  0  0  0
   11.8362   13.7792   60.8609 C   0  0  1  0  0  0
   12.9606   12.9742   61.5334 C   0  0  2  0  0  0
   14.3307   10.0022   55.3202 C   0  0  0  0  0  0
   15.2840   10.1261   54.5059 N   0  0  0  0  0  0
   15.3540   13.4452   58.4848 N   0  0  0  0  0  0
   11.0279   13.8330   58.5060 O   0  0  0  0  0  0
   13.3538    9.0332   55.3005 N   0  0  0  0  0  0
   11.7536   15.1249   61.3059 O   0  0  0  0  0  0
   14.1669   13.8253   62.0027 C   0  0  0  0  0  0
   15.2098   13.0257   62.5061 O   0  0  0  0  0  0
   11.8661   11.4967   59.3061 H   0  0  0  0  0  0
   12.9415   14.3515   59.1059 H   0  0  0  0  0  0
   10.8851   13.2803   61.0600 H   0  0  0  0  0  0
   12.5663   12.4133   62.3807 H   0  0  0  0  0  0
   15.2637    9.4085   53.7953 H   0  0  0  0  0  0
   16.1963   13.8663   58.1219 H   0  0  0  0  0  0
   15.1772   13.5632   59.4730 H   0  0  0  0  0  0
   11.3729   14.2426   57.6968 H   0  0  0  0  0  0
   13.3693    8.2818   54.6206 H   0  0  0  0  0  0
   12.6644    8.9790   56.0339 H   0  0  0  0  0  0
   11.5930   15.1052   62.2569 H   0  0  0  0  0  0
   14.5579   14.4298   61.1845 H   0  0  0  0  0  0
   13.8606   14.5168   62.7884 H   0  0  0  0  0  0
   14.8471   12.4679   63.2044 H   0  0  0  0  0  0
  1  2  1  0  0  0
  1  5  1  0  0  0
  1  6  1  0  0  0
  2  7  1  0  0  0
  2  8  1  0  0  0
  2 19  1  0  0  0
  3  4  1  0  0  0
  3  5  2  0  0  0
  3 11  1  0  0  0
  4  6  2  0  0  0
  6 13  1  0  0  0
  7  9  1  0  0  0
  7 14  1  0  0  0
  7 20  1  0  0  0
  8 10  1  0  0  0
  9 10  1  0  0  0
  9 16  1  0  0  0
  9 21  1  0  0  0
 10 17  1  0  0  0
 10 22  1  0  0  0
 11 12  2  0  0  0
 11 15  1  0  0  0
 12 23  1  0  0  0
 13 24  1  0  0  0
 13 25  1  0  0  0
 14 26  1  0  0  0
 15 27  1  0  0  0
 15 28  1  0  0  0
 16 29  1  0  0  0
 17 18  1  0  0  0
 17 30  1  0  0  0
 17 31  1  0  0  0
 18 32  1  0  0  0
M  END
> <s_m_entry_id>
11867

> <s_m_entry_name>
dock_pv.70

> <s_m_Source_Path>
/home/csk/Desktop/cluster/DUD-E-result/pnph

> <s_m_Source_File>
dock_pv.maegz

> <i_m_Source_File_Index>
70

> <chembl_id>
CHEMBL552896

> <chembl_pref_name>
None

> <i_lp_mmshare_version>
53161

> <r_lp_tautomer_probability>
1

> <s_lp_Force_Field>
OPLS_2005

> <r_lp_Energy>
32.941773

> <b_lp_Chiralities_Consistent>
1

> <s_lp_Variant>
CHEMBL4338_lig151-3

> <s_i_glide_gridfile>
glide-grid_3bgs

> <i_i_glide_lignum>
199

> <i_i_glide_rotatable_bonds>
6

> <r_i_docking_score>
-7.98217306503383

> <r_i_glide_ligand_efficiency>
-0.443454059168546

> <r_i_glide_ligand_efficiency_sa>
-1.16217840817326

> <r_i_glide_ligand_efficiency_ln>
-2.05177642697839

> <r_i_glide_gscore>
-7.98217306503383

> <r_i_glide_lipo>
-0.591647892518067

> <r_i_glide_hbond>
-0.341853042733568

> <r_i_glide_metal>
0

> <r_i_glide_rewards>
-3.44840072727273

> <r_i_glide_evdw>
-34.1386337280273

> <r_i_glide_ecoul>
-15.8148183822632

> <r_i_glide_erotb>
0.529680804525953

> <r_i_glide_esite>
-0.0507977632945743

> <r_i_glide_emodel>
-72.2055063288117

> <r_i_glide_energy>
-49.9534521102905

> <r_i_glide_einternal>
3.12641930580139

> <i_i_glide_confnum>
12

> <i_i_glide_posenum>
340

> <r_i_glide_eff_state_penalty>
0

> <s_user_duplicate_titles>
CHEMBL4338_lig151

> <i_f3d_flags>
0

> <s_m_subgroup_title>
dock_pv

> <s_m_subgroupid>
dock_pv

> <b_m_subgroup_collapsed>
1

$$$$
CHEMBL4338_lig11
                    3D
 Schrodinger Suite 2021-1.
 28 30  0  0  1  0            999 V2000
   13.6560   12.6182   58.9284 C   0  0  0  0  0  0
   13.9838   12.5575   60.2954 C   0  0  0  0  0  0
   14.8087   12.2545   58.2625 N   0  0  0  0  0  0
   15.2419   12.0484   60.4752 N   0  0  0  0  0  0
   12.4891   13.0330   58.4364 N   0  0  0  0  0  0
   15.6991   11.8912   59.2612 C   0  0  0  0  0  0
   13.0163   13.0412   61.1918 C   0  0  0  0  0  0
   11.8472   13.5459   60.7168 N   0  0  0  0  0  0
   11.6666   13.5434   59.3792 C   0  0  0  0  0  0
   15.0409   12.3060   56.8174 C   0  0  0  0  0  0
   14.5915   11.0564   56.1000 C   0  0  0  0  0  0
   13.3540   13.0330   62.5060 O   0  0  0  0  0  0
   15.2700   10.7422   54.9631 O   0  0  0  0  0  0
   16.9540   11.4330   59.0079 N   0  0  0  0  0  0
   13.6388   10.0821   56.3525 C   0  0  0  0  0  0
   14.7681    9.5679   54.5060 C   0  0  0  0  0  0
   10.5540   14.2149   58.9060 N   0  0  0  0  0  0
   13.7540    9.1366   55.3374 C   0  0  0  0  0  0
   16.1040   12.4858   56.6548 H   0  0  0  0  0  0
   14.5302   13.1849   56.4212 H   0  0  0  0  0  0
   12.6652   13.4135   63.0682 H   0  0  0  0  0  0
   17.5342   11.1113   59.7691 H   0  0  0  0  0  0
   17.2855   11.2629   58.0709 H   0  0  0  0  0  0
   12.9540   10.0528   57.1866 H   0  0  0  0  0  0
   15.2192    9.1591   53.6130 H   0  0  0  0  0  0
   10.0665   14.7464   59.6215 H   0  0  0  0  0  0
   10.7324   14.6095   57.9923 H   0  0  0  0  0  0
   13.1786    8.2330   55.2290 H   0  0  0  0  0  0
  1  2  1  0  0  0
  1  3  1  0  0  0
  1  5  2  0  0  0
  2  4  1  0  0  0
  2  7  2  0  0  0
  3  6  1  0  0  0
  3 10  1  0  0  0
  4  6  2  0  0  0
  5  9  1  0  0  0
  6 14  1  0  0  0
  7 12  1  0  0  0
  7  8  1  0  0  0
  8  9  2  0  0  0
  9 17  1  0  0  0
 10 11  1  0  0  0
 10 19  1  0  0  0
 10 20  1  0  0  0
 11 13  1  0  0  0
 11 15  2  0  0  0
 12 21  1  0  0  0
 13 16  1  0  0  0
 14 22  1  0  0  0
 14 23  1  0  0  0
 15 18  1  0  0  0
 15 24  1  0  0  0
 16 18  2  0  0  0
 16 25  1  0  0  0
 17 26  1  0  0  0
 17 27  1  0  0  0
 18 28  1  0  0  0
M  END
> <s_m_entry_id>
11868

> <s_m_entry_name>
dock_pv.71

> <s_m_Source_Path>
/home/csk/Desktop/cluster/DUD-E-result/pnph

> <s_m_Source_File>
dock_pv.maegz

> <i_m_Source_File_Index>
71

> <chembl_id>
CHEMBL33189

> <chembl_pref_name>
None

> <i_lp_mmshare_version>
53161

> <r_lp_tautomer_probability>
1

> <s_lp_Force_Field>
OPLS_2005

> <r_lp_Energy>
0.794876

> <b_lp_Chiralities_Consistent>
1

> <s_lp_Variant>
CHEMBL4338_lig11-1

> <s_i_glide_gridfile>
glide-grid_3bgs

> <i_i_glide_lignum>
11

> <i_i_glide_rotatable_bonds>
3

> <r_i_docking_score>
-7.9800396730669

> <r_i_glide_ligand_efficiency>
-0.443335537392605

> <r_i_glide_ligand_efficiency_sa>
-1.16186779324924

> <r_i_glide_ligand_efficiency_ln>
-2.05122804957394

> <r_i_glide_gscore>
-7.9800396730669

> <r_i_glide_lipo>
-1.41230619304145

> <r_i_glide_hbond>
-0.962913808252331

> <r_i_glide_metal>
0

> <r_i_glide_rewards>
-2.81688404165256

> <r_i_glide_evdw>
-34.326000213623

> <r_i_glide_ecoul>
-10.417103767395

> <r_i_glide_erotb>
0.574783513385412

> <r_i_glide_esite>
-0.0838535677155701

> <r_i_glide_emodel>
-61.8133180018408

> <r_i_glide_energy>
-44.7431039810181

> <r_i_glide_einternal>
2.36709547042847

> <i_i_glide_confnum>
3

> <i_i_glide_posenum>
90

> <r_i_glide_eff_state_penalty>
0

> <s_user_duplicate_titles>
CHEMBL4338_lig11,47546

> <i_f3d_flags>
0

> <s_m_subgroup_title>
dock_pv

> <s_m_subgroupid>
dock_pv

> <b_m_subgroup_collapsed>
1

$$$$
CHEMBL4338_lig32
                    3D
 Schrodinger Suite 2021-1.
 29 31  0  0  1  0            999 V2000
   13.6441   10.6483   56.6012 C   0  0  0  0  0  0
   14.7724   11.1660   56.0027 C   0  0  0  0  0  0
   13.5990    8.9834   54.8986 N   0  0  0  0  0  0
   13.0252    9.5443   55.9839 C   0  0  0  0  0  0
   15.3540   10.6277   54.9060 N   0  0  0  0  0  0
   13.3539   11.3015   57.7941 N   0  0  0  0  0  0
   14.7456    9.5121   54.4341 C   0  0  0  0  0  0
   14.2649   12.1787   57.9771 C   0  0  0  0  0  0
   15.2532   12.3069   56.8280 C   0  0  0  0  0  0
   13.2697   14.2758   60.7679 C   0  0  0  0  0  0
   12.1540   16.6330   60.9060 S   0  0  0  0  0  0
   14.4544   12.9728   59.0896 N   0  0  0  0  0  0
   11.8761    9.0330   56.5060 O   0  0  0  0  0  0
   12.3503   15.1017   60.1306 C   0  0  0  0  0  0
   13.8086   14.9129   61.8961 C   0  0  0  0  0  0
   13.3090   16.1890   62.1093 C   0  0  0  0  0  0
   15.3540    8.7864   53.4290 N   0  0  0  0  0  0
   13.6416   12.8949   60.2955 C   0  0  0  0  0  0
   15.1509   13.2677   56.3233 H   0  0  0  0  0  0
   16.2815   12.1793   57.1657 H   0  0  0  0  0  0
   15.2611   13.5760   59.1468 H   0  0  0  0  0  0
   11.7121    8.1683   56.0996 H   0  0  0  0  0  0
   11.7918   14.8752   59.2337 H   0  0  0  0  0  0
   14.5399   14.4500   62.5426 H   0  0  0  0  0  0
   13.5620   16.8740   62.9060 H   0  0  0  0  0  0
   16.2094    9.1134   52.9891 H   0  0  0  0  0  0
   14.9102    7.9135   53.1718 H   0  0  0  0  0  0
   14.2180   12.3671   61.0568 H   0  0  0  0  0  0
   12.7445   12.2940   60.1348 H   0  0  0  0  0  0
  1  2  2  0  0  0
  1  4  1  0  0  0
  1  6  1  0  0  0
  2  5  1  0  0  0
  2  9  1  0  0  0
  3  4  2  0  0  0
  3  7  1  0  0  0
  4 13  1  0  0  0
  5  7  2  0  0  0
  6  8  2  0  0  0
  7 17  1  0  0  0
  8 12  1  0  0  0
  8  9  1  0  0  0
  9 19  1  0  0  0
  9 20  1  0  0  0
 10 18  1  0  0  0
 10 14  2  0  0  0
 10 15  1  0  0  0
 11 14  1  0  0  0
 11 16  1  0  0  0
 12 18  1  0  0  0
 12 21  1  0  0  0
 13 22  1  0  0  0
 14 23  1  0  0  0
 15 16  2  0  0  0
 15 24  1  0  0  0
 16 25  1  0  0  0
 17 26  1  0  0  0
 17 27  1  0  0  0
 18 28  1  0  0  0
 18 29  1  0  0  0
M  END
> <s_m_entry_id>
11869

> <s_m_entry_name>
dock_pv.72

> <s_m_Source_Path>
/home/csk/Desktop/cluster/DUD-E-result/pnph

> <s_m_Source_File>
dock_pv.maegz

> <i_m_Source_File_Index>
72

> <chembl_id>
CHEMBL159316

> <chembl_pref_name>
None

> <i_lp_mmshare_version>
53161

> <r_lp_tautomer_probability>
0.999601159137504

> <s_lp_Force_Field>
OPLS_2005

> <r_lp_Energy>
12.661746

> <b_lp_Chiralities_Consistent>
1

> <s_lp_Variant>
CHEMBL4338_lig32-1

> <s_i_glide_gridfile>
glide-grid_3bgs

> <i_i_glide_lignum>
38

> <i_i_glide_rotatable_bonds>
4

> <r_i_docking_score>
-7.96651476388562

> <r_i_glide_ligand_efficiency>
-0.442584153549201

> <r_i_glide_ligand_efficiency_sa>
-1.15989861050979

> <r_i_glide_ligand_efficiency_ln>
-2.04775154140893

> <r_i_glide_gscore>
-7.96651476388562

> <r_i_glide_lipo>
-2.0480549455707

> <r_i_glide_hbond>
-0.716816789717996

> <r_i_glide_metal>
0

> <r_i_glide_rewards>
-2.93890336131604

> <r_i_glide_evdw>
-36.2178115844727

> <r_i_glide_ecoul>
-8.12272644042969

> <r_i_glide_erotb>
0.778518044969593

> <r_i_glide_esite>
-0.0119581669623912

> <r_i_glide_emodel>
-63.4336243468364

> <r_i_glide_energy>
-44.3405380249023

> <r_i_glide_einternal>
2.54936361312866

> <i_i_glide_confnum>
6

> <i_i_glide_posenum>
372

> <r_i_glide_eff_state_penalty>
0

> <s_user_duplicate_titles>
CHEMBL4338_lig32,267275

> <i_f3d_flags>
0

> <s_m_subgroup_title>
dock_pv

> <s_m_subgroupid>
dock_pv

> <b_m_subgroup_collapsed>
1

$$$$
CHEMBL4338_lig30
                    3D
 Schrodinger Suite 2021-1.
 29 31  0  0  1  0            999 V2000
   13.6487   10.6470   56.6115 C   0  0  0  0  0  0
   14.7769   11.1636   56.0087 C   0  0  0  0  0  0
   13.5778    9.0161   54.8761 N   0  0  0  0  0  0
   13.0168    9.5594   55.9774 C   0  0  0  0  0  0
   15.3542   10.6323   54.9059 N   0  0  0  0  0  0
   13.3867   11.2698   57.8312 N   0  0  0  0  0  0
   14.7355    9.5300   54.4229 C   0  0  0  0  0  0
   14.3348   12.1084   58.0265 C   0  0  0  0  0  0
   15.2743   12.2849   56.8447 C   0  0  0  0  0  0
   11.7543   14.4371   60.0839 S   0  0  0  0  0  0
   13.2667   13.9832   60.8125 C   0  0  0  0  0  0
   14.6244   12.8217   59.1720 N   0  0  0  0  0  0
   11.8775    9.0329   56.5060 O   0  0  0  0  0  0
   11.7542   15.9543   60.9054 C   0  0  0  0  0  0
   13.7070   14.9953   61.6647 C   0  0  0  0  0  0
   15.3539    8.7966   53.4294 N   0  0  0  0  0  0
   12.8667   16.1103   61.7090 C   0  0  0  0  0  0
   13.9337   12.6850   60.4456 C   0  0  0  0  0  0
   15.1378   13.2580   56.3728 H   0  0  0  0  0  0
   16.3176   12.1622   57.1357 H   0  0  0  0  0  0
   15.4025   13.4632   59.1738 H   0  0  0  0  0  0
   11.7171    8.1699   56.0942 H   0  0  0  0  0  0
   10.9311   16.6329   60.7523 H   0  0  0  0  0  0
   14.6268   14.9285   62.2261 H   0  0  0  0  0  0
   16.2145    9.1200   52.9962 H   0  0  0  0  0  0
   14.9071    7.9271   53.1665 H   0  0  0  0  0  0
   13.0618   16.9843   62.3132 H   0  0  0  0  0  0
   14.6690   12.3968   61.1974 H   0  0  0  0  0  0
   13.2084   11.8692   60.4200 H   0  0  0  0  0  0
  1  2  2  0  0  0
  1  4  1  0  0  0
  1  6  1  0  0  0
  2  5  1  0  0  0
  2  9  1  0  0  0
  3  4  2  0  0  0
  3  7  1  0  0  0
  4 13  1  0  0  0
  5  7  2  0  0  0
  6  8  2  0  0  0
  7 16  1  0  0  0
  8 12  1  0  0  0
  8  9  1  0  0  0
  9 19  1  0  0  0
  9 20  1  0  0  0
 10 11  1  0  0  0
 10 14  1  0  0  0
 11 18  1  0  0  0
 11 15  2  0  0  0
 12 18  1  0  0  0
 12 21  1  0  0  0
 13 22  1  0  0  0
 14 17  2  0  0  0
 14 23  1  0  0  0
 15 17  1  0  0  0
 15 24  1  0  0  0
 16 25  1  0  0  0
 16 26  1  0  0  0
 17 27  1  0  0  0
 18 28  1  0  0  0
 18 29  1  0  0  0
M  END
> <s_m_entry_id>
11870

> <s_m_entry_name>
dock_pv.73

> <s_m_Source_Path>
/home/csk/Desktop/cluster/DUD-E-result/pnph

> <s_m_Source_File>
dock_pv.maegz

> <i_m_Source_File_Index>
73

> <chembl_id>
CHEMBL159514

> <chembl_pref_name>
None

> <i_lp_mmshare_version>
53161

> <r_lp_tautomer_probability>
0.999601159137504

> <s_lp_Force_Field>
OPLS_2005

> <r_lp_Energy>
9.25955

> <b_lp_Chiralities_Consistent>
1

> <s_lp_Variant>
CHEMBL4338_lig30-1

> <s_i_glide_gridfile>
glide-grid_3bgs

> <i_i_glide_lignum>
35

> <i_i_glide_rotatable_bonds>
4

> <r_i_docking_score>
-7.9377257487837

> <r_i_glide_ligand_efficiency>
-0.440984763821317

> <r_i_glide_ligand_efficiency_sa>
-1.15570702364848

> <r_i_glide_ligand_efficiency_ln>
-2.04035147352506

> <r_i_glide_gscore>
-7.9377257487837

> <r_i_glide_lipo>
-1.94213766563056

> <r_i_glide_hbond>
-0.71696417819406

> <r_i_glide_metal>
0

> <r_i_glide_rewards>
-2.9348163927265

> <r_i_glide_evdw>
-37.6901245117188

> <r_i_glide_ecoul>
-8.16976833343506

> <r_i_glide_erotb>
0.778518044969594

> <r_i_glide_esite>
-0.0123540816009856

> <r_i_glide_emodel>
-64.4697630608114

> <r_i_glide_energy>
-45.8598928451538

> <r_i_glide_einternal>
3.90204048156738

> <i_i_glide_confnum>
5

> <i_i_glide_posenum>
392

> <r_i_glide_eff_state_penalty>
0

> <s_user_duplicate_titles>
CHEMBL4338_lig30,268679

> <i_f3d_flags>
0

> <s_m_subgroup_title>
dock_pv

> <s_m_subgroupid>
dock_pv

> <b_m_subgroup_collapsed>
1

$$$$
CHEMBL4338_lig114
                    3D
 Schrodinger Suite 2021-1.
 32 34  0  0  1  0            999 V2000
   17.1347   15.8056   63.0744 C   0  0  1  0  0  0
   16.9999   15.0334   61.7672 C   0  0  2  0  0  0
   16.5195   13.6706   62.2698 C   0  0  1  0  0  0
   15.6982   13.9775   63.4031 O   0  0  0  0  0  0
   15.9008   15.3236   63.8576 C   0  0  2  0  0  0
   18.3593   15.5805   63.7595 O   0  0  0  0  0  0
   18.1533   15.0330   60.9422 O   0  0  0  0  0  0
   14.6235   16.1455   63.5733 C   0  0  0  0  0  0
   14.7401   17.4327   64.1542 O   0  0  0  0  0  0
   15.7858   12.8465   61.2238 C   0  0  0  0  0  0
   14.0726   11.7607   60.0334 C   0  0  2  0  0  0
   14.4399   13.0334   60.7711 C   0  0  0  0  0  0
   15.3621   11.3269   59.5577 N   0  0  0  0  0  0
   16.2383   11.7919   60.5076 C   0  0  0  0  0  0
   12.9675   12.0227   58.9622 C   0  0  0  0  0  0
   12.0586   13.0328   59.3232 N   0  0  0  0  0  0
   13.6147   14.0039   60.9230 N   0  0  0  0  0  0
   12.4096   13.8787   60.2312 C   0  0  0  0  0  0
   12.9541   11.3297   57.9499 O   0  0  0  0  0  0
   17.0596   16.8767   62.8875 H   0  0  0  0  0  0
   16.1907   15.4698   61.1804 H   0  0  0  0  0  0
   17.3704   13.0971   62.6418 H   0  0  0  0  0  0
   16.0965   15.2964   64.9311 H   0  0  0  0  0  0
   18.2925   15.9537   64.6427 H   0  0  0  0  0  0
   18.2022   15.8885   60.5021 H   0  0  0  0  0  0
   13.7542   15.6500   64.0010 H   0  0  0  0  0  0
   14.4318   16.2325   62.5045 H   0  0  0  0  0  0
   14.1540   18.0552   63.7056 H   0  0  0  0  0  0
   13.6425   11.0336   60.7251 H   0  0  0  0  0  0
   15.3925   10.3474   59.3060 H   0  0  0  0  0  0
   17.2144   11.3283   60.5518 H   0  0  0  0  0  0
   11.6525   14.6141   60.4909 H   0  0  0  0  0  0
  1  5  1  0  0  0
  1  2  1  0  0  0
  1  6  1  0  0  0
  1 20  1  0  0  0
  2  7  1  0  0  0
  2  3  1  0  0  0
  2 21  1  0  0  0
  3  4  1  0  0  0
  3 10  1  0  0  0
  3 22  1  0  0  0
  4  5  1  0  0  0
  5  8  1  0  0  0
  5 23  1  0  0  0
  6 24  1  0  0  0
  7 25  1  0  0  0
  8  9  1  0  0  0
  8 26  1  0  0  0
  8 27  1  0  0  0
  9 28  1  0  0  0
 10 12  1  0  0  0
 10 14  2  0  0  0
 11 12  1  0  0  0
 11 15  1  0  0  0
 11 13  1  0  0  0
 11 29  1  0  0  0
 12 17  2  0  0  0
 13 14  1  0  0  0
 13 30  1  0  0  0
 14 31  1  0  0  0
 15 19  2  0  0  0
 15 16  1  0  0  0
 16 18  2  0  0  0
 17 18  1  0  0  0
 18 32  1  0  0  0
M  END
> <s_m_entry_id>
11871

> <s_m_entry_name>
dock_pv.74

> <s_m_Source_Path>
/home/csk/Desktop/cluster/DUD-E-result/pnph

> <s_m_Source_File>
dock_pv.maegz

> <i_m_Source_File_Index>
74

> <chembl_id>
CHEMBL3143996

> <chembl_pref_name>
None

> <i_lp_mmshare_version>
53161

> <r_lp_tautomer_probability>
1

> <s_lp_Force_Field>
OPLS_2005

> <r_lp_Energy>
57.529947

> <b_lp_Chiralities_Consistent>
1

> <s_lp_Variant>
CHEMBL4338_lig114-2

> <s_i_glide_gridfile>
glide-grid_3bgs

> <i_i_glide_lignum>
137

> <i_i_glide_rotatable_bonds>
5

> <r_i_docking_score>
-7.90581481371843

> <r_i_glide_ligand_efficiency>
-0.416095516511496

> <r_i_glide_ligand_efficiency_sa>
-1.11030996119534

> <r_i_glide_ligand_efficiency_ln>
-2.00429385661054

> <r_i_glide_gscore>
-7.90581481371843

> <r_i_glide_lipo>
-1.24136513950765

> <r_i_glide_hbond>
-0.458070662033008

> <r_i_glide_metal>
0

> <r_i_glide_rewards>
-3.48800661176356

> <r_i_glide_evdw>
-31.0281829833984

> <r_i_glide_ecoul>
-11.1083345413208

> <r_i_glide_erotb>
0.49928692995382

> <r_i_glide_esite>
0

> <r_i_glide_emodel>
-58.6821395146273

> <r_i_glide_energy>
-42.1365175247192

> <r_i_glide_einternal>
4.91640949249268

> <i_i_glide_confnum>
22

> <i_i_glide_posenum>
222

> <r_i_glide_eff_state_penalty>
0

> <s_user_duplicate_titles>
CHEMBL4338_lig114

> <i_f3d_flags>
0

> <s_m_subgroup_title>
dock_pv

> <s_m_subgroupid>
dock_pv

> <b_m_subgroup_collapsed>
1

$$$$
CHEMBL4338_lig119
                    3D
 Schrodinger Suite 2021-1.
 40 41  0  0  1  0            999 V2000
   14.4230   11.2193   56.4626 C   0  0  0  0  0  0
   13.3540   10.5333   56.9555 C   0  0  0  0  0  0
   15.1377   10.9232   55.3227 N   0  0  0  0  0  0
   13.6020    9.1363   55.1675 N   0  0  0  0  0  0
   12.8951   11.0330   58.1061 N   0  0  0  0  0  0
   12.7920    9.4330   56.2281 C   0  0  0  0  0  0
   14.7212    9.8327   54.7447 C   0  0  0  0  0  0
   14.6137   12.2054   57.4030 N   0  0  0  0  0  0
   16.8156   15.8271   64.0275 P   0  0  0  0  0  0
   13.6213   12.0788   58.3086 C   0  0  0  0  0  0
   15.4438   14.5753   63.8559 C   0  0  0  0  0  0
   14.9341   14.0367   62.1885 P   0  0  2  0  0  0
   11.7542    8.8388   56.5060 O   0  0  0  0  0  0
   18.1545   15.4332   63.4468 O   0  0  0  0  0  0
   14.0863   14.9907   61.4222 O   0  0  0  0  0  0
   15.3539    9.2727   53.7062 N   0  0  0  0  0  0
   16.1408   17.2250   63.3132 O   0  0  0  0  0  0
   16.8532   16.0986   65.7100 O   0  0  0  0  0  0
   14.1920   12.6272   62.5060 O   0  0  0  0  0  0
   15.6786   13.2027   57.4638 C   0  0  0  0  0  0
   16.4854   13.4527   61.3726 C   0  0  0  0  0  0
   15.8283   13.8271   58.8886 C   0  0  0  0  0  0
   16.2689   12.8227   59.9860 C   0  0  0  0  0  0
   13.4970   12.7380   59.1545 H   0  0  0  0  0  0
   15.7427   13.6761   64.3991 H   0  0  0  0  0  0
   14.5542   14.9317   64.3780 H   0  0  0  0  0  0
   13.3243    8.3078   54.6576 H   0  0  0  0  0  0
   16.1238    9.7234   53.2244 H   0  0  0  0  0  0
   15.0823    8.3513   53.3905 H   0  0  0  0  0  0
   15.8472   17.9968   63.8339 H   0  0  0  0  0  0
   17.6631   16.3779   66.1763 H   0  0  0  0  0  0
   14.1473   12.3460   63.4524 H   0  0  0  0  0  0
   15.4279   13.9332   56.6969 H   0  0  0  0  0  0
   16.5540   12.6392   57.1477 H   0  0  0  0  0  0
   17.1833   14.2855   61.2878 H   0  0  0  0  0  0
   16.9559   12.7227   62.0321 H   0  0  0  0  0  0
   14.9028   14.3243   59.1678 H   0  0  0  0  0  0
   16.5539   14.6392   58.8601 H   0  0  0  0  0  0
   17.2038   12.3508   59.6817 H   0  0  0  0  0  0
   15.5592   12.0016   60.0837 H   0  0  0  0  0  0
  1  8  1  0  0  0
  1  3  1  0  0  0
  1  2  2  0  0  0
  2  6  1  0  0  0
  2  5  1  0  0  0
  3  7  2  0  0  0
  4  7  1  0  0  0
  4 27  1  0  0  0
  4  6  1  0  0  0
  5 10  2  0  0  0
  6 13  2  0  0  0
  7 16  1  0  0  0
  8 10  1  0  0  0
  8 20  1  0  0  0
  9 11  1  0  0  0
  9 14  2  0  0  0
  9 17  1  0  0  0
  9 18  1  0  0  0
 10 24  1  0  0  0
 11 12  1  0  0  0
 11 25  1  0  0  0
 11 26  1  0  0  0
 12 21  1  0  0  0
 12 15  2  0  0  0
 12 19  1  0  0  0
 16 28  1  0  0  0
 16 29  1  0  0  0
 17 30  1  0  0  0
 18 31  1  0  0  0
 19 32  1  0  0  0
 20 22  1  0  0  0
 20 33  1  0  0  0
 20 34  1  0  0  0
 21 23  1  0  0  0
 21 35  1  0  0  0
 21 36  1  0  0  0
 22 23  1  0  0  0
 22 37  1  0  0  0
 22 38  1  0  0  0
 23 39  1  0  0  0
 23 40  1  0  0  0
M  END
> <s_m_entry_id>
11872

> <s_m_entry_name>
dock_pv.75

> <s_m_Source_Path>
/home/csk/Desktop/cluster/DUD-E-result/pnph

> <s_m_Source_File>
dock_pv.maegz

> <i_m_Source_File_Index>
75

> <chembl_id>
CHEMBL7068

> <chembl_pref_name>
None

> <i_lp_mmshare_version>
53161

> <r_lp_tautomer_probability>
0.999940409345307

> <s_lp_Force_Field>
OPLS_2005

> <r_lp_Energy>
2.02898

> <b_lp_Chiralities_Consistent>
1

> <s_lp_Variant>
CHEMBL4338_lig119-2

> <s_i_glide_gridfile>
glide-grid_3bgs

> <i_i_glide_lignum>
146

> <i_i_glide_rotatable_bonds>
10

> <r_i_docking_score>
-7.89827748427541

> <r_i_glide_ligand_efficiency>
-0.34340336888154

> <r_i_glide_ligand_efficiency_sa>
-0.976593500511296

> <r_i_glide_ligand_efficiency_ln>
-1.90987511331843

> <r_i_glide_gscore>
-7.89827748427541

> <r_i_glide_lipo>
-1.00074342982477

> <r_i_glide_hbond>
-0.826980083592744

> <r_i_glide_metal>
0

> <r_i_glide_rewards>
-2.60435431051885

> <r_i_glide_evdw>
-35.5740242004395

> <r_i_glide_ecoul>
-17.5210857391357

> <r_i_glide_erotb>
1.00937482538175

> <r_i_glide_esite>
-0.0687104148284721

> <r_i_glide_emodel>
-72.1288783385022

> <r_i_glide_energy>
-53.0951099395752

> <r_i_glide_einternal>
12.679370880127

> <i_i_glide_confnum>
159

> <i_i_glide_posenum>
360

> <r_i_glide_eff_state_penalty>
0

> <s_user_duplicate_titles>
CHEMBL4338_lig119

> <i_f3d_flags>
0

> <s_m_subgroup_title>
dock_pv

> <s_m_subgroupid>
dock_pv

> <b_m_subgroup_collapsed>
1

$$$$
CHEMBL4338_lig142
                    3D
 Schrodinger Suite 2021-1.
 38 40  0  0  1  0            999 V2000
   16.3279   14.7057   64.4889 C   0  0  0  0  0  0
   15.6188   15.8494   64.7491 C   0  0  0  0  0  0
   16.8552   13.8316   65.3954 N   0  0  0  0  0  0
   16.3803   14.6202   63.1254 N   0  0  0  0  0  0
   15.8895   15.2901   66.9641 N   0  0  0  0  0  0
   15.2451   16.4659   63.6152 N   0  0  0  0  0  0
   15.3540   16.2319   66.1238 C   0  0  0  0  0  0
   16.5988   14.1540   66.6179 C   0  0  0  0  0  0
   15.7231   15.6994   62.6640 C   0  0  0  0  0  0
   11.9900   15.0251   60.2010 P   0  0  0  0  0  0
   17.0246   13.5851   62.2898 C   0  0  0  0  0  0
   11.8803   13.4263   61.0919 C   0  0  0  0  0  0
   14.7380   17.2074   66.5516 O   0  0  0  0  0  0
   13.3137   15.6505   59.9399 O   0  0  0  0  0  0
   17.0104   13.3771   67.6218 N   0  0  0  0  0  0
   16.1162   12.7880   61.3504 C   0  0  0  0  0  0
   12.5541   12.4488   60.2907 O   0  0  0  0  0  0
   11.1595   14.6329   58.8733 O   0  0  0  0  0  0
   10.9540   15.9836   60.9946 O   0  0  0  0  0  0
   14.7320   12.9845   61.3052 C   0  0  0  0  0  0
   13.9209   12.2737   60.4091 C   0  0  0  0  0  0
   15.8941   11.1009   59.6259 C   0  0  0  0  0  0
   16.6894   11.8331   60.5061 C   0  0  0  0  0  0
   14.5191   11.3285   59.5742 C   0  0  0  0  0  0
   15.6052   15.8330   61.5972 H   0  0  0  0  0  0
   17.7547   14.1295   61.6926 H   0  0  0  0  0  0
   17.5600   12.9207   62.9660 H   0  0  0  0  0  0
   10.8312   13.1471   61.1710 H   0  0  0  0  0  0
   12.2560   13.4875   62.1059 H   0  0  0  0  0  0
   15.7264   15.4676   67.9427 H   0  0  0  0  0  0
   17.5888   12.5773   67.4157 H   0  0  0  0  0  0
   16.7473   13.5629   68.5785 H   0  0  0  0  0  0
   11.6918   14.6329   58.0399 H   0  0  0  0  0  0
    9.9835   15.7458   60.9061 H   0  0  0  0  0  0
   14.2916   13.7084   61.9656 H   0  0  0  0  0  0
   16.3425   10.3573   58.9842 H   0  0  0  0  0  0
   17.7535   11.6481   60.5377 H   0  0  0  0  0  0
   13.9094   10.7609   58.8864 H   0  0  0  0  0  0
  1  4  1  0  0  0
  1  3  1  0  0  0
  1  2  2  0  0  0
  2  7  1  0  0  0
  2  6  1  0  0  0
  3  8  2  0  0  0
  4  9  1  0  0  0
  4 11  1  0  0  0
  5  8  1  0  0  0
  5 30  1  0  0  0
  5  7  1  0  0  0
  6  9  2  0  0  0
  7 13  2  0  0  0
  8 15  1  0  0  0
  9 25  1  0  0  0
 10 12  1  0  0  0
 10 14  2  0  0  0
 10 18  1  0  0  0
 10 19  1  0  0  0
 11 16  1  0  0  0
 11 26  1  0  0  0
 11 27  1  0  0  0
 12 17  1  0  0  0
 12 28  1  0  0  0
 12 29  1  0  0  0
 15 31  1  0  0  0
 15 32  1  0  0  0
 16 20  2  0  0  0
 16 23  1  0  0  0
 17 21  1  0  0  0
 18 33  1  0  0  0
 19 34  1  0  0  0
 20 21  1  0  0  0
 20 35  1  0  0  0
 21 24  2  0  0  0
 22 23  2  0  0  0
 22 24  1  0  0  0
 22 36  1  0  0  0
 23 37  1  0  0  0
 24 38  1  0  0  0
M  END
> <s_m_entry_id>
11873

> <s_m_entry_name>
dock_pv.76

> <s_m_Source_Path>
/home/csk/Desktop/cluster/DUD-E-result/pnph

> <s_m_Source_File>
dock_pv.maegz

> <i_m_Source_File_Index>
76

> <chembl_id>
CHEMBL116580

> <chembl_pref_name>
None

> <i_lp_mmshare_version>
53161

> <r_lp_tautomer_probability>
0.999940409345307

> <s_lp_Force_Field>
OPLS_2005

> <r_lp_Energy>
7.786232

> <b_lp_Chiralities_Consistent>
1

> <s_lp_Variant>
CHEMBL4338_lig142-1

> <s_i_glide_gridfile>
glide-grid_3bgs

> <i_i_glide_lignum>
187

> <i_i_glide_rotatable_bonds>
7

> <r_i_docking_score>
-7.85013024677525

> <r_i_glide_ligand_efficiency>
-0.327088760282302

> <r_i_glide_ligand_efficiency_sa>
-0.943487246939582

> <r_i_glide_ligand_efficiency_ln>
-1.87889638705816

> <r_i_glide_gscore>
-7.85013024677525

> <r_i_glide_lipo>
-1.87419222867634

> <r_i_glide_hbond>
-0.0675398215464444

> <r_i_glide_metal>
0

> <r_i_glide_rewards>
-1.62660097152998

> <r_i_glide_evdw>
-30.2370548248291

> <r_i_glide_ecoul>
-23.6185989379883

> <r_i_glide_erotb>
0.772845356917205

> <r_i_glide_esite>
0

> <r_i_glide_emodel>
-76.1035313305771

> <r_i_glide_energy>
-53.8556537628174

> <r_i_glide_einternal>
4.67012119293213

> <i_i_glide_confnum>
63

> <i_i_glide_posenum>
350

> <r_i_glide_eff_state_penalty>
0

> <s_user_duplicate_titles>
CHEMBL4338_lig142,190577

> <i_f3d_flags>
0

> <s_m_subgroup_title>
dock_pv

> <s_m_subgroupid>
dock_pv

> <b_m_subgroup_collapsed>
1

$$$$
CHEMBL4338_lig154
                    3D
 Schrodinger Suite 2021-1.
 35 37  0  0  1  0            999 V2000
   13.8637   14.8639   60.4891 C   0  0  0  0  0  0
   13.5983   13.4962   60.3765 C   0  0  0  0  0  0
   14.8248   12.8210   60.2112 C   0  0  0  0  0  0
   15.2196   15.0330   60.5028 N   0  0  0  0  0  0
   13.8125   10.8937   56.3947 C   0  0  2  0  0  0
   12.7802   15.8396   60.5234 C   0  0  0  0  0  0
   14.9512   10.9744   58.4973 N   0  0  1  0  0  0
   15.8073   13.8043   60.3483 C   0  0  0  0  0  0
   12.3259   12.9956   60.3741 N   0  0  0  0  0  0
   11.5799   15.1881   60.5428 N   0  0  0  0  0  0
   15.2469   11.4176   56.1623 C   0  0  2  0  0  0
   15.0493   11.3433   59.9181 C   0  0  0  0  0  0
   11.3540   13.8328   60.4738 C   0  0  0  0  0  0
   13.6202   11.0616   57.9093 C   0  0  0  0  0  0
   13.5813    9.4546   55.8767 C   0  0  0  0  0  0
   15.7740   11.7425   57.5675 C   0  0  0  0  0  0
   12.8291   17.0639   60.5060 O   0  0  0  0  0  0
   15.3540   12.5293   55.3060 O   0  0  0  0  0  0
   12.2517    9.0330   56.1042 O   0  0  0  0  0  0
   15.7062   15.9199   60.5589 H   0  0  0  0  0  0
   13.0874   11.5274   55.8821 H   0  0  0  0  0  0
   16.8835   13.7287   60.2943 H   0  0  0  0  0  0
   10.7670   15.7846   60.6135 H   0  0  0  0  0  0
   15.8525   10.6330   55.7060 H   0  0  0  0  0  0
   14.3593   10.7184   60.4873 H   0  0  0  0  0  0
   16.0387   11.0413   60.2647 H   0  0  0  0  0  0
   10.3205   13.5001   60.5060 H   0  0  0  0  0  0
   13.1583   12.0210   58.1377 H   0  0  0  0  0  0
   12.9540   10.3253   58.3597 H   0  0  0  0  0  0
   14.2457    8.7522   56.3781 H   0  0  0  0  0  0
   13.7897    9.3893   54.8077 H   0  0  0  0  0  0
   16.8419   11.5679   57.7018 H   0  0  0  0  0  0
   15.6409   12.8022   57.7892 H   0  0  0  0  0  0
   14.8584   13.2573   55.6892 H   0  0  0  0  0  0
   12.1540    8.1213   55.7776 H   0  0  0  0  0  0
  1  2  2  0  0  0
  1  4  1  0  0  0
  1  6  1  0  0  0
  2  3  1  0  0  0
  2  9  1  0  0  0
  3 12  1  0  0  0
  3  8  2  0  0  0
  4  8  1  0  0  0
  4 20  1  0  0  0
  5 14  1  0  0  0
  5 15  1  0  0  0
  5 11  1  0  0  0
  5 21  1  0  0  0
  6 10  1  0  0  0
  6 17  2  0  0  0
  7 12  1  0  0  0
  7 14  1  0  0  0
  7 16  1  0  0  0
  8 22  1  0  0  0
  9 13  2  0  0  0
 10 13  1  0  0  0
 10 23  1  0  0  0
 11 16  1  0  0  0
 11 18  1  0  0  0
 11 24  1  0  0  0
 12 25  1  0  0  0
 12 26  1  0  0  0
 13 27  1  0  0  0
 14 28  1  0  0  0
 14 29  1  0  0  0
 15 19  1  0  0  0
 15 30  1  0  0  0
 15 31  1  0  0  0
 16 32  1  0  0  0
 16 33  1  0  0  0
 18 34  1  0  0  0
 19 35  1  0  0  0
M  END
> <s_m_entry_id>
11874

> <s_m_entry_name>
dock_pv.77

> <s_m_Source_Path>
/home/csk/Desktop/cluster/DUD-E-result/pnph

> <s_m_Source_File>
dock_pv.maegz

> <i_m_Source_File_Index>
77

> <chembl_id>
CHEMBL269864

> <chembl_pref_name>
ULODESINE

> <i_lp_mmshare_version>
53161

> <r_lp_tautomer_probability>
1

> <s_lp_Force_Field>
OPLS_2005

> <r_lp_Energy>
49.463186

> <b_lp_Chiralities_Consistent>
1

> <s_lp_Variant>
CHEMBL4338_lig154-1

> <s_i_glide_gridfile>
glide-grid_3bgs

> <i_i_glide_lignum>
208

> <i_i_glide_rotatable_bonds>
5

> <r_i_docking_score>
-7.83660715356236

> <r_i_glide_ligand_efficiency>
-0.412453008082229

> <r_i_glide_ligand_efficiency_sa>
-1.10059028570674

> <r_i_glide_ligand_efficiency_ln>
-1.98674822831673

> <r_i_glide_gscore>
-7.83660715356236

> <r_i_glide_lipo>
-2.63283414784621

> <r_i_glide_hbond>
-0.722664084655934

> <r_i_glide_metal>
0

> <r_i_glide_rewards>
-1.97813165479535

> <r_i_glide_evdw>
-36.6070365905762

> <r_i_glide_ecoul>
-9.5739049911499

> <r_i_glide_erotb>
0.763460311936426

> <r_i_glide_esite>
0

> <r_i_glide_emodel>
-62.8264075806033

> <r_i_glide_energy>
-46.1809415817261

> <r_i_glide_einternal>
7.13461065292358

> <i_i_glide_confnum>
23

> <i_i_glide_posenum>
52

> <r_i_glide_eff_state_penalty>
0

> <s_user_duplicate_titles>
CHEMBL4338_lig154,685498,442250

> <i_f3d_flags>
0

> <s_m_subgroup_title>
dock_pv

> <s_m_subgroupid>
dock_pv

> <b_m_subgroup_collapsed>
1

$$$$
CHEMBL4338_lig77
                    3D
 Schrodinger Suite 2021-1.
 34 35  0  0  1  0            999 V2000
   13.6004   12.6884   59.4492 C   0  0  0  0  0  0
   14.3303   12.0099   60.6279 C   0  0  0  0  0  0
   15.7981   12.4489   60.8576 C   0  0  0  0  0  0
   16.0627   13.9518   61.1286 C   0  0  0  0  0  0
   15.7046   14.7521   60.1260 F   0  0  0  0  0  0
   17.3540   14.1665   61.3768 F   0  0  0  0  0  0
   15.1882   14.6294   62.6249 P   0  0  0  0  0  0
   13.6190   14.5298   62.2312 O   0  0  0  0  0  0
   15.3540   13.4330   63.7060 O   0  0  0  0  0  0
   15.5881   15.9638   63.1472 O   0  0  0  0  0  0
   12.9812   10.3344   57.4205 N   0  0  0  0  0  0
   12.8153    9.4954   56.4631 C   0  0  0  0  0  0
   13.6498    9.4807   55.3743 N   0  0  0  0  0  0
   14.6608   10.3550   55.0985 C   0  0  0  0  0  0
   13.9281   11.2974   57.2634 C   0  0  0  0  0  0
   14.7466   11.3640   56.1400 C   0  0  0  0  0  0
   15.5583   12.4522   56.2653 N   0  0  0  0  0  0
   15.2416   13.0667   57.4501 C   0  0  0  0  0  0
   14.2357   12.3688   58.1114 C   0  0  0  0  0  0
   15.3540   10.2330   54.1060 O   0  0  0  0  0  0
   11.7268    8.6330   56.5060 N   0  0  0  0  0  0
   12.5628   12.3514   59.4490 H   0  0  0  0  0  0
   13.5379   13.7650   59.6036 H   0  0  0  0  0  0
   14.3134   10.9296   60.4686 H   0  0  0  0  0  0
   13.7537   12.1579   61.5406 H   0  0  0  0  0  0
   16.3944   12.1461   59.9962 H   0  0  0  0  0  0
   16.2011   11.8713   61.6905 H   0  0  0  0  0  0
   12.9900   14.6003   62.9821 H   0  0  0  0  0  0
   14.6176   12.7838   63.7586 H   0  0  0  0  0  0
   13.5080    8.7603   54.6813 H   0  0  0  0  0  0
   16.2573   12.7500   55.5989 H   0  0  0  0  0  0
   15.7540   13.9621   57.7470 H   0  0  0  0  0  0
   11.2142    8.5357   57.3670 H   0  0  0  0  0  0
   11.7540    7.7489   55.9819 H   0  0  0  0  0  0
  1  2  1  0  0  0
  1 19  1  0  0  0
  1 22  1  0  0  0
  1 23  1  0  0  0
  2  3  1  0  0  0
  2 24  1  0  0  0
  2 25  1  0  0  0
  3  4  1  0  0  0
  3 26  1  0  0  0
  3 27  1  0  0  0
  4  5  1  0  0  0
  4  6  1  0  0  0
  4  7  1  0  0  0
  7  8  1  0  0  0
  7  9  1  0  0  0
  7 10  2  0  0  0
  8 28  1  0  0  0
  9 29  1  0  0  0
 11 15  1  0  0  0
 11 12  2  0  0  0
 12 13  1  0  0  0
 12 21  1  0  0  0
 13 14  1  0  0  0
 13 30  1  0  0  0
 14 16  1  0  0  0
 14 20  2  0  0  0
 15 16  2  0  0  0
 15 19  1  0  0  0
 16 17  1  0  0  0
 17 18  1  0  0  0
 17 31  1  0  0  0
 18 19  2  0  0  0
 18 32  1  0  0  0
 21 33  1  0  0  0
 21 34  1  0  0  0
M  END
> <s_m_entry_id>
11875

> <s_m_entry_name>
dock_pv.78

> <s_m_Source_Path>
/home/csk/Desktop/cluster/DUD-E-result/pnph

> <s_m_Source_File>
dock_pv.maegz

> <i_m_Source_File_Index>
78

> <chembl_id>
CHEMBL236710

> <chembl_pref_name>
None

> <i_lp_mmshare_version>
53161

> <r_lp_tautomer_probability>
1

> <s_lp_Force_Field>
OPLS_2005

> <r_lp_Energy>
7.781057

> <b_lp_Chiralities_Consistent>
1

> <s_lp_Variant>
CHEMBL4338_lig77-1

> <s_i_glide_gridfile>
glide-grid_3bgs

> <i_i_glide_lignum>
96

> <i_i_glide_rotatable_bonds>
7

> <r_i_docking_score>
-7.8184925126939

> <r_i_glide_ligand_efficiency>
-0.372309167271138

> <r_i_glide_ligand_efficiency_sa>
-1.02717276163025

> <r_i_glide_ligand_efficiency_ln>
-1.93310647501186

> <r_i_glide_gscore>
-7.8184925126939

> <r_i_glide_lipo>
-2.38139679567169

> <r_i_glide_hbond>
-0.48

> <r_i_glide_metal>
0

> <r_i_glide_rewards>
-1.95879936455022

> <r_i_glide_evdw>
-24.9735813140869

> <r_i_glide_ecoul>
-17.0007305145264

> <r_i_glide_erotb>
0.900492290411307

> <r_i_glide_esite>
-0.1

> <r_i_glide_emodel>
-60.8514078605079

> <r_i_glide_energy>
-41.9743118286133

> <r_i_glide_einternal>
2.63594627380371

> <i_i_glide_confnum>
149

> <i_i_glide_posenum>
326

> <r_i_glide_eff_state_penalty>
0

> <s_user_duplicate_titles>
CHEMBL4338_lig77,398262

> <i_f3d_flags>
0

> <s_m_subgroup_title>
dock_pv

> <s_m_subgroupid>
dock_pv

> <b_m_subgroup_collapsed>
1

$$$$
CHEMBL4338_lig169
                    3D
 Schrodinger Suite 2021-1.
 33 35  0  0  1  0            999 V2000
   13.0705   14.7284   60.5418 C   0  0  2  0  0  0
   12.4611   13.7811   59.4905 C   0  0  1  0  0  0
   13.4243   12.5641   59.4958 C   0  0  2  0  0  0
   14.4091   12.8165   60.5421 N   0  0  1  0  0  0
   13.7921   13.7504   61.4758 C   0  0  1  0  0  0
   12.1573   15.6115   61.1823 O   0  0  0  0  0  0
   11.1164   13.4330   59.7812 O   0  0  0  0  0  0
   14.7771   14.4092   62.4585 C   0  0  0  0  0  0
   15.3539   13.4362   63.3060 O   0  0  0  0  0  0
   14.1308   12.2920   58.1659 C   0  0  0  0  0  0
   15.4956   12.4386   56.3459 N   0  0  0  0  0  0
   15.1594   13.0149   57.5490 C   0  0  0  0  0  0
   14.6911   11.3514   56.1576 C   0  0  0  0  0  0
   13.8650   11.2364   57.2742 C   0  0  0  0  0  0
   12.9540   10.2338   57.3965 N   0  0  0  0  0  0
   12.7914    9.4327   56.4007 C   0  0  0  0  0  0
   13.6117    9.4873   55.3026 N   0  0  0  0  0  0
   14.6344   10.3619   55.0819 C   0  0  0  0  0  0
   15.3540   10.2330   54.1060 O   0  0  0  0  0  0
   13.8103   15.3478   60.0288 H   0  0  0  0  0  0
   12.4805   14.2331   58.5061 H   0  0  0  0  0  0
   12.8883   11.6490   59.7577 H   0  0  0  0  0  0
   14.8016   11.9825   60.9610 H   0  0  0  0  0  0
   13.0406   13.2090   62.0569 H   0  0  0  0  0  0
   11.6112   15.0930   61.7840 H   0  0  0  0  0  0
   10.6457   14.2405   60.0156 H   0  0  0  0  0  0
   14.2520   15.1376   63.0778 H   0  0  0  0  0  0
   15.5586   14.9555   61.9282 H   0  0  0  0  0  0
   14.6466   12.9143   63.7078 H   0  0  0  0  0  0
   16.2132   12.7559   55.7092 H   0  0  0  0  0  0
   15.6829   13.8952   57.8892 H   0  0  0  0  0  0
   12.0357    8.6502   56.4149 H   0  0  0  0  0  0
   13.5051    8.7733   54.5951 H   0  0  0  0  0  0
  1  5  1  0  0  0
  1  2  1  0  0  0
  1  6  1  0  0  0
  1 20  1  0  0  0
  2  7  1  0  0  0
  2  3  1  0  0  0
  2 21  1  0  0  0
  3 10  1  0  0  0
  3  4  1  0  0  0
  3 22  1  0  0  0
  4  5  1  0  0  0
  4 23  1  0  0  0
  5  8  1  0  0  0
  5 24  1  0  0  0
  6 25  1  0  0  0
  7 26  1  0  0  0
  8  9  1  0  0  0
  8 27  1  0  0  0
  8 28  1  0  0  0
  9 29  1  0  0  0
 10 14  1  0  0  0
 10 12  2  0  0  0
 11 13  1  0  0  0
 11 12  1  0  0  0
 11 30  1  0  0  0
 12 31  1  0  0  0
 13 14  2  0  0  0
 13 18  1  0  0  0
 14 15  1  0  0  0
 15 16  2  0  0  0
 16 17  1  0  0  0
 16 32  1  0  0  0
 17 18  1  0  0  0
 17 33  1  0  0  0
 18 19  2  0  0  0
M  END
> <s_m_entry_id>
11876

> <s_m_entry_name>
dock_pv.79

> <s_m_Source_Path>
/home/csk/Desktop/cluster/DUD-E-result/pnph

> <s_m_Source_File>
dock_pv.maegz

> <i_m_Source_File_Index>
79

> <chembl_id>
CHEMBL474121

> <chembl_pref_name>
None

> <i_lp_mmshare_version>
53161

> <r_lp_tautomer_probability>
1

> <s_lp_Force_Field>
OPLS_2005

> <r_lp_Energy>
48.846024

> <b_lp_Chiralities_Consistent>
1

> <s_lp_Variant>
CHEMBL4338_lig169-1

> <s_i_glide_gridfile>
glide-grid_3bgs

> <i_i_glide_lignum>
230

> <i_i_glide_rotatable_bonds>
5

> <r_i_docking_score>
-7.81773341979122

> <r_i_glide_ligand_efficiency>
-0.411459653673222

> <r_i_glide_ligand_efficiency_sa>
-1.09793961716658

> <r_i_glide_ligand_efficiency_ln>
-1.98196333143511

> <r_i_glide_gscore>
-7.81773341979122

> <r_i_glide_lipo>
-2.32283777988917

> <r_i_glide_hbond>
-0.576

> <r_i_glide_metal>
0

> <r_i_glide_rewards>
-1.78723104897533

> <r_i_glide_evdw>
-30.2994632720947

> <r_i_glide_ecoul>
-14.1278162002563

> <r_i_glide_erotb>
0.502481002716467

> <r_i_glide_esite>
0

> <r_i_glide_emodel>
-61.1382874939404

> <r_i_glide_energy>
-44.4272794723511

> <r_i_glide_einternal>
4.58388137817383

> <i_i_glide_confnum>
5

> <i_i_glide_posenum>
15

> <r_i_glide_eff_state_penalty>
0

> <s_user_duplicate_titles>
CHEMBL4338_lig169,454609

> <i_f3d_flags>
0

> <s_m_subgroup_title>
dock_pv

> <s_m_subgroupid>
dock_pv

> <b_m_subgroup_collapsed>
1

$$$$
CHEMBL4338_lig56
                    3D
 Schrodinger Suite 2021-1.
 37 39  0  0  1  0            999 V2000
   14.0717   11.1900   57.1301 C   0  0  0  0  0  0
   14.8933   11.0740   55.9775 C   0  0  0  0  0  0
   14.5412   12.2925   57.9292 C   0  0  0  0  0  0
   13.6202    9.2094   55.2878 N   0  0  0  0  0  0
   14.6729   10.0209   55.0879 C   0  0  0  0  0  0
   13.0510   10.3559   57.3343 N   0  0  0  0  0  0
   15.7981   12.1043   56.0344 N   0  0  0  0  0  0
   12.8591    9.4330   56.3690 C   0  0  0  0  0  0
   15.5551   12.8476   57.1574 C   0  0  0  0  0  0
   13.9196   12.7572   59.2522 C   0  0  2  0  0  0
   11.7237   14.0298   59.9318 C   0  0  0  0  0  0
   12.8305   13.7927   58.9060 C   0  0  0  0  0  0
   15.5819    9.8329   54.1060 O   0  0  0  0  0  0
   14.8902   13.2556   60.3430 C   0  0  0  0  0  0
   11.7540    8.6330   56.5060 N   0  0  0  0  0  0
   10.5543   13.8330   59.6174 O   0  0  0  0  0  0
   12.0600   14.4792   61.1369 N   0  0  0  0  0  0
   15.8972   14.1911   60.0727 C   0  0  0  0  0  0
   14.7091   12.8306   61.6654 C   0  0  0  0  0  0
   15.5123   13.3389   62.6837 C   0  0  0  0  0  0
   16.7484   14.6330   61.0784 C   0  0  0  0  0  0
   16.5450   14.2178   62.3868 C   0  0  0  0  0  0
   16.5230   12.3349   55.3692 H   0  0  0  0  0  0
   16.1540   13.7288   57.2998 H   0  0  0  0  0  0
   13.4164   11.8785   59.6649 H   0  0  0  0  0  0
   13.2995   14.7467   58.6687 H   0  0  0  0  0  0
   12.3173   13.4330   58.0103 H   0  0  0  0  0  0
   15.3717    9.0331   53.6165 H   0  0  0  0  0  0
   11.2398    8.7025   57.3650 H   0  0  0  0  0  0
   11.7540    7.7454   55.9732 H   0  0  0  0  0  0
   11.3431   14.6330   61.8317 H   0  0  0  0  0  0
   13.0319   14.5643   61.3964 H   0  0  0  0  0  0
   16.0293   14.6153   59.0962 H   0  0  0  0  0  0
   13.9237   12.1322   61.9186 H   0  0  0  0  0  0
   15.3540   13.0330   63.7058 H   0  0  0  0  0  0
   17.5316   15.3407   60.8481 H   0  0  0  0  0  0
   17.1779   14.5898   63.1787 H   0  0  0  0  0  0
  1  2  1  0  0  0
  1  3  1  0  0  0
  1  6  2  0  0  0
  2  5  2  0  0  0
  2  7  1  0  0  0
  3  9  2  0  0  0
  3 10  1  0  0  0
  4  8  2  0  0  0
  4  5  1  0  0  0
  5 13  1  0  0  0
  6  8  1  0  0  0
  7  9  1  0  0  0
  7 23  1  0  0  0
  8 15  1  0  0  0
  9 24  1  0  0  0
 10 12  1  0  0  0
 10 14  1  0  0  0
 10 25  1  0  0  0
 11 12  1  0  0  0
 11 16  2  0  0  0
 11 17  1  0  0  0
 12 26  1  0  0  0
 12 27  1  0  0  0
 13 28  1  0  0  0
 14 18  2  0  0  0
 14 19  1  0  0  0
 15 29  1  0  0  0
 15 30  1  0  0  0
 17 31  1  0  0  0
 17 32  1  0  0  0
 18 21  1  0  0  0
 18 33  1  0  0  0
 19 20  2  0  0  0
 19 34  1  0  0  0
 20 22  1  0  0  0
 20 35  1  0  0  0
 21 22  2  0  0  0
 21 36  1  0  0  0
 22 37  1  0  0  0
M  END
> <s_m_entry_id>
11877

> <s_m_entry_name>
dock_pv.80

> <s_m_Source_Path>
/home/csk/Desktop/cluster/DUD-E-result/pnph

> <s_m_Source_File>
dock_pv.maegz

> <i_m_Source_File_Index>
80

> <chembl_id>
CHEMBL124428

> <chembl_pref_name>
None

> <i_lp_mmshare_version>
53161

> <r_lp_tautomer_probability>
1

> <s_lp_Force_Field>
OPLS_2005

> <r_lp_Energy>
3.690434

> <b_lp_Chiralities_Consistent>
1

> <s_lp_Variant>
CHEMBL4338_lig56-1

> <s_i_glide_gridfile>
glide-grid_3bgs

> <i_i_glide_lignum>
69

> <i_i_glide_rotatable_bonds>
5

> <r_i_docking_score>
-7.8133262144225

> <r_i_glide_ligand_efficiency>
-0.355151191564659

> <r_i_glide_ligand_efficiency_sa>
-0.995147606067953

> <r_i_glide_ligand_efficiency_ln>
-1.9098619248032

> <r_i_glide_gscore>
-7.8133262144225

> <r_i_glide_lipo>
-2.73688149237159

> <r_i_glide_hbond>
-0.704129776082007

> <r_i_glide_metal>
0

> <r_i_glide_rewards>
-2.02200616393237

> <r_i_glide_evdw>
-31.0270462036133

> <r_i_glide_ecoul>
-8.80783843994141

> <r_i_glide_erotb>
0.622219294135339

> <r_i_glide_esite>
-0.1

> <r_i_glide_emodel>
-54.9159818261754

> <r_i_glide_energy>
-39.8348846435547

> <r_i_glide_einternal>
6.27436828613281

> <i_i_glide_confnum>
8

> <i_i_glide_posenum>
249

> <r_i_glide_eff_state_penalty>
0

> <s_user_duplicate_titles>
CHEMBL4338_lig56

> <i_f3d_flags>
0

> <s_m_subgroup_title>
dock_pv

> <s_m_subgroupid>
dock_pv

> <b_m_subgroup_collapsed>
1

$$$$
CHEMBL4338_lig56
                    3D
 Schrodinger Suite 2021-1.
 37 39  0  0  1  0            999 V2000
   14.0224   11.3081   56.8390 C   0  0  0  0  0  0
   14.8905   11.0518   55.7411 C   0  0  0  0  0  0
   14.4504   12.5268   57.4881 C   0  0  0  0  0  0
   13.6578    9.0919   55.2641 N   0  0  0  0  0  0
   14.7182    9.8789   54.9978 C   0  0  0  0  0  0
   13.0339   10.4620   57.1430 N   0  0  0  0  0  0
   15.7956   12.0892   55.7076 N   0  0  0  0  0  0
   12.8623    9.4330   56.2908 C   0  0  0  0  0  0
   15.5118   12.9681   56.7175 C   0  0  0  0  0  0
   13.9301   13.1987   58.7594 C   0  0  1  0  0  0
   12.0041   13.2247   60.4979 C   0  0  0  0  0  0
   12.6853   12.4845   59.3485 C   0  0  0  0  0  0
   15.6828    9.5510   54.1060 O   0  0  0  0  0  0
   15.0460   13.3369   59.7991 C   0  0  0  0  0  0
   11.7597    8.6330   56.5060 N   0  0  0  0  0  0
   10.9599   13.8330   60.2989 O   0  0  0  0  0  0
   12.5541   13.1284   61.7060 N   0  0  0  0  0  0
   15.2010   14.5372   60.5016 C   0  0  0  0  0  0
   15.8701   12.2448   60.0918 C   0  0  0  0  0  0
   16.8360   12.3512   61.0821 C   0  0  0  0  0  0
   16.1499   14.6330   61.5129 C   0  0  0  0  0  0
   16.9540   13.5360   61.8038 C   0  0  0  0  0  0
   16.5857   12.2199   55.0911 H   0  0  0  0  0  0
   16.1423   13.8330   56.8537 H   0  0  0  0  0  0
   13.6187   14.2092   58.4892 H   0  0  0  0  0  0
   11.9329   12.3681   58.5683 H   0  0  0  0  0  0
   12.9432   11.4817   59.6943 H   0  0  0  0  0  0
   15.4750    8.7035   53.7035 H   0  0  0  0  0  0
   11.2061    8.7837   57.3292 H   0  0  0  0  0  0
   11.7540    7.7222   56.0150 H   0  0  0  0  0  0
   12.1257   13.5975   62.4958 H   0  0  0  0  0  0
   13.4278   12.6399   61.8349 H   0  0  0  0  0  0
   14.5655   15.3845   60.2898 H   0  0  0  0  0  0
   15.7539   11.3095   59.5628 H   0  0  0  0  0  0
   17.4689   11.5047   61.3069 H   0  0  0  0  0  0
   16.2536   15.5497   62.0738 H   0  0  0  0  0  0
   17.6790   13.6014   62.6000 H   0  0  0  0  0  0
  1  2  1  0  0  0
  1  3  1  0  0  0
  1  6  2  0  0  0
  2  5  2  0  0  0
  2  7  1  0  0  0
  3  9  2  0  0  0
  3 10  1  0  0  0
  4  8  2  0  0  0
  4  5  1  0  0  0
  5 13  1  0  0  0
  6  8  1  0  0  0
  7  9  1  0  0  0
  7 23  1  0  0  0
  8 15  1  0  0  0
  9 24  1  0  0  0
 10 12  1  0  0  0
 10 14  1  0  0  0
 10 25  1  0  0  0
 11 12  1  0  0  0
 11 16  2  0  0  0
 11 17  1  0  0  0
 12 26  1  0  0  0
 12 27  1  0  0  0
 13 28  1  0  0  0
 14 18  2  0  0  0
 14 19  1  0  0  0
 15 29  1  0  0  0
 15 30  1  0  0  0
 17 31  1  0  0  0
 17 32  1  0  0  0
 18 21  1  0  0  0
 18 33  1  0  0  0
 19 20  2  0  0  0
 19 34  1  0  0  0
 20 22  1  0  0  0
 20 35  1  0  0  0
 21 22  2  0  0  0
 21 36  1  0  0  0
 22 37  1  0  0  0
M  END
> <s_m_entry_id>
11878

> <s_m_entry_name>
dock_pv.81

> <s_m_Source_Path>
/home/csk/Desktop/cluster/DUD-E-result/pnph

> <s_m_Source_File>
dock_pv.maegz

> <i_m_Source_File_Index>
81

> <chembl_id>
CHEMBL124428

> <chembl_pref_name>
None

> <i_lp_mmshare_version>
53161

> <r_lp_tautomer_probability>
1

> <s_lp_Force_Field>
OPLS_2005

> <r_lp_Energy>
6.881001

> <b_lp_Chiralities_Consistent>
1

> <s_lp_Variant>
CHEMBL4338_lig56-2

> <s_i_glide_gridfile>
glide-grid_3bgs

> <i_i_glide_lignum>
70

> <i_i_glide_rotatable_bonds>
5

> <r_i_docking_score>
-7.79883056587174

> <r_i_glide_ligand_efficiency>
-0.354492298448715

> <r_i_glide_ligand_efficiency_sa>
-0.993301361644282

> <r_i_glide_ligand_efficiency_ln>
-1.90631865955576

> <r_i_glide_gscore>
-7.79883056587174

> <r_i_glide_lipo>
-3.17347229288688

> <r_i_glide_hbond>
-0.730661140047908

> <r_i_glide_metal>
0

> <r_i_glide_rewards>
-1.93685501199792

> <r_i_glide_evdw>
-33.6157531738281

> <r_i_glide_ecoul>
-5.26072978973389

> <r_i_glide_erotb>
0.622219294135339

> <r_i_glide_esite>
-0.110164287922873

> <r_i_glide_emodel>
-51.6225175472344

> <r_i_glide_energy>
-38.876482963562

> <r_i_glide_einternal>
7.6511697769165

> <i_i_glide_confnum>
17

> <i_i_glide_posenum>
291

> <r_i_glide_eff_state_penalty>
0

> <s_user_duplicate_titles>
CHEMBL4338_lig56,204232

> <i_f3d_flags>
0

> <s_m_subgroup_title>
dock_pv

> <s_m_subgroupid>
dock_pv

> <b_m_subgroup_collapsed>
1

$$$$
CHEMBL4338_lig24
                    3D
 Schrodinger Suite 2021-1.
 35 37  0  0  1  0            999 V2000
   14.6219   11.0374   57.8799 C   0  0  0  0  0  0
   15.4260   12.1255   58.2009 C   0  0  0  0  0  0
   12.5565   13.3570   60.8081 C   0  0  0  0  0  0
   13.7188   13.1945   61.8097 C   0  0  2  0  0  0
   14.5540   10.2268   58.9767 N   0  3  0  0  0  0
   12.2448   15.0326   60.1086 P   0  0  0  0  0  0
   15.8808   11.9625   59.5095 N   0  0  0  0  0  0
   14.1538   14.2480   62.8215 C   0  0  0  0  0  0
   15.0072   13.9434   61.6123 C   0  0  1  0  0  0
   15.7540   13.0981   57.2970 N   0  0  0  0  0  0
   14.1039   10.9162   56.5230 C   0  0  0  0  0  0
   15.3527   10.7641   59.9554 C   0  0  0  0  0  0
   14.5542   11.8845   55.7059 N   0  5  0  0  0  0
   15.2988   12.8691   56.1066 C   0  0  0  0  0  0
   13.3541   15.9332   59.7060 O   0  0  0  0  0  0
   16.8162   12.8008   60.2549 C   0  0  0  0  0  0
   16.3181   13.1587   61.6692 C   0  0  0  0  0  0
   11.3698   13.0349   61.3067 F   0  0  0  0  0  0
   12.7519   12.5907   59.7375 F   0  0  0  0  0  0
   13.3557    9.9990   56.2017 O   0  0  0  0  0  0
   11.2320   14.6331   58.9061 O   0  0  0  0  0  0
   11.2800   15.7202   61.2064 O   0  0  0  0  0  0
   15.0668   14.7205   60.8536 H   0  0  0  0  0  0
   13.7727   12.1617   62.1578 H   0  0  0  0  0  0
   13.6172   15.1968   62.8641 H   0  0  0  0  0  0
   14.4805   13.9174   63.8074 H   0  0  0  0  0  0
   15.5444   10.3054   60.9063 H   0  0  0  0  0  0
   15.5735   13.6111   55.3625 H   0  0  0  0  0  0
   16.9663   13.7280   59.7060 H   0  0  0  0  0  0
   17.7546   12.2612   60.2985 H   0  0  0  0  0  0
   17.0725   13.7577   62.1800 H   0  0  0  0  0  0
   16.2008   12.2554   62.2641 H   0  0  0  0  0  0
   14.0481    9.3513   59.0338 H   0  0  0  0  0  0
   11.6590   14.6332   58.0134 H   0  0  0  0  0  0
   10.3354   15.4343   61.1605 H   0  0  0  0  0  0
  1  5  1  0  0  0
  1 11  1  0  0  0
  1  2  2  0  0  0
  2 10  1  0  0  0
  2  7  1  0  0  0
  3  4  1  0  0  0
  3  6  1  0  0  0
  3 18  1  0  0  0
  3 19  1  0  0  0
  4  9  1  0  0  0
  4 24  1  0  0  0
  4  8  1  0  0  0
  5 12  2  0  0  0
  5 33  1  0  0  0
  6 15  2  0  0  0
  6 21  1  0  0  0
  6 22  1  0  0  0
  7 16  1  0  0  0
  7 12  1  0  0  0
  8  9  1  0  0  0
  8 25  1  0  0  0
  8 26  1  0  0  0
  9 17  1  0  0  0
  9 23  1  0  0  0
 10 14  2  0  0  0
 11 20  2  0  0  0
 11 13  1  0  0  0
 12 27  1  0  0  0
 13 14  1  0  0  0
 14 28  1  0  0  0
 16 17  1  0  0  0
 16 29  1  0  0  0
 16 30  1  0  0  0
 17 31  1  0  0  0
 17 32  1  0  0  0
 21 34  1  0  0  0
 22 35  1  0  0  0
M  CHG  2   5   1  13  -1
M  END
> <s_m_entry_id>
11880

> <s_m_entry_name>
dock_pv.83

> <s_m_Source_Path>
/home/csk/Desktop/cluster/DUD-E-result/pnph

> <s_m_Source_File>
dock_pv.maegz

> <i_m_Source_File_Index>
83

> <chembl_id>
CHEMBL317966

> <chembl_pref_name>
None

> <i_lp_mmshare_version>
53161

> <r_lp_tautomer_probability>
0.144281265051876

> <s_lp_Force_Field>
OPLS_2005

> <r_lp_Energy>
14.87163

> <b_lp_Chiralities_Consistent>
1

> <s_lp_Variant>
CHEMBL4338_lig24-2

> <s_i_glide_gridfile>
glide-grid_3bgs

> <i_i_glide_lignum>
27

> <i_i_glide_rotatable_bonds>
7

> <r_i_docking_score>
-7.78565618861668

> <r_i_glide_ligand_efficiency>
-0.35389346311894

> <r_i_glide_ligand_efficiency_sa>
-0.991623401499395

> <r_i_glide_ligand_efficiency_ln>
-1.90309836120754

> <r_i_glide_gscore>
-7.78565618861668

> <r_i_glide_lipo>
-1.31084606821831

> <r_i_glide_hbond>
-0.288

> <r_i_glide_metal>
0

> <r_i_glide_rewards>
-2.88575815927239

> <r_i_glide_evdw>
-31.9952373504639

> <r_i_glide_ecoul>
-16.9497356414795

> <r_i_glide_erotb>
0.844118252944863

> <r_i_glide_esite>
-0.0029480003257336

> <r_i_glide_emodel>
-69.7503822503819

> <r_i_glide_energy>
-48.9449729919434

> <r_i_glide_einternal>
4.35697937011719

> <i_i_glide_confnum>
30

> <i_i_glide_posenum>
55

> <r_i_glide_eff_state_penalty>
0

> <s_user_duplicate_titles>
CHEMBL4338_lig24,CHEMBL4338_lig24,157207

> <i_f3d_flags>
0

> <s_m_subgroup_title>
dock_pv

> <s_m_subgroupid>
dock_pv

> <b_m_subgroup_collapsed>
1

$$$$
CHEMBL4338_lig28
                    3D
 Schrodinger Suite 2021-1.
 27 29  0  0  1  0            999 V2000
   14.7725   11.1820   55.9575 C   0  0  0  0  0  0
   13.5893   10.6680   56.5460 C   0  0  0  0  0  0
   15.3553   10.6081   54.9060 N   0  0  0  0  0  0
   15.2413   12.2735   56.6295 N   0  0  0  0  0  0
   14.3925   12.4386   57.6075 C   0  0  0  0  0  0
   13.5981    8.9627   54.9320 N   0  0  0  0  0  0
   12.9834    9.5362   55.9797 C   0  0  0  0  0  0
   13.3762   11.5045   57.6202 N   0  0  0  0  0  0
   14.7427    9.4841   54.4743 C   0  0  0  0  0  0
   14.5599   13.4178   58.5494 N   0  0  0  0  0  0
   11.8365    9.0329   56.5060 O   0  0  0  0  0  0
   11.3541   14.4138   60.1384 N   0  0  0  0  0  0
   15.3539    8.7354   53.4952 N   0  0  0  0  0  0
   13.6330   13.9628   59.4487 C   0  0  0  0  0  0
   12.2456   13.8273   59.3065 C   0  0  0  0  0  0
   11.8390   15.1740   61.1506 C   0  0  0  0  0  0
   14.1062   14.7514   60.5031 C   0  0  0  0  0  0
   13.2024   15.3678   61.3698 C   0  0  0  0  0  0
   12.6661   11.4662   58.3347 H   0  0  0  0  0  0
   15.4872   13.7978   58.6599 H   0  0  0  0  0  0
   11.6896    8.1616   56.1052 H   0  0  0  0  0  0
   16.1942    9.0686   53.0357 H   0  0  0  0  0  0
   14.8973    7.8656   53.2529 H   0  0  0  0  0  0
   11.8072   13.2956   58.4791 H   0  0  0  0  0  0
   11.1056   15.6238   61.8020 H   0  0  0  0  0  0
   15.1669   14.8964   60.6484 H   0  0  0  0  0  0
   13.5492   15.9727   62.1947 H   0  0  0  0  0  0
  1  2  1  0  0  0
  1  3  2  0  0  0
  1  4  1  0  0  0
  2  7  2  0  0  0
  2  8  1  0  0  0
  3  9  1  0  0  0
  4  5  2  0  0  0
  5 10  1  0  0  0
  5  8  1  0  0  0
  6  9  2  0  0  0
  6  7  1  0  0  0
  7 11  1  0  0  0
  8 19  1  0  0  0
  9 13  1  0  0  0
 10 14  1  0  0  0
 10 20  1  0  0  0
 11 21  1  0  0  0
 12 15  2  0  0  0
 12 16  1  0  0  0
 13 22  1  0  0  0
 13 23  1  0  0  0
 14 15  1  0  0  0
 14 17  2  0  0  0
 15 24  1  0  0  0
 16 18  2  0  0  0
 16 25  1  0  0  0
 17 18  1  0  0  0
 17 26  1  0  0  0
 18 27  1  0  0  0
M  END
> <s_m_entry_id>
11881

> <s_m_entry_name>
dock_pv.84

> <s_m_Source_Path>
/home/csk/Desktop/cluster/DUD-E-result/pnph

> <s_m_Source_File>
dock_pv.maegz

> <i_m_Source_File_Index>
84

> <chembl_id>
CHEMBL159266

> <chembl_pref_name>
None

> <i_lp_mmshare_version>
53161

> <r_lp_tautomer_probability>
0.999999999999999

> <s_lp_Force_Field>
OPLS_2005

> <r_lp_Energy>
5.625254

> <b_lp_Chiralities_Consistent>
1

> <s_lp_Variant>
CHEMBL4338_lig28-1

> <s_i_glide_gridfile>
glide-grid_3bgs

> <i_i_glide_lignum>
33

> <i_i_glide_rotatable_bonds>
3

> <r_i_docking_score>
-7.77264848236721

> <r_i_glide_ligand_efficiency>
-0.431813804575956

> <r_i_glide_ligand_efficiency_sa>
-1.13167231115272

> <r_i_glide_ligand_efficiency_ln>
-1.99791921339942

> <r_i_glide_gscore>
-7.77264848236721

> <r_i_glide_lipo>
-0.986334036766841

> <r_i_glide_hbond>
-0.717846635937701

> <r_i_glide_metal>
0

> <r_i_glide_rewards>
-3.51181058381416

> <r_i_glide_evdw>
-36.9844169616699

> <r_i_glide_ecoul>
-8.55609512329102

> <r_i_glide_erotb>
0.586961595368352

> <r_i_glide_esite>
-0.0109837046397166

> <r_i_glide_emodel>
-61.978626892311

> <r_i_glide_energy>
-45.5405120849609

> <r_i_glide_einternal>
5.26344108581543

> <i_i_glide_confnum>
5

> <i_i_glide_posenum>
104

> <r_i_glide_eff_state_penalty>
0

> <s_user_duplicate_titles>
CHEMBL4338_lig28,267261

> <i_f3d_flags>
0

> <s_m_subgroup_title>
dock_pv

> <s_m_subgroupid>
dock_pv

> <b_m_subgroup_collapsed>
1

$$$$
CHEMBL4338_lig151
                    3D
 Schrodinger Suite 2021-1.
 32 33  0  0  1  0            999 V2000
   13.6543   11.6602   58.0883 N   0  0  0  0  0  0
   12.8879   11.8458   59.3137 C   0  0  1  0  0  0
   14.2132   10.8116   56.2497 C   0  0  0  0  0  0
   15.0278   11.8570   56.3774 N   0  0  0  0  0  0
   13.3541   10.6636   57.2473 N   0  0  0  0  0  0
   14.6879   12.3666   57.5277 C   0  0  0  0  0  0
   13.6274   11.8366   60.6721 C   0  0  2  0  0  0
   12.1375   13.0203   59.2291 O   0  0  0  0  0  0
   12.8879   12.9317   61.4650 C   0  0  2  0  0  0
   11.8308   13.5389   60.5145 C   0  0  1  0  0  0
   14.3165    9.8504   55.1283 C   0  0  0  0  0  0
   15.3538    9.8334   54.4121 N   0  0  0  0  0  0
   15.2871   13.4331   58.1150 N   0  0  0  0  0  0
   15.0365   11.9885   60.5917 O   0  0  0  0  0  0
   13.2245    9.0330   55.0172 N   0  0  0  0  0  0
   13.7486   13.8691   62.1065 O   0  0  0  0  0  0
   11.7312   15.0839   60.4373 C   0  0  0  0  0  0
   12.9542   15.7087   60.0918 O   0  0  0  0  0  0
   12.1546   11.0379   59.3062 H   0  0  0  0  0  0
   13.4355   10.8706   61.1402 H   0  0  0  0  0  0
   12.3447   12.4349   62.2686 H   0  0  0  0  0  0
   10.8395   13.1673   60.7803 H   0  0  0  0  0  0
   15.3093    9.1174   53.7012 H   0  0  0  0  0  0
   16.0340   13.9302   57.6572 H   0  0  0  0  0  0
   15.1801   13.5661   59.1128 H   0  0  0  0  0  0
   15.3806   12.0635   61.4869 H   0  0  0  0  0  0
   13.2668    8.1798   54.4680 H   0  0  0  0  0  0
   12.4691    9.1216   55.6788 H   0  0  0  0  0  0
   13.2723   14.2243   62.8680 H   0  0  0  0  0  0
   10.9755   15.3696   59.7060 H   0  0  0  0  0  0
   11.4007   15.4757   61.4002 H   0  0  0  0  0  0
   13.6374   15.3108   60.6459 H   0  0  0  0  0  0
  1  2  1  0  0  0
  1  5  1  0  0  0
  1  6  1  0  0  0
  2  7  1  0  0  0
  2  8  1  0  0  0
  2 19  1  0  0  0
  3  4  1  0  0  0
  3  5  2  0  0  0
  3 11  1  0  0  0
  4  6  2  0  0  0
  6 13  1  0  0  0
  7  9  1  0  0  0
  7 14  1  0  0  0
  7 20  1  0  0  0
  8 10  1  0  0  0
  9 10  1  0  0  0
  9 16  1  0  0  0
  9 21  1  0  0  0
 10 17  1  0  0  0
 10 22  1  0  0  0
 11 12  2  0  0  0
 11 15  1  0  0  0
 12 23  1  0  0  0
 13 24  1  0  0  0
 13 25  1  0  0  0
 14 26  1  0  0  0
 15 27  1  0  0  0
 15 28  1  0  0  0
 16 29  1  0  0  0
 17 18  1  0  0  0
 17 30  1  0  0  0
 17 31  1  0  0  0
 18 32  1  0  0  0
M  END
> <s_m_entry_id>
11882

> <s_m_entry_name>
dock_pv.85

> <s_m_Source_Path>
/home/csk/Desktop/cluster/DUD-E-result/pnph

> <s_m_Source_File>
dock_pv.maegz

> <i_m_Source_File_Index>
85

> <chembl_id>
CHEMBL552896

> <chembl_pref_name>
None

> <i_lp_mmshare_version>
53161

> <r_lp_tautomer_probability>
1

> <s_lp_Force_Field>
OPLS_2005

> <r_lp_Energy>
42.424936

> <b_lp_Chiralities_Consistent>
1

> <s_lp_Variant>
CHEMBL4338_lig151-6

> <s_i_glide_gridfile>
glide-grid_3bgs

> <i_i_glide_lignum>
202

> <i_i_glide_rotatable_bonds>
6

> <r_i_docking_score>
-7.76694425780993

> <r_i_glide_ligand_efficiency>
-0.431496903211663

> <r_i_glide_ligand_efficiency_sa>
-1.13084179463024

> <r_i_glide_ligand_efficiency_ln>
-1.99645297189031

> <r_i_glide_gscore>
-7.76694425780993

> <r_i_glide_lipo>
-0.830403771801003

> <r_i_glide_hbond>
-0.446904854119037

> <r_i_glide_metal>
0

> <r_i_glide_rewards>
-3.44840072727273

> <r_i_glide_evdw>
-37.6103401184082

> <r_i_glide_ecoul>
-10.8101358413696

> <r_i_glide_erotb>
0.529680804525953

> <r_i_glide_esite>
-0.0688783270172643

> <r_i_glide_emodel>
-66.7630640821342

> <r_i_glide_energy>
-48.4204759597778

> <r_i_glide_einternal>
6.42215013504028

> <i_i_glide_confnum>
6

> <i_i_glide_posenum>
227

> <r_i_glide_eff_state_penalty>
0

> <s_user_duplicate_titles>
CHEMBL4338_lig151

> <i_f3d_flags>
0

> <s_m_subgroup_title>
dock_pv

> <s_m_subgroupid>
dock_pv

> <b_m_subgroup_collapsed>
1

$$$$
CHEMBL4338_lig81
                    3D
 Schrodinger Suite 2021-1.
 33 35  0  0  1  0            999 V2000
   14.2614   12.8436   58.3860 C   0  0  0  0  0  0
   13.0649   10.7219   57.7564 N   0  0  0  0  0  0
   12.9540    9.8330   56.8314 C   0  0  0  0  0  0
   13.7330    9.8469   55.7060 N   0  0  0  0  0  0
   14.7020   10.7478   55.3959 C   0  0  0  0  0  0
   13.9791   11.7170   57.5721 C   0  0  0  0  0  0
   14.8016   11.7521   56.4413 C   0  0  0  0  0  0
   15.6488   12.8032   56.5597 N   0  0  0  0  0  0
   15.3540   13.4330   57.7392 C   0  0  0  0  0  0
   15.3540   10.6330   54.3762 O   0  0  0  0  0  0
   13.5726   13.2951   59.6963 C   0  0  2  0  0  0
   13.9036   14.7715   60.1202 C   0  0  2  0  0  0
   14.1457   14.7049   61.6480 C   0  0  2  0  0  0
   13.9065   13.2316   61.9979 C   0  0  0  0  0  0
   14.1612   12.4910   60.7702 N   0  0  2  0  0  0
   12.9540   15.7505   59.7060 O   0  0  0  0  0  0
   13.3540   15.5687   62.4488 O   0  0  0  0  0  0
   12.0259   13.0281   59.6570 C   0  0  0  0  0  0
   11.3540   13.5130   58.5060 O   0  0  0  0  0  0
   12.2227    9.0322   56.9060 H   0  0  0  0  0  0
   13.6053    9.1129   55.0241 H   0  0  0  0  0  0
   16.3858   13.0391   55.9103 H   0  0  0  0  0  0
   15.9666   14.2679   58.0258 H   0  0  0  0  0  0
   14.8614   15.0747   59.7060 H   0  0  0  0  0  0
   15.1941   14.9225   61.8612 H   0  0  0  0  0  0
   12.8665   13.0549   62.2775 H   0  0  0  0  0  0
   14.5171   12.8940   62.8369 H   0  0  0  0  0  0
   15.1598   12.4261   60.6255 H   0  0  0  0  0  0
   12.1114   15.5247   60.1125 H   0  0  0  0  0  0
   12.8881   15.0444   63.1158 H   0  0  0  0  0  0
   11.8321   11.9585   59.7060 H   0  0  0  0  0  0
   11.5281   13.4516   60.5302 H   0  0  0  0  0  0
   11.9561   14.0667   57.9848 H   0  0  0  0  0  0
  1  9  2  0  0  0
  1  6  1  0  0  0
  1 11  1  0  0  0
  2  3  2  0  0  0
  2  6  1  0  0  0
  3  4  1  0  0  0
  3 20  1  0  0  0
  4  5  1  0  0  0
  4 21  1  0  0  0
  5 10  2  0  0  0
  5  7  1  0  0  0
  6  7  2  0  0  0
  7  8  1  0  0  0
  8  9  1  0  0  0
  8 22  1  0  0  0
  9 23  1  0  0  0
 11 15  1  0  0  0
 11 12  1  0  0  0
 11 18  1  0  0  0
 12 13  1  0  0  0
 12 16  1  0  0  0
 12 24  1  0  0  0
 13 14  1  0  0  0
 13 17  1  0  0  0
 13 25  1  0  0  0
 14 15  1  0  0  0
 14 26  1  0  0  0
 14 27  1  0  0  0
 15 28  1  0  0  0
 16 29  1  0  0  0
 17 30  1  0  0  0
 18 19  1  0  0  0
 18 31  1  0  0  0
 18 32  1  0  0  0
 19 33  1  0  0  0
M  END
> <s_m_entry_id>
11883

> <s_m_entry_name>
dock_pv.86

> <s_m_Source_Path>
/home/csk/Desktop/cluster/DUD-E-result/pnph

> <s_m_Source_File>
dock_pv.maegz

> <i_m_Source_File_Index>
86

> <chembl_id>
CHEMBL565199

> <chembl_pref_name>
None

> <i_lp_mmshare_version>
53161

> <r_lp_tautomer_probability>
1

> <s_lp_Force_Field>
OPLS_2005

> <r_lp_Energy>
56.026344

> <b_lp_Chiralities_Consistent>
1

> <s_lp_Variant>
CHEMBL4338_lig81-1

> <s_i_glide_gridfile>
glide-grid_3bgs

> <i_i_glide_lignum>
100

> <i_i_glide_rotatable_bonds>
5

> <r_i_docking_score>
-7.75763912875249

> <r_i_glide_ligand_efficiency>
-0.408296796250131

> <r_i_glide_ligand_efficiency_sa>
-1.08949984321242

> <r_i_glide_ligand_efficiency_ln>
-1.96672813794977

> <r_i_glide_gscore>
-7.75763912875249

> <r_i_glide_lipo>
-2.00595043547757

> <r_i_glide_hbond>
-0.32

> <r_i_glide_metal>
0

> <r_i_glide_rewards>
-1.85907475201848

> <r_i_glide_evdw>
-26.2944011688232

> <r_i_glide_ecoul>
-17.3975372314453

> <r_i_glide_erotb>
0.351736701901527

> <r_i_glide_esite>
0

> <r_i_glide_emodel>
-62.2000752574424

> <r_i_glide_energy>
-43.6919384002686

> <r_i_glide_einternal>
5.37198448181152

> <i_i_glide_confnum>
39

> <i_i_glide_posenum>
323

> <r_i_glide_eff_state_penalty>
0

> <s_user_duplicate_titles>
CHEMBL4338_lig81

> <i_f3d_flags>
0

> <s_m_subgroup_title>
dock_pv

> <s_m_subgroupid>
dock_pv

> <b_m_subgroup_collapsed>
1

$$$$
CHEMBL4338_lig151
                    3D
 Schrodinger Suite 2021-1.
 32 33  0  0  1  0            999 V2000
   14.3294   12.2649   57.6516 N   0  0  0  0  0  0
   14.4664   13.0399   58.8671 C   0  0  2  0  0  0
   13.7540   10.7018   56.3830 C   0  0  0  0  0  0
   14.5798   11.4330   55.6361 N   0  0  0  0  0  0
   13.5511   11.1770   57.6011 N   0  0  0  0  0  0
   14.9247   12.4069   56.4303 C   0  0  0  0  0  0
   14.9155   12.2128   60.0665 C   0  0  2  0  0  0
   13.2456   13.6352   59.1885 O   0  0  0  0  0  0
   14.1813   12.9016   61.2086 C   0  0  1  0  0  0
   12.9986   13.6631   60.5871 C   0  0  1  0  0  0
   13.1199    9.4556   55.9081 C   0  0  0  0  0  0
   12.0881    9.0330   56.4919 N   0  0  0  0  0  0
   15.7540   13.4330   56.1060 N   0  0  0  0  0  0
   16.3297   12.2169   60.1787 O   0  0  0  0  0  0
   13.7821    8.8698   54.8593 N   0  0  0  0  0  0
   13.7540   11.9049   62.1060 O   0  0  0  0  0  0
   12.8626   15.1246   61.0732 C   0  0  0  0  0  0
   11.7540   15.7996   60.5060 O   0  0  0  0  0  0
   15.1750   13.8426   58.6622 H   0  0  0  0  0  0
   14.5520   11.1881   59.9499 H   0  0  0  0  0  0
   14.8591   13.6007   61.7036 H   0  0  0  0  0  0
   12.0695   13.1212   60.7757 H   0  0  0  0  0  0
   11.7815    8.1453   56.0972 H   0  0  0  0  0  0
   15.9953   13.6013   55.1373 H   0  0  0  0  0  0
   16.0261   14.1299   56.7817 H   0  0  0  0  0  0
   16.5825   11.5388   60.8131 H   0  0  0  0  0  0
   13.4798    7.9655   54.5060 H   0  0  0  0  0  0
   14.6145    9.2941   54.4818 H   0  0  0  0  0  0
   13.7540   12.2330   63.0165 H   0  0  0  0  0  0
   12.7567   15.1484   62.1564 H   0  0  0  0  0  0
   13.7685   15.6844   60.8367 H   0  0  0  0  0  0
   10.9296   15.4330   60.8512 H   0  0  0  0  0  0
  1  2  1  0  0  0
  1  5  1  0  0  0
  1  6  1  0  0  0
  2  7  1  0  0  0
  2  8  1  0  0  0
  2 19  1  0  0  0
  3  4  1  0  0  0
  3  5  2  0  0  0
  3 11  1  0  0  0
  4  6  2  0  0  0
  6 13  1  0  0  0
  7  9  1  0  0  0
  7 14  1  0  0  0
  7 20  1  0  0  0
  8 10  1  0  0  0
  9 10  1  0  0  0
  9 16  1  0  0  0
  9 21  1  0  0  0
 10 17  1  0  0  0
 10 22  1  0  0  0
 11 12  2  0  0  0
 11 15  1  0  0  0
 12 23  1  0  0  0
 13 24  1  0  0  0
 13 25  1  0  0  0
 14 26  1  0  0  0
 15 27  1  0  0  0
 15 28  1  0  0  0
 16 29  1  0  0  0
 17 18  1  0  0  0
 17 30  1  0  0  0
 17 31  1  0  0  0
 18 32  1  0  0  0
M  END
> <s_m_entry_id>
11884

> <s_m_entry_name>
dock_pv.87

> <s_m_Source_Path>
/home/csk/Desktop/cluster/DUD-E-result/pnph

> <s_m_Source_File>
dock_pv.maegz

> <i_m_Source_File_Index>
87

> <chembl_id>
CHEMBL552896

> <chembl_pref_name>
None

> <i_lp_mmshare_version>
53161

> <r_lp_tautomer_probability>
1

> <s_lp_Force_Field>
OPLS_2005

> <r_lp_Energy>
29.549862

> <b_lp_Chiralities_Consistent>
1

> <s_lp_Variant>
CHEMBL4338_lig151-7

> <s_i_glide_gridfile>
glide-grid_3bgs

> <i_i_glide_lignum>
203

> <i_i_glide_rotatable_bonds>
6

> <r_i_docking_score>
-7.75724721568444

> <r_i_glide_ligand_efficiency>
-0.430958178649136

> <r_i_glide_ligand_efficiency_sa>
-1.12942993687051

> <r_i_glide_ligand_efficiency_ln>
-1.99396039721392

> <r_i_glide_gscore>
-7.75724721568444

> <r_i_glide_lipo>
-0.698738619644252

> <r_i_glide_hbond>
-0.531092471692784

> <r_i_glide_metal>
0

> <r_i_glide_rewards>
-3.44840072727273

> <r_i_glide_evdw>
-32.8306503295898

> <r_i_glide_ecoul>
-12.6030855178833

> <r_i_glide_erotb>
0.529680804525953

> <r_i_glide_esite>
-0.0767008574386465

> <r_i_glide_emodel>
-64.3907176352283

> <r_i_glide_energy>
-45.4337358474731

> <r_i_glide_einternal>
4.34498882293701

> <i_i_glide_confnum>
10

> <i_i_glide_posenum>
284

> <r_i_glide_eff_state_penalty>
0

> <s_user_duplicate_titles>
CHEMBL4338_lig151

> <i_f3d_flags>
0

> <s_m_subgroup_title>
dock_pv

> <s_m_subgroupid>
dock_pv

> <b_m_subgroup_collapsed>
1

$$$$
CHEMBL4338_lig151
                    3D
 Schrodinger Suite 2021-1.
 32 33  0  0  1  0            999 V2000
   14.3717   11.9018   57.7779 N   0  0  0  0  0  0
   14.2823   12.5259   59.0884 C   0  0  2  0  0  0
   14.0321   10.5328   56.2213 C   0  0  0  0  0  0
   14.8185   11.4516   55.6722 N   0  0  0  0  0  0
   13.7183   10.7676   57.4892 N   0  0  0  0  0  0
   15.0152   12.3015   56.6350 C   0  0  0  0  0  0
   14.4259   11.5925   60.2892 C   0  0  2  0  0  0
   13.0388   13.1376   59.2304 O   0  0  0  0  0  0
   13.7418   12.4444   61.3687 C   0  0  2  0  0  0
   12.6291   13.1900   60.5959 C   0  0  1  0  0  0
   13.5969    9.3306   55.4784 C   0  0  0  0  0  0
   14.1534    9.0330   54.3869 N   0  0  0  0  0  0
   15.7540   13.4330   56.5055 N   0  0  0  0  0  0
   15.7976   11.2740   60.4712 O   0  0  0  0  0  0
   12.5974    8.6331   56.1060 N   0  0  0  0  0  0
   14.6262   13.2780   62.1059 O   0  0  0  0  0  0
   12.3816   14.6653   60.9840 C   0  0  0  0  0  0
   11.3540   15.2438   60.2020 O   0  0  0  0  0  0
   15.0467   13.3050   59.1180 H   0  0  0  0  0  0
   13.8350   10.6920   60.1147 H   0  0  0  0  0  0
   13.2826   11.7787   62.0986 H   0  0  0  0  0  0
   11.6979   12.6336   60.6943 H   0  0  0  0  0  0
   13.7878    8.1560   54.0266 H   0  0  0  0  0  0
   16.0199   13.7363   55.5797 H   0  0  0  0  0  0
   15.8983   14.0769   57.2678 H   0  0  0  0  0  0
   15.8890   10.6681   61.2124 H   0  0  0  0  0  0
   12.2677    7.7343   55.7234 H   0  0  0  0  0  0
   12.1973    8.9698   56.9654 H   0  0  0  0  0  0
   14.5611   13.0328   63.0339 H   0  0  0  0  0  0
   12.1188   14.7534   62.0371 H   0  0  0  0  0  0
   13.2922   15.2481   60.8389 H   0  0  0  0  0  0
   10.4814   15.0335   60.5684 H   0  0  0  0  0  0
  1  2  1  0  0  0
  1  5  1  0  0  0
  1  6  1  0  0  0
  2  7  1  0  0  0
  2  8  1  0  0  0
  2 19  1  0  0  0
  3  4  1  0  0  0
  3  5  2  0  0  0
  3 11  1  0  0  0
  4  6  2  0  0  0
  6 13  1  0  0  0
  7  9  1  0  0  0
  7 14  1  0  0  0
  7 20  1  0  0  0
  8 10  1  0  0  0
  9 10  1  0  0  0
  9 16  1  0  0  0
  9 21  1  0  0  0
 10 17  1  0  0  0
 10 22  1  0  0  0
 11 12  2  0  0  0
 11 15  1  0  0  0
 12 23  1  0  0  0
 13 24  1  0  0  0
 13 25  1  0  0  0
 14 26  1  0  0  0
 15 27  1  0  0  0
 15 28  1  0  0  0
 16 29  1  0  0  0
 17 18  1  0  0  0
 17 30  1  0  0  0
 17 31  1  0  0  0
 18 32  1  0  0  0
M  END
> <s_m_entry_id>
11885

> <s_m_entry_name>
dock_pv.88

> <s_m_Source_Path>
/home/csk/Desktop/cluster/DUD-E-result/pnph

> <s_m_Source_File>
dock_pv.maegz

> <i_m_Source_File_Index>
88

> <chembl_id>
CHEMBL552896

> <chembl_pref_name>
None

> <i_lp_mmshare_version>
53161

> <r_lp_tautomer_probability>
1

> <s_lp_Force_Field>
OPLS_2005

> <r_lp_Energy>
37.049826

> <b_lp_Chiralities_Consistent>
1

> <s_lp_Variant>
CHEMBL4338_lig151-5

> <s_i_glide_gridfile>
glide-grid_3bgs

> <i_i_glide_lignum>
201

> <i_i_glide_rotatable_bonds>
6

> <r_i_docking_score>
-7.73785651463492

> <r_i_glide_ligand_efficiency>
-0.429880917479718

> <r_i_glide_ligand_efficiency_sa>
-1.12660671393416

> <r_i_glide_ligand_efficiency_ln>
-1.98897611749562

> <r_i_glide_gscore>
-7.73785651463492

> <r_i_glide_lipo>
-0.862148561140158

> <r_i_glide_hbond>
-0.375065098356291

> <r_i_glide_metal>
0

> <r_i_glide_rewards>
-3.36378117728833

> <r_i_glide_evdw>
-31.4204521179199

> <r_i_glide_ecoul>
-13.3034658432007

> <r_i_glide_erotb>
0.529680804525953

> <r_i_glide_esite>
-0.1

> <r_i_glide_emodel>
-65.2674179530558

> <r_i_glide_energy>
-44.7239179611206

> <r_i_glide_einternal>
2.30042815208435

> <i_i_glide_confnum>
14

> <i_i_glide_posenum>
235

> <r_i_glide_eff_state_penalty>
0

> <s_user_duplicate_titles>
CHEMBL4338_lig151

> <i_f3d_flags>
0

> <s_m_subgroup_title>
dock_pv

> <s_m_subgroupid>
dock_pv

> <b_m_subgroup_collapsed>
1

$$$$
CHEMBL4338_lig145
                    3D
 Schrodinger Suite 2021-1.
 41 43  0  0  1  0            999 V2000
   15.6359   15.3580   63.2556 C   0  0  0  0  0  0
   16.9039   15.8658   63.1540 C   0  0  0  0  0  0
   14.5540   15.9416   63.8507 N   0  0  0  0  0  0
   15.6862   14.1438   62.6300 N   0  0  0  0  0  0
   16.0698   17.6848   64.2845 N   0  0  0  0  0  0
   17.7189   15.0330   62.4876 N   0  0  0  0  0  0
   17.2000   17.1746   63.7060 C   0  0  0  0  0  0
   14.8180   17.1044   64.3404 C   0  0  0  0  0  0
   16.9540   14.0064   62.1922 C   0  0  0  0  0  0
   14.6345    9.6447   54.9035 P   0  0  0  0  0  0
   14.6076   13.1469   62.5060 C   0  0  0  0  0  0
   18.2470   17.8156   63.6534 O   0  0  0  0  0  0
   15.7540   10.6197   54.9060 O   0  0  0  0  0  0
   13.8439    9.2150   56.5060 C   0  0  0  0  0  0
   13.8602   17.8330   64.9060 N   0  0  0  0  0  0
   14.9485    8.2330   54.1670 O   0  0  0  0  0  0
   13.3540   10.1661   54.1060 O   0  0  0  0  0  0
   14.2859   12.7444   61.0788 C   0  0  0  0  0  0
   12.9540   10.2603   56.8925 O   0  0  0  0  0  0
   13.6987   11.9760   58.4717 C   0  0  0  0  0  0
   13.2413   13.3659   60.3942 C   0  0  0  0  0  0
   15.0317   11.7367   60.4638 C   0  0  0  0  0  0
   14.7421   11.3565   59.1599 C   0  0  0  0  0  0
   12.9479   12.9809   59.0894 C   0  0  0  0  0  0
   13.4286   11.6083   57.0248 C   0  0  0  0  0  0
   17.2682   13.1153   61.6670 H   0  0  0  0  0  0
   14.9542   12.2743   63.0502 H   0  0  0  0  0  0
   13.7359   13.5402   63.0283 H   0  0  0  0  0  0
   16.1825   18.6013   64.6869 H   0  0  0  0  0  0
   14.5540    9.0190   57.2986 H   0  0  0  0  0  0
   13.2687    8.2996   56.3648 H   0  0  0  0  0  0
   12.9572   17.4089   65.0388 H   0  0  0  0  0  0
   13.9371   18.8395   64.9439 H   0  0  0  0  0  0
   14.2128    7.5759   54.1060 H   0  0  0  0  0  0
   12.5478   10.3653   54.6294 H   0  0  0  0  0  0
   12.6633   14.1458   60.8693 H   0  0  0  0  0  0
   15.8398   11.2487   60.9892 H   0  0  0  0  0  0
   15.3431   10.5950   58.6870 H   0  0  0  0  0  0
   12.1540   13.4818   58.5545 H   0  0  0  0  0  0
   12.6528   12.2634   56.6281 H   0  0  0  0  0  0
   14.3165   11.8483   56.4474 H   0  0  0  0  0  0
  1  4  1  0  0  0
  1  3  1  0  0  0
  1  2  2  0  0  0
  2  7  1  0  0  0
  2  6  1  0  0  0
  3  8  2  0  0  0
  4  9  1  0  0  0
  4 11  1  0  0  0
  5  8  1  0  0  0
  5 29  1  0  0  0
  5  7  1  0  0  0
  6  9  2  0  0  0
  7 12  2  0  0  0
  8 15  1  0  0  0
  9 26  1  0  0  0
 10 14  1  0  0  0
 10 13  2  0  0  0
 10 16  1  0  0  0
 10 17  1  0  0  0
 11 18  1  0  0  0
 11 27  1  0  0  0
 11 28  1  0  0  0
 14 19  1  0  0  0
 14 30  1  0  0  0
 14 31  1  0  0  0
 15 32  1  0  0  0
 15 33  1  0  0  0
 16 34  1  0  0  0
 17 35  1  0  0  0
 18 21  2  0  0  0
 18 22  1  0  0  0
 19 25  1  0  0  0
 20 23  1  0  0  0
 20 25  1  0  0  0
 20 24  2  0  0  0
 21 24  1  0  0  0
 21 36  1  0  0  0
 22 23  2  0  0  0
 22 37  1  0  0  0
 23 38  1  0  0  0
 24 39  1  0  0  0
 25 40  1  0  0  0
 25 41  1  0  0  0
M  END
> <s_m_entry_id>
11886

> <s_m_entry_name>
dock_pv.89

> <s_m_Source_Path>
/home/csk/Desktop/cluster/DUD-E-result/pnph

> <s_m_Source_File>
dock_pv.maegz

> <i_m_Source_File_Index>
89

> <chembl_id>
CHEMBL117588

> <chembl_pref_name>
None

> <i_lp_mmshare_version>
53161

> <r_lp_tautomer_probability>
0.999940409345307

> <s_lp_Force_Field>
OPLS_2005

> <r_lp_Energy>
8.053272

> <b_lp_Chiralities_Consistent>
1

> <s_lp_Variant>
CHEMBL4338_lig145-1

> <s_i_glide_gridfile>
glide-grid_3bgs

> <i_i_glide_lignum>
190

> <i_i_glide_rotatable_bonds>
8

> <r_i_docking_score>
-7.73148514547703

> <r_i_glide_ligand_efficiency>
-0.309259405819081

> <r_i_glide_ligand_efficiency_sa>
-0.904279987353909

> <r_i_glide_ligand_efficiency_ln>
-1.83259367339131

> <r_i_glide_gscore>
-7.73148514547703

> <r_i_glide_lipo>
-1.82181981891219

> <r_i_glide_hbond>
-0.660553786029592

> <r_i_glide_metal>
0

> <r_i_glide_rewards>
-1.74169415679779

> <r_i_glide_evdw>
-30.4051914215088

> <r_i_glide_ecoul>
-19.0138359069824

> <r_i_glide_erotb>
0.864917573385342

> <r_i_glide_esite>
0

> <r_i_glide_emodel>
-68.6181663787868

> <r_i_glide_energy>
-49.4190273284912

> <r_i_glide_einternal>
5.22958087921143

> <i_i_glide_confnum>
58

> <i_i_glide_posenum>
169

> <r_i_glide_eff_state_penalty>
0

> <s_user_duplicate_titles>
CHEMBL4338_lig145

> <i_f3d_flags>
0

> <s_m_subgroup_title>
dock_pv

> <s_m_subgroupid>
dock_pv

> <b_m_subgroup_collapsed>
1

$$$$
CHEMBL4338_lig128
                    3D
 Schrodinger Suite 2021-1.
 33 35  0  0  1  0            999 V2000
   14.5233   13.5893   61.2053 C   0  0  0  0  0  0
   13.9625   12.7883   59.1020 C   0  0  0  0  0  0
   14.6306   12.4695   60.3168 C   0  0  0  0  0  0
   13.7884   14.5410   60.4991 C   0  0  0  0  0  0
   13.4506   14.0567   59.2646 N   0  0  0  0  0  0
   15.1475   13.6742   62.5910 C   0  0  2  0  0  0
   14.5541   14.7843   63.3120 N   0  0  2  0  0  0
   16.6698   13.9317   62.6007 C   0  0  2  0  0  0
   13.9538   11.8592   58.0552 C   0  0  0  0  0  0
   16.8616   14.6415   63.9566 C   0  0  2  0  0  0
   15.5120   15.3474   64.2547 C   0  0  1  0  0  0
   15.2435   11.2952   60.4908 N   0  0  0  0  0  0
   14.5537   10.6609   58.2562 N   0  0  0  0  0  0
   15.1701   10.4410   59.4418 C   0  0  0  0  0  0
   13.4179   15.7583   60.8265 F   0  0  0  0  0  0
   13.3532   12.2332   56.8899 O   0  0  0  0  0  0
   17.1464   14.6581   61.4759 O   0  0  0  0  0  0
   18.0458   15.4245   64.0526 O   0  0  0  0  0  0
   15.5169   16.8918   64.1638 C   0  0  0  0  0  0
   14.2508   17.4330   64.5066 O   0  0  0  0  0  0
   12.9326   14.6137   58.5974 H   0  0  0  0  0  0
   14.9183   12.7462   63.1169 H   0  0  0  0  0  0
   13.6068   14.6318   63.6499 H   0  0  0  0  0  0
   17.1869   12.9716   62.6075 H   0  0  0  0  0  0
   16.9645   13.8511   64.7036 H   0  0  0  0  0  0
   15.2038   15.0774   65.2664 H   0  0  0  0  0  0
   15.6434    9.4775   59.5718 H   0  0  0  0  0  0
   13.0427   13.1422   56.9052 H   0  0  0  0  0  0
   16.7410   15.5291   61.4901 H   0  0  0  0  0  0
   18.2290   15.5974   64.9798 H   0  0  0  0  0  0
   15.7989   17.2146   63.1613 H   0  0  0  0  0  0
   16.2606   17.3129   64.8410 H   0  0  0  0  0  0
   14.1540   18.2921   64.0738 H   0  0  0  0  0  0
  1  3  1  0  0  0
  1  4  2  0  0  0
  1  6  1  0  0  0
  2  3  1  0  0  0
  2  5  1  0  0  0
  2  9  2  0  0  0
  3 12  2  0  0  0
  4  5  1  0  0  0
  4 15  1  0  0  0
  5 21  1  0  0  0
  6  7  1  0  0  0
  6  8  1  0  0  0
  6 22  1  0  0  0
  7 11  1  0  0  0
  7 23  1  0  0  0
  8 10  1  0  0  0
  8 17  1  0  0  0
  8 24  1  0  0  0
  9 13  1  0  0  0
  9 16  1  0  0  0
 10 11  1  0  0  0
 10 18  1  0  0  0
 10 25  1  0  0  0
 11 19  1  0  0  0
 11 26  1  0  0  0
 12 14  1  0  0  0
 13 14  2  0  0  0
 14 27  1  0  0  0
 16 28  1  0  0  0
 17 29  1  0  0  0
 18 30  1  0  0  0
 19 20  1  0  0  0
 19 31  1  0  0  0
 19 32  1  0  0  0
 20 33  1  0  0  0
M  END
> <s_m_entry_id>
11887

> <s_m_entry_name>
dock_pv.90

> <s_m_Source_Path>
/home/csk/Desktop/cluster/DUD-E-result/pnph

> <s_m_Source_File>
dock_pv.maegz

> <i_m_Source_File_Index>
90

> <chembl_id>
CHEMBL542455

> <chembl_pref_name>
None

> <i_lp_mmshare_version>
53161

> <r_lp_tautomer_probability>
1

> <s_lp_Force_Field>
OPLS_2005

> <r_lp_Energy>
46.550118

> <b_lp_Chiralities_Consistent>
1

> <s_lp_Variant>
CHEMBL4338_lig128-1

> <s_i_glide_gridfile>
glide-grid_3bgs

> <i_i_glide_lignum>
164

> <i_i_glide_rotatable_bonds>
6

> <r_i_docking_score>
-7.72956875141411

> <r_i_glide_ligand_efficiency>
-0.386478437570705

> <r_i_glide_ligand_efficiency_sa>
-1.04906387832843

> <r_i_glide_ligand_efficiency_ln>
-1.93445612023927

> <r_i_glide_gscore>
-7.72956875141411

> <r_i_glide_lipo>
-1.7000156449303

> <r_i_glide_hbond>
-1.19095156182289

> <r_i_glide_metal>
0

> <r_i_glide_rewards>
-2.07896585349085

> <r_i_glide_evdw>
-29.866283416748

> <r_i_glide_ecoul>
-11.4330797195435

> <r_i_glide_erotb>
0.448640437598855

> <r_i_glide_esite>
0

> <r_i_glide_emodel>
-58.7837589773497

> <r_i_glide_energy>
-41.2993631362915

> <r_i_glide_einternal>
2.78704738616943

> <i_i_glide_confnum>
13

> <i_i_glide_posenum>
29

> <r_i_glide_eff_state_penalty>
0

> <s_user_duplicate_titles>
CHEMBL4338_lig128,546704

> <i_f3d_flags>
0

> <s_m_subgroup_title>
dock_pv

> <s_m_subgroupid>
dock_pv

> <b_m_subgroup_collapsed>
1

$$$$
CHEMBL4338_lig126
                    3D
 Schrodinger Suite 2021-1.
 36 38  0  0  1  0            999 V2000
   14.2055   11.2104   57.7472 C   0  0  0  0  0  0
   14.7955   12.4523   58.1345 C   0  0  0  0  0  0
   14.6571   12.5946   59.5617 C   0  0  0  0  0  0
   14.0949   14.8209   60.6392 N   0  0  2  0  0  0
   13.7540   10.6330   58.9060 N   0  0  0  0  0  0
   12.6693   14.4979   60.8670 C   0  0  1  0  0  0
   14.2003   10.8235   56.3995 C   0  0  0  0  0  0
   12.0954   15.7332   61.6431 C   0  0  1  0  0  0
   14.0406   11.4332   59.9774 C   0  0  0  0  0  0
   15.0790   13.7343   60.4540 C   0  0  0  0  0  0
   15.3540   13.2633   57.2321 N   0  0  0  0  0  0
   13.3090   16.4594   62.2391 C   0  0  2  0  0  0
   14.8153   11.6382   55.5122 N   0  0  0  0  0  0
   14.4667   15.5454   61.8483 C   0  0  0  0  0  0
   15.3485   12.7953   55.9613 C   0  0  0  0  0  0
   13.6056    9.6402   56.0594 O   0  0  0  0  0  0
   11.3540   16.6110   60.8219 O   0  0  0  0  0  0
   13.3540   16.6330   63.6409 O   0  0  0  0  0  0
   11.9087   14.2075   59.5354 C   0  0  0  0  0  0
   10.5540   13.8330   59.7151 O   0  0  0  0  0  0
   13.3015    9.7361   59.0254 H   0  0  0  0  0  0
   12.6232   13.6170   61.5111 H   0  0  0  0  0  0
   11.4083   15.4330   62.4260 H   0  0  0  0  0  0
   13.7584   11.1143   60.9716 H   0  0  0  0  0  0
   15.9996   14.1810   60.0742 H   0  0  0  0  0  0
   15.3547   13.3021   61.4183 H   0  0  0  0  0  0
   13.3540   17.4422   61.7754 H   0  0  0  0  0  0
   15.4469   16.0190   61.7946 H   0  0  0  0  0  0
   14.6157   14.8033   62.6381 H   0  0  0  0  0  0
   15.7540   13.4330   55.2012 H   0  0  0  0  0  0
   13.1963    9.1733   56.7870 H   0  0  0  0  0  0
   10.4181   16.3780   60.9060 H   0  0  0  0  0  0
   13.0341   15.8168   64.0402 H   0  0  0  0  0  0
   12.3487   13.3983   58.9639 H   0  0  0  0  0  0
   11.9435   15.0901   58.9060 H   0  0  0  0  0  0
   10.0502   14.5603   60.1071 H   0  0  0  0  0  0
  1  2  1  0  0  0
  1  5  1  0  0  0
  1  7  2  0  0  0
  2  3  1  0  0  0
  2 11  2  0  0  0
  3  9  2  0  0  0
  3 10  1  0  0  0
  4  6  1  0  0  0
  4 10  1  0  0  0
  4 14  1  0  0  0
  5  9  1  0  0  0
  5 21  1  0  0  0
  6  8  1  0  0  0
  6 19  1  0  0  0
  6 22  1  0  0  0
  7 13  1  0  0  0
  7 16  1  0  0  0
  8 12  1  0  0  0
  8 17  1  0  0  0
  8 23  1  0  0  0
  9 24  1  0  0  0
 10 25  1  0  0  0
 10 26  1  0  0  0
 11 15  1  0  0  0
 12 14  1  0  0  0
 12 18  1  0  0  0
 12 27  1  0  0  0
 13 15  2  0  0  0
 14 28  1  0  0  0
 14 29  1  0  0  0
 15 30  1  0  0  0
 16 31  1  0  0  0
 17 32  1  0  0  0
 18 33  1  0  0  0
 19 20  1  0  0  0
 19 34  1  0  0  0
 19 35  1  0  0  0
 20 36  1  0  0  0
M  END
> <s_m_entry_id>
11888

> <s_m_entry_name>
dock_pv.91

> <s_m_Source_Path>
/home/csk/Desktop/cluster/DUD-E-result/pnph

> <s_m_Source_File>
dock_pv.maegz

> <i_m_Source_File_Index>
91

> <chembl_id>
CHEMBL543401

> <chembl_pref_name>
None

> <i_lp_mmshare_version>
53161

> <r_lp_tautomer_probability>
1

> <s_lp_Force_Field>
OPLS_2005

> <r_lp_Energy>
53.372191

> <b_lp_Chiralities_Consistent>
1

> <s_lp_Variant>
CHEMBL4338_lig126-1

> <s_i_glide_gridfile>
glide-grid_3bgs

> <i_i_glide_lignum>
160

> <i_i_glide_rotatable_bonds>
7

> <r_i_docking_score>
-7.72067845251132

> <r_i_glide_ligand_efficiency>
-0.386033922625566

> <r_i_glide_ligand_efficiency_sa>
-1.04785727913171

> <r_i_glide_ligand_efficiency_ln>
-1.93223117164559

> <r_i_glide_gscore>
-7.72067845251132

> <r_i_glide_lipo>
-2.13166281534002

> <r_i_glide_hbond>
0

> <r_i_glide_metal>
0

> <r_i_glide_rewards>
-1.998092

> <r_i_glide_evdw>
-26.6140155792236

> <r_i_glide_ecoul>
-19.6654319763184

> <r_i_glide_erotb>
0.689591938237633

> <r_i_glide_esite>
0

> <r_i_glide_emodel>
-59.9877160242822

> <r_i_glide_energy>
-46.279447555542

> <r_i_glide_einternal>
8.94890117645264

> <i_i_glide_confnum>
18

> <i_i_glide_posenum>
327

> <r_i_glide_eff_state_penalty>
0

> <s_user_duplicate_titles>
CHEMBL4338_lig126,546723

> <i_f3d_flags>
0

> <s_m_subgroup_title>
dock_pv

> <s_m_subgroupid>
dock_pv

> <b_m_subgroup_collapsed>
1

$$$$
CHEMBL4338_lig193
                    3D
 Schrodinger Suite 2021-1.
 35 36  0  0  1  0            999 V2000
   14.9212   10.6320   54.9070 O   0  0  0  0  0  0
   13.8330   10.9720   55.7563 C   0  0  0  0  0  0
   14.1140   12.2353   56.6121 C   0  0  1  0  0  0
   12.9455   12.6330   57.3059 O   0  0  0  0  0  0
   15.2407   12.0537   57.6470 C   0  0  2  0  0  0
   16.4364   11.8331   56.9316 O   0  0  0  0  0  0
   14.9603   10.9047   58.6566 C   0  0  0  0  0  0
   15.9414   10.8692   59.7397 N   0  0  1  0  0  0
   15.4661   11.5009   60.9679 C   0  0  0  0  0  0
   15.1384   12.9616   60.8108 C   0  0  0  0  0  0
   16.0606   13.9938   60.6774 C   0  0  0  0  0  0
   15.3936   15.1720   60.5042 N   0  0  0  0  0  0
   14.0510   14.9292   60.5389 C   0  0  0  0  0  0
   12.9236   15.8329   60.3699 C   0  0  0  0  0  0
   12.9355   17.0326   60.1080 O   0  0  0  0  0  0
   11.7551   15.1360   60.5322 N   0  0  0  0  0  0
   11.6026   13.7842   60.7659 C   0  0  0  0  0  0
   12.6219   12.9994   60.8606 N   0  0  0  0  0  0
   13.8643   13.5634   60.7557 C   0  0  0  0  0  0
   14.6916    9.8270   54.4289 H   0  0  0  0  0  0
   12.9559   11.1365   55.1433 H   0  0  0  0  0  0
   13.5747   10.1167   56.3815 H   0  0  0  0  0  0
   14.3902   13.0522   55.9436 H   0  0  0  0  0  0
   12.8869   13.5994   57.2876 H   0  0  0  0  0  0
   15.3611   12.9987   58.1739 H   0  0  0  0  0  0
   16.2197   11.2628   56.1816 H   0  0  0  0  0  0
   13.9529   10.9985   59.0687 H   0  0  0  0  0  0
   14.9540    9.9446   58.1421 H   0  0  0  0  0  0
   16.2219    9.9157   59.9270 H   0  0  0  0  0  0
   14.6093   10.9471   61.3543 H   0  0  0  0  0  0
   16.2627   11.4331   61.7059 H   0  0  0  0  0  0
   17.1399   13.9712   60.6552 H   0  0  0  0  0  0
   15.8310   16.0750   60.3539 H   0  0  0  0  0  0
   10.9113   15.6903   60.4877 H   0  0  0  0  0  0
   10.5879   13.4104   60.8705 H   0  0  0  0  0  0
  1  2  1  0  0  0
  1 20  1  0  0  0
  2  3  1  0  0  0
  2 21  1  0  0  0
  2 22  1  0  0  0
  3  4  1  0  0  0
  3  5  1  0  0  0
  3 23  1  0  0  0
  4 24  1  0  0  0
  5  6  1  0  0  0
  5  7  1  0  0  0
  5 25  1  0  0  0
  6 26  1  0  0  0
  7  8  1  0  0  0
  7 27  1  0  0  0
  7 28  1  0  0  0
  8  9  1  0  0  0
  8 29  1  0  0  0
  9 10  1  0  0  0
  9 30  1  0  0  0
  9 31  1  0  0  0
 10 11  2  0  0  0
 10 19  1  0  0  0
 11 12  1  0  0  0
 11 32  1  0  0  0
 12 13  1  0  0  0
 12 33  1  0  0  0
 13 14  1  0  0  0
 13 19  2  0  0  0
 14 15  2  0  0  0
 14 16  1  0  0  0
 16 17  1  0  0  0
 16 34  1  0  0  0
 17 18  2  0  0  0
 17 35  1  0  0  0
 18 19  1  0  0  0
M  END
> <s_m_entry_id>
11889

> <s_m_entry_name>
dock_pv.92

> <s_m_Source_Path>
/home/csk/Desktop/cluster/DUD-E-result/pnph

> <s_m_Source_File>
dock_pv.maegz

> <i_m_Source_File_Index>
92

> <chembl_id>
CHEMBL523794

> <chembl_pref_name>
None

> <i_lp_mmshare_version>
53161

> <r_lp_tautomer_probability>
1

> <s_lp_Force_Field>
OPLS_2005

> <r_lp_Energy>
39.031741

> <b_lp_Chiralities_Consistent>
1

> <s_lp_Variant>
CHEMBL4338_lig193-2

> <s_i_glide_gridfile>
glide-grid_3bgs

> <i_i_glide_lignum>
258

> <i_i_glide_rotatable_bonds>
9

> <r_i_docking_score>
-7.71040217650552

> <r_i_glide_ligand_efficiency>
-0.405810640868712

> <r_i_glide_ligand_efficiency_sa>
-1.08286578210017

> <r_i_glide_ligand_efficiency_ln>
-1.95475255599845

> <r_i_glide_gscore>
-7.71040217650552

> <r_i_glide_lipo>
-2.32337558647096

> <r_i_glide_hbond>
-1.06587779609792

> <r_i_glide_metal>
0

> <r_i_glide_rewards>
-1.9456201248343

> <r_i_glide_evdw>
-30.9965496063232

> <r_i_glide_ecoul>
-13.7709293365479

> <r_i_glide_erotb>
1.239938211696

> <r_i_glide_esite>
0

> <r_i_glide_emodel>
-63.870548094912

> <r_i_glide_energy>
-44.7674789428711

> <r_i_glide_einternal>
5.25175714492798

> <i_i_glide_confnum>
317

> <i_i_glide_posenum>
102

> <r_i_glide_eff_state_penalty>
0

> <s_user_duplicate_titles>
CHEMBL4338_lig193,455023

> <i_f3d_flags>
0

> <s_m_subgroup_title>
dock_pv

> <s_m_subgroupid>
dock_pv

> <b_m_subgroup_collapsed>
1

$$$$
CHEMBL4338_lig131
                    3D
 Schrodinger Suite 2021-1.
 36 38  0  0  1  0            999 V2000
   13.7311   11.8421   58.1838 C   0  0  0  0  0  0
   14.4695   11.0564   56.2109 C   0  0  0  0  0  0
   13.5209   10.8339   57.2205 C   0  0  0  0  0  0
   15.2517   12.1249   56.5210 N   0  0  0  0  0  0
   12.9582   11.9954   59.4870 C   0  0  2  0  0  0
   14.8337   12.5437   57.6996 C   0  0  0  0  0  0
   12.3887   13.3348   59.5860 N   0  0  1  0  0  0
   13.7558   11.7050   60.7753 C   0  0  2  0  0  0
   14.4673   10.1549   55.1259 C   0  0  0  0  0  0
   13.7005   13.0069   61.5920 C   0  0  2  0  0  0
   12.4648   13.7254   60.9948 C   0  0  1  0  0  0
   12.6423    9.8330   57.1887 N   0  0  0  0  0  0
   13.5661    9.1576   55.1113 N   0  0  0  0  0  0
   12.6778    9.0332   56.1062 C   0  0  0  0  0  0
   15.3540   10.1979   54.1059 O   0  0  0  0  0  0
   15.0425   11.1276   60.6074 O   0  0  0  0  0  0
   14.8919   13.7820   61.5382 O   0  0  0  0  0  0
   15.5606   13.6598   58.3897 C   0  0  0  0  0  0
   12.4538   15.2596   61.2175 C   0  0  0  0  0  0
   11.3542   15.9080   60.6115 O   0  0  0  0  0  0
   12.1449   11.2808   59.4033 H   0  0  0  0  0  0
   12.9542   13.9735   59.0422 H   0  0  0  0  0  0
   13.1854   10.9619   61.3312 H   0  0  0  0  0  0
   13.4941   12.7744   62.6380 H   0  0  0  0  0  0
   11.5761   13.3113   61.4758 H   0  0  0  0  0  0
   13.5627    8.4678   54.3702 H   0  0  0  0  0  0
   11.9729    8.2330   56.1060 H   0  0  0  0  0  0
   15.2933    9.4356   53.5240 H   0  0  0  0  0  0
   15.5362   11.2250   61.4255 H   0  0  0  0  0  0
   15.2694   13.8193   62.4195 H   0  0  0  0  0  0
   14.8709   14.3222   58.9052 H   0  0  0  0  0  0
   16.2229   13.2642   59.1576 H   0  0  0  0  0  0
   16.1539   14.2514   57.6990 H   0  0  0  0  0  0
   13.3583   15.7142   60.8117 H   0  0  0  0  0  0
   12.4584   15.4858   62.2831 H   0  0  0  0  0  0
   10.5128   15.5194   60.9063 H   0  0  0  0  0  0
  1  3  2  0  0  0
  1  5  1  0  0  0
  1  6  1  0  0  0
  2  3  1  0  0  0
  2  9  2  0  0  0
  2  4  1  0  0  0
  3 12  1  0  0  0
  4  6  2  0  0  0
  5  7  1  0  0  0
  5  8  1  0  0  0
  5 21  1  0  0  0
  6 18  1  0  0  0
  7 11  1  0  0  0
  7 22  1  0  0  0
  8 10  1  0  0  0
  8 16  1  0  0  0
  8 23  1  0  0  0
  9 15  1  0  0  0
  9 13  1  0  0  0
 10 17  1  0  0  0
 10 11  1  0  0  0
 10 24  1  0  0  0
 11 19  1  0  0  0
 11 25  1  0  0  0
 12 14  2  0  0  0
 13 14  1  0  0  0
 13 26  1  0  0  0
 14 27  1  0  0  0
 15 28  1  0  0  0
 16 29  1  0  0  0
 17 30  1  0  0  0
 18 31  1  0  0  0
 18 32  1  0  0  0
 18 33  1  0  0  0
 19 20  1  0  0  0
 19 34  1  0  0  0
 19 35  1  0  0  0
 20 36  1  0  0  0
M  END
> <s_m_entry_id>
11890

> <s_m_entry_name>
dock_pv.93

> <s_m_Source_Path>
/home/csk/Desktop/cluster/DUD-E-result/pnph

> <s_m_Source_File>
dock_pv.maegz

> <i_m_Source_File_Index>
93

> <chembl_id>
CHEMBL114003

> <chembl_pref_name>
None

> <i_lp_mmshare_version>
53161

> <r_lp_tautomer_probability>
1

> <s_lp_Force_Field>
OPLS_2005

> <r_lp_Energy>
61.024844

> <b_lp_Chiralities_Consistent>
1

> <s_lp_Variant>
CHEMBL4338_lig131-1

> <s_i_glide_gridfile>
glide-grid_3bgs

> <i_i_glide_lignum>
168

> <i_i_glide_rotatable_bonds>
6

> <r_i_docking_score>
-7.71034802896554

> <r_i_glide_ligand_efficiency>
-0.385517401448277

> <r_i_glide_ligand_efficiency_sa>
-1.04645522495013

> <r_i_glide_ligand_efficiency_ln>
-1.92964580735225

> <r_i_glide_gscore>
-7.71034802896554

> <r_i_glide_lipo>
-2.4309827651877

> <r_i_glide_hbond>
-0.608

> <r_i_glide_metal>
0

> <r_i_glide_rewards>
-1.57590261133837

> <r_i_glide_evdw>
-23.0078506469727

> <r_i_glide_ecoul>
-15.596851348877

> <r_i_glide_erotb>
0.459727958825088

> <r_i_glide_esite>
-0.0652703765843824

> <r_i_glide_emodel>
-55.6562521063913

> <r_i_glide_energy>
-38.6047019958496

> <r_i_glide_einternal>
4.39575481414795

> <i_i_glide_confnum>
28

> <i_i_glide_posenum>
305

> <r_i_glide_eff_state_penalty>
0

> <s_user_duplicate_titles>
CHEMBL4338_lig131

> <i_f3d_flags>
0

> <s_m_subgroup_title>
dock_pv

> <s_m_subgroupid>
dock_pv

> <b_m_subgroup_collapsed>
1

$$$$
CHEMBL4338_lig122
                    3D
 Schrodinger Suite 2021-1.
 49 50  0  0  1  0            999 V2000
   14.2518   10.9997   56.6985 C   0  0  0  0  0  0
   14.8710   10.9043   55.4863 C   0  0  0  0  0  0
   13.2323   10.2332   57.1734 N   0  0  0  0  0  0
   13.4987    9.1082   55.1212 N   0  0  0  0  0  0
   15.7469   11.8999   55.3061 N   0  0  0  0  0  0
   14.5982    9.7607   54.6452 C   0  0  0  0  0  0
   12.8327    9.3708   56.2988 C   0  0  0  0  0  0
   14.9410   11.9757   57.3457 N   0  0  0  0  0  0
   12.7839   15.8603   61.3688 P   0  0  2  0  0  0
   15.7168   12.5634   56.4220 C   0  0  0  0  0  0
   14.4612   15.1686   61.0950 C   0  0  0  0  0  0
   15.5418   14.8474   62.5365 P   0  0  2  0  0  0
   15.2520    9.3321   53.7059 O   0  0  0  0  0  0
   12.3643   17.0326   60.5061 O   0  0  0  0  0  0
   15.0325   13.8925   63.5524 O   0  0  0  0  0  0
   11.7540    8.6330   56.5060 N   0  0  0  0  0  0
   12.9485   16.2336   63.0230 O   0  0  0  0  0  0
   11.7913   14.4499   61.2644 O   0  0  0  0  0  0
   15.7131   16.3450   63.1327 O   0  0  0  0  0  0
   14.9629   12.2763   58.7691 C   0  0  0  0  0  0
   17.2208   14.5022   61.8952 C   0  0  0  0  0  0
   10.9971   14.2656   60.1045 C   0  0  0  0  0  0
   16.1993   11.6176   59.4262 C   0  0  0  0  0  0
   17.1651   13.6839   60.5952 C   0  0  0  0  0  0
   16.5899   12.2596   60.7635 C   0  0  0  0  0  0
   11.7535   13.5013   59.0216 C   0  0  0  0  0  0
   16.2940   13.4403   56.6377 H   0  0  0  0  0  0
   14.3279   14.2194   60.5898 H   0  0  0  0  0  0
   14.9965   15.8087   60.3934 H   0  0  0  0  0  0
   13.2169    8.2974   54.5857 H   0  0  0  0  0  0
   11.1332    8.8334   57.2721 H   0  0  0  0  0  0
   11.6781    7.7170   56.0346 H   0  0  0  0  0  0
   12.4931   15.6480   63.6733 H   0  0  0  0  0  0
   14.8599   16.7687   63.3665 H   0  0  0  0  0  0
   14.0385   11.8979   59.1990 H   0  0  0  0  0  0
   14.9644   13.3615   58.8009 H   0  0  0  0  0  0
   17.7366   15.4445   61.7169 H   0  0  0  0  0  0
   17.7540   13.9695   62.6780 H   0  0  0  0  0  0
   10.6058   15.2065   59.7155 H   0  0  0  0  0  0
   10.1461   13.6611   60.4044 H   0  0  0  0  0  0
   17.0639   11.6477   58.7603 H   0  0  0  0  0  0
   15.9913   10.5574   59.5834 H   0  0  0  0  0  0
   16.6126   14.2531   59.8514 H   0  0  0  0  0  0
   18.1500   13.6196   60.1526 H   0  0  0  0  0  0
   17.3311   11.6350   61.2654 H   0  0  0  0  0  0
   15.7167   12.2528   61.4162 H   0  0  0  0  0  0
   11.1708   13.4339   58.1050 H   0  0  0  0  0  0
   11.9665   12.4861   59.3526 H   0  0  0  0  0  0
   12.6913   13.9958   58.7756 H   0  0  0  0  0  0
  1  8  1  0  0  0
  1  3  1  0  0  0
  1  2  2  0  0  0
  2  6  1  0  0  0
  2  5  1  0  0  0
  3  7  2  0  0  0
  4  7  1  0  0  0
  4 30  1  0  0  0
  4  6  1  0  0  0
  5 10  2  0  0  0
  6 13  2  0  0  0
  7 16  1  0  0  0
  8 10  1  0  0  0
  8 20  1  0  0  0
  9 11  1  0  0  0
  9 14  2  0  0  0
  9 17  1  0  0  0
  9 18  1  0  0  0
 10 27  1  0  0  0
 11 12  1  0  0  0
 11 28  1  0  0  0
 11 29  1  0  0  0
 12 21  1  0  0  0
 12 15  2  0  0  0
 12 19  1  0  0  0
 16 31  1  0  0  0
 16 32  1  0  0  0
 17 33  1  0  0  0
 18 22  1  0  0  0
 19 34  1  0  0  0
 20 23  1  0  0  0
 20 35  1  0  0  0
 20 36  1  0  0  0
 21 24  1  0  0  0
 21 37  1  0  0  0
 21 38  1  0  0  0
 22 26  1  0  0  0
 22 39  1  0  0  0
 22 40  1  0  0  0
 23 25  1  0  0  0
 23 41  1  0  0  0
 23 42  1  0  0  0
 24 25  1  0  0  0
 24 43  1  0  0  0
 24 44  1  0  0  0
 25 45  1  0  0  0
 25 46  1  0  0  0
 26 47  1  0  0  0
 26 48  1  0  0  0
 26 49  1  0  0  0
M  END
> <s_m_entry_id>
11891

> <s_m_entry_name>
dock_pv.94

> <s_m_Source_Path>
/home/csk/Desktop/cluster/DUD-E-result/pnph

> <s_m_Source_File>
dock_pv.maegz

> <i_m_Source_File_Index>
94

> <chembl_id>
CHEMBL268378

> <chembl_pref_name>
None

> <i_lp_mmshare_version>
53161

> <r_lp_tautomer_probability>
0.999940409345307

> <s_lp_Force_Field>
OPLS_2005

> <r_lp_Energy>
-0.495253

> <b_lp_Chiralities_Consistent>
1

> <s_lp_Variant>
CHEMBL4338_lig122-4

> <s_i_glide_gridfile>
glide-grid_3bgs

> <i_i_glide_lignum>
153

> <i_i_glide_rotatable_bonds>
12

> <r_i_docking_score>
-7.69952766635131

> <r_i_glide_ligand_efficiency>
-0.29613567947505

> <r_i_glide_ligand_efficiency_sa>
-0.877300785207205

> <r_i_glide_ligand_efficiency_ln>
-1.80820880823169

> <r_i_glide_gscore>
-7.69952766635131

> <r_i_glide_lipo>
-1.67208659258847

> <r_i_glide_hbond>
-0.443165537037893

> <r_i_glide_metal>
0

> <r_i_glide_rewards>
-2.17096380672913

> <r_i_glide_evdw>
-41.462833404541

> <r_i_glide_ecoul>
-15.1248245239258

> <r_i_glide_erotb>
1.06716352925698

> <r_i_glide_esite>
-0.138609910436876

> <r_i_glide_emodel>
-68.1281624623648

> <r_i_glide_energy>
-56.5876579284668

> <r_i_glide_einternal>
14.6186761856079

> <i_i_glide_confnum>
308

> <i_i_glide_posenum>
109

> <r_i_glide_eff_state_penalty>
0

> <s_user_duplicate_titles>
CHEMBL4338_lig122

> <i_f3d_flags>
0

> <s_m_subgroup_title>
dock_pv

> <s_m_subgroupid>
dock_pv

> <b_m_subgroup_collapsed>
1

$$$$
CHEMBL4338_lig57
                    3D
 Schrodinger Suite 2021-1.
 34 36  0  0  1  0            999 V2000
   13.5660   13.9832   61.2310 C   0  0  0  0  0  0
   12.8255   15.2016   61.2501 C   0  0  0  0  0  0
   13.0155   13.1271   60.2051 C   0  0  0  0  0  0
   14.2821   16.0243   62.9239 N   0  0  0  0  0  0
   13.2210   16.2329   62.1094 C   0  0  0  0  0  0
   14.6038   13.7966   62.0507 N   0  0  0  0  0  0
   11.8112   15.0610   60.3300 N   0  0  0  0  0  0
   14.9041   14.8303   62.8614 C   0  0  0  0  0  0
   11.9376   13.8451   59.7051 C   0  0  0  0  0  0
   13.4857   11.7509   59.7225 C   0  0  1  0  0  0
   13.9982   11.7734   58.2827 C   0  0  0  0  0  0
   16.9751   11.9055   60.5054 N   0  0  0  0  0  0
   15.8830   11.5265   60.5767 C   0  0  0  0  0  0
   12.5540   17.4225   62.0349 O   0  0  0  0  0  0
   13.6672   10.7314   57.4084 C   0  0  0  0  0  0
   15.9810   14.6473   63.7050 N   0  0  0  0  0  0
   14.1541   10.7255   56.1032 C   0  0  0  0  0  0
   14.4927   11.0445   60.6630 C   0  0  0  0  0  0
   13.7540    9.4331   55.0345 Cl  0  0  0  0  0  0
   14.8397   12.8004   57.8347 C   0  0  0  0  0  0
   15.3307   12.7938   56.5304 C   0  0  0  0  0  0
   14.9822   11.7576   55.6678 C   0  0  0  0  0  0
   11.0722   15.7172   60.1164 H   0  0  0  0  0  0
   11.2469   13.5896   58.9172 H   0  0  0  0  0  0
   12.5952   11.1210   59.7071 H   0  0  0  0  0  0
   13.0405   18.0841   62.5431 H   0  0  0  0  0  0
   13.0359    9.9187   57.7367 H   0  0  0  0  0  0
   16.3988   13.7305   63.7266 H   0  0  0  0  0  0
   16.1490   15.3441   64.4116 H   0  0  0  0  0  0
   14.1654   11.0949   61.7016 H   0  0  0  0  0  0
   14.5544    9.9881   60.4069 H   0  0  0  0  0  0
   15.1247   13.6014   58.5010 H   0  0  0  0  0  0
   15.9782   13.5878   56.1912 H   0  0  0  0  0  0
   15.3530   11.7574   54.6568 H   0  0  0  0  0  0
  1  2  1  0  0  0
  1  3  1  0  0  0
  1  6  2  0  0  0
  2  5  2  0  0  0
  2  7  1  0  0  0
  3  9  2  0  0  0
  3 10  1  0  0  0
  4  8  2  0  0  0
  4  5  1  0  0  0
  5 14  1  0  0  0
  6  8  1  0  0  0
  7  9  1  0  0  0
  7 23  1  0  0  0
  8 16  1  0  0  0
  9 24  1  0  0  0
 10 11  1  0  0  0
 10 18  1  0  0  0
 10 25  1  0  0  0
 11 15  2  0  0  0
 11 20  1  0  0  0
 12 13  3  0  0  0
 13 18  1  0  0  0
 14 26  1  0  0  0
 15 17  1  0  0  0
 15 27  1  0  0  0
 16 28  1  0  0  0
 16 29  1  0  0  0
 17 19  1  0  0  0
 17 22  2  0  0  0
 18 30  1  0  0  0
 18 31  1  0  0  0
 20 21  2  0  0  0
 20 32  1  0  0  0
 21 22  1  0  0  0
 21 33  1  0  0  0
 22 34  1  0  0  0
M  END
> <s_m_entry_id>
11892

> <s_m_entry_name>
dock_pv.95

> <s_m_Source_Path>
/home/csk/Desktop/cluster/DUD-E-result/pnph

> <s_m_Source_File>
dock_pv.maegz

> <i_m_Source_File_Index>
95

> <chembl_id>
CHEMBL81839

> <chembl_pref_name>
None

> <i_lp_mmshare_version>
53161

> <r_lp_tautomer_probability>
1

> <s_lp_Force_Field>
OPLS_2005

> <r_lp_Energy>
4.267999

> <b_lp_Chiralities_Consistent>
1

> <s_lp_Variant>
CHEMBL4338_lig57-2

> <s_i_glide_gridfile>
glide-grid_3bgs

> <i_i_glide_lignum>
72

> <i_i_glide_rotatable_bonds>
4

> <r_i_docking_score>
-7.6927373332672

> <r_i_glide_ligand_efficiency>
-0.349669878784873

> <r_i_glide_ligand_efficiency_sa>
-0.979788752091192

> <r_i_glide_ligand_efficiency_ln>
-1.88038560366253

> <r_i_glide_gscore>
-7.6927373332672

> <r_i_glide_lipo>
-3.25383947118103

> <r_i_glide_hbond>
-0.427684505465365

> <r_i_glide_metal>
0

> <r_i_glide_rewards>
-1.90614816047712

> <r_i_glide_evdw>
-43.5965805053711

> <r_i_glide_ecoul>
-2.01811575889587

> <r_i_glide_erotb>
0.377481192959249

> <r_i_glide_esite>
0

> <r_i_glide_emodel>
-64.0037885096245

> <r_i_glide_energy>
-45.614696264267

> <r_i_glide_einternal>
3.09202909469604

> <i_i_glide_confnum>
4

> <i_i_glide_posenum>
389

> <r_i_glide_eff_state_penalty>
0

> <s_user_duplicate_titles>
CHEMBL4338_lig57,129444

> <i_f3d_flags>
0

> <s_m_subgroup_title>
dock_pv

> <s_m_subgroupid>
dock_pv

> <b_m_subgroup_collapsed>
1

$$$$
CHEMBL4338_lig151
                    3D
 Schrodinger Suite 2021-1.
 32 33  0  0  1  0            999 V2000
   14.0564   12.3633   57.8924 N   0  0  0  0  0  0
   13.8979   13.2653   59.0362 C   0  0  1  0  0  0
   13.7210   10.7300   56.6036 C   0  0  0  0  0  0
   14.6431   11.4472   55.9721 N   0  0  0  0  0  0
   13.3540   11.2250   57.7816 N   0  0  0  0  0  0
   14.8564   12.4467   56.7756 C   0  0  0  0  0  0
   12.5373   13.9723   59.2401 C   0  0  2  0  0  0
   14.2281   12.6167   60.2253 O   0  0  0  0  0  0
   12.3084   13.8946   60.7484 C   0  0  1  0  0  0
   13.4766   13.0874   61.3408 C   0  0  2  0  0  0
   13.1323    9.5027   56.0166 C   0  0  0  0  0  0
   12.0738    9.0330   56.5060 N   0  0  0  0  0  0
   15.7514   13.4330   56.5060 N   0  0  0  0  0  0
   11.4558   13.4330   58.5060 O   0  0  0  0  0  0
   13.8475    8.9899   54.9608 N   0  0  0  0  0  0
   12.0894   15.1824   61.3060 O   0  0  0  0  0  0
   14.4179   13.8771   62.2805 C   0  0  0  0  0  0
   15.3540   13.0330   62.9060 O   0  0  0  0  0  0
   14.6699   14.0242   58.9060 H   0  0  0  0  0  0
   12.6795   15.0087   58.9265 H   0  0  0  0  0  0
   11.3968   13.3193   60.9295 H   0  0  0  0  0  0
   13.0498   12.2364   61.8756 H   0  0  0  0  0  0
   11.7986    8.1668   56.0455 H   0  0  0  0  0  0
   16.1540   13.4908   55.5822 H   0  0  0  0  0  0
   16.0577   14.0985   57.1993 H   0  0  0  0  0  0
   11.5880   13.7146   57.5915 H   0  0  0  0  0  0
   13.5739    8.1045   54.5431 H   0  0  0  0  0  0
   14.6973    9.4382   54.6568 H   0  0  0  0  0  0
   11.8520   15.0631   62.2345 H   0  0  0  0  0  0
   14.9332   14.6710   61.7382 H   0  0  0  0  0  0
   13.8450   14.3580   63.0735 H   0  0  0  0  0  0
   14.8641   12.4224   63.4732 H   0  0  0  0  0  0
  1  2  1  0  0  0
  1  5  1  0  0  0
  1  6  1  0  0  0
  2  7  1  0  0  0
  2  8  1  0  0  0
  2 19  1  0  0  0
  3  4  1  0  0  0
  3  5  2  0  0  0
  3 11  1  0  0  0
  4  6  2  0  0  0
  6 13  1  0  0  0
  7  9  1  0  0  0
  7 14  1  0  0  0
  7 20  1  0  0  0
  8 10  1  0  0  0
  9 10  1  0  0  0
  9 16  1  0  0  0
  9 21  1  0  0  0
 10 17  1  0  0  0
 10 22  1  0  0  0
 11 12  2  0  0  0
 11 15  1  0  0  0
 12 23  1  0  0  0
 13 24  1  0  0  0
 13 25  1  0  0  0
 14 26  1  0  0  0
 15 27  1  0  0  0
 15 28  1  0  0  0
 16 29  1  0  0  0
 17 18  1  0  0  0
 17 30  1  0  0  0
 17 31  1  0  0  0
 18 32  1  0  0  0
M  END
> <s_m_entry_id>
11893

> <s_m_entry_name>
dock_pv.96

> <s_m_Source_Path>
/home/csk/Desktop/cluster/DUD-E-result/pnph

> <s_m_Source_File>
dock_pv.maegz

> <i_m_Source_File_Index>
96

> <chembl_id>
CHEMBL552896

> <chembl_pref_name>
None

> <i_lp_mmshare_version>
53161

> <r_lp_tautomer_probability>
1

> <s_lp_Force_Field>
OPLS_2005

> <r_lp_Energy>
36.939001

> <b_lp_Chiralities_Consistent>
1

> <s_lp_Variant>
CHEMBL4338_lig151-4

> <s_i_glide_gridfile>
glide-grid_3bgs

> <i_i_glide_lignum>
200

> <i_i_glide_rotatable_bonds>
6

> <r_i_docking_score>
-7.68511342662906

> <r_i_glide_ligand_efficiency>
-0.426950745923837

> <r_i_glide_ligand_efficiency_sa>
-1.11892749205293

> <r_i_glide_ligand_efficiency_ln>
-1.97541877868891

> <r_i_glide_gscore>
-7.68511342662906

> <r_i_glide_lipo>
-0.545087308556197

> <r_i_glide_hbond>
-0.361509595866292

> <r_i_glide_metal>
0

> <r_i_glide_rewards>
-3.44840072727273

> <r_i_glide_evdw>
-31.3424072265625

> <r_i_glide_ecoul>
-14.9646587371826

> <r_i_glide_erotb>
0.529680804525953

> <r_i_glide_esite>
-0.0479774275542793

> <r_i_glide_emodel>
-66.4047221449284

> <r_i_glide_energy>
-46.3070659637451

> <r_i_glide_einternal>
3.4534113407135

> <i_i_glide_confnum>
25

> <i_i_glide_posenum>
279

> <r_i_glide_eff_state_penalty>
0

> <s_user_duplicate_titles>
CHEMBL4338_lig151

> <i_f3d_flags>
0

> <s_m_subgroup_title>
dock_pv

> <s_m_subgroupid>
dock_pv

> <b_m_subgroup_collapsed>
1

$$$$
CHEMBL4338_lig9
                    3D
 Schrodinger Suite 2021-1.
 35 37  0  0  1  0            999 V2000
   13.6287   13.4826   60.7422 N   0  0  0  0  0  0
   14.3360   14.1392   61.7066 C   0  0  0  0  0  0
   13.9569   15.4330   62.0898 C   0  0  0  0  0  0
   12.5563   14.1139   60.1815 C   0  0  0  0  0  0
   12.1737   15.3709   60.5012 N   0  0  0  0  0  0
   15.4243   13.7789   62.4359 N   0  0  0  0  0  0
   12.8551   16.0454   61.4611 C   0  0  0  0  0  0
   14.8141   15.8519   63.0602 N   0  0  0  0  0  0
   15.6164   14.8243   63.1986 C   0  0  0  0  0  0
   14.0138   12.0948   60.3578 C   0  0  0  0  0  0
   12.5540   17.3178   61.8523 O   0  0  0  0  0  0
   11.7810   13.5255   59.1921 N   0  0  0  0  0  0
   16.6191   14.8443   64.1005 N   0  0  0  0  0  0
   14.3138   11.8896   58.8750 C   0  0  0  0  0  0
   14.9192   11.3784   56.1910 C   0  0  0  0  0  0
   15.2411   12.6897   58.2030 C   0  0  0  0  0  0
   13.6639   10.8642   58.1940 C   0  0  0  0  0  0
   13.9518   10.6154   56.8598 C   0  0  0  0  0  0
   15.5356   12.4340   56.8632 C   0  0  0  0  0  0
   15.3483   11.1067   54.9062 O   0  0  0  0  0  0
   14.8848    9.9137   54.2743 C   0  0  0  0  0  0
   14.8928   11.8032   60.9364 H   0  0  0  0  0  0
   13.1942   11.4632   60.7055 H   0  0  0  0  0  0
   13.1950   17.6225   62.5061 H   0  0  0  0  0  0
   11.2803   14.2304   58.6716 H   0  0  0  0  0  0
   12.2548   12.7826   58.6982 H   0  0  0  0  0  0
   17.1458   14.0065   64.2791 H   0  0  0  0  0  0
   16.7147   15.6220   64.7317 H   0  0  0  0  0  0
   15.7494   13.4899   58.7214 H   0  0  0  0  0  0
   12.9540   10.2338   58.7048 H   0  0  0  0  0  0
   13.4460    9.7922   56.3778 H   0  0  0  0  0  0
   16.2775   13.0297   56.3530 H   0  0  0  0  0  0
   15.3621    9.8039   53.3054 H   0  0  0  0  0  0
   15.1306    9.0251   54.8574 H   0  0  0  0  0  0
   13.8074    9.9417   54.1056 H   0  0  0  0  0  0
  1  2  1  0  0  0
  1  4  1  0  0  0
  1 10  1  0  0  0
  2  3  1  0  0  0
  2  6  2  0  0  0
  3  8  1  0  0  0
  3  7  2  0  0  0
  4  5  2  0  0  0
  4 12  1  0  0  0
  5  7  1  0  0  0
  6  9  1  0  0  0
  7 11  1  0  0  0
  8  9  2  0  0  0
  9 13  1  0  0  0
 10 14  1  0  0  0
 10 22  1  0  0  0
 10 23  1  0  0  0
 11 24  1  0  0  0
 12 25  1  0  0  0
 12 26  1  0  0  0
 13 27  1  0  0  0
 13 28  1  0  0  0
 14 16  2  0  0  0
 14 17  1  0  0  0
 15 18  1  0  0  0
 15 20  1  0  0  0
 15 19  2  0  0  0
 16 19  1  0  0  0
 16 29  1  0  0  0
 17 18  2  0  0  0
 17 30  1  0  0  0
 18 31  1  0  0  0
 19 32  1  0  0  0
 20 21  1  0  0  0
 21 33  1  0  0  0
 21 34  1  0  0  0
 21 35  1  0  0  0
M  END
> <s_m_entry_id>
11894

> <s_m_entry_name>
dock_pv.97

> <s_m_Source_Path>
/home/csk/Desktop/cluster/DUD-E-result/pnph

> <s_m_Source_File>
dock_pv.maegz

> <i_m_Source_File_Index>
97

> <chembl_id>
CHEMBL36178

> <chembl_pref_name>
None

> <i_lp_mmshare_version>
53161

> <r_lp_tautomer_probability>
1

> <s_lp_Force_Field>
OPLS_2005

> <r_lp_Energy>
22.43849

> <b_lp_Chiralities_Consistent>
1

> <s_lp_Variant>
CHEMBL4338_lig9-1

> <s_i_glide_gridfile>
glide-grid_3bgs

> <i_i_glide_lignum>
9

> <i_i_glide_rotatable_bonds>
4

> <r_i_docking_score>
-7.68214158481935

> <r_i_glide_ligand_efficiency>
-0.365816265943779

> <r_i_glide_ligand_efficiency_sa>
-1.00925933920152

> <r_i_glide_ligand_efficiency_ln>
-1.89939398361787

> <r_i_glide_gscore>
-7.68214158481935

> <r_i_glide_lipo>
-2.29038667423401

> <r_i_glide_hbond>
-0.50184123479607

> <r_i_glide_metal>
0

> <r_i_glide_rewards>
-2.58076427868606

> <r_i_glide_evdw>
-39.3708877563477

> <r_i_glide_ecoul>
-5.16881418228149

> <r_i_glide_erotb>
0.443076167403103

> <r_i_glide_esite>
-0.00835904934670362

> <r_i_glide_emodel>
-63.4165325595015

> <r_i_glide_energy>
-44.5397019386292

> <r_i_glide_einternal>
2.55202174186707

> <i_i_glide_confnum>
4

> <i_i_glide_posenum>
383

> <r_i_glide_eff_state_penalty>
0

> <s_user_duplicate_titles>
CHEMBL4338_lig9

> <i_f3d_flags>
0

> <s_m_subgroup_title>
dock_pv

> <s_m_subgroupid>
dock_pv

> <b_m_subgroup_collapsed>
1

$$$$
CHEMBL4338_lig61
                    3D
 Schrodinger Suite 2021-1.
 34 36  0  0  1  0            999 V2000
   13.5797   13.9905   61.2103 C   0  0  0  0  0  0
   12.8378   15.2093   61.2271 C   0  0  0  0  0  0
   13.0423   13.1382   60.1718 C   0  0  0  0  0  0
   14.2613   16.0180   62.9343 N   0  0  0  0  0  0
   13.2135   16.2333   62.1057 C   0  0  0  0  0  0
   14.6049   13.7988   62.0453 N   0  0  0  0  0  0
   11.8454   15.0781   60.2834 N   0  0  0  0  0  0
   14.8904   14.8268   62.8702 C   0  0  0  0  0  0
   11.9819   13.8680   59.6516 C   0  0  0  0  0  0
   13.4978   11.7508   59.7048 C   0  0  1  0  0  0
   16.9872   11.8973   60.4970 N   0  0  0  0  0  0
   15.8935   11.5235   60.5666 C   0  0  0  0  0  0
   12.5539   17.4297   62.0239 O   0  0  0  0  0  0
   15.9588   14.6437   63.7247 N   0  0  0  0  0  0
   13.9983   11.7301   58.2587 C   0  0  0  0  0  0
   14.5008   11.0474   60.6516 C   0  0  0  0  0  0
   14.8664   12.7226   57.7891 C   0  0  0  0  0  0
   13.6186   10.6824   57.4129 C   0  0  0  0  0  0
   14.0895   10.6331   56.1058 C   0  0  0  0  0  0
   15.3457   12.6689   56.4851 C   0  0  0  0  0  0
   14.9534   11.6251   55.6526 C   0  0  0  0  0  0
   11.1113   15.7377   60.0619 H   0  0  0  0  0  0
   11.3088   13.6209   58.8437 H   0  0  0  0  0  0
   12.5994   11.1313   59.7092 H   0  0  0  0  0  0
   13.0337   18.0838   62.5486 H   0  0  0  0  0  0
   16.3877   13.7331   63.7382 H   0  0  0  0  0  0
   16.1293   15.3430   64.4283 H   0  0  0  0  0  0
   14.1700   11.1097   61.6888 H   0  0  0  0  0  0
   14.5544    9.9881   60.4062 H   0  0  0  0  0  0
   15.1808   13.5279   58.4379 H   0  0  0  0  0  0
   12.9580    9.9025   57.7619 H   0  0  0  0  0  0
   13.7898    9.8279   55.4499 H   0  0  0  0  0  0
   16.0162   13.4332   56.1210 H   0  0  0  0  0  0
   15.3125   11.5889   54.6366 H   0  0  0  0  0  0
  1  2  1  0  0  0
  1  3  1  0  0  0
  1  6  2  0  0  0
  2  5  2  0  0  0
  2  7  1  0  0  0
  3  9  2  0  0  0
  3 10  1  0  0  0
  4  8  2  0  0  0
  4  5  1  0  0  0
  5 13  1  0  0  0
  6  8  1  0  0  0
  7  9  1  0  0  0
  7 22  1  0  0  0
  8 14  1  0  0  0
  9 23  1  0  0  0
 10 15  1  0  0  0
 10 16  1  0  0  0
 10 24  1  0  0  0
 11 12  3  0  0  0
 12 16  1  0  0  0
 13 25  1  0  0  0
 14 26  1  0  0  0
 14 27  1  0  0  0
 15 17  1  0  0  0
 15 18  2  0  0  0
 16 28  1  0  0  0
 16 29  1  0  0  0
 17 20  2  0  0  0
 17 30  1  0  0  0
 18 19  1  0  0  0
 18 31  1  0  0  0
 19 21  2  0  0  0
 19 32  1  0  0  0
 20 21  1  0  0  0
 20 33  1  0  0  0
 21 34  1  0  0  0
M  END
> <s_m_entry_id>
11895

> <s_m_entry_name>
dock_pv.98

> <s_m_Source_Path>
/home/csk/Desktop/cluster/DUD-E-result/pnph

> <s_m_Source_File>
dock_pv.maegz

> <i_m_Source_File_Index>
98

> <chembl_id>
CHEMBL124429

> <chembl_pref_name>
None

> <i_lp_mmshare_version>
53161

> <r_lp_tautomer_probability>
1

> <s_lp_Force_Field>
OPLS_2005

> <r_lp_Energy>
5.58252

> <b_lp_Chiralities_Consistent>
1

> <s_lp_Variant>
CHEMBL4338_lig61-2

> <s_i_glide_gridfile>
glide-grid_3bgs

> <i_i_glide_lignum>
78

> <i_i_glide_rotatable_bonds>
4

> <r_i_docking_score>
-7.6817414597505

> <r_i_glide_ligand_efficiency>
-0.365797212369072

> <r_i_glide_ligand_efficiency_sa>
-1.00920677183367

> <r_i_glide_ligand_efficiency_ln>
-1.89929505350313

> <r_i_glide_gscore>
-7.6817414597505

> <r_i_glide_lipo>
-3.16441784893611

> <r_i_glide_hbond>
-0.428426666406526

> <r_i_glide_metal>
0

> <r_i_glide_rewards>
-2.13911503619176

> <r_i_glide_evdw>
-39.0409698486328

> <r_i_glide_ecoul>
-3.06850457191467

> <r_i_glide_erotb>
0.462542270002731

> <r_i_glide_esite>
0

> <r_i_glide_emodel>
-59.4051991070881

> <r_i_glide_energy>
-42.1094744205475

> <r_i_glide_einternal>
3.09610772132874

> <i_i_glide_confnum>
3

> <i_i_glide_posenum>
66

> <r_i_glide_eff_state_penalty>
0

> <s_user_duplicate_titles>
CHEMBL4338_lig61,204233

> <i_f3d_flags>
0

> <s_m_subgroup_title>
dock_pv

> <s_m_subgroupid>
dock_pv

> <b_m_subgroup_collapsed>
1

$$$$
CHEMBL4338_lig113
                    3D
 Schrodinger Suite 2021-1.
 31 33  0  0  1  0            999 V2000
   12.3123   14.2011   60.7820 C   0  0  1  0  0  0
   12.2834   13.0996   59.6984 C   0  0  2  0  0  0
   13.7680   12.7277   59.5038 C   0  0  2  0  0  0
   14.4787   13.8689   59.9713 O   0  0  0  0  0  0
   13.8066   14.4011   61.1100 C   0  0  2  0  0  0
   14.3036   13.6913   62.3899 C   0  0  0  0  0  0
   16.0767   13.8330   62.5486 Cl  0  0  0  0  0  0
   11.7475   15.4486   60.3984 O   0  0  0  0  0  0
   11.5842   13.4330   58.5060 O   0  0  0  0  0  0
   14.2545   12.3730   58.1066 C   0  0  0  0  0  0
   14.6500   11.2865   56.0913 C   0  0  0  0  0  0
   13.8626   11.2677   57.2771 C   0  0  0  0  0  0
   15.4664   12.3903   56.1757 N   0  0  0  0  0  0
   15.2115   13.0330   57.3600 C   0  0  0  0  0  0
   14.4919   10.2651   55.1493 C   0  0  0  0  0  0
   13.5172    9.3539   55.3361 N   0  0  0  0  0  0
   12.9540   10.3142   57.4831 N   0  0  0  0  0  0
   12.7856    9.4330   56.4652 C   0  0  0  0  0  0
   15.3540   10.2279   54.1060 O   0  0  0  0  0  0
   11.7878   13.8575   61.6759 H   0  0  0  0  0  0
   11.7727   12.2330   60.1060 H   0  0  0  0  0  0
   14.0339   11.8726   60.1292 H   0  0  0  0  0  0
   14.0756   15.4558   61.1919 H   0  0  0  0  0  0
   14.0474   12.6317   62.4090 H   0  0  0  0  0  0
   13.8730   14.1527   63.2783 H   0  0  0  0  0  0
   10.7885   15.3450   60.3575 H   0  0  0  0  0  0
   12.1153   14.0640   57.9949 H   0  0  0  0  0  0
   16.1518   12.7100   55.5055 H   0  0  0  0  0  0
   15.7540   13.9234   57.6179 H   0  0  0  0  0  0
   11.9991    8.6963   56.5588 H   0  0  0  0  0  0
   15.2001    9.4330   53.5871 H   0  0  0  0  0  0
  1  5  1  0  0  0
  1  2  1  0  0  0
  1  8  1  0  0  0
  1 20  1  0  0  0
  2  3  1  0  0  0
  2  9  1  0  0  0
  2 21  1  0  0  0
  3  4  1  0  0  0
  3 10  1  0  0  0
  3 22  1  0  0  0
  4  5  1  0  0  0
  5  6  1  0  0  0
  5 23  1  0  0  0
  6  7  1  0  0  0
  6 24  1  0  0  0
  6 25  1  0  0  0
  8 26  1  0  0  0
  9 27  1  0  0  0
 10 12  1  0  0  0
 10 14  2  0  0  0
 11 12  1  0  0  0
 11 15  2  0  0  0
 11 13  1  0  0  0
 12 17  2  0  0  0
 13 14  1  0  0  0
 13 28  1  0  0  0
 14 29  1  0  0  0
 15 19  1  0  0  0
 15 16  1  0  0  0
 16 18  2  0  0  0
 17 18  1  0  0  0
 18 30  1  0  0  0
 19 31  1  0  0  0
M  END
> <s_m_entry_id>
11896

> <s_m_entry_name>
dock_pv.99

> <s_m_Source_Path>
/home/csk/Desktop/cluster/DUD-E-result/pnph

> <s_m_Source_File>
dock_pv.maegz

> <i_m_Source_File_Index>
99

> <chembl_id>
CHEMBL604864

> <chembl_pref_name>
None

> <i_lp_mmshare_version>
53161

> <r_lp_tautomer_probability>
1

> <s_lp_Force_Field>
OPLS_2005

> <r_lp_Energy>
26.993551

> <b_lp_Chiralities_Consistent>
1

> <s_lp_Variant>
CHEMBL4338_lig113-1

> <s_i_glide_gridfile>
glide-grid_3bgs

> <i_i_glide_lignum>
134

> <i_i_glide_rotatable_bonds>
5

> <r_i_docking_score>
-7.67784279090247

> <r_i_glide_ligand_efficiency>
-0.404096988994867

> <r_i_glide_ligand_efficiency_sa>
-1.07829307061915

> <r_i_glide_ligand_efficiency_ln>
-1.9464980524366

> <r_i_glide_gscore>
-7.67784279090247

> <r_i_glide_lipo>
-2.34698049358523

> <r_i_glide_hbond>
-0.32

> <r_i_glide_metal>
0

> <r_i_glide_rewards>
-1.69615580958274

> <r_i_glide_evdw>
-31.1669616699219

> <r_i_glide_ecoul>
-13.1914339065552

> <r_i_glide_erotb>
0.222356681744875

> <r_i_glide_esite>
0

> <r_i_glide_emodel>
-61.2562366555472

> <r_i_glide_energy>
-44.3583955764771

> <r_i_glide_einternal>
3.36643242835999

> <i_i_glide_confnum>
10

> <i_i_glide_posenum>
201

> <r_i_glide_eff_state_penalty>
0

> <s_user_duplicate_titles>
CHEMBL4338_lig113,605579

> <i_f3d_flags>
0

> <s_m_subgroup_title>
dock_pv

> <s_m_subgroupid>
dock_pv

> <b_m_subgroup_collapsed>
1

$$$$
CHEMBL4338_lig36
                    3D
 Schrodinger Suite 2021-1.
 31 33  0  0  1  0            999 V2000
   14.7629   11.2048   55.9600 C   0  0  0  0  0  0
   13.5844   10.6742   56.5457 C   0  0  0  0  0  0
   15.3540   10.6330   54.9060 N   0  0  0  0  0  0
   15.2031   12.3117   56.6358 N   0  0  0  0  0  0
   13.6060    8.9751   54.9283 N   0  0  0  0  0  0
   12.9880    9.5405   55.9779 C   0  0  0  0  0  0
   13.3540   11.5000   57.6224 N   0  0  0  0  0  0
   14.7465    9.5064   54.4721 C   0  0  0  0  0  0
   14.3554   12.4457   57.6239 C   0  0  0  0  0  0
   14.4555   13.4128   58.5853 N   0  0  0  0  0  0
   11.8435    9.0330   56.5060 O   0  0  0  0  0  0
   15.3540    8.7668   53.4847 N   0  0  0  0  0  0
   13.4788   13.7254   59.6230 C   0  0  0  0  0  0
   14.1431   14.2595   60.8866 C   0  0  0  0  0  0
   13.5877   15.3642   61.5394 C   0  0  0  0  0  0
   15.2467   13.6036   61.4464 C   0  0  0  0  0  0
   15.8118   14.0720   62.6293 C   0  0  0  0  0  0
   14.1540   15.8330   62.7229 C   0  0  0  0  0  0
   15.2652   15.1871   63.2606 C   0  0  0  0  0  0
   12.6297   11.4528   58.3217 H   0  0  0  0  0  0
   15.1686   14.1207   58.4887 H   0  0  0  0  0  0
   11.6949    8.1624   56.1046 H   0  0  0  0  0  0
   14.9061    7.8912   53.2472 H   0  0  0  0  0  0
   16.2015    9.0968   53.0353 H   0  0  0  0  0  0
   12.8936   12.8435   59.8850 H   0  0  0  0  0  0
   12.7785   14.4587   59.2198 H   0  0  0  0  0  0
   12.7144   15.8568   61.1375 H   0  0  0  0  0  0
   15.6631   12.7269   60.9706 H   0  0  0  0  0  0
   16.6624   13.5641   63.0596 H   0  0  0  0  0  0
   13.7291   16.6892   63.2268 H   0  0  0  0  0  0
   15.6986   15.5473   64.1821 H   0  0  0  0  0  0
  1  2  1  0  0  0
  1  3  2  0  0  0
  1  4  1  0  0  0
  2  6  2  0  0  0
  2  7  1  0  0  0
  3  8  1  0  0  0
  4  9  2  0  0  0
  5  8  2  0  0  0
  5  6  1  0  0  0
  6 11  1  0  0  0
  7  9  1  0  0  0
  7 20  1  0  0  0
  8 12  1  0  0  0
  9 10  1  0  0  0
 10 13  1  0  0  0
 10 21  1  0  0  0
 11 22  1  0  0  0
 12 23  1  0  0  0
 12 24  1  0  0  0
 13 14  1  0  0  0
 13 25  1  0  0  0
 13 26  1  0  0  0
 14 15  2  0  0  0
 14 16  1  0  0  0
 15 18  1  0  0  0
 15 27  1  0  0  0
 16 17  2  0  0  0
 16 28  1  0  0  0
 17 19  1  0  0  0
 17 29  1  0  0  0
 18 19  2  0  0  0
 18 30  1  0  0  0
 19 31  1  0  0  0
M  END
> <s_m_entry_id>
11897

> <s_m_entry_name>
dock_pv.100

> <s_m_Source_Path>
/home/csk/Desktop/cluster/DUD-E-result/pnph

> <s_m_Source_File>
dock_pv.maegz

> <i_m_Source_File_Index>
100

> <chembl_id>
CHEMBL350429

> <chembl_pref_name>
None

> <i_lp_mmshare_version>
53161

> <r_lp_tautomer_probability>
1

> <s_lp_Force_Field>
OPLS_2005

> <r_lp_Energy>
-0.511663

> <b_lp_Chiralities_Consistent>
1

> <s_lp_Variant>
CHEMBL4338_lig36-1

> <s_i_glide_gridfile>
glide-grid_3bgs

> <i_i_glide_lignum>
44

> <i_i_glide_rotatable_bonds>
4

> <r_i_docking_score>
-7.6730553255162

> <r_i_glide_ligand_efficiency>
-0.403845017132432

> <r_i_glide_ligand_efficiency_sa>
-1.07762070848666

> <r_i_glide_ligand_efficiency_ln>
-1.94528432713585

> <r_i_glide_gscore>
-7.6730553255162

> <r_i_glide_lipo>
-1.41760852169033

> <r_i_glide_hbond>
-0.717736706226451

> <r_i_glide_metal>
0

> <r_i_glide_rewards>
-3.44284792388177

> <r_i_glide_evdw>
-35.2231941223145

> <r_i_glide_ecoul>
-7.51119947433472

> <r_i_glide_erotb>
0.805063054241982

> <r_i_glide_esite>
-0.0120856006937029

> <r_i_glide_emodel>
-59.1196188913097

> <r_i_glide_energy>
-42.7343935966492

> <r_i_glide_einternal>
5.27129173278809

> <i_i_glide_confnum>
12

> <i_i_glide_posenum>
375

> <r_i_glide_eff_state_penalty>
0

> <s_user_duplicate_titles>
CHEMBL4338_lig36,267184

> <i_f3d_flags>
0

> <s_m_subgroup_title>
dock_pv

> <s_m_subgroupid>
dock_pv

> <b_m_subgroup_collapsed>
1

$$$$
CHEMBL4338_lig34
                    3D
 Schrodinger Suite 2021-1.
 32 34  0  0  1  0            999 V2000
   13.6172   10.6944   56.5787 C   0  0  0  0  0  0
   14.7466   11.2057   55.9755 C   0  0  0  0  0  0
   13.6263    8.9636   54.9355 N   0  0  0  0  0  0
   13.0346    9.5485   55.9976 C   0  0  0  0  0  0
   15.3540   10.6328   54.9069 N   0  0  0  0  0  0
   13.2590   11.4358   57.7058 N   0  0  0  0  0  0
   14.7609    9.5000   54.4589 C   0  0  0  0  0  0
   14.0881   12.4031   57.8076 C   0  0  0  0  0  0
   15.1621   12.4221   56.7285 C   0  0  0  0  0  0
   11.8850    9.0323   56.5061 O   0  0  0  0  0  0
   14.0848   13.4239   58.7409 N   0  0  0  0  0  0
   15.3543    8.7734   53.4475 N   0  0  0  0  0  0
   13.0382   13.6109   59.7399 C   0  0  0  0  0  0
   13.5767   14.3659   60.9487 C   0  0  0  0  0  0
   12.9512   15.5432   61.3691 C   0  0  0  0  0  0
   14.6747   13.8681   61.6579 C   0  0  0  0  0  0
   15.1658   14.5612   62.7618 C   0  0  0  0  0  0
   13.4384   16.2328   62.4788 C   0  0  0  0  0  0
   14.5502   15.7447   63.1636 C   0  0  0  0  0  0
   15.1054   13.3297   56.1274 H   0  0  0  0  0  0
   16.1584   12.3345   57.1588 H   0  0  0  0  0  0
   11.7497    8.1610   56.1046 H   0  0  0  0  0  0
   14.6906   14.2180   58.6063 H   0  0  0  0  0  0
   16.1949    9.1087   52.9853 H   0  0  0  0  0  0
   14.9058    7.9001   53.1957 H   0  0  0  0  0  0
   12.6218   12.6529   60.0607 H   0  0  0  0  0  0
   12.2246   14.1756   59.2815 H   0  0  0  0  0  0
   12.0865   15.9218   60.8431 H   0  0  0  0  0  0
   15.1499   12.9471   61.3489 H   0  0  0  0  0  0
   16.0156   14.1767   63.3065 H   0  0  0  0  0  0
   12.9618   17.1463   62.8063 H   0  0  0  0  0  0
   14.9285   16.2803   64.0228 H   0  0  0  0  0  0
  1  2  2  0  0  0
  1  4  1  0  0  0
  1  6  1  0  0  0
  2  5  1  0  0  0
  2  9  1  0  0  0
  3  4  2  0  0  0
  3  7  1  0  0  0
  4 10  1  0  0  0
  5  7  2  0  0  0
  6  8  2  0  0  0
  7 12  1  0  0  0
  8 11  1  0  0  0
  8  9  1  0  0  0
  9 20  1  0  0  0
  9 21  1  0  0  0
 10 22  1  0  0  0
 11 13  1  0  0  0
 11 23  1  0  0  0
 12 24  1  0  0  0
 12 25  1  0  0  0
 13 14  1  0  0  0
 13 26  1  0  0  0
 13 27  1  0  0  0
 14 15  2  0  0  0
 14 16  1  0  0  0
 15 18  1  0  0  0
 15 28  1  0  0  0
 16 17  2  0  0  0
 16 29  1  0  0  0
 17 19  1  0  0  0
 17 30  1  0  0  0
 18 19  2  0  0  0
 18 31  1  0  0  0
 19 32  1  0  0  0
M  END
> <s_m_entry_id>
11898

> <s_m_entry_name>
dock_pv.101

> <s_m_Source_Path>
/home/csk/Desktop/cluster/DUD-E-result/pnph

> <s_m_Source_File>
dock_pv.maegz

> <i_m_Source_File_Index>
101

> <chembl_id>
CHEMBL345473

> <chembl_pref_name>
None

> <i_lp_mmshare_version>
53161

> <r_lp_tautomer_probability>
0.999601159137504

> <s_lp_Force_Field>
OPLS_2005

> <r_lp_Energy>
14.798478

> <b_lp_Chiralities_Consistent>
1

> <s_lp_Variant>
CHEMBL4338_lig34-1

> <s_i_glide_gridfile>
glide-grid_3bgs

> <i_i_glide_lignum>
41

> <i_i_glide_rotatable_bonds>
4

> <r_i_docking_score>
-7.6668151134661

> <r_i_glide_ligand_efficiency>
-0.403516584919269

> <r_i_glide_ligand_efficiency_sa>
-1.07674431942842

> <r_i_glide_ligand_efficiency_ln>
-1.94370229935368

> <r_i_glide_gscore>
-7.6668151134661

> <r_i_glide_lipo>
-1.94767421212265

> <r_i_glide_hbond>
-0.717954214008435

> <r_i_glide_metal>
0

> <r_i_glide_rewards>
-3.00992482543769

> <r_i_glide_evdw>
-35.0756988525391

> <r_i_glide_ecoul>
-6.90784215927124

> <r_i_glide_erotb>
0.810426741433114

> <r_i_glide_esite>
-0.0117273368128016

> <r_i_glide_emodel>
-59.22250293247

> <r_i_glide_energy>
-41.9835410118103

> <r_i_glide_einternal>
3.86654829978943

> <i_i_glide_confnum>
8

> <i_i_glide_posenum>
396

> <r_i_glide_eff_state_penalty>
0

> <s_user_duplicate_titles>
CHEMBL4338_lig34,267242

> <i_f3d_flags>
0

> <s_m_subgroup_title>
dock_pv

> <s_m_subgroupid>
dock_pv

> <b_m_subgroup_collapsed>
1

$$$$
CHEMBL4338_lig96
                    3D
 Schrodinger Suite 2021-1.
 43 44  0  0  1  0            999 V2000
   14.1285   11.1817   56.9240 C   0  0  0  0  0  0
   14.8924   11.1801   55.7855 C   0  0  0  0  0  0
   13.1427   10.3030   57.2388 N   0  0  0  0  0  0
   13.6348    9.3121   55.2122 N   0  0  0  0  0  0
   14.6947   10.0901   54.8460 C   0  0  0  0  0  0
   14.5756   12.2253   57.6845 N   0  0  0  0  0  0
   12.8667    9.4341   56.3406 C   0  0  0  0  0  0
   15.5369   12.9207   57.0673 N   0  0  0  0  0  0
   15.7471   12.2822   55.9437 C   0  0  0  0  0  0
   12.3678   15.7145   61.0684 P   0  0  0  0  0  0
   15.3537    9.8168   53.8599 O   0  0  0  0  0  0
   12.9407   16.5850   62.1287 O   0  0  0  0  0  0
   14.2581   12.5042   59.0411 C   0  0  0  0  0  0
   11.7381    8.6330   56.5059 N   0  0  0  0  0  0
   13.2423   15.6418   59.7062 O   0  0  0  0  0  0
   10.9541   16.2329   60.5069 O   0  0  0  0  0  0
   12.0002   13.9397   61.4017 C   0  0  0  0  0  0
   14.7910   11.5115   59.8659 O   0  0  0  0  0  0
   16.1942   11.5299   60.1024 C   0  0  0  0  0  0
   13.1528   13.0771   61.9909 C   0  0  0  0  0  0
   16.6146   12.6566   61.0652 C   0  0  0  0  0  0
   15.7251   12.8048   62.3199 C   0  0  0  0  0  0
   14.5308   13.7633   62.1876 C   0  0  0  0  0  0
   13.4462    8.5392   54.5886 H   0  0  0  0  0  0
   16.5367   12.6294   55.3055 H   0  0  0  0  0  0
   13.1719   12.4627   59.1126 H   0  0  0  0  0  0
   14.5977   13.5049   59.3077 H   0  0  0  0  0  0
   11.2900    8.6555   57.4050 H   0  0  0  0  0  0
   11.7569    7.6823   56.1224 H   0  0  0  0  0  0
   12.8516   15.1043   58.9907 H   0  0  0  0  0  0
   10.1051   15.8327   60.8575 H   0  0  0  0  0  0
   11.1579   13.9224   62.0884 H   0  0  0  0  0  0
   11.6271   13.4917   60.4828 H   0  0  0  0  0  0
   16.7611   11.5842   59.1706 H   0  0  0  0  0  0
   16.4521   10.5674   60.5415 H   0  0  0  0  0  0
   12.8484   12.6398   62.9381 H   0  0  0  0  0  0
   13.2282   12.1736   61.4030 H   0  0  0  0  0  0
   16.6912   13.6017   60.5312 H   0  0  0  0  0  0
   17.6286   12.4340   61.3890 H   0  0  0  0  0  0
   16.3522   13.1480   63.1438 H   0  0  0  0  0  0
   15.3483   11.8329   62.6147 H   0  0  0  0  0  0
   14.7537   14.4715   61.3941 H   0  0  0  0  0  0
   14.4672   14.3532   63.1006 H   0  0  0  0  0  0
  1  2  2  0  0  0
  1  3  1  0  0  0
  1  6  1  0  0  0
  2  5  1  0  0  0
  2  9  1  0  0  0
  3  7  2  0  0  0
  4  7  1  0  0  0
  4  5  1  0  0  0
  4 24  1  0  0  0
  5 11  2  0  0  0
  6  8  1  0  0  0
  6 13  1  0  0  0
  7 14  1  0  0  0
  8  9  2  0  0  0
  9 25  1  0  0  0
 10 17  1  0  0  0
 10 12  2  0  0  0
 10 15  1  0  0  0
 10 16  1  0  0  0
 13 18  1  0  0  0
 13 26  1  0  0  0
 13 27  1  0  0  0
 14 28  1  0  0  0
 14 29  1  0  0  0
 15 30  1  0  0  0
 16 31  1  0  0  0
 17 20  1  0  0  0
 17 32  1  0  0  0
 17 33  1  0  0  0
 18 19  1  0  0  0
 19 21  1  0  0  0
 19 34  1  0  0  0
 19 35  1  0  0  0
 20 23  1  0  0  0
 20 36  1  0  0  0
 20 37  1  0  0  0
 21 22  1  0  0  0
 21 38  1  0  0  0
 21 39  1  0  0  0
 22 23  1  0  0  0
 22 40  1  0  0  0
 22 41  1  0  0  0
 23 42  1  0  0  0
 23 43  1  0  0  0
M  END
> <s_m_entry_id>
11899

> <s_m_entry_name>
dock_pv.102

> <s_m_Source_Path>
/home/csk/Desktop/cluster/DUD-E-result/pnph

> <s_m_Source_File>
dock_pv.maegz

> <i_m_Source_File_Index>
102

> <chembl_id>
CHEMBL173083

> <chembl_pref_name>
None

> <i_lp_mmshare_version>
53161

> <r_lp_tautomer_probability>
1

> <s_lp_Force_Field>
OPLS_2005

> <r_lp_Energy>
8.575746

> <b_lp_Chiralities_Consistent>
1

> <s_lp_Variant>
CHEMBL4338_lig96-1

> <s_i_glide_gridfile>
glide-grid_3bgs

> <i_i_glide_lignum>
116

> <i_i_glide_rotatable_bonds>
11

> <r_i_docking_score>
-7.66584858289903

> <r_i_glide_ligand_efficiency>
-0.333297764473871

> <r_i_glide_ligand_efficiency_sa>
-0.947854505854921

> <r_i_glide_ligand_efficiency_ln>
-1.85367169741687

> <r_i_glide_gscore>
-7.66584858289903

> <r_i_glide_lipo>
-1.56423973773596

> <r_i_glide_hbond>
-0.431371860771563

> <r_i_glide_metal>
0

> <r_i_glide_rewards>
-2.55439761954768

> <r_i_glide_evdw>
-30.0438556671143

> <r_i_glide_ecoul>
-19.6516208648682

> <r_i_glide_erotb>
1.43409654824211

> <r_i_glide_esite>
-0.1

> <r_i_glide_emodel>
-65.6773896878152

> <r_i_glide_energy>
-49.6954765319824

> <r_i_glide_einternal>
13.7253131866455

> <i_i_glide_confnum>
191

> <i_i_glide_posenum>
42

> <r_i_glide_eff_state_penalty>
0

> <s_user_duplicate_titles>
CHEMBL4338_lig96,291359

> <i_f3d_flags>
0

> <s_m_subgroup_title>
dock_pv

> <s_m_subgroupid>
dock_pv

> <b_m_subgroup_collapsed>
1

$$$$
CHEMBL4338_lig121
                    3D
 Schrodinger Suite 2021-1.
 49 50  0  0  1  0            999 V2000
   13.8806   11.7441   58.0560 C   0  0  0  0  0  0
   14.8601   12.4314   57.4054 C   0  0  0  0  0  0
   13.2109   10.6330   57.6260 N   0  0  0  0  0  0
   14.5275   10.9173   55.7060 N   0  0  0  0  0  0
   15.3540   13.4330   58.1478 N   0  0  0  0  0  0
   15.2160   12.0495   56.0643 C   0  0  0  0  0  0
   13.5839   10.2365   56.4534 C   0  0  0  0  0  0
   13.6975   12.4311   59.2171 N   0  0  0  0  0  0
   17.2645   19.9159   64.5746 P   0  0  0  0  0  0
   14.6556   13.3825   59.2504 C   0  0  0  0  0  0
   16.3498   19.0567   65.9625 C   0  0  0  0  0  0
   14.7180   18.2505   65.7356 P   0  0  1  0  0  0
   15.9754   12.6318   55.3060 O   0  0  0  0  0  0
   17.7540   19.0331   63.4482 O   0  0  0  0  0  0
   14.1540   17.5255   66.9060 O   0  0  0  0  0  0
   13.0662    9.1355   55.8959 N   0  0  0  0  0  0
   16.1540   21.1091   64.0499 O   0  0  0  0  0  0
   18.5284   20.7244   65.3888 O   0  0  0  0  0  0
   13.8105   19.5225   65.3060 O   0  0  0  0  0  0
   12.6650   12.1491   60.2160 C   0  0  0  0  0  0
   14.7889   17.3081   64.1530 C   0  0  0  0  0  0
   12.4813   13.2348   61.2857 C   0  0  0  0  0  0
   13.3841   16.9634   63.6232 C   0  0  0  0  0  0
   13.4072   15.9222   62.5020 C   0  0  0  0  0  0
   12.0491   15.7464   61.7800 C   0  0  0  0  0  0
   12.0294   14.6131   60.7396 C   0  0  0  0  0  0
   14.7748   14.0479   60.0930 H   0  0  0  0  0  0
   17.0167   18.2951   66.3692 H   0  0  0  0  0  0
   16.2253   19.7720   66.7772 H   0  0  0  0  0  0
   14.7266   10.5703   54.7819 H   0  0  0  0  0  0
   12.3897    8.5756   56.3962 H   0  0  0  0  0  0
   13.3569    8.7958   54.9899 H   0  0  0  0  0  0
   15.2636   20.8962   63.7063 H   0  0  0  0  0  0
   19.1829   20.2561   65.9396 H   0  0  0  0  0  0
   13.7410   19.6674   64.3313 H   0  0  0  0  0  0
   12.9542   11.1936   60.6559 H   0  0  0  0  0  0
   11.7540   12.0143   59.6374 H   0  0  0  0  0  0
   15.3387   17.8752   63.4033 H   0  0  0  0  0  0
   15.3625   16.3993   64.3378 H   0  0  0  0  0  0
   13.4192   13.2910   61.8326 H   0  0  0  0  0  0
   11.7540   12.8883   62.0181 H   0  0  0  0  0  0
   12.7576   16.6330   64.4465 H   0  0  0  0  0  0
   12.8814   17.8330   63.2365 H   0  0  0  0  0  0
   14.1541   16.1899   61.7575 H   0  0  0  0  0  0
   13.7525   14.9959   62.9562 H   0  0  0  0  0  0
   11.2478   15.5772   62.4984 H   0  0  0  0  0  0
   11.7879   16.6785   61.2784 H   0  0  0  0  0  0
   11.0185   14.5201   60.3391 H   0  0  0  0  0  0
   12.6403   14.9223   59.8930 H   0  0  0  0  0  0
  1  8  1  0  0  0
  1  3  1  0  0  0
  1  2  2  0  0  0
  2  6  1  0  0  0
  2  5  1  0  0  0
  3  7  2  0  0  0
  4  7  1  0  0  0
  4 30  1  0  0  0
  4  6  1  0  0  0
  5 10  2  0  0  0
  6 13  2  0  0  0
  7 16  1  0  0  0
  8 10  1  0  0  0
  8 20  1  0  0  0
  9 11  1  0  0  0
  9 14  2  0  0  0
  9 17  1  0  0  0
  9 18  1  0  0  0
 10 27  1  0  0  0
 11 12  1  0  0  0
 11 28  1  0  0  0
 11 29  1  0  0  0
 12 21  1  0  0  0
 12 15  2  0  0  0
 12 19  1  0  0  0
 16 31  1  0  0  0
 16 32  1  0  0  0
 17 33  1  0  0  0
 18 34  1  0  0  0
 19 35  1  0  0  0
 20 22  1  0  0  0
 20 36  1  0  0  0
 20 37  1  0  0  0
 21 23  1  0  0  0
 21 38  1  0  0  0
 21 39  1  0  0  0
 22 26  1  0  0  0
 22 40  1  0  0  0
 22 41  1  0  0  0
 23 24  1  0  0  0
 23 42  1  0  0  0
 23 43  1  0  0  0
 24 25  1  0  0  0
 24 44  1  0  0  0
 24 45  1  0  0  0
 25 26  1  0  0  0
 25 46  1  0  0  0
 25 47  1  0  0  0
 26 48  1  0  0  0
 26 49  1  0  0  0
M  END
> <s_m_entry_id>
11900

> <s_m_entry_name>
dock_pv.103

> <s_m_Source_Path>
/home/csk/Desktop/cluster/DUD-E-result/pnph

> <s_m_Source_File>
dock_pv.maegz

> <i_m_Source_File_Index>
103

> <chembl_id>
CHEMBL7247

> <chembl_pref_name>
None

> <i_lp_mmshare_version>
53161

> <r_lp_tautomer_probability>
0.999940409345307

> <s_lp_Force_Field>
OPLS_2005

> <r_lp_Energy>
2.3944

> <b_lp_Chiralities_Consistent>
1

> <s_lp_Variant>
CHEMBL4338_lig121-1

> <s_i_glide_gridfile>
glide-grid_3bgs

> <i_i_glide_lignum>
148

> <i_i_glide_rotatable_bonds>
13

> <r_i_docking_score>
-7.65902701667099

> <r_i_glide_ligand_efficiency>
-0.294577962179653

> <r_i_glide_ligand_efficiency_sa>
-0.872686053848913

> <r_i_glide_ligand_efficiency_ln>
-1.79869736354774

> <r_i_glide_gscore>
-7.65902701667099

> <r_i_glide_lipo>
-1.251779130409

> <r_i_glide_hbond>
-0.20335400653515

> <r_i_glide_metal>
0

> <r_i_glide_rewards>
-2.03191782040844

> <r_i_glide_evdw>
-41.546516418457

> <r_i_glide_ecoul>
-21.8279628753662

> <r_i_glide_erotb>
1.18573725472997

> <r_i_glide_esite>
-0.00619306182058472

> <r_i_glide_emodel>
-88.1925924496078

> <r_i_glide_energy>
-63.3744792938232

> <r_i_glide_einternal>
5.85383462905884

> <i_i_glide_confnum>
368

> <i_i_glide_posenum>
332

> <r_i_glide_eff_state_penalty>
0

> <s_user_duplicate_titles>
CHEMBL4338_lig121

> <i_f3d_flags>
0

> <s_m_subgroup_title>
dock_pv

> <s_m_subgroupid>
dock_pv

> <b_m_subgroup_collapsed>
1

$$$$
CHEMBL4338_lig42
                    3D
 Schrodinger Suite 2021-1.
 29 31  0  0  1  0            999 V2000
   13.6426   10.6577   56.6000 C   0  0  0  0  0  0
   14.7657   11.1794   55.9949 C   0  0  0  0  0  0
   13.6062    8.9814   54.9058 N   0  0  0  0  0  0
   13.0304    9.5453   55.9887 C   0  0  0  0  0  0
   15.3546   10.6321   54.9059 N   0  0  0  0  0  0
   13.3469   11.3241   57.7858 N   0  0  0  0  0  0
   14.7499    9.5125   54.4390 C   0  0  0  0  0  0
   14.2324   12.2320   57.9443 C   0  0  0  0  0  0
   15.2236   12.3470   56.7963 C   0  0  0  0  0  0
   13.2722   14.2655   60.8360 C   0  0  0  0  0  0
   14.4046   13.0610   59.0348 N   0  0  0  0  0  0
   11.8801    9.0325   56.5061 O   0  0  0  0  0  0
   12.2231   14.8736   60.2254 O   0  0  0  0  0  0
   13.7555   15.0823   61.8475 C   0  0  0  0  0  0
   12.0212   16.0515   60.8641 C   0  0  0  0  0  0
   15.3539    8.7874   53.4313 N   0  0  0  0  0  0
   12.9538   16.2242   61.8695 C   0  0  0  0  0  0
   13.6784   12.9214   60.2903 C   0  0  0  0  0  0
   15.1097   13.2947   56.2697 H   0  0  0  0  0  0
   16.2514   12.2398   57.1422 H   0  0  0  0  0  0
   15.1804   13.7051   59.0549 H   0  0  0  0  0  0
   11.7188    8.1676   56.0989 H   0  0  0  0  0  0
   14.5854   14.8643   62.5033 H   0  0  0  0  0  0
   11.1890   16.6327   60.5064 H   0  0  0  0  0  0
   16.2069    9.1153   52.9871 H   0  0  0  0  0  0
   14.9103    7.9136   53.1774 H   0  0  0  0  0  0
   13.0389   17.0600   62.5476 H   0  0  0  0  0  0
   14.3265   12.4083   61.0014 H   0  0  0  0  0  0
   12.8022   12.2815   60.1714 H   0  0  0  0  0  0
  1  2  2  0  0  0
  1  4  1  0  0  0
  1  6  1  0  0  0
  2  5  1  0  0  0
  2  9  1  0  0  0
  3  4  2  0  0  0
  3  7  1  0  0  0
  4 12  1  0  0  0
  5  7  2  0  0  0
  6  8  2  0  0  0
  7 16  1  0  0  0
  8 11  1  0  0  0
  8  9  1  0  0  0
  9 19  1  0  0  0
  9 20  1  0  0  0
 10 18  1  0  0  0
 10 13  1  0  0  0
 10 14  2  0  0  0
 11 18  1  0  0  0
 11 21  1  0  0  0
 12 22  1  0  0  0
 13 15  1  0  0  0
 14 17  1  0  0  0
 14 23  1  0  0  0
 15 17  2  0  0  0
 15 24  1  0  0  0
 16 25  1  0  0  0
 16 26  1  0  0  0
 17 27  1  0  0  0
 18 28  1  0  0  0
 18 29  1  0  0  0
M  END
> <s_m_entry_id>
11901

> <s_m_entry_name>
dock_pv.104

> <s_m_Source_Path>
/home/csk/Desktop/cluster/DUD-E-result/pnph

> <s_m_Source_File>
dock_pv.maegz

> <i_m_Source_File_Index>
104

> <chembl_id>
CHEMBL159515

> <chembl_pref_name>
None

> <i_lp_mmshare_version>
53161

> <r_lp_tautomer_probability>
0.999601159137504

> <s_lp_Force_Field>
OPLS_2005

> <r_lp_Energy>
8.276794

> <b_lp_Chiralities_Consistent>
1

> <s_lp_Variant>
CHEMBL4338_lig42-1

> <s_i_glide_gridfile>
glide-grid_3bgs

> <i_i_glide_lignum>
51

> <i_i_glide_rotatable_bonds>
4

> <r_i_docking_score>
-7.65739682699523

> <r_i_glide_ligand_efficiency>
-0.425410934833068

> <r_i_glide_ligand_efficiency_sa>
-1.11489204539198

> <r_i_glide_ligand_efficiency_ln>
-1.96829436967129

> <r_i_glide_gscore>
-7.65739682699523

> <r_i_glide_lipo>
-1.8209055160132

> <r_i_glide_hbond>
-0.717059850292221

> <r_i_glide_metal>
0

> <r_i_glide_rewards>
-3.05644022507091

> <r_i_glide_evdw>
-35.3747711181641

> <r_i_glide_ecoul>
-7.66891860961914

> <r_i_glide_erotb>
0.868126433987242

> <r_i_glide_esite>
-0.0120413222550706

> <r_i_glide_emodel>
-59.449690410524

> <r_i_glide_energy>
-43.0436897277832

> <r_i_glide_einternal>
4.68502044677734

> <i_i_glide_confnum>
10

> <i_i_glide_posenum>
257

> <r_i_glide_eff_state_penalty>
0

> <s_user_duplicate_titles>
CHEMBL4338_lig42,268680

> <i_f3d_flags>
0

> <s_m_subgroup_title>
dock_pv

> <s_m_subgroupid>
dock_pv

> <b_m_subgroup_collapsed>
1

$$$$
CHEMBL4338_lig127
                    3D
 Schrodinger Suite 2021-1.
 36 38  0  0  1  0            999 V2000
   15.0333   13.5052   61.6057 C   0  0  0  0  0  0
   13.8504   13.4644   60.7772 C   0  0  0  0  0  0
   14.1185   12.6641   59.6225 C   0  0  0  0  0  0
   15.2155   14.1507   62.9771 C   0  0  2  0  0  0
   15.4389   12.2525   59.7310 N   0  0  0  0  0  0
   15.9546   12.7392   60.9108 C   0  0  0  0  0  0
   14.2753   15.2299   63.1830 N   0  0  2  0  0  0
   16.6190   14.7288   63.2853 C   0  0  1  0  0  0
   13.0907   12.4540   58.6830 C   0  0  0  0  0  0
   16.3328   16.0599   64.0211 C   0  0  2  0  0  0
   14.8081   16.0130   64.2838 C   0  0  1  0  0  0
   12.6490   14.0245   60.9707 N   0  0  0  0  0  0
   11.8846   13.0331   58.9059 N   0  0  0  0  0  0
   11.7264   13.7874   60.0135 C   0  0  0  0  0  0
   13.3539   11.6660   57.5985 O   0  0  0  0  0  0
   17.3553   13.8331   64.0985 O   0  0  0  0  0  0
   16.7527   17.2136   63.3060 O   0  0  0  0  0  0
   16.1665   11.3972   58.8067 C   0  0  0  0  0  0
   14.0711   17.3612   64.3395 C   0  0  0  0  0  0
   14.5973   18.2329   65.3196 O   0  0  0  0  0  0
   14.9542   13.3798   63.7031 H   0  0  0  0  0  0
   16.9692   12.4803   61.1806 H   0  0  0  0  0  0
   13.3218   14.8904   63.3064 H   0  0  0  0  0  0
   17.1635   14.9413   62.3628 H   0  0  0  0  0  0
   16.8357   16.0834   64.9901 H   0  0  0  0  0  0
   14.6281   15.4647   65.2109 H   0  0  0  0  0  0
   10.7546   14.2331   60.1583 H   0  0  0  0  0  0
   14.2430   11.3118   57.6117 H   0  0  0  0  0  0
   17.2603   12.9473   63.7400 H   0  0  0  0  0  0
   16.4539   17.9768   63.8111 H   0  0  0  0  0  0
   15.7121   10.4054   58.8060 H   0  0  0  0  0  0
   16.1337   11.8269   57.8047 H   0  0  0  0  0  0
   17.2103   11.3067   59.1104 H   0  0  0  0  0  0
   13.0028   17.2224   64.5067 H   0  0  0  0  0  0
   14.1829   17.8330   63.3699 H   0  0  0  0  0  0
   14.2429   19.1111   65.1473 H   0  0  0  0  0  0
  1  2  1  0  0  0
  1  4  1  0  0  0
  1  6  2  0  0  0
  2  3  1  0  0  0
  2 12  2  0  0  0
  3  9  2  0  0  0
  3  5  1  0  0  0
  4  7  1  0  0  0
  4  8  1  0  0  0
  4 21  1  0  0  0
  5  6  1  0  0  0
  5 18  1  0  0  0
  6 22  1  0  0  0
  7 11  1  0  0  0
  7 23  1  0  0  0
  8 10  1  0  0  0
  8 16  1  0  0  0
  8 24  1  0  0  0
  9 15  1  0  0  0
  9 13  1  0  0  0
 10 17  1  0  0  0
 10 11  1  0  0  0
 10 25  1  0  0  0
 11 19  1  0  0  0
 11 26  1  0  0  0
 12 14  1  0  0  0
 13 14  2  0  0  0
 14 27  1  0  0  0
 15 28  1  0  0  0
 16 29  1  0  0  0
 17 30  1  0  0  0
 18 31  1  0  0  0
 18 32  1  0  0  0
 18 33  1  0  0  0
 19 20  1  0  0  0
 19 34  1  0  0  0
 19 35  1  0  0  0
 20 36  1  0  0  0
M  END
> <s_m_entry_id>
11902

> <s_m_entry_name>
dock_pv.105

> <s_m_Source_Path>
/home/csk/Desktop/cluster/DUD-E-result/pnph

> <s_m_Source_File>
dock_pv.maegz

> <i_m_Source_File_Index>
105

> <chembl_id>
CHEMBL543164

> <chembl_pref_name>
None

> <i_lp_mmshare_version>
53161

> <r_lp_tautomer_probability>
1

> <s_lp_Force_Field>
OPLS_2005

> <r_lp_Energy>
38.1142

> <b_lp_Chiralities_Consistent>
1

> <s_lp_Variant>
CHEMBL4338_lig127-2

> <s_i_glide_gridfile>
glide-grid_3bgs

> <i_i_glide_lignum>
163

> <i_i_glide_rotatable_bonds>
6

> <r_i_docking_score>
-7.64962833802776

> <r_i_glide_ligand_efficiency>
-0.382481416901388

> <r_i_glide_ligand_efficiency_sa>
-1.03821429502057

> <r_i_glide_ligand_efficiency_ln>
-1.91444967137997

> <r_i_glide_gscore>
-7.64962833802776

> <r_i_glide_lipo>
-1.71427212995997

> <r_i_glide_hbond>
-0.584688054857702

> <r_i_glide_metal>
0

> <r_i_glide_rewards>
-2.87401052815762

> <r_i_glide_evdw>
-29.9170017242432

> <r_i_glide_ecoul>
-9.60356998443604

> <r_i_glide_erotb>
0.459727958825089

> <r_i_glide_esite>
0

> <r_i_glide_emodel>
-55.0721300771274

> <r_i_glide_energy>
-39.5205717086792

> <r_i_glide_einternal>
3.9841582775116

> <i_i_glide_confnum>
9

> <i_i_glide_posenum>
64

> <r_i_glide_eff_state_penalty>
0

> <s_user_duplicate_titles>
CHEMBL4338_lig127,546718

> <i_f3d_flags>
0

> <s_m_subgroup_title>
dock_pv

> <s_m_subgroupid>
dock_pv

> <b_m_subgroup_collapsed>
1

$$$$
CHEMBL4338_lig40
                    3D
 Schrodinger Suite 2021-1.
 28 30  0  0  1  0            999 V2000
   14.7555   11.2076   55.9505 C   0  0  0  0  0  0
   13.5803   10.6777   56.5451 C   0  0  0  0  0  0
   15.3539   10.6325   54.9059 N   0  0  0  0  0  0
   15.1891   12.3257   56.6022 N   0  0  0  0  0  0
   13.6080    8.9714   54.9353 N   0  0  0  0  0  0
   12.9868    9.5401   55.9814 C   0  0  0  0  0  0
   13.3549   11.5095   57.6210 N   0  0  0  0  0  0
   14.7483    9.5020   54.4779 C   0  0  0  0  0  0
   14.3584   12.4542   57.6018 C   0  0  0  0  0  0
   14.5916   13.9911   60.9443 C   0  0  0  0  0  0
   15.4413   14.2335   63.4184 S   0  0  0  0  0  0
   14.4943   13.4330   58.5400 N   0  0  0  0  0  0
   11.8406    9.0328   56.5060 O   0  0  0  0  0  0
   14.2543   13.7127   62.2667 C   0  0  0  0  0  0
   15.8450   14.6330   60.8966 C   0  0  0  0  0  0
   16.4291   14.8320   62.1378 C   0  0  0  0  0  0
   15.3541    8.7597   53.4913 N   0  0  0  0  0  0
   13.7155   13.6679   59.7469 C   0  0  0  0  0  0
   12.6395   11.4664   58.3298 H   0  0  0  0  0  0
   15.1826   14.1517   58.3747 H   0  0  0  0  0  0
   11.6934    8.1623   56.1043 H   0  0  0  0  0  0
   13.3555   13.2324   62.6287 H   0  0  0  0  0  0
   16.3150   14.9571   59.9794 H   0  0  0  0  0  0
   17.3737   15.3070   62.3532 H   0  0  0  0  0  0
   14.9043    7.8842   53.2561 H   0  0  0  0  0  0
   16.1993    9.0900   53.0371 H   0  0  0  0  0  0
   13.0926   12.7985   59.9598 H   0  0  0  0  0  0
   13.0295   14.4918   59.5482 H   0  0  0  0  0  0
  1  2  1  0  0  0
  1  3  2  0  0  0
  1  4  1  0  0  0
  2  6  2  0  0  0
  2  7  1  0  0  0
  3  8  1  0  0  0
  4  9  2  0  0  0
  5  8  2  0  0  0
  5  6  1  0  0  0
  6 13  1  0  0  0
  7  9  1  0  0  0
  7 19  1  0  0  0
  8 17  1  0  0  0
  9 12  1  0  0  0
 10 18  1  0  0  0
 10 14  2  0  0  0
 10 15  1  0  0  0
 11 14  1  0  0  0
 11 16  1  0  0  0
 12 18  1  0  0  0
 12 20  1  0  0  0
 13 21  1  0  0  0
 14 22  1  0  0  0
 15 16  2  0  0  0
 15 23  1  0  0  0
 16 24  1  0  0  0
 17 25  1  0  0  0
 17 26  1  0  0  0
 18 27  1  0  0  0
 18 28  1  0  0  0
M  END
> <s_m_entry_id>
11903

> <s_m_entry_name>
dock_pv.106

> <s_m_Source_Path>
/home/csk/Desktop/cluster/DUD-E-result/pnph

> <s_m_Source_File>
dock_pv.maegz

> <i_m_Source_File_Index>
106

> <chembl_id>
CHEMBL422712

> <chembl_pref_name>
None

> <i_lp_mmshare_version>
53161

> <r_lp_tautomer_probability>
1

> <s_lp_Force_Field>
OPLS_2005

> <r_lp_Energy>
-3.975208

> <b_lp_Chiralities_Consistent>
1

> <s_lp_Variant>
CHEMBL4338_lig40-1

> <s_i_glide_gridfile>
glide-grid_3bgs

> <i_i_glide_lignum>
49

> <i_i_glide_rotatable_bonds>
4

> <r_i_docking_score>
-7.64859378314094

> <r_i_glide_ligand_efficiency>
-0.424921876841163

> <r_i_glide_ligand_efficiency_sa>
-1.11361035086966

> <r_i_glide_ligand_efficiency_ln>
-1.96603159264069

> <r_i_glide_gscore>
-7.64859378314094

> <r_i_glide_lipo>
-1.27577926411711

> <r_i_glide_hbond>
-0.717798904158934

> <r_i_glide_metal>
0

> <r_i_glide_rewards>
-3.40553555353133

> <r_i_glide_evdw>
-34.4996032714844

> <r_i_glide_ecoul>
-8.57388591766357

> <r_i_glide_erotb>
0.773470136268536

> <r_i_glide_esite>
-0.0118871463783567

> <r_i_glide_emodel>
-59.0131789018763

> <r_i_glide_energy>
-43.0734891891479

> <r_i_glide_einternal>
6.26131820678711

> <i_i_glide_confnum>
4

> <i_i_glide_posenum>
273

> <r_i_glide_eff_state_penalty>
0

> <s_user_duplicate_titles>
CHEMBL4338_lig40,267838

> <i_f3d_flags>
0

> <s_m_subgroup_title>
dock_pv

> <s_m_subgroupid>
dock_pv

> <b_m_subgroup_collapsed>
1

$$$$
CHEMBL4338_lig133
                    3D
 Schrodinger Suite 2021-1.
 32 34  0  0  1  0            999 V2000
   14.2611   12.7660   60.5772 C   0  0  0  0  0  0
   15.0480   14.2423   62.2079 C   0  0  0  0  0  0
   15.3736   13.5969   60.9784 C   0  0  0  0  0  0
   13.7557   13.8693   62.5050 N   0  0  0  0  0  0
   14.1491   11.8006   59.3963 C   0  0  2  0  0  0
   13.2965   13.0114   61.5401 C   0  0  0  0  0  0
   15.9989   15.0616   62.8349 C   0  0  0  0  0  0
   16.5542   13.8012   60.3861 N   0  0  0  0  0  0
   15.2348   11.9914   58.4495 N   0  0  1  0  0  0
   17.1981   15.2378   62.2234 N   0  0  0  0  0  0
   12.8258   11.8274   58.5886 C   0  0  2  0  0  0
   17.4020   14.6330   61.0285 C   0  0  0  0  0  0
   13.2785   11.5638   57.1482 C   0  0  0  0  0  0
   14.7877   11.3632   57.2250 C   0  0  1  0  0  0
   15.6510   15.6401   64.0221 O   0  0  0  0  0  0
   12.0877   13.0338   58.6540 O   0  0  0  0  0  0
   15.3528   10.8511   54.9061 O   0  0  0  0  0  0
   15.5678   11.7720   55.9574 C   0  0  0  0  0  0
   13.1683   14.1346   63.2918 H   0  0  0  0  0  0
   14.2841   10.8053   59.8253 H   0  0  0  0  0  0
   12.2901   12.6330   61.6299 H   0  0  0  0  0  0
   15.4049   12.9801   58.3349 H   0  0  0  0  0  0
   12.1761   11.0331   58.9472 H   0  0  0  0  0  0
   18.3262   14.8450   60.5091 H   0  0  0  0  0  0
   13.0116   12.3706   56.4691 H   0  0  0  0  0  0
   12.8363   10.6278   56.8076 H   0  0  0  0  0  0
   14.9538   10.2912   57.3345 H   0  0  0  0  0  0
   14.7762   15.3770   64.3039 H   0  0  0  0  0  0
   12.5496   13.6986   58.1294 H   0  0  0  0  0  0
   14.4105   10.7835   54.7305 H   0  0  0  0  0  0
   16.6374   11.7693   56.1611 H   0  0  0  0  0  0
   15.3019   12.7803   55.6310 H   0  0  0  0  0  0
  1  3  1  0  0  0
  1  5  1  0  0  0
  1  6  2  0  0  0
  2  3  1  0  0  0
  2  4  1  0  0  0
  2  7  2  0  0  0
  3  8  2  0  0  0
  4  6  1  0  0  0
  4 19  1  0  0  0
  5  9  1  0  0  0
  5 11  1  0  0  0
  5 20  1  0  0  0
  6 21  1  0  0  0
  7 10  1  0  0  0
  7 15  1  0  0  0
  8 12  1  0  0  0
  9 14  1  0  0  0
  9 22  1  0  0  0
 10 12  2  0  0  0
 11 13  1  0  0  0
 11 16  1  0  0  0
 11 23  1  0  0  0
 12 24  1  0  0  0
 13 14  1  0  0  0
 13 25  1  0  0  0
 13 26  1  0  0  0
 14 18  1  0  0  0
 14 27  1  0  0  0
 15 28  1  0  0  0
 16 29  1  0  0  0
 17 18  1  0  0  0
 17 30  1  0  0  0
 18 31  1  0  0  0
 18 32  1  0  0  0
M  END
> <s_m_entry_id>
11904

> <s_m_entry_name>
dock_pv.107

> <s_m_Source_Path>
/home/csk/Desktop/cluster/DUD-E-result/pnph

> <s_m_Source_File>
dock_pv.maegz

> <i_m_Source_File_Index>
107

> <chembl_id>
CHEMBL538773

> <chembl_pref_name>
None

> <i_lp_mmshare_version>
53161

> <r_lp_tautomer_probability>
1

> <s_lp_Force_Field>
OPLS_2005

> <r_lp_Energy>
30.171881

> <b_lp_Chiralities_Consistent>
1

> <s_lp_Variant>
CHEMBL4338_lig133-1

> <s_i_glide_gridfile>
glide-grid_3bgs

> <i_i_glide_lignum>
172

> <i_i_glide_rotatable_bonds>
5

> <r_i_docking_score>
-7.64848870061971

> <r_i_glide_ligand_efficiency>
-0.424916038923317

> <r_i_glide_ligand_efficiency_sa>
-1.11359505119672

> <r_i_glide_ligand_efficiency_ln>
-1.96600458172045

> <r_i_glide_gscore>
-7.64848870061971

> <r_i_glide_lipo>
-2.08007600997682

> <r_i_glide_hbond>
-0.961371618901527

> <r_i_glide_metal>
0

> <r_i_glide_rewards>
-1.90609333003617

> <r_i_glide_evdw>
-25.7353477478027

> <r_i_glide_ecoul>
-12.9523725509644

> <r_i_glide_erotb>
0.559026460562615

> <r_i_glide_esite>
-0.0303509322330273

> <r_i_glide_emodel>
-53.4199446095978

> <r_i_glide_energy>
-38.6877202987671

> <r_i_glide_einternal>
5.16200542449951

> <i_i_glide_confnum>
8

> <i_i_glide_posenum>
354

> <r_i_glide_eff_state_penalty>
0

> <s_user_duplicate_titles>
CHEMBL4338_lig133,551744

> <i_f3d_flags>
0

> <s_m_subgroup_title>
dock_pv

> <s_m_subgroupid>
dock_pv

> <b_m_subgroup_collapsed>
1

$$$$
CHEMBL4338_lig43
                    3D
 Schrodinger Suite 2021-1.
 28 30  0  0  1  0            999 V2000
   14.7658   11.2233   55.9758 C   0  0  0  0  0  0
   13.5949   10.6715   56.5565 C   0  0  0  0  0  0
   15.3540   10.6724   54.9060 N   0  0  0  0  0  0
   15.1904   12.3274   56.6713 N   0  0  0  0  0  0
   13.6163    9.0007   54.9136 N   0  0  0  0  0  0
   13.0022    9.5455   55.9759 C   0  0  0  0  0  0
   13.3540   11.4758   57.6433 N   0  0  0  0  0  0
   14.7509    9.5471   54.4596 C   0  0  0  0  0  0
   14.3276   12.4466   57.6512 C   0  0  0  0  0  0
   12.6414   15.8770   61.2995 S   0  0  0  0  0  0
   13.6768   14.6111   60.6899 C   0  0  0  0  0  0
   14.3557   13.4330   58.6000 N   0  0  0  0  0  0
   11.8611    9.0330   56.5060 O   0  0  0  0  0  0
   13.7343   16.2330   62.5952 C   0  0  0  0  0  0
   14.8100   14.5062   61.4989 C   0  0  0  0  0  0
   15.3540    8.8268   53.4557 N   0  0  0  0  0  0
   14.8458   15.4111   62.5636 C   0  0  0  0  0  0
   13.2575   13.7829   59.4958 C   0  0  0  0  0  0
   12.6249   11.4109   58.3363 H   0  0  0  0  0  0
   15.0555   14.1567   58.5266 H   0  0  0  0  0  0
   11.7108    8.1650   56.0995 H   0  0  0  0  0  0
   13.5092   17.0144   63.3062 H   0  0  0  0  0  0
   15.5875   13.7770   61.3234 H   0  0  0  0  0  0
   14.9153    7.9479   53.2145 H   0  0  0  0  0  0
   16.2039    9.1619   53.0130 H   0  0  0  0  0  0
   15.6494   15.4584   63.2837 H   0  0  0  0  0  0
   12.7655   12.8753   59.8467 H   0  0  0  0  0  0
   12.5108   14.3154   58.9060 H   0  0  0  0  0  0
  1  2  1  0  0  0
  1  3  2  0  0  0
  1  4  1  0  0  0
  2  6  2  0  0  0
  2  7  1  0  0  0
  3  8  1  0  0  0
  4  9  2  0  0  0
  5  8  2  0  0  0
  5  6  1  0  0  0
  6 13  1  0  0  0
  7  9  1  0  0  0
  7 19  1  0  0  0
  8 16  1  0  0  0
  9 12  1  0  0  0
 10 11  1  0  0  0
 10 14  1  0  0  0
 11 18  1  0  0  0
 11 15  2  0  0  0
 12 18  1  0  0  0
 12 20  1  0  0  0
 13 21  1  0  0  0
 14 17  2  0  0  0
 14 22  1  0  0  0
 15 17  1  0  0  0
 15 23  1  0  0  0
 16 24  1  0  0  0
 16 25  1  0  0  0
 17 26  1  0  0  0
 18 27  1  0  0  0
 18 28  1  0  0  0
M  END
> <s_m_entry_id>
11905

> <s_m_entry_name>
dock_pv.108

> <s_m_Source_Path>
/home/csk/Desktop/cluster/DUD-E-result/pnph

> <s_m_Source_File>
dock_pv.maegz

> <i_m_Source_File_Index>
108

> <chembl_id>
CHEMBL351228

> <chembl_pref_name>
None

> <i_lp_mmshare_version>
53161

> <r_lp_tautomer_probability>
1

> <s_lp_Force_Field>
OPLS_2005

> <r_lp_Energy>
-3.18217

> <b_lp_Chiralities_Consistent>
1

> <s_lp_Variant>
CHEMBL4338_lig43-1

> <s_i_glide_gridfile>
glide-grid_3bgs

> <i_i_glide_lignum>
52

> <i_i_glide_rotatable_bonds>
4

> <r_i_docking_score>
-7.63933034533332

> <r_i_glide_ligand_efficiency>
-0.424407241407407

> <r_i_glide_ligand_efficiency_sa>
-1.11226162448678

> <r_i_glide_ligand_efficiency_ln>
-1.96365047371836

> <r_i_glide_gscore>
-7.63933034533332

> <r_i_glide_lipo>
-1.25910862122937

> <r_i_glide_hbond>
-0.717616697978032

> <r_i_glide_metal>
0

> <r_i_glide_rewards>
-3.42132115559718

> <r_i_glide_evdw>
-35.5942077636719

> <r_i_glide_ecoul>
-8.14053249359131

> <r_i_glide_erotb>
0.773470136268536

> <r_i_glide_esite>
-0.0139637445749973

> <r_i_glide_emodel>
-59.0108434677358

> <r_i_glide_energy>
-43.7347402572632

> <r_i_glide_einternal>
7.91362762451172

> <i_i_glide_confnum>
6

> <i_i_glide_posenum>
374

> <r_i_glide_eff_state_penalty>
0

> <s_user_duplicate_titles>
CHEMBL4338_lig43,267839

> <i_f3d_flags>
0

> <s_m_subgroup_title>
dock_pv

> <s_m_subgroupid>
dock_pv

> <b_m_subgroup_collapsed>
1

$$$$
CHEMBL4338_lig12
                    3D
 Schrodinger Suite 2021-1.
 29 31  0  0  1  0            999 V2000
   14.5292   12.8953   60.7207 C   0  0  0  0  0  0
   14.2105   12.7860   59.3437 C   0  0  0  0  0  0
   15.3540   12.2601   58.6500 C   0  0  0  0  0  0
   15.7916   12.3735   60.8720 N   0  0  0  0  0  0
   16.2770   11.9810   59.6529 C   0  0  0  0  0  0
   13.6020   13.4575   61.5979 C   0  0  0  0  0  0
   12.3911   13.8250   61.1109 N   0  0  0  0  0  0
   13.0211   13.1712   58.8766 N   0  0  0  0  0  0
   12.1679   13.6675   59.7926 C   0  0  0  0  0  0
   15.4980   12.0723   57.1444 C   0  0  0  0  0  0
   14.5542   11.0329   56.5707 C   0  0  0  0  0  0
   13.9915   13.6167   62.8912 O   0  0  0  0  0  0
   14.8114   10.6353   55.2953 O   0  0  0  0  0  0
   17.5188   11.4330   59.5970 N   0  0  0  0  0  0
   13.4665   10.3179   57.0558 C   0  0  0  0  0  0
   13.9222    9.6560   54.9867 C   0  0  0  0  0  0
   10.9539   14.1013   59.3061 N   0  0  0  0  0  0
   13.0706    9.4329   56.0529 C   0  0  0  0  0  0
   16.3221   12.2674   61.7239 H   0  0  0  0  0  0
   16.5247   11.8023   56.8945 H   0  0  0  0  0  0
   15.3308   13.0233   56.6377 H   0  0  0  0  0  0
   13.2117   13.8330   63.4196 H   0  0  0  0  0  0
   17.9152   11.1568   58.7116 H   0  0  0  0  0  0
   18.0165   11.1482   60.4282 H   0  0  0  0  0  0
   13.0269   10.4149   58.0368 H   0  0  0  0  0  0
   14.0128    9.2098   54.0069 H   0  0  0  0  0  0
   11.0081   14.3511   58.3297 H   0  0  0  0  0  0
   10.3920   14.6329   59.9614 H   0  0  0  0  0  0
   12.2671    8.7112   56.0985 H   0  0  0  0  0  0
  1  2  2  0  0  0
  1  4  1  0  0  0
  1  6  1  0  0  0
  2  3  1  0  0  0
  2  8  1  0  0  0
  3 10  1  0  0  0
  3  5  2  0  0  0
  4  5  1  0  0  0
  4 19  1  0  0  0
  5 14  1  0  0  0
  6  7  2  0  0  0
  6 12  1  0  0  0
  7  9  1  0  0  0
  8  9  2  0  0  0
  9 17  1  0  0  0
 10 11  1  0  0  0
 10 20  1  0  0  0
 10 21  1  0  0  0
 11 13  1  0  0  0
 11 15  2  0  0  0
 12 22  1  0  0  0
 13 16  1  0  0  0
 14 23  1  0  0  0
 14 24  1  0  0  0
 15 18  1  0  0  0
 15 25  1  0  0  0
 16 18  2  0  0  0
 16 26  1  0  0  0
 17 27  1  0  0  0
 17 28  1  0  0  0
 18 29  1  0  0  0
M  END
> <s_m_entry_id>
11906

> <s_m_entry_name>
dock_pv.109

> <s_m_Source_Path>
/home/csk/Desktop/cluster/DUD-E-result/pnph

> <s_m_Source_File>
dock_pv.maegz

> <i_m_Source_File_Index>
109

> <chembl_id>
CHEMBL38998

> <chembl_pref_name>
None

> <i_lp_mmshare_version>
53161

> <r_lp_tautomer_probability>
1

> <s_lp_Force_Field>
OPLS_2005

> <r_lp_Energy>
-4.053735

> <b_lp_Chiralities_Consistent>
1

> <s_lp_Variant>
CHEMBL4338_lig12-1

> <s_i_glide_gridfile>
glide-grid_3bgs

> <i_i_glide_lignum>
12

> <i_i_glide_rotatable_bonds>
3

> <r_i_docking_score>
-7.63355310866437

> <r_i_glide_ligand_efficiency>
-0.424086283814687

> <r_i_glide_ligand_efficiency_sa>
-1.11142047763857

> <r_i_glide_ligand_efficiency_ln>
-1.96216546482243

> <r_i_glide_gscore>
-7.63355310866437

> <r_i_glide_lipo>
-2.16932640374685

> <r_i_glide_hbond>
-0.610220598986498

> <r_i_glide_metal>
0

> <r_i_glide_rewards>
-2.30938004299235

> <r_i_glide_evdw>
-34.5249404907227

> <r_i_glide_ecoul>
-9.04518508911133

> <r_i_glide_erotb>
0.578750955991495

> <r_i_glide_esite>
-0.0403522310273404

> <r_i_glide_emodel>
-60.4286685956073

> <r_i_glide_energy>
-43.570125579834

> <r_i_glide_einternal>
1.531325340271

> <i_i_glide_confnum>
6

> <i_i_glide_posenum>
342

> <r_i_glide_eff_state_penalty>
0

> <s_user_duplicate_titles>
CHEMBL4338_lig12

> <i_f3d_flags>
0

> <s_m_subgroup_title>
dock_pv

> <s_m_subgroupid>
dock_pv

> <b_m_subgroup_collapsed>
1

$$$$
CHEMBL4338_lig149
                    3D
 Schrodinger Suite 2021-1.
 34 36  0  0  1  0            999 V2000
   13.8059   11.6875   58.1082 C   0  0  0  0  0  0
   14.6542   12.1555   57.1542 C   0  0  0  0  0  0
   12.9533   10.6323   57.9963 N   0  0  0  0  0  0
   13.9924   12.5121   59.1802 N   0  0  0  0  0  0
   13.8267   10.4498   55.8382 N   0  0  0  0  0  0
   15.3540   13.2177   57.5735 N   0  0  0  0  0  0
   14.6920   11.5030   55.8727 C   0  0  0  0  0  0
   12.9787   10.0451   56.8363 C   0  0  0  0  0  0
   15.1483   16.9544   64.1837 P   0  0  0  0  0  0
   14.9487   13.3919   58.8045 C   0  0  0  0  0  0
   14.5518   15.6246   63.1019 C   0  0  0  0  0  0
   13.2878   12.4553   60.4750 C   0  0  0  0  0  0
   16.3066   17.7552   63.7053 O   0  0  0  0  0  0
   15.3540   11.8030   54.9059 O   0  0  0  0  0  0
   12.1601    9.0330   56.5057 N   0  0  0  0  0  0
   13.8233   17.8327   64.5048 O   0  0  0  0  0  0
   15.3972   16.1819   65.5858 O   0  0  0  0  0  0
   13.5293   15.8535   62.1778 C   0  0  0  0  0  0
   15.1509   14.3679   63.1883 C   0  0  0  0  0  0
   13.6995   13.5648   61.4343 C   0  0  0  0  0  0
   13.1044   14.8253   61.3396 C   0  0  0  0  0  0
   14.7249   13.3393   62.3541 C   0  0  0  0  0  0
   15.3049   14.1667   59.4688 H   0  0  0  0  0  0
   13.4896   11.4634   60.8845 H   0  0  0  0  0  0
   12.2251   12.5165   60.2365 H   0  0  0  0  0  0
   13.7922    9.9565   54.9601 H   0  0  0  0  0  0
   11.4331    8.7507   57.1446 H   0  0  0  0  0  0
   12.3269    8.4304   55.7058 H   0  0  0  0  0  0
   13.7571   18.6591   63.9644 H   0  0  0  0  0  0
   15.4208   16.7590   66.3720 H   0  0  0  0  0  0
   13.0689   16.8273   62.1069 H   0  0  0  0  0  0
   15.9448   14.1868   63.8987 H   0  0  0  0  0  0
   12.3194   15.0077   60.6203 H   0  0  0  0  0  0
   15.1946   12.3684   62.4218 H   0  0  0  0  0  0
  1  4  1  0  0  0
  1  3  1  0  0  0
  1  2  2  0  0  0
  2  7  1  0  0  0
  2  6  1  0  0  0
  3  8  2  0  0  0
  4 10  1  0  0  0
  4 12  1  0  0  0
  5  8  1  0  0  0
  5 26  1  0  0  0
  5  7  1  0  0  0
  6 10  2  0  0  0
  7 14  2  0  0  0
  8 15  1  0  0  0
  9 11  1  0  0  0
  9 13  2  0  0  0
  9 16  1  0  0  0
  9 17  1  0  0  0
 10 23  1  0  0  0
 11 19  1  0  0  0
 11 18  2  0  0  0
 12 20  1  0  0  0
 12 24  1  0  0  0
 12 25  1  0  0  0
 15 27  1  0  0  0
 15 28  1  0  0  0
 16 29  1  0  0  0
 17 30  1  0  0  0
 18 21  1  0  0  0
 18 31  1  0  0  0
 19 22  2  0  0  0
 19 32  1  0  0  0
 20 21  2  0  0  0
 20 22  1  0  0  0
 21 33  1  0  0  0
 22 34  1  0  0  0
M  END
> <s_m_entry_id>
11907

> <s_m_entry_name>
dock_pv.110

> <s_m_Source_Path>
/home/csk/Desktop/cluster/DUD-E-result/pnph

> <s_m_Source_File>
dock_pv.maegz

> <i_m_Source_File_Index>
110

> <chembl_id>
CHEMBL446671

> <chembl_pref_name>
None

> <i_lp_mmshare_version>
53161

> <r_lp_tautomer_probability>
0.999940409345307

> <s_lp_Force_Field>
OPLS_2005

> <r_lp_Energy>
4.010254

> <b_lp_Chiralities_Consistent>
1

> <s_lp_Variant>
CHEMBL4338_lig149-1

> <s_i_glide_gridfile>
glide-grid_3bgs

> <i_i_glide_lignum>
194

> <i_i_glide_rotatable_bonds>
5

> <r_i_docking_score>
-7.62131401426631

> <r_i_glide_ligand_efficiency>
-0.346423364284832

> <r_i_glide_ligand_efficiency_sa>
-0.970691890783908

> <r_i_glide_ligand_efficiency_ln>
-1.86292713926985

> <r_i_glide_gscore>
-7.62131401426631

> <r_i_glide_lipo>
-1.26158957335176

> <r_i_glide_hbond>
-0.319347648280536

> <r_i_glide_metal>
0

> <r_i_glide_rewards>
-2.54113441338625

> <r_i_glide_evdw>
-33.4461250305176

> <r_i_glide_ecoul>
-15.3316764831543

> <r_i_glide_erotb>
0.543194578221928

> <r_i_glide_esite>
-0.0703792334706614

> <r_i_glide_emodel>
-69.3775065131168

> <r_i_glide_energy>
-48.7778015136719

> <r_i_glide_einternal>
2.1810405254364

> <i_i_glide_confnum>
3

> <i_i_glide_posenum>
346

> <r_i_glide_eff_state_penalty>
0

> <s_user_duplicate_titles>
CHEMBL4338_lig149

> <i_f3d_flags>
0

> <s_m_subgroup_title>
dock_pv

> <s_m_subgroupid>
dock_pv

> <b_m_subgroup_collapsed>
1

$$$$
CHEMBL4338_lig60
                    3D
 Schrodinger Suite 2021-1.
 36 38  0  0  1  0            999 V2000
   13.9254   11.3368   57.2608 C   0  0  0  0  0  0
   14.7270   11.2793   56.0830 C   0  0  0  0  0  0
   14.3585   12.4846   58.0486 C   0  0  0  0  0  0
   13.5807    9.3392   55.3866 N   0  0  0  0  0  0
   14.5455   10.2367   55.1759 C   0  0  0  0  0  0
   12.9629   10.4196   57.4594 N   0  0  0  0  0  0
   15.5697   12.3584   56.1060 N   0  0  0  0  0  0
   12.8270    9.4864   56.4750 C   0  0  0  0  0  0
   15.3249   13.0795   57.2388 C   0  0  0  0  0  0
   13.8241   12.9756   59.4128 C   0  0  2  0  0  0
   12.1816   14.7646   60.4600 C   0  0  0  0  0  0
   12.8174   14.1433   59.2039 C   0  0  0  0  0  0
   15.3540   10.1776   54.1060 O   0  0  0  0  0  0
   14.8886   13.3592   60.4711 C   0  0  0  0  0  0
   11.7505    8.6330   56.5060 N   0  0  0  0  0  0
   12.1540   15.9771   60.6636 O   0  0  0  0  0  0
   11.6690   13.8289   61.3060 O   0  0  0  0  0  0
   15.9583   14.2206   60.1839 C   0  0  0  0  0  0
   14.6978   12.9606   61.8001 C   0  0  0  0  0  0
   15.5347   13.4330   62.8087 C   0  0  0  0  0  0
   16.8361   14.6330   61.1806 C   0  0  0  0  0  0
   16.6143   14.2479   62.4959 C   0  0  0  0  0  0
   16.2500   12.6330   55.4107 H   0  0  0  0  0  0
   15.8845   13.9898   57.3538 H   0  0  0  0  0  0
   13.2607   12.1398   59.8352 H   0  0  0  0  0  0
   13.3540   14.9535   58.7123 H   0  0  0  0  0  0
   12.0068   13.8330   58.5442 H   0  0  0  0  0  0
   15.1566    9.3802   53.6069 H   0  0  0  0  0  0
   11.1663    8.6624   57.3218 H   0  0  0  0  0  0
   11.7843    7.7682   55.9383 H   0  0  0  0  0  0
   11.4037   14.2329   62.1413 H   0  0  0  0  0  0
   16.1151   14.6331   59.2085 H   0  0  0  0  0  0
   13.8654   12.3261   62.0698 H   0  0  0  0  0  0
   15.3540   13.1477   63.8325 H   0  0  0  0  0  0
   17.6559   15.2929   60.9363 H   0  0  0  0  0  0
   17.2696   14.5951   63.2807 H   0  0  0  0  0  0
  1  2  1  0  0  0
  1  3  1  0  0  0
  1  6  2  0  0  0
  2  5  2  0  0  0
  2  7  1  0  0  0
  3  9  2  0  0  0
  3 10  1  0  0  0
  4  8  2  0  0  0
  4  5  1  0  0  0
  5 13  1  0  0  0
  6  8  1  0  0  0
  7  9  1  0  0  0
  7 23  1  0  0  0
  8 15  1  0  0  0
  9 24  1  0  0  0
 10 12  1  0  0  0
 10 14  1  0  0  0
 10 25  1  0  0  0
 11 12  1  0  0  0
 11 16  2  0  0  0
 11 17  1  0  0  0
 12 26  1  0  0  0
 12 27  1  0  0  0
 13 28  1  0  0  0
 14 18  2  0  0  0
 14 19  1  0  0  0
 15 29  1  0  0  0
 15 30  1  0  0  0
 17 31  1  0  0  0
 18 21  1  0  0  0
 18 32  1  0  0  0
 19 20  2  0  0  0
 19 33  1  0  0  0
 20 22  1  0  0  0
 20 34  1  0  0  0
 21 22  2  0  0  0
 21 35  1  0  0  0
 22 36  1  0  0  0
M  END
> <s_m_entry_id>
11908

> <s_m_entry_name>
dock_pv.111

> <s_m_Source_Path>
/home/csk/Desktop/cluster/DUD-E-result/pnph

> <s_m_Source_File>
dock_pv.maegz

> <i_m_Source_File_Index>
111

> <chembl_id>
CHEMBL79460

> <chembl_pref_name>
None

> <i_lp_mmshare_version>
53161

> <r_lp_tautomer_probability>
1

> <s_lp_Force_Field>
OPLS_2005

> <r_lp_Energy>
7.243505

> <b_lp_Chiralities_Consistent>
1

> <s_lp_Variant>
CHEMBL4338_lig60-1

> <s_i_glide_gridfile>
glide-grid_3bgs

> <i_i_glide_lignum>
75

> <i_i_glide_rotatable_bonds>
6

> <r_i_docking_score>
-7.60252818523692

> <r_i_glide_ligand_efficiency>
-0.345569462965315

> <r_i_glide_ligand_efficiency_sa>
-0.968299225704587

> <r_i_glide_ligand_efficiency_ln>
-1.8583351974253

> <r_i_glide_gscore>
-7.60252818523692

> <r_i_glide_lipo>
-2.79527861168938

> <r_i_glide_hbond>
-0.433664126624448

> <r_i_glide_metal>
0

> <r_i_glide_rewards>
-2.0579355375423

> <r_i_glide_evdw>
-32.595043182373

> <r_i_glide_ecoul>
-9.40493488311768

> <r_i_glide_erotb>
0.824842482205512

> <r_i_glide_esite>
-0.1

> <r_i_glide_emodel>
-56.0784106341009

> <r_i_glide_energy>
-41.9999780654907

> <r_i_glide_einternal>
6.01250267028809

> <i_i_glide_confnum>
13

> <i_i_glide_posenum>
277

> <r_i_glide_eff_state_penalty>
0

> <s_user_duplicate_titles>
CHEMBL4338_lig60

> <i_f3d_flags>
0

> <s_m_subgroup_title>
dock_pv

> <s_m_subgroupid>
dock_pv

> <b_m_subgroup_collapsed>
1

$$$$
CHEMBL4338_lig5
                    3D
 Schrodinger Suite 2021-1.
 28 30  0  0  1  0            999 V2000
   13.9836   12.6748   59.1455 C   0  0  0  0  0  0
   14.3416   12.7530   60.5050 C   0  0  0  0  0  0
   15.1102   12.2039   58.4996 N   0  0  0  0  0  0
   15.6091   12.2798   60.7082 N   0  0  0  0  0  0
   12.8007   13.0331   58.6379 N   0  0  0  0  0  0
   16.0259   11.9560   59.5153 C   0  0  0  0  0  0
   13.3846   13.2957   61.3776 C   0  0  0  0  0  0
   12.1765   13.6824   60.8969 N   0  0  0  0  0  0
   11.9635   13.5478   59.5674 C   0  0  0  0  0  0
   15.2877   12.0551   57.0509 C   0  0  0  0  0  0
   14.4857   10.9206   56.4398 C   0  0  0  0  0  0
   14.9536   10.2338   54.9056 S   0  0  0  0  0  0
   13.7540   13.4382   62.6769 O   0  0  0  0  0  0
   17.2636   11.4329   59.3060 N   0  0  0  0  0  0
   13.7006    9.0472   54.9665 C   0  0  0  0  0  0
   13.3705   10.2322   56.9199 C   0  0  0  0  0  0
   10.7825   14.0679   59.0844 N   0  0  0  0  0  0
   12.9286    9.1949   56.0983 C   0  0  0  0  0  0
   16.3521   11.9367   56.8447 H   0  0  0  0  0  0
   15.0043   13.0039   56.5912 H   0  0  0  0  0  0
   13.0138   13.7519   63.2122 H   0  0  0  0  0  0
   17.8394   11.1755   60.0946 H   0  0  0  0  0  0
   17.5659   11.1249   58.3954 H   0  0  0  0  0  0
   13.5904    8.3068   54.1839 H   0  0  0  0  0  0
   12.8922   10.4610   57.8608 H   0  0  0  0  0  0
   10.2826   14.6329   59.7597 H   0  0  0  0  0  0
   10.8942   14.3738   58.1284 H   0  0  0  0  0  0
   12.0816    8.5635   56.3309 H   0  0  0  0  0  0
  1  2  1  0  0  0
  1  3  1  0  0  0
  1  5  2  0  0  0
  2  4  1  0  0  0
  2  7  2  0  0  0
  3  6  1  0  0  0
  3 10  1  0  0  0
  4  6  2  0  0  0
  5  9  1  0  0  0
  6 14  1  0  0  0
  7 13  1  0  0  0
  7  8  1  0  0  0
  8  9  2  0  0  0
  9 17  1  0  0  0
 10 11  1  0  0  0
 10 19  1  0  0  0
 10 20  1  0  0  0
 11 12  1  0  0  0
 11 16  2  0  0  0
 12 15  1  0  0  0
 13 21  1  0  0  0
 14 22  1  0  0  0
 14 23  1  0  0  0
 15 18  2  0  0  0
 15 24  1  0  0  0
 16 18  1  0  0  0
 16 25  1  0  0  0
 17 26  1  0  0  0
 17 27  1  0  0  0
 18 28  1  0  0  0
M  END
> <s_m_entry_id>
11909

> <s_m_entry_name>
dock_pv.112

> <s_m_Source_Path>
/home/csk/Desktop/cluster/DUD-E-result/pnph

> <s_m_Source_File>
dock_pv.maegz

> <i_m_Source_File_Index>
112

> <chembl_id>
CHEMBL285627

> <chembl_pref_name>
None

> <i_lp_mmshare_version>
53161

> <r_lp_tautomer_probability>
1

> <s_lp_Force_Field>
OPLS_2005

> <r_lp_Energy>
2.75196

> <b_lp_Chiralities_Consistent>
1

> <s_lp_Variant>
CHEMBL4338_lig5-1

> <s_i_glide_gridfile>
glide-grid_3bgs

> <i_i_glide_lignum>
5

> <i_i_glide_rotatable_bonds>
3

> <r_i_docking_score>
-7.5974934057041

> <r_i_glide_ligand_efficiency>
-0.422082966983561

> <r_i_glide_ligand_efficiency_sa>
-1.10617030229858

> <r_i_glide_ligand_efficiency_ln>
-1.95289650411524

> <r_i_glide_gscore>
-7.5974934057041

> <r_i_glide_lipo>
-1.32809122585089

> <r_i_glide_hbond>
-0.637769356730792

> <r_i_glide_metal>
0

> <r_i_glide_rewards>
-3.00378597250367

> <r_i_glide_evdw>
-34.0465278625488

> <r_i_glide_ecoul>
-9.14657878875732

> <r_i_glide_erotb>
0.515646757512357

> <r_i_glide_esite>
-0.069180396690063

> <r_i_glide_emodel>
-59.1860120536263

> <r_i_glide_energy>
-43.1931066513062

> <r_i_glide_einternal>
2.23798370361328

> <i_i_glide_confnum>
6

> <i_i_glide_posenum>
58

> <r_i_glide_eff_state_penalty>
0

> <s_user_duplicate_titles>
CHEMBL4338_lig5,48137

> <i_f3d_flags>
0

> <s_m_subgroup_title>
dock_pv

> <s_m_subgroupid>
dock_pv

> <b_m_subgroup_collapsed>
1

$$$$
CHEMBL4338_lig209
                    3D
 Schrodinger Suite 2021-1.
 33 35  0  0  1  0            999 V2000
   13.1782   14.3853   60.9593 C   0  0  1  0  0  0
   12.8557   13.3865   59.8399 C   0  0  2  0  0  0
   14.0069   13.6110   58.8439 C   0  0  1  0  0  0
   15.1667   13.7458   59.7077 N   0  0  2  0  0  0
   14.7212   14.5173   60.8650 C   0  0  2  0  0  0
   11.5503   13.4759   59.2854 O   0  0  0  0  0  0
   12.5263   15.6396   60.7986 O   0  0  0  0  0  0
   14.2068   12.5202   57.7972 C   0  0  0  0  0  0
   15.5918   14.0979   62.4029 S   0  0  0  0  0  0
   15.0325   15.4497   63.4759 C   0  0  0  0  0  0
   15.1151   12.3656   56.7394 C   0  0  0  0  0  0
   13.3537   11.4475   57.7146 N   0  0  0  0  0  0
   13.6615   10.6769   56.6341 C   0  0  0  0  0  0
   14.7790   11.2131   56.0085 C   0  0  0  0  0  0
   15.3539   10.6381   54.9062 N   0  0  0  0  0  0
   14.8210    9.5433   54.4645 C   0  0  0  0  0  0
   13.6789    9.0193   55.0423 N   0  0  0  0  0  0
   12.9732    9.5164   56.1061 C   0  0  0  0  0  0
   11.9215    9.0329   56.5059 O   0  0  0  0  0  0
   12.8992   13.9574   61.9237 H   0  0  0  0  0  0
   12.9538   12.3873   60.2730 H   0  0  0  0  0  0
   13.8488   14.5446   58.3080 H   0  0  0  0  0  0
   15.9828   14.1279   59.2504 H   0  0  0  0  0  0
   14.9856   15.5575   60.6675 H   0  0  0  0  0  0
   11.5484   14.2330   58.6885 H   0  0  0  0  0  0
   11.5799   15.4645   60.7843 H   0  0  0  0  0  0
   15.4781   15.3518   64.4656 H   0  0  0  0  0  0
   13.9486   15.4340   63.5849 H   0  0  0  0  0  0
   15.3255   16.4127   63.0578 H   0  0  0  0  0  0
   15.9298   13.0327   56.5038 H   0  0  0  0  0  0
   12.5697   11.2845   58.3305 H   0  0  0  0  0  0
   15.2428    9.0087   53.6164 H   0  0  0  0  0  0
   13.3059    8.1497   54.6732 H   0  0  0  0  0  0
  1  5  1  0  0  0
  1  2  1  0  0  0
  1  7  1  0  0  0
  1 20  1  0  0  0
  2  6  1  0  0  0
  2  3  1  0  0  0
  2 21  1  0  0  0
  3  8  1  0  0  0
  3  4  1  0  0  0
  3 22  1  0  0  0
  4  5  1  0  0  0
  4 23  1  0  0  0
  5  9  1  0  0  0
  5 24  1  0  0  0
  6 25  1  0  0  0
  7 26  1  0  0  0
  8 11  2  0  0  0
  8 12  1  0  0  0
  9 10  1  0  0  0
 10 27  1  0  0  0
 10 28  1  0  0  0
 10 29  1  0  0  0
 11 14  1  0  0  0
 11 30  1  0  0  0
 12 13  1  0  0  0
 12 31  1  0  0  0
 13 14  2  0  0  0
 13 18  1  0  0  0
 14 15  1  0  0  0
 15 16  2  0  0  0
 16 17  1  0  0  0
 16 32  1  0  0  0
 17 18  1  0  0  0
 17 33  1  0  0  0
 18 19  2  0  0  0
M  END
> <s_m_entry_id>
11910

> <s_m_entry_name>
dock_pv.113

> <s_m_Source_Path>
/home/csk/Desktop/cluster/DUD-E-result/pnph

> <s_m_Source_File>
dock_pv.maegz

> <i_m_Source_File_Index>
113

> <chembl_id>
CHEMBL1275659

> <chembl_pref_name>
None

> <i_lp_mmshare_version>
53161

> <r_lp_tautomer_probability>
1

> <s_lp_Force_Field>
OPLS_2005

> <r_lp_Energy>
43.253801

> <b_lp_Chiralities_Consistent>
1

> <s_lp_Variant>
CHEMBL4338_lig209-1

> <s_i_glide_gridfile>
glide-grid_3bgs

> <i_i_glide_lignum>
281

> <i_i_glide_rotatable_bonds>
4

> <r_i_docking_score>
-7.58660785105084

> <r_i_glide_ligand_efficiency>
-0.399295150055308

> <r_i_glide_ligand_efficiency_sa>
-1.06547983568851

> <r_i_glide_ligand_efficiency_ln>
-1.92336803563737

> <r_i_glide_gscore>
-7.58660785105084

> <r_i_glide_lipo>
-2.50617409291817

> <r_i_glide_hbond>
-0.35519131744152

> <r_i_glide_metal>
0

> <r_i_glide_rewards>
-1.66060030272346

> <r_i_glide_evdw>
-38.8444862365723

> <r_i_glide_ecoul>
-8.67280292510986

> <r_i_glide_erotb>
0.226985333203305

> <r_i_glide_esite>
-0.0484827205759072

> <r_i_glide_emodel>
-67.0505263519353

> <r_i_glide_energy>
-47.5172891616821

> <r_i_glide_einternal>
3.63508176803589

> <i_i_glide_confnum>
3

> <i_i_glide_posenum>
178

> <r_i_glide_eff_state_penalty>
0

> <s_user_duplicate_titles>
CHEMBL4338_lig209

> <i_f3d_flags>
0

> <s_m_subgroup_title>
dock_pv

> <s_m_subgroupid>
dock_pv

> <b_m_subgroup_collapsed>
1

$$$$
CHEMBL4338_lig61
                    3D
 Schrodinger Suite 2021-1.
 34 36  0  0  1  0            999 V2000
   15.0631   13.9414   61.9286 C   0  0  0  0  0  0
   16.4344   14.0533   62.2989 C   0  0  0  0  0  0
   14.9213   12.8553   60.9846 C   0  0  0  0  0  0
   15.9026   15.9383   63.6231 N   0  0  0  0  0  0
   16.8369   15.0769   63.1668 C   0  0  0  0  0  0
   14.1543   14.7839   62.4211 N   0  0  0  0  0  0
   17.0890   13.0307   61.6560 N   0  0  0  0  0  0
   14.6286   15.7414   63.2393 C   0  0  0  0  0  0
   16.1973   12.3180   60.8987 C   0  0  0  0  0  0
   13.6881   12.3609   60.2218 C   0  0  2  0  0  0
   12.5544   15.7423   59.7061 N   0  0  0  0  0  0
   12.4932   14.6279   60.0157 C   0  0  0  0  0  0
   18.1538   15.1617   63.5053 O   0  0  0  0  0  0
   13.6979   16.6354   63.7057 N   0  0  0  0  0  0
   13.9760   12.1209   58.7316 C   0  0  0  0  0  0
   12.4130   13.2148   60.4290 C   0  0  0  0  0  0
   13.5023   10.9590   58.1172 C   0  0  0  0  0  0
   14.7140   13.0387   57.9755 C   0  0  0  0  0  0
   14.9805   12.7915   56.6301 C   0  0  0  0  0  0
   13.7577   10.7095   56.7724 C   0  0  0  0  0  0
   14.5003   11.6272   56.0350 C   0  0  0  0  0  0
   18.0688   12.7852   61.7129 H   0  0  0  0  0  0
   16.5522   11.4759   60.3195 H   0  0  0  0  0  0
   13.4477   11.3860   60.6527 H   0  0  0  0  0  0
   18.2665   15.8804   64.1313 H   0  0  0  0  0  0
   12.7816   16.5242   63.3044 H   0  0  0  0  0  0
   14.0412   17.5292   64.0272 H   0  0  0  0  0  0
   11.5792   12.7713   59.8860 H   0  0  0  0  0  0
   12.1278   13.2078   61.4814 H   0  0  0  0  0  0
   12.9542   10.2333   58.6936 H   0  0  0  0  0  0
   15.0861   13.9425   58.4348 H   0  0  0  0  0  0
   15.5487   13.5012   56.0478 H   0  0  0  0  0  0
   13.3890    9.8065   56.3053 H   0  0  0  0  0  0
   14.6972   11.4353   54.9908 H   0  0  0  0  0  0
  1  2  1  0  0  0
  1  3  1  0  0  0
  1  6  2  0  0  0
  2  5  2  0  0  0
  2  7  1  0  0  0
  3  9  2  0  0  0
  3 10  1  0  0  0
  4  8  2  0  0  0
  4  5  1  0  0  0
  5 13  1  0  0  0
  6  8  1  0  0  0
  7  9  1  0  0  0
  7 22  1  0  0  0
  8 14  1  0  0  0
  9 23  1  0  0  0
 10 15  1  0  0  0
 10 16  1  0  0  0
 10 24  1  0  0  0
 11 12  3  0  0  0
 12 16  1  0  0  0
 13 25  1  0  0  0
 14 26  1  0  0  0
 14 27  1  0  0  0
 15 17  1  0  0  0
 15 18  2  0  0  0
 16 28  1  0  0  0
 16 29  1  0  0  0
 17 20  2  0  0  0
 17 30  1  0  0  0
 18 19  1  0  0  0
 18 31  1  0  0  0
 19 21  2  0  0  0
 19 32  1  0  0  0
 20 21  1  0  0  0
 20 33  1  0  0  0
 21 34  1  0  0  0
M  END
> <s_m_entry_id>
11911

> <s_m_entry_name>
dock_pv.114

> <s_m_Source_Path>
/home/csk/Desktop/cluster/DUD-E-result/pnph

> <s_m_Source_File>
dock_pv.maegz

> <i_m_Source_File_Index>
114

> <chembl_id>
CHEMBL124429

> <chembl_pref_name>
None

> <i_lp_mmshare_version>
53161

> <r_lp_tautomer_probability>
1

> <s_lp_Force_Field>
OPLS_2005

> <r_lp_Energy>
5.582518

> <b_lp_Chiralities_Consistent>
1

> <s_lp_Variant>
CHEMBL4338_lig61-1

> <s_i_glide_gridfile>
glide-grid_3bgs

> <i_i_glide_lignum>
77

> <i_i_glide_rotatable_bonds>
4

> <r_i_docking_score>
-7.58520487078634

> <r_i_glide_ligand_efficiency>
-0.361200231942207

> <r_i_glide_ligand_efficiency_sa>
-0.996524051408509

> <r_i_glide_ligand_efficiency_ln>
-1.87542657695228

> <r_i_glide_gscore>
-7.58520487078634

> <r_i_glide_lipo>
-2.95972593234406

> <r_i_glide_hbond>
-0.538380634119152

> <r_i_glide_metal>
0

> <r_i_glide_rewards>
-2.21036552416259

> <r_i_glide_evdw>
-33.6679611206055

> <r_i_glide_ecoul>
-4.37251329421997

> <r_i_glide_erotb>
0.462542270002731

> <r_i_glide_esite>
0

> <r_i_glide_emodel>
-53.8476807447046

> <r_i_glide_energy>
-38.0404744148254

> <r_i_glide_einternal>
3.80266189575195

> <i_i_glide_confnum>
4

> <i_i_glide_posenum>
259

> <r_i_glide_eff_state_penalty>
0

> <s_user_duplicate_titles>
CHEMBL4338_lig61

> <i_f3d_flags>
0

> <s_m_subgroup_title>
dock_pv

> <s_m_subgroupid>
dock_pv

> <b_m_subgroup_collapsed>
1

$$$$
CHEMBL4338_lig126
                    3D
 Schrodinger Suite 2021-1.
 36 38  0  0  1  0            999 V2000
   14.2784   10.8821   57.2745 C   0  0  0  0  0  0
   14.8121   12.1287   57.7290 C   0  0  0  0  0  0
   14.6436   12.2031   59.1443 C   0  0  0  0  0  0
   13.9815   14.3859   59.9943 N   0  0  2  0  0  0
   13.8262   10.2336   58.3960 N   0  0  0  0  0  0
   12.5820   14.0153   60.2967 C   0  0  1  0  0  0
   14.3321   10.5582   55.9130 C   0  0  0  0  0  0
   12.0981   14.9360   61.4443 C   0  0  1  0  0  0
   14.0503   11.0261   59.4938 C   0  0  0  0  0  0
   14.9802   13.3233   60.0736 C   0  0  0  0  0  0
   15.3519   13.0139   56.8930 N   0  0  0  0  0  0
   13.4192   15.2884   62.1238 C   0  0  1  0  0  0
   14.9538   11.4334   55.0938 N   0  0  0  0  0  0
   14.3392   15.4368   60.9239 C   0  0  0  0  0  0
   15.3906   12.6075   55.6092 C   0  0  0  0  0  0
   13.7865    9.3770   55.4912 O   0  0  0  0  0  0
   11.3548   16.0803   61.0387 O   0  0  0  0  0  0
   13.4003   16.3812   63.0188 O   0  0  0  0  0  0
   11.7035   14.0496   59.0271 C   0  0  0  0  0  0
   10.3373   13.8330   59.3055 O   0  0  0  0  0  0
   13.3957    9.3232   58.4677 H   0  0  0  0  0  0
   12.5723   12.9949   60.6836 H   0  0  0  0  0  0
   11.4665   14.3460   62.1057 H   0  0  0  0  0  0
   13.7579   10.6882   60.4753 H   0  0  0  0  0  0
   15.9648   13.7271   59.8291 H   0  0  0  0  0  0
   15.0474   12.9615   61.1022 H   0  0  0  0  0  0
   13.7718   14.4294   62.6989 H   0  0  0  0  0  0
   14.1136   16.3448   60.3747 H   0  0  0  0  0  0
   15.3970   15.4830   61.1914 H   0  0  0  0  0  0
   15.7540   13.3303   54.9060 H   0  0  0  0  0  0
   13.3347    8.8656   56.1631 H   0  0  0  0  0  0
   10.4135   15.9006   61.1882 H   0  0  0  0  0  0
   12.7308   16.1785   63.6776 H   0  0  0  0  0  0
   12.0423   13.3213   58.2901 H   0  0  0  0  0  0
   11.7500   15.0350   58.5805 H   0  0  0  0  0  0
    9.9954   14.5633   59.8387 H   0  0  0  0  0  0
  1  2  1  0  0  0
  1  5  1  0  0  0
  1  7  2  0  0  0
  2  3  1  0  0  0
  2 11  2  0  0  0
  3  9  2  0  0  0
  3 10  1  0  0  0
  4  6  1  0  0  0
  4 10  1  0  0  0
  4 14  1  0  0  0
  5  9  1  0  0  0
  5 21  1  0  0  0
  6  8  1  0  0  0
  6 19  1  0  0  0
  6 22  1  0  0  0
  7 13  1  0  0  0
  7 16  1  0  0  0
  8 12  1  0  0  0
  8 17  1  0  0  0
  8 23  1  0  0  0
  9 24  1  0  0  0
 10 25  1  0  0  0
 10 26  1  0  0  0
 11 15  1  0  0  0
 12 14  1  0  0  0
 12 18  1  0  0  0
 12 27  1  0  0  0
 13 15  2  0  0  0
 14 28  1  0  0  0
 14 29  1  0  0  0
 15 30  1  0  0  0
 16 31  1  0  0  0
 17 32  1  0  0  0
 18 33  1  0  0  0
 19 20  1  0  0  0
 19 34  1  0  0  0
 19 35  1  0  0  0
 20 36  1  0  0  0
M  END
> <s_m_entry_id>
11913

> <s_m_entry_name>
dock_pv.116

> <s_m_Source_Path>
/home/csk/Desktop/cluster/DUD-E-result/pnph

> <s_m_Source_File>
dock_pv.maegz

> <i_m_Source_File_Index>
116

> <chembl_id>
CHEMBL543401

> <chembl_pref_name>
None

> <i_lp_mmshare_version>
53161

> <r_lp_tautomer_probability>
1

> <s_lp_Force_Field>
OPLS_2005

> <r_lp_Energy>
56.84862

> <b_lp_Chiralities_Consistent>
1

> <s_lp_Variant>
CHEMBL4338_lig126-2

> <s_i_glide_gridfile>
glide-grid_3bgs

> <i_i_glide_lignum>
161

> <i_i_glide_rotatable_bonds>
7

> <r_i_docking_score>
-7.57449962512772

> <r_i_glide_ligand_efficiency>
-0.378724981256386

> <r_i_glide_ligand_efficiency_sa>
-1.02801775994035

> <r_i_glide_ligand_efficiency_ln>
-1.89564743245188

> <r_i_glide_gscore>
-7.57449962512772

> <r_i_glide_lipo>
-1.80042254310288

> <r_i_glide_hbond>
-0.262971423084336

> <r_i_glide_metal>
0

> <r_i_glide_rewards>
-2.01475866666667

> <r_i_glide_evdw>
-20.3665466308594

> <r_i_glide_ecoul>
-21.11741065979

> <r_i_glide_erotb>
0.689591938237633

> <r_i_glide_esite>
0

> <r_i_glide_emodel>
-55.4405857061907

> <r_i_glide_energy>
-41.4839572906494

> <r_i_glide_einternal>
6.8036732673645

> <i_i_glide_confnum>
45

> <i_i_glide_posenum>
11

> <r_i_glide_eff_state_penalty>
0

> <s_user_duplicate_titles>
CHEMBL4338_lig126

> <i_f3d_flags>
0

> <s_m_subgroup_title>
dock_pv

> <s_m_subgroupid>
dock_pv

> <b_m_subgroup_collapsed>
1

$$$$
CHEMBL4338_lig137
                    3D
 Schrodinger Suite 2021-1.
 32 34  0  0  1  0            999 V2000
   13.4429   14.5509   61.7015 C   0  0  0  0  0  0
   14.4781   16.0915   63.1100 C   0  0  0  0  0  0
   14.5533   14.7570   62.6060 C   0  0  0  0  0  0
   13.0241   13.2855   60.9678 C   0  0  2  0  0  0
   14.1367   12.3818   60.7437 N   0  0  2  0  0  0
   13.3539   16.6574   62.5501 N   0  0  0  0  0  0
   12.3688   13.5297   59.5852 C   0  0  1  0  0  0
   12.7587   15.7589   61.7057 C   0  0  0  0  0  0
   15.4537   16.5572   64.0026 C   0  0  0  0  0  0
   13.0141   12.4668   58.6592 C   0  0  2  0  0  0
   13.7150   11.5156   59.6534 C   0  0  1  0  0  0
   15.5313   13.9271   62.9944 N   0  0  0  0  0  0
   16.4386   15.7008   64.3743 N   0  0  0  0  0  0
   16.4291   14.4465   63.8666 C   0  0  0  0  0  0
   15.3539   17.8504   64.4357 O   0  0  0  0  0  0
   10.9544   13.4333   59.6791 O   0  0  0  0  0  0
   13.8992   13.0329   57.7062 O   0  0  0  0  0  0
   14.8512   10.6226   59.1031 C   0  0  0  0  0  0
   15.9494   11.2690   58.7056 F   0  0  0  0  0  0
   12.3306   12.7712   61.6392 H   0  0  0  0  0  0
   14.4616   11.9197   61.5831 H   0  0  0  0  0  0
   13.0022   17.5950   62.6954 H   0  0  0  0  0  0
   12.6306   14.5191   59.2054 H   0  0  0  0  0  0
   11.8535   16.0381   61.1866 H   0  0  0  0  0  0
   12.2491   11.9128   58.1144 H   0  0  0  0  0  0
   12.9538   10.8502   60.0573 H   0  0  0  0  0  0
   17.2231   13.7908   64.1915 H   0  0  0  0  0  0
   14.6801   18.3632   63.9793 H   0  0  0  0  0  0
   10.6560   13.9808   60.4138 H   0  0  0  0  0  0
   13.4054   13.6791   57.1864 H   0  0  0  0  0  0
   14.5025   10.0389   58.2504 H   0  0  0  0  0  0
   15.1769    9.9115   59.8636 H   0  0  0  0  0  0
  1  3  1  0  0  0
  1  4  1  0  0  0
  1  8  2  0  0  0
  2  3  1  0  0  0
  2  9  2  0  0  0
  2  6  1  0  0  0
  3 12  2  0  0  0
  4  5  1  0  0  0
  4  7  1  0  0  0
  4 20  1  0  0  0
  5 11  1  0  0  0
  5 21  1  0  0  0
  6  8  1  0  0  0
  6 22  1  0  0  0
  7 10  1  0  0  0
  7 16  1  0  0  0
  7 23  1  0  0  0
  8 24  1  0  0  0
  9 15  1  0  0  0
  9 13  1  0  0  0
 10 17  1  0  0  0
 10 11  1  0  0  0
 10 25  1  0  0  0
 11 18  1  0  0  0
 11 26  1  0  0  0
 12 14  1  0  0  0
 13 14  2  0  0  0
 14 27  1  0  0  0
 15 28  1  0  0  0
 16 29  1  0  0  0
 17 30  1  0  0  0
 18 19  1  0  0  0
 18 31  1  0  0  0
 18 32  1  0  0  0
M  END
> <s_m_entry_id>
11914

> <s_m_entry_name>
dock_pv.117

> <s_m_Source_Path>
/home/csk/Desktop/cluster/DUD-E-result/pnph

> <s_m_Source_File>
dock_pv.maegz

> <i_m_Source_File_Index>
117

> <chembl_id>
CHEMBL117383

> <chembl_pref_name>
None

> <i_lp_mmshare_version>
53161

> <r_lp_tautomer_probability>
1

> <s_lp_Force_Field>
OPLS_2005

> <r_lp_Energy>
30.883307

> <b_lp_Chiralities_Consistent>
1

> <s_lp_Variant>
CHEMBL4338_lig137-2

> <s_i_glide_gridfile>
glide-grid_3bgs

> <i_i_glide_lignum>
180

> <i_i_glide_rotatable_bonds>
5

> <r_i_docking_score>
-7.56598294290502

> <r_i_glide_ligand_efficiency>
-0.398209628573949

> <r_i_glide_ligand_efficiency_sa>
-1.06258322838077

> <r_i_glide_ligand_efficiency_ln>
-1.91813917844

> <r_i_glide_gscore>
-7.56598294290502

> <r_i_glide_lipo>
-1.60901620867831

> <r_i_glide_hbond>
-0.944874006605605

> <r_i_glide_metal>
0

> <r_i_glide_rewards>
-1.96495091193553

> <r_i_glide_evdw>
-27.1552238464355

> <r_i_glide_ecoul>
-12.9160528182983

> <r_i_glide_erotb>
0.248027299380948

> <r_i_glide_esite>
0

> <r_i_glide_emodel>
-54.5753950866253

> <r_i_glide_energy>
-40.0712766647339

> <r_i_glide_einternal>
4.24573707580566

> <i_i_glide_confnum>
1

> <i_i_glide_posenum>
344

> <r_i_glide_eff_state_penalty>
0

> <s_user_duplicate_titles>
CHEMBL4338_lig137,189957

> <i_f3d_flags>
0

> <s_m_subgroup_title>
dock_pv

> <s_m_subgroupid>
dock_pv

> <b_m_subgroup_collapsed>
1

$$$$
CHEMBL4338_lig143
                    3D
 Schrodinger Suite 2021-1.
 41 43  0  0  1  0            999 V2000
   15.6670   15.3899   63.3397 C   0  0  0  0  0  0
   16.9357   15.8643   63.1384 C   0  0  0  0  0  0
   14.6650   15.9784   64.0606 N   0  0  0  0  0  0
   15.6271   14.1967   62.6726 N   0  0  0  0  0  0
   16.2692   17.6575   64.4164 N   0  0  0  0  0  0
   17.6617   15.0330   62.3714 N   0  0  0  0  0  0
   17.3200   17.1436   63.7060 C   0  0  0  0  0  0
   15.0139   17.1066   64.5811 C   0  0  0  0  0  0
   16.8417   14.0422   62.1071 C   0  0  0  0  0  0
   14.6383    9.6187   54.8803 P   0  0  0  0  0  0
   14.5190   13.2301   62.6141 C   0  0  0  0  0  0
   18.3775   17.7567   63.5800 O   0  0  0  0  0  0
   15.7540   10.5998   54.9060 O   0  0  0  0  0  0
   13.3992   10.2632   57.2376 C   0  0  0  0  0  0
   14.1540   17.8206   65.3060 N   0  0  0  0  0  0
   13.9799   10.6846   58.3750 C   0  0  0  0  0  0
   13.8654   13.0999   61.2539 C   0  0  0  0  0  0
   14.9540    8.2330   54.1056 O   0  0  0  0  0  0
   13.3540   10.1602   54.1060 O   0  0  0  0  0  0
   13.8506    9.0676   56.4331 C   0  0  0  0  0  0
   14.2001   12.0228   60.4309 C   0  0  0  0  0  0
   13.5878   11.8520   59.1876 C   0  0  0  0  0  0
   12.2855   13.8636   59.5977 C   0  0  0  0  0  0
   12.9026   14.0204   60.8373 C   0  0  0  0  0  0
   12.6293   12.7888   58.7757 C   0  0  0  0  0  0
   17.0716   13.1639   61.5195 H   0  0  0  0  0  0
   13.7873   13.5202   63.3676 H   0  0  0  0  0  0
   14.9540   12.2747   62.9060 H   0  0  0  0  0  0
   16.4541   18.5474   64.8504 H   0  0  0  0  0  0
   12.5540   10.7794   56.8264 H   0  0  0  0  0  0
   13.2606   17.4131   65.5260 H   0  0  0  0  0  0
   14.3041   18.8034   65.4766 H   0  0  0  0  0  0
   14.8298   10.1238   58.7396 H   0  0  0  0  0  0
   14.2481    7.5417   54.0888 H   0  0  0  0  0  0
   12.5743    9.5741   54.1060 H   0  0  0  0  0  0
   13.0041    8.4174   56.2070 H   0  0  0  0  0  0
   14.5540    8.5030   57.0302 H   0  0  0  0  0  0
   14.9361   11.3062   60.7687 H   0  0  0  0  0  0
   11.5486   14.5812   59.2674 H   0  0  0  0  0  0
   12.6299   14.8477   61.4774 H   0  0  0  0  0  0
   12.1540   12.7074   57.8104 H   0  0  0  0  0  0
  1  4  1  0  0  0
  1  3  1  0  0  0
  1  2  2  0  0  0
  2  7  1  0  0  0
  2  6  1  0  0  0
  3  8  2  0  0  0
  4  9  1  0  0  0
  4 11  1  0  0  0
  5  8  1  0  0  0
  5 29  1  0  0  0
  5  7  1  0  0  0
  6  9  2  0  0  0
  7 12  2  0  0  0
  8 15  1  0  0  0
  9 26  1  0  0  0
 10 20  1  0  0  0
 10 13  2  0  0  0
 10 18  1  0  0  0
 10 19  1  0  0  0
 11 17  1  0  0  0
 11 27  1  0  0  0
 11 28  1  0  0  0
 14 16  2  0  0  0
 14 20  1  0  0  0
 14 30  1  0  0  0
 15 31  1  0  0  0
 15 32  1  0  0  0
 16 22  1  0  0  0
 16 33  1  0  0  0
 17 21  2  0  0  0
 17 24  1  0  0  0
 18 34  1  0  0  0
 19 35  1  0  0  0
 20 36  1  0  0  0
 20 37  1  0  0  0
 21 22  1  0  0  0
 21 38  1  0  0  0
 22 25  2  0  0  0
 23 24  2  0  0  0
 23 25  1  0  0  0
 23 39  1  0  0  0
 24 40  1  0  0  0
 25 41  1  0  0  0
M  END
> <s_m_entry_id>
11915

> <s_m_entry_name>
dock_pv.118

> <s_m_Source_Path>
/home/csk/Desktop/cluster/DUD-E-result/pnph

> <s_m_Source_File>
dock_pv.maegz

> <i_m_Source_File_Index>
118

> <chembl_id>
CHEMBL325716

> <chembl_pref_name>
None

> <i_lp_mmshare_version>
53161

> <r_lp_tautomer_probability>
0.999940409345307

> <s_lp_Force_Field>
OPLS_2005

> <r_lp_Energy>
4.593095

> <b_lp_Chiralities_Consistent>
1

> <s_lp_Variant>
CHEMBL4338_lig143-1

> <s_i_glide_gridfile>
glide-grid_3bgs

> <i_i_glide_lignum>
188

> <i_i_glide_rotatable_bonds>
7

> <r_i_docking_score>
-7.56434246280668

> <r_i_glide_ligand_efficiency>
-0.302573698512267

> <r_i_glide_ligand_efficiency_sa>
-0.884730860617262

> <r_i_glide_ligand_efficiency_ln>
-1.79297584873643

> <r_i_glide_gscore>
-7.56434246280668

> <r_i_glide_lipo>
-1.87249501843812

> <r_i_glide_hbond>
-0.575429641000478

> <r_i_glide_metal>
0

> <r_i_glide_rewards>
-1.84835238692461

> <r_i_glide_evdw>
-31.5783653259277

> <r_i_glide_ecoul>
-16.1611347198486

> <r_i_glide_erotb>
0.735023057830207

> <r_i_glide_esite>
0

> <r_i_glide_emodel>
-67.827912253132

> <r_i_glide_energy>
-47.7395000457764

> <r_i_glide_einternal>
1.51378428936005

> <i_i_glide_confnum>
96

> <i_i_glide_posenum>
148

> <r_i_glide_eff_state_penalty>
0

> <s_user_duplicate_titles>
CHEMBL4338_lig143,191523

> <i_f3d_flags>
0

> <s_m_subgroup_title>
dock_pv

> <s_m_subgroupid>
dock_pv

> <b_m_subgroup_collapsed>
1

$$$$
CHEMBL4338_lig17
                    3D
 Schrodinger Suite 2021-1.
 16 17  0  0  1  0            999 V2000
   15.3540   10.2731   54.6334 N   0  0  0  0  0  0
   14.7520   11.0033   55.6136 C   0  0  0  0  0  0
   13.6497   10.6720   56.3484 C   0  0  0  0  0  0
   13.6663    8.7181   55.1312 N   0  0  0  0  0  0
   12.9540    9.4330   56.0580 C   0  0  0  0  0  0
   14.8061    9.1183   54.4595 C   0  0  0  0  0  0
   13.3725   11.6178   57.2658 N   0  0  0  0  0  0
   15.1673   12.1980   56.1060 N   0  0  0  0  0  0
   14.3121   12.5188   57.0945 C   0  0  0  0  0  0
   11.8845    9.0330   56.5060 O   0  0  0  0  0  0
   15.3340    8.2330   53.6152 N   0  0  0  0  0  0
   13.2736    7.8078   54.9060 H   0  0  0  0  0  0
   15.9683   12.7288   55.8007 H   0  0  0  0  0  0
   14.4265   13.4330   57.6596 H   0  0  0  0  0  0
   16.1374    8.4875   53.0564 H   0  0  0  0  0  0
   14.8646    7.3409   53.4678 H   0  0  0  0  0  0
  1  2  1  0  0  0
  1  6  2  0  0  0
  2  3  2  0  0  0
  2  8  1  0  0  0
  3  7  1  0  0  0
  3  5  1  0  0  0
  4  6  1  0  0  0
  4  5  1  0  0  0
  4 12  1  0  0  0
  5 10  2  0  0  0
  6 11  1  0  0  0
  7  9  2  0  0  0
  8  9  1  0  0  0
  8 13  1  0  0  0
  9 14  1  0  0  0
 11 15  1  0  0  0
 11 16  1  0  0  0
M  END
> <s_m_entry_id>
11916

> <s_m_entry_name>
dock_pv.119

> <s_m_Source_Path>
/home/csk/Desktop/cluster/DUD-E-result/pnph

> <s_m_Source_File>
dock_pv.maegz

> <i_m_Source_File_Index>
119

> <chembl_id>
CHEMBL219568

> <chembl_pref_name>
GUANINE

> <i_lp_mmshare_version>
53161

> <r_lp_tautomer_probability>
0.882445856688025

> <s_lp_Force_Field>
OPLS_2005

> <r_lp_Energy>
3.271384

> <b_lp_Chiralities_Consistent>
1

> <s_lp_Variant>
CHEMBL4338_lig17-1

> <s_i_glide_gridfile>
glide-grid_3bgs

> <i_i_glide_lignum>
17

> <i_i_glide_rotatable_bonds>
0

> <r_i_docking_score>
-7.56044884560214

> <r_i_glide_ligand_efficiency>
-0.687313531418377

> <r_i_glide_ligand_efficiency_sa>
-1.52857160863157

> <r_i_glide_ligand_efficiency_ln>
-2.2250388074426

> <r_i_glide_gscore>
-7.56044884560214

> <r_i_glide_lipo>
-0.395971173603078

> <r_i_glide_hbond>
-0.854509825233375

> <r_i_glide_metal>
0

> <r_i_glide_rewards>
-3.83619413094986

> <r_i_glide_evdw>
-23.8517379760742

> <r_i_glide_ecoul>
-7.55555534362793

> <r_i_glide_erotb>
0

> <r_i_glide_esite>
-0.147853515467929

> <r_i_glide_emodel>
-46.9946105773312

> <r_i_glide_energy>
-31.4072933197021

> <r_i_glide_einternal>
0

> <i_i_glide_confnum>
1

> <i_i_glide_posenum>
305

> <r_i_glide_eff_state_penalty>
0

> <s_user_duplicate_titles>
CHEMBL4338_lig17,CHEMBL4338_lig17

> <i_f3d_flags>
0

> <s_m_subgroup_title>
dock_pv

> <s_m_subgroupid>
dock_pv

> <b_m_subgroup_collapsed>
1

$$$$
CHEMBL4338_lig51
                    3D
 Schrodinger Suite 2021-1.
 42 44  0  0  1  0            999 V2000
   15.3459   13.7074   60.9097 C   0  0  0  0  0  0
   15.1354   13.6678   62.3190 C   0  0  0  0  0  0
   14.1749   13.1017   60.2773 C   0  0  0  0  0  0
   17.2113   14.7219   62.6809 N   0  0  0  0  0  0
   16.0740   14.2137   63.1991 C   0  0  0  0  0  0
   16.4687   14.2599   60.4200 N   0  0  0  0  0  0
   13.9374   13.0393   62.5091 N   0  0  0  0  0  0
   17.3540   14.7148   61.3450 C   0  0  0  0  0  0
   13.3893   12.6996   61.3286 C   0  0  0  0  0  0
   13.7644   12.9055   58.8188 C   0  0  2  0  0  0
   11.5705   14.3608   59.3060 C   0  0  0  0  0  0
   12.2278   13.1453   58.6247 C   0  0  0  0  0  0
   15.7689   14.2029   64.5304 O   0  0  0  0  0  0
   18.5323   15.2855   60.9060 N   0  0  0  0  0  0
   12.1774   15.3186   59.7807 O   0  0  0  0  0  0
   14.0740   11.4436   58.3255 C   0  0  0  0  0  0
   10.2160   14.2330   59.3060 O   0  0  0  0  0  0
   13.9408   11.2225   56.7955 C   0  0  0  0  0  0
   15.4409   10.8698   58.7293 C   0  0  0  0  0  0
   16.5540   11.6680   58.0352 C   0  0  0  0  0  0
   14.9358   12.0970   56.0203 C   0  0  0  0  0  0
   16.3811   11.8695   56.5007 C   0  0  0  0  0  0
   13.4879   12.8131   63.3923 H   0  0  0  0  0  0
   12.4282   12.2330   61.3410 H   0  0  0  0  0  0
   14.3023   13.6459   58.2264 H   0  0  0  0  0  0
   11.9702   13.1627   57.5687 H   0  0  0  0  0  0
   11.7257   12.2734   59.0362 H   0  0  0  0  0  0
   14.8777   13.8812   64.6699 H   0  0  0  0  0  0
   18.4847   15.6041   59.9510 H   0  0  0  0  0  0
   19.0237   15.8331   61.5916 H   0  0  0  0  0  0
   13.3519   10.7731   58.7960 H   0  0  0  0  0  0
    9.7963   14.8932   59.8831 H   0  0  0  0  0  0
   12.9540   11.4824   56.4394 H   0  0  0  0  0  0
   14.0922   10.1715   56.5410 H   0  0  0  0  0  0
   15.4826    9.8072   58.5060 H   0  0  0  0  0  0
   15.5853   10.9264   59.8089 H   0  0  0  0  0  0
   16.5540   12.6330   58.5117 H   0  0  0  0  0  0
   17.5233   11.2331   58.2662 H   0  0  0  0  0  0
   14.6697   13.1499   56.1161 H   0  0  0  0  0  0
   14.8665   11.8795   54.9537 H   0  0  0  0  0  0
   16.9540   12.7364   56.1821 H   0  0  0  0  0  0
   16.8143   11.0330   55.9603 H   0  0  0  0  0  0
  1  2  1  0  0  0
  1  3  1  0  0  0
  1  6  2  0  0  0
  2  5  2  0  0  0
  2  7  1  0  0  0
  3  9  2  0  0  0
  3 10  1  0  0  0
  4  8  2  0  0  0
  4  5  1  0  0  0
  5 13  1  0  0  0
  6  8  1  0  0  0
  7  9  1  0  0  0
  7 23  1  0  0  0
  8 14  1  0  0  0
  9 24  1  0  0  0
 10 12  1  0  0  0
 10 16  1  0  0  0
 10 25  1  0  0  0
 11 12  1  0  0  0
 11 15  2  0  0  0
 11 17  1  0  0  0
 12 26  1  0  0  0
 12 27  1  0  0  0
 13 28  1  0  0  0
 14 29  1  0  0  0
 14 30  1  0  0  0
 16 18  1  0  0  0
 16 19  1  0  0  0
 16 31  1  0  0  0
 17 32  1  0  0  0
 18 21  1  0  0  0
 18 33  1  0  0  0
 18 34  1  0  0  0
 19 20  1  0  0  0
 19 35  1  0  0  0
 19 36  1  0  0  0
 20 22  1  0  0  0
 20 37  1  0  0  0
 20 38  1  0  0  0
 21 22  1  0  0  0
 21 39  1  0  0  0
 21 40  1  0  0  0
 22 41  1  0  0  0
 22 42  1  0  0  0
M  END
> <s_m_entry_id>
11917

> <s_m_entry_name>
dock_pv.120

> <s_m_Source_Path>
/home/csk/Desktop/cluster/DUD-E-result/pnph

> <s_m_Source_File>
dock_pv.maegz

> <i_m_Source_File_Index>
120

> <chembl_id>
CHEMBL126109

> <chembl_pref_name>
None

> <i_lp_mmshare_version>
53161

> <r_lp_tautomer_probability>
1

> <s_lp_Force_Field>
OPLS_2005

> <r_lp_Energy>
14.373696

> <b_lp_Chiralities_Consistent>
1

> <s_lp_Variant>
CHEMBL4338_lig51-1

> <s_i_glide_gridfile>
glide-grid_3bgs

> <i_i_glide_lignum>
62

> <i_i_glide_rotatable_bonds>
6

> <r_i_docking_score>
-7.55719012900718

> <r_i_glide_ligand_efficiency>
-0.343508642227599

> <r_i_glide_ligand_efficiency_sa>
-0.962524724950028

> <r_i_glide_ligand_efficiency_ln>
-1.84725292273697

> <r_i_glide_gscore>
-7.55719012900718

> <r_i_glide_lipo>
-2.61433012609642

> <r_i_glide_hbond>
-0.352656429783775

> <r_i_glide_metal>
0

> <r_i_glide_rewards>
-1.70127122472781

> <r_i_glide_evdw>
-24.484281539917

> <r_i_glide_ecoul>
-15.9999847412109

> <r_i_glide_erotb>
0.796360256947414

> <r_i_glide_esite>
-0.0610808171690999

> <r_i_glide_emodel>
-51.5508196544714

> <r_i_glide_energy>
-40.4842662811279

> <r_i_glide_einternal>
4.74126100540161

> <i_i_glide_confnum>
98

> <i_i_glide_posenum>
28

> <r_i_glide_eff_state_penalty>
0

> <s_user_duplicate_titles>
CHEMBL4338_lig51

> <i_f3d_flags>
0

> <s_m_subgroup_title>
dock_pv

> <s_m_subgroupid>
dock_pv

> <b_m_subgroup_collapsed>
1

$$$$
CHEMBL4338_lig44
                    3D
 Schrodinger Suite 2021-1.
 29 31  0  0  1  0            999 V2000
   14.7837   11.0425   55.9816 C   0  0  0  0  0  0
   13.6804   10.5937   56.6461 C   0  0  0  0  0  0
   15.3542   10.5092   54.8656 N   0  0  0  0  0  0
   13.6130    8.9428   55.0549 N   0  0  0  0  0  0
   12.9308    9.4778   56.1107 C   0  0  0  0  0  0
   13.5024   11.2537   57.8001 N   0  0  0  0  0  0
   15.2935   12.0295   56.7645 N   0  0  0  0  0  0
   14.7791    9.4127   54.4865 C   0  0  0  0  0  0
   14.5065   12.0989   57.8578 C   0  0  0  0  0  0
   11.8565    9.0329   56.5055 O   0  0  0  0  0  0
   14.8741   12.9224   59.0602 C   0  0  0  0  0  0
   15.3030    8.6359   53.5364 N   0  0  0  0  0  0
   13.7445   13.7285   59.7127 C   0  0  0  0  0  0
   12.4789   13.1768   59.9518 C   0  0  0  0  0  0
   14.0125   15.0328   60.1425 C   0  0  0  0  0  0
   13.0157   15.7999   60.7391 C   0  0  0  0  0  0
   11.4825   13.9406   60.5491 C   0  0  0  0  0  0
   11.7538   15.2509   60.9301 C   0  0  0  0  0  0
   13.2149    8.0819   54.6965 H   0  0  0  0  0  0
   16.1114    8.9520   53.0128 H   0  0  0  0  0  0
   15.6900   13.5942   58.7898 H   0  0  0  0  0  0
   15.2685   12.2414   59.8155 H   0  0  0  0  0  0
   14.8918    7.7317   53.3286 H   0  0  0  0  0  0
   16.1498   12.5368   56.6076 H   0  0  0  0  0  0
   12.2552   12.1532   59.6986 H   0  0  0  0  0  0
   14.9984   15.4569   60.0209 H   0  0  0  0  0  0
   13.2222   16.8068   61.0684 H   0  0  0  0  0  0
   10.5068   13.5176   60.7338 H   0  0  0  0  0  0
   10.9764   15.8331   61.4028 H   0  0  0  0  0  0
  1  7  1  0  0  0
  1  3  1  0  0  0
  1  2  2  0  0  0
  2  5  1  0  0  0
  2  6  1  0  0  0
  3  8  2  0  0  0
  4  8  1  0  0  0
  4 19  1  0  0  0
  4  5  1  0  0  0
  5 10  2  0  0  0
  6  9  2  0  0  0
  7  9  1  0  0  0
  7 24  1  0  0  0
  8 12  1  0  0  0
  9 11  1  0  0  0
 11 13  1  0  0  0
 11 21  1  0  0  0
 11 22  1  0  0  0
 12 23  1  0  0  0
 12 20  1  0  0  0
 13 14  2  0  0  0
 13 15  1  0  0  0
 14 17  1  0  0  0
 14 25  1  0  0  0
 15 16  2  0  0  0
 15 26  1  0  0  0
 16 18  1  0  0  0
 16 27  1  0  0  0
 17 18  2  0  0  0
 17 28  1  0  0  0
 18 29  1  0  0  0
M  END
> <s_m_entry_id>
11918

> <s_m_entry_name>
dock_pv.121

> <s_m_Source_Path>
/home/csk/Desktop/cluster/DUD-E-result/pnph

> <s_m_Source_File>
dock_pv.maegz

> <i_m_Source_File_Index>
121

> <chembl_id>
CHEMBL161692

> <chembl_pref_name>
None

> <i_lp_mmshare_version>
53161

> <r_lp_tautomer_probability>
0.882445856688025

> <s_lp_Force_Field>
OPLS_2005

> <r_lp_Energy>
7.937971

> <b_lp_Chiralities_Consistent>
1

> <s_lp_Variant>
CHEMBL4338_lig44-1

> <s_i_glide_gridfile>
glide-grid_3bgs

> <i_i_glide_lignum>
53

> <i_i_glide_rotatable_bonds>
2

> <r_i_docking_score>
-7.55524625164116

> <r_i_glide_ligand_efficiency>
-0.419735902868954

> <r_i_glide_ligand_efficiency_sa>
-1.10001925422449

> <r_i_glide_ligand_efficiency_ln>
-1.94203709100718

> <r_i_glide_gscore>
-7.55524625164116

> <r_i_glide_lipo>
-1.7659736121952

> <r_i_glide_hbond>
-0.705095305231108

> <r_i_glide_metal>
0

> <r_i_glide_rewards>
-2.66065727076358

> <r_i_glide_evdw>
-38.0805625915527

> <r_i_glide_ecoul>
-6.89540529251099

> <r_i_glide_erotb>
0.595196374359332

> <r_i_glide_esite>
-0.0803775143563239

> <r_i_glide_emodel>
-63.310032405712

> <r_i_glide_energy>
-44.9759678840637

> <r_i_glide_einternal>
1.0643150806427

> <i_i_glide_confnum>
1

> <i_i_glide_posenum>
309

> <r_i_glide_eff_state_penalty>
0

> <s_user_duplicate_titles>
CHEMBL4338_lig44,CHEMBL4338_lig44,267840

> <i_f3d_flags>
0

> <s_m_subgroup_title>
dock_pv

> <s_m_subgroupid>
dock_pv

> <b_m_subgroup_collapsed>
1

$$$$
CHEMBL4338_lig115
                    3D
 Schrodinger Suite 2021-1.
 31 33  0  0  1  0            999 V2000
   14.2270   12.4146   58.0962 C   0  0  0  0  0  0
   13.7274   12.8322   59.4787 C   0  0  1  0  0  0
   14.6530   11.2892   56.0992 C   0  0  0  0  0  0
   13.8564   11.2857   57.2833 C   0  0  0  0  0  0
   14.3360   14.0752   59.8150 O   0  0  0  0  0  0
   15.4736   12.3883   56.1792 N   0  0  0  0  0  0
   12.2231   13.1176   59.6890 C   0  0  1  0  0  0
   15.2071   13.0451   57.3520 C   0  0  0  0  0  0
   12.1982   14.2109   60.7734 C   0  0  1  0  0  0
   13.6682   14.6481   60.9326 C   0  0  1  0  0  0
   14.4991   10.2629   55.1601 C   0  0  0  0  0  0
   13.5285    9.3489   55.3569 N   0  0  0  0  0  0
   12.9540   10.3281   57.4947 N   0  0  0  0  0  0
   12.7964    9.4330   56.4860 C   0  0  0  0  0  0
   11.5161   13.4330   58.5060 O   0  0  0  0  0  0
   11.3540   15.3260   60.5060 O   0  0  0  0  0  0
   15.3540   10.2283   54.1060 O   0  0  0  0  0  0
   14.3547   14.1552   62.2226 C   0  0  0  0  0  0
   16.4976   14.5863   62.2806 I   0  0  0  0  0  0
   14.0753   12.0614   60.1699 H   0  0  0  0  0  0
   16.1699   12.6957   55.5146 H   0  0  0  0  0  0
   11.7543   12.2330   60.1006 H   0  0  0  0  0  0
   15.7540   13.9353   57.6018 H   0  0  0  0  0  0
   11.8523   13.7659   61.7060 H   0  0  0  0  0  0
   13.7858   15.7313   60.8715 H   0  0  0  0  0  0
   12.0103    8.6962   56.5827 H   0  0  0  0  0  0
   12.0300   14.0783   57.9958 H   0  0  0  0  0  0
   10.4242   15.0507   60.5216 H   0  0  0  0  0  0
   15.1982    9.4330   53.5883 H   0  0  0  0  0  0
   14.2738   13.0763   62.3604 H   0  0  0  0  0  0
   13.9444   14.6442   63.1062 H   0  0  0  0  0  0
  1  4  1  0  0  0
  1  8  2  0  0  0
  1  2  1  0  0  0
  2  5  1  0  0  0
  2  7  1  0  0  0
  2 20  1  0  0  0
  3  4  1  0  0  0
  3 11  2  0  0  0
  3  6  1  0  0  0
  4 13  2  0  0  0
  5 10  1  0  0  0
  6  8  1  0  0  0
  6 21  1  0  0  0
  7  9  1  0  0  0
  7 15  1  0  0  0
  7 22  1  0  0  0
  8 23  1  0  0  0
  9 16  1  0  0  0
  9 10  1  0  0  0
  9 24  1  0  0  0
 10 18  1  0  0  0
 10 25  1  0  0  0
 11 17  1  0  0  0
 11 12  1  0  0  0
 12 14  2  0  0  0
 13 14  1  0  0  0
 14 26  1  0  0  0
 15 27  1  0  0  0
 16 28  1  0  0  0
 17 29  1  0  0  0
 18 19  1  0  0  0
 18 30  1  0  0  0
 18 31  1  0  0  0
M  END
> <s_m_entry_id>
11919

> <s_m_entry_name>
dock_pv.122

> <s_m_Source_Path>
/home/csk/Desktop/cluster/DUD-E-result/pnph

> <s_m_Source_File>
dock_pv.maegz

> <i_m_Source_File_Index>
122

> <chembl_id>
CHEMBL604660

> <chembl_pref_name>
None

> <i_lp_mmshare_version>
53161

> <r_lp_tautomer_probability>
1

> <s_lp_Force_Field>
OPLS_2005

> <r_lp_Energy>
26.594722

> <b_lp_Chiralities_Consistent>
1

> <s_lp_Variant>
CHEMBL4338_lig115-2

> <s_i_glide_gridfile>
glide-grid_3bgs

> <i_i_glide_lignum>
139

> <i_i_glide_rotatable_bonds>
5

> <r_i_docking_score>
-7.5483292263213

> <r_i_glide_ligand_efficiency>
-0.397280485595858

> <r_i_glide_ligand_efficiency_sa>
-1.06010390172857

> <r_i_glide_ligand_efficiency_ln>
-1.91366358211896

> <r_i_glide_gscore>
-7.5483292263213

> <r_i_glide_lipo>
-2.37464828644237

> <r_i_glide_hbond>
-0.32

> <r_i_glide_metal>
0

> <r_i_glide_rewards>
-1.08787103646211

> <r_i_glide_evdw>
-34.8367500305176

> <r_i_glide_ecoul>
-14.4008369445801

> <r_i_glide_erotb>
0.13615313979607

> <r_i_glide_esite>
0

> <r_i_glide_emodel>
-66.9811049266734

> <r_i_glide_energy>
-49.2375869750977

> <r_i_glide_einternal>
4.83371639251709

> <i_i_glide_confnum>
10

> <i_i_glide_posenum>
296

> <r_i_glide_eff_state_penalty>
0

> <s_user_duplicate_titles>
CHEMBL4338_lig115,605573

> <i_f3d_flags>
0

> <s_m_subgroup_title>
dock_pv

> <s_m_subgroupid>
dock_pv

> <b_m_subgroup_collapsed>
1

$$$$
CHEMBL4338_lig123
                    3D
 Schrodinger Suite 2021-1.
 33 34  0  0  1  0            999 V2000
   14.0057   12.3050   58.0904 C   0  0  0  0  0  0
   14.0615   10.8368   56.4107 C   0  0  0  0  0  0
   14.1831   13.5372   58.9720 C   0  0  2  0  0  0
   14.5415   12.0862   56.8041 C   0  0  0  0  0  0
   13.3109   11.2678   58.5063 N   0  0  0  0  0  0
   14.9954   13.2131   60.1409 N   0  0  1  0  0  0
   13.3544   10.3979   57.4995 N   0  0  0  0  0  0
   12.8871   14.2319   59.4691 C   0  0  2  0  0  0
   12.9795   14.1417   60.9994 C   0  0  2  0  0  0
   14.5068   14.0881   61.2011 C   0  0  1  0  0  0
   14.3371   10.0589   55.2298 C   0  0  0  0  0  0
   15.3540   12.9335   56.1035 N   0  0  0  0  0  0
   15.2981   10.3024   54.5063 O   0  0  0  0  0  0
   11.6432   13.8331   58.9060 O   0  0  0  0  0  0
   13.5185    9.0330   54.9951 N   0  0  0  0  0  0
   12.3102   13.0330   61.5777 O   0  0  0  0  0  0
   15.0036   13.6803   62.6034 C   0  0  0  0  0  0
   14.5540   14.6191   63.5596 O   0  0  0  0  0  0
   14.7573   14.2329   58.3661 H   0  0  0  0  0  0
   14.7880   12.2557   60.3974 H   0  0  0  0  0  0
   12.9242    9.4869   57.5691 H   0  0  0  0  0  0
   12.9806   15.2946   59.2371 H   0  0  0  0  0  0
   12.5934   15.0549   61.4555 H   0  0  0  0  0  0
   14.9170   15.0785   60.9886 H   0  0  0  0  0  0
   15.6579   13.8157   56.4851 H   0  0  0  0  0  0
   15.6874   12.6890   55.1815 H   0  0  0  0  0  0
   11.7097   14.0260   57.9620 H   0  0  0  0  0  0
   13.7327    8.3860   54.2463 H   0  0  0  0  0  0
   12.6747    8.8774   55.5232 H   0  0  0  0  0  0
   11.8600   13.3368   62.3743 H   0  0  0  0  0  0
   14.6500   12.6876   62.8853 H   0  0  0  0  0  0
   16.0939   13.6616   62.6289 H   0  0  0  0  0  0
   13.6171   14.4530   63.7173 H   0  0  0  0  0  0
  1  3  1  0  0  0
  1  4  1  0  0  0
  1  5  2  0  0  0
  2  4  2  0  0  0
  2 11  1  0  0  0
  2  7  1  0  0  0
  3  6  1  0  0  0
  3  8  1  0  0  0
  3 19  1  0  0  0
  4 12  1  0  0  0
  5  7  1  0  0  0
  6 10  1  0  0  0
  6 20  1  0  0  0
  7 21  1  0  0  0
  8  9  1  0  0  0
  8 14  1  0  0  0
  8 22  1  0  0  0
  9 16  1  0  0  0
  9 10  1  0  0  0
  9 23  1  0  0  0
 10 17  1  0  0  0
 10 24  1  0  0  0
 11 13  2  0  0  0
 11 15  1  0  0  0
 12 25  1  0  0  0
 12 26  1  0  0  0
 14 27  1  0  0  0
 15 28  1  0  0  0
 15 29  1  0  0  0
 16 30  1  0  0  0
 17 18  1  0  0  0
 17 31  1  0  0  0
 17 32  1  0  0  0
 18 33  1  0  0  0
M  END
> <s_m_entry_id>
11920

> <s_m_entry_name>
dock_pv.123

> <s_m_Source_Path>
/home/csk/Desktop/cluster/DUD-E-result/pnph

> <s_m_Source_File>
dock_pv.maegz

> <i_m_Source_File_Index>
123

> <chembl_id>
CHEMBL41949

> <chembl_pref_name>
None

> <i_lp_mmshare_version>
53161

> <r_lp_tautomer_probability>
1

> <s_lp_Force_Field>
OPLS_2005

> <r_lp_Energy>
52.247611

> <b_lp_Chiralities_Consistent>
1

> <s_lp_Variant>
CHEMBL4338_lig123-1

> <s_i_glide_gridfile>
glide-grid_3bgs

> <i_i_glide_lignum>
154

> <i_i_glide_rotatable_bonds>
6

> <r_i_docking_score>
-7.52279093220385

> <r_i_glide_ligand_efficiency>
-0.41793282956688

> <r_i_glide_ligand_efficiency_sa>
-1.09529386538951

> <r_i_glide_ligand_efficiency_ln>
-1.93369461849888

> <r_i_glide_gscore>
-7.52279093220385

> <r_i_glide_lipo>
-1.78212945765764

> <r_i_glide_hbond>
-0.324399824926685

> <r_i_glide_metal>
0

> <r_i_glide_rewards>
-1.96964513931799

> <r_i_glide_evdw>
-33.9393424987793

> <r_i_glide_ecoul>
-13.7842559814453

> <r_i_glide_erotb>
0.373230101392097

> <r_i_glide_esite>
-0.0552410895378601

> <r_i_glide_emodel>
-63.8583096726639

> <r_i_glide_energy>
-47.7235984802246

> <r_i_glide_einternal>
6.46212863922119

> <i_i_glide_confnum>
21

> <i_i_glide_posenum>
7

> <r_i_glide_eff_state_penalty>
0

> <s_user_duplicate_titles>
CHEMBL4338_lig123

> <i_f3d_flags>
0

> <s_m_subgroup_title>
dock_pv

> <s_m_subgroupid>
dock_pv

> <b_m_subgroup_collapsed>
1

$$$$
CHEMBL4338_lig159
                    3D
 Schrodinger Suite 2021-1.
 34 35  0  0  1  0            999 V2000
   13.9070   14.8139   60.5238 C   0  0  0  0  0  0
   13.5656   13.4673   60.4862 C   0  0  0  0  0  0
   15.2172   14.9812   60.5730 N   0  0  0  0  0  0
   14.7439   12.7674   60.5167 N   0  0  0  0  0  0
   12.3008   12.9630   60.4375 N   0  0  0  0  0  0
   12.8343   15.8115   60.4839 C   0  0  0  0  0  0
   15.7047   13.7562   60.5682 C   0  0  0  0  0  0
   14.6363    9.6618   54.9060 P   0  0  0  0  0  0
   11.6127   15.1904   60.5018 N   0  0  0  0  0  0
   11.3540   13.8331   60.4824 C   0  0  0  0  0  0
   15.7540   10.6328   54.9060 O   0  0  0  0  0  0
   12.9071   17.0335   60.4113 O   0  0  0  0  0  0
   14.9462    8.2332   54.1952 O   0  0  0  0  0  0
   13.3541   10.1705   54.1072 O   0  0  0  0  0  0
   14.9364   11.3219   60.4352 C   0  0  0  0  0  0
   13.8901    9.2683   56.5334 C   0  0  0  0  0  0
   13.5669   10.5539   57.3408 C   0  0  0  0  0  0
   15.5214   10.8988   59.0680 C   0  0  0  0  0  0
   14.7597   11.4154   57.8249 C   0  0  0  0  0  0
   16.7503   13.4872   60.5821 H   0  0  0  0  0  0
   10.3110   13.5309   60.4991 H   0  0  0  0  0  0
   10.8154   15.8115   60.5142 H   0  0  0  0  0  0
   14.2127    7.5770   54.1060 H   0  0  0  0  0  0
   12.5628    9.6016   54.1556 H   0  0  0  0  0  0
   13.9750   10.8370   60.6092 H   0  0  0  0  0  0
   15.6008   11.0332   61.2479 H   0  0  0  0  0  0
   12.9823    8.6893   56.3602 H   0  0  0  0  0  0
   14.5539    8.6334   57.1086 H   0  0  0  0  0  0
   12.9541   11.1939   56.7082 H   0  0  0  0  0  0
   12.9531   10.2986   58.2034 H   0  0  0  0  0  0
   15.6024    9.8118   59.0304 H   0  0  0  0  0  0
   16.5502   11.2595   59.0150 H   0  0  0  0  0  0
   15.4839   11.5649   57.0331 H   0  0  0  0  0  0
   14.3934   12.4267   58.0005 H   0  0  0  0  0  0
  1  3  1  0  0  0
  1  6  1  0  0  0
  1  2  2  0  0  0
  2  5  1  0  0  0
  2  4  1  0  0  0
  3  7  2  0  0  0
  4 15  1  0  0  0
  4  7  1  0  0  0
  5 10  2  0  0  0
  6 12  2  0  0  0
  6  9  1  0  0  0
  7 20  1  0  0  0
  8 16  1  0  0  0
  8 11  2  0  0  0
  8 13  1  0  0  0
  8 14  1  0  0  0
  9 22  1  0  0  0
  9 10  1  0  0  0
 10 21  1  0  0  0
 13 23  1  0  0  0
 14 24  1  0  0  0
 15 18  1  0  0  0
 15 25  1  0  0  0
 15 26  1  0  0  0
 16 17  1  0  0  0
 16 27  1  0  0  0
 16 28  1  0  0  0
 17 19  1  0  0  0
 17 29  1  0  0  0
 17 30  1  0  0  0
 18 19  1  0  0  0
 18 31  1  0  0  0
 18 32  1  0  0  0
 19 33  1  0  0  0
 19 34  1  0  0  0
M  END
> <s_m_entry_id>
11922

> <s_m_entry_name>
dock_pv.125

> <s_m_Source_Path>
/home/csk/Desktop/cluster/DUD-E-result/pnph

> <s_m_Source_File>
dock_pv.maegz

> <i_m_Source_File_Index>
125

> <chembl_id>
CHEMBL13130

> <chembl_pref_name>
None

> <i_lp_mmshare_version>
53161

> <r_lp_tautomer_probability>
0.855710295894835

> <s_lp_Force_Field>
OPLS_2005

> <r_lp_Energy>
12.976152

> <b_lp_Chiralities_Consistent>
1

> <s_lp_Variant>
CHEMBL4338_lig159-1

> <s_i_glide_gridfile>
glide-grid_3bgs

> <i_i_glide_lignum>
216

> <i_i_glide_rotatable_bonds>
8

> <r_i_docking_score>
-7.50457730691164

> <r_i_glide_ligand_efficiency>
-0.39497775299535

> <r_i_glide_ligand_efficiency_sa>
-1.05395928626684

> <r_i_glide_ligand_efficiency_ln>
-1.90257153084354

> <r_i_glide_gscore>
-7.50457730691164

> <r_i_glide_lipo>
-1.52851871184619

> <r_i_glide_hbond>
-0.596009310751934

> <r_i_glide_metal>
0

> <r_i_glide_rewards>
-2.55132173186941

> <r_i_glide_evdw>
-28.0932025909424

> <r_i_glide_ecoul>
-16.8813056945801

> <r_i_glide_erotb>
1.10812843129002

> <r_i_glide_esite>
0

> <r_i_glide_emodel>
-61.9170887835436

> <r_i_glide_energy>
-44.9745082855225

> <r_i_glide_einternal>
5.57968378067017

> <i_i_glide_confnum>
88

> <i_i_glide_posenum>
8

> <r_i_glide_eff_state_penalty>
0

> <s_user_duplicate_titles>
CHEMBL4338_lig159,CHEMBL4338_lig159

> <i_f3d_flags>
0

> <s_m_subgroup_title>
dock_pv

> <s_m_subgroupid>
dock_pv

> <b_m_subgroup_collapsed>
1

$$$$
CHEMBL4338_lig164
                    3D
 Schrodinger Suite 2021-1.
 31 33  0  0  1  0            999 V2000
   12.3236   12.9893   60.2542 N   0  0  0  0  0  0
   11.3541   13.8117   60.4487 C   0  0  0  0  0  0
   11.5730   15.1634   60.5842 N   0  0  0  0  0  0
   12.7673   15.8255   60.5483 C   0  0  0  0  0  0
   13.5913   13.4995   60.2363 C   0  0  0  0  0  0
   13.8544   14.8602   60.4180 C   0  0  0  0  0  0
   15.2099   15.0330   60.3952 N   0  0  0  0  0  0
   15.7969   13.8178   60.1563 C   0  0  0  0  0  0
   14.8142   12.8377   60.0128 C   0  0  0  0  0  0
   12.8075   17.0488   60.5990 O   0  0  0  0  0  0
   15.0303   11.3724   59.6892 C   0  0  0  0  0  0
   14.7922   11.0311   58.2875 N   0  0  1  0  0  0
   13.4769   11.1297   57.6517 C   0  0  0  0  0  0
   15.3717   11.7669   57.1613 C   0  0  0  0  0  0
   14.1679   11.3544   56.3130 C   0  0  0  0  0  0
   14.2989   10.0930   55.4313 C   0  0  0  0  0  0
   15.3539   10.2332   54.5061 O   0  0  0  0  0  0
   10.3257   13.4654   60.5063 H   0  0  0  0  0  0
   10.7600   15.7488   60.7199 H   0  0  0  0  0  0
   15.6968   15.9157   60.4963 H   0  0  0  0  0  0
   16.8720   13.7474   60.0814 H   0  0  0  0  0  0
   14.3898   10.7422   60.3078 H   0  0  0  0  0  0
   16.0533   11.0816   59.9293 H   0  0  0  0  0  0
   12.8936   11.9977   57.9582 H   0  0  0  0  0  0
   12.8611   10.2346   57.7496 H   0  0  0  0  0  0
   16.3579   11.4333   56.8379 H   0  0  0  0  0  0
   15.4136   12.8460   57.3224 H   0  0  0  0  0  0
   13.7534   12.1574   55.7066 H   0  0  0  0  0  0
   13.3691    9.9111   54.8888 H   0  0  0  0  0  0
   14.4908    9.2042   56.0352 H   0  0  0  0  0  0
   15.4224    9.4190   53.9973 H   0  0  0  0  0  0
  1  2  2  0  0  0
  1  5  1  0  0  0
  2  3  1  0  0  0
  2 18  1  0  0  0
  3  4  1  0  0  0
  3 19  1  0  0  0
  4  6  1  0  0  0
  4 10  2  0  0  0
  5  9  1  0  0  0
  5  6  2  0  0  0
  6  7  1  0  0  0
  7  8  1  0  0  0
  7 20  1  0  0  0
  8  9  2  0  0  0
  8 21  1  0  0  0
  9 11  1  0  0  0
 11 12  1  0  0  0
 11 22  1  0  0  0
 11 23  1  0  0  0
 12 13  1  0  0  0
 12 14  1  0  0  0
 13 15  1  0  0  0
 13 24  1  0  0  0
 13 25  1  0  0  0
 14 15  1  0  0  0
 14 26  1  0  0  0
 14 27  1  0  0  0
 15 16  1  0  0  0
 15 28  1  0  0  0
 16 17  1  0  0  0
 16 29  1  0  0  0
 16 30  1  0  0  0
 17 31  1  0  0  0
M  END
> <s_m_entry_id>
11923

> <s_m_entry_name>
dock_pv.126

> <s_m_Source_Path>
/home/csk/Desktop/cluster/DUD-E-result/pnph

> <s_m_Source_File>
dock_pv.maegz

> <i_m_Source_File_Index>
126

> <chembl_id>
CHEMBL270904

> <chembl_pref_name>
None

> <i_lp_mmshare_version>
53161

> <r_lp_tautomer_probability>
1

> <s_lp_Force_Field>
OPLS_2005

> <r_lp_Energy>
30.563813

> <b_lp_Chiralities_Consistent>
1

> <s_lp_Variant>
CHEMBL4338_lig164-1

> <s_i_glide_gridfile>
glide-grid_3bgs

> <i_i_glide_lignum>
225

> <i_i_glide_rotatable_bonds>
4

> <r_i_docking_score>
-7.4977879693725

> <r_i_glide_ligand_efficiency>
-0.441046351139559

> <r_i_glide_ligand_efficiency_sa>
-1.13405436224113

> <r_i_glide_ligand_efficiency_ln>
-1.95600591368038

> <r_i_glide_gscore>
-7.4977879693725

> <r_i_glide_lipo>
-2.4796576600395

> <r_i_glide_hbond>
-0.75693846637321

> <r_i_glide_metal>
0

> <r_i_glide_rewards>
-2.18020983617765

> <r_i_glide_evdw>
-32.9717140197754

> <r_i_glide_ecoul>
-9.14057636260986

> <r_i_glide_erotb>
0.938690148598112

> <r_i_glide_esite>
0

> <r_i_glide_emodel>
-55.9094506477697

> <r_i_glide_energy>
-42.1122903823853

> <r_i_glide_einternal>
8.16762256622314

> <i_i_glide_confnum>
31

> <i_i_glide_posenum>
346

> <r_i_glide_eff_state_penalty>
0

> <s_user_duplicate_titles>
CHEMBL4338_lig164,442306

> <i_f3d_flags>
0

> <s_m_subgroup_title>
dock_pv

> <s_m_subgroupid>
dock_pv

> <b_m_subgroup_collapsed>
1

$$$$
CHEMBL4338_lig31
                    3D
 Schrodinger Suite 2021-1.
 25 27  0  0  1  0            999 V2000
   14.7507   11.1475   56.0175 C   0  0  0  0  0  0
   13.6396   10.6789   56.6461 C   0  0  0  0  0  0
   15.3540   10.6329   54.9061 N   0  0  0  0  0  0
   13.3537   11.4049   57.7350 N   0  0  0  0  0  0
   15.1871   12.1697   56.8057 N   0  0  0  0  0  0
   14.3120   12.2983   57.8319 C   0  0  0  0  0  0
   13.6542    9.0193   55.0603 N   0  0  0  0  0  0
   12.9496    9.5253   56.1151 C   0  0  0  0  0  0
   14.8096    9.5281   54.5059 C   0  0  0  0  0  0
   14.4042   13.2585   58.9205 C   0  0  0  0  0  0
   11.8955    9.0329   56.5059 O   0  0  0  0  0  0
   13.2545   14.7862   60.4188 N   0  0  0  0  0  0
   15.3540    8.7853   53.5435 N   0  0  0  0  0  0
   13.2509   13.9005   59.3900 C   0  0  0  0  0  0
   15.6136   13.5309   59.5726 C   0  0  0  0  0  0
   14.4393   15.0329   61.0314 C   0  0  0  0  0  0
   15.6365   14.4313   60.6399 C   0  0  0  0  0  0
   13.2862    8.1487   54.6933 H   0  0  0  0  0  0
   16.1789    9.1119   53.0488 H   0  0  0  0  0  0
   14.9683    7.8783   53.3118 H   0  0  0  0  0  0
   16.0125   12.7276   56.6551 H   0  0  0  0  0  0
   12.2935   13.7190   58.9240 H   0  0  0  0  0  0
   16.5239   13.0239   59.2918 H   0  0  0  0  0  0
   14.4145   15.7249   61.8607 H   0  0  0  0  0  0
   16.5584   14.6473   61.1592 H   0  0  0  0  0  0
  1  5  1  0  0  0
  1  3  1  0  0  0
  1  2  2  0  0  0
  2  8  1  0  0  0
  2  4  1  0  0  0
  3  9  2  0  0  0
  4  6  2  0  0  0
  5  6  1  0  0  0
  5 21  1  0  0  0
  6 10  1  0  0  0
  7  9  1  0  0  0
  7 18  1  0  0  0
  7  8  1  0  0  0
  8 11  2  0  0  0
  9 13  1  0  0  0
 10 14  1  0  0  0
 10 15  2  0  0  0
 12 14  2  0  0  0
 12 16  1  0  0  0
 13 20  1  0  0  0
 13 19  1  0  0  0
 14 22  1  0  0  0
 15 17  1  0  0  0
 15 23  1  0  0  0
 16 17  2  0  0  0
 16 24  1  0  0  0
 17 25  1  0  0  0
M  END
> <s_m_entry_id>
11924

> <s_m_entry_name>
dock_pv.127

> <s_m_Source_Path>
/home/csk/Desktop/cluster/DUD-E-result/pnph

> <s_m_Source_File>
dock_pv.maegz

> <i_m_Source_File_Index>
127

> <chembl_id>
CHEMBL350559

> <chembl_pref_name>
None

> <i_lp_mmshare_version>
53161

> <r_lp_tautomer_probability>
0.882445856688025

> <s_lp_Force_Field>
OPLS_2005

> <r_lp_Energy>
7.395819

> <b_lp_Chiralities_Consistent>
1

> <s_lp_Variant>
CHEMBL4338_lig31-1

> <s_i_glide_gridfile>
glide-grid_3bgs

> <i_i_glide_lignum>
36

> <i_i_glide_rotatable_bonds>
1

> <r_i_docking_score>
-7.49579019220143

> <r_i_glide_ligand_efficiency>
-0.440928834835378

> <r_i_glide_ligand_efficiency_sa>
-1.13375219473187

> <r_i_glide_ligand_efficiency_ln>
-1.95548473810476

> <r_i_glide_gscore>
-7.49579019220143

> <r_i_glide_lipo>
-1.46655687783412

> <r_i_glide_hbond>
-0.653003648371744

> <r_i_glide_metal>
0

> <r_i_glide_rewards>
-2.87656231138986

> <r_i_glide_evdw>
-34.5811386108398

> <r_i_glide_ecoul>
-6.89855480194092

> <r_i_glide_erotb>
0.327099000522802

> <r_i_glide_esite>
-0.0629262042953756

> <r_i_glide_emodel>
-58.9159920131363

> <r_i_glide_energy>
-41.4796934127808

> <r_i_glide_einternal>
2.10525465011597

> <i_i_glide_confnum>
1

> <i_i_glide_posenum>
393

> <r_i_glide_eff_state_penalty>
0

> <s_user_duplicate_titles>
CHEMBL4338_lig31,CHEMBL4338_lig31,267870

> <i_f3d_flags>
0

> <s_m_subgroup_title>
dock_pv

> <s_m_subgroupid>
dock_pv

> <b_m_subgroup_collapsed>
1

$$$$
CHEMBL4338_lig21
                    3D
 Schrodinger Suite 2021-1.
 18 19  0  0  1  0            999 V2000
   13.6085    9.3244   55.7792 N   0  0  0  0  0  0
   13.7540   10.4104   56.5827 C   0  0  0  0  0  0
   13.1324   10.6330   57.7730 N   0  0  0  0  0  0
   13.4713   11.7512   58.3184 C   0  0  0  0  0  0
   12.9849   12.0962   59.5116 N   0  0  0  0  0  0
   14.3458   12.6420   57.7245 N   0  0  0  0  0  0
   15.0068   12.4973   56.5326 C   0  0  0  0  0  0
   15.7540   13.3739   56.1060 O   0  0  0  0  0  0
   14.6553   11.2179   55.9439 C   0  0  0  0  0  0
   15.1090   10.6417   54.8181 N   0  0  0  0  0  0
   14.4421    9.5216   54.7522 C   0  0  0  0  0  0
   14.6109    8.6330   53.7298 N   0  0  0  0  0  0
   13.0133    8.5177   55.9074 H   0  0  0  0  0  0
   12.4638   11.4064   60.0316 H   0  0  0  0  0  0
   13.2213   12.9718   59.9528 H   0  0  0  0  0  0
   14.5329   13.5097   58.1997 H   0  0  0  0  0  0
   15.2857    8.7959   52.9977 H   0  0  0  0  0  0
   14.1539    7.7152   53.7060 H   0  0  0  0  0  0
  1  2  1  0  0  0
  1 11  1  0  0  0
  1 13  1  0  0  0
  2  3  1  0  0  0
  2  9  2  0  0  0
  3  4  2  0  0  0
  4  5  1  0  0  0
  4  6  1  0  0  0
  5 14  1  0  0  0
  5 15  1  0  0  0
  6  7  1  0  0  0
  6 16  1  0  0  0
  7  8  2  0  0  0
  7  9  1  0  0  0
  9 10  1  0  0  0
 10 11  2  0  0  0
 11 12  1  0  0  0
 12 17  1  0  0  0
 12 18  1  0  0  0
M  END
> <s_m_entry_id>
11925

> <s_m_entry_name>
dock_pv.128

> <s_m_Source_Path>
/home/csk/Desktop/cluster/DUD-E-result/pnph

> <s_m_Source_File>
dock_pv.maegz

> <i_m_Source_File_Index>
128

> <chembl_id>
CHEMBL8040

> <chembl_pref_name>
8-AMINOGUANINE

> <i_lp_mmshare_version>
53161

> <r_lp_tautomer_probability>
1

> <s_lp_Force_Field>
OPLS_2005

> <r_lp_Energy>
2.421996

> <b_lp_Chiralities_Consistent>
1

> <s_lp_Variant>
CHEMBL4338_lig21-1

> <s_i_glide_gridfile>
glide-grid_3bgs

> <i_i_glide_lignum>
23

> <i_i_glide_rotatable_bonds>
0

> <r_i_docking_score>
-7.49181422090051

> <r_i_glide_ligand_efficiency>
-0.624317851741709

> <r_i_glide_ligand_efficiency_sa>
-1.42933107235415

> <r_i_glide_ligand_efficiency_ln>
-2.14978906862721

> <r_i_glide_gscore>
-7.49181422090051

> <r_i_glide_lipo>
-0.653477824047248

> <r_i_glide_hbond>
-0.475875152564292

> <r_i_glide_metal>
0

> <r_i_glide_rewards>
-3.31785994691043

> <r_i_glide_evdw>
-27.9742240905762

> <r_i_glide_ecoul>
-10.3059339523315

> <r_i_glide_erotb>
0

> <r_i_glide_esite>
-0.1

> <r_i_glide_emodel>
-56.2351991783342

> <r_i_glide_energy>
-38.2801580429077

> <r_i_glide_einternal>
0

> <i_i_glide_confnum>
1

> <i_i_glide_posenum>
200

> <r_i_glide_eff_state_penalty>
0

> <s_user_duplicate_titles>
CHEMBL4338_lig21,3626

> <i_f3d_flags>
0

> <s_m_subgroup_title>
dock_pv

> <s_m_subgroupid>
dock_pv

> <b_m_subgroup_collapsed>
1

$$$$
CHEMBL4338_lig167
                    3D
 Schrodinger Suite 2021-1.
 35 37  0  0  1  0            999 V2000
   14.6310   11.6597   57.8216 C   0  0  0  0  0  0
   15.6916   11.8734   55.8371 N   0  0  0  0  0  0
   15.5541   12.4021   57.0929 C   0  0  0  0  0  0
   14.8045   10.8404   55.7153 C   0  0  0  0  0  0
   14.0550   10.7765   56.8900 C   0  0  0  0  0  0
   13.0188    9.9024   57.0519 N   0  0  0  0  0  0
   12.7935    9.0570   56.1060 C   0  0  0  0  0  0
   13.5759    9.0330   54.9717 N   0  0  0  0  0  0
   14.6438    9.8335   54.6772 C   0  0  0  0  0  0
   15.3540    9.6304   53.7060 O   0  0  0  0  0  0
   14.2771   11.8151   59.2899 C   0  0  0  0  0  0
   13.4839   13.0178   59.5238 N   0  0  2  0  0  0
   12.9906   13.1607   60.8923 C   0  0  0  0  0  0
   11.8007   14.1444   60.8113 C   0  0  2  0  0  0
   11.4947   14.1982   59.3040 C   0  0  1  0  0  0
   12.2651   13.0330   58.7331 C   0  0  0  0  0  0
   10.1540   14.2330   58.9061 O   0  0  0  0  0  0
   12.0759   15.5282   61.4453 C   0  0  0  0  0  0
   13.0699   16.2340   60.7353 O   0  0  0  0  0  0
   16.3555   12.1807   55.1417 H   0  0  0  0  0  0
   16.1540   13.2413   57.3983 H   0  0  0  0  0  0
   11.9890    8.3305   56.1785 H   0  0  0  0  0  0
   13.4183    8.2777   54.3162 H   0  0  0  0  0  0
   15.1947   11.8947   59.8743 H   0  0  0  0  0  0
   13.7541   10.9331   59.6652 H   0  0  0  0  0  0
   13.8050   13.4990   61.5347 H   0  0  0  0  0  0
   12.6760   12.1857   61.2676 H   0  0  0  0  0  0
   10.9542   13.6966   61.3336 H   0  0  0  0  0  0
   11.9363   15.1064   58.9060 H   0  0  0  0  0  0
   11.7540   12.0760   58.8507 H   0  0  0  0  0  0
   12.4462   13.1066   57.6615 H   0  0  0  0  0  0
    9.6797   14.8023   59.5322 H   0  0  0  0  0  0
   12.4157   15.4330   62.4760 H   0  0  0  0  0  0
   11.1651   16.1273   61.4607 H   0  0  0  0  0  0
   13.8481   15.6705   60.6795 H   0  0  0  0  0  0
  1  5  1  0  0  0
  1 11  1  0  0  0
  1  3  2  0  0  0
  2  4  1  0  0  0
  2  3  1  0  0  0
  2 20  1  0  0  0
  3 21  1  0  0  0
  4  9  1  0  0  0
  4  5  2  0  0  0
  5  6  1  0  0  0
  6  7  2  0  0  0
  7  8  1  0  0  0
  7 22  1  0  0  0
  8  9  1  0  0  0
  8 23  1  0  0  0
  9 10  2  0  0  0
 11 12  1  0  0  0
 11 24  1  0  0  0
 11 25  1  0  0  0
 12 13  1  0  0  0
 12 16  1  0  0  0
 13 14  1  0  0  0
 13 26  1  0  0  0
 13 27  1  0  0  0
 14 15  1  0  0  0
 14 18  1  0  0  0
 14 28  1  0  0  0
 15 16  1  0  0  0
 15 17  1  0  0  0
 15 29  1  0  0  0
 16 30  1  0  0  0
 16 31  1  0  0  0
 17 32  1  0  0  0
 18 19  1  0  0  0
 18 33  1  0  0  0
 18 34  1  0  0  0
 19 35  1  0  0  0
M  END
> <s_m_entry_id>
11926

> <s_m_entry_name>
dock_pv.129

> <s_m_Source_Path>
/home/csk/Desktop/cluster/DUD-E-result/pnph

> <s_m_Source_File>
dock_pv.maegz

> <i_m_Source_File_Index>
129

> <chembl_id>
CHEMBL454743

> <chembl_pref_name>
None

> <i_lp_mmshare_version>
53161

> <r_lp_tautomer_probability>
1

> <s_lp_Force_Field>
OPLS_2005

> <r_lp_Energy>
53.31392

> <b_lp_Chiralities_Consistent>
1

> <s_lp_Variant>
CHEMBL4338_lig167-1

> <s_i_glide_gridfile>
glide-grid_3bgs

> <i_i_glide_lignum>
228

> <i_i_glide_rotatable_bonds>
5

> <r_i_docking_score>
-7.49121876724224

> <r_i_glide_ligand_efficiency>
-0.394274671960118

> <r_i_glide_ligand_efficiency_sa>
-1.05208318367508

> <r_i_glide_ligand_efficiency_ln>
-1.89918485412223

> <r_i_glide_gscore>
-7.49121876724224

> <r_i_glide_lipo>
-2.16421672182342

> <r_i_glide_hbond>
-1.08314075853396

> <r_i_glide_metal>
0

> <r_i_glide_rewards>
-1.60717881818182

> <r_i_glide_evdw>
-32.3312034606934

> <r_i_glide_ecoul>
-11.3749141693115

> <r_i_glide_erotb>
0.763460311936426

> <r_i_glide_esite>
-0.0773454822080727

> <r_i_glide_emodel>
-60.0116577071646

> <r_i_glide_energy>
-43.7061176300049

> <r_i_glide_einternal>
3.37689208984375

> <i_i_glide_confnum>
27

> <i_i_glide_posenum>
97

> <r_i_glide_eff_state_penalty>
0

> <s_user_duplicate_titles>
CHEMBL4338_lig167,454610

> <i_f3d_flags>
0

> <s_m_subgroup_title>
dock_pv

> <s_m_subgroupid>
dock_pv

> <b_m_subgroup_collapsed>
1

$$$$
CHEMBL4338_lig165
                    3D
 Schrodinger Suite 2021-1.
 35 37  0  0  1  0            999 V2000
   12.3362   12.9751   60.4984 N   0  0  0  0  0  0
   11.3541   13.8082   60.5060 C   0  0  0  0  0  0
   11.5707   15.1663   60.5285 N   0  0  0  0  0  0
   12.7673   15.8254   60.5461 C   0  0  0  0  0  0
   13.6064   13.4798   60.5304 C   0  0  0  0  0  0
   13.8573   14.8543   60.5843 C   0  0  0  0  0  0
   15.2110   15.0331   60.6297 N   0  0  0  0  0  0
   15.8143   13.8059   60.5715 C   0  0  0  0  0  0
   14.8469   12.8116   60.4268 C   0  0  0  0  0  0
   12.8105   17.0490   60.5057 O   0  0  0  0  0  0
   15.1147   11.3357   60.1527 C   0  0  0  0  0  0
   15.1094   10.9792   58.7227 N   0  0  1  0  0  0
   13.7868   10.9599   58.1095 C   0  0  0  0  0  0
   13.9971   10.9920   56.5892 C   0  0  2  0  0  0
   15.3994   11.6299   56.4067 C   0  0  2  0  0  0
   15.9050   11.8331   57.8405 C   0  0  0  0  0  0
   15.4527   12.8593   55.7060 O   0  0  0  0  0  0
   13.0797   11.8276   56.1061 F   0  0  0  0  0  0
   13.7973    9.6277   55.8660 C   0  0  0  0  0  0
   12.5287    9.0332   56.1061 O   0  0  0  0  0  0
   10.3223   13.4702   60.5049 H   0  0  0  0  0  0
   10.7527   15.7588   60.5378 H   0  0  0  0  0  0
   15.6871   15.9265   60.6561 H   0  0  0  0  0  0
   16.8918   13.7404   60.5546 H   0  0  0  0  0  0
   14.4126   10.6921   60.6853 H   0  0  0  0  0  0
   16.0923   11.0594   60.5505 H   0  0  0  0  0  0
   13.2167   11.8306   58.4247 H   0  0  0  0  0  0
   13.2036   10.1111   58.4645 H   0  0  0  0  0  0
   16.0578   10.9512   55.8706 H   0  0  0  0  0  0
   16.9749   11.6800   57.9648 H   0  0  0  0  0  0
   15.7412   12.8734   58.1203 H   0  0  0  0  0  0
   14.9483   12.7704   54.8938 H   0  0  0  0  0  0
   14.5521    8.9209   56.2011 H   0  0  0  0  0  0
   13.9216    9.7450   54.7881 H   0  0  0  0  0  0
   12.4894    8.1490   55.7057 H   0  0  0  0  0  0
  1  2  2  0  0  0
  1  5  1  0  0  0
  2  3  1  0  0  0
  2 21  1  0  0  0
  3  4  1  0  0  0
  3 22  1  0  0  0
  4  6  1  0  0  0
  4 10  2  0  0  0
  5  6  2  0  0  0
  5  9  1  0  0  0
  6  7  1  0  0  0
  7  8  1  0  0  0
  7 23  1  0  0  0
  8  9  2  0  0  0
  8 24  1  0  0  0
  9 11  1  0  0  0
 11 12  1  0  0  0
 11 25  1  0  0  0
 11 26  1  0  0  0
 12 13  1  0  0  0
 12 16  1  0  0  0
 13 14  1  0  0  0
 13 27  1  0  0  0
 13 28  1  0  0  0
 14 15  1  0  0  0
 14 18  1  0  0  0
 14 19  1  0  0  0
 15 16  1  0  0  0
 15 17  1  0  0  0
 15 29  1  0  0  0
 16 30  1  0  0  0
 16 31  1  0  0  0
 17 32  1  0  0  0
 19 20  1  0  0  0
 19 33  1  0  0  0
 19 34  1  0  0  0
 20 35  1  0  0  0
M  END
> <s_m_entry_id>
11927

> <s_m_entry_name>
dock_pv.130

> <s_m_Source_Path>
/home/csk/Desktop/cluster/DUD-E-result/pnph

> <s_m_Source_File>
dock_pv.maegz

> <i_m_Source_File_Index>
130

> <chembl_id>
CHEMBL498940

> <chembl_pref_name>
None

> <i_lp_mmshare_version>
53161

> <r_lp_tautomer_probability>
1

> <s_lp_Force_Field>
OPLS_2005

> <r_lp_Energy>
56.791405

> <b_lp_Chiralities_Consistent>
1

> <s_lp_Variant>
CHEMBL4338_lig165-1

> <s_i_glide_gridfile>
glide-grid_3bgs

> <i_i_glide_lignum>
226

> <i_i_glide_rotatable_bonds>
5

> <r_i_docking_score>
-7.47756826370632

> <r_i_glide_ligand_efficiency>
-0.373878413185316

> <r_i_glide_ligand_efficiency_sa>
-1.01486215020135

> <r_i_glide_ligand_efficiency_ln>
-1.87138870969837

> <r_i_glide_gscore>
-7.47756826370632

> <r_i_glide_lipo>
-2.7414990909426

> <r_i_glide_hbond>
-0.641417463019508

> <r_i_glide_metal>
0

> <r_i_glide_rewards>
-1.86509398054661

> <r_i_glide_evdw>
-35.9460716247559

> <r_i_glide_ecoul>
-7.40516519546509

> <r_i_glide_erotb>
0.681161328847022

> <r_i_glide_esite>
-0.00264069748707245

> <r_i_glide_emodel>
-59.0354542221621

> <r_i_glide_energy>
-43.3512368202209

> <r_i_glide_einternal>
6.53025007247925

> <i_i_glide_confnum>
15

> <i_i_glide_posenum>
183

> <r_i_glide_eff_state_penalty>
0

> <s_user_duplicate_titles>
CHEMBL4338_lig165,469187

> <i_f3d_flags>
0

> <s_m_subgroup_title>
dock_pv

> <s_m_subgroupid>
dock_pv

> <b_m_subgroup_collapsed>
1

$$$$
CHEMBL4338_lig110
                    3D
 Schrodinger Suite 2021-1.
 42 43  0  0  1  0            999 V2000
   14.3539   11.0058   57.0271 C   0  0  0  0  0  0
   15.0141   11.0325   55.8141 C   0  0  0  0  0  0
   13.2732   10.2307   57.3056 N   0  0  0  0  0  0
   13.5557    9.3772   55.1682 N   0  0  0  0  0  0
   14.6660   10.0686   54.8005 C   0  0  0  0  0  0
   12.8839    9.4428   56.3590 C   0  0  0  0  0  0
   15.1341   11.7705   57.8719 N   0  0  0  0  0  0
   16.1534   12.3165   57.2112 N   0  0  0  0  0  0
   16.0394   11.9443   55.9814 C   0  0  0  0  0  0
   11.6548   13.8596   59.5044 P   0  0  0  0  0  0
   15.2963    9.7821   53.7940 O   0  0  0  0  0  0
   12.1627   12.7149   58.7140 O   0  0  0  0  0  0
   11.7538    8.6332   56.5061 N   0  0  0  0  0  0
   10.1540   14.2811   59.0880 O   0  0  0  0  0  0
   12.4614   15.2449   59.3059 O   0  0  0  0  0  0
   11.5244   13.7078   61.3112 C   0  0  0  0  0  0
   15.1601   11.8987   59.3272 C   0  0  0  0  0  0
   12.7859   13.0883   61.9521 C   0  0  0  0  0  0
   15.4858   13.3612   59.7637 C   0  0  0  0  0  0
   16.1774   13.5324   61.1302 C   0  0  0  0  0  0
   15.2883   13.3044   62.3586 C   0  0  0  0  0  0
   13.9400   14.0514   62.2827 C   0  0  0  0  0  0
   13.2822    8.6640   54.5093 H   0  0  0  0  0  0
   16.8013   12.2436   55.3062 H   0  0  0  0  0  0
   11.3520    8.5978   57.4265 H   0  0  0  0  0  0
   11.7894    7.6905   56.1052 H   0  0  0  0  0  0
    9.7045   14.9078   59.7037 H   0  0  0  0  0  0
   12.5690   15.4338   58.3452 H   0  0  0  0  0  0
   11.2836   14.6800   61.7386 H   0  0  0  0  0  0
   10.6769   13.0504   61.4987 H   0  0  0  0  0  0
   15.9363   11.2185   59.6820 H   0  0  0  0  0  0
   14.2231   11.5227   59.7273 H   0  0  0  0  0  0
   12.5479   12.6325   62.9061 H   0  0  0  0  0  0
   13.1112   12.2515   61.3421 H   0  0  0  0  0  0
   14.5825   13.9586   59.6930 H   0  0  0  0  0  0
   16.1538   13.8568   59.0633 H   0  0  0  0  0  0
   16.5666   14.5507   61.1851 H   0  0  0  0  0  0
   17.0537   12.8843   61.1858 H   0  0  0  0  0  0
   15.8359   13.6313   63.2444 H   0  0  0  0  0  0
   15.1329   12.2330   62.5062 H   0  0  0  0  0  0
   13.9793   14.8844   61.5806 H   0  0  0  0  0  0
   13.7543   14.5228   63.2480 H   0  0  0  0  0  0
  1  2  2  0  0  0
  1  3  1  0  0  0
  1  7  1  0  0  0
  2  5  1  0  0  0
  2  9  1  0  0  0
  3  6  2  0  0  0
  4  6  1  0  0  0
  4  5  1  0  0  0
  4 23  1  0  0  0
  5 11  2  0  0  0
  6 13  1  0  0  0
  7  8  1  0  0  0
  7 17  1  0  0  0
  8  9  2  0  0  0
  9 24  1  0  0  0
 10 16  1  0  0  0
 10 12  2  0  0  0
 10 14  1  0  0  0
 10 15  1  0  0  0
 13 25  1  0  0  0
 13 26  1  0  0  0
 14 27  1  0  0  0
 15 28  1  0  0  0
 16 18  1  0  0  0
 16 29  1  0  0  0
 16 30  1  0  0  0
 17 19  1  0  0  0
 17 31  1  0  0  0
 17 32  1  0  0  0
 18 22  1  0  0  0
 18 33  1  0  0  0
 18 34  1  0  0  0
 19 20  1  0  0  0
 19 35  1  0  0  0
 19 36  1  0  0  0
 20 21  1  0  0  0
 20 37  1  0  0  0
 20 38  1  0  0  0
 21 22  1  0  0  0
 21 39  1  0  0  0
 21 40  1  0  0  0
 22 41  1  0  0  0
 22 42  1  0  0  0
M  END
> <s_m_entry_id>
11928

> <s_m_entry_name>
dock_pv.131

> <s_m_Source_Path>
/home/csk/Desktop/cluster/DUD-E-result/pnph

> <s_m_Source_File>
dock_pv.maegz

> <i_m_Source_File_Index>
131

> <chembl_id>
CHEMBL176480

> <chembl_pref_name>
None

> <i_lp_mmshare_version>
53161

> <r_lp_tautomer_probability>
1

> <s_lp_Force_Field>
OPLS_2005

> <r_lp_Energy>
11.711778

> <b_lp_Chiralities_Consistent>
1

> <s_lp_Variant>
CHEMBL4338_lig110-1

> <s_i_glide_gridfile>
glide-grid_3bgs

> <i_i_glide_lignum>
130

> <i_i_glide_rotatable_bonds>
10

> <r_i_docking_score>
-7.47484612668434

> <r_i_glide_ligand_efficiency>
-0.339765733031107

> <r_i_glide_ligand_efficiency_sa>
-0.95203694618119

> <r_i_glide_ligand_efficiency_ln>
-1.82712504499881

> <r_i_glide_gscore>
-7.47484612668434

> <r_i_glide_lipo>
-1.59776229128939

> <r_i_glide_hbond>
-0.579347325668504

> <r_i_glide_metal>
0

> <r_i_glide_rewards>
-2.1982666526816

> <r_i_glide_evdw>
-27.1285343170166

> <r_i_glide_ecoul>
-20.1969985961914

> <r_i_glide_erotb>
1.38650664823469

> <r_i_glide_esite>
-0.1

> <r_i_glide_emodel>
-58.5855189660558

> <r_i_glide_energy>
-47.325532913208

> <r_i_glide_einternal>
14.4116439819336

> <i_i_glide_confnum>
202

> <i_i_glide_posenum>
264

> <r_i_glide_eff_state_penalty>
0

> <s_user_duplicate_titles>
CHEMBL4338_lig110

> <i_f3d_flags>
0

> <s_m_subgroup_title>
dock_pv

> <s_m_subgroupid>
dock_pv

> <b_m_subgroup_collapsed>
1

$$$$
CHEMBL4338_lig201
                    3D
 Schrodinger Suite 2021-1.
 34 35  0  0  1  0            999 V2000
   13.6987    8.7499   54.5893 C   0  0  0  0  0  0
   14.5425   10.2223   55.2126 S   0  0  0  0  0  0
   14.1545   10.0279   56.9800 C   0  0  0  0  0  0
   14.7504   11.1196   57.8967 C   0  0  1  0  0  0
   14.2078   12.5251   57.5157 C   0  0  0  0  0  0
   12.8076   12.6330   57.6908 O   0  0  0  0  0  0
   14.4838   10.7298   59.2887 N   0  0  2  0  0  0
   15.2521   11.3193   60.3868 C   0  0  0  0  0  0
   15.0321   12.8088   60.5411 C   0  0  0  0  0  0
   16.0038   13.8062   60.4830 C   0  0  0  0  0  0
   15.3948   15.0331   60.4996 N   0  0  0  0  0  0
   14.0428   14.8546   60.5986 C   0  0  0  0  0  0
   12.9364   15.8082   60.5182 C   0  0  0  0  0  0
   12.9533   17.0148   60.2868 O   0  0  0  0  0  0
   11.7541   15.1434   60.6905 N   0  0  0  0  0  0
   11.5627   13.7907   60.8741 C   0  0  0  0  0  0
   12.5541   12.9706   60.9112 N   0  0  0  0  0  0
   13.8082   13.4838   60.7375 C   0  0  0  0  0  0
   13.7602    8.6994   53.5028 H   0  0  0  0  0  0
   12.6498    8.7585   54.8887 H   0  0  0  0  0  0
   14.1534    7.8463   54.9944 H   0  0  0  0  0  0
   13.0708    9.9797   57.0959 H   0  0  0  0  0  0
   14.5482    9.0543   57.2764 H   0  0  0  0  0  0
   15.8317   11.1158   57.7533 H   0  0  0  0  0  0
   14.7147   13.3233   58.0520 H   0  0  0  0  0  0
   14.4254   12.7447   56.4706 H   0  0  0  0  0  0
   12.5523   13.5311   57.4350 H   0  0  0  0  0  0
   14.2879    9.7456   59.4167 H   0  0  0  0  0  0
   14.9551   10.8120   61.3051 H   0  0  0  0  0  0
   16.3087   11.0905   60.2407 H   0  0  0  0  0  0
   17.0741   13.7361   60.3532 H   0  0  0  0  0  0
   15.8647   15.9261   60.4007 H   0  0  0  0  0  0
   10.9237   15.7185   60.6681 H   0  0  0  0  0  0
   10.5433   13.4419   60.9931 H   0  0  0  0  0  0
  1  2  1  0  0  0
  1 19  1  0  0  0
  1 20  1  0  0  0
  1 21  1  0  0  0
  2  3  1  0  0  0
  3  4  1  0  0  0
  3 22  1  0  0  0
  3 23  1  0  0  0
  4  5  1  0  0  0
  4  7  1  0  0  0
  4 24  1  0  0  0
  5  6  1  0  0  0
  5 25  1  0  0  0
  5 26  1  0  0  0
  6 27  1  0  0  0
  7  8  1  0  0  0
  7 28  1  0  0  0
  8  9  1  0  0  0
  8 29  1  0  0  0
  8 30  1  0  0  0
  9 10  2  0  0  0
  9 18  1  0  0  0
 10 11  1  0  0  0
 10 31  1  0  0  0
 11 12  1  0  0  0
 11 32  1  0  0  0
 12 13  1  0  0  0
 12 18  2  0  0  0
 13 14  2  0  0  0
 13 15  1  0  0  0
 15 16  1  0  0  0
 15 33  1  0  0  0
 16 17  2  0  0  0
 16 34  1  0  0  0
 17 18  1  0  0  0
M  END
> <s_m_entry_id>
11929

> <s_m_entry_name>
dock_pv.132

> <s_m_Source_Path>
/home/csk/Desktop/cluster/DUD-E-result/pnph

> <s_m_Source_File>
dock_pv.maegz

> <i_m_Source_File_Index>
132

> <chembl_id>
CHEMBL462398

> <chembl_pref_name>
None

> <i_lp_mmshare_version>
53161

> <r_lp_tautomer_probability>
1

> <s_lp_Force_Field>
OPLS_2005

> <r_lp_Energy>
27.040587

> <b_lp_Chiralities_Consistent>
1

> <s_lp_Variant>
CHEMBL4338_lig201-2

> <s_i_glide_gridfile>
glide-grid_3bgs

> <i_i_glide_lignum>
273

> <i_i_glide_rotatable_bonds>
7

> <r_i_docking_score>
-7.46527463194922

> <r_i_glide_ligand_efficiency>
-0.414737479552734

> <r_i_glide_ligand_efficiency_sa>
-1.08691967934652

> <r_i_glide_ligand_efficiency_ln>
-1.91891035009628

> <r_i_glide_gscore>
-7.46527463194922

> <r_i_glide_lipo>
-2.14028767018644

> <r_i_glide_hbond>
-0.93475142318965

> <r_i_glide_metal>
0

> <r_i_glide_rewards>
-1.87058971430596

> <r_i_glide_evdw>
-35.8474006652832

> <r_i_glide_ecoul>
-11.458646774292

> <r_i_glide_erotb>
0.991521225140786

> <r_i_glide_esite>
0

> <r_i_glide_emodel>
-66.9656717669677

> <r_i_glide_energy>
-47.3060474395752

> <r_i_glide_einternal>
2.41124582290649

> <i_i_glide_confnum>
3

> <i_i_glide_posenum>
150

> <r_i_glide_eff_state_penalty>
0

> <s_user_duplicate_titles>
CHEMBL4338_lig201,453467

> <i_f3d_flags>
0

> <s_m_subgroup_title>
dock_pv

> <s_m_subgroupid>
dock_pv

> <b_m_subgroup_collapsed>
1

$$$$
CHEMBL4338_lig13
                    3D
 Schrodinger Suite 2021-1.
 29 31  0  0  1  0            999 V2000
   14.4878   12.8254   60.6454 C   0  0  0  0  0  0
   14.1627   12.7905   59.2656 C   0  0  0  0  0  0
   15.2880   12.2690   58.5394 C   0  0  0  0  0  0
   15.7458   12.2840   60.7621 N   0  0  0  0  0  0
   16.2211   11.9562   59.5209 C   0  0  0  0  0  0
   13.5702   13.3554   61.5536 C   0  0  0  0  0  0
   12.3714   13.7823   61.0895 N   0  0  0  0  0  0
   12.9820   13.2263   58.8242 N   0  0  0  0  0  0
   12.1476   13.7045   59.7658 C   0  0  0  0  0  0
   15.4143   12.1259   57.0263 C   0  0  0  0  0  0
   14.5399   11.0298   56.4383 C   0  0  0  0  0  0
   14.9533   10.2955   54.9061 S   0  0  0  0  0  0
   13.9573   13.4343   62.8529 O   0  0  0  0  0  0
   17.4693   11.4328   59.4304 N   0  0  0  0  0  0
   13.6141    9.2108   54.9793 C   0  0  0  0  0  0
   13.3633   10.4426   56.9161 C   0  0  0  0  0  0
   10.9516   14.2079   59.3059 N   0  0  0  0  0  0
   12.8499    9.4301   56.1061 C   0  0  0  0  0  0
   16.2814   12.1324   61.6045 H   0  0  0  0  0  0
   16.4563   11.9491   56.7553 H   0  0  0  0  0  0
   15.1616   13.0754   56.5521 H   0  0  0  0  0  0
   13.1976   13.6879   63.3930 H   0  0  0  0  0  0
   17.8686   11.2085   58.5315 H   0  0  0  0  0  0
   17.9832   11.1350   60.2469 H   0  0  0  0  0  0
   13.4491    8.4726   54.2052 H   0  0  0  0  0  0
   12.8968   10.7255   57.8464 H   0  0  0  0  0  0
   11.0084   14.5027   58.3416 H   0  0  0  0  0  0
   10.3967   14.7152   59.9867 H   0  0  0  0  0  0
   11.9605    8.8614   56.3380 H   0  0  0  0  0  0
  1  2  2  0  0  0
  1  4  1  0  0  0
  1  6  1  0  0  0
  2  3  1  0  0  0
  2  8  1  0  0  0
  3  5  2  0  0  0
  3 10  1  0  0  0
  4  5  1  0  0  0
  4 19  1  0  0  0
  5 14  1  0  0  0
  6  7  2  0  0  0
  6 13  1  0  0  0
  7  9  1  0  0  0
  8  9  2  0  0  0
  9 17  1  0  0  0
 10 11  1  0  0  0
 10 20  1  0  0  0
 10 21  1  0  0  0
 11 12  1  0  0  0
 11 16  2  0  0  0
 12 15  1  0  0  0
 13 22  1  0  0  0
 14 23  1  0  0  0
 14 24  1  0  0  0
 15 18  2  0  0  0
 15 25  1  0  0  0
 16 18  1  0  0  0
 16 26  1  0  0  0
 17 27  1  0  0  0
 17 28  1  0  0  0
 18 29  1  0  0  0
M  END
> <s_m_entry_id>
11930

> <s_m_entry_name>
dock_pv.133

> <s_m_Source_Path>
/home/csk/Desktop/cluster/DUD-E-result/pnph

> <s_m_Source_File>
dock_pv.maegz

> <i_m_Source_File_Index>
133

> <chembl_id>
CHEMBL555096

> <chembl_pref_name>
None

> <i_lp_mmshare_version>
53161

> <r_lp_tautomer_probability>
1

> <s_lp_Force_Field>
OPLS_2005

> <r_lp_Energy>
-3.090337

> <b_lp_Chiralities_Consistent>
1

> <s_lp_Variant>
CHEMBL4338_lig13-1

> <s_i_glide_gridfile>
glide-grid_3bgs

> <i_i_glide_lignum>
13

> <i_i_glide_rotatable_bonds>
3

> <r_i_docking_score>
-7.45734348726602

> <r_i_glide_ligand_efficiency>
-0.414296860403668

> <r_i_glide_ligand_efficiency_sa>
-1.08576493050459

> <r_i_glide_ligand_efficiency_ln>
-1.91687169025173

> <r_i_glide_gscore>
-7.45734348726602

> <r_i_glide_lipo>
-2.10879941090167

> <r_i_glide_hbond>
-0.662368516757125

> <r_i_glide_metal>
0

> <r_i_glide_rewards>
-2.21507086798925

> <r_i_glide_evdw>
-33.5699424743652

> <r_i_glide_ecoul>
-8.56023025512695

> <r_i_glide_erotb>
0.519012029979729

> <r_i_glide_esite>
-0.0275850596104067

> <r_i_glide_emodel>
-57.946789267658

> <r_i_glide_energy>
-42.1301727294922

> <r_i_glide_einternal>
1.80348968505859

> <i_i_glide_confnum>
6

> <i_i_glide_posenum>
108

> <r_i_glide_eff_state_penalty>
0

> <s_user_duplicate_titles>
CHEMBL4338_lig13

> <i_f3d_flags>
0

> <s_m_subgroup_title>
dock_pv

> <s_m_subgroupid>
dock_pv

> <b_m_subgroup_collapsed>
1

$$$$
CHEMBL4338_lig136
                    3D
 Schrodinger Suite 2021-1.
 32 34  0  0  1  0            999 V2000
   14.4957   14.3342   61.2740 C   0  0  0  0  0  0
   16.5654   14.6917   62.8093 C   0  0  0  0  0  0
   14.1736   13.3656   59.1791 C   0  0  0  0  0  0
   14.8712   13.2365   60.4178 C   0  0  0  0  0  0
   15.0233   14.6172   62.6811 C   0  0  1  0  0  0
   14.5559   15.9193   63.1396 N   0  0  2  0  0  0
   16.8620   15.8407   63.8022 C   0  0  2  0  0  0
   13.3534   14.4650   59.3061 N   0  0  0  0  0  0
   13.5402   15.0314   60.5418 C   0  0  0  0  0  0
   14.4110   12.4454   58.1490 C   0  0  0  0  0  0
   15.4538   16.3385   64.2102 C   0  0  1  0  0  0
   15.7280   12.2311   60.6319 N   0  0  0  0  0  0
   15.2812   11.4330   58.3878 N   0  0  0  0  0  0
   15.8831   11.3671   59.5992 C   0  0  0  0  0  0
   17.1687   14.8966   61.6324 F   0  0  0  0  0  0
   17.0286   13.5469   63.3104 F   0  0  0  0  0  0
   13.7522   12.6329   56.9648 O   0  0  0  0  0  0
   17.7519   16.8423   63.3060 O   0  0  0  0  0  0
   15.3636   17.8430   64.5494 C   0  0  0  0  0  0
   14.0514   18.2292   64.9071 O   0  0  0  0  0  0
   14.6242   13.8371   63.3345 H   0  0  0  0  0  0
   13.5787   15.9178   63.4026 H   0  0  0  0  0  0
   17.3293   15.4214   64.6954 H   0  0  0  0  0  0
   12.7114   14.8408   58.6186 H   0  0  0  0  0  0
   12.9790   15.9143   60.8116 H   0  0  0  0  0  0
   15.1520   15.7841   65.1019 H   0  0  0  0  0  0
   16.5612   10.5402   59.7584 H   0  0  0  0  0  0
   13.2901   13.4767   56.9197 H   0  0  0  0  0  0
   18.6210   16.7064   63.6937 H   0  0  0  0  0  0
   15.7006   18.4505   63.7081 H   0  0  0  0  0  0
   16.0314   18.0771   65.3791 H   0  0  0  0  0  0
   13.7540   18.8627   64.2354 H   0  0  0  0  0  0
  1  4  1  0  0  0
  1  5  1  0  0  0
  1  9  2  0  0  0
  2  5  1  0  0  0
  2  7  1  0  0  0
  2 15  1  0  0  0
  2 16  1  0  0  0
  3  4  1  0  0  0
  3  8  1  0  0  0
  3 10  2  0  0  0
  4 12  2  0  0  0
  5  6  1  0  0  0
  5 21  1  0  0  0
  6 11  1  0  0  0
  6 22  1  0  0  0
  7 11  1  0  0  0
  7 18  1  0  0  0
  7 23  1  0  0  0
  8  9  1  0  0  0
  8 24  1  0  0  0
  9 25  1  0  0  0
 10 13  1  0  0  0
 10 17  1  0  0  0
 11 19  1  0  0  0
 11 26  1  0  0  0
 12 14  1  0  0  0
 13 14  2  0  0  0
 14 27  1  0  0  0
 17 28  1  0  0  0
 18 29  1  0  0  0
 19 20  1  0  0  0
 19 30  1  0  0  0
 19 31  1  0  0  0
 20 32  1  0  0  0
M  END
> <s_m_entry_id>
11931

> <s_m_entry_name>
dock_pv.134

> <s_m_Source_Path>
/home/csk/Desktop/cluster/DUD-E-result/pnph

> <s_m_Source_File>
dock_pv.maegz

> <i_m_Source_File_Index>
134

> <chembl_id>
CHEMBL541578

> <chembl_pref_name>
None

> <i_lp_mmshare_version>
53161

> <r_lp_tautomer_probability>
1

> <s_lp_Force_Field>
OPLS_2005

> <r_lp_Energy>
41.310888

> <b_lp_Chiralities_Consistent>
1

> <s_lp_Variant>
CHEMBL4338_lig136-1

> <s_i_glide_gridfile>
glide-grid_3bgs

> <i_i_glide_lignum>
178

> <i_i_glide_rotatable_bonds>
5

> <r_i_docking_score>
-7.45430506529143

> <r_i_glide_ligand_efficiency>
-0.372715253264572

> <r_i_glide_ligand_efficiency_sa>
-1.01170484842472

> <r_i_glide_ligand_efficiency_ln>
-1.86556669840675

> <r_i_glide_gscore>
-7.45430506529143

> <r_i_glide_lipo>
-1.47934286786402

> <r_i_glide_hbond>
-1.1441348519487

> <r_i_glide_metal>
0

> <r_i_glide_rewards>
-2.05463782089763

> <r_i_glide_evdw>
-26.7732772827148

> <r_i_glide_ecoul>
-12.5383243560791

> <r_i_glide_erotb>
0.443222992966522

> <r_i_glide_esite>
0

> <r_i_glide_emodel>
-53.9738259645141

> <r_i_glide_energy>
-39.3116016387939

> <r_i_glide_einternal>
3.66858696937561

> <i_i_glide_confnum>
10

> <i_i_glide_posenum>
139

> <r_i_glide_eff_state_penalty>
0

> <s_user_duplicate_titles>
CHEMBL4338_lig136,551795

> <i_f3d_flags>
0

> <s_m_subgroup_title>
dock_pv

> <s_m_subgroupid>
dock_pv

> <b_m_subgroup_collapsed>
1

$$$$
CHEMBL4338_lig109
                    3D
 Schrodinger Suite 2021-1.
 36 37  0  0  1  0            999 V2000
   14.0895   11.2330   56.6156 C   0  0  0  0  0  0
   14.8592   10.9724   55.4647 C   0  0  0  0  0  0
   13.1007   10.4576   57.0698 N   0  0  0  0  0  0
   14.5647   12.4381   57.1024 N   0  0  0  0  0  0
   15.7540   11.9797   55.3060 N   0  0  0  0  0  0
   15.5725   12.8767   56.3275 N   0  0  0  0  0  0
   13.5349    9.0330   55.1509 N   0  0  0  0  0  0
   14.5725    9.7898   54.7578 C   0  0  0  0  0  0
   12.8491    9.4148   56.2402 C   0  0  0  0  0  0
   12.3610   15.5923   61.0516 P   0  0  0  0  0  0
   15.3540    9.4359   53.7061 O   0  0  0  0  0  0
   12.9455   16.2617   62.2424 O   0  0  0  0  0  0
   14.1583   13.1865   58.2534 C   0  0  0  0  0  0
   11.7539    8.6330   56.5060 N   0  0  0  0  0  0
   13.2451   15.7425   59.7059 O   0  0  0  0  0  0
   10.9540   16.2208   60.5658 O   0  0  0  0  0  0
   11.9896   13.7886   61.0914 C   0  0  0  0  0  0
   14.9907   12.9663   59.3514 O   0  0  0  0  0  0
   14.8362   11.7401   60.0606 C   0  0  0  0  0  0
   13.1663   12.9432   61.6443 C   0  0  0  0  0  0
   13.4956   11.6744   60.8179 C   0  0  0  0  0  0
   15.0646    8.5875   53.3590 H   0  0  0  0  0  0
   13.1090   12.9759   58.4494 H   0  0  0  0  0  0
   14.2603   14.2330   57.9896 H   0  0  0  0  0  0
   11.7538    7.7185   56.0217 H   0  0  0  0  0  0
   11.2660    8.7516   57.3748 H   0  0  0  0  0  0
   12.8418   15.3683   58.8970 H   0  0  0  0  0  0
   10.0940   15.8330   60.9060 H   0  0  0  0  0  0
   11.1060   13.6318   61.7060 H   0  0  0  0  0  0
   11.6968   13.4826   60.0905 H   0  0  0  0  0  0
   15.6565   11.6757   60.7765 H   0  0  0  0  0  0
   14.9517   10.8817   59.3970 H   0  0  0  0  0  0
   14.0634   13.5568   61.7474 H   0  0  0  0  0  0
   12.9375   12.6440   62.6685 H   0  0  0  0  0  0
   13.5341   10.8161   61.4895 H   0  0  0  0  0  0
   12.7035   11.4412   60.1059 H   0  0  0  0  0  0
  1  2  1  0  0  0
  1  3  2  0  0  0
  1  4  1  0  0  0
  2  5  1  0  0  0
  2  8  2  0  0  0
  3  9  1  0  0  0
  4  6  1  0  0  0
  4 13  1  0  0  0
  5  6  2  0  0  0
  7  9  2  0  0  0
  7  8  1  0  0  0
  8 11  1  0  0  0
  9 14  1  0  0  0
 10 17  1  0  0  0
 10 12  2  0  0  0
 10 15  1  0  0  0
 10 16  1  0  0  0
 11 22  1  0  0  0
 13 18  1  0  0  0
 13 23  1  0  0  0
 13 24  1  0  0  0
 14 25  1  0  0  0
 14 26  1  0  0  0
 15 27  1  0  0  0
 16 28  1  0  0  0
 17 20  1  0  0  0
 17 29  1  0  0  0
 17 30  1  0  0  0
 18 19  1  0  0  0
 19 21  1  0  0  0
 19 31  1  0  0  0
 19 32  1  0  0  0
 20 21  1  0  0  0
 20 33  1  0  0  0
 20 34  1  0  0  0
 21 35  1  0  0  0
 21 36  1  0  0  0
M  END
> <s_m_entry_id>
11932

> <s_m_entry_name>
dock_pv.135

> <s_m_Source_Path>
/home/csk/Desktop/cluster/DUD-E-result/pnph

> <s_m_Source_File>
dock_pv.maegz

> <i_m_Source_File_Index>
135

> <chembl_id>
CHEMBL174603

> <chembl_pref_name>
None

> <i_lp_mmshare_version>
53161

> <r_lp_tautomer_probability>
1

> <s_lp_Force_Field>
OPLS_2005

> <r_lp_Energy>
-4.273908

> <b_lp_Chiralities_Consistent>
1

> <s_lp_Variant>
CHEMBL4338_lig109-1

> <s_i_glide_gridfile>
glide-grid_3bgs

> <i_i_glide_lignum>
129

> <i_i_glide_rotatable_bonds>
10

> <r_i_docking_score>
-7.45392660138803

> <r_i_glide_ligand_efficiency>
-0.354948885780382

> <r_i_glide_ligand_efficiency_sa>
-0.979277061365227

> <r_i_glide_ligand_efficiency_ln>
-1.84296829011627

> <r_i_glide_gscore>
-7.45392660138803

> <r_i_glide_lipo>
-1.21034679679542

> <r_i_glide_hbond>
-0.206115509284686

> <r_i_glide_metal>
0

> <r_i_glide_rewards>
-2.62422681206077

> <r_i_glide_evdw>
-28.8640804290771

> <r_i_glide_ecoul>
-21.0575256347656

> <r_i_glide_erotb>
1.28859538342154

> <r_i_glide_esite>
-0.1

> <r_i_glide_emodel>
-65.8468736783431

> <r_i_glide_energy>
-49.9216060638428

> <r_i_glide_einternal>
9.76851558685303

> <i_i_glide_confnum>
200

> <i_i_glide_posenum>
314

> <r_i_glide_eff_state_penalty>
0

> <s_user_duplicate_titles>
CHEMBL4338_lig109,292894

> <i_f3d_flags>
0

> <s_m_subgroup_title>
dock_pv

> <s_m_subgroupid>
dock_pv

> <b_m_subgroup_collapsed>
1

$$$$
CHEMBL4338_lig53
                    3D
 Schrodinger Suite 2021-1.
 36 38  0  0  1  0            999 V2000
   13.7682   14.0270   61.3619 C   0  0  0  0  0  0
   13.0127   15.2339   61.3020 C   0  0  0  0  0  0
   13.3840   13.2007   60.2377 C   0  0  0  0  0  0
   14.2003   16.0390   63.1840 N   0  0  0  0  0  0
   13.2535   16.2399   62.2384 C   0  0  0  0  0  0
   14.6672   13.8281   62.3335 N   0  0  0  0  0  0
   12.1505   15.1196   60.2372 N   0  0  0  0  0  0
   14.8397   14.8519   63.1930 C   0  0  0  0  0  0
   12.3785   13.9243   59.6072 C   0  0  0  0  0  0
   13.8970   11.8270   59.7907 C   0  0  1  0  0  0
   14.1189   11.7328   58.2753 C   0  0  0  0  0  0
   16.4877   11.9226   60.3614 C   0  0  0  0  0  0
   15.1178   11.2492   60.5689 C   0  0  0  0  0  0
   12.5544   17.4006   62.1043 O   0  0  0  0  0  0
   13.6616   10.6089   57.5816 C   0  0  0  0  0  0
   15.7910   14.6712   64.1761 N   0  0  0  0  0  0
   16.6373   13.1139   60.1067 O   0  0  0  0  0  0
   13.9240   10.4604   56.2229 C   0  0  0  0  0  0
   17.5100   11.0347   60.5058 O   0  0  0  0  0  0
   13.3558    9.0713   55.3813 Cl  0  0  0  0  0  0
   14.8169   12.7283   57.5745 C   0  0  0  0  0  0
   15.0968   12.5724   56.2168 C   0  0  0  0  0  0
   14.6578   11.4323   55.5478 C   0  0  0  0  0  0
   11.4486   15.7785   59.9308 H   0  0  0  0  0  0
   11.8069   13.6821   58.7237 H   0  0  0  0  0  0
   13.0770   11.1450   60.0196 H   0  0  0  0  0  0
   14.8906   11.2374   61.6341 H   0  0  0  0  0  0
   15.2169   10.2005   60.2828 H   0  0  0  0  0  0
   12.9614   18.0732   62.6643 H   0  0  0  0  0  0
   13.1169    9.8355   58.0973 H   0  0  0  0  0  0
   16.3647   13.8455   64.1148 H   0  0  0  0  0  0
   16.0231   15.4577   64.7584 H   0  0  0  0  0  0
   17.2022   10.1809   60.8155 H   0  0  0  0  0  0
   15.1696   13.6126   58.0851 H   0  0  0  0  0  0
   15.6479   13.3358   55.6860 H   0  0  0  0  0  0
   14.8754   11.3050   54.5010 H   0  0  0  0  0  0
  1  2  1  0  0  0
  1  3  1  0  0  0
  1  6  2  0  0  0
  2  5  2  0  0  0
  2  7  1  0  0  0
  3  9  2  0  0  0
  3 10  1  0  0  0
  4  8  2  0  0  0
  4  5  1  0  0  0
  5 14  1  0  0  0
  6  8  1  0  0  0
  7  9  1  0  0  0
  7 24  1  0  0  0
  8 16  1  0  0  0
  9 25  1  0  0  0
 10 11  1  0  0  0
 10 13  1  0  0  0
 10 26  1  0  0  0
 11 15  1  0  0  0
 11 21  2  0  0  0
 12 13  1  0  0  0
 12 17  2  0  0  0
 12 19  1  0  0  0
 13 27  1  0  0  0
 13 28  1  0  0  0
 14 29  1  0  0  0
 15 18  2  0  0  0
 15 30  1  0  0  0
 16 31  1  0  0  0
 16 32  1  0  0  0
 18 20  1  0  0  0
 18 23  1  0  0  0
 19 33  1  0  0  0
 21 22  1  0  0  0
 21 34  1  0  0  0
 22 23  2  0  0  0
 22 35  1  0  0  0
 23 36  1  0  0  0
M  END
> <s_m_entry_id>
11933

> <s_m_entry_name>
dock_pv.136

> <s_m_Source_Path>
/home/csk/Desktop/cluster/DUD-E-result/pnph

> <s_m_Source_File>
dock_pv.maegz

> <i_m_Source_File_Index>
136

> <chembl_id>
CHEMBL79132

> <chembl_pref_name>
None

> <i_lp_mmshare_version>
53161

> <r_lp_tautomer_probability>
1

> <s_lp_Force_Field>
OPLS_2005

> <r_lp_Energy>
8.053021

> <b_lp_Chiralities_Consistent>
1

> <s_lp_Variant>
CHEMBL4338_lig53-1

> <s_i_glide_gridfile>
glide-grid_3bgs

> <i_i_glide_lignum>
65

> <i_i_glide_rotatable_bonds>
6

> <r_i_docking_score>
-7.42619485033596

> <r_i_glide_ligand_efficiency>
-0.322878036971129

> <r_i_glide_ligand_efficiency_sa>
-0.918222186901793

> <r_i_glide_ligand_efficiency_ln>
-1.79572125182322

> <r_i_glide_gscore>
-7.42619485033596

> <r_i_glide_lipo>
-3.13665522283831

> <r_i_glide_hbond>
-0.407037109983382

> <r_i_glide_metal>
0

> <r_i_glide_rewards>
-1.73725677733323

> <r_i_glide_evdw>
-43.9825325012207

> <r_i_glide_ecoul>
-4.17811489105225

> <r_i_glide_erotb>
0.680598118537828

> <r_i_glide_esite>
0

> <r_i_glide_emodel>
-66.5638999611087

> <r_i_glide_energy>
-48.1606473922729

> <r_i_glide_einternal>
5.11950588226318

> <i_i_glide_confnum>
11

> <i_i_glide_posenum>
275

> <r_i_glide_eff_state_penalty>
0

> <s_user_duplicate_titles>
CHEMBL4338_lig53,128377,204822

> <i_f3d_flags>
0

> <s_m_subgroup_title>
dock_pv

> <s_m_subgroupid>
dock_pv

> <b_m_subgroup_collapsed>
1

$$$$
CHEMBL4338_lig16
                    3D
 Schrodinger Suite 2021-1.
 38 40  0  0  1  0            999 V2000
   13.2732   14.3068   61.4130 C   0  0  0  0  0  0
   12.4876   15.2775   60.8617 C   0  0  0  0  0  0
   14.1540   14.4285   62.4563 N   0  0  0  0  0  0
   12.9739   13.1842   60.7022 N   0  0  0  0  0  0
   13.3601   16.6330   62.5060 N   0  0  0  0  0  0
   11.7642   14.8170   59.8255 N   0  0  0  0  0  0
   12.5876   16.6227   61.3762 C   0  0  0  0  0  0
   14.1540   15.6060   62.9787 C   0  0  0  0  0  0
   13.3723    9.8330   55.9610 P   0  0  0  0  0  0
   12.0977   13.5523   59.7479 C   0  0  0  0  0  0
   13.5675   11.8630   60.8749 C   0  0  0  0  0  0
   14.1540   10.0895   57.5270 C   0  0  0  0  0  0
   14.3859   11.3140   58.0238 C   0  0  0  0  0  0
   15.0064   11.8552   60.3997 C   0  0  0  0  0  0
   11.9977    9.0330   56.2707 O   0  0  0  0  0  0
   12.9540   11.3594   55.7060 O   0  0  0  0  0  0
   12.1540   17.6622   60.9060 O   0  0  0  0  0  0
   14.2451    9.2459   54.9134 O   0  0  0  0  0  0
   15.3510   11.5314   59.0863 C   0  0  0  0  0  0
   14.9540   15.8921   64.0082 N   0  0  0  0  0  0
   16.0203   12.1490   61.3060 C   0  0  0  0  0  0
   16.6955   11.4330   58.7282 C   0  0  0  0  0  0
   17.3539   11.9826   60.9557 C   0  0  0  0  0  0
   17.6949   11.5834   59.6746 C   0  0  0  0  0  0
   11.7540   12.8443   59.0087 H   0  0  0  0  0  0
   12.9540   11.1480   60.3269 H   0  0  0  0  0  0
   13.4885   11.6325   61.9390 H   0  0  0  0  0  0
   14.5540    9.2140   58.0149 H   0  0  0  0  0  0
   13.9562   12.2080   57.5961 H   0  0  0  0  0  0
   11.9677    8.1124   55.9115 H   0  0  0  0  0  0
   12.2208   11.4330   55.0442 H   0  0  0  0  0  0
   13.4707   17.5464   62.9221 H   0  0  0  0  0  0
   15.5393   15.1610   64.3827 H   0  0  0  0  0  0
   14.9767   16.8088   64.4275 H   0  0  0  0  0  0
   15.7767   12.4134   62.3239 H   0  0  0  0  0  0
   16.9682   11.1859   57.7128 H   0  0  0  0  0  0
   18.1142   12.1207   61.7060 H   0  0  0  0  0  0
   18.7239   11.4330   59.3863 H   0  0  0  0  0  0
  1  4  1  0  0  0
  1  3  1  0  0  0
  1  2  2  0  0  0
  2  7  1  0  0  0
  2  6  1  0  0  0
  3  8  2  0  0  0
  4 10  1  0  0  0
  4 11  1  0  0  0
  5  8  1  0  0  0
  5 32  1  0  0  0
  5  7  1  0  0  0
  6 10  2  0  0  0
  7 17  2  0  0  0
  8 20  1  0  0  0
  9 12  1  0  0  0
  9 15  1  0  0  0
  9 16  1  0  0  0
  9 18  2  0  0  0
 10 25  1  0  0  0
 11 14  1  0  0  0
 11 26  1  0  0  0
 11 27  1  0  0  0
 12 13  2  0  0  0
 12 28  1  0  0  0
 13 19  1  0  0  0
 13 29  1  0  0  0
 14 19  1  0  0  0
 14 21  2  0  0  0
 15 30  1  0  0  0
 16 31  1  0  0  0
 19 22  2  0  0  0
 20 33  1  0  0  0
 20 34  1  0  0  0
 21 23  1  0  0  0
 21 35  1  0  0  0
 22 24  1  0  0  0
 22 36  1  0  0  0
 23 24  2  0  0  0
 23 37  1  0  0  0
 24 38  1  0  0  0
M  END
> <s_m_entry_id>
11934

> <s_m_entry_name>
dock_pv.137

> <s_m_Source_Path>
/home/csk/Desktop/cluster/DUD-E-result/pnph

> <s_m_Source_File>
dock_pv.maegz

> <i_m_Source_File_Index>
137

> <chembl_id>
CHEMBL1161033

> <chembl_pref_name>
None

> <i_lp_mmshare_version>
53161

> <r_lp_tautomer_probability>
0.999940409345307

> <s_lp_Force_Field>
OPLS_2005

> <r_lp_Energy>
3.525272

> <b_lp_Chiralities_Consistent>
1

> <s_lp_Variant>
CHEMBL4338_lig16-1

> <s_i_glide_gridfile>
glide-grid_3bgs

> <i_i_glide_lignum>
16

> <i_i_glide_rotatable_bonds>
6

> <r_i_docking_score>
-7.42105093697764

> <r_i_glide_ligand_efficiency>
-0.309210455707402

> <r_i_glide_ligand_efficiency_sa>
-0.891917292812262

> <r_i_glide_ligand_efficiency_ln>
-1.77619801905703

> <r_i_glide_gscore>
-7.42105093697764

> <r_i_glide_lipo>
-2.2053537949705

> <r_i_glide_hbond>
-0.260049536901419

> <r_i_glide_metal>
0

> <r_i_glide_rewards>
-2.10149228154373

> <r_i_glide_evdw>
-30.7374782562256

> <r_i_glide_ecoul>
-12.988242149353

> <r_i_glide_erotb>
0.630954911652253

> <r_i_glide_esite>
0

> <r_i_glide_emodel>
-53.541021862821

> <r_i_glide_energy>
-43.7257204055786

> <r_i_glide_einternal>
6.8318018913269

> <i_i_glide_confnum>
20

> <i_i_glide_posenum>
74

> <r_i_glide_eff_state_penalty>
0

> <s_user_duplicate_titles>
CHEMBL4338_lig16,642572

> <i_f3d_flags>
0

> <s_m_subgroup_title>
dock_pv

> <s_m_subgroupid>
dock_pv

> <b_m_subgroup_collapsed>
1

$$$$
CHEMBL4338_lig139
                    3D
 Schrodinger Suite 2021-1.
 33 35  0  0  1  0            999 V2000
   13.9041   12.9538   58.9999 C   0  0  0  0  0  0
   13.8374   11.4015   57.2598 C   0  0  0  0  0  0
   14.4573   12.6032   57.7170 C   0  0  0  0  0  0
   14.2553   14.1429   59.8736 C   0  0  2  0  0  0
   15.6804   14.1052   60.1226 N   0  0  1  0  0  0
   12.9543   11.0330   58.2383 N   0  0  0  0  0  0
   13.5275   14.2933   61.2391 C   0  0  1  0  0  0
   12.9942   11.9570   59.2462 C   0  0  0  0  0  0
   14.2332   10.8819   56.0241 C   0  0  0  0  0  0
   14.6674   14.5402   62.2464 C   0  0  2  0  0  0
   15.8653   14.8633   61.3443 C   0  0  1  0  0  0
   15.4040   13.2086   56.9951 N   0  0  0  0  0  0
   15.2184   11.4616   55.3071 N   0  0  0  0  0  0
   15.7474   12.5865   55.8423 C   0  0  0  0  0  0
   13.4096    9.4321   55.4623 S   0  0  0  0  0  0
   12.5785   15.3484   61.2054 O   0  0  0  0  0  0
   14.9525   13.4330   63.0689 O   0  0  0  0  0  0
   17.2640   14.6947   61.9704 C   0  0  0  0  0  0
   18.2594   15.0342   61.0306 O   0  0  0  0  0  0
   14.0495   15.0312   59.2821 H   0  0  0  0  0  0
   15.9614   13.1458   60.2732 H   0  0  0  0  0  0
   12.3673   10.2123   58.2717 H   0  0  0  0  0  0
   13.0097   13.3724   61.5021 H   0  0  0  0  0  0
   12.3788   11.8335   60.1053 H   0  0  0  0  0  0
   14.4512   15.3993   62.8844 H   0  0  0  0  0  0
   15.7538   15.8912   61.0444 H   0  0  0  0  0  0
   16.5537   13.0316   55.3060 H   0  0  0  0  0  0
   12.5496    9.2975   56.4967 H   0  0  0  0  0  0
   12.1631   15.4041   62.0713 H   0  0  0  0  0  0
   14.1795   13.1977   63.5969 H   0  0  0  0  0  0
   17.4257   13.6706   62.3098 H   0  0  0  0  0  0
   17.3601   15.3382   62.8452 H   0  0  0  0  0  0
   17.9252   15.7629   60.4955 H   0  0  0  0  0  0
  1  3  1  0  0  0
  1  4  1  0  0  0
  1  8  2  0  0  0
  2  3  1  0  0  0
  2  6  1  0  0  0
  2  9  2  0  0  0
  3 12  2  0  0  0
  4  5  1  0  0  0
  4  7  1  0  0  0
  4 20  1  0  0  0
  5 11  1  0  0  0
  5 21  1  0  0  0
  6  8  1  0  0  0
  6 22  1  0  0  0
  7 10  1  0  0  0
  7 16  1  0  0  0
  7 23  1  0  0  0
  8 24  1  0  0  0
  9 13  1  0  0  0
  9 15  1  0  0  0
 10 11  1  0  0  0
 10 17  1  0  0  0
 10 25  1  0  0  0
 11 18  1  0  0  0
 11 26  1  0  0  0
 12 14  1  0  0  0
 13 14  2  0  0  0
 14 27  1  0  0  0
 15 28  1  0  0  0
 16 29  1  0  0  0
 17 30  1  0  0  0
 18 19  1  0  0  0
 18 31  1  0  0  0
 18 32  1  0  0  0
 19 33  1  0  0  0
M  END
> <s_m_entry_id>
11935

> <s_m_entry_name>
dock_pv.138

> <s_m_Source_Path>
/home/csk/Desktop/cluster/DUD-E-result/pnph

> <s_m_Source_File>
dock_pv.maegz

> <i_m_Source_File_Index>
138

> <chembl_id>
CHEMBL555985

> <chembl_pref_name>
None

> <i_lp_mmshare_version>
53161

> <r_lp_tautomer_probability>
1

> <s_lp_Force_Field>
OPLS_2005

> <r_lp_Energy>
37.643209

> <b_lp_Chiralities_Consistent>
1

> <s_lp_Variant>
CHEMBL4338_lig139-2

> <s_i_glide_gridfile>
glide-grid_3bgs

> <i_i_glide_lignum>
184

> <i_i_glide_rotatable_bonds>
6

> <r_i_docking_score>
-7.41740014738792

> <r_i_glide_ligand_efficiency>
-0.390389481441469

> <r_i_glide_ligand_efficiency_sa>
-1.0417159348997

> <r_i_glide_ligand_efficiency_ln>
-1.88047024851058

> <r_i_glide_gscore>
-7.41740014738792

> <r_i_glide_lipo>
-2.08553151624962

> <r_i_glide_hbond>
-0.806517986637563

> <r_i_glide_metal>
0

> <r_i_glide_rewards>
-2.0865790585575

> <r_i_glide_evdw>
-30.6051750183105

> <r_i_glide_ecoul>
-9.08322334289551

> <r_i_glide_erotb>
0.45397066640661

> <r_i_glide_esite>
0

> <r_i_glide_emodel>
-54.1873641642425

> <r_i_glide_energy>
-39.6883983612061

> <r_i_glide_einternal>
4.57320833206177

> <i_i_glide_confnum>
16

> <i_i_glide_posenum>
195

> <r_i_glide_eff_state_penalty>
0

> <s_user_duplicate_titles>
CHEMBL4338_lig139

> <i_f3d_flags>
0

> <s_m_subgroup_title>
dock_pv

> <s_m_subgroupid>
dock_pv

> <b_m_subgroup_collapsed>
1

$$$$
CHEMBL4338_lig20
                    3D
 Schrodinger Suite 2021-1.
 19 20  0  0  1  0            999 V2000
   13.5844   13.0709   59.3438 C   0  0  0  0  0  0
   14.2092   12.9496   60.6121 C   0  0  0  0  0  0
   14.2277   12.4859   58.2327 C   0  0  0  0  0  0
   12.4051   13.7768   59.4436 N   0  0  0  0  0  0
   15.4194   12.2825   60.7849 C   0  0  0  0  0  0
   15.3983   11.8192   58.4027 N   0  0  0  0  0  0
   12.3297   14.0898   60.7111 C   0  0  0  0  0  0
   13.3640   13.6092   61.4660 N   0  0  0  0  0  0
   15.9583   11.7302   59.6295 C   0  0  0  0  0  0
   13.6236   12.6324   57.0151 O   0  0  0  0  0  0
   11.3542   14.8195   61.3056 N   0  0  0  0  0  0
   17.1489   11.0333   59.7137 N   0  0  0  0  0  0
   15.9040   12.2002   61.7431 H   0  0  0  0  0  0
   13.4339   13.7477   62.4628 H   0  0  0  0  0  0
   12.9428   13.3120   57.0410 H   0  0  0  0  0  0
   10.4635   15.0320   60.8580 H   0  0  0  0  0  0
   11.3523   14.9069   62.3159 H   0  0  0  0  0  0
   17.4955   10.7903   60.6296 H   0  0  0  0  0  0
   17.4206   10.5106   58.8971 H   0  0  0  0  0  0
  1  2  2  0  0  0
  1  3  1  0  0  0
  1  4  1  0  0  0
  2  5  1  0  0  0
  2  8  1  0  0  0
  3  6  2  0  0  0
  3 10  1  0  0  0
  4  7  2  0  0  0
  5  9  2  0  0  0
  5 13  1  0  0  0
  6  9  1  0  0  0
  7 11  1  0  0  0
  7  8  1  0  0  0
  8 14  1  0  0  0
  9 12  1  0  0  0
 10 15  1  0  0  0
 11 16  1  0  0  0
 11 17  1  0  0  0
 12 18  1  0  0  0
 12 19  1  0  0  0
M  END
> <s_m_entry_id>
11936

> <s_m_entry_name>
dock_pv.139

> <s_m_Source_Path>
/home/csk/Desktop/cluster/DUD-E-result/pnph

> <s_m_Source_File>
dock_pv.maegz

> <i_m_Source_File_Index>
139

> <chembl_id>
CHEMBL61868

> <chembl_pref_name>
None

> <i_lp_mmshare_version>
53161

> <r_lp_tautomer_probability>
1

> <s_lp_Force_Field>
OPLS_2005

> <r_lp_Energy>
3.209126

> <b_lp_Chiralities_Consistent>
1

> <s_lp_Variant>
CHEMBL4338_lig20-1

> <s_i_glide_gridfile>
glide-grid_3bgs

> <i_i_glide_lignum>
22

> <i_i_glide_rotatable_bonds>
1

> <r_i_docking_score>
-7.41588706738579

> <r_i_glide_ligand_efficiency>
-0.617990588948816

> <r_i_glide_ligand_efficiency_sa>
-1.41484525669534

> <r_i_glide_ligand_efficiency_ln>
-2.12800164039887

> <r_i_glide_gscore>
-7.41588706738579

> <r_i_glide_lipo>
-1.18667732060365

> <r_i_glide_hbond>
-0.845436087834953

> <r_i_glide_metal>
0

> <r_i_glide_rewards>
-2.60359305166172

> <r_i_glide_evdw>
-21.4302883148193

> <r_i_glide_ecoul>
-11.1487474441528

> <r_i_glide_erotb>
0

> <r_i_glide_esite>
-0.0363540749215754

> <r_i_glide_emodel>
-46.2293504696334

> <r_i_glide_energy>
-32.5790357589722

> <r_i_glide_einternal>
0.179373726248741

> <i_i_glide_confnum>
1

> <i_i_glide_posenum>
318

> <r_i_glide_eff_state_penalty>
0

> <s_user_duplicate_titles>
CHEMBL4338_lig20

> <i_f3d_flags>
0

> <s_m_subgroup_title>
dock_pv

> <s_m_subgroupid>
dock_pv

> <b_m_subgroup_collapsed>
1

$$$$
CHEMBL4338_lig139
                    3D
 Schrodinger Suite 2021-1.
 33 35  0  0  1  0            999 V2000
   14.4715   13.9528   60.9982 C   0  0  0  0  0  0
   14.1195   12.7799   59.0149 C   0  0  0  0  0  0
   14.7131   12.7133   60.3116 C   0  0  0  0  0  0
   15.0007   14.3167   62.3862 C   0  0  2  0  0  0
   14.5529   15.6377   62.8049 N   0  0  2  0  0  0
   13.4920   14.0030   58.9376 N   0  0  0  0  0  0
   16.5485   14.3410   62.5195 C   0  0  2  0  0  0
   13.6957   14.6915   60.1117 C   0  0  0  0  0  0
   14.2995   11.6817   58.1650 C   0  0  0  0  0  0
   16.7936   15.3947   63.6350 C   0  0  2  0  0  0
   15.3854   15.9592   63.9582 C   0  0  1  0  0  0
   15.3980   11.6338   60.7116 N   0  0  0  0  0  0
   14.9543   10.5784   58.5694 N   0  0  0  0  0  0
   15.4756   10.6166   59.8145 C   0  0  0  0  0  0
   13.7540   11.8329   56.5062 S   0  0  0  0  0  0
   17.2132   14.6332   61.2934 O   0  0  0  0  0  0
   17.7546   16.3984   63.3050 O   0  0  0  0  0  0
   15.3358   17.4447   64.3907 C   0  0  0  0  0  0
   14.0551   17.8328   64.8491 O   0  0  0  0  0  0
   14.5810   13.5773   63.0739 H   0  0  0  0  0  0
   13.5649   15.6431   63.0256 H   0  0  0  0  0  0
   12.9644   14.3923   58.1611 H   0  0  0  0  0  0
   16.8850   13.3577   62.8521 H   0  0  0  0  0  0
   13.2857   15.6843   60.2250 H   0  0  0  0  0  0
   17.1572   14.8852   64.5291 H   0  0  0  0  0  0
   14.9962   15.3734   64.7947 H   0  0  0  0  0  0
   16.0377    9.7443   60.1059 H   0  0  0  0  0  0
   13.2916   13.1023   56.6174 H   0  0  0  0  0  0
   17.0829   15.5694   61.1066 H   0  0  0  0  0  0
   18.2622   16.6132   64.0929 H   0  0  0  0  0  0
   15.6519   18.0978   63.5756 H   0  0  0  0  0  0
   16.0402   17.6145   65.2059 H   0  0  0  0  0  0
   13.7540   18.5508   64.2757 H   0  0  0  0  0  0
  1  3  1  0  0  0
  1  4  1  0  0  0
  1  8  2  0  0  0
  2  3  1  0  0  0
  2  6  1  0  0  0
  2  9  2  0  0  0
  3 12  2  0  0  0
  4  5  1  0  0  0
  4  7  1  0  0  0
  4 20  1  0  0  0
  5 11  1  0  0  0
  5 21  1  0  0  0
  6  8  1  0  0  0
  6 22  1  0  0  0
  7 10  1  0  0  0
  7 16  1  0  0  0
  7 23  1  0  0  0
  8 24  1  0  0  0
  9 13  1  0  0  0
  9 15  1  0  0  0
 10 11  1  0  0  0
 10 17  1  0  0  0
 10 25  1  0  0  0
 11 18  1  0  0  0
 11 26  1  0  0  0
 12 14  1  0  0  0
 13 14  2  0  0  0
 14 27  1  0  0  0
 15 28  1  0  0  0
 16 29  1  0  0  0
 17 30  1  0  0  0
 18 19  1  0  0  0
 18 31  1  0  0  0
 18 32  1  0  0  0
 19 33  1  0  0  0
M  END
> <s_m_entry_id>
11937

> <s_m_entry_name>
dock_pv.140

> <s_m_Source_Path>
/home/csk/Desktop/cluster/DUD-E-result/pnph

> <s_m_Source_File>
dock_pv.maegz

> <i_m_Source_File_Index>
140

> <chembl_id>
CHEMBL555985

> <chembl_pref_name>
None

> <i_lp_mmshare_version>
53161

> <r_lp_tautomer_probability>
1

> <s_lp_Force_Field>
OPLS_2005

> <r_lp_Energy>
43.162697

> <b_lp_Chiralities_Consistent>
1

> <s_lp_Variant>
CHEMBL4338_lig139-1

> <s_i_glide_gridfile>
glide-grid_3bgs

> <i_i_glide_lignum>
183

> <i_i_glide_rotatable_bonds>
6

> <r_i_docking_score>
-7.40950783888894

> <r_i_glide_ligand_efficiency>
-0.389974096783628

> <r_i_glide_ligand_efficiency_sa>
-1.04060752179495

> <r_i_glide_ligand_efficiency_ln>
-1.87846937879484

> <r_i_glide_gscore>
-7.40950783888894

> <r_i_glide_lipo>
-1.62573499933731

> <r_i_glide_hbond>
-0.725071242811726

> <r_i_glide_metal>
0

> <r_i_glide_rewards>
-2.3403960523616

> <r_i_glide_evdw>
-29.6031818389893

> <r_i_glide_ecoul>
-11.2807807922363

> <r_i_glide_erotb>
0.45397066640661

> <r_i_glide_esite>
0

> <r_i_glide_emodel>
-56.0892082618271

> <r_i_glide_energy>
-40.8839626312256

> <r_i_glide_einternal>
3.55012798309326

> <i_i_glide_confnum>
10

> <i_i_glide_posenum>
284

> <r_i_glide_eff_state_penalty>
0

> <s_user_duplicate_titles>
CHEMBL4338_lig139,546777

> <i_f3d_flags>
0

> <s_m_subgroup_title>
dock_pv

> <s_m_subgroupid>
dock_pv

> <b_m_subgroup_collapsed>
1

$$$$
CHEMBL4338_lig151
                    3D
 Schrodinger Suite 2021-1.
 32 33  0  0  1  0            999 V2000
   13.7219   11.6717   58.1222 N   0  0  0  0  0  0
   13.1841   11.7729   59.4747 C   0  0  1  0  0  0
   14.1264   10.8052   56.2528 C   0  0  0  0  0  0
   14.9316   11.8610   56.2898 N   0  0  0  0  0  0
   13.3553   10.6625   57.3224 N   0  0  0  0  0  0
   14.6951   12.3732   57.4618 C   0  0  0  0  0  0
   14.1533   11.5235   60.6463 C   0  0  2  0  0  0
   12.5891   13.0234   59.6800 O   0  0  0  0  0  0
   14.4065   12.9434   61.1427 C   0  0  1  0  0  0
   13.1193   13.7068   60.8157 C   0  0  1  0  0  0
   14.1538    9.8324   55.1422 C   0  0  0  0  0  0
   15.1458    9.7983   54.3643 N   0  0  0  0  0  0
   15.3540   13.4345   57.9757 N   0  0  0  0  0  0
   15.3185   10.8111   60.2576 O   0  0  0  0  0  0
   13.0437    9.0317   55.1074 N   0  0  0  0  0  0
   14.7828   13.0300   62.5059 O   0  0  0  0  0  0
   13.3552   15.2023   60.5135 C   0  0  0  0  0  0
   12.1541   15.8605   60.1610 O   0  0  0  0  0  0
   12.3787   11.0449   59.5076 H   0  0  0  0  0  0
   13.6031   10.9692   61.4086 H   0  0  0  0  0  0
   15.2300   13.3611   60.5660 H   0  0  0  0  0  0
   12.3989   13.6108   61.6312 H   0  0  0  0  0  0
   15.0540    9.0730   53.6676 H   0  0  0  0  0  0
   16.1125   13.8658   57.4704 H   0  0  0  0  0  0
   15.1076   13.8291   58.8676 H   0  0  0  0  0  0
   15.1095    9.8769   60.1768 H   0  0  0  0  0  0
   13.0277    8.1833   54.5475 H   0  0  0  0  0  0
   12.3242    9.1401   55.8050 H   0  0  0  0  0  0
   14.1520   12.5618   63.0671 H   0  0  0  0  0  0
   13.7763   15.6926   61.3924 H   0  0  0  0  0  0
   14.0742   15.3328   59.7064 H   0  0  0  0  0  0
   11.4665   15.6089   60.7850 H   0  0  0  0  0  0
  1  2  1  0  0  0
  1  5  1  0  0  0
  1  6  1  0  0  0
  2  7  1  0  0  0
  2  8  1  0  0  0
  2 19  1  0  0  0
  3  4  1  0  0  0
  3  5  2  0  0  0
  3 11  1  0  0  0
  4  6  2  0  0  0
  6 13  1  0  0  0
  7  9  1  0  0  0
  7 14  1  0  0  0
  7 20  1  0  0  0
  8 10  1  0  0  0
  9 10  1  0  0  0
  9 16  1  0  0  0
  9 21  1  0  0  0
 10 17  1  0  0  0
 10 22  1  0  0  0
 11 12  2  0  0  0
 11 15  1  0  0  0
 12 23  1  0  0  0
 13 24  1  0  0  0
 13 25  1  0  0  0
 14 26  1  0  0  0
 15 27  1  0  0  0
 15 28  1  0  0  0
 16 29  1  0  0  0
 17 18  1  0  0  0
 17 30  1  0  0  0
 17 31  1  0  0  0
 18 32  1  0  0  0
M  END
> <s_m_entry_id>
11938

> <s_m_entry_name>
dock_pv.141

> <s_m_Source_Path>
/home/csk/Desktop/cluster/DUD-E-result/pnph

> <s_m_Source_File>
dock_pv.maegz

> <i_m_Source_File_Index>
141

> <chembl_id>
CHEMBL552896

> <chembl_pref_name>
None

> <i_lp_mmshare_version>
53161

> <r_lp_tautomer_probability>
1

> <s_lp_Force_Field>
OPLS_2005

> <r_lp_Energy>
35.874994

> <b_lp_Chiralities_Consistent>
1

> <s_lp_Variant>
CHEMBL4338_lig151-8

> <s_i_glide_gridfile>
glide-grid_3bgs

> <i_i_glide_lignum>
204

> <i_i_glide_rotatable_bonds>
6

> <r_i_docking_score>
-7.40508362696912

> <r_i_glide_ligand_efficiency>
-0.411393534831618

> <r_i_glide_ligand_efficiency_sa>
-1.07815606500438

> <r_i_glide_ligand_efficiency_ln>
-1.90343856263588

> <r_i_glide_gscore>
-7.40508362696912

> <r_i_glide_lipo>
-0.84559741089375

> <r_i_glide_hbond>
-0.204628218686093

> <r_i_glide_metal>
0

> <r_i_glide_rewards>
-3.44840072727273

> <r_i_glide_evdw>
-35.4004821777344

> <r_i_glide_ecoul>
-10.6210536956787

> <r_i_glide_erotb>
0.529680804525953

> <r_i_glide_esite>
-0.072955911403972

> <r_i_glide_emodel>
-62.7737568268496

> <r_i_glide_energy>
-46.0215358734131

> <r_i_glide_einternal>
5.1651554107666

> <i_i_glide_confnum>
8

> <i_i_glide_posenum>
343

> <r_i_glide_eff_state_penalty>
0

> <s_user_duplicate_titles>
CHEMBL4338_lig151

> <i_f3d_flags>
0

> <s_m_subgroup_title>
dock_pv

> <s_m_subgroupid>
dock_pv

> <b_m_subgroup_collapsed>
1

$$$$
CHEMBL4338_lig132
                    3D
 Schrodinger Suite 2021-1.
 32 34  0  0  1  0            999 V2000
   13.4461   14.5305   61.6983 C   0  0  0  0  0  0
   14.4770   16.0743   63.1051 C   0  0  0  0  0  0
   14.5533   14.7387   62.6058 C   0  0  0  0  0  0
   13.0377   13.2676   60.9568 C   0  0  2  0  0  0
   14.1602   12.3786   60.7195 N   0  0  2  0  0  0
   13.3540   16.6380   62.5419 N   0  0  0  0  0  0
   12.7558   15.7343   61.7061 C   0  0  0  0  0  0
   12.3727   13.5226   59.5815 C   0  0  1  0  0  0
   15.4529   16.5441   63.9943 C   0  0  0  0  0  0
   13.0177   12.4639   58.6522 C   0  0  2  0  0  0
   15.5333   13.9116   62.9957 N   0  0  0  0  0  0
   13.7281   11.5128   59.6374 C   0  0  1  0  0  0
   16.4381   15.6904   64.3696 N   0  0  0  0  0  0
   16.4307   14.4348   63.8653 C   0  0  0  0  0  0
   15.3538   17.8401   64.4214 O   0  0  0  0  0  0
   10.9577   13.4331   59.6750 O   0  0  0  0  0  0
   13.9083   13.0330   57.7042 O   0  0  0  0  0  0
   14.8785   10.6596   59.0737 C   0  0  0  0  0  0
   12.3529   12.7410   61.6258 H   0  0  0  0  0  0
   14.4821   11.9069   61.5546 H   0  0  0  0  0  0
   13.0009   17.5752   62.6829 H   0  0  0  0  0  0
   11.8499   16.0129   61.1871 H   0  0  0  0  0  0
   12.6378   14.5119   59.2028 H   0  0  0  0  0  0
   12.2520   11.9089   58.1092 H   0  0  0  0  0  0
   12.9784   10.8371   60.0488 H   0  0  0  0  0  0
   17.2276   13.7813   64.1897 H   0  0  0  0  0  0
   14.6773   18.3514   63.9666 H   0  0  0  0  0  0
   10.6627   13.9713   60.4177 H   0  0  0  0  0  0
   13.4149   13.6760   57.1808 H   0  0  0  0  0  0
   14.5357   10.0446   58.2417 H   0  0  0  0  0  0
   15.2813    9.9902   59.8342 H   0  0  0  0  0  0
   15.6991   11.2801   58.7118 H   0  0  0  0  0  0
  1  3  1  0  0  0
  1  4  1  0  0  0
  1  7  2  0  0  0
  2  3  1  0  0  0
  2  9  2  0  0  0
  2  6  1  0  0  0
  3 11  2  0  0  0
  4  5  1  0  0  0
  4  8  1  0  0  0
  4 19  1  0  0  0
  5 12  1  0  0  0
  5 20  1  0  0  0
  6  7  1  0  0  0
  6 21  1  0  0  0
  7 22  1  0  0  0
  8 10  1  0  0  0
  8 16  1  0  0  0
  8 23  1  0  0  0
  9 15  1  0  0  0
  9 13  1  0  0  0
 10 17  1  0  0  0
 10 12  1  0  0  0
 10 24  1  0  0  0
 11 14  1  0  0  0
 12 18  1  0  0  0
 12 25  1  0  0  0
 13 14  2  0  0  0
 14 26  1  0  0  0
 15 27  1  0  0  0
 16 28  1  0  0  0
 17 29  1  0  0  0
 18 30  1  0  0  0
 18 31  1  0  0  0
 18 32  1  0  0  0
M  END
> <s_m_entry_id>
11939

> <s_m_entry_name>
dock_pv.142

> <s_m_Source_Path>
/home/csk/Desktop/cluster/DUD-E-result/pnph

> <s_m_Source_File>
dock_pv.maegz

> <i_m_Source_File_Index>
142

> <chembl_id>
CHEMBL117065

> <chembl_pref_name>
None

> <i_lp_mmshare_version>
53161

> <r_lp_tautomer_probability>
1

> <s_lp_Force_Field>
OPLS_2005

> <r_lp_Energy>
30.27866

> <b_lp_Chiralities_Consistent>
1

> <s_lp_Variant>
CHEMBL4338_lig132-2

> <s_i_glide_gridfile>
glide-grid_3bgs

> <i_i_glide_lignum>
171

> <i_i_glide_rotatable_bonds>
4

> <r_i_docking_score>
-7.40053085074513

> <r_i_glide_ligand_efficiency>
-0.411140602819174

> <r_i_glide_ligand_efficiency_sa>
-1.07749319561009

> <r_i_glide_ligand_efficiency_ln>
-1.90226829498351

> <r_i_glide_gscore>
-7.40053085074513

> <r_i_glide_lipo>
-1.61050061757966

> <r_i_glide_hbond>
-0.936460008365198

> <r_i_glide_metal>
0

> <r_i_glide_rewards>
-1.83382746409953

> <r_i_glide_evdw>
-29.4766330718994

> <r_i_glide_ecoul>
-12.1694955825806

> <r_i_glide_erotb>
0.279513230281307

> <r_i_glide_esite>
0

> <r_i_glide_emodel>
-57.5074465288698

> <r_i_glide_energy>
-41.64612865448

> <r_i_glide_einternal>
2.63962030410767

> <i_i_glide_confnum>
1

> <i_i_glide_posenum>
365

> <r_i_glide_eff_state_penalty>
0

> <s_user_duplicate_titles>
CHEMBL4338_lig132,189991

> <i_f3d_flags>
0

> <s_m_subgroup_title>
dock_pv

> <s_m_subgroupid>
dock_pv

> <b_m_subgroup_collapsed>
1

$$$$
CHEMBL4338_lig46
                    3D
 Schrodinger Suite 2021-1.
 28 30  0  0  1  0            999 V2000
   14.7667   11.1998   55.9633 C   0  0  0  0  0  0
   13.5859   10.6724   56.5472 C   0  0  0  0  0  0
   15.3540   10.6330   54.9060 N   0  0  0  0  0  0
   15.2150   12.2990   56.6437 N   0  0  0  0  0  0
   13.6056    8.9752   54.9277 N   0  0  0  0  0  0
   12.9882    9.5399   55.9783 C   0  0  0  0  0  0
   13.3540   11.5024   57.6207 N   0  0  0  0  0  0
   14.7460    9.5069   54.4709 C   0  0  0  0  0  0
   14.3581   12.4444   57.6210 C   0  0  0  0  0  0
   14.4474   13.4330   58.5592 N   0  0  0  0  0  0
   13.9246   14.5129   60.7231 C   0  0  0  0  0  0
   11.8433    9.0330   56.5060 O   0  0  0  0  0  0
   13.1271   15.4359   61.3244 O   0  0  0  0  0  0
   15.0599   14.3133   61.4993 C   0  0  0  0  0  0
   13.7543   15.8330   62.4613 C   0  0  0  0  0  0
   15.3540    8.7679   53.4829 N   0  0  0  0  0  0
   14.9540   15.1581   62.6047 C   0  0  0  0  0  0
   13.3911   13.8980   59.4494 C   0  0  0  0  0  0
   12.6249   11.4633   58.3155 H   0  0  0  0  0  0
   15.1889   14.1103   58.4567 H   0  0  0  0  0  0
   11.6940    8.1629   56.1039 H   0  0  0  0  0  0
   15.8643   13.6236   61.2887 H   0  0  0  0  0  0
   13.2433   16.5738   63.0581 H   0  0  0  0  0  0
   14.9060    7.8925   53.2448 H   0  0  0  0  0  0
   16.2019    9.0980   53.0345 H   0  0  0  0  0  0
   15.6601   15.2581   63.4158 H   0  0  0  0  0  0
   12.7382   13.0643   59.7074 H   0  0  0  0  0  0
   12.7694   14.6106   58.9061 H   0  0  0  0  0  0
  1  2  1  0  0  0
  1  3  2  0  0  0
  1  4  1  0  0  0
  2  6  2  0  0  0
  2  7  1  0  0  0
  3  8  1  0  0  0
  4  9  2  0  0  0
  5  8  2  0  0  0
  5  6  1  0  0  0
  6 12  1  0  0  0
  7  9  1  0  0  0
  7 19  1  0  0  0
  8 16  1  0  0  0
  9 10  1  0  0  0
 10 18  1  0  0  0
 10 20  1  0  0  0
 11 18  1  0  0  0
 11 13  1  0  0  0
 11 14  2  0  0  0
 12 21  1  0  0  0
 13 15  1  0  0  0
 14 17  1  0  0  0
 14 22  1  0  0  0
 15 17  2  0  0  0
 15 23  1  0  0  0
 16 24  1  0  0  0
 16 25  1  0  0  0
 17 26  1  0  0  0
 18 27  1  0  0  0
 18 28  1  0  0  0
M  END
> <s_m_entry_id>
11940

> <s_m_entry_name>
dock_pv.143

> <s_m_Source_Path>
/home/csk/Desktop/cluster/DUD-E-result/pnph

> <s_m_Source_File>
dock_pv.maegz

> <i_m_Source_File_Index>
143

> <chembl_id>
CHEMBL351219

> <chembl_pref_name>
None

> <i_lp_mmshare_version>
53161

> <r_lp_tautomer_probability>
1

> <s_lp_Force_Field>
OPLS_2005

> <r_lp_Energy>
-5.870177

> <b_lp_Chiralities_Consistent>
1

> <s_lp_Variant>
CHEMBL4338_lig46-1

> <s_i_glide_gridfile>
glide-grid_3bgs

> <i_i_glide_lignum>
57

> <i_i_glide_rotatable_bonds>
4

> <r_i_docking_score>
-7.39914610053867

> <r_i_glide_ligand_efficiency>
-0.411063672252148

> <r_i_glide_ligand_efficiency_sa>
-1.0772915804888

> <r_i_glide_ligand_efficiency_ln>
-1.90191235208328

> <r_i_glide_gscore>
-7.39914610053867

> <r_i_glide_lipo>
-1.15499597216758

> <r_i_glide_hbond>
-0.717686388717326

> <r_i_glide_metal>
0

> <r_i_glide_rewards>
-3.50684601831317

> <r_i_glide_evdw>
-34.0404968261719

> <r_i_glide_ecoul>
-7.78441429138184

> <r_i_glide_erotb>
0.862175270078118

> <r_i_glide_esite>
-0.0121060064028355

> <r_i_glide_emodel>
-57.5887420263349

> <r_i_glide_energy>
-41.8249111175537

> <r_i_glide_einternal>
5.19946002960205

> <i_i_glide_confnum>
10

> <i_i_glide_posenum>
285

> <r_i_glide_eff_state_penalty>
0

> <s_user_duplicate_titles>
CHEMBL4338_lig46,267186

> <i_f3d_flags>
0

> <s_m_subgroup_title>
dock_pv

> <s_m_subgroupid>
dock_pv

> <b_m_subgroup_collapsed>
1

$$$$
CHEMBL4338_lig8
                    3D
 Schrodinger Suite 2021-1.
 28 30  0  0  1  0            999 V2000
   14.8061   12.3304   58.9268 N   0  0  0  0  0  0
   13.6106   12.8232   59.3627 C   0  0  0  0  0  0
   13.4483   13.1936   60.7060 C   0  0  0  0  0  0
   15.7724   12.0818   59.8574 C   0  0  0  0  0  0
   15.6584   12.4249   61.1602 N   0  0  0  0  0  0
   12.4543   13.0861   58.7075 N   0  0  0  0  0  0
   14.5186   13.0188   61.6008 C   0  0  0  0  0  0
   12.2083   13.7375   60.8450 N   0  0  0  0  0  0
   11.7368   13.6761   59.6271 C   0  0  0  0  0  0
   15.0713   12.2440   57.4564 C   0  0  0  0  0  0
   14.4111   11.0895   56.7304 C   0  0  0  0  0  0
   14.9540   10.6377   55.1360 S   0  0  0  0  0  0
   14.3480   13.5040   62.8656 O   0  0  0  0  0  0
   16.9639   11.4397   59.5484 N   0  0  0  0  0  0
   13.7544    9.4147   54.9851 C   0  0  0  0  0  0
   13.3528   10.2662   57.0961 C   0  0  0  0  0  0
   10.5557   14.2324   59.3018 N   0  0  0  0  0  0
   12.9567    9.3624   56.1062 C   0  0  0  0  0  0
   16.1498   12.2557   57.3049 H   0  0  0  0  0  0
   14.7205   13.1928   57.0448 H   0  0  0  0  0  0
   13.4387   13.7891   63.0070 H   0  0  0  0  0  0
   17.4922   11.1503   60.3571 H   0  0  0  0  0  0
   17.0259   10.9427   58.6755 H   0  0  0  0  0  0
   13.6920    8.7932   54.1028 H   0  0  0  0  0  0
   12.8494   10.3514   58.0467 H   0  0  0  0  0  0
    9.9861   14.6571   60.0306 H   0  0  0  0  0  0
   10.5056   14.6318   58.3807 H   0  0  0  0  0  0
   12.1383    8.6642   56.2156 H   0  0  0  0  0  0
  1  2  1  0  0  0
  1  4  1  0  0  0
  1 10  1  0  0  0
  2  3  1  0  0  0
  2  6  2  0  0  0
  3  8  1  0  0  0
  3  7  2  0  0  0
  4  5  2  0  0  0
  4 14  1  0  0  0
  5  7  1  0  0  0
  6  9  1  0  0  0
  7 13  1  0  0  0
  8  9  2  0  0  0
  9 17  1  0  0  0
 10 11  1  0  0  0
 10 19  1  0  0  0
 10 20  1  0  0  0
 11 12  1  0  0  0
 11 16  2  0  0  0
 12 15  1  0  0  0
 13 21  1  0  0  0
 14 22  1  0  0  0
 14 23  1  0  0  0
 15 18  2  0  0  0
 15 24  1  0  0  0
 16 18  1  0  0  0
 16 25  1  0  0  0
 17 26  1  0  0  0
 17 27  1  0  0  0
 18 28  1  0  0  0
M  END
> <s_m_entry_id>
11941

> <s_m_entry_name>
dock_pv.144

> <s_m_Source_Path>
/home/csk/Desktop/cluster/DUD-E-result/pnph

> <s_m_Source_File>
dock_pv.maegz

> <i_m_Source_File_Index>
144

> <chembl_id>
CHEMBL284608

> <chembl_pref_name>
None

> <i_lp_mmshare_version>
53161

> <r_lp_tautomer_probability>
1

> <s_lp_Force_Field>
OPLS_2005

> <r_lp_Energy>
14.880318

> <b_lp_Chiralities_Consistent>
1

> <s_lp_Variant>
CHEMBL4338_lig8-1

> <s_i_glide_gridfile>
glide-grid_3bgs

> <i_i_glide_lignum>
8

> <i_i_glide_rotatable_bonds>
3

> <r_i_docking_score>
-7.39753090632157

> <r_i_glide_ligand_efficiency>
-0.410973939240087

> <r_i_glide_ligand_efficiency_sa>
-1.07705641346989

> <r_i_glide_ligand_efficiency_ln>
-1.90149717473839

> <r_i_glide_gscore>
-7.39753090632157

> <r_i_glide_lipo>
-1.64424292878206

> <r_i_glide_hbond>
-0.486643097016884

> <r_i_glide_metal>
0

> <r_i_glide_rewards>
-2.8790132785419

> <r_i_glide_evdw>
-35.3895874023438

> <r_i_glide_ecoul>
-7.22765111923218

> <r_i_glide_erotb>
0.515646757512357

> <r_i_glide_esite>
-0.0496513214910645

> <r_i_glide_emodel>
-59.4401347840973

> <r_i_glide_energy>
-42.6172385215759

> <r_i_glide_einternal>
1.64210951328278

> <i_i_glide_confnum>
5

> <i_i_glide_posenum>
235

> <r_i_glide_eff_state_penalty>
0

> <s_user_duplicate_titles>
CHEMBL4338_lig8

> <i_f3d_flags>
0

> <s_m_subgroup_title>
dock_pv

> <s_m_subgroupid>
dock_pv

> <b_m_subgroup_collapsed>
1

$$$$
CHEMBL4338_lig104
                    3D
 Schrodinger Suite 2021-1.
 42 43  0  0  1  0            999 V2000
   14.5206   11.0398   56.5028 C   0  0  0  0  0  0
   13.3540   10.4970   56.9483 C   0  0  0  0  0  0
   15.2101   10.7060   55.3551 N   0  0  0  0  0  0
   13.5148    9.0854   55.1457 N   0  0  0  0  0  0
   12.9335   11.0330   58.1060 N   0  0  0  0  0  0
   12.7299    9.4330   56.2113 C   0  0  0  0  0  0
   14.7015    9.6755   54.7499 C   0  0  0  0  0  0
   16.3385   17.7014   64.4952 P   0  0  0  0  0  0
   14.8773   11.8621   57.5449 N   0  0  0  0  0  0
   15.2198   16.2141   64.4761 C   0  0  0  0  0  0
   13.8460   11.8934   58.4076 C   0  0  0  0  0  0
   17.1789   18.0034   63.3060 O   0  0  0  0  0  0
   11.6856    8.8685   56.5060 O   0  0  0  0  0  0
   15.3221    9.0721   53.7281 N   0  0  0  0  0  0
   15.3210   18.8995   64.9060 O   0  0  0  0  0  0
   17.1856   17.4881   65.8609 O   0  0  0  0  0  0
   14.9540   15.9937   65.7645 F   0  0  0  0  0  0
   14.0996   16.6330   63.8831 F   0  0  0  0  0  0
   16.1540   12.5047   57.7900 C   0  0  0  0  0  0
   15.8277   14.9619   63.7980 C   0  0  0  0  0  0
   16.5540   12.4702   59.3060 C   0  0  0  0  0  0
   15.9226   15.0378   62.2575 C   0  0  0  0  0  0
   16.2528   13.7977   60.0432 C   0  0  0  0  0  0
   16.3101   13.7047   61.5815 C   0  0  0  0  0  0
   13.8587   12.4870   59.3091 H   0  0  0  0  0  0
   13.1888    8.2694   54.6443 H   0  0  0  0  0  0
   16.1896    9.4330   53.3489 H   0  0  0  0  0  0
   14.9777    8.1886   53.3749 H   0  0  0  0  0  0
   14.7940   19.2750   64.1640 H   0  0  0  0  0  0
   16.6394   17.3776   66.6621 H   0  0  0  0  0  0
   16.0603   13.5097   57.3740 H   0  0  0  0  0  0
   16.8745   11.9455   57.1908 H   0  0  0  0  0  0
   16.8084   14.7482   64.2249 H   0  0  0  0  0  0
   15.1980   14.1092   64.0583 H   0  0  0  0  0  0
   17.6150   12.2330   59.4003 H   0  0  0  0  0  0
   16.0665   11.6380   59.8182 H   0  0  0  0  0  0
   14.9595   15.3609   61.8589 H   0  0  0  0  0  0
   16.6392   15.8067   61.9704 H   0  0  0  0  0  0
   15.2660   14.1599   59.7533 H   0  0  0  0  0  0
   16.9512   14.5654   59.7060 H   0  0  0  0  0  0
   17.3091   13.4010   61.8983 H   0  0  0  0  0  0
   15.6316   12.9184   61.9177 H   0  0  0  0  0  0
  1  9  1  0  0  0
  1  3  1  0  0  0
  1  2  2  0  0  0
  2  6  1  0  0  0
  2  5  1  0  0  0
  3  7  2  0  0  0
  4  7  1  0  0  0
  4 26  1  0  0  0
  4  6  1  0  0  0
  5 11  2  0  0  0
  6 13  2  0  0  0
  7 14  1  0  0  0
  8 10  1  0  0  0
  8 12  2  0  0  0
  8 15  1  0  0  0
  8 16  1  0  0  0
  9 11  1  0  0  0
  9 19  1  0  0  0
 10 20  1  0  0  0
 10 17  1  0  0  0
 10 18  1  0  0  0
 11 25  1  0  0  0
 14 27  1  0  0  0
 14 28  1  0  0  0
 15 29  1  0  0  0
 16 30  1  0  0  0
 19 21  1  0  0  0
 19 31  1  0  0  0
 19 32  1  0  0  0
 20 22  1  0  0  0
 20 33  1  0  0  0
 20 34  1  0  0  0
 21 23  1  0  0  0
 21 35  1  0  0  0
 21 36  1  0  0  0
 22 24  1  0  0  0
 22 37  1  0  0  0
 22 38  1  0  0  0
 23 24  1  0  0  0
 23 39  1  0  0  0
 23 40  1  0  0  0
 24 41  1  0  0  0
 24 42  1  0  0  0
M  END
> <s_m_entry_id>
11942

> <s_m_entry_name>
dock_pv.145

> <s_m_Source_Path>
/home/csk/Desktop/cluster/DUD-E-result/pnph

> <s_m_Source_File>
dock_pv.maegz

> <i_m_Source_File_Index>
145

> <chembl_id>
CHEMBL177190

> <chembl_pref_name>
None

> <i_lp_mmshare_version>
53161

> <r_lp_tautomer_probability>
0.999940409345307

> <s_lp_Force_Field>
OPLS_2005

> <r_lp_Energy>
2.763197

> <b_lp_Chiralities_Consistent>
1

> <s_lp_Variant>
CHEMBL4338_lig104-1

> <s_i_glide_gridfile>
glide-grid_3bgs

> <i_i_glide_lignum>
124

> <i_i_glide_rotatable_bonds>
10

> <r_i_docking_score>
-7.38391144719459

> <r_i_glide_ligand_efficiency>
-0.307662976966441

> <r_i_glide_ligand_efficiency_sa>
-0.887453591718571

> <r_i_glide_ligand_efficiency_ln>
-1.76730883493181

> <r_i_glide_gscore>
-7.38391144719459

> <r_i_glide_lipo>
-1.2366406679121

> <r_i_glide_hbond>
-0.806901981917142

> <r_i_glide_metal>
0

> <r_i_glide_rewards>
-2.71859327727273

> <r_i_glide_evdw>
-30.9783191680908

> <r_i_glide_ecoul>
-14.3408613204956

> <r_i_glide_erotb>
1.15326916010498

> <r_i_glide_esite>
-0.0749995237187185

> <r_i_glide_emodel>
-59.6807888898181

> <r_i_glide_energy>
-45.3191804885864

> <r_i_glide_einternal>
7.03698205947876

> <i_i_glide_confnum>
241

> <i_i_glide_posenum>
291

> <r_i_glide_eff_state_penalty>
0

> <s_user_duplicate_titles>
CHEMBL4338_lig104,292762

> <i_f3d_flags>
0

> <s_m_subgroup_title>
dock_pv

> <s_m_subgroupid>
dock_pv

> <b_m_subgroup_collapsed>
1

$$$$
CHEMBL4338_lig187
                    3D
 Schrodinger Suite 2021-1.
 35 36  0  0  1  0            999 V2000
   15.7540   13.3940   55.7061 O   0  0  0  0  0  0
   15.3176   12.3832   56.5785 C   0  0  0  0  0  0
   14.4690   11.2881   55.8847 C   0  0  1  0  0  0
   15.2753   10.6318   54.9171 O   0  0  0  0  0  0
   13.8323   10.2057   56.8300 C   0  0  2  0  0  0
   12.7534    9.3502   56.1151 C   0  0  0  0  0  0
   13.3541    8.6330   55.0550 O   0  0  0  0  0  0
   13.3071   10.7757   58.0765 N   0  0  2  0  0  0
   14.2990   10.9662   59.1449 C   0  0  0  0  0  0
   14.2660   12.3647   59.7485 C   0  0  0  0  0  0
   15.3612   13.0714   60.2549 C   0  0  0  0  0  0
   14.9653   14.3065   60.7046 N   0  0  0  0  0  0
   13.6176   14.4145   60.5169 C   0  0  0  0  0  0
   12.7045   15.5072   60.8312 C   0  0  0  0  0  0
   12.9424   16.6044   61.3288 O   0  0  0  0  0  0
   11.4329   15.1428   60.4811 N   0  0  0  0  0  0
   11.0175   13.9696   59.8879 C   0  0  0  0  0  0
   11.8472   13.0330   59.6021 N   0  0  0  0  0  0
   13.1622   13.2296   59.9246 C   0  0  0  0  0  0
   14.9899   13.7972   55.2850 H   0  0  0  0  0  0
   16.1868   11.9553   57.0794 H   0  0  0  0  0  0
   14.7180   12.9096   57.3144 H   0  0  0  0  0  0
   13.6650   11.7869   55.3424 H   0  0  0  0  0  0
   14.7933    9.8320   54.6561 H   0  0  0  0  0  0
   14.5540    9.4638   57.1463 H   0  0  0  0  0  0
   12.2916    8.6331   56.7919 H   0  0  0  0  0  0
   11.9439    9.9383   55.7060 H   0  0  0  0  0  0
   12.8971    7.7802   54.9299 H   0  0  0  0  0  0
   12.5542   10.2020   58.4284 H   0  0  0  0  0  0
   14.1133   10.2331   59.9276 H   0  0  0  0  0  0
   15.3049   10.7325   58.7936 H   0  0  0  0  0  0
   16.4017   12.7883   60.3214 H   0  0  0  0  0  0
   15.5618   15.0148   61.1109 H   0  0  0  0  0  0
   10.7125   15.8047   60.7333 H   0  0  0  0  0  0
    9.9554   13.8631   59.6879 H   0  0  0  0  0  0
  1  2  1  0  0  0
  1 20  1  0  0  0
  2  3  1  0  0  0
  2 21  1  0  0  0
  2 22  1  0  0  0
  3  4  1  0  0  0
  3  5  1  0  0  0
  3 23  1  0  0  0
  4 24  1  0  0  0
  5  6  1  0  0  0
  5  8  1  0  0  0
  5 25  1  0  0  0
  6  7  1  0  0  0
  6 26  1  0  0  0
  6 27  1  0  0  0
  7 28  1  0  0  0
  8  9  1  0  0  0
  8 29  1  0  0  0
  9 10  1  0  0  0
  9 30  1  0  0  0
  9 31  1  0  0  0
 10 11  2  0  0  0
 10 19  1  0  0  0
 11 12  1  0  0  0
 11 32  1  0  0  0
 12 13  1  0  0  0
 12 33  1  0  0  0
 13 14  1  0  0  0
 13 19  2  0  0  0
 14 15  2  0  0  0
 14 16  1  0  0  0
 16 17  1  0  0  0
 16 34  1  0  0  0
 17 18  2  0  0  0
 17 35  1  0  0  0
 18 19  1  0  0  0
M  END
> <s_m_entry_id>
11943

> <s_m_entry_name>
dock_pv.146

> <s_m_Source_Path>
/home/csk/Desktop/cluster/DUD-E-result/pnph

> <s_m_Source_File>
dock_pv.maegz

> <i_m_Source_File_Index>
146

> <chembl_id>
CHEMBL490285

> <chembl_pref_name>
None

> <i_lp_mmshare_version>
53161

> <r_lp_tautomer_probability>
1

> <s_lp_Force_Field>
OPLS_2005

> <r_lp_Energy>
40.664491

> <b_lp_Chiralities_Consistent>
1

> <s_lp_Variant>
CHEMBL4338_lig187-1

> <s_i_glide_gridfile>
glide-grid_3bgs

> <i_i_glide_lignum>
251

> <i_i_glide_rotatable_bonds>
9

> <r_i_docking_score>
-7.37439115863641

> <r_i_glide_ligand_efficiency>
-0.388125850454548

> <r_i_glide_ligand_efficiency_sa>
-1.03567565824803

> <r_i_glide_ligand_efficiency_ln>
-1.86956654611369

> <r_i_glide_gscore>
-7.37439115863641

> <r_i_glide_lipo>
-2.27685897649334

> <r_i_glide_hbond>
-0.48271511502452

> <r_i_glide_metal>
0

> <r_i_glide_rewards>
-2.32998313636364

> <r_i_glide_evdw>
-32.0536079406738

> <r_i_glide_ecoul>
-12.7584705352783

> <r_i_glide_erotb>
1.239938211696

> <r_i_glide_esite>
-0.00832116512547756

> <r_i_glide_emodel>
-61.650744422528

> <r_i_glide_energy>
-44.8120784759521

> <r_i_glide_einternal>
7.56936645507812

> <i_i_glide_confnum>
4

> <i_i_glide_posenum>
194

> <r_i_glide_eff_state_penalty>
0

> <s_user_duplicate_titles>
CHEMBL4338_lig187,CHEMBL4338_lig179,454951,454870

> <i_f3d_flags>
0

> <s_m_subgroup_title>
dock_pv

> <s_m_subgroupid>
dock_pv

> <b_m_subgroup_collapsed>
1

$$$$
CHEMBL4338_lig98
                    3D
 Schrodinger Suite 2021-1.
 32 33  0  0  1  0            999 V2000
   13.9545   11.3105   56.8310 C   0  0  0  0  0  0
   14.8726   11.0992   55.7824 C   0  0  0  0  0  0
   12.9643   10.4843   57.1706 N   0  0  0  0  0  0
   15.7540   12.1411   55.7487 N   0  0  0  0  0  0
   15.3686   13.0335   56.7300 N   0  0  0  0  0  0
   13.6745    9.0962   55.3080 N   0  0  0  0  0  0
   14.7160    9.9141   55.0390 C   0  0  0  0  0  0
   14.2882   12.5373   57.3680 N   0  0  0  0  0  0
   12.8562    9.4330   56.3259 C   0  0  0  0  0  0
   15.2176   14.2720   62.6853 P   0  0  0  0  0  0
   15.6560    9.6173   54.1060 O   0  0  0  0  0  0
   16.3158   15.2583   62.5058 O   0  0  0  0  0  0
   11.7541    8.6330   56.5060 N   0  0  0  0  0  0
   13.7540   14.8044   62.2411 O   0  0  0  0  0  0
   14.9543   13.8330   64.2183 O   0  0  0  0  0  0
   13.6104   13.2982   58.4104 C   0  0  0  0  0  0
   15.3623   12.6330   61.8486 C   0  0  0  0  0  0
   15.2500   12.7299   60.3162 C   0  0  0  0  0  0
   13.7946   12.6886   59.8092 C   0  0  0  0  0  0
   15.4553    8.7737   53.6921 H   0  0  0  0  0  0
   11.7540    7.7242   56.0108 H   0  0  0  0  0  0
   11.1663    8.7890   57.3048 H   0  0  0  0  0  0
   13.0274   14.6063   62.8681 H   0  0  0  0  0  0
   14.2667   13.1400   64.3406 H   0  0  0  0  0  0
   12.5544   13.3593   58.1455 H   0  0  0  0  0  0
   13.9936   14.3165   58.4080 H   0  0  0  0  0  0
   16.3420   12.2332   62.1060 H   0  0  0  0  0  0
   14.6244   11.9387   62.2513 H   0  0  0  0  0  0
   15.7551   13.6355   59.9735 H   0  0  0  0  0  0
   15.7967   11.9030   59.8592 H   0  0  0  0  0  0
   13.4238   11.6617   59.8285 H   0  0  0  0  0  0
   13.1442   13.2371   60.4886 H   0  0  0  0  0  0
  1  2  1  0  0  0
  1  3  2  0  0  0
  1  8  1  0  0  0
  2  4  1  0  0  0
  2  7  2  0  0  0
  3  9  1  0  0  0
  4  5  2  0  0  0
  5  8  1  0  0  0
  6  9  2  0  0  0
  6  7  1  0  0  0
  7 11  1  0  0  0
  8 16  1  0  0  0
  9 13  1  0  0  0
 10 17  1  0  0  0
 10 12  2  0  0  0
 10 14  1  0  0  0
 10 15  1  0  0  0
 11 20  1  0  0  0
 13 21  1  0  0  0
 13 22  1  0  0  0
 14 23  1  0  0  0
 15 24  1  0  0  0
 16 19  1  0  0  0
 16 25  1  0  0  0
 16 26  1  0  0  0
 17 18  1  0  0  0
 17 27  1  0  0  0
 17 28  1  0  0  0
 18 19  1  0  0  0
 18 29  1  0  0  0
 18 30  1  0  0  0
 19 31  1  0  0  0
 19 32  1  0  0  0
M  END
> <s_m_entry_id>
11945

> <s_m_entry_name>
dock_pv.148

> <s_m_Source_Path>
/home/csk/Desktop/cluster/DUD-E-result/pnph

> <s_m_Source_File>
dock_pv.maegz

> <i_m_Source_File_Index>
148

> <chembl_id>
CHEMBL175305

> <chembl_pref_name>
None

> <i_lp_mmshare_version>
53161

> <r_lp_tautomer_probability>
1

> <s_lp_Force_Field>
OPLS_2005

> <r_lp_Energy>
0.71154

> <b_lp_Chiralities_Consistent>
1

> <s_lp_Variant>
CHEMBL4338_lig98-1

> <s_i_glide_gridfile>
glide-grid_3bgs

> <i_i_glide_lignum>
118

> <i_i_glide_rotatable_bonds>
8

> <r_i_docking_score>
-7.37102724944499

> <r_i_glide_ligand_efficiency>
-0.387948802602368

> <r_i_glide_ligand_efficiency_sa>
-1.03520322346783

> <r_i_glide_ligand_efficiency_ln>
-1.86871372288352

> <r_i_glide_gscore>
-7.37102724944499

> <r_i_glide_lipo>
-1.24541540833609

> <r_i_glide_hbond>
-0.3998467641814

> <r_i_glide_metal>
0

> <r_i_glide_rewards>
-2.61675626826882

> <r_i_glide_evdw>
-24.7721385955811

> <r_i_glide_ecoul>
-19.1021995544434

> <r_i_glide_erotb>
1.09492805428687

> <r_i_glide_esite>
-0.1

> <r_i_glide_emodel>
-63.7610286788987

> <r_i_glide_energy>
-43.8743381500244

> <r_i_glide_einternal>
2.7869017124176

> <i_i_glide_confnum>
74

> <i_i_glide_posenum>
359

> <r_i_glide_eff_state_penalty>
0

> <s_user_duplicate_titles>
CHEMBL4338_lig98

> <i_f3d_flags>
0

> <s_m_subgroup_title>
dock_pv

> <s_m_subgroupid>
dock_pv

> <b_m_subgroup_collapsed>
1

$$$$
CHEMBL4338_lig29
                    3D
 Schrodinger Suite 2021-1.
 31 33  0  0  1  0            999 V2000
   13.8577   10.6337   57.2740 C   0  0  0  0  0  0
   14.7139   11.7298   57.1280 C   0  0  0  0  0  0
   13.6781    9.7719   56.2515 N   0  0  0  0  0  0
   13.3540   10.6342   58.5168 N   0  0  0  0  0  0
   15.1844   10.9989   54.9059 N   0  0  0  0  0  0
   15.3544   11.9187   55.8888 C   0  0  0  0  0  0
   14.7326   12.3961   58.3136 N   0  0  0  0  0  0
   14.3491    9.9535   55.1075 C   0  0  0  0  0  0
   13.9480   11.6623   59.0765 C   0  0  0  0  0  0
   13.6129   14.2949   61.2364 C   0  0  0  0  0  0
   13.8488   15.3732   62.1056 C   0  0  0  0  0  0
   12.3237   14.6921   60.1161 S   0  0  0  0  0  0
   13.7529   11.9049   60.4055 N   0  0  0  0  0  0
   12.0770   16.2248   60.8567 C   0  0  0  0  0  0
   16.1165   13.0329   55.7252 O   0  0  0  0  0  0
   12.9527   16.4306   61.9006 C   0  0  0  0  0  0
   14.3549   12.9626   61.2100 C   0  0  0  0  0  0
   14.2298    9.0328   54.0842 N   0  0  0  0  0  0
   14.8722   15.3623   63.2210 C   0  0  0  0  0  0
   13.0722    8.9707   56.3409 H   0  0  0  0  0  0
   13.0985   11.3243   60.9052 H   0  0  0  0  0  0
   11.2901   16.8733   60.5059 H   0  0  0  0  0  0
   16.3888   13.1180   54.8087 H   0  0  0  0  0  0
   12.9551   17.3269   62.5034 H   0  0  0  0  0  0
   15.3745   13.1223   60.8564 H   0  0  0  0  0  0
   14.4518   12.5755   62.2248 H   0  0  0  0  0  0
   14.8599    9.1474   53.3055 H   0  0  0  0  0  0
   13.7420    8.1489   54.2163 H   0  0  0  0  0  0
   14.9367   14.3829   63.6942 H   0  0  0  0  0  0
   15.8700   15.6039   62.8567 H   0  0  0  0  0  0
   14.6205   16.0589   64.0212 H   0  0  0  0  0  0
  1  2  1  0  0  0
  1  3  1  0  0  0
  1  4  2  0  0  0
  2  6  2  0  0  0
  2  7  1  0  0  0
  3  8  1  0  0  0
  3 20  1  0  0  0
  4  9  1  0  0  0
  5  8  2  0  0  0
  5  6  1  0  0  0
  6 15  1  0  0  0
  7  9  2  0  0  0
  8 18  1  0  0  0
  9 13  1  0  0  0
 10 17  1  0  0  0
 10 11  2  0  0  0
 10 12  1  0  0  0
 11 16  1  0  0  0
 11 19  1  0  0  0
 12 14  1  0  0  0
 13 17  1  0  0  0
 13 21  1  0  0  0
 14 16  2  0  0  0
 14 22  1  0  0  0
 15 23  1  0  0  0
 16 24  1  0  0  0
 17 25  1  0  0  0
 17 26  1  0  0  0
 18 27  1  0  0  0
 18 28  1  0  0  0
 19 29  1  0  0  0
 19 30  1  0  0  0
 19 31  1  0  0  0
M  END
> <s_m_entry_id>
11946

> <s_m_entry_name>
dock_pv.149

> <s_m_Source_Path>
/home/csk/Desktop/cluster/DUD-E-result/pnph

> <s_m_Source_File>
dock_pv.maegz

> <i_m_Source_File_Index>
149

> <chembl_id>
CHEMBL350773

> <chembl_pref_name>
None

> <i_lp_mmshare_version>
53161

> <r_lp_tautomer_probability>
1

> <s_lp_Force_Field>
OPLS_2005

> <r_lp_Energy>
9.396269

> <b_lp_Chiralities_Consistent>
1

> <s_lp_Variant>
CHEMBL4338_lig29-1

> <s_i_glide_gridfile>
glide-grid_3bgs

> <i_i_glide_lignum>
34

> <i_i_glide_rotatable_bonds>
4

> <r_i_docking_score>
-7.36898512309324

> <r_i_glide_ligand_efficiency>
-0.387841322268065

> <r_i_glide_ligand_efficiency_sa>
-1.03491642276685

> <r_i_glide_ligand_efficiency_ln>
-1.8681959999925

> <r_i_glide_gscore>
-7.36898512309324

> <r_i_glide_lipo>
-1.84150300482742

> <r_i_glide_hbond>
-0.563229979147141

> <r_i_glide_metal>
0

> <r_i_glide_rewards>
-2.67142254159238

> <r_i_glide_evdw>
-38.3603630065918

> <r_i_glide_ecoul>
-6.7350902557373

> <r_i_glide_erotb>
0.7068407668855

> <r_i_glide_esite>
-0.0713886757216162

> <r_i_glide_emodel>
-64.3227871260702

> <r_i_glide_energy>
-45.0954532623291

> <r_i_glide_einternal>
2.69725966453552

> <i_i_glide_confnum>
2

> <i_i_glide_posenum>
281

> <r_i_glide_eff_state_penalty>
0

> <s_user_duplicate_titles>
CHEMBL4338_lig29,267624

> <i_f3d_flags>
0

> <s_m_subgroup_title>
dock_pv

> <s_m_subgroupid>
dock_pv

> <b_m_subgroup_collapsed>
1

$$$$
CHEMBL4338_lig82
                    3D
 Schrodinger Suite 2021-1.
 36 38  0  0  1  0            999 V2000
   13.9675   13.7609   60.1917 C   0  0  0  0  0  0
   12.8458   12.3582   58.8383 N   0  0  0  0  0  0
   12.7179   13.5073   59.5782 C   0  0  0  0  0  0
   14.0402   11.7778   59.1020 C   0  0  0  0  0  0
   14.7484   12.5994   59.9630 C   0  0  0  0  0  0
   15.9919   12.2600   60.4401 N   0  0  0  0  0  0
   16.4641   11.1057   60.1084 C   0  0  0  0  0  0
   15.7532   10.2669   59.2774 N   0  0  0  0  0  0
   14.5944   10.5489   58.5962 C   0  0  0  0  0  0
   14.1538    9.8336   57.7039 O   0  0  0  0  0  0
   11.4560   14.1993   59.5989 C   0  0  0  0  0  0
   11.3542   15.1923   60.5201 O   0  0  0  0  0  0
   10.5172   13.8411   58.8981 O   0  0  0  0  0  0
   14.3888   14.9883   60.9917 C   0  0  1  0  0  0
   15.0767   14.7497   63.2831 C   0  0  1  0  0  0
   13.8301   14.9982   62.4224 C   0  0  1  0  0  0
   15.8468   15.0331   61.0769 N   0  0  1  0  0  0
   16.1710   15.4160   62.4443 C   0  0  2  0  0  0
   14.9976   15.2126   64.6201 O   0  0  0  0  0  0
   13.1943   16.2336   62.7104 O   0  0  0  0  0  0
   17.6079   15.0525   62.8470 C   0  0  0  0  0  0
   18.5492   15.8272   62.1165 O   0  0  0  0  0  0
   12.1338   11.9627   58.2415 H   0  0  0  0  0  0
   17.4261   10.7582   60.4747 H   0  0  0  0  0  0
   16.1588    9.3738   59.0394 H   0  0  0  0  0  0
   10.4183   15.4325   60.6178 H   0  0  0  0  0  0
   14.0387   15.8508   60.4234 H   0  0  0  0  0  0
   15.2474   13.6704   63.3165 H   0  0  0  0  0  0
   13.1119   14.1819   62.5065 H   0  0  0  0  0  0
   16.1756   14.0828   60.9104 H   0  0  0  0  0  0
   16.0534   16.4983   62.5304 H   0  0  0  0  0  0
   14.9233   16.1704   64.6000 H   0  0  0  0  0  0
   12.7942   16.1347   63.5778 H   0  0  0  0  0  0
   17.7659   15.2399   63.9100 H   0  0  0  0  0  0
   17.7542   13.9827   62.6938 H   0  0  0  0  0  0
   18.2739   15.8243   61.1915 H   0  0  0  0  0  0
  1 14  1  0  0  0
  1  3  2  0  0  0
  1  5  1  0  0  0
  2  4  1  0  0  0
  2  3  1  0  0  0
  2 23  1  0  0  0
  3 11  1  0  0  0
  4  5  2  0  0  0
  4  9  1  0  0  0
  5  6  1  0  0  0
  6  7  2  0  0  0
  7  8  1  0  0  0
  7 24  1  0  0  0
  8  9  1  0  0  0
  8 25  1  0  0  0
  9 10  2  0  0  0
 11 12  1  0  0  0
 11 13  2  0  0  0
 12 26  1  0  0  0
 14 16  1  0  0  0
 14 17  1  0  0  0
 14 27  1  0  0  0
 15 16  1  0  0  0
 15 18  1  0  0  0
 15 19  1  0  0  0
 15 28  1  0  0  0
 16 20  1  0  0  0
 16 29  1  0  0  0
 17 18  1  0  0  0
 17 30  1  0  0  0
 18 21  1  0  0  0
 18 31  1  0  0  0
 19 32  1  0  0  0
 20 33  1  0  0  0
 21 22  1  0  0  0
 21 34  1  0  0  0
 21 35  1  0  0  0
 22 36  1  0  0  0
M  END
> <s_m_entry_id>
11948

> <s_m_entry_name>
dock_pv.151

> <s_m_Source_Path>
/home/csk/Desktop/cluster/DUD-E-result/pnph

> <s_m_Source_File>
dock_pv.maegz

> <i_m_Source_File_Index>
151

> <chembl_id>
CHEMBL563567

> <chembl_pref_name>
None

> <i_lp_mmshare_version>
53161

> <r_lp_tautomer_probability>
1

> <s_lp_Force_Field>
OPLS_2005

> <r_lp_Energy>
50.618727

> <b_lp_Chiralities_Consistent>
1

> <s_lp_Variant>
CHEMBL4338_lig82-1

> <s_i_glide_gridfile>
glide-grid_3bgs

> <i_i_glide_lignum>
101

> <i_i_glide_rotatable_bonds>
7

> <r_i_docking_score>
-7.35063283872631

> <r_i_glide_ligand_efficiency>
-0.33411967448756

> <r_i_glide_ligand_efficiency_sa>
-0.936216468095289

> <r_i_glide_ligand_efficiency_ln>
-1.7967627866321

> <r_i_glide_gscore>
-7.35063283872631

> <r_i_glide_lipo>
-1.49494964496729

> <r_i_glide_hbond>
-0.861642675336298

> <r_i_glide_metal>
0

> <r_i_glide_rewards>
-1.84462116951578

> <r_i_glide_evdw>
-30.9249782562256

> <r_i_glide_ecoul>
-14.5373029708862

> <r_i_glide_erotb>
0.577425009537262

> <r_i_glide_esite>
0

> <r_i_glide_emodel>
-61.8370920644061

> <r_i_glide_energy>
-45.4622812271118

> <r_i_glide_einternal>
4.50591278076172

> <i_i_glide_confnum>
37

> <i_i_glide_posenum>
214

> <r_i_glide_eff_state_penalty>
0

> <s_user_duplicate_titles>
CHEMBL4338_lig82

> <i_f3d_flags>
0

> <s_m_subgroup_title>
dock_pv

> <s_m_subgroupid>
dock_pv

> <b_m_subgroup_collapsed>
1

$$$$
CHEMBL4338_lig128
                    3D
 Schrodinger Suite 2021-1.
 33 35  0  0  1  0            999 V2000
   14.4489   12.1711   57.8685 C   0  0  0  0  0  0
   14.7043   11.0363   55.8512 C   0  0  0  0  0  0
   13.9426   11.1044   57.0472 C   0  0  0  0  0  0
   15.3792   12.8043   57.0545 C   0  0  0  0  0  0
   15.5654   12.1072   55.8899 N   0  0  0  0  0  0
   14.0104   12.4590   59.3021 C   0  0  2  0  0  0
   12.5630   12.5068   59.3037 N   0  0  2  0  0  0
   14.5300   13.7495   59.9931 C   0  0  1  0  0  0
   14.4835    9.9832   54.9558 C   0  0  0  0  0  0
   13.2553   14.5792   60.2494 C   0  0  2  0  0  0
   12.1298   13.5333   60.2302 C   0  0  1  0  0  0
   12.9607   10.2332   57.2947 N   0  0  0  0  0  0
   13.4551    9.1419   55.1933 N   0  0  0  0  0  0
   12.7300    9.3231   56.3169 C   0  0  0  0  0  0
   16.0933   13.8826   57.2466 F   0  0  0  0  0  0
   15.3541    9.8334   53.9252 O   0  0  0  0  0  0
   15.2049   13.4475   61.2045 O   0  0  0  0  0  0
   13.0509   15.6181   59.3078 O   0  0  0  0  0  0
   10.7279   14.0837   59.8956 C   0  0  0  0  0  0
   10.4638   14.2330   58.5045 O   0  0  0  0  0  0
   16.2481   12.3938   55.2042 H   0  0  0  0  0  0
   14.3110   11.5781   59.8739 H   0  0  0  0  0  0
   12.1419   11.5924   59.4042 H   0  0  0  0  0  0
   15.2094   14.3188   59.3641 H   0  0  0  0  0  0
   13.2880   15.0369   61.2408 H   0  0  0  0  0  0
   12.0950   13.0799   61.2230 H   0  0  0  0  0  0
   11.9125    8.6334   56.4814 H   0  0  0  0  0  0
   15.1578    9.0247   53.4430 H   0  0  0  0  0  0
   15.7798   12.6913   61.0624 H   0  0  0  0  0  0
   13.0124   15.2148   58.4288 H   0  0  0  0  0  0
   10.6178   15.0561   60.3661 H   0  0  0  0  0  0
    9.9710   13.4330   60.3224 H   0  0  0  0  0  0
   11.2353   14.6174   58.0741 H   0  0  0  0  0  0
  1  3  1  0  0  0
  1  4  2  0  0  0
  1  6  1  0  0  0
  2  3  1  0  0  0
  2  5  1  0  0  0
  2  9  2  0  0  0
  3 12  2  0  0  0
  4  5  1  0  0  0
  4 15  1  0  0  0
  5 21  1  0  0  0
  6  7  1  0  0  0
  6  8  1  0  0  0
  6 22  1  0  0  0
  7 11  1  0  0  0
  7 23  1  0  0  0
  8 10  1  0  0  0
  8 17  1  0  0  0
  8 24  1  0  0  0
  9 13  1  0  0  0
  9 16  1  0  0  0
 10 11  1  0  0  0
 10 18  1  0  0  0
 10 25  1  0  0  0
 11 19  1  0  0  0
 11 26  1  0  0  0
 12 14  1  0  0  0
 13 14  2  0  0  0
 14 27  1  0  0  0
 16 28  1  0  0  0
 17 29  1  0  0  0
 18 30  1  0  0  0
 19 20  1  0  0  0
 19 31  1  0  0  0
 19 32  1  0  0  0
 20 33  1  0  0  0
M  END
> <s_m_entry_id>
11949

> <s_m_entry_name>
dock_pv.152

> <s_m_Source_Path>
/home/csk/Desktop/cluster/DUD-E-result/pnph

> <s_m_Source_File>
dock_pv.maegz

> <i_m_Source_File_Index>
152

> <chembl_id>
CHEMBL542455

> <chembl_pref_name>
None

> <i_lp_mmshare_version>
53161

> <r_lp_tautomer_probability>
1

> <s_lp_Force_Field>
OPLS_2005

> <r_lp_Energy>
37.283368

> <b_lp_Chiralities_Consistent>
1

> <s_lp_Variant>
CHEMBL4338_lig128-2

> <s_i_glide_gridfile>
glide-grid_3bgs

> <i_i_glide_lignum>
165

> <i_i_glide_rotatable_bonds>
6

> <r_i_docking_score>
-7.34420324989158

> <r_i_glide_ligand_efficiency>
-0.367210162494579

> <r_i_glide_ligand_efficiency_sa>
-0.99676173307262

> <r_i_glide_ligand_efficiency_ln>
-1.83801184541308

> <r_i_glide_gscore>
-7.34420324989158

> <r_i_glide_lipo>
-2.44605732951356

> <r_i_glide_hbond>
-0.281185166005814

> <r_i_glide_metal>
0

> <r_i_glide_rewards>
-1.64343255564904

> <r_i_glide_evdw>
-26.6616458892822

> <r_i_glide_ecoul>
-13.9272422790527

> <r_i_glide_erotb>
0.448640437598855

> <r_i_glide_esite>
0

> <r_i_glide_emodel>
-51.8182908556471

> <r_i_glide_energy>
-40.588888168335

> <r_i_glide_einternal>
10.4456748962402

> <i_i_glide_confnum>
8

> <i_i_glide_posenum>
221

> <r_i_glide_eff_state_penalty>
0

> <s_user_duplicate_titles>
CHEMBL4338_lig128

> <i_f3d_flags>
0

> <s_m_subgroup_title>
dock_pv

> <s_m_subgroupid>
dock_pv

> <b_m_subgroup_collapsed>
1

$$$$
CHEMBL4338_lig63
                    3D
 Schrodinger Suite 2021-1.
 37 39  0  0  1  0            999 V2000
   13.7312   14.0276   61.2601 C   0  0  0  0  0  0
   12.9338   15.2108   61.2538 C   0  0  0  0  0  0
   13.2440   13.1444   60.2233 C   0  0  0  0  0  0
   14.3081   16.1099   62.9556 N   0  0  0  0  0  0
   13.2623   16.2640   62.1116 C   0  0  0  0  0  0
   14.7605   13.8970   62.1045 N   0  0  0  0  0  0
   11.9467   15.0206   60.3151 N   0  0  0  0  0  0
   14.9876   14.9474   62.9173 C   0  0  0  0  0  0
   12.1426   13.8108   59.7004 C   0  0  0  0  0  0
   13.7755   11.7874   59.7411 C   0  0  1  0  0  0
   14.1566   11.8098   58.2593 C   0  0  0  0  0  0
   12.5541   17.4272   62.0027 O   0  0  0  0  0  0
   13.7938   10.7474   57.4225 C   0  0  0  0  0  0
   16.0398   14.8188   63.8011 N   0  0  0  0  0  0
   14.1856   10.7427   56.0848 C   0  0  0  0  0  0
   13.7537    9.4330   55.0533 Cl  0  0  0  0  0  0
   14.9074   12.8704   57.7323 C   0  0  0  0  0  0
   14.8738   11.1372   60.6334 C   0  0  0  0  0  0
   16.9437   11.0448   59.3127 O   0  0  0  0  0  0
   15.3088   12.8585   56.4001 C   0  0  0  0  0  0
   14.9520   11.7907   55.5813 C   0  0  0  0  0  0
   16.3348   11.6176   60.4519 C   0  0  0  0  0  0
   11.1847   15.6442   60.0829 H   0  0  0  0  0  0
   11.4852   13.5210   58.8937 H   0  0  0  0  0  0
   12.9246   11.1105   59.8198 H   0  0  0  0  0  0
   13.0067   18.1077   62.5178 H   0  0  0  0  0  0
   13.2230    9.9151   57.8098 H   0  0  0  0  0  0
   16.4546   13.9056   63.8818 H   0  0  0  0  0  0
   16.1293   15.5156   64.5221 H   0  0  0  0  0  0
   15.2005   13.6968   58.3636 H   0  0  0  0  0  0
   14.5833   11.2754   61.6757 H   0  0  0  0  0  0
   14.8563   10.0555   60.4961 H   0  0  0  0  0  0
   16.9519   10.0891   59.4197 H   0  0  0  0  0  0
   15.8876   13.6772   56.0018 H   0  0  0  0  0  0
   15.2450   11.7860   54.5436 H   0  0  0  0  0  0
   16.3717   12.7013   60.3381 H   0  0  0  0  0  0
   16.9319   11.3949   61.3339 H   0  0  0  0  0  0
  1  2  1  0  0  0
  1  3  1  0  0  0
  1  6  2  0  0  0
  2  5  2  0  0  0
  2  7  1  0  0  0
  3  9  2  0  0  0
  3 10  1  0  0  0
  4  8  2  0  0  0
  4  5  1  0  0  0
  5 12  1  0  0  0
  6  8  1  0  0  0
  7  9  1  0  0  0
  7 23  1  0  0  0
  8 14  1  0  0  0
  9 24  1  0  0  0
 10 11  1  0  0  0
 10 18  1  0  0  0
 10 25  1  0  0  0
 11 13  1  0  0  0
 11 17  2  0  0  0
 12 26  1  0  0  0
 13 15  2  0  0  0
 13 27  1  0  0  0
 14 28  1  0  0  0
 14 29  1  0  0  0
 15 16  1  0  0  0
 15 21  1  0  0  0
 17 20  1  0  0  0
 17 30  1  0  0  0
 18 22  1  0  0  0
 18 31  1  0  0  0
 18 32  1  0  0  0
 19 22  1  0  0  0
 19 33  1  0  0  0
 20 21  2  0  0  0
 20 34  1  0  0  0
 21 35  1  0  0  0
 22 36  1  0  0  0
 22 37  1  0  0  0
M  END
> <s_m_entry_id>
11951

> <s_m_entry_name>
dock_pv.154

> <s_m_Source_Path>
/home/csk/Desktop/cluster/DUD-E-result/pnph

> <s_m_Source_File>
dock_pv.maegz

> <i_m_Source_File_Index>
154

> <chembl_id>
CHEMBL331949

> <chembl_pref_name>
None

> <i_lp_mmshare_version>
53161

> <r_lp_tautomer_probability>
1

> <s_lp_Force_Field>
OPLS_2005

> <r_lp_Energy>
6.375342

> <b_lp_Chiralities_Consistent>
1

> <s_lp_Variant>
CHEMBL4338_lig63-2

> <s_i_glide_gridfile>
glide-grid_3bgs

> <i_i_glide_lignum>
81

> <i_i_glide_rotatable_bonds>
6

> <r_i_docking_score>
-7.30486094120248

> <r_i_glide_ligand_efficiency>
-0.332039133691022

> <r_i_glide_ligand_efficiency_sa>
-0.930386710960363

> <r_i_glide_ligand_efficiency_ln>
-1.78557446530675

> <r_i_glide_gscore>
-7.30486094120248

> <r_i_glide_lipo>
-3.58617869907019

> <r_i_glide_hbond>
-0.427521918385251

> <r_i_glide_metal>
0

> <r_i_glide_rewards>
-1.4857324533889

> <r_i_glide_evdw>
-43.3355598449707

> <r_i_glide_ecoul>
-2.48552751541138

> <r_i_glide_erotb>
0.734179249202114

> <r_i_glide_esite>
0

> <r_i_glide_emodel>
-62.9267792827761

> <r_i_glide_energy>
-45.8210873603821

> <r_i_glide_einternal>
4.21634340286255

> <i_i_glide_confnum>
33

> <i_i_glide_posenum>
129

> <r_i_glide_eff_state_penalty>
0

> <s_user_duplicate_titles>
CHEMBL4338_lig63

> <i_f3d_flags>
0

> <s_m_subgroup_title>
dock_pv

> <s_m_subgroupid>
dock_pv

> <b_m_subgroup_collapsed>
1

$$$$
CHEMBL4338_lig189
                    3D
 Schrodinger Suite 2021-1.
 34 35  0  0  1  0            999 V2000
   12.0781    9.0329   56.5060 O   0  0  0  0  0  0
   13.3980    9.3254   56.1067 C   0  0  0  0  0  0
   13.7366   10.8199   56.3500 C   0  0  0  0  0  0
   15.0850   11.2719   55.7282 C   0  0  0  0  0  0
   15.3535   10.6326   54.5060 O   0  0  0  0  0  0
   13.6440   11.2505   57.8382 C   0  0  0  0  0  0
   14.7787   10.7490   58.6242 N   0  0  1  0  0  0
   14.8039   11.1699   60.0265 C   0  0  0  0  0  0
   14.7382   12.6767   60.2118 C   0  0  0  0  0  0
   15.7798   13.6073   60.2642 C   0  0  0  0  0  0
   15.2673   14.8772   60.4030 N   0  0  0  0  0  0
   13.9017   14.7868   60.4366 C   0  0  0  0  0  0
   12.8610   15.8117   60.5022 C   0  0  0  0  0  0
   12.9525   17.0333   60.4936 O   0  0  0  0  0  0
   11.6333   15.2113   60.5409 N   0  0  0  0  0  0
   11.3496   13.8667   60.4718 C   0  0  0  0  0  0
   12.2764   12.9896   60.3630 N   0  0  0  0  0  0
   13.5656   13.4341   60.3485 C   0  0  0  0  0  0
   11.8622    8.1415   56.1863 H   0  0  0  0  0  0
   14.0971    8.6836   56.6433 H   0  0  0  0  0  0
   13.4949    9.0480   55.0562 H   0  0  0  0  0  0
   12.9605   11.3744   55.8152 H   0  0  0  0  0  0
   15.1006   12.3530   55.5886 H   0  0  0  0  0  0
   15.9311   11.0354   56.3678 H   0  0  0  0  0  0
   15.4410    9.6867   54.6597 H   0  0  0  0  0  0
   13.6147   12.3394   57.8754 H   0  0  0  0  0  0
   12.7345   10.8556   58.2912 H   0  0  0  0  0  0
   14.7769    9.7374   58.5891 H   0  0  0  0  0  0
   13.9811   10.6816   60.5518 H   0  0  0  0  0  0
   15.7160   10.7780   60.4793 H   0  0  0  0  0  0
   16.8471   13.4639   60.1931 H   0  0  0  0  0  0
   15.8069   15.7347   60.4393 H   0  0  0  0  0  0
   10.8437   15.8362   60.6220 H   0  0  0  0  0  0
   10.3032   13.5808   60.5074 H   0  0  0  0  0  0
  1  2  1  0  0  0
  1 19  1  0  0  0
  2  3  1  0  0  0
  2 20  1  0  0  0
  2 21  1  0  0  0
  3  4  1  0  0  0
  3  6  1  0  0  0
  3 22  1  0  0  0
  4  5  1  0  0  0
  4 23  1  0  0  0
  4 24  1  0  0  0
  5 25  1  0  0  0
  6  7  1  0  0  0
  6 26  1  0  0  0
  6 27  1  0  0  0
  7  8  1  0  0  0
  7 28  1  0  0  0
  8  9  1  0  0  0
  8 29  1  0  0  0
  8 30  1  0  0  0
  9 10  2  0  0  0
  9 18  1  0  0  0
 10 11  1  0  0  0
 10 31  1  0  0  0
 11 12  1  0  0  0
 11 32  1  0  0  0
 12 13  1  0  0  0
 12 18  2  0  0  0
 13 14  2  0  0  0
 13 15  1  0  0  0
 15 16  1  0  0  0
 15 33  1  0  0  0
 16 17  2  0  0  0
 16 34  1  0  0  0
 17 18  1  0  0  0
M  END
> <s_m_entry_id>
11952

> <s_m_entry_name>
dock_pv.155

> <s_m_Source_Path>
/home/csk/Desktop/cluster/DUD-E-result/pnph

> <s_m_Source_File>
dock_pv.maegz

> <i_m_Source_File_Index>
155

> <chembl_id>
CHEMBL490081

> <chembl_pref_name>
None

> <i_lp_mmshare_version>
53161

> <r_lp_tautomer_probability>
1

> <s_lp_Force_Field>
OPLS_2005

> <r_lp_Energy>
28.354053

> <b_lp_Chiralities_Consistent>
1

> <s_lp_Variant>
CHEMBL4338_lig189-1

> <s_i_glide_gridfile>
glide-grid_3bgs

> <i_i_glide_lignum>
253

> <i_i_glide_rotatable_bonds>
8

> <r_i_docking_score>
-7.30361422621521

> <r_i_glide_ligand_efficiency>
-0.405756345900845

> <r_i_glide_ligand_efficiency_sa>
-1.06338245064076

> <r_i_glide_ligand_efficiency_ln>
-1.87735637639033

> <r_i_glide_gscore>
-7.30361422621521

> <r_i_glide_lipo>
-2.27085862172771

> <r_i_glide_hbond>
-0.801913713477801

> <r_i_glide_metal>
0

> <r_i_glide_rewards>
-1.97385713784059

> <r_i_glide_evdw>
-32.5415306091309

> <r_i_glide_ecoul>
-13.3891515731812

> <r_i_glide_erotb>
1.37846451326461

> <r_i_glide_esite>
0

> <r_i_glide_emodel>
-64.269067858524

> <r_i_glide_energy>
-45.930682182312

> <r_i_glide_einternal>
4.09423303604126

> <i_i_glide_confnum>
239

> <i_i_glide_posenum>
127

> <r_i_glide_eff_state_penalty>
0

> <s_user_duplicate_titles>
CHEMBL4338_lig189,455020

> <i_f3d_flags>
0

> <s_m_subgroup_title>
dock_pv

> <s_m_subgroupid>
dock_pv

> <b_m_subgroup_collapsed>
1

$$$$
CHEMBL4338_lig206
                    3D
 Schrodinger Suite 2021-1.
 43 46  0  0  1  0            999 V2000
   11.9203   13.9044   58.9062 O   0  0  0  0  0  0
   13.1104   13.9020   59.6887 C   0  0  2  0  0  0
   12.9644   12.8825   60.8372 C   0  0  1  0  0  0
   13.3546   11.4330   60.5185 C   0  0  0  0  0  0
   14.9986   11.1153   59.8261 S   0  0  0  0  0  0
   14.8151   11.1689   58.0724 C   0  0  0  0  0  0
   13.7725   10.4992   57.4276 C   0  0  0  0  0  0
   13.7383   10.4622   56.0371 C   0  0  0  0  0  0
   14.7291   11.1125   55.3060 C   0  0  0  0  0  0
   15.7412   11.8280   55.9461 C   0  0  0  0  0  0
   15.7898   11.8296   57.3350 C   0  0  0  0  0  0
   13.6703   13.4481   61.9675 N   0  0  1  0  0  0
   13.3573   14.8634   61.8987 C   0  0  2  0  0  0
   13.4573   15.2362   60.4091 C   0  0  2  0  0  0
   12.5540   16.2890   60.1061 O   0  0  0  0  0  0
   14.2064   15.6878   62.8621 C   0  0  0  0  0  0
   13.8539   16.9452   63.3494 C   0  0  0  0  0  0
   14.8261   17.4326   64.1802 N   0  0  0  0  0  0
   15.8055   16.4910   64.2767 C   0  0  0  0  0  0
   17.0330   16.5101   65.0544 C   0  0  0  0  0  0
   17.4730   17.4062   65.7676 O   0  0  0  0  0  0
   17.6883   15.3179   64.8946 N   0  0  0  0  0  0
   17.3179   14.2447   64.1066 C   0  0  0  0  0  0
   16.2502   14.2838   63.3838 N   0  0  0  0  0  0
   15.4584   15.3998   63.4693 C   0  0  0  0  0  0
   12.1524   14.2513   58.0270 H   0  0  0  0  0  0
   13.9583   13.6543   59.0508 H   0  0  0  0  0  0
   11.9144   12.8638   61.1402 H   0  0  0  0  0  0
   12.6149   11.0333   59.8291 H   0  0  0  0  0  0
   13.2893   10.8423   61.4319 H   0  0  0  0  0  0
   13.0271    9.9544   57.9846 H   0  0  0  0  0  0
   12.9598    9.9116   55.5260 H   0  0  0  0  0  0
   14.7155   11.0327   54.2299 H   0  0  0  0  0  0
   16.5171   12.3179   55.3777 H   0  0  0  0  0  0
   16.6324   12.2332   57.8570 H   0  0  0  0  0  0
   13.4312   13.0390   62.8653 H   0  0  0  0  0  0
   12.3226   15.0089   62.2070 H   0  0  0  0  0  0
   14.4805   15.5256   60.1597 H   0  0  0  0  0  0
   11.7026   15.8665   59.9445 H   0  0  0  0  0  0
   12.9808   17.5470   63.1469 H   0  0  0  0  0  0
   14.8191   18.3338   64.6403 H   0  0  0  0  0  0
   18.5331   15.2463   65.4403 H   0  0  0  0  0  0
   17.9619   13.3699   64.1065 H   0  0  0  0  0  0
  1  2  1  0  0  0
  1 26  1  0  0  0
  2  3  1  0  0  0
  2 14  1  0  0  0
  2 27  1  0  0  0
  3  4  1  0  0  0
  3 12  1  0  0  0
  3 28  1  0  0  0
  4  5  1  0  0  0
  4 29  1  0  0  0
  4 30  1  0  0  0
  5  6  1  0  0  0
  6  7  2  0  0  0
  6 11  1  0  0  0
  7  8  1  0  0  0
  7 31  1  0  0  0
  8  9  2  0  0  0
  8 32  1  0  0  0
  9 10  1  0  0  0
  9 33  1  0  0  0
 10 11  2  0  0  0
 10 34  1  0  0  0
 11 35  1  0  0  0
 12 13  1  0  0  0
 12 36  1  0  0  0
 13 14  1  0  0  0
 13 16  1  0  0  0
 13 37  1  0  0  0
 14 15  1  0  0  0
 14 38  1  0  0  0
 15 39  1  0  0  0
 16 17  2  0  0  0
 16 25  1  0  0  0
 17 18  1  0  0  0
 17 40  1  0  0  0
 18 19  1  0  0  0
 18 41  1  0  0  0
 19 20  1  0  0  0
 19 25  2  0  0  0
 20 21  2  0  0  0
 20 22  1  0  0  0
 22 23  1  0  0  0
 22 42  1  0  0  0
 23 24  2  0  0  0
 23 43  1  0  0  0
 24 25  1  0  0  0
M  END
> <s_m_entry_id>
11954

> <s_m_entry_name>
dock_pv.157

> <s_m_Source_Path>
/home/csk/Desktop/cluster/DUD-E-result/pnph

> <s_m_Source_File>
dock_pv.maegz

> <i_m_Source_File_Index>
157

> <chembl_id>
CHEMBL474328

> <chembl_pref_name>
None

> <i_lp_mmshare_version>
53161

> <r_lp_tautomer_probability>
1

> <s_lp_Force_Field>
OPLS_2005

> <r_lp_Energy>
50.151917

> <b_lp_Chiralities_Consistent>
1

> <s_lp_Variant>
CHEMBL4338_lig206-1

> <s_i_glide_gridfile>
glide-grid_3bgs

> <i_i_glide_lignum>
278

> <i_i_glide_rotatable_bonds>
6

> <r_i_docking_score>
-7.30162527869598

> <r_i_glide_ligand_efficiency>
-0.292065011147839

> <r_i_glide_ligand_efficiency_sa>
-0.85400327239131

> <r_i_glide_ligand_efficiency_ln>
-1.7307040031035

> <r_i_glide_gscore>
-7.30162527869598

> <r_i_glide_lipo>
-3.21882484832459

> <r_i_glide_hbond>
-0.00418349553884633

> <r_i_glide_metal>
0

> <r_i_glide_rewards>
-1.14716925389787

> <r_i_glide_evdw>
-37.2109375

> <r_i_glide_ecoul>
-9.92280578613281

> <r_i_glide_erotb>
0.41752006198524

> <r_i_glide_esite>
0

> <r_i_glide_emodel>
-60.7629465590168

> <r_i_glide_energy>
-47.1337432861328

> <r_i_glide_einternal>
6.22561073303223

> <i_i_glide_confnum>
12

> <i_i_glide_posenum>
238

> <r_i_glide_eff_state_penalty>
0

> <s_user_duplicate_titles>
CHEMBL4338_lig206,454570

> <i_f3d_flags>
0

> <s_m_subgroup_title>
dock_pv

> <s_m_subgroupid>
dock_pv

> <b_m_subgroup_collapsed>
1

$$$$
CHEMBL4338_lig27
                    3D
 Schrodinger Suite 2021-1.
 37 39  0  0  1  0            999 V2000
   13.5903   14.2275   61.6899 C   0  0  0  0  0  0
   12.7144   15.0704   61.0589 C   0  0  0  0  0  0
   14.4454   14.5192   62.7182 N   0  0  0  0  0  0
   15.2562   12.2869   56.9281 C   0  0  0  0  0  0
   15.7627   12.5119   58.3704 C   0  0  2  0  0  0
   13.4378   16.6335   62.5792 N   0  0  0  0  0  0
   12.0093   14.4337   60.1062 N   0  0  0  0  0  0
   12.6766   16.4646   61.4545 C   0  0  0  0  0  0
   13.6128   11.4464   56.8889 P   0  0  0  0  0  0
   14.3101   15.7267   63.1496 C   0  0  0  0  0  0
   13.3976   13.0155   61.0992 N   0  0  0  0  0  0
   17.0175   11.7582   58.8149 C   0  0  0  0  0  0
   15.7015   11.4363   59.4273 C   0  0  1  0  0  0
   12.4390   13.1944   60.1724 C   0  0  0  0  0  0
   13.3761   10.2330   57.7060 O   0  0  0  0  0  0
   14.0876   11.7628   61.4201 C   0  0  0  0  0  0
   12.1540   17.4318   60.9058 O   0  0  0  0  0  0
   15.5329   11.7844   60.9008 C   0  0  0  0  0  0
   16.0446   11.5189   56.1741 F   0  0  0  0  0  0
   15.0838   13.4330   56.2760 F   0  0  0  0  0  0
   15.0416   16.1716   64.1733 N   0  0  0  0  0  0
   12.5760   12.6330   57.2550 O   0  0  0  0  0  0
   13.3540   11.2198   55.3070 O   0  0  0  0  0  0
   15.3109   10.4453   59.1944 H   0  0  0  0  0  0
   15.6137   13.5384   58.7093 H   0  0  0  0  0  0
   17.4570   11.0330   58.1380 H   0  0  0  0  0  0
   17.7690   12.2330   59.4445 H   0  0  0  0  0  0
   12.1098   12.3620   59.5698 H   0  0  0  0  0  0
   13.5002   10.9542   60.9852 H   0  0  0  0  0  0
   14.0434   11.6740   62.5059 H   0  0  0  0  0  0
   13.4605   17.5839   62.9194 H   0  0  0  0  0  0
   16.1216   11.0329   61.4009 H   0  0  0  0  0  0
   16.0184   12.7305   61.1472 H   0  0  0  0  0  0
   15.6810   15.5350   64.6245 H   0  0  0  0  0  0
   14.9688   17.1208   64.5073 H   0  0  0  0  0  0
   12.7552   13.5379   56.9059 H   0  0  0  0  0  0
   12.4166   11.0711   55.0363 H   0  0  0  0  0  0
  1 11  1  0  0  0
  1  3  1  0  0  0
  1  2  2  0  0  0
  2  8  1  0  0  0
  2  7  1  0  0  0
  3 10  2  0  0  0
  4  5  1  0  0  0
  4  9  1  0  0  0
  4 19  1  0  0  0
  4 20  1  0  0  0
  5 13  1  0  0  0
  5 25  1  0  0  0
  5 12  1  0  0  0
  6 10  1  0  0  0
  6 31  1  0  0  0
  6  8  1  0  0  0
  7 14  2  0  0  0
  8 17  2  0  0  0
  9 15  2  0  0  0
  9 22  1  0  0  0
  9 23  1  0  0  0
 10 21  1  0  0  0
 11 14  1  0  0  0
 11 16  1  0  0  0
 12 13  1  0  0  0
 12 26  1  0  0  0
 12 27  1  0  0  0
 13 18  1  0  0  0
 13 24  1  0  0  0
 14 28  1  0  0  0
 16 18  1  0  0  0
 16 29  1  0  0  0
 16 30  1  0  0  0
 18 32  1  0  0  0
 18 33  1  0  0  0
 21 34  1  0  0  0
 21 35  1  0  0  0
 22 36  1  0  0  0
 23 37  1  0  0  0
M  END
> <s_m_entry_id>
11955

> <s_m_entry_name>
dock_pv.158

> <s_m_Source_Path>
/home/csk/Desktop/cluster/DUD-E-result/pnph

> <s_m_Source_File>
dock_pv.maegz

> <i_m_Source_File_Index>
158

> <chembl_id>
CHEMBL97006

> <chembl_pref_name>
None

> <i_lp_mmshare_version>
53161

> <r_lp_tautomer_probability>
0.999940409345307

> <s_lp_Force_Field>
OPLS_2005

> <r_lp_Energy>
11.894918

> <b_lp_Chiralities_Consistent>
1

> <s_lp_Variant>
CHEMBL4338_lig27-1

> <s_i_glide_gridfile>
glide-grid_3bgs

> <i_i_glide_lignum>
32

> <i_i_glide_rotatable_bonds>
7

> <r_i_docking_score>
-7.29984130661655

> <r_i_glide_ligand_efficiency>
-0.317384404635502

> <r_i_glide_ligand_efficiency_sa>
-0.902599027319388

> <r_i_glide_ligand_efficiency_ln>
-1.76516781924127

> <r_i_glide_gscore>
-7.29984130661655

> <r_i_glide_lipo>
-1.68891643029226

> <r_i_glide_hbond>
-0.2624862285133

> <r_i_glide_metal>
0

> <r_i_glide_rewards>
-2.38320035482889

> <r_i_glide_evdw>
-32.2092590332031

> <r_i_glide_ecoul>
-14.2373466491699

> <r_i_glide_erotb>
0.780826656053539

> <r_i_glide_esite>
0

> <r_i_glide_emodel>
-62.5586059005429

> <r_i_glide_energy>
-46.446605682373

> <r_i_glide_einternal>
4.02340412139893

> <i_i_glide_confnum>
109

> <i_i_glide_posenum>
273

> <r_i_glide_eff_state_penalty>
0

> <s_user_duplicate_titles>
CHEMBL4338_lig27,157252

> <i_f3d_flags>
0

> <s_m_subgroup_title>
dock_pv

> <s_m_subgroupid>
dock_pv

> <b_m_subgroup_collapsed>
1

$$$$
CHEMBL4338_lig72
                    3D
 Schrodinger Suite 2021-1.
 37 39  0  0  1  0            999 V2000
   13.1702   14.6146   61.0366 N   0  0  0  0  0  0
   12.5459   15.7373   61.4099 C   0  0  0  0  0  0
   12.9540   16.6328   62.3313 N   0  0  0  0  0  0
   14.1287   16.3883   62.9668 C   0  0  0  0  0  0
   14.3362   14.3669   61.6227 C   0  0  0  0  0  0
   14.8628   15.2491   62.6054 C   0  0  0  0  0  0
   16.0768   14.7196   62.9832 N   0  0  0  0  0  0
   16.3051   13.5610   62.2763 C   0  0  0  0  0  0
   15.2383   13.2655   61.4382 C   0  0  0  0  0  0
   14.6704   17.2305   63.8928 O   0  0  0  0  0  0
   15.0435   12.0333   60.5648 C   0  0  0  0  0  0
   15.0303   12.3012   59.1194 N   0  0  2  0  0  0
   13.8768   12.9799   58.5076 C   0  0  1  0  0  0
   14.1092   12.7527   57.0032 C   0  0  0  0  0  0
   14.9813   11.5035   56.8524 C   0  0  2  0  0  0
   15.2311   11.1055   58.3134 C   0  0  0  0  0  0
   11.3555   15.9525   60.7590 N   0  0  0  0  0  0
   12.4612   12.4775   58.9256 C   0  0  0  0  0  0
   11.4784   13.4330   58.5386 O   0  0  0  0  0  0
   16.1542   11.8336   56.1336 O   0  0  0  0  0  0
   16.7229   15.0889   63.6673 H   0  0  0  0  0  0
   17.2176   13.0108   62.4513 H   0  0  0  0  0  0
   14.1758   18.0571   63.8791 H   0  0  0  0  0  0
   14.1511   11.4823   60.8632 H   0  0  0  0  0  0
   15.8668   11.3451   60.7649 H   0  0  0  0  0  0
   13.9989   14.0398   58.7304 H   0  0  0  0  0  0
   13.1532   12.6090   56.5052 H   0  0  0  0  0  0
   14.5607   13.6441   56.5643 H   0  0  0  0  0  0
   14.4229   10.7129   56.3475 H   0  0  0  0  0  0
   14.5149   10.3502   58.6441 H   0  0  0  0  0  0
   16.1966   10.6347   58.5051 H   0  0  0  0  0  0
   11.0795   15.1557   60.2015 H   0  0  0  0  0  0
   10.6327   16.3880   61.3061 H   0  0  0  0  0  0
   12.3617   12.3859   60.0048 H   0  0  0  0  0  0
   12.2358   11.4959   58.5062 H   0  0  0  0  0  0
   11.8509   13.9892   57.8370 H   0  0  0  0  0  0
   16.8521   11.2205   56.3773 H   0  0  0  0  0  0
  1  5  2  0  0  0
  1  2  1  0  0  0
  2  3  2  0  0  0
  2 17  1  0  0  0
  3  4  1  0  0  0
  4 10  1  0  0  0
  4  6  2  0  0  0
  5  6  1  0  0  0
  5  9  1  0  0  0
  6  7  1  0  0  0
  7  8  1  0  0  0
  7 21  1  0  0  0
  8  9  2  0  0  0
  8 22  1  0  0  0
  9 11  1  0  0  0
 10 23  1  0  0  0
 11 12  1  0  0  0
 11 24  1  0  0  0
 11 25  1  0  0  0
 12 13  1  0  0  0
 12 16  1  0  0  0
 13 14  1  0  0  0
 13 18  1  0  0  0
 13 26  1  0  0  0
 14 15  1  0  0  0
 14 27  1  0  0  0
 14 28  1  0  0  0
 15 16  1  0  0  0
 15 20  1  0  0  0
 15 29  1  0  0  0
 16 30  1  0  0  0
 16 31  1  0  0  0
 17 32  1  0  0  0
 17 33  1  0  0  0
 18 19  1  0  0  0
 18 34  1  0  0  0
 18 35  1  0  0  0
 19 36  1  0  0  0
 20 37  1  0  0  0
M  END
> <s_m_entry_id>
11956

> <s_m_entry_name>
dock_pv.159

> <s_m_Source_Path>
/home/csk/Desktop/cluster/DUD-E-result/pnph

> <s_m_Source_File>
dock_pv.maegz

> <i_m_Source_File_Index>
159

> <chembl_id>
CHEMBL385263

> <chembl_pref_name>
None

> <i_lp_mmshare_version>
53161

> <r_lp_tautomer_probability>
1

> <s_lp_Force_Field>
OPLS_2005

> <r_lp_Energy>
42.023986

> <b_lp_Chiralities_Consistent>
1

> <s_lp_Variant>
CHEMBL4338_lig72-1

> <s_i_glide_gridfile>
glide-grid_3bgs

> <i_i_glide_lignum>
91

> <i_i_glide_rotatable_bonds>
6

> <r_i_docking_score>
-7.29261625380505

> <r_i_glide_ligand_efficiency>
-0.364630812690253

> <r_i_glide_ligand_efficiency_sa>
-0.989760300531387

> <r_i_glide_ligand_efficiency_ln>
-1.82510132174563

> <r_i_glide_gscore>
-7.29261625380505

> <r_i_glide_lipo>
-2.09951437788823

> <r_i_glide_hbond>
-0.874266220516031

> <r_i_glide_metal>
0

> <r_i_glide_rewards>
-1.50480627272727

> <r_i_glide_evdw>
-29.7672805786133

> <r_i_glide_ecoul>
-13.2525844573975

> <r_i_glide_erotb>
0.69382004762038

> <r_i_glide_esite>
-0.0315977327536144

> <r_i_glide_emodel>
-58.1326732755655

> <r_i_glide_energy>
-43.0198650360107

> <r_i_glide_einternal>
4.43908309936523

> <i_i_glide_confnum>
25

> <i_i_glide_posenum>
248

> <r_i_glide_eff_state_penalty>
0

> <s_user_duplicate_titles>
CHEMBL4338_lig72,360179

> <i_f3d_flags>
0

> <s_m_subgroup_title>
dock_pv

> <s_m_subgroupid>
dock_pv

> <b_m_subgroup_collapsed>
1

$$$$
CHEMBL4338_lig69
                    3D
 Schrodinger Suite 2021-1.
 35 36  0  0  1  0            999 V2000
   12.3290   12.6340   58.6005 N   0  0  0  0  0  0
   11.7552   13.5199   59.4406 C   0  0  0  0  0  0
   12.1276   13.8072   60.7063 N   0  0  0  0  0  0
   13.2323   13.1940   61.2039 C   0  0  0  0  0  0
   13.3976   11.9950   59.0847 C   0  0  0  0  0  0
   13.8903   12.2625   60.3943 C   0  0  0  0  0  0
   14.9992   11.4649   60.5703 N   0  0  0  0  0  0
   15.2064   10.7199   59.4373 C   0  0  0  0  0  0
   14.2470   11.0057   58.4768 C   0  0  0  0  0  0
   13.7537   13.4211   62.4471 O   0  0  0  0  0  0
   14.1325   10.3832   57.0973 C   0  0  0  0  0  0
   10.6935   14.2328   58.9195 N   0  0  0  0  0  0
   14.7248   11.1150   55.9518 N   0  0  1  0  0  0
   15.8363   12.0393   56.2437 C   0  0  0  0  0  0
   15.1982   10.2074   54.8840 C   0  0  0  0  0  0
   14.2837    9.0258   54.5114 C   0  0  0  0  0  0
   14.9540    8.2330   53.5520 O   0  0  0  0  0  0
   15.3517   13.4210   56.6957 C   0  0  0  0  0  0
   15.5871   11.3957   61.3913 H   0  0  0  0  0  0
   16.0351   10.0264   59.4064 H   0  0  0  0  0  0
   13.1001   13.8509   63.0110 H   0  0  0  0  0  0
   13.0843   10.2027   56.8535 H   0  0  0  0  0  0
   14.5538    9.3826   57.1694 H   0  0  0  0  0  0
   10.8346   14.4308   57.9388 H   0  0  0  0  0  0
   10.3289   14.9456   59.5396 H   0  0  0  0  0  0
   16.5346   11.6097   56.9637 H   0  0  0  0  0  0
   16.4184   12.2202   55.3379 H   0  0  0  0  0  0
   16.1899    9.8313   55.1377 H   0  0  0  0  0  0
   15.2567   10.8409   53.9994 H   0  0  0  0  0  0
   13.3483    9.3951   54.1043 H   0  0  0  0  0  0
   14.0267    8.3891   55.3561 H   0  0  0  0  0  0
   14.4670    7.3923   53.4645 H   0  0  0  0  0  0
   16.1551   14.1462   56.6384 H   0  0  0  0  0  0
   14.5540   13.7772   56.0534 H   0  0  0  0  0  0
   15.0018   13.4476   57.7209 H   0  0  0  0  0  0
  1  5  2  0  0  0
  1  2  1  0  0  0
  2 12  1  0  0  0
  2  3  2  0  0  0
  3  4  1  0  0  0
  4 10  1  0  0  0
  4  6  2  0  0  0
  5  6  1  0  0  0
  5  9  1  0  0  0
  6  7  1  0  0  0
  7  8  1  0  0  0
  7 19  1  0  0  0
  8  9  2  0  0  0
  8 20  1  0  0  0
  9 11  1  0  0  0
 10 21  1  0  0  0
 11 13  1  0  0  0
 11 22  1  0  0  0
 11 23  1  0  0  0
 12 24  1  0  0  0
 12 25  1  0  0  0
 13 14  1  0  0  0
 13 15  1  0  0  0
 14 18  1  0  0  0
 14 26  1  0  0  0
 14 27  1  0  0  0
 15 16  1  0  0  0
 15 28  1  0  0  0
 15 29  1  0  0  0
 16 17  1  0  0  0
 16 30  1  0  0  0
 16 31  1  0  0  0
 17 32  1  0  0  0
 18 33  1  0  0  0
 18 34  1  0  0  0
 18 35  1  0  0  0
M  END
> <s_m_entry_id>
11957

> <s_m_entry_name>
dock_pv.160

> <s_m_Source_Path>
/home/csk/Desktop/cluster/DUD-E-result/pnph

> <s_m_Source_File>
dock_pv.maegz

> <i_m_Source_File_Index>
160

> <chembl_id>
CHEMBL1161899

> <chembl_pref_name>
None

> <i_lp_mmshare_version>
53161

> <r_lp_tautomer_probability>
1

> <s_lp_Force_Field>
OPLS_2005

> <r_lp_Energy>
15.758217

> <b_lp_Chiralities_Consistent>
1

> <s_lp_Variant>
CHEMBL4338_lig69-1

> <s_i_glide_gridfile>
glide-grid_3bgs

> <i_i_glide_lignum>
88

> <i_i_glide_rotatable_bonds>
7

> <r_i_docking_score>
-7.24725359625869

> <r_i_glide_ligand_efficiency>
-0.402625199792149

> <r_i_glide_ligand_efficiency_sa>
-1.0551765264303

> <r_i_glide_ligand_efficiency_ln>
-1.86286916707874

> <r_i_glide_gscore>
-7.24725359625869

> <r_i_glide_lipo>
-2.26841442299522

> <r_i_glide_hbond>
-0.769210941148165

> <r_i_glide_metal>
0

> <r_i_glide_rewards>
-1.89161508802901

> <r_i_glide_evdw>
-33.9513702392578

> <r_i_glide_ecoul>
-11.0453815460205

> <r_i_glide_erotb>
1.11019678257574

> <r_i_glide_esite>
-0.0738341827960672

> <r_i_glide_emodel>
-59.2490522193797

> <r_i_glide_energy>
-44.9967517852783

> <r_i_glide_einternal>
9.95876884460449

> <i_i_glide_confnum>
65

> <i_i_glide_posenum>
106

> <r_i_glide_eff_state_penalty>
0

> <s_user_duplicate_titles>
CHEMBL4338_lig69,643438

> <i_f3d_flags>
0

> <s_m_subgroup_title>
dock_pv

> <s_m_subgroupid>
dock_pv

> <b_m_subgroup_collapsed>
1

$$$$
CHEMBL4338_lig120
                    3D
 Schrodinger Suite 2021-1.
 32 34  0  0  1  0            999 V2000
   13.8272   12.7691   58.9915 C   0  0  0  0  0  0
   14.3745   12.4810   57.6986 C   0  0  0  0  0  0
   13.7922   11.2553   57.3079 C   0  0  0  0  0  0
   14.1131   13.9448   59.9167 C   0  0  2  0  0  0
   12.9654   11.8333   59.3150 N   0  0  0  0  0  0
   15.5488   14.0638   60.1221 N   0  0  1  0  0  0
   12.9540   10.9213   58.3351 N   0  0  0  0  0  0
   13.4454   13.8898   61.3159 C   0  0  1  0  0  0
   14.1318   10.6627   56.0902 C   0  0  0  0  0  0
   14.5459   14.3694   62.2878 C   0  0  1  0  0  0
   15.7173   14.7802   61.3778 C   0  0  1  0  0  0
   15.2512   13.1202   56.9197 N   0  0  0  0  0  0
   15.0221   11.3158   55.3059 N   0  0  0  0  0  0
   15.5151   12.5003   55.7449 C   0  0  0  0  0  0
   13.5380    9.4718   55.7798 O   0  0  0  0  0  0
   12.2287   14.6246   61.3060 O   0  0  0  0  0  0
   14.1545   15.4330   63.1399 O   0  0  0  0  0  0
   17.1098   14.6076   62.0249 C   0  0  0  0  0  0
   18.1534   15.0330   61.1655 O   0  0  0  0  0  0
   13.7856   14.8376   59.3796 H   0  0  0  0  0  0
   15.9620   13.1420   60.1758 H   0  0  0  0  0  0
   12.3823   10.0922   58.4104 H   0  0  0  0  0  0
   13.2149   12.8582   61.5861 H   0  0  0  0  0  0
   14.8419   13.5169   62.9034 H   0  0  0  0  0  0
   15.5903   15.8330   61.1302 H   0  0  0  0  0  0
   16.1540   13.0330   55.0693 H   0  0  0  0  0  0
   13.8105    9.1351   54.9227 H   0  0  0  0  0  0
   11.8772   14.6334   62.2048 H   0  0  0  0  0  0
   13.4485   15.1078   63.7062 H   0  0  0  0  0  0
   17.2816   13.5701   62.3162 H   0  0  0  0  0  0
   17.1583   15.1964   62.9417 H   0  0  0  0  0  0
   17.8122   15.7390   60.6026 H   0  0  0  0  0  0
  1  2  1  0  0  0
  1  4  1  0  0  0
  1  5  2  0  0  0
  2  3  1  0  0  0
  2 12  2  0  0  0
  3  9  2  0  0  0
  3  7  1  0  0  0
  4  6  1  0  0  0
  4  8  1  0  0  0
  4 20  1  0  0  0
  5  7  1  0  0  0
  6 11  1  0  0  0
  6 21  1  0  0  0
  7 22  1  0  0  0
  8 10  1  0  0  0
  8 16  1  0  0  0
  8 23  1  0  0  0
  9 15  1  0  0  0
  9 13  1  0  0  0
 10 17  1  0  0  0
 10 11  1  0  0  0
 10 24  1  0  0  0
 11 18  1  0  0  0
 11 25  1  0  0  0
 12 14  1  0  0  0
 13 14  2  0  0  0
 14 26  1  0  0  0
 15 27  1  0  0  0
 16 28  1  0  0  0
 17 29  1  0  0  0
 18 19  1  0  0  0
 18 30  1  0  0  0
 18 31  1  0  0  0
 19 32  1  0  0  0
M  END
> <s_m_entry_id>
11958

> <s_m_entry_name>
dock_pv.161

> <s_m_Source_Path>
/home/csk/Desktop/cluster/DUD-E-result/pnph

> <s_m_Source_File>
dock_pv.maegz

> <i_m_Source_File_Index>
161

> <chembl_id>
CHEMBL2311112

> <chembl_pref_name>
None

> <i_lp_mmshare_version>
53161

> <r_lp_tautomer_probability>
1

> <s_lp_Force_Field>
OPLS_2005

> <r_lp_Energy>
34.612209

> <b_lp_Chiralities_Consistent>
1

> <s_lp_Variant>
CHEMBL4338_lig120-1

> <s_i_glide_gridfile>
glide-grid_3bgs

> <i_i_glide_lignum>
147

> <i_i_glide_rotatable_bonds>
6

> <r_i_docking_score>
-7.24297633103102

> <r_i_glide_ligand_efficiency>
-0.38120928058058

> <r_i_glide_ligand_efficiency_sa>
-1.01721947181095

> <r_i_glide_ligand_efficiency_ln>
-1.83625006478403

> <r_i_glide_gscore>
-7.24297633103102

> <r_i_glide_lipo>
-1.7897259502958

> <r_i_glide_hbond>
-0.628824919668168

> <r_i_glide_metal>
0

> <r_i_glide_rewards>
-2.036991

> <r_i_glide_evdw>
-31.8898296356201

> <r_i_glide_ecoul>
-11.2814617156982

> <r_i_glide_erotb>
0.499276278068686

> <r_i_glide_esite>
0

> <r_i_glide_emodel>
-58.1520646382285

> <r_i_glide_energy>
-43.1712913513184

> <r_i_glide_einternal>
6.25436401367188

> <i_i_glide_confnum>
13

> <i_i_glide_posenum>
148

> <r_i_glide_eff_state_penalty>
0

> <s_user_duplicate_titles>
CHEMBL4338_lig120

> <i_f3d_flags>
0

> <s_m_subgroup_title>
dock_pv

> <s_m_subgroupid>
dock_pv

> <b_m_subgroup_collapsed>
1

$$$$
CHEMBL4338_lig185
                    3D
 Schrodinger Suite 2021-1.
 31 32  0  0  1  0            999 V2000
   15.1772   11.4329   55.3059 O   0  0  0  0  0  0
   15.4379   12.4531   56.2532 C   0  0  0  0  0  0
   14.4813   12.3781   57.4679 C   0  0  1  0  0  0
   13.1456   12.6326   57.0717 O   0  0  0  0  0  0
   14.5128   11.0373   58.2533 C   0  0  0  0  0  0
   15.6910   10.9004   59.1176 N   0  0  1  0  0  0
   15.4751   11.3167   60.5052 C   0  0  0  0  0  0
   15.1620   12.7921   60.6182 C   0  0  0  0  0  0
   16.0766   13.8423   60.5699 C   0  0  0  0  0  0
   15.4020   15.0329   60.5344 N   0  0  0  0  0  0
   14.0602   14.7777   60.5959 C   0  0  0  0  0  0
   12.9139   15.6772   60.5071 C   0  0  0  0  0  0
   12.8984   16.8893   60.3089 O   0  0  0  0  0  0
   11.7570   14.9537   60.6471 N   0  0  0  0  0  0
   11.6287   13.5881   60.8006 C   0  0  0  0  0  0
   12.6584   12.8129   60.8217 N   0  0  0  0  0  0
   13.8911   13.3960   60.7182 C   0  0  0  0  0  0
   14.2341   11.4490   55.1050 H   0  0  0  0  0  0
   16.4753   12.3589   56.5786 H   0  0  0  0  0  0
   15.3391   13.4192   55.7518 H   0  0  0  0  0  0
   14.7338   13.2069   58.1236 H   0  0  0  0  0  0
   13.0240   13.5812   56.9116 H   0  0  0  0  0  0
   13.6099   10.9194   58.8570 H   0  0  0  0  0  0
   14.4984   10.2089   57.5441 H   0  0  0  0  0  0
   16.0345    9.9483   59.0916 H   0  0  0  0  0  0
   14.6783   10.7128   60.9424 H   0  0  0  0  0  0
   16.3807   11.0841   61.0662 H   0  0  0  0  0  0
   17.1535   13.8288   60.4865 H   0  0  0  0  0  0
   15.8287   15.9485   60.4432 H   0  0  0  0  0  0
   10.9033   15.4951   60.6337 H   0  0  0  0  0  0
   10.6218   13.1937   60.9059 H   0  0  0  0  0  0
  1  2  1  0  0  0
  1 18  1  0  0  0
  2  3  1  0  0  0
  2 19  1  0  0  0
  2 20  1  0  0  0
  3  4  1  0  0  0
  3  5  1  0  0  0
  3 21  1  0  0  0
  4 22  1  0  0  0
  5  6  1  0  0  0
  5 23  1  0  0  0
  5 24  1  0  0  0
  6  7  1  0  0  0
  6 25  1  0  0  0
  7  8  1  0  0  0
  7 26  1  0  0  0
  7 27  1  0  0  0
  8  9  2  0  0  0
  8 17  1  0  0  0
  9 10  1  0  0  0
  9 28  1  0  0  0
 10 11  1  0  0  0
 10 29  1  0  0  0
 11 12  1  0  0  0
 11 17  2  0  0  0
 12 13  2  0  0  0
 12 14  1  0  0  0
 14 15  1  0  0  0
 14 30  1  0  0  0
 15 16  2  0  0  0
 15 31  1  0  0  0
 16 17  1  0  0  0
M  END
> <s_m_entry_id>
11959

> <s_m_entry_name>
dock_pv.162

> <s_m_Source_Path>
/home/csk/Desktop/cluster/DUD-E-result/pnph

> <s_m_Source_File>
dock_pv.maegz

> <i_m_Source_File_Index>
162

> <chembl_id>
CHEMBL490283

> <chembl_pref_name>
None

> <i_lp_mmshare_version>
53161

> <r_lp_tautomer_probability>
1

> <s_lp_Force_Field>
OPLS_2005

> <r_lp_Energy>
31.893343

> <b_lp_Chiralities_Consistent>
1

> <s_lp_Variant>
CHEMBL4338_lig185-1

> <s_i_glide_gridfile>
glide-grid_3bgs

> <i_i_glide_lignum>
249

> <i_i_glide_rotatable_bonds>
7

> <r_i_docking_score>
-7.23342251836479

> <r_i_glide_ligand_efficiency>
-0.425495442256752

> <r_i_glide_ligand_efficiency_sa>
-1.09406859655053

> <r_i_glide_ligand_efficiency_ln>
-1.88703885464161

> <r_i_glide_gscore>
-7.23342251836479

> <r_i_glide_lipo>
-2.120759099119

> <r_i_glide_hbond>
-0.747537702364632

> <r_i_glide_metal>
0

> <r_i_glide_rewards>
-2.14777149239621

> <r_i_glide_evdw>
-32.3967475891113

> <r_i_glide_ecoul>
-12.0909156799316

> <r_i_glide_erotb>
1.21612050696036

> <r_i_glide_esite>
0

> <r_i_glide_emodel>
-62.101534644349

> <r_i_glide_energy>
-44.487663269043

> <r_i_glide_einternal>
2.89660024642944

> <i_i_glide_confnum>
90

> <i_i_glide_posenum>
157

> <r_i_glide_eff_state_penalty>
0

> <s_user_duplicate_titles>
CHEMBL4338_lig185,454949

> <i_f3d_flags>
0

> <s_m_subgroup_title>
dock_pv

> <s_m_subgroupid>
dock_pv

> <b_m_subgroup_collapsed>
1

$$$$
CHEMBL4338_lig175
                    3D
 Schrodinger Suite 2021-1.
 37 38  0  0  1  0            999 V2000
   12.8479   14.3557   60.5834 C   0  0  0  0  0  0
   13.5052   14.0146   59.3061 N   0  0  1  0  0  0
   12.7588   15.9134   60.5613 C   0  0  0  0  0  0
   13.6811   13.9047   61.8350 C   0  0  0  0  0  0
   11.4184   13.7216   60.6248 C   0  0  0  0  0  0
   10.5541   14.1546   59.5829 O   0  0  0  0  0  0
   12.1542   16.5009   61.7007 O   0  0  0  0  0  0
   13.6170   12.5117   62.1060 O   0  0  0  0  0  0
   13.9978   12.6456   59.1864 C   0  0  0  0  0  0
   14.4704   12.3184   57.7931 C   0  0  0  0  0  0
   15.6528   12.2846   55.8578 N   0  0  0  0  0  0
   15.4159   12.9784   57.0164 C   0  0  0  0  0  0
   14.8278   11.1969   55.8508 C   0  0  0  0  0  0
   14.0709   11.2238   57.0209 C   0  0  0  0  0  0
   13.1056   10.3042   57.2942 N   0  0  0  0  0  0
   12.8472    9.4337   56.3864 C   0  0  0  0  0  0
   13.6384    9.3045   55.2732 N   0  0  0  0  0  0
   14.6850   10.0982   54.9059 C   0  0  0  0  0  0
   15.3540    9.8331   53.9205 O   0  0  0  0  0  0
   11.7199    8.6330   56.5060 N   0  0  0  0  0  0
   12.8330   14.1725   58.5615 H   0  0  0  0  0  0
   12.2111   16.2561   59.6850 H   0  0  0  0  0  0
   13.7541   16.3369   60.4388 H   0  0  0  0  0  0
   14.7340   14.1534   61.6943 H   0  0  0  0  0  0
   13.3697   14.4390   62.7300 H   0  0  0  0  0  0
   11.4717   12.6370   60.5285 H   0  0  0  0  0  0
   10.9540   13.9134   61.5916 H   0  0  0  0  0  0
    9.8889   14.7302   59.9974 H   0  0  0  0  0  0
   12.6585   16.2491   62.4797 H   0  0  0  0  0  0
   13.7548   12.3605   63.0511 H   0  0  0  0  0  0
   14.8408   12.5135   59.8647 H   0  0  0  0  0  0
   13.2381   11.9318   59.5046 H   0  0  0  0  0  0
   16.3179   12.5368   55.1403 H   0  0  0  0  0  0
   15.9664   13.8739   57.2283 H   0  0  0  0  0  0
   13.4502    8.5311   54.6497 H   0  0  0  0  0  0
   11.2452    8.5948   57.3929 H   0  0  0  0  0  0
   11.7080    7.7280   56.0197 H   0  0  0  0  0  0
  1  3  1  0  0  0
  1  2  1  0  0  0
  1  4  1  0  0  0
  1  5  1  0  0  0
  2  9  1  0  0  0
  2 21  1  0  0  0
  3  7  1  0  0  0
  3 22  1  0  0  0
  3 23  1  0  0  0
  4  8  1  0  0  0
  4 24  1  0  0  0
  4 25  1  0  0  0
  5  6  1  0  0  0
  5 26  1  0  0  0
  5 27  1  0  0  0
  6 28  1  0  0  0
  7 29  1  0  0  0
  8 30  1  0  0  0
  9 10  1  0  0  0
  9 31  1  0  0  0
  9 32  1  0  0  0
 10 14  1  0  0  0
 10 12  2  0  0  0
 11 13  1  0  0  0
 11 12  1  0  0  0
 11 33  1  0  0  0
 12 34  1  0  0  0
 13 14  2  0  0  0
 13 18  1  0  0  0
 14 15  1  0  0  0
 15 16  2  0  0  0
 16 17  1  0  0  0
 16 20  1  0  0  0
 17 18  1  0  0  0
 17 35  1  0  0  0
 18 19  2  0  0  0
 20 36  1  0  0  0
 20 37  1  0  0  0
M  END
> <s_m_entry_id>
11960

> <s_m_entry_name>
dock_pv.163

> <s_m_Source_Path>
/home/csk/Desktop/cluster/DUD-E-result/pnph

> <s_m_Source_File>
dock_pv.maegz

> <i_m_Source_File_Index>
163

> <chembl_id>
CHEMBL489690

> <chembl_pref_name>
None

> <i_lp_mmshare_version>
53161

> <r_lp_tautomer_probability>
1

> <s_lp_Force_Field>
OPLS_2005

> <r_lp_Energy>
49.931458

> <b_lp_Chiralities_Consistent>
1

> <s_lp_Variant>
CHEMBL4338_lig175-1

> <s_i_glide_gridfile>
glide-grid_3bgs

> <i_i_glide_lignum>
236

> <i_i_glide_rotatable_bonds>
9

> <r_i_docking_score>
-7.22849809748918

> <r_i_glide_ligand_efficiency>
-0.361424904874459

> <r_i_glide_ligand_efficiency_sa>
-0.981058127887708

> <r_i_glide_ligand_efficiency_ln>
-1.8090546619781

> <r_i_glide_gscore>
-7.22849809748918

> <r_i_glide_lipo>
-2.50417896818098

> <r_i_glide_hbond>
-1.55924796203647

> <r_i_glide_metal>
0

> <r_i_glide_rewards>
-1.69946766460289

> <r_i_glide_evdw>
-30.1274566650391

> <r_i_glide_ecoul>
-17.1130638122559

> <r_i_glide_erotb>
2.70772890242149

> <r_i_glide_esite>
-0.1

> <r_i_glide_emodel>
-59.6740113793431

> <r_i_glide_energy>
-47.2405204772949

> <r_i_glide_einternal>
8.6841402053833

> <i_i_glide_confnum>
13

> <i_i_glide_posenum>
33

> <r_i_glide_eff_state_penalty>
0

> <s_user_duplicate_titles>
CHEMBL4338_lig175

> <i_f3d_flags>
0

> <s_m_subgroup_title>
dock_pv

> <s_m_subgroupid>
dock_pv

> <b_m_subgroup_collapsed>
1

$$$$
CHEMBL4338_lig79
                    3D
 Schrodinger Suite 2021-1.
 33 35  0  0  1  0            999 V2000
   12.5539   12.2941   59.1515 N   0  0  1  0  0  0
   12.2098   13.3001   60.1414 C   0  0  1  0  0  0
   13.4316   14.2267   60.2177 C   0  0  1  0  0  0
   14.6173   13.2788   59.9553 C   0  0  2  0  0  0
   13.9906   12.0952   59.1705 C   0  0  2  0  0  0
   13.3540   15.3055   59.3060 O   0  0  0  0  0  0
   15.2247   12.8314   61.1584 O   0  0  0  0  0  0
   10.8648   14.0160   59.8812 C   0  0  0  0  0  0
   10.5540   14.2330   58.5060 O   0  0  0  0  0  0
   14.4444   11.8847   57.7303 C   0  0  0  0  0  0
   13.9703   10.8937   56.8397 C   0  0  0  0  0  0
   14.7603   10.9189   55.6927 C   0  0  0  0  0  0
   15.6199   11.9752   55.7929 N   0  0  0  0  0  0
   15.4189   12.5779   57.0060 C   0  0  0  0  0  0
   14.6497    9.8712   54.6839 C   0  0  0  0  0  0
   13.6173    9.0330   54.9949 N   0  0  0  0  0  0
   12.8078    9.0764   56.1060 C   0  0  0  0  0  0
   12.9755    9.9719   57.0188 N   0  0  0  0  0  0
   15.3540    9.6778   53.7060 O   0  0  0  0  0  0
   12.0339   11.4256   59.1561 H   0  0  0  0  0  0
   12.1369   12.7897   61.1042 H   0  0  0  0  0  0
   13.4933   14.6521   61.2215 H   0  0  0  0  0  0
   15.3812   13.7950   59.3754 H   0  0  0  0  0  0
   14.1978   11.1493   59.6761 H   0  0  0  0  0  0
   13.2551   14.9422   58.4159 H   0  0  0  0  0  0
   14.5408   12.5791   61.7849 H   0  0  0  0  0  0
   10.8811   14.9737   60.4013 H   0  0  0  0  0  0
   10.0617   13.4330   60.3217 H   0  0  0  0  0  0
   11.3170   14.6218   58.0593 H   0  0  0  0  0  0
   16.3172   12.2436   55.1141 H   0  0  0  0  0  0
   16.0340   13.4209   57.2782 H   0  0  0  0  0  0
   13.4902    8.2578   54.3563 H   0  0  0  0  0  0
   12.0334    8.3194   56.1936 H   0  0  0  0  0  0
  1  2  1  0  0  0
  1  5  1  0  0  0
  1 20  1  0  0  0
  2  3  1  0  0  0
  2  8  1  0  0  0
  2 21  1  0  0  0
  3  4  1  0  0  0
  3  6  1  0  0  0
  3 22  1  0  0  0
  4  5  1  0  0  0
  4  7  1  0  0  0
  4 23  1  0  0  0
  5 10  1  0  0  0
  5 24  1  0  0  0
  6 25  1  0  0  0
  7 26  1  0  0  0
  8  9  1  0  0  0
  8 27  1  0  0  0
  8 28  1  0  0  0
  9 29  1  0  0  0
 10 11  1  0  0  0
 10 14  2  0  0  0
 11 18  1  0  0  0
 11 12  2  0  0  0
 12 13  1  0  0  0
 12 15  1  0  0  0
 13 14  1  0  0  0
 13 30  1  0  0  0
 14 31  1  0  0  0
 15 16  1  0  0  0
 15 19  2  0  0  0
 16 17  1  0  0  0
 16 32  1  0  0  0
 17 18  2  0  0  0
 17 33  1  0  0  0
M  END
> <s_m_entry_id>
11961

> <s_m_entry_name>
dock_pv.164

> <s_m_Source_Path>
/home/csk/Desktop/cluster/DUD-E-result/pnph

> <s_m_Source_File>
dock_pv.maegz

> <i_m_Source_File_Index>
164

> <chembl_id>
CHEMBL549686

> <chembl_pref_name>
None

> <i_lp_mmshare_version>
53161

> <r_lp_tautomer_probability>
1

> <s_lp_Force_Field>
OPLS_2005

> <r_lp_Energy>
51.981943

> <b_lp_Chiralities_Consistent>
1

> <s_lp_Variant>
CHEMBL4338_lig79-1

> <s_i_glide_gridfile>
glide-grid_3bgs

> <i_i_glide_lignum>
98

> <i_i_glide_rotatable_bonds>
5

> <r_i_docking_score>
-7.1916196251517

> <r_i_glide_ligand_efficiency>
-0.378506296060616

> <r_i_glide_ligand_efficiency_sa>
-1.01000682346848

> <r_i_glide_ligand_efficiency_ln>
-1.82323003680272

> <r_i_glide_gscore>
-7.1916196251517

> <r_i_glide_lipo>
-2.3944671296825

> <r_i_glide_hbond>
-0.259511013521384

> <r_i_glide_metal>
0

> <r_i_glide_rewards>
-1.59372777272727

> <r_i_glide_evdw>
-30.4230537414551

> <r_i_glide_ecoul>
-12.3684864044189

> <r_i_glide_erotb>
0.502481002716467

> <r_i_glide_esite>
-0.0699690642014089

> <r_i_glide_emodel>
-58.3272993470623

> <r_i_glide_energy>
-42.791540145874

> <r_i_glide_einternal>
8.214035987854

> <i_i_glide_confnum>
8

> <i_i_glide_posenum>
300

> <r_i_glide_eff_state_penalty>
0

> <s_user_duplicate_titles>
CHEMBL4338_lig79,189181

> <i_f3d_flags>
0

> <s_m_subgroup_title>
dock_pv

> <s_m_subgroupid>
dock_pv

> <b_m_subgroup_collapsed>
1

$$$$
CHEMBL4338_lig125
                    3D
 Schrodinger Suite 2021-1.
 36 38  0  0  1  0            999 V2000
   13.8269   13.3736   59.2068 C   0  0  0  0  0  0
   14.1448   14.6581   59.9739 C   0  0  2  0  0  0
   13.7777   11.6580   57.6288 C   0  0  0  0  0  0
   15.5848   14.6516   60.2427 N   0  0  1  0  0  0
   14.3990   12.8942   57.9673 C   0  0  0  0  0  0
   12.8833   11.3811   58.6226 N   0  0  0  0  0  0
   13.4126   14.7963   61.3376 C   0  0  1  0  0  0
   12.9131   12.3880   59.5457 C   0  0  0  0  0  0
   14.4916   14.3780   62.3379 C   0  0  2  0  0  0
   15.7471   14.9495   61.6650 C   0  0  1  0  0  0
   14.1505   10.9929   56.4625 C   0  0  0  0  0  0
   15.1414   11.5063   55.6870 N   0  0  0  0  0  0
   15.3536   13.4116   57.1869 N   0  0  0  0  0  0
   15.6948   12.6688   56.1021 C   0  0  0  0  0  0
   12.9016   16.1000   61.5785 O   0  0  0  0  0  0
   14.5253   12.9685   62.5060 O   0  0  0  0  0  0
   13.5063    9.8204   56.1255 O   0  0  0  0  0  0
   17.1004   14.5211   62.2722 C   0  0  0  0  0  0
   18.1253   15.4238   61.8855 O   0  0  0  0  0  0
   13.8404    9.1786   54.8980 C   0  0  0  0  0  0
   13.8581   15.4762   59.3139 H   0  0  0  0  0  0
   15.8856   13.6966   60.1013 H   0  0  0  0  0  0
   12.5460   14.1430   61.4050 H   0  0  0  0  0  0
   12.2677   12.3134   60.4018 H   0  0  0  0  0  0
   14.3312   14.8558   63.3064 H   0  0  0  0  0  0
   15.6896   16.0316   61.7815 H   0  0  0  0  0  0
   12.2983   10.5620   58.7111 H   0  0  0  0  0  0
   16.5110   13.0267   55.5046 H   0  0  0  0  0  0
   12.5710   16.1210   62.4808 H   0  0  0  0  0  0
   14.1540   12.7263   63.3671 H   0  0  0  0  0  0
   17.3500   13.4938   62.0003 H   0  0  0  0  0  0
   17.0425   14.5429   63.3616 H   0  0  0  0  0  0
   17.9963   15.6203   60.9491 H   0  0  0  0  0  0
   13.2007    8.3082   54.7654 H   0  0  0  0  0  0
   13.6811    9.8363   54.0424 H   0  0  0  0  0  0
   14.8768    8.8386   54.8922 H   0  0  0  0  0  0
  1  5  1  0  0  0
  1  2  1  0  0  0
  1  8  2  0  0  0
  2  4  1  0  0  0
  2  7  1  0  0  0
  2 21  1  0  0  0
  3  6  1  0  0  0
  3  5  2  0  0  0
  3 11  1  0  0  0
  4 10  1  0  0  0
  4 22  1  0  0  0
  5 13  1  0  0  0
  6  8  1  0  0  0
  6 27  1  0  0  0
  7  9  1  0  0  0
  7 15  1  0  0  0
  7 23  1  0  0  0
  8 24  1  0  0  0
  9 10  1  0  0  0
  9 16  1  0  0  0
  9 25  1  0  0  0
 10 18  1  0  0  0
 10 26  1  0  0  0
 11 17  1  0  0  0
 11 12  2  0  0  0
 12 14  1  0  0  0
 13 14  2  0  0  0
 14 28  1  0  0  0
 15 29  1  0  0  0
 16 30  1  0  0  0
 17 20  1  0  0  0
 18 19  1  0  0  0
 18 31  1  0  0  0
 18 32  1  0  0  0
 19 33  1  0  0  0
 20 34  1  0  0  0
 20 35  1  0  0  0
 20 36  1  0  0  0
M  END
> <s_m_entry_id>
11962

> <s_m_entry_name>
dock_pv.165

> <s_m_Source_Path>
/home/csk/Desktop/cluster/DUD-E-result/pnph

> <s_m_Source_File>
dock_pv.maegz

> <i_m_Source_File_Index>
165

> <chembl_id>
CHEMBL544117

> <chembl_pref_name>
None

> <i_lp_mmshare_version>
53161

> <r_lp_tautomer_probability>
0.999994916353044

> <s_lp_Force_Field>
OPLS_2005

> <r_lp_Energy>
36.932802

> <b_lp_Chiralities_Consistent>
1

> <s_lp_Variant>
CHEMBL4338_lig125-2

> <s_i_glide_gridfile>
glide-grid_3bgs

> <i_i_glide_lignum>
159

> <i_i_glide_rotatable_bonds>
6

> <r_i_docking_score>
-7.17883542976598

> <r_i_glide_ligand_efficiency>
-0.358941771488299

> <r_i_glide_ligand_efficiency_sa>
-0.974317866886691

> <r_i_glide_ligand_efficiency_ln>
-1.79662573423139

> <r_i_glide_gscore>
-7.17883542976598

> <r_i_glide_lipo>
-1.87358357825242

> <r_i_glide_hbond>
-0.643258717168485

> <r_i_glide_metal>
0

> <r_i_glide_rewards>
-1.948092

> <r_i_glide_evdw>
-33.6319465637207

> <r_i_glide_ecoul>
-9.94687843322754

> <r_i_glide_erotb>
0.459727958825088

> <r_i_glide_esite>
0

> <r_i_glide_emodel>
-58.0778347648768

> <r_i_glide_energy>
-43.5788249969482

> <r_i_glide_einternal>
3.94936156272888

> <i_i_glide_confnum>
12

> <i_i_glide_posenum>
197

> <r_i_glide_eff_state_penalty>
0

> <s_user_duplicate_titles>
CHEMBL4338_lig125,546738

> <i_f3d_flags>
0

> <s_m_subgroup_title>
dock_pv

> <s_m_subgroupid>
dock_pv

> <b_m_subgroup_collapsed>
1

$$$$
CHEMBL4338_lig134
                    3D
 Schrodinger Suite 2021-1.
 36 38  0  0  1  0            999 V2000
   15.1303   13.5014   62.1675 C   0  0  0  0  0  0
   15.9677   13.2013   61.0532 C   0  0  0  0  0  0
   15.3942   12.1009   60.3313 C   0  0  0  0  0  0
   14.0722   12.6179   62.1059 N   0  0  0  0  0  0
   14.0845   10.6330   57.6031 N   0  0  1  0  0  0
   15.0245   11.7132   57.8570 C   0  0  2  0  0  0
   15.4933   14.5334   63.0439 C   0  0  0  0  0  0
   15.7435   12.0416   56.5309 C   0  0  1  0  0  0
   14.9755   11.2440   55.4651 C   0  0  2  0  0  0
   13.7156   10.7353   56.1949 C   0  0  1  0  0  0
   17.0854   13.8932   60.8128 N   0  0  0  0  0  0
   14.2288   11.7965   61.0151 C   0  0  0  0  0  0
   16.6332   15.2235   62.7874 N   0  0  0  0  0  0
   15.9384   11.4504   59.0741 C   0  0  0  0  0  0
   17.3558   14.8810   61.6961 C   0  0  0  0  0  0
   14.6714   14.7789   64.1052 O   0  0  0  0  0  0
   15.7232   13.4329   56.2785 O   0  0  0  0  0  0
   15.7533   10.2328   54.8558 O   0  0  0  0  0  0
   13.1321    9.4213   55.6225 C   0  0  0  0  0  0
   11.9512    9.0329   56.2868 O   0  0  0  0  0  0
   13.2978   12.5274   62.7521 H   0  0  0  0  0  0
   14.5206    9.7383   57.7769 H   0  0  0  0  0  0
   14.3899   12.5708   58.0959 H   0  0  0  0  0  0
   16.7778   11.6991   56.5641 H   0  0  0  0  0  0
   14.6643   11.9063   54.6633 H   0  0  0  0  0  0
   12.9556   11.5141   56.1228 H   0  0  0  0  0  0
   13.4928   11.0331   60.8086 H   0  0  0  0  0  0
   16.0839   10.3797   59.2264 H   0  0  0  0  0  0
   16.9399   11.8329   58.8782 H   0  0  0  0  0  0
   18.2540   15.4488   61.5068 H   0  0  0  0  0  0
   13.9010   14.2044   64.1054 H   0  0  0  0  0  0
   14.8122   13.7370   56.3213 H   0  0  0  0  0  0
   15.9493    9.5445   55.4943 H   0  0  0  0  0  0
   13.8534    8.6069   55.6949 H   0  0  0  0  0  0
   12.9214    9.5351   54.5591 H   0  0  0  0  0  0
   11.7539    8.1200   56.0166 H   0  0  0  0  0  0
  1  2  1  0  0  0
  1  4  1  0  0  0
  1  7  2  0  0  0
  2  3  1  0  0  0
  2 11  2  0  0  0
  3 12  2  0  0  0
  3 14  1  0  0  0
  4 12  1  0  0  0
  4 21  1  0  0  0
  5  6  1  0  0  0
  5 10  1  0  0  0
  5 22  1  0  0  0
  6  8  1  0  0  0
  6 14  1  0  0  0
  6 23  1  0  0  0
  7 13  1  0  0  0
  7 16  1  0  0  0
  8  9  1  0  0  0
  8 17  1  0  0  0
  8 24  1  0  0  0
  9 10  1  0  0  0
  9 18  1  0  0  0
  9 25  1  0  0  0
 10 19  1  0  0  0
 10 26  1  0  0  0
 11 15  1  0  0  0
 12 27  1  0  0  0
 13 15  2  0  0  0
 14 28  1  0  0  0
 14 29  1  0  0  0
 15 30  1  0  0  0
 16 31  1  0  0  0
 17 32  1  0  0  0
 18 33  1  0  0  0
 19 20  1  0  0  0
 19 34  1  0  0  0
 19 35  1  0  0  0
 20 36  1  0  0  0
M  END
> <s_m_entry_id>
11963

> <s_m_entry_name>
dock_pv.166

> <s_m_Source_Path>
/home/csk/Desktop/cluster/DUD-E-result/pnph

> <s_m_Source_File>
dock_pv.maegz

> <i_m_Source_File_Index>
166

> <chembl_id>
CHEMBL542704

> <chembl_pref_name>
None

> <i_lp_mmshare_version>
53161

> <r_lp_tautomer_probability>
1

> <s_lp_Force_Field>
OPLS_2005

> <r_lp_Energy>
32.4518

> <b_lp_Chiralities_Consistent>
1

> <s_lp_Variant>
CHEMBL4338_lig134-2

> <s_i_glide_gridfile>
glide-grid_3bgs

> <i_i_glide_lignum>
175

> <i_i_glide_rotatable_bonds>
7

> <r_i_docking_score>
-7.16761531824645

> <r_i_glide_ligand_efficiency>
-0.358380765912323

> <r_i_glide_ligand_efficiency_sa>
-0.972795063469773

> <r_i_glide_ligand_efficiency_ln>
-1.79381771038209

> <r_i_glide_gscore>
-7.16761531824645

> <r_i_glide_lipo>
-2.421870979364

> <r_i_glide_hbond>
-0.585537554071098

> <r_i_glide_metal>
0

> <r_i_glide_rewards>
-1.56506335962272

> <r_i_glide_evdw>
-30.1600780487061

> <r_i_glide_ecoul>
-11.8348531723022

> <r_i_glide_erotb>
0.689591938237633

> <r_i_glide_esite>
-0.00150348514562556

> <r_i_glide_emodel>
-58.2734205089699

> <r_i_glide_energy>
-41.9949312210083

> <r_i_glide_einternal>
4.56225347518921

> <i_i_glide_confnum>
54

> <i_i_glide_posenum>
266

> <r_i_glide_eff_state_penalty>
0

> <s_user_duplicate_titles>
CHEMBL4338_lig134,546790

> <i_f3d_flags>
0

> <s_m_subgroup_title>
dock_pv

> <s_m_subgroupid>
dock_pv

> <b_m_subgroup_collapsed>
1

$$$$
CHEMBL4338_lig138
                    3D
 Schrodinger Suite 2021-1.
 36 38  0  0  1  0            999 V2000
   14.1970   12.3035   58.1290 C   0  0  0  0  0  0
   14.6681   11.2386   56.1201 C   0  0  0  0  0  0
   13.8603   11.1969   57.2859 C   0  0  0  0  0  0
   13.5643   12.6462   59.4668 C   0  0  2  0  0  0
   13.1887   14.0481   59.5027 N   0  0  2  0  0  0
   15.5042   12.3248   56.2625 N   0  0  0  0  0  0
   15.2142   12.9520   57.4505 C   0  0  0  0  0  0
   14.4519   12.4561   60.7113 C   0  0  2  0  0  0
   14.4999   10.2475   55.1473 C   0  0  0  0  0  0
   13.6837   13.3124   61.7450 C   0  0  2  0  0  0
   12.8565   14.3248   60.8979 C   0  0  1  0  0  0
   12.9540   10.2383   57.4618 N   0  0  0  0  0  0
   13.5197    9.3370   55.2974 N   0  0  0  0  0  0
   12.7851    9.3857   56.4227 C   0  0  0  0  0  0
   15.3541   10.2324   54.1059 O   0  0  0  0  0  0
   15.7515   12.9949   60.4201 O   0  0  0  0  0  0
   14.4676   13.8328   62.8074 O   0  0  0  0  0  0
   13.0009   15.8197   61.2722 C   0  0  0  0  0  0
   12.1178   16.6309   60.5168 O   0  0  0  0  0  0
   16.8212   12.4542   61.1836 C   0  0  0  0  0  0
   12.6617   12.0366   59.5581 H   0  0  0  0  0  0
   12.4960   14.3177   58.8153 H   0  0  0  0  0  0
   16.2207   12.6460   55.6267 H   0  0  0  0  0  0
   15.7539   13.8332   57.7468 H   0  0  0  0  0  0
   14.5342   11.3982   60.9717 H   0  0  0  0  0  0
   12.9608   12.6410   62.2136 H   0  0  0  0  0  0
   11.8055   14.0622   61.0391 H   0  0  0  0  0  0
   12.0110    8.6341   56.5061 H   0  0  0  0  0  0
   15.1993    9.4456   53.5744 H   0  0  0  0  0  0
   14.2730   13.3080   63.5919 H   0  0  0  0  0  0
   14.0230   16.1689   61.1318 H   0  0  0  0  0  0
   12.7704   15.9578   62.3295 H   0  0  0  0  0  0
   11.2316   16.2670   60.6124 H   0  0  0  0  0  0
   17.7541   12.9281   60.8771 H   0  0  0  0  0  0
   16.6983   12.6332   62.2508 H   0  0  0  0  0  0
   16.9258   11.3808   61.0175 H   0  0  0  0  0  0
  1  3  1  0  0  0
  1  4  1  0  0  0
  1  7  2  0  0  0
  2  3  1  0  0  0
  2  9  2  0  0  0
  2  6  1  0  0  0
  3 12  2  0  0  0
  4  5  1  0  0  0
  4  8  1  0  0  0
  4 21  1  0  0  0
  5 11  1  0  0  0
  5 22  1  0  0  0
  6  7  1  0  0  0
  6 23  1  0  0  0
  7 24  1  0  0  0
  8 10  1  0  0  0
  8 16  1  0  0  0
  8 25  1  0  0  0
  9 15  1  0  0  0
  9 13  1  0  0  0
 10 17  1  0  0  0
 10 11  1  0  0  0
 10 26  1  0  0  0
 11 18  1  0  0  0
 11 27  1  0  0  0
 12 14  1  0  0  0
 13 14  2  0  0  0
 14 28  1  0  0  0
 15 29  1  0  0  0
 16 20  1  0  0  0
 17 30  1  0  0  0
 18 19  1  0  0  0
 18 31  1  0  0  0
 18 32  1  0  0  0
 19 33  1  0  0  0
 20 34  1  0  0  0
 20 35  1  0  0  0
 20 36  1  0  0  0
M  END
> <s_m_entry_id>
11964

> <s_m_entry_name>
dock_pv.167

> <s_m_Source_Path>
/home/csk/Desktop/cluster/DUD-E-result/pnph

> <s_m_Source_File>
dock_pv.maegz

> <i_m_Source_File_Index>
167

> <chembl_id>
CHEMBL325862

> <chembl_pref_name>
None

> <i_lp_mmshare_version>
53161

> <r_lp_tautomer_probability>
1

> <s_lp_Force_Field>
OPLS_2005

> <r_lp_Energy>
37.396351

> <b_lp_Chiralities_Consistent>
1

> <s_lp_Variant>
CHEMBL4338_lig138-1

> <s_i_glide_gridfile>
glide-grid_3bgs

> <i_i_glide_lignum>
181

> <i_i_glide_rotatable_bonds>
6

> <r_i_docking_score>
-7.14693099022798

> <r_i_glide_ligand_efficiency>
-0.357346549511399

> <r_i_glide_ligand_efficiency_sa>
-0.969987768254537

> <r_i_glide_ligand_efficiency_ln>
-1.78864110529386

> <r_i_glide_gscore>
-7.14693099022798

> <r_i_glide_lipo>
-2.44295233088409

> <r_i_glide_hbond>
-0.386795203044328

> <r_i_glide_metal>
0

> <r_i_glide_rewards>
-1.66181188967299

> <r_i_glide_evdw>
-33.7283706665039

> <r_i_glide_ecoul>
-9.52453994750977

> <r_i_glide_erotb>
0.459727958825088

> <r_i_glide_esite>
0

> <r_i_glide_emodel>
-57.6468369844589

> <r_i_glide_energy>
-43.2529106140137

> <r_i_glide_einternal>
3.85687017440796

> <i_i_glide_confnum>
10

> <i_i_glide_posenum>
391

> <r_i_glide_eff_state_penalty>
0

> <s_user_duplicate_titles>
CHEMBL4338_lig138,189250

> <i_f3d_flags>
0

> <s_m_subgroup_title>
dock_pv

> <s_m_subgroupid>
dock_pv

> <b_m_subgroup_collapsed>
1

$$$$
CHEMBL4338_lig193
                    3D
 Schrodinger Suite 2021-1.
 35 36  0  0  1  0            999 V2000
   15.5955    9.3817   54.1063 O   0  0  0  0  0  0
   14.2065    9.2544   54.3578 C   0  0  0  0  0  0
   13.8509    9.5591   55.8312 C   0  0  2  0  0  0
   12.5589    9.0330   56.1044 O   0  0  0  0  0  0
   13.8364   11.0748   56.2031 C   0  0  2  0  0  0
   14.9569   11.7938   55.7126 O   0  0  0  0  0  0
   13.7466   11.3623   57.7242 C   0  0  0  0  0  0
   14.9875   11.0214   58.4362 N   0  0  1  0  0  0
   14.9631   11.3350   59.8641 C   0  0  0  0  0  0
   14.8015   12.8182   60.1331 C   0  0  0  0  0  0
   15.7961   13.7931   60.2327 C   0  0  0  0  0  0
   15.2209   15.0271   60.4160 N   0  0  0  0  0  0
   13.8626   14.8667   60.4363 C   0  0  0  0  0  0
   12.7804   15.8418   60.5120 C   0  0  0  0  0  0
   12.8291   17.0664   60.5149 O   0  0  0  0  0  0
   11.5805   15.1884   60.5485 N   0  0  0  0  0  0
   11.3537   13.8332   60.4600 C   0  0  0  0  0  0
   12.3196   12.9988   60.3231 N   0  0  0  0  0  0
   13.5892   13.5028   60.3133 C   0  0  0  0  0  0
   15.7912    9.1164   53.2011 H   0  0  0  0  0  0
   13.6346    9.9093   53.7061 H   0  0  0  0  0  0
   13.9134    8.2393   54.0906 H   0  0  0  0  0  0
   14.5536    9.0331   56.4759 H   0  0  0  0  0  0
   12.4932    8.1237   55.7702 H   0  0  0  0  0  0
   12.9611   11.5204   55.7268 H   0  0  0  0  0  0
   15.6310   11.7314   56.3984 H   0  0  0  0  0  0
   13.5206   12.4223   57.8455 H   0  0  0  0  0  0
   12.9094   10.8094   58.1544 H   0  0  0  0  0  0
   15.1596   10.0295   58.3397 H   0  0  0  0  0  0
   14.1665   10.7627   60.3433 H   0  0  0  0  0  0
   15.8957   10.9788   60.3036 H   0  0  0  0  0  0
   16.8695   13.7072   60.1516 H   0  0  0  0  0  0
   15.7159   15.9090   60.4748 H   0  0  0  0  0  0
   10.7686   15.7823   60.6456 H   0  0  0  0  0  0
   10.3208   13.5004   60.5066 H   0  0  0  0  0  0
  1  2  1  0  0  0
  1 20  1  0  0  0
  2  3  1  0  0  0
  2 21  1  0  0  0
  2 22  1  0  0  0
  3  4  1  0  0  0
  3  5  1  0  0  0
  3 23  1  0  0  0
  4 24  1  0  0  0
  5  6  1  0  0  0
  5  7  1  0  0  0
  5 25  1  0  0  0
  6 26  1  0  0  0
  7  8  1  0  0  0
  7 27  1  0  0  0
  7 28  1  0  0  0
  8  9  1  0  0  0
  8 29  1  0  0  0
  9 10  1  0  0  0
  9 30  1  0  0  0
  9 31  1  0  0  0
 10 11  2  0  0  0
 10 19  1  0  0  0
 11 12  1  0  0  0
 11 32  1  0  0  0
 12 13  1  0  0  0
 12 33  1  0  0  0
 13 14  1  0  0  0
 13 19  2  0  0  0
 14 15  2  0  0  0
 14 16  1  0  0  0
 16 17  1  0  0  0
 16 34  1  0  0  0
 17 18  2  0  0  0
 17 35  1  0  0  0
 18 19  1  0  0  0
M  END
> <s_m_entry_id>
11965

> <s_m_entry_name>
dock_pv.168

> <s_m_Source_Path>
/home/csk/Desktop/cluster/DUD-E-result/pnph

> <s_m_Source_File>
dock_pv.maegz

> <i_m_Source_File_Index>
168

> <chembl_id>
CHEMBL523794

> <chembl_pref_name>
None

> <i_lp_mmshare_version>
53161

> <r_lp_tautomer_probability>
1

> <s_lp_Force_Field>
OPLS_2005

> <r_lp_Energy>
31.966555

> <b_lp_Chiralities_Consistent>
1

> <s_lp_Variant>
CHEMBL4338_lig193-1

> <s_i_glide_gridfile>
glide-grid_3bgs

> <i_i_glide_lignum>
257

> <i_i_glide_rotatable_bonds>
9

> <r_i_docking_score>
-7.13407097869428

> <r_i_glide_ligand_efficiency>
-0.375477419931278

> <r_i_glide_ligand_efficiency_sa>
-1.00192456541912

> <r_i_glide_ligand_efficiency_ln>
-1.80864021889417

> <r_i_glide_gscore>
-7.13407097869428

> <r_i_glide_lipo>
-2.13215581278682

> <r_i_glide_hbond>
-0.629760388389103

> <r_i_glide_metal>
0

> <r_i_glide_rewards>
-1.87132555795521

> <r_i_glide_evdw>
-39.0133743286133

> <r_i_glide_ecoul>
-11.9339914321899

> <r_i_glide_erotb>
1.239938211696

> <r_i_glide_esite>
0

> <r_i_glide_emodel>
-71.8551437073794

> <r_i_glide_energy>
-50.9473657608032

> <r_i_glide_einternal>
3.30496001243591

> <i_i_glide_confnum>
266

> <i_i_glide_posenum>
300

> <r_i_glide_eff_state_penalty>
0

> <s_user_duplicate_titles>
CHEMBL4338_lig193

> <i_f3d_flags>
0

> <s_m_subgroup_title>
dock_pv

> <s_m_subgroupid>
dock_pv

> <b_m_subgroup_collapsed>
1

$$$$
CHEMBL4338_lig90
                    3D
 Schrodinger Suite 2021-1.
 39 41  0  0  1  0            999 V2000
   16.1862   16.8395   64.1045 N   0  0  0  0  0  0
   17.3179   16.3025   63.5252 C   0  0  0  0  0  0
   17.2336   15.3261   62.6833 N   0  0  0  0  0  0
   14.8815   16.4713   63.9196 C   0  0  0  0  0  0
   14.8298   15.3751   62.9719 C   0  0  0  0  0  0
   15.9840   14.8427   62.3902 C   0  0  0  0  0  0
   15.5833   13.7989   61.5203 C   0  0  0  0  0  0
   14.1944   13.7296   61.6405 C   0  0  0  0  0  0
   13.7541   14.6874   62.5058 N   0  0  0  0  0  0
   16.4501   12.9244   60.6325 C   0  0  0  0  0  0
   15.6739   12.3403   59.4521 C   0  0  0  0  0  0
   15.2590   11.0073   59.4692 C   0  0  0  0  0  0
   14.5543   10.4831   58.3889 C   0  0  0  0  0  0
   14.2823   11.2773   57.2667 C   0  0  0  0  0  0
   14.6696   12.6211   57.2709 C   0  0  0  0  0  0
   15.3539   13.1500   58.3611 C   0  0  0  0  0  0
   13.9566   17.0329   64.5031 O   0  0  0  0  0  0
   18.5543   16.8716   63.8696 N   0  0  0  0  0  0
   13.5949   10.7133   56.0158 C   0  0  0  0  0  0
   12.8002    9.4108   56.2344 C   0  0  0  0  0  0
   14.5930   10.5389   54.8599 C   0  0  0  0  0  0
   16.2993   17.6014   64.7544 H   0  0  0  0  0  0
   13.4837   13.0604   61.1753 H   0  0  0  0  0  0
   12.7956   14.8150   62.8125 H   0  0  0  0  0  0
   16.9021   12.1212   61.2169 H   0  0  0  0  0  0
   17.2788   13.5158   60.2401 H   0  0  0  0  0  0
   15.4861   10.3711   60.3128 H   0  0  0  0  0  0
   14.2813    9.4366   58.4144 H   0  0  0  0  0  0
   14.4566   13.2550   56.4220 H   0  0  0  0  0  0
   15.6633   14.1856   58.3489 H   0  0  0  0  0  0
   19.4064   16.4023   63.6047 H   0  0  0  0  0  0
   18.6453   17.4281   64.7080 H   0  0  0  0  0  0
   12.8725   11.4678   55.7066 H   0  0  0  0  0  0
   12.1378    9.4848   57.0937 H   0  0  0  0  0  0
   13.4643    8.5602   56.3945 H   0  0  0  0  0  0
   12.1821    9.1760   55.3675 H   0  0  0  0  0  0
   15.0377   11.4907   54.5714 H   0  0  0  0  0  0
   15.3976    9.8530   55.1230 H   0  0  0  0  0  0
   14.0989   10.1284   53.9804 H   0  0  0  0  0  0
  1  2  1  0  0  0
  1  4  1  0  0  0
  1 22  1  0  0  0
  2  3  2  0  0  0
  2 18  1  0  0  0
  3  6  1  0  0  0
  4 17  2  0  0  0
  4  5  1  0  0  0
  5  6  2  0  0  0
  5  9  1  0  0  0
  6  7  1  0  0  0
  7 10  1  0  0  0
  7  8  2  0  0  0
  8  9  1  0  0  0
  8 23  1  0  0  0
  9 24  1  0  0  0
 10 11  1  0  0  0
 10 25  1  0  0  0
 10 26  1  0  0  0
 11 12  2  0  0  0
 11 16  1  0  0  0
 12 13  1  0  0  0
 12 27  1  0  0  0
 13 14  2  0  0  0
 13 28  1  0  0  0
 14 15  1  0  0  0
 14 19  1  0  0  0
 15 16  2  0  0  0
 15 29  1  0  0  0
 16 30  1  0  0  0
 18 31  1  0  0  0
 18 32  1  0  0  0
 19 20  1  0  0  0
 19 21  1  0  0  0
 19 33  1  0  0  0
 20 34  1  0  0  0
 20 35  1  0  0  0
 20 36  1  0  0  0
 21 37  1  0  0  0
 21 38  1  0  0  0
 21 39  1  0  0  0
M  END
> <s_m_entry_id>
11966

> <s_m_entry_name>
dock_pv.169

> <s_m_Source_Path>
/home/csk/Desktop/cluster/DUD-E-result/pnph

> <s_m_Source_File>
dock_pv.maegz

> <i_m_Source_File_Index>
169

> <chembl_id>
CHEMBL82551

> <chembl_pref_name>
None

> <i_lp_mmshare_version>
53161

> <r_lp_tautomer_probability>
1

> <s_lp_Force_Field>
OPLS_2005

> <r_lp_Energy>
17.272164

> <b_lp_Chiralities_Consistent>
1

> <s_lp_Variant>
CHEMBL4338_lig90-1

> <s_i_glide_gridfile>
glide-grid_3bgs

> <i_i_glide_lignum>
109

> <i_i_glide_rotatable_bonds>
3

> <r_i_docking_score>
-7.13372306564341

> <r_i_glide_ligand_efficiency>
-0.339701098363972

> <r_i_glide_ligand_efficiency_sa>
-0.937209572068465

> <r_i_glide_ligand_efficiency_ln>
-1.76379861293558

> <r_i_glide_gscore>
-7.13372306564341

> <r_i_glide_lipo>
-3.05988342285402

> <r_i_glide_hbond>
-0.258056424103668

> <r_i_glide_metal>
0

> <r_i_glide_rewards>
-1.70632173176365

> <r_i_glide_evdw>
-33.9697952270508

> <r_i_glide_ecoul>
-5.48836326599121

> <r_i_glide_erotb>
0.453913477725639

> <r_i_glide_esite>
-0.04163071339649

> <r_i_glide_emodel>
-55.2512310696732

> <r_i_glide_energy>
-39.458158493042

> <r_i_glide_einternal>
0.845949351787567

> <i_i_glide_confnum>
6

> <i_i_glide_posenum>
235

> <r_i_glide_eff_state_penalty>
0

> <s_user_duplicate_titles>
CHEMBL4338_lig90,128832

> <i_f3d_flags>
0

> <s_m_subgroup_title>
dock_pv

> <s_m_subgroupid>
dock_pv

> <b_m_subgroup_collapsed>
1

$$$$
CHEMBL4338_lig15
                    3D
 Schrodinger Suite 2021-1.
 29 31  0  0  1  0            999 V2000
   14.5289   13.0386   60.7581 C   0  0  0  0  0  0
   14.2097   12.8995   59.3853 C   0  0  0  0  0  0
   15.3429   12.3231   58.7133 C   0  0  0  0  0  0
   15.7742   12.4820   60.9299 N   0  0  0  0  0  0
   16.2490   12.0333   59.7286 C   0  0  0  0  0  0
   13.6166   13.6503   61.6164 C   0  0  0  0  0  0
   12.4097   14.0253   61.1187 N   0  0  0  0  0  0
   13.0300   13.3004   58.9058 N   0  0  0  0  0  0
   12.1781   13.8284   59.8056 C   0  0  0  0  0  0
   15.5076   12.1122   57.2139 C   0  0  0  0  0  0
   14.5582   11.1077   56.5785 C   0  0  0  0  0  0
   12.6530    9.3797   56.1061 S   0  0  0  0  0  0
   14.0158   13.8348   62.9043 O   0  0  0  0  0  0
   13.4532   10.4938   57.1609 C   0  0  0  0  0  0
   17.4678   11.4337   59.7057 N   0  0  0  0  0  0
   13.8093    9.6817   54.8731 C   0  0  0  0  0  0
   14.7281   10.6353   55.2691 C   0  0  0  0  0  0
   10.9546   14.2302   59.3063 N   0  0  0  0  0  0
   16.2956   12.3809   61.7879 H   0  0  0  0  0  0
   16.5350   11.8110   57.0025 H   0  0  0  0  0  0
   15.4008   13.0700   56.7033 H   0  0  0  0  0  0
   13.2339   14.0663   63.4248 H   0  0  0  0  0  0
   13.0726   10.6342   58.1605 H   0  0  0  0  0  0
   17.8534   11.0904   58.8398 H   0  0  0  0  0  0
   17.9446   11.1672   60.5554 H   0  0  0  0  0  0
   13.7532    9.1502   53.9338 H   0  0  0  0  0  0
   15.5287   10.9619   54.6301 H   0  0  0  0  0  0
   10.9976   14.4459   58.3214 H   0  0  0  0  0  0
   10.3744   14.7623   59.9463 H   0  0  0  0  0  0
  1  2  2  0  0  0
  1  4  1  0  0  0
  1  6  1  0  0  0
  2  3  1  0  0  0
  2  8  1  0  0  0
  3  5  2  0  0  0
  3 10  1  0  0  0
  4  5  1  0  0  0
  4 19  1  0  0  0
  5 15  1  0  0  0
  6  7  2  0  0  0
  6 13  1  0  0  0
  7  9  1  0  0  0
  8  9  2  0  0  0
  9 18  1  0  0  0
 10 11  1  0  0  0
 10 20  1  0  0  0
 10 21  1  0  0  0
 11 14  2  0  0  0
 11 17  1  0  0  0
 12 14  1  0  0  0
 12 16  1  0  0  0
 13 22  1  0  0  0
 14 23  1  0  0  0
 15 24  1  0  0  0
 15 25  1  0  0  0
 16 17  2  0  0  0
 16 26  1  0  0  0
 17 27  1  0  0  0
 18 28  1  0  0  0
 18 29  1  0  0  0
M  END
> <s_m_entry_id>
11967

> <s_m_entry_name>
dock_pv.170

> <s_m_Source_Path>
/home/csk/Desktop/cluster/DUD-E-result/pnph

> <s_m_Source_File>
dock_pv.maegz

> <i_m_Source_File_Index>
170

> <chembl_id>
CHEMBL554876

> <chembl_pref_name>
None

> <i_lp_mmshare_version>
53161

> <r_lp_tautomer_probability>
1

> <s_lp_Force_Field>
OPLS_2005

> <r_lp_Energy>
-3.599488

> <b_lp_Chiralities_Consistent>
1

> <s_lp_Variant>
CHEMBL4338_lig15-1

> <s_i_glide_gridfile>
glide-grid_3bgs

> <i_i_glide_lignum>
15

> <i_i_glide_rotatable_bonds>
3

> <r_i_docking_score>
-7.13327409606563

> <r_i_glide_ligand_efficiency>
-0.39629300533698

> <r_i_glide_ligand_efficiency_sa>
-1.03858148232144

> <r_i_glide_ligand_efficiency_ln>
-1.8335713242796

> <r_i_glide_gscore>
-7.13327409606563

> <r_i_glide_lipo>
-2.1976911272399

> <r_i_glide_hbond>
-0.663096648320097

> <r_i_glide_metal>
0

> <r_i_glide_rewards>
-2.2328293921475

> <r_i_glide_evdw>
-33.3616676330566

> <r_i_glide_ecoul>
-5.77284097671509

> <r_i_glide_erotb>
0.519012029979729

> <r_i_glide_esite>
-0.024659430177774

> <r_i_glide_emodel>
-53.4812275088884

> <r_i_glide_energy>
-39.1345086097717

> <r_i_glide_einternal>
2.38178110122681

> <i_i_glide_confnum>
4

> <i_i_glide_posenum>
321

> <r_i_glide_eff_state_penalty>
0

> <s_user_duplicate_titles>
CHEMBL4338_lig15,CHEMBL4338_lig215,544489

> <i_f3d_flags>
0

> <s_m_subgroup_title>
dock_pv

> <s_m_subgroupid>
dock_pv

> <b_m_subgroup_collapsed>
1

$$$$
CHEMBL4338_lig155
                    3D
 Schrodinger Suite 2021-1.
 37 39  0  0  1  0            999 V2000
   13.8593   14.6482   61.2032 C   0  0  0  0  0  0
   14.8956   12.7150   60.3896 C   0  0  0  0  0  0
   13.7190   13.5473   60.3016 C   0  0  0  0  0  0
   11.7446   15.4402   60.5061 N   0  0  0  0  0  0
   15.0823   14.4863   61.8197 N   0  0  0  0  0  0
   12.8286   15.5973   61.2977 C   0  0  0  0  0  0
   11.6854   14.3620   59.7029 C   0  0  0  0  0  0
   14.9506   11.2497   58.2704 N   0  0  1  0  0  0
   12.6225   13.4142   59.5542 N   0  0  0  0  0  0
   15.6840   13.3485   61.3394 C   0  0  0  0  0  0
   13.5231   11.0313   56.3490 C   0  0  1  0  0  0
   15.2315   11.3900   59.7041 C   0  0  0  0  0  0
   13.6073   10.8492   57.8784 C   0  0  0  0  0  0
   14.7744   11.8761   55.9986 C   0  0  1  0  0  0
   15.2980   12.3308   57.3661 C   0  0  0  0  0  0
   10.5659   14.2331   58.9065 N   0  0  0  0  0  0
   12.9726   16.6337   62.1757 O   0  0  0  0  0  0
   15.7540   11.1379   55.3060 O   0  0  0  0  0  0
   13.3650    9.6703   55.6225 C   0  0  0  0  0  0
   12.1752    9.0331   56.0467 O   0  0  0  0  0  0
   15.5124   15.0648   62.5276 H   0  0  0  0  0  0
   16.6488   13.0570   61.7317 H   0  0  0  0  0  0
   12.6647   11.6550   56.1056 H   0  0  0  0  0  0
   14.7594   10.5606   60.2331 H   0  0  0  0  0  0
   16.2999   11.2012   59.8194 H   0  0  0  0  0  0
   12.8485   11.4236   58.3874 H   0  0  0  0  0  0
   13.4541    9.8330   58.2241 H   0  0  0  0  0  0
   14.5205   12.7536   55.4057 H   0  0  0  0  0  0
   16.3601   12.5703   57.3746 H   0  0  0  0  0  0
   14.8192   13.2520   57.7024 H   0  0  0  0  0  0
   10.8157   13.9238   57.9795 H   0  0  0  0  0  0
    9.9610   15.0318   59.0394 H   0  0  0  0  0  0
   13.7571   16.5435   62.7168 H   0  0  0  0  0  0
   15.9952   10.3896   55.8601 H   0  0  0  0  0  0
   14.2032    9.0074   55.8415 H   0  0  0  0  0  0
   13.3334    9.8048   54.5402 H   0  0  0  0  0  0
   12.1538    8.1202   55.7058 H   0  0  0  0  0  0
  1  3  2  0  0  0
  1  5  1  0  0  0
  1  6  1  0  0  0
  2  3  1  0  0  0
  2 12  1  0  0  0
  2 10  2  0  0  0
  3  9  1  0  0  0
  4  6  2  0  0  0
  4  7  1  0  0  0
  5 10  1  0  0  0
  5 21  1  0  0  0
  6 17  1  0  0  0
  7 16  1  0  0  0
  7  9  2  0  0  0
  8 12  1  0  0  0
  8 13  1  0  0  0
  8 15  1  0  0  0
 10 22  1  0  0  0
 11 13  1  0  0  0
 11 19  1  0  0  0
 11 14  1  0  0  0
 11 23  1  0  0  0
 12 24  1  0  0  0
 12 25  1  0  0  0
 13 26  1  0  0  0
 13 27  1  0  0  0
 14 15  1  0  0  0
 14 18  1  0  0  0
 14 28  1  0  0  0
 15 29  1  0  0  0
 15 30  1  0  0  0
 16 31  1  0  0  0
 16 32  1  0  0  0
 17 33  1  0  0  0
 18 34  1  0  0  0
 19 20  1  0  0  0
 19 35  1  0  0  0
 19 36  1  0  0  0
 20 37  1  0  0  0
M  END
> <s_m_entry_id>
11969

> <s_m_entry_name>
dock_pv.172

> <s_m_Source_Path>
/home/csk/Desktop/cluster/DUD-E-result/pnph

> <s_m_Source_File>
dock_pv.maegz

> <i_m_Source_File_Index>
172

> <chembl_id>
CHEMBL435085

> <chembl_pref_name>
None

> <i_lp_mmshare_version>
53161

> <r_lp_tautomer_probability>
1

> <s_lp_Force_Field>
OPLS_2005

> <r_lp_Energy>
37.333226

> <b_lp_Chiralities_Consistent>
1

> <s_lp_Variant>
CHEMBL4338_lig155-2

> <s_i_glide_gridfile>
glide-grid_3bgs

> <i_i_glide_lignum>
210

> <i_i_glide_rotatable_bonds>
6

> <r_i_docking_score>
-7.1320073089076

> <r_i_glide_ligand_efficiency>
-0.35660036544538

> <r_i_glide_ligand_efficiency_sa>
-0.967962313082536

> <r_i_glide_ligand_efficiency_ln>
-1.78490620007533

> <r_i_glide_gscore>
-7.1320073089076

> <r_i_glide_lipo>
-2.3731255154618

> <r_i_glide_hbond>
-0.507727801491312

> <r_i_glide_metal>
0

> <r_i_glide_rewards>
-1.99934970245887

> <r_i_glide_evdw>
-37.0498161315918

> <r_i_glide_ecoul>
-6.73985910415649

> <r_i_glide_erotb>
0.69382004762038

> <r_i_glide_esite>
-0.082154664912926

> <r_i_glide_emodel>
-60.1664207738199

> <r_i_glide_energy>
-43.7896752357483

> <r_i_glide_einternal>
1.59985673427582

> <i_i_glide_confnum>
23

> <i_i_glide_posenum>
238

> <r_i_glide_eff_state_penalty>
0

> <s_user_duplicate_titles>
CHEMBL4338_lig155,249411

> <i_f3d_flags>
0

> <s_m_subgroup_title>
dock_pv

> <s_m_subgroupid>
dock_pv

> <b_m_subgroup_collapsed>
1

$$$$
CHEMBL4338_lig4
                    3D
 Schrodinger Suite 2021-1.
 28 30  0  0  1  0            999 V2000
   15.0302   12.3184   58.7642 N   0  0  0  0  0  0
   13.8413   12.7853   59.2429 C   0  0  0  0  0  0
   13.7166   13.1362   60.5950 C   0  0  0  0  0  0
   16.0278   12.0682   59.6613 C   0  0  0  0  0  0
   15.9522   12.3956   60.9708 N   0  0  0  0  0  0
   12.6594   13.0331   58.6276 N   0  0  0  0  0  0
   14.8178   12.9680   61.4541 C   0  0  0  0  0  0
   12.4725   13.6544   60.7811 N   0  0  0  0  0  0
   11.9601   13.5970   59.5790 C   0  0  0  0  0  0
   15.2415   12.2380   57.2863 C   0  0  0  0  0  0
   14.5351   11.0887   56.6059 C   0  0  0  0  0  0
   14.6736   13.4330   62.7305 O   0  0  0  0  0  0
   14.9548   10.7991   55.3446 O   0  0  0  0  0  0
   17.2098   11.4330   59.3080 N   0  0  0  0  0  0
   13.4968   10.2378   56.9499 C   0  0  0  0  0  0
   14.2001    9.7638   54.8974 C   0  0  0  0  0  0
   10.7615   14.1458   59.3057 N   0  0  0  0  0  0
   13.2720    9.4077   55.8551 C   0  0  0  0  0  0
   16.3126   12.2289   57.0885 H   0  0  0  0  0  0
   14.8836   13.1909   56.8907 H   0  0  0  0  0  0
   13.7645   13.7094   62.8856 H   0  0  0  0  0  0
   17.7754   11.1395   60.0897 H   0  0  0  0  0  0
   17.2635   10.9728   58.4140 H   0  0  0  0  0  0
   12.9543   10.2410   57.8823 H   0  0  0  0  0  0
   14.4179    9.3952   53.9056 H   0  0  0  0  0  0
   10.2544   14.6150   60.0479 H   0  0  0  0  0  0
   10.6443   14.4971   58.3699 H   0  0  0  0  0  0
   12.5261    8.6331   55.7691 H   0  0  0  0  0  0
  1  2  1  0  0  0
  1  4  1  0  0  0
  1 10  1  0  0  0
  2  3  1  0  0  0
  2  6  2  0  0  0
  3  8  1  0  0  0
  3  7  2  0  0  0
  4  5  2  0  0  0
  4 14  1  0  0  0
  5  7  1  0  0  0
  6  9  1  0  0  0
  7 12  1  0  0  0
  8  9  2  0  0  0
  9 17  1  0  0  0
 10 11  1  0  0  0
 10 19  1  0  0  0
 10 20  1  0  0  0
 11 13  1  0  0  0
 11 15  2  0  0  0
 12 21  1  0  0  0
 13 16  1  0  0  0
 14 22  1  0  0  0
 14 23  1  0  0  0
 15 18  1  0  0  0
 15 24  1  0  0  0
 16 18  2  0  0  0
 16 25  1  0  0  0
 17 26  1  0  0  0
 17 27  1  0  0  0
 18 28  1  0  0  0
M  END
> <s_m_entry_id>
11970

> <s_m_entry_name>
dock_pv.173

> <s_m_Source_Path>
/home/csk/Desktop/cluster/DUD-E-result/pnph

> <s_m_Source_File>
dock_pv.maegz

> <i_m_Source_File_Index>
173

> <chembl_id>
CHEMBL32496

> <chembl_pref_name>
None

> <i_lp_mmshare_version>
53161

> <r_lp_tautomer_probability>
1

> <s_lp_Force_Field>
OPLS_2005

> <r_lp_Energy>
13.949837

> <b_lp_Chiralities_Consistent>
1

> <s_lp_Variant>
CHEMBL4338_lig4-1

> <s_i_glide_gridfile>
glide-grid_3bgs

> <i_i_glide_lignum>
4

> <i_i_glide_rotatable_bonds>
3

> <r_i_docking_score>
-7.12463314965666

> <r_i_glide_ligand_efficiency>
-0.395812952758704

> <r_i_glide_ligand_efficiency_sa>
-1.03732338865937

> <r_i_glide_ligand_efficiency_ln>
-1.83135021356147

> <r_i_glide_gscore>
-7.12463314965666

> <r_i_glide_lipo>
-1.59646034329988

> <r_i_glide_hbond>
-0.367402158085727

> <r_i_glide_metal>
0

> <r_i_glide_rewards>
-3.10250530323752

> <r_i_glide_evdw>
-37.0675010681152

> <r_i_glide_ecoul>
-4.88942241668701

> <r_i_glide_erotb>
0.574783513385412

> <r_i_glide_esite>
-0.0462604425101288

> <r_i_glide_emodel>
-57.6989888945377

> <r_i_glide_energy>
-41.9569234848022

> <r_i_glide_einternal>
1.74874746799469

> <i_i_glide_confnum>
5

> <i_i_glide_posenum>
284

> <r_i_glide_eff_state_penalty>
0

> <s_user_duplicate_titles>
CHEMBL4338_lig4

> <i_f3d_flags>
0

> <s_m_subgroup_title>
dock_pv

> <s_m_subgroupid>
dock_pv

> <b_m_subgroup_collapsed>
1

$$$$
CHEMBL4338_lig55
                    3D
 Schrodinger Suite 2021-1.
 39 41  0  0  1  0            999 V2000
   14.0508   11.3043   56.8061 C   0  0  0  0  0  0
   14.9476   11.0237   55.7398 C   0  0  0  0  0  0
   14.4244   12.5607   57.3972 C   0  0  0  0  0  0
   13.6947    9.0757   55.2602 N   0  0  0  0  0  0
   14.7682    9.8491   54.9975 C   0  0  0  0  0  0
   13.0510   10.4752   57.1119 N   0  0  0  0  0  0
   15.8811   12.0363   55.7393 N   0  0  0  0  0  0
   12.8900    9.4317   56.2770 C   0  0  0  0  0  0
   15.5473   12.9556   56.6974 C   0  0  0  0  0  0
   13.7308   13.3245   58.5055 C   0  0  2  0  0  0
   14.4383   13.1777   59.8496 C   0  0  0  0  0  0
   11.3369   14.0831   59.2649 C   0  0  0  0  0  0
   12.2002   13.0539   58.5302 C   0  0  0  0  0  0
   15.7312    9.5084   54.1060 O   0  0  0  0  0  0
   15.4979   14.0336   60.1845 C   0  0  0  0  0  0
   11.7872    8.6331   56.5060 N   0  0  0  0  0  0
   10.1665   14.2336   58.9062 O   0  0  0  0  0  0
   16.0555   13.9921   61.4624 C   0  0  0  0  0  0
   11.9949   14.7604   60.2326 O   0  0  0  0  0  0
   17.3550   15.0330   61.8956 Cl  0  0  0  0  0  0
   13.9872   12.2478   60.7906 C   0  0  0  0  0  0
   14.5295   12.2330   62.0669 C   0  0  0  0  0  0
   15.5538   13.1083   62.4091 C   0  0  0  0  0  0
   11.3549   15.7046   61.0695 C   0  0  0  0  0  0
   16.7030   12.1363   55.1599 H   0  0  0  0  0  0
   16.1540   13.8365   56.8214 H   0  0  0  0  0  0
   13.8340   14.3766   58.2508 H   0  0  0  0  0  0
   11.8397   13.0330   57.5016 H   0  0  0  0  0  0
   11.9847   12.0670   58.9340 H   0  0  0  0  0  0
   15.5132    8.6634   53.7038 H   0  0  0  0  0  0
   15.8746   14.7469   59.4674 H   0  0  0  0  0  0
   11.2096    8.8149   57.3060 H   0  0  0  0  0  0
   11.7540    7.7230   56.0148 H   0  0  0  0  0  0
   13.1950   11.5529   60.5600 H   0  0  0  0  0  0
   14.1541   11.5237   62.7837 H   0  0  0  0  0  0
   15.9709   13.0872   63.4035 H   0  0  0  0  0  0
   12.1095   16.2709   61.6147 H   0  0  0  0  0  0
   10.7493   16.4132   60.5054 H   0  0  0  0  0  0
   10.7306   15.1992   61.8050 H   0  0  0  0  0  0
  1  2  1  0  0  0
  1  3  1  0  0  0
  1  6  2  0  0  0
  2  5  2  0  0  0
  2  7  1  0  0  0
  3  9  2  0  0  0
  3 10  1  0  0  0
  4  8  2  0  0  0
  4  5  1  0  0  0
  5 14  1  0  0  0
  6  8  1  0  0  0
  7  9  1  0  0  0
  7 25  1  0  0  0
  8 16  1  0  0  0
  9 26  1  0  0  0
 10 11  1  0  0  0
 10 13  1  0  0  0
 10 27  1  0  0  0
 11 15  1  0  0  0
 11 21  2  0  0  0
 12 13  1  0  0  0
 12 17  2  0  0  0
 12 19  1  0  0  0
 13 28  1  0  0  0
 13 29  1  0  0  0
 14 30  1  0  0  0
 15 18  2  0  0  0
 15 31  1  0  0  0
 16 32  1  0  0  0
 16 33  1  0  0  0
 18 20  1  0  0  0
 18 23  1  0  0  0
 19 24  1  0  0  0
 21 22  1  0  0  0
 21 34  1  0  0  0
 22 23  2  0  0  0
 22 35  1  0  0  0
 23 36  1  0  0  0
 24 37  1  0  0  0
 24 38  1  0  0  0
 24 39  1  0  0  0
M  END
> <s_m_entry_id>
11971

> <s_m_entry_name>
dock_pv.174

> <s_m_Source_Path>
/home/csk/Desktop/cluster/DUD-E-result/pnph

> <s_m_Source_File>
dock_pv.maegz

> <i_m_Source_File_Index>
174

> <chembl_id>
CHEMBL124882

> <chembl_pref_name>
None

> <i_lp_mmshare_version>
53161

> <r_lp_tautomer_probability>
1

> <s_lp_Force_Field>
OPLS_2005

> <r_lp_Energy>
7.068155

> <b_lp_Chiralities_Consistent>
1

> <s_lp_Variant>
CHEMBL4338_lig55-1

> <s_i_glide_gridfile>
glide-grid_3bgs

> <i_i_glide_lignum>
67

> <i_i_glide_rotatable_bonds>
6

> <r_i_docking_score>
-7.11993282160771

> <r_i_glide_ligand_efficiency>
-0.296663867566988

> <r_i_glide_ligand_efficiency_sa>
-0.855726670141929

> <r_i_glide_ligand_efficiency_ln>
-1.70412663663904

> <r_i_glide_gscore>
-7.11993282160771

> <r_i_glide_lipo>
-2.69234539399085

> <r_i_glide_hbond>
-0.781160064952652

> <r_i_glide_metal>
0

> <r_i_glide_rewards>
-1.36105256671922

> <r_i_glide_evdw>
-32.5025482177734

> <r_i_glide_ecoul>
-7.85706949234009

> <r_i_glide_erotb>
0.632564773447193

> <r_i_glide_esite>
-0.114251734652492

> <r_i_glide_emodel>
-57.3886946423419

> <r_i_glide_energy>
-40.3596177101135

> <r_i_glide_einternal>
4.39755201339722

> <i_i_glide_confnum>
26

> <i_i_glide_posenum>
368

> <r_i_glide_eff_state_penalty>
0

> <s_user_duplicate_titles>
CHEMBL4338_lig55,204314

> <i_f3d_flags>
0

> <s_m_subgroup_title>
dock_pv

> <s_m_subgroupid>
dock_pv

> <b_m_subgroup_collapsed>
1

$$$$
CHEMBL4338_lig184
                    3D
 Schrodinger Suite 2021-1.
 37 38  0  0  1  0            999 V2000
   15.5755    9.2954   59.6903 C   0  0  0  0  0  0
   15.2250   10.6920   59.4428 N   0  0  1  0  0  0
   13.9944   10.7758   58.6396 C   0  0  0  0  0  0
   14.2832   10.7572   57.1117 C   0  0  0  0  0  0
   13.8864   12.0726   56.4159 C   0  0  0  0  0  0
   14.5539   13.1692   57.0071 O   0  0  0  0  0  0
   13.7177    9.4868   56.4324 C   0  0  0  0  0  0
   13.9582    9.4320   55.0404 O   0  0  0  0  0  0
   15.1165   11.3360   60.7547 C   0  0  0  0  0  0
   14.9373   12.8300   60.6641 C   0  0  0  0  0  0
   15.9261   13.7972   60.5005 C   0  0  0  0  0  0
   15.3406   15.0329   60.4080 N   0  0  0  0  0  0
   13.9842   14.8765   60.5026 C   0  0  0  0  0  0
   12.8993   15.8385   60.3736 C   0  0  0  0  0  0
   12.9531   17.0331   60.1064 O   0  0  0  0  0  0
   11.7007   15.2050   60.5582 N   0  0  0  0  0  0
   11.4776   13.8640   60.7907 C   0  0  0  0  0  0
   12.4536   13.0328   60.8755 N   0  0  0  0  0  0
   13.7197   13.5247   60.7160 C   0  0  0  0  0  0
   15.4169    8.6736   58.8135 H   0  0  0  0  0  0
   16.6222    9.2107   59.9871 H   0  0  0  0  0  0
   14.9541    8.8678   60.4761 H   0  0  0  0  0  0
   13.4330   11.6774   58.8687 H   0  0  0  0  0  0
   13.3106    9.9735   58.9059 H   0  0  0  0  0  0
   15.3538   10.7230   56.9753 H   0  0  0  0  0  0
   12.8137   12.2337   56.5058 H   0  0  0  0  0  0
   14.1025   12.0443   55.3488 H   0  0  0  0  0  0
   13.9878   13.9417   56.9087 H   0  0  0  0  0  0
   14.1539    8.6027   56.8905 H   0  0  0  0  0  0
   12.6391    9.4241   56.5837 H   0  0  0  0  0  0
   13.6550    8.5767   54.7123 H   0  0  0  0  0  0
   14.3021   10.8877   61.3270 H   0  0  0  0  0  0
   16.0351   11.1401   61.3059 H   0  0  0  0  0  0
   16.9965   13.6965   60.4093 H   0  0  0  0  0  0
   15.8286   15.9072   60.2456 H   0  0  0  0  0  0
   10.8858   15.8010   60.5058 H   0  0  0  0  0  0
   10.4489   13.5354   60.9063 H   0  0  0  0  0  0
  1  2  1  0  0  0
  1 20  1  0  0  0
  1 21  1  0  0  0
  1 22  1  0  0  0
  2  3  1  0  0  0
  2  9  1  0  0  0
  3  4  1  0  0  0
  3 23  1  0  0  0
  3 24  1  0  0  0
  4  5  1  0  0  0
  4  7  1  0  0  0
  4 25  1  0  0  0
  5  6  1  0  0  0
  5 26  1  0  0  0
  5 27  1  0  0  0
  6 28  1  0  0  0
  7  8  1  0  0  0
  7 29  1  0  0  0
  7 30  1  0  0  0
  8 31  1  0  0  0
  9 10  1  0  0  0
  9 32  1  0  0  0
  9 33  1  0  0  0
 10 11  2  0  0  0
 10 19  1  0  0  0
 11 12  1  0  0  0
 11 34  1  0  0  0
 12 13  1  0  0  0
 12 35  1  0  0  0
 13 14  1  0  0  0
 13 19  2  0  0  0
 14 15  2  0  0  0
 14 16  1  0  0  0
 16 17  1  0  0  0
 16 36  1  0  0  0
 17 18  2  0  0  0
 17 37  1  0  0  0
 18 19  1  0  0  0
M  END
> <s_m_entry_id>
11972

> <s_m_entry_name>
dock_pv.175

> <s_m_Source_Path>
/home/csk/Desktop/cluster/DUD-E-result/pnph

> <s_m_Source_File>
dock_pv.maegz

> <i_m_Source_File_Index>
175

> <chembl_id>
CHEMBL490282

> <chembl_pref_name>
None

> <i_lp_mmshare_version>
53161

> <r_lp_tautomer_probability>
1

> <s_lp_Force_Field>
OPLS_2005

> <r_lp_Energy>
32.268584

> <b_lp_Chiralities_Consistent>
1

> <s_lp_Variant>
CHEMBL4338_lig184-1

> <s_i_glide_gridfile>
glide-grid_3bgs

> <i_i_glide_lignum>
248

> <i_i_glide_rotatable_bonds>
8

> <r_i_docking_score>
-7.11986217058037

> <r_i_glide_ligand_efficiency>
-0.374729587925283

> <r_i_glide_ligand_efficiency_sa>
-0.999929049263309

> <r_i_glide_ligand_efficiency_ln>
-1.80503798086008

> <r_i_glide_gscore>
-7.11986217058037

> <r_i_glide_lipo>
-2.42397459641603

> <r_i_glide_hbond>
-0.900300934556293

> <r_i_glide_metal>
0

> <r_i_glide_rewards>
-1.9094167615126

> <r_i_glide_evdw>
-32.7444763183594

> <r_i_glide_ecoul>
-10.0319852828979

> <r_i_glide_erotb>
1.25585173025721

> <r_i_glide_esite>
0

> <r_i_glide_emodel>
-58.1767284205916

> <r_i_glide_energy>
-42.7764616012573

> <r_i_glide_einternal>
7.91668605804443

> <i_i_glide_confnum>
287

> <i_i_glide_posenum>
24

> <r_i_glide_eff_state_penalty>
0

> <s_user_duplicate_titles>
CHEMBL4338_lig184,454948

> <i_f3d_flags>
0

> <s_m_subgroup_title>
dock_pv

> <s_m_subgroupid>
dock_pv

> <b_m_subgroup_collapsed>
1

$$$$
CHEMBL4338_lig86
                    3D
 Schrodinger Suite 2021-1.
 29 31  0  0  1  0            999 V2000
   13.3090   13.9110   61.7057 N   0  0  0  0  0  0
   12.6235   14.0422   60.5107 C   0  0  0  0  0  0
   13.1488   13.6220   59.4106 N   0  0  0  0  0  0
   14.5531   13.3729   61.9168 C   0  0  0  0  0  0
   15.0387   12.7944   60.6807 C   0  0  0  0  0  0
   14.3610   12.9890   59.4783 C   0  0  0  0  0  0
   15.1657   12.4686   58.4467 C   0  0  0  0  0  0
   16.2340   11.8344   59.0864 C   0  0  0  0  0  0
   16.1692   12.0682   60.4361 N   0  0  0  0  0  0
   14.9380   12.5942   56.9565 C   0  0  0  0  0  0
   14.4872   11.3058   56.2940 C   0  0  0  0  0  0
   15.1636   10.9528   55.1695 N   0  0  0  0  0  0
   14.7595    9.8396   54.5068 C   0  0  0  0  0  0
   13.6722    9.0763   54.9226 C   0  0  0  0  0  0
   12.9970    9.4331   56.0900 C   0  0  0  0  0  0
   13.4119   10.5633   56.7954 C   0  0  0  0  0  0
   15.1253   13.4332   62.9993 O   0  0  0  0  0  0
   11.3556   14.6547   60.5096 N   0  0  0  0  0  0
   12.8608   14.2378   62.5515 H   0  0  0  0  0  0
   17.0700   11.2879   58.6750 H   0  0  0  0  0  0
   16.8384   11.7653   61.1320 H   0  0  0  0  0  0
   15.8511   12.9585   56.4807 H   0  0  0  0  0  0
   14.1901   13.3567   56.7339 H   0  0  0  0  0  0
   15.3084    9.5734   53.6145 H   0  0  0  0  0  0
   13.3485    8.2330   54.3404 H   0  0  0  0  0  0
   12.1557    8.8445   56.4271 H   0  0  0  0  0  0
   12.8992   10.8684   57.6957 H   0  0  0  0  0  0
   10.7886   14.6332   59.6771 H   0  0  0  0  0  0
   10.8194   14.7522   61.3584 H   0  0  0  0  0  0
  1  2  1  0  0  0
  1  4  1  0  0  0
  1 19  1  0  0  0
  2  3  2  0  0  0
  2 18  1  0  0  0
  3  6  1  0  0  0
  4  5  1  0  0  0
  4 17  2  0  0  0
  5  9  1  0  0  0
  5  6  2  0  0  0
  6  7  1  0  0  0
  7 10  1  0  0  0
  7  8  2  0  0  0
  8  9  1  0  0  0
  8 20  1  0  0  0
  9 21  1  0  0  0
 10 11  1  0  0  0
 10 22  1  0  0  0
 10 23  1  0  0  0
 11 12  2  0  0  0
 11 16  1  0  0  0
 12 13  1  0  0  0
 13 14  2  0  0  0
 13 24  1  0  0  0
 14 15  1  0  0  0
 14 25  1  0  0  0
 15 16  2  0  0  0
 15 26  1  0  0  0
 16 27  1  0  0  0
 18 28  1  0  0  0
 18 29  1  0  0  0
M  END
> <s_m_entry_id>
11973

> <s_m_entry_name>
dock_pv.176

> <s_m_Source_Path>
/home/csk/Desktop/cluster/DUD-E-result/pnph

> <s_m_Source_File>
dock_pv.maegz

> <i_m_Source_File_Index>
176

> <chembl_id>
CHEMBL315260

> <chembl_pref_name>
None

> <i_lp_mmshare_version>
53161

> <r_lp_tautomer_probability>
1

> <s_lp_Force_Field>
OPLS_2005

> <r_lp_Energy>
15.575254

> <b_lp_Chiralities_Consistent>
1

> <s_lp_Variant>
CHEMBL4338_lig86-1

> <s_i_glide_gridfile>
glide-grid_3bgs

> <i_i_glide_lignum>
105

> <i_i_glide_rotatable_bonds>
2

> <r_i_docking_score>
-7.11350161123518

> <r_i_glide_ligand_efficiency>
-0.39519453395751

> <r_i_glide_ligand_efficiency_sa>
-1.03570267290968

> <r_i_glide_ligand_efficiency_ln>
-1.82848890900905

> <r_i_glide_gscore>
-7.11350161123518

> <r_i_glide_lipo>
-2.1653141916921

> <r_i_glide_hbond>
-0.595320570326062

> <r_i_glide_metal>
0

> <r_i_glide_rewards>
-2.19853009239911

> <r_i_glide_evdw>
-36.3846969604492

> <r_i_glide_ecoul>
-6.09042310714722

> <r_i_glide_erotb>
0.595196374359332

> <r_i_glide_esite>
-0.0167348170826909

> <r_i_glide_emodel>
-58.260008821452

> <r_i_glide_energy>
-42.4751200675964

> <r_i_glide_einternal>
2.19438147544861

> <i_i_glide_confnum>
2

> <i_i_glide_posenum>
15

> <r_i_glide_eff_state_penalty>
0

> <s_user_duplicate_titles>
CHEMBL4338_lig86,128722

> <i_f3d_flags>
0

> <s_m_subgroup_title>
dock_pv

> <s_m_subgroupid>
dock_pv

> <b_m_subgroup_collapsed>
1

$$$$
CHEMBL4338_lig158
                    3D
 Schrodinger Suite 2021-1.
 40 41  0  0  1  0            999 V2000
   15.6151   13.6198   62.2143 C   0  0  0  0  0  0
   16.2281   13.0207   61.1227 C   0  0  0  0  0  0
   14.4851   12.8999   62.5060 N   0  3  0  0  0  0
   15.4847   11.9031   60.7563 N   0  0  0  0  0  0
   17.3307   13.5357   60.5060 N   0  0  0  0  0  0
   16.2154   14.8262   62.7812 C   0  0  0  0  0  0
   14.4196   11.8330   61.6425 C   0  0  0  0  0  0
   12.4412   15.6149   60.2756 P   0  0  0  0  0  0
   17.3077   15.2394   62.1060 N   0  5  0  0  0  0
   17.7540   14.6330   61.0475 C   0  0  0  0  0  0
   13.3540   16.6330   59.7060 O   0  0  0  0  0  0
   15.7103   11.0392   59.6055 C   0  0  0  0  0  0
   15.7422   15.3758   63.7722 O   0  0  0  0  0  0
   12.2080   14.0423   59.3382 C   0  0  0  0  0  0
   13.7763   12.1966   58.1388 C   0  0  0  0  0  0
   10.9540   16.1929   60.5061 O   0  0  0  0  0  0
   12.8507   15.1001   61.7498 O   0  0  0  0  0  0
   15.2583   11.7117   58.2775 C   0  0  0  0  0  0
   13.5986   13.5912   58.8256 C   0  0  0  0  0  0
   13.4692   12.3392   56.6361 C   0  0  0  0  0  0
   12.7962   11.1337   58.6660 C   0  0  0  0  0  0
   13.6664   11.0610   61.6742 H   0  0  0  0  0  0
   18.6101   15.0795   60.5483 H   0  0  0  0  0  0
   15.1805   10.0997   59.7714 H   0  0  0  0  0  0
   16.7743   10.7982   59.5706 H   0  0  0  0  0  0
   13.8556   13.0803   63.2807 H   0  0  0  0  0  0
   11.7597   13.3060   60.0027 H   0  0  0  0  0  0
   11.5278   14.2164   58.5060 H   0  0  0  0  0  0
   10.2339   15.5912   60.8099 H   0  0  0  0  0  0
   12.1280   14.8153   62.3454 H   0  0  0  0  0  0
   15.4919   11.0330   57.4603 H   0  0  0  0  0  0
   15.9178   12.5629   58.0973 H   0  0  0  0  0  0
   13.9408   14.3345   58.1121 H   0  0  0  0  0  0
   14.3036   13.7349   59.6290 H   0  0  0  0  0  0
   13.5360   11.3888   56.1035 H   0  0  0  0  0  0
   12.4557   12.7119   56.5060 H   0  0  0  0  0  0
   14.1540   13.0330   56.1451 H   0  0  0  0  0  0
   12.9540   10.1767   58.1676 H   0  0  0  0  0  0
   12.8970   10.9651   59.7271 H   0  0  0  0  0  0
   11.7604   11.4267   58.5060 H   0  0  0  0  0  0
  1  3  1  0  0  0
  1  6  1  0  0  0
  1  2  2  0  0  0
  2  5  1  0  0  0
  2  4  1  0  0  0
  3  7  2  0  0  0
  3 26  1  0  0  0
  4 12  1  0  0  0
  4  7  1  0  0  0
  5 10  2  0  0  0
  6 13  2  0  0  0
  6  9  1  0  0  0
  7 22  1  0  0  0
  8 14  1  0  0  0
  8 11  2  0  0  0
  8 16  1  0  0  0
  8 17  1  0  0  0
  9 10  1  0  0  0
 10 23  1  0  0  0
 12 18  1  0  0  0
 12 24  1  0  0  0
 12 25  1  0  0  0
 14 19  1  0  0  0
 14 27  1  0  0  0
 14 28  1  0  0  0
 15 18  1  0  0  0
 15 19  1  0  0  0
 15 20  1  0  0  0
 15 21  1  0  0  0
 16 29  1  0  0  0
 17 30  1  0  0  0
 18 31  1  0  0  0
 18 32  1  0  0  0
 19 33  1  0  0  0
 19 34  1  0  0  0
 20 35  1  0  0  0
 20 36  1  0  0  0
 20 37  1  0  0  0
 21 38  1  0  0  0
 21 39  1  0  0  0
 21 40  1  0  0  0
M  CHG  2   3   1   9  -1
M  END
> <s_m_entry_id>
11974

> <s_m_entry_name>
dock_pv.177

> <s_m_Source_Path>
/home/csk/Desktop/cluster/DUD-E-result/pnph

> <s_m_Source_File>
dock_pv.maegz

> <i_m_Source_File_Index>
177

> <chembl_id>
CHEMBL267312

> <chembl_pref_name>
None

> <i_lp_mmshare_version>
53161

> <r_lp_tautomer_probability>
0.144281265051876

> <s_lp_Force_Field>
OPLS_2005

> <r_lp_Energy>
23.415946

> <b_lp_Chiralities_Consistent>
1

> <s_lp_Variant>
CHEMBL4338_lig158-2

> <s_i_glide_gridfile>
glide-grid_3bgs

> <i_i_glide_lignum>
215

> <i_i_glide_rotatable_bonds>
8

> <r_i_docking_score>
-7.10196004683195

> <r_i_glide_ligand_efficiency>
-0.338188573658664

> <r_i_glide_ligand_efficiency_sa>
-0.933036631095853

> <r_i_glide_ligand_efficiency_ln>
-1.75594527071767

> <r_i_glide_gscore>
-7.10196004683195

> <r_i_glide_lipo>
-1.72127167935762

> <r_i_glide_hbond>
-0.300851603885134

> <r_i_glide_metal>
0

> <r_i_glide_rewards>
-2.27698412206275

> <r_i_glide_evdw>
-18.7878704071045

> <r_i_glide_ecoul>
-18.5640525817871

> <r_i_glide_erotb>
0.940874387990576

> <r_i_glide_esite>
-0.0197256218937252

> <r_i_glide_emodel>
-54.5579534697572

> <r_i_glide_energy>
-37.3519229888916

> <r_i_glide_einternal>
3.07599210739136

> <i_i_glide_confnum>
108

> <i_i_glide_posenum>
243

> <r_i_glide_eff_state_penalty>
0

> <s_user_duplicate_titles>
CHEMBL4338_lig158,12090

> <i_f3d_flags>
0

> <s_m_subgroup_title>
dock_pv

> <s_m_subgroupid>
dock_pv

> <b_m_subgroup_collapsed>
1

$$$$
CHEMBL4338_lig193
                    3D
 Schrodinger Suite 2021-1.
 35 36  0  0  1  0            999 V2000
   14.9542    8.2334   54.0199 O   0  0  0  0  0  0
   14.4598    9.4687   54.5020 C   0  0  0  0  0  0
   13.9895    9.4084   55.9820 C   0  0  2  0  0  0
   12.6172    9.0325   56.0350 O   0  0  0  0  0  0
   14.1763   10.7677   56.7155 C   0  0  1  0  0  0
   13.3593   11.7437   56.1060 O   0  0  0  0  0  0
   13.8760   10.7749   58.2326 C   0  0  0  0  0  0
   15.1039   10.6467   59.0206 N   0  0  1  0  0  0
   14.9868   11.2036   60.3686 C   0  0  0  0  0  0
   14.8282   12.7179   60.3709 C   0  0  0  0  0  0
   15.8377   13.6793   60.2809 C   0  0  0  0  0  0
   15.2910   14.9377   60.2690 N   0  0  0  0  0  0
   13.9304   14.8149   60.3516 C   0  0  0  0  0  0
   12.8730   15.8212   60.3034 C   0  0  0  0  0  0
   12.9538   17.0322   60.1124 O   0  0  0  0  0  0
   11.6591   15.2097   60.4686 N   0  0  0  0  0  0
   11.3946   13.8611   60.5768 C   0  0  0  0  0  0
   12.3446   12.9949   60.5597 N   0  0  0  0  0  0
   13.6279   13.4534   60.4482 C   0  0  0  0  0  0
   14.2423    7.5737   53.9657 H   0  0  0  0  0  0
   15.2943   10.1635   54.4043 H   0  0  0  0  0  0
   13.6727    9.8340   53.8424 H   0  0  0  0  0  0
   14.5454    8.6379   56.5204 H   0  0  0  0  0  0
   12.5110    8.1260   55.7062 H   0  0  0  0  0  0
   15.1937   11.1328   56.5537 H   0  0  0  0  0  0
   12.5573   11.2961   55.8126 H   0  0  0  0  0  0
   13.3969   11.7235   58.4733 H   0  0  0  0  0  0
   13.1550   10.0049   58.5028 H   0  0  0  0  0  0
   15.3507    9.6692   59.1013 H   0  0  0  0  0  0
   14.1649   10.7195   60.8970 H   0  0  0  0  0  0
   15.8980   10.9376   60.9063 H   0  0  0  0  0  0
   16.9088   13.5577   60.2000 H   0  0  0  0  0  0
   15.8032   15.8073   60.1813 H   0  0  0  0  0  0
   10.8646   15.8327   60.4973 H   0  0  0  0  0  0
   10.3554   13.5605   60.6802 H   0  0  0  0  0  0
  1  2  1  0  0  0
  1 20  1  0  0  0
  2  3  1  0  0  0
  2 21  1  0  0  0
  2 22  1  0  0  0
  3  4  1  0  0  0
  3  5  1  0  0  0
  3 23  1  0  0  0
  4 24  1  0  0  0
  5  6  1  0  0  0
  5  7  1  0  0  0
  5 25  1  0  0  0
  6 26  1  0  0  0
  7  8  1  0  0  0
  7 27  1  0  0  0
  7 28  1  0  0  0
  8  9  1  0  0  0
  8 29  1  0  0  0
  9 10  1  0  0  0
  9 30  1  0  0  0
  9 31  1  0  0  0
 10 11  2  0  0  0
 10 19  1  0  0  0
 11 12  1  0  0  0
 11 32  1  0  0  0
 12 13  1  0  0  0
 12 33  1  0  0  0
 13 14  1  0  0  0
 13 19  2  0  0  0
 14 15  2  0  0  0
 14 16  1  0  0  0
 16 17  1  0  0  0
 16 34  1  0  0  0
 17 18  2  0  0  0
 17 35  1  0  0  0
 18 19  1  0  0  0
M  END
> <s_m_entry_id>
11975

> <s_m_entry_name>
dock_pv.178

> <s_m_Source_Path>
/home/csk/Desktop/cluster/DUD-E-result/pnph

> <s_m_Source_File>
dock_pv.maegz

> <i_m_Source_File_Index>
178

> <chembl_id>
CHEMBL523794

> <chembl_pref_name>
None

> <i_lp_mmshare_version>
53161

> <r_lp_tautomer_probability>
1

> <s_lp_Force_Field>
OPLS_2005

> <r_lp_Energy>
37.500987

> <b_lp_Chiralities_Consistent>
1

> <s_lp_Variant>
CHEMBL4338_lig193-3

> <s_i_glide_gridfile>
glide-grid_3bgs

> <i_i_glide_lignum>
259

> <i_i_glide_rotatable_bonds>
9

> <r_i_docking_score>
-7.08890194528671

> <r_i_glide_ligand_efficiency>
-0.373100102383511

> <r_i_glide_ligand_efficiency_sa>
-0.995580927361345

> <r_i_glide_ligand_efficiency_ln>
-1.79718889878347

> <r_i_glide_gscore>
-7.08890194528671

> <r_i_glide_lipo>
-2.06665649125756

> <r_i_glide_hbond>
-0.609145776837202

> <r_i_glide_metal>
0

> <r_i_glide_rewards>
-1.90542050111635

> <r_i_glide_evdw>
-33.6284561157227

> <r_i_glide_ecoul>
-13.7746305465698

> <r_i_glide_erotb>
1.239938211696

> <r_i_glide_esite>
0

> <r_i_glide_emodel>
-64.3556713387267

> <r_i_glide_energy>
-47.4030866622925

> <r_i_glide_einternal>
9.21969985961914

> <i_i_glide_confnum>
271

> <i_i_glide_posenum>
19

> <r_i_glide_eff_state_penalty>
0

> <s_user_duplicate_titles>
CHEMBL4338_lig193

> <i_f3d_flags>
0

> <s_m_subgroup_title>
dock_pv

> <s_m_subgroupid>
dock_pv

> <b_m_subgroup_collapsed>
1

$$$$
CHEMBL4338_lig89
                    3D
 Schrodinger Suite 2021-1.
 44 47  0  0  1  0            999 V2000
   13.6999    9.3526   55.3361 N   0  0  0  0  0  0
   12.8559    9.4820   56.4107 C   0  0  0  0  0  0
   13.0469   10.3874   57.3060 N   0  0  0  0  0  0
   14.7636   10.1438   55.0143 C   0  0  0  0  0  0
   14.8419   11.2646   55.9457 C   0  0  0  0  0  0
   14.0107   11.3213   57.0664 C   0  0  0  0  0  0
   14.3282   12.4727   57.8102 C   0  0  0  0  0  0
   15.3540   13.0858   57.0926 C   0  0  0  0  0  0
   15.6784   12.3423   55.9863 N   0  0  0  0  0  0
   13.6891   12.9437   59.1109 C   0  0  0  0  0  0
   14.6550   13.2858   60.2489 C   0  0  0  0  0  0
   14.2507   14.1781   61.2464 C   0  0  0  0  0  0
   15.1123   14.5059   62.2931 C   0  0  0  0  0  0
   16.3987   13.9482   62.3486 C   0  0  0  0  0  0
   16.7804   13.0330   61.3695 C   0  0  0  0  0  0
   15.9176   12.6915   60.3344 C   0  0  0  0  0  0
   15.5179    9.8363   54.1060 O   0  0  0  0  0  0
   11.7540    8.6330   56.5060 N   0  0  0  0  0  0
   17.3540   14.2353   63.3068 O   0  0  0  0  0  0
   17.0893   15.1588   64.3646 C   0  0  0  0  0  0
   16.5646   14.4364   65.5997 C   0  0  0  0  0  0
   15.4172   14.8970   66.2493 C   0  0  0  0  0  0
   14.9539   14.2436   67.3893 C   0  0  0  0  0  0
   15.6363   13.1318   67.8765 C   0  0  0  0  0  0
   16.7876   12.6731   67.2406 C   0  0  0  0  0  0
   17.2556   13.3316   66.1060 C   0  0  0  0  0  0
   13.5620    8.5582   54.7263 H   0  0  0  0  0  0
   15.8958   13.9940   57.3060 H   0  0  0  0  0  0
   16.3996   12.5592   55.3124 H   0  0  0  0  0  0
   13.0615   13.8124   58.9067 H   0  0  0  0  0  0
   13.0070   12.1830   59.4937 H   0  0  0  0  0  0
   13.2646   14.6186   61.2164 H   0  0  0  0  0  0
   14.7579   15.1910   63.0462 H   0  0  0  0  0  0
   17.7540   12.5708   61.4211 H   0  0  0  0  0  0
   16.2413   11.9678   59.6009 H   0  0  0  0  0  0
   11.2256    8.6045   57.3624 H   0  0  0  0  0  0
   11.7540    7.7319   56.0116 H   0  0  0  0  0  0
   18.0401   15.6179   64.6373 H   0  0  0  0  0  0
   16.4556   15.9937   64.0644 H   0  0  0  0  0  0
   14.8898   15.7629   65.8777 H   0  0  0  0  0  0
   14.0670   14.5943   67.8990 H   0  0  0  0  0  0
   15.2709   12.6330   68.7638 H   0  0  0  0  0  0
   17.3208   11.8188   67.6304 H   0  0  0  0  0  0
   18.1527   12.9820   65.6158 H   0  0  0  0  0  0
  1  2  1  0  0  0
  1  4  1  0  0  0
  1 27  1  0  0  0
  2  3  2  0  0  0
  2 18  1  0  0  0
  3  6  1  0  0  0
  4 17  2  0  0  0
  4  5  1  0  0  0
  5  9  1  0  0  0
  5  6  2  0  0  0
  6  7  1  0  0  0
  7  8  2  0  0  0
  7 10  1  0  0  0
  8  9  1  0  0  0
  8 28  1  0  0  0
  9 29  1  0  0  0
 10 11  1  0  0  0
 10 30  1  0  0  0
 10 31  1  0  0  0
 11 16  1  0  0  0
 11 12  2  0  0  0
 12 13  1  0  0  0
 12 32  1  0  0  0
 13 14  2  0  0  0
 13 33  1  0  0  0
 14 15  1  0  0  0
 14 19  1  0  0  0
 15 16  2  0  0  0
 15 34  1  0  0  0
 16 35  1  0  0  0
 18 36  1  0  0  0
 18 37  1  0  0  0
 19 20  1  0  0  0
 20 21  1  0  0  0
 20 38  1  0  0  0
 20 39  1  0  0  0
 21 22  2  0  0  0
 21 26  1  0  0  0
 22 23  1  0  0  0
 22 40  1  0  0  0
 23 24  2  0  0  0
 23 41  1  0  0  0
 24 25  1  0  0  0
 24 42  1  0  0  0
 25 26  2  0  0  0
 25 43  1  0  0  0
 26 44  1  0  0  0
M  END
> <s_m_entry_id>
11976

> <s_m_entry_name>
dock_pv.179

> <s_m_Source_Path>
/home/csk/Desktop/cluster/DUD-E-result/pnph

> <s_m_Source_File>
dock_pv.maegz

> <i_m_Source_File_Index>
179

> <chembl_id>
CHEMBL83158

> <chembl_pref_name>
None

> <i_lp_mmshare_version>
53161

> <r_lp_tautomer_probability>
1

> <s_lp_Force_Field>
OPLS_2005

> <r_lp_Energy>
27.176207

> <b_lp_Chiralities_Consistent>
1

> <s_lp_Variant>
CHEMBL4338_lig89-1

> <s_i_glide_gridfile>
glide-grid_3bgs

> <i_i_glide_lignum>
108

> <i_i_glide_rotatable_bonds>
5

> <r_i_docking_score>
-7.07722034891409

> <r_i_glide_ligand_efficiency>
-0.272200782650542

> <r_i_glide_ligand_efficiency_sa>
-0.80639374754387

> <r_i_glide_ligand_efficiency_ln>
-1.66206197668842

> <r_i_glide_gscore>
-7.07722034891409

> <r_i_glide_lipo>
-3.05946356526325

> <r_i_glide_hbond>
-0.564952724998195

> <r_i_glide_metal>
0

> <r_i_glide_rewards>
-1.40434688114849

> <r_i_glide_evdw>
-37.285213470459

> <r_i_glide_ecoul>
-5.84310674667358

> <r_i_glide_erotb>
0.792269508019833

> <r_i_glide_esite>
-0.1

> <r_i_glide_emodel>
-57.9734527909134

> <r_i_glide_energy>
-43.1283202171326

> <r_i_glide_einternal>
5.7891149520874

> <i_i_glide_confnum>
76

> <i_i_glide_posenum>
316

> <r_i_glide_eff_state_penalty>
0

> <s_user_duplicate_titles>
CHEMBL4338_lig89,128904

> <i_f3d_flags>
0

> <s_m_subgroup_title>
dock_pv

> <s_m_subgroupid>
dock_pv

> <b_m_subgroup_collapsed>
1

$$$$
CHEMBL4338_lig172
                    3D
 Schrodinger Suite 2021-1.
 31 32  0  0  1  0            999 V2000
   11.7540   15.1034   60.6437 N   0  0  0  0  0  0
   11.5647   13.7381   60.6822 C   0  0  0  0  0  0
   12.5540   12.9188   60.5815 N   0  0  0  0  0  0
   13.8072   13.4500   60.4478 C   0  0  0  0  0  0
   14.0382   14.8308   60.4539 C   0  0  0  0  0  0
   12.9330   15.7844   60.5060 C   0  0  0  0  0  0
   12.9539   17.0086   60.4085 O   0  0  0  0  0  0
   15.3867   15.0330   60.3587 N   0  0  0  0  0  0
   15.9975   13.8129   60.2267 C   0  0  0  0  0  0
   15.0386   12.7984   60.2099 C   0  0  0  0  0  0
   14.5015   10.7158   58.9178 N   0  0  1  0  0  0
   15.2942   11.3166   59.9931 C   0  0  0  0  0  0
   14.7958   11.0682   57.5197 C   0  0  0  0  0  0
   14.1540    9.9847   56.6115 C   0  0  0  0  0  0
   14.3266   12.4894   57.1257 C   0  0  0  0  0  0
   12.9353   12.6330   57.3060 O   0  0  0  0  0  0
   14.5388   10.1473   55.2572 O   0  0  0  0  0  0
   10.9272   15.6807   60.7132 H   0  0  0  0  0  0
   10.5469   13.3822   60.8068 H   0  0  0  0  0  0
   15.8532   15.9336   60.3434 H   0  0  0  0  0  0
   17.0693   13.7635   60.1060 H   0  0  0  0  0  0
   14.3383    9.7281   59.0612 H   0  0  0  0  0  0
   15.0590   10.7728   60.9075 H   0  0  0  0  0  0
   16.3509   11.1287   59.7975 H   0  0  0  0  0  0
   15.8770   11.0330   57.3945 H   0  0  0  0  0  0
   13.0645   10.0050   56.6745 H   0  0  0  0  0  0
   14.4709    8.9865   56.9130 H   0  0  0  0  0  0
   14.8594   13.2661   57.6692 H   0  0  0  0  0  0
   14.5541   12.6846   56.0771 H   0  0  0  0  0  0
   12.7022   13.5567   57.1288 H   0  0  0  0  0  0
   14.1124    9.4577   54.7384 H   0  0  0  0  0  0
  1  2  1  0  0  0
  1  6  1  0  0  0
  1 18  1  0  0  0
  2  3  2  0  0  0
  2 19  1  0  0  0
  3  4  1  0  0  0
  4 10  1  0  0  0
  4  5  2  0  0  0
  5  6  1  0  0  0
  5  8  1  0  0  0
  6  7  2  0  0  0
  8  9  1  0  0  0
  8 20  1  0  0  0
  9 10  2  0  0  0
  9 21  1  0  0  0
 10 12  1  0  0  0
 11 13  1  0  0  0
 11 12  1  0  0  0
 11 22  1  0  0  0
 12 23  1  0  0  0
 12 24  1  0  0  0
 13 15  1  0  0  0
 13 14  1  0  0  0
 13 25  1  0  0  0
 14 17  1  0  0  0
 14 26  1  0  0  0
 14 27  1  0  0  0
 15 16  1  0  0  0
 15 28  1  0  0  0
 15 29  1  0  0  0
 16 30  1  0  0  0
 17 31  1  0  0  0
M  END
> <s_m_entry_id>
11977

> <s_m_entry_name>
dock_pv.180

> <s_m_Source_Path>
/home/csk/Desktop/cluster/DUD-E-result/pnph

> <s_m_Source_File>
dock_pv.maegz

> <i_m_Source_File_Index>
180

> <chembl_id>
CHEMBL505564

> <chembl_pref_name>
None

> <i_lp_mmshare_version>
53161

> <r_lp_tautomer_probability>
1

> <s_lp_Force_Field>
OPLS_2005

> <r_lp_Energy>
28.022542

> <b_lp_Chiralities_Consistent>
1

> <s_lp_Variant>
CHEMBL4338_lig172-1

> <s_i_glide_gridfile>
glide-grid_3bgs

> <i_i_glide_lignum>
233

> <i_i_glide_rotatable_bonds>
7

> <r_i_docking_score>
-7.07243594432534

> <r_i_glide_ligand_efficiency>
-0.416025643783844

> <r_i_glide_ligand_efficiency_sa>
-1.06971907809289

> <r_i_glide_ligand_efficiency_ln>
-1.84504104246946

> <r_i_glide_gscore>
-7.07243594432534

> <r_i_glide_lipo>
-1.96165719887666

> <r_i_glide_hbond>
-0.871316755199655

> <r_i_glide_metal>
0

> <r_i_glide_rewards>
-2.19866244563468

> <r_i_glide_evdw>
-31.3309288024902

> <r_i_glide_ecoul>
-11.269157409668

> <r_i_glide_erotb>
1.21612050696036

> <r_i_glide_esite>
0

> <r_i_glide_emodel>
-59.9306137106433

> <r_i_glide_energy>
-42.6000862121582

> <r_i_glide_einternal>
1.00735485553741

> <i_i_glide_confnum>
3

> <i_i_glide_posenum>
239

> <r_i_glide_eff_state_penalty>
0

> <s_user_duplicate_titles>
CHEMBL4338_lig172,453466

> <i_f3d_flags>
0

> <s_m_subgroup_title>
dock_pv

> <s_m_subgroupid>
dock_pv

> <b_m_subgroup_collapsed>
1

$$$$
CHEMBL4338_lig124
                    3D
 Schrodinger Suite 2021-1.
 43 44  0  0  1  0            999 V2000
   13.2044   12.9025   60.1837 C   0  0  0  0  0  0
   12.3362   13.0871   59.1459 C   0  0  0  0  0  0
   13.3571   13.7112   61.2788 N   0  0  0  0  0  0
   11.6257   14.9437   60.2818 N   0  0  0  0  0  0
   12.5533   12.2228   58.1481 N   0  0  0  0  0  0
   11.3256   14.1130   59.2343 C   0  0  0  0  0  0
   12.6429   14.7892   61.2079 C   0  0  0  0  0  0
   13.9006   11.7713   59.8418 N   0  0  0  0  0  0
   16.4807   18.5346   64.7699 P   0  0  0  0  0  0
   13.4821   11.4290   58.6074 C   0  0  0  0  0  0
   15.9448   16.9799   63.9000 C   0  0  0  0  0  0
   17.1509   15.7502   63.3156 P   0  0  2  0  0  0
   10.3289   14.2426   58.5202 O   0  0  0  0  0  0
   17.5424   19.3653   64.0860 O   0  0  0  0  0  0
   17.8216   14.8925   64.3263 O   0  0  0  0  0  0
   12.8791   15.8306   62.0172 N   0  0  0  0  0  0
   14.9946   19.3452   64.9114 O   0  0  0  0  0  0
   16.9018   17.9968   66.3337 O   0  0  0  0  0  0
   18.1798   16.6967   62.5058 O   0  0  0  0  0  0
   14.8932   11.0201   60.6215 C   0  0  0  0  0  0
   16.3224   14.8820   61.9398 C   0  0  0  0  0  0
   16.0976   11.8413   61.1219 C   0  0  0  0  0  0
   17.2899   14.1283   61.0077 C   0  0  0  0  0  0
   16.6076   12.9948   60.2284 C   0  0  0  0  0  0
   13.8909   10.5686   58.0933 H   0  0  0  0  0  0
   15.1910   16.4611   64.4921 H   0  0  0  0  0  0
   15.4069   17.3022   63.0042 H   0  0  0  0  0  0
   10.9496   15.6779   60.4298 H   0  0  0  0  0  0
   13.4265   15.6706   62.8505 H   0  0  0  0  0  0
   12.5282   16.7499   61.8233 H   0  0  0  0  0  0
   14.4561   19.5024   64.1008 H   0  0  0  0  0  0
   16.5688   18.4262   67.1405 H   0  0  0  0  0  0
   18.6875   16.2525   61.7993 H   0  0  0  0  0  0
   15.2133   10.1714   60.0153 H   0  0  0  0  0  0
   14.3150   10.5970   61.4405 H   0  0  0  0  0  0
   15.5931   14.2358   62.4202 H   0  0  0  0  0  0
   15.7320   15.5672   61.3386 H   0  0  0  0  0  0
   16.9265   11.1506   61.2925 H   0  0  0  0  0  0
   15.8375   12.2147   62.1087 H   0  0  0  0  0  0
   17.6883   14.8391   60.2823 H   0  0  0  0  0  0
   18.1390   13.7332   61.5603 H   0  0  0  0  0  0
   15.8172   13.4407   59.6289 H   0  0  0  0  0  0
   17.3124   12.5772   59.5167 H   0  0  0  0  0  0
  1  8  1  0  0  0
  1  3  1  0  0  0
  1  2  2  0  0  0
  2  6  1  0  0  0
  2  5  1  0  0  0
  3  7  2  0  0  0
  4  7  1  0  0  0
  4 28  1  0  0  0
  4  6  1  0  0  0
  5 10  2  0  0  0
  6 13  2  0  0  0
  7 16  1  0  0  0
  8 10  1  0  0  0
  8 20  1  0  0  0
  9 11  1  0  0  0
  9 14  2  0  0  0
  9 17  1  0  0  0
  9 18  1  0  0  0
 10 25  1  0  0  0
 11 12  1  0  0  0
 11 26  1  0  0  0
 11 27  1  0  0  0
 12 21  1  0  0  0
 12 15  2  0  0  0
 12 19  1  0  0  0
 16 29  1  0  0  0
 16 30  1  0  0  0
 17 31  1  0  0  0
 18 32  1  0  0  0
 19 33  1  0  0  0
 20 22  1  0  0  0
 20 34  1  0  0  0
 20 35  1  0  0  0
 21 23  1  0  0  0
 21 36  1  0  0  0
 21 37  1  0  0  0
 22 24  1  0  0  0
 22 38  1  0  0  0
 22 39  1  0  0  0
 23 24  1  0  0  0
 23 40  1  0  0  0
 23 41  1  0  0  0
 24 42  1  0  0  0
 24 43  1  0  0  0
M  END
> <s_m_entry_id>
11978

> <s_m_entry_name>
dock_pv.181

> <s_m_Source_Path>
/home/csk/Desktop/cluster/DUD-E-result/pnph

> <s_m_Source_File>
dock_pv.maegz

> <i_m_Source_File_Index>
181

> <chembl_id>
CHEMBL269745

> <chembl_pref_name>
None

> <i_lp_mmshare_version>
53161

> <r_lp_tautomer_probability>
0.999940409345307

> <s_lp_Force_Field>
OPLS_2005

> <r_lp_Energy>
-0.043836

> <b_lp_Chiralities_Consistent>
1

> <s_lp_Variant>
CHEMBL4338_lig124-2

> <s_i_glide_gridfile>
glide-grid_3bgs

> <i_i_glide_lignum>
157

> <i_i_glide_rotatable_bonds>
11

> <r_i_docking_score>
-7.06858262498805

> <r_i_glide_ligand_efficiency>
-0.294524276041169

> <r_i_glide_ligand_efficiency_sa>
-0.849555020230975

> <r_i_glide_ligand_efficiency_ln>
-1.69183617828097

> <r_i_glide_gscore>
-7.06858262498805

> <r_i_glide_lipo>
-0.97429919384394

> <r_i_glide_hbond>
-0.533577655161966

> <r_i_glide_metal>
0

> <r_i_glide_rewards>
-2.05521057364069

> <r_i_glide_evdw>
-31.2821502685547

> <r_i_glide_ecoul>
-19.9647636413574

> <r_i_glide_erotb>
1.07839187423085

> <r_i_glide_esite>
-0.0250650169409566

> <r_i_glide_emodel>
-61.4895640698539

> <r_i_glide_energy>
-51.2469139099121

> <r_i_glide_einternal>
19.0880661010742

> <i_i_glide_confnum>
75

> <i_i_glide_posenum>
390

> <r_i_glide_eff_state_penalty>
0

> <s_user_duplicate_titles>
CHEMBL4338_lig124,1693

> <i_f3d_flags>
0

> <s_m_subgroup_title>
dock_pv

> <s_m_subgroupid>
dock_pv

> <b_m_subgroup_collapsed>
1

$$$$
CHEMBL4338_lig179
                    3D
 Schrodinger Suite 2021-1.
 35 36  0  0  1  0            999 V2000
   13.8638    9.8325   56.6525 C   0  0  1  0  0  0
   14.6020   10.3795   55.4082 C   0  0  0  0  0  0
   14.9262   11.2151   60.0782 C   0  0  0  0  0  0
   14.9768   10.7433   58.6892 N   0  0  2  0  0  0
   13.7573   10.8220   57.8585 C   0  0  1  0  0  0
   12.5542    9.4270   56.2799 O   0  0  0  0  0  0
   14.9484    9.3507   54.4993 O   0  0  0  0  0  0
   13.3483   12.2608   57.4257 C   0  0  0  0  0  0
   14.4150   13.0324   56.9043 O   0  0  0  0  0  0
   14.8419   12.7241   60.2242 C   0  0  0  0  0  0
   15.3352   14.9364   60.1506 N   0  0  0  0  0  0
   15.8588   13.6685   60.0710 C   0  0  0  0  0  0
   13.9906   14.8292   60.3790 C   0  0  0  0  0  0
   13.7013   13.4724   60.5542 C   0  0  0  0  0  0
   12.4499   13.0178   60.8509 N   0  0  0  0  0  0
   11.5022   13.8802   60.9056 C   0  0  0  0  0  0
   11.7400   15.2217   60.6926 N   0  0  0  0  0  0
   12.9237   15.8308   60.3841 C   0  0  0  0  0  0
   12.9540   17.0275   60.1065 O   0  0  0  0  0  0
   14.3679    8.9239   56.9803 H   0  0  0  0  0  0
   15.5289   10.8703   55.7055 H   0  0  0  0  0  0
   13.9940   11.1282   54.9024 H   0  0  0  0  0  0
   14.0941   10.7279   60.5887 H   0  0  0  0  0  0
   15.8275   10.8576   60.5774 H   0  0  0  0  0  0
   15.3796    9.8165   58.6532 H   0  0  0  0  0  0
   12.9574   10.4385   58.4948 H   0  0  0  0  0  0
   12.5860    8.5651   55.8453 H   0  0  0  0  0  0
   14.1513    8.9250   54.1689 H   0  0  0  0  0  0
   12.5577   12.2326   56.6749 H   0  0  0  0  0  0
   12.8918   12.8042   58.2432 H   0  0  0  0  0  0
   14.0613   13.9089   56.7256 H   0  0  0  0  0  0
   15.8469   15.7994   60.0084 H   0  0  0  0  0  0
   16.9052   13.5334   59.8415 H   0  0  0  0  0  0
   10.4878   13.5719   61.1238 H   0  0  0  0  0  0
   10.9353   15.8318   60.7179 H   0  0  0  0  0  0
  1  2  1  0  0  0
  1  6  1  0  0  0
  1  5  1  0  0  0
  1 20  1  0  0  0
  2  7  1  0  0  0
  2 21  1  0  0  0
  2 22  1  0  0  0
  3 10  1  0  0  0
  3  4  1  0  0  0
  3 23  1  0  0  0
  3 24  1  0  0  0
  4  5  1  0  0  0
  4 25  1  0  0  0
  5  8  1  0  0  0
  5 26  1  0  0  0
  6 27  1  0  0  0
  7 28  1  0  0  0
  8  9  1  0  0  0
  8 29  1  0  0  0
  8 30  1  0  0  0
  9 31  1  0  0  0
 10 14  1  0  0  0
 10 12  2  0  0  0
 11 13  1  0  0  0
 11 12  1  0  0  0
 11 32  1  0  0  0
 12 33  1  0  0  0
 13 14  2  0  0  0
 13 18  1  0  0  0
 14 15  1  0  0  0
 15 16  2  0  0  0
 16 17  1  0  0  0
 16 34  1  0  0  0
 17 18  1  0  0  0
 17 35  1  0  0  0
 18 19  2  0  0  0
M  END
> <s_m_entry_id>
11979

> <s_m_entry_name>
dock_pv.182

> <s_m_Source_Path>
/home/csk/Desktop/cluster/DUD-E-result/pnph

> <s_m_Source_File>
dock_pv.maegz

> <i_m_Source_File_Index>
182

> <chembl_id>
CHEMBL489691

> <chembl_pref_name>
None

> <i_lp_mmshare_version>
53161

> <r_lp_tautomer_probability>
1

> <s_lp_Force_Field>
OPLS_2005

> <r_lp_Energy>
39.910782

> <b_lp_Chiralities_Consistent>
1

> <s_lp_Variant>
CHEMBL4338_lig179-1

> <s_i_glide_gridfile>
glide-grid_3bgs

> <i_i_glide_lignum>
240

> <i_i_glide_rotatable_bonds>
9

> <r_i_docking_score>
-7.03011603991736

> <r_i_glide_ligand_efficiency>
-0.370006107364072

> <r_i_glide_ligand_efficiency_sa>
-0.987324905958438

> <r_i_glide_ligand_efficiency_ln>
-1.78228540916686

> <r_i_glide_gscore>
-7.03011603991736

> <r_i_glide_lipo>
-2.28464217435425

> <r_i_glide_hbond>
-0.823506861062829

> <r_i_glide_metal>
0

> <r_i_glide_rewards>
-1.8220786800177

> <r_i_glide_evdw>
-36.228832244873

> <r_i_glide_ecoul>
-10.1892328262329

> <r_i_glide_erotb>
1.239938211696

> <r_i_glide_esite>
0

> <r_i_glide_emodel>
-64.730785763809

> <r_i_glide_energy>
-46.418065071106

> <r_i_glide_einternal>
3.47061991691589

> <i_i_glide_confnum>
224

> <i_i_glide_posenum>
231

> <r_i_glide_eff_state_penalty>
0

> <s_user_duplicate_titles>
CHEMBL4338_lig179,CHEMBL4338_lig181,454872

> <i_f3d_flags>
0

> <s_m_subgroup_title>
dock_pv

> <s_m_subgroupid>
dock_pv

> <b_m_subgroup_collapsed>
1

$$$$
CHEMBL4338_lig174
                    3D
 Schrodinger Suite 2021-1.
 35 36  0  0  1  0            999 V2000
   16.3074   14.3346   60.1060 O   0  0  0  0  0  0
   16.0954   13.4494   61.1947 C   0  0  0  0  0  0
   15.5966   12.0308   60.7924 C   0  0  0  0  0  0
   16.4797   11.2762   59.7714 C   0  0  0  0  0  0
   17.7547   11.0330   60.3150 O   0  0  0  0  0  0
   14.1690   11.9700   60.4509 N   0  0  1  0  0  0
   13.6216   12.8463   59.4123 C   0  0  2  0  0  0
   12.0891   12.7591   59.5370 C   0  0  0  0  0  0
   11.4171   13.8330   58.9060 O   0  0  0  0  0  0
   14.1347   12.4869   58.0168 C   0  0  0  0  0  0
   15.0644   13.2192   57.2760 C   0  0  0  0  0  0
   15.3684   12.5740   56.1077 N   0  0  0  0  0  0
   14.6255   11.4328   56.0592 C   0  0  0  0  0  0
   14.6192   10.3681   55.0705 C   0  0  0  0  0  0
   15.3540   10.2330   54.1060 O   0  0  0  0  0  0
   13.6554    9.4512   55.3770 N   0  0  0  0  0  0
   12.8491    9.4330   56.4901 C   0  0  0  0  0  0
   12.9613   10.3279   57.4160 N   0  0  0  0  0  0
   13.8331   11.3623   57.2061 C   0  0  0  0  0  0
   16.5794   15.1926   60.4457 H   0  0  0  0  0  0
   17.0466   13.3551   61.7200 H   0  0  0  0  0  0
   15.4115   13.9035   61.9132 H   0  0  0  0  0  0
   15.6379   11.4388   61.7060 H   0  0  0  0  0  0
   16.0440   10.3083   59.5178 H   0  0  0  0  0  0
   16.6175   11.8330   58.8488 H   0  0  0  0  0  0
   17.6757   10.3859   61.0242 H   0  0  0  0  0  0
   13.8391   11.0196   60.3300 H   0  0  0  0  0  0
   13.8905   13.8722   59.6642 H   0  0  0  0  0  0
   11.7540   11.8061   59.1416 H   0  0  0  0  0  0
   11.7804   12.7876   60.5841 H   0  0  0  0  0  0
   11.8298   14.0110   58.0491 H   0  0  0  0  0  0
   15.5765   14.1359   57.5255 H   0  0  0  0  0  0
   16.0369   12.8745   55.4118 H   0  0  0  0  0  0
   13.5751    8.6858   54.7215 H   0  0  0  0  0  0
   12.1351    8.6159   56.5644 H   0  0  0  0  0  0
  1  2  1  0  0  0
  1 20  1  0  0  0
  2  3  1  0  0  0
  2 21  1  0  0  0
  2 22  1  0  0  0
  3  4  1  0  0  0
  3  6  1  0  0  0
  3 23  1  0  0  0
  4  5  1  0  0  0
  4 24  1  0  0  0
  4 25  1  0  0  0
  5 26  1  0  0  0
  6  7  1  0  0  0
  6 27  1  0  0  0
  7  8  1  0  0  0
  7 10  1  0  0  0
  7 28  1  0  0  0
  8  9  1  0  0  0
  8 29  1  0  0  0
  8 30  1  0  0  0
  9 31  1  0  0  0
 10 11  2  0  0  0
 10 19  1  0  0  0
 11 12  1  0  0  0
 11 32  1  0  0  0
 12 13  1  0  0  0
 12 33  1  0  0  0
 13 14  1  0  0  0
 13 19  2  0  0  0
 14 15  2  0  0  0
 14 16  1  0  0  0
 16 17  1  0  0  0
 16 34  1  0  0  0
 17 18  2  0  0  0
 17 35  1  0  0  0
 18 19  1  0  0  0
M  END
> <s_m_entry_id>
11981

> <s_m_entry_name>
dock_pv.184

> <s_m_Source_Path>
/home/csk/Desktop/cluster/DUD-E-result/pnph

> <s_m_Source_File>
dock_pv.maegz

> <i_m_Source_File_Index>
184

> <chembl_id>
CHEMBL522757

> <chembl_pref_name>
None

> <i_lp_mmshare_version>
53161

> <r_lp_tautomer_probability>
1

> <s_lp_Force_Field>
OPLS_2005

> <r_lp_Energy>
24.141405

> <b_lp_Chiralities_Consistent>
1

> <s_lp_Variant>
CHEMBL4338_lig174-1

> <s_i_glide_gridfile>
glide-grid_3bgs

> <i_i_glide_lignum>
235

> <i_i_glide_rotatable_bonds>
9

> <r_i_docking_score>
-7.0186497980255

> <r_i_glide_ligand_efficiency>
-0.36940262094871

> <r_i_glide_ligand_efficiency_sa>
-0.985714561814287

> <r_i_glide_ligand_efficiency_ln>
-1.77937847057497

> <r_i_glide_gscore>
-7.0186497980255

> <r_i_glide_lipo>
-2.46539734808279

> <r_i_glide_hbond>
-0.788078529917009

> <r_i_glide_metal>
0

> <r_i_glide_rewards>
-1.80810681212636

> <r_i_glide_evdw>
-33.2615776062012

> <r_i_glide_ecoul>
-10.2261762619019

> <r_i_glide_erotb>
1.239938211696

> <r_i_glide_esite>
0

> <r_i_glide_emodel>
-59.3796970897448

> <r_i_glide_energy>
-43.487753868103

> <r_i_glide_einternal>
5.13126420974731

> <i_i_glide_confnum>
250

> <i_i_glide_posenum>
381

> <r_i_glide_eff_state_penalty>
0

> <s_user_duplicate_titles>
CHEMBL4338_lig174,454866

> <i_f3d_flags>
0

> <s_m_subgroup_title>
dock_pv

> <s_m_subgroupid>
dock_pv

> <b_m_subgroup_collapsed>
1

$$$$
CHEMBL4338_lig137
                    3D
 Schrodinger Suite 2021-1.
 32 34  0  0  1  0            999 V2000
   14.4716   13.6956   61.2323 C   0  0  0  0  0  0
   13.9249   12.8672   59.1278 C   0  0  0  0  0  0
   14.6199   12.5795   60.3387 C   0  0  0  0  0  0
   15.0727   13.8122   62.6259 C   0  0  2  0  0  0
   14.5542   14.9837   63.3180 N   0  0  2  0  0  0
   13.3554   14.1124   59.2980 N   0  0  0  0  0  0
   16.6080   13.9349   62.6638 C   0  0  2  0  0  0
   13.6838   14.6029   60.5364 C   0  0  0  0  0  0
   13.9461   11.9306   58.0828 C   0  0  0  0  0  0
   16.8101   14.5121   64.0738 C   0  0  2  0  0  0
   15.5488   15.3865   64.3121 C   0  0  1  0  0  0
   15.2849   11.4338   60.5085 N   0  0  0  0  0  0
   14.5916   10.7579   58.2895 N   0  0  0  0  0  0
   15.2280   10.5688   59.4691 C   0  0  0  0  0  0
   13.3281   12.2613   56.9112 O   0  0  0  0  0  0
   17.1512   14.7415   61.6269 O   0  0  0  0  0  0
   18.0825   15.1078   64.2895 O   0  0  0  0  0  0
   15.7765   16.9113   64.2638 C   0  0  0  0  0  0
   16.5822   17.3602   65.2286 F   0  0  0  0  0  0
   14.7572   12.9244   63.1750 H   0  0  0  0  0  0
   13.6177   14.8205   63.6777 H   0  0  0  0  0  0
   12.7918   14.6292   58.6334 H   0  0  0  0  0  0
   17.0497   12.9408   62.5894 H   0  0  0  0  0  0
   13.3258   15.5768   60.8391 H   0  0  0  0  0  0
   16.7492   13.6723   64.7693 H   0  0  0  0  0  0
   15.1515   15.1498   65.3012 H   0  0  0  0  0  0
   15.7370    9.6239   59.6003 H   0  0  0  0  0  0
   12.9937   13.1623   56.9061 H   0  0  0  0  0  0
   16.5550   14.6951   60.8762 H   0  0  0  0  0  0
   18.0568   15.5812   65.1265 H   0  0  0  0  0  0
   14.8363   17.4534   64.3727 H   0  0  0  0  0  0
   16.2187   17.2130   63.3134 H   0  0  0  0  0  0
  1  3  1  0  0  0
  1  4  1  0  0  0
  1  8  2  0  0  0
  2  3  1  0  0  0
  2  9  2  0  0  0
  2  6  1  0  0  0
  3 12  2  0  0  0
  4  5  1  0  0  0
  4  7  1  0  0  0
  4 20  1  0  0  0
  5 11  1  0  0  0
  5 21  1  0  0  0
  6  8  1  0  0  0
  6 22  1  0  0  0
  7 10  1  0  0  0
  7 16  1  0  0  0
  7 23  1  0  0  0
  8 24  1  0  0  0
  9 15  1  0  0  0
  9 13  1  0  0  0
 10 17  1  0  0  0
 10 11  1  0  0  0
 10 25  1  0  0  0
 11 18  1  0  0  0
 11 26  1  0  0  0
 12 14  1  0  0  0
 13 14  2  0  0  0
 14 27  1  0  0  0
 15 28  1  0  0  0
 16 29  1  0  0  0
 17 30  1  0  0  0
 18 19  1  0  0  0
 18 31  1  0  0  0
 18 32  1  0  0  0
M  END
> <s_m_entry_id>
11982

> <s_m_entry_name>
dock_pv.185

> <s_m_Source_Path>
/home/csk/Desktop/cluster/DUD-E-result/pnph

> <s_m_Source_File>
dock_pv.maegz

> <i_m_Source_File_Index>
185

> <chembl_id>
CHEMBL117383

> <chembl_pref_name>
None

> <i_lp_mmshare_version>
53161

> <r_lp_tautomer_probability>
1

> <s_lp_Force_Field>
OPLS_2005

> <r_lp_Energy>
42.116639

> <b_lp_Chiralities_Consistent>
1

> <s_lp_Variant>
CHEMBL4338_lig137-1

> <s_i_glide_gridfile>
glide-grid_3bgs

> <i_i_glide_lignum>
179

> <i_i_glide_rotatable_bonds>
5

> <r_i_docking_score>
-7.01607422917076

> <r_i_glide_ligand_efficiency>
-0.369267064693198

> <r_i_glide_ligand_efficiency_sa>
-0.985352843278939

> <r_i_glide_ligand_efficiency_ln>
-1.77872550855215

> <r_i_glide_gscore>
-7.01607422917076

> <r_i_glide_lipo>
-1.66574551360051

> <r_i_glide_hbond>
-0.765785624516979

> <r_i_glide_metal>
0

> <r_i_glide_rewards>
-2.05237486812587

> <r_i_glide_evdw>
-28.4371128082275

> <r_i_glide_ecoul>
-9.05559921264648

> <r_i_glide_erotb>
0.248027299380948

> <r_i_glide_esite>
0

> <r_i_glide_emodel>
-51.0278431884107

> <r_i_glide_energy>
-37.492712020874

> <r_i_glide_einternal>
2.8507034778595

> <i_i_glide_confnum>
6

> <i_i_glide_posenum>
326

> <r_i_glide_eff_state_penalty>
0

> <s_user_duplicate_titles>
CHEMBL4338_lig137

> <i_f3d_flags>
0

> <s_m_subgroup_title>
dock_pv

> <s_m_subgroupid>
dock_pv

> <b_m_subgroup_collapsed>
1

$$$$
CHEMBL4338_lig188
                    3D
 Schrodinger Suite 2021-1.
 38 39  0  0  1  0            999 V2000
   15.4421   11.6091   56.3180 C   0  0  2  0  0  0
   14.7110   10.5420   55.4390 C   0  0  0  0  0  0
   14.9710   11.3397   60.2347 C   0  0  0  0  0  0
   15.5383   11.0980   58.8888 N   0  0  1  0  0  0
   14.8615   11.8188   57.7692 C   0  0  2  0  0  0
   15.3957   12.8743   55.6839 O   0  0  0  0  0  0
   15.3540   10.2330   54.2307 O   0  0  0  0  0  0
   13.3206   11.6132   57.7685 C   0  0  0  0  0  0
   12.9540   10.2477   57.7060 O   0  0  0  0  0  0
   14.8098   12.8199   60.5738 C   0  0  0  0  0  0
   15.2143   15.0336   60.7349 N   0  0  0  0  0  0
   15.8004   13.7981   60.7009 C   0  0  0  0  0  0
   13.8590   14.8729   60.7456 C   0  0  0  0  0  0
   13.5996   13.5042   60.7916 C   0  0  0  0  0  0
   12.3329   13.0056   60.8779 N   0  0  0  0  0  0
   11.3540   13.8330   60.8406 C   0  0  0  0  0  0
   11.5721   15.1889   60.7374 N   0  0  0  0  0  0
   12.7708   15.8424   60.6614 C   0  0  0  0  0  0
   12.8151   17.0577   60.5062 O   0  0  0  0  0  0
   16.9919   11.2391   58.9708 C   0  0  0  0  0  0
   16.5056   11.3944   56.3226 H   0  0  0  0  0  0
   13.6998   10.8595   55.1810 H   0  0  0  0  0  0
   14.6247    9.5961   55.9719 H   0  0  0  0  0  0
   14.0015   10.8426   60.2832 H   0  0  0  0  0  0
   15.5760   10.8373   60.9877 H   0  0  0  0  0  0
   15.0227   12.8726   58.0055 H   0  0  0  0  0  0
   14.4806   13.1133   55.5230 H   0  0  0  0  0  0
   14.9702    9.4302   53.8630 H   0  0  0  0  0  0
   12.8481   12.0505   58.6360 H   0  0  0  0  0  0
   12.8792   12.1548   56.9320 H   0  0  0  0  0  0
   13.2651    9.8611   56.8854 H   0  0  0  0  0  0
   15.7035   15.9201   60.7114 H   0  0  0  0  0  0
   16.8764   13.7325   60.6577 H   0  0  0  0  0  0
   10.3257   13.4903   60.9042 H   0  0  0  0  0  0
   10.7542   15.7824   60.7155 H   0  0  0  0  0  0
   17.3985   10.5356   59.6999 H   0  0  0  0  0  0
   17.4855   11.0330   58.0333 H   0  0  0  0  0  0
   17.3018   12.2329   59.2748 H   0  0  0  0  0  0
  1  2  1  0  0  0
  1  6  1  0  0  0
  1  5  1  0  0  0
  1 21  1  0  0  0
  2  7  1  0  0  0
  2 22  1  0  0  0
  2 23  1  0  0  0
  3  4  1  0  0  0
  3 10  1  0  0  0
  3 24  1  0  0  0
  3 25  1  0  0  0
  4  5  1  0  0  0
  4 20  1  0  0  0
  5  8  1  0  0  0
  5 26  1  0  0  0
  6 27  1  0  0  0
  7 28  1  0  0  0
  8  9  1  0  0  0
  8 29  1  0  0  0
  8 30  1  0  0  0
  9 31  1  0  0  0
 10 14  1  0  0  0
 10 12  2  0  0  0
 11 13  1  0  0  0
 11 12  1  0  0  0
 11 32  1  0  0  0
 12 33  1  0  0  0
 13 14  2  0  0  0
 13 18  1  0  0  0
 14 15  1  0  0  0
 15 16  2  0  0  0
 16 17  1  0  0  0
 16 34  1  0  0  0
 17 18  1  0  0  0
 17 35  1  0  0  0
 18 19  2  0  0  0
 20 36  1  0  0  0
 20 37  1  0  0  0
 20 38  1  0  0  0
M  END
> <s_m_entry_id>
11983

> <s_m_entry_name>
dock_pv.186

> <s_m_Source_Path>
/home/csk/Desktop/cluster/DUD-E-result/pnph

> <s_m_Source_File>
dock_pv.maegz

> <i_m_Source_File_Index>
186

> <chembl_id>
CHEMBL522616

> <chembl_pref_name>
None

> <i_lp_mmshare_version>
53161

> <r_lp_tautomer_probability>
1

> <s_lp_Force_Field>
OPLS_2005

> <r_lp_Energy>
42.723962

> <b_lp_Chiralities_Consistent>
1

> <s_lp_Variant>
CHEMBL4338_lig188-1

> <s_i_glide_gridfile>
glide-grid_3bgs

> <i_i_glide_lignum>
252

> <i_i_glide_rotatable_bonds>
9

> <r_i_docking_score>
-7.00099461261579

> <r_i_glide_ligand_efficiency>
-0.350049730630789

> <r_i_glide_ligand_efficiency_sa>
-0.950181154559687

> <r_i_glide_ligand_efficiency_ln>
-1.75211804328141

> <r_i_glide_gscore>
-7.00099461261579

> <r_i_glide_lipo>
-2.5570522472611

> <r_i_glide_hbond>
-0.51019060851423

> <r_i_glide_metal>
0

> <r_i_glide_rewards>
-1.83721495992886

> <r_i_glide_evdw>
-33.3561782836914

> <r_i_glide_ecoul>
-10.4254884719849

> <r_i_glide_erotb>
1.1350953880707

> <r_i_glide_esite>
0

> <r_i_glide_emodel>
-59.3835181291057

> <r_i_glide_energy>
-43.7816667556763

> <r_i_glide_einternal>
6.06146049499512

> <i_i_glide_confnum>
31

> <i_i_glide_posenum>
365

> <r_i_glide_eff_state_penalty>
0

> <s_user_duplicate_titles>
CHEMBL4338_lig188,454952

> <i_f3d_flags>
0

> <s_m_subgroup_title>
dock_pv

> <s_m_subgroupid>
dock_pv

> <b_m_subgroup_collapsed>
1

$$$$
CHEMBL4338_lig62
                    3D
 Schrodinger Suite 2021-1.
 36 38  0  0  1  0            999 V2000
   14.0517   11.3151   56.8110 C   0  0  0  0  0  0
   14.9492   11.0330   55.7446 C   0  0  0  0  0  0
   14.4207   12.5794   57.3999 C   0  0  0  0  0  0
   13.7030    9.0798   55.2654 N   0  0  0  0  0  0
   14.7729    9.8575   55.0021 C   0  0  0  0  0  0
   13.0561   10.4789   57.1157 N   0  0  0  0  0  0
   15.8765   12.0504   55.7367 N   0  0  0  0  0  0
   12.8969    9.4330   56.2815 C   0  0  0  0  0  0
   15.5434   12.9713   56.6935 C   0  0  0  0  0  0
   13.7233   13.3594   58.5060 C   0  0  2  0  0  0
   14.4951   13.2994   59.8235 C   0  0  0  0  0  0
   11.2964   14.0247   59.3060 C   0  0  0  0  0  0
   12.2036   13.0359   58.5724 C   0  0  0  0  0  0
   15.7336    9.5222   54.1060 O   0  0  0  0  0  0
   15.6537   14.0725   59.9865 C   0  0  0  0  0  0
   11.7928    8.6330   56.5060 N   0  0  0  0  0  0
   10.1540   14.2330   58.9060 O   0  0  0  0  0  0
   16.3254   14.0952   61.2075 C   0  0  0  0  0  0
   11.8580   14.5854   60.4123 O   0  0  0  0  0  0
   17.7540   15.0330   61.4030 Cl  0  0  0  0  0  0
   14.0530   12.5099   60.8887 C   0  0  0  0  0  0
   14.7173   12.5523   62.1060 C   0  0  0  0  0  0
   15.8432   13.3516   62.2771 C   0  0  0  0  0  0
   16.6957   12.1520   55.1534 H   0  0  0  0  0  0
   16.1540   13.8517   56.8081 H   0  0  0  0  0  0
   13.7772   14.4038   58.2084 H   0  0  0  0  0  0
   11.8257   13.0329   57.5489 H   0  0  0  0  0  0
   12.0218   12.0414   58.9762 H   0  0  0  0  0  0
   15.5165    8.6785   53.7006 H   0  0  0  0  0  0
   16.0391   14.6596   59.1685 H   0  0  0  0  0  0
   11.2149    8.8147   57.3060 H   0  0  0  0  0  0
   11.7540    7.7255   56.0101 H   0  0  0  0  0  0
   12.7352   14.2329   60.5831 H   0  0  0  0  0  0
   13.1914   11.8662   60.7989 H   0  0  0  0  0  0
   14.3629   11.9316   62.9060 H   0  0  0  0  0  0
   16.3561   13.3667   63.2273 H   0  0  0  0  0  0
  1  2  1  0  0  0
  1  3  1  0  0  0
  1  6  2  0  0  0
  2  5  2  0  0  0
  2  7  1  0  0  0
  3  9  2  0  0  0
  3 10  1  0  0  0
  4  8  2  0  0  0
  4  5  1  0  0  0
  5 14  1  0  0  0
  6  8  1  0  0  0
  7  9  1  0  0  0
  7 24  1  0  0  0
  8 16  1  0  0  0
  9 25  1  0  0  0
 10 11  1  0  0  0
 10 13  1  0  0  0
 10 26  1  0  0  0
 11 15  1  0  0  0
 11 21  2  0  0  0
 12 13  1  0  0  0
 12 17  2  0  0  0
 12 19  1  0  0  0
 13 27  1  0  0  0
 13 28  1  0  0  0
 14 29  1  0  0  0
 15 18  2  0  0  0
 15 30  1  0  0  0
 16 31  1  0  0  0
 16 32  1  0  0  0
 18 20  1  0  0  0
 18 23  1  0  0  0
 19 33  1  0  0  0
 21 22  1  0  0  0
 21 34  1  0  0  0
 22 23  2  0  0  0
 22 35  1  0  0  0
 23 36  1  0  0  0
M  END
> <s_m_entry_id>
11984

> <s_m_entry_name>
dock_pv.187

> <s_m_Source_Path>
/home/csk/Desktop/cluster/DUD-E-result/pnph

> <s_m_Source_File>
dock_pv.maegz

> <i_m_Source_File_Index>
187

> <chembl_id>
CHEMBL309907

> <chembl_pref_name>
None

> <i_lp_mmshare_version>
53161

> <r_lp_tautomer_probability>
1

> <s_lp_Force_Field>
OPLS_2005

> <r_lp_Energy>
8.382011

> <b_lp_Chiralities_Consistent>
1

> <s_lp_Variant>
CHEMBL4338_lig62-1

> <s_i_glide_gridfile>
glide-grid_3bgs

> <i_i_glide_lignum>
79

> <i_i_glide_rotatable_bonds>
6

> <r_i_docking_score>
-6.98153984316493

> <r_i_glide_ligand_efficiency>
-0.303545210572388

> <r_i_glide_ligand_efficiency_sa>
-0.863242200336674

> <r_i_glide_ligand_efficiency_ln>
-1.68819963918057

> <r_i_glide_gscore>
-6.98153984316493

> <r_i_glide_lipo>
-2.73934875564288

> <r_i_glide_hbond>
-0.785835690318833

> <r_i_glide_metal>
0

> <r_i_glide_rewards>
-1.43769180096954

> <r_i_glide_evdw>
-31.9092769622803

> <r_i_glide_ecoul>
-6.57148265838623

> <r_i_glide_erotb>
0.680598118537828

> <r_i_glide_esite>
-0.118075467899553

> <r_i_glide_emodel>
-48.8601042154547

> <r_i_glide_energy>
-38.4807596206665

> <r_i_glide_einternal>
6.97683715820312

> <i_i_glide_confnum>
30

> <i_i_glide_posenum>
262

> <r_i_glide_eff_state_penalty>
0

> <s_user_duplicate_titles>
CHEMBL4338_lig62,129484

> <i_f3d_flags>
0

> <s_m_subgroup_title>
dock_pv

> <s_m_subgroupid>
dock_pv

> <b_m_subgroup_collapsed>
1

$$$$
CHEMBL4338_lig113
                    3D
 Schrodinger Suite 2021-1.
 31 33  0  0  1  0            999 V2000
   14.6089   13.9301   61.9215 C   0  0  1  0  0  0
   13.4960   14.5644   61.0941 C   0  0  2  0  0  0
   14.0654   14.4467   59.6661 C   0  0  1  0  0  0
   15.4725   14.6307   59.8395 O   0  0  0  0  0  0
   15.8683   14.4306   61.1983 C   0  0  2  0  0  0
   17.0874   13.4923   61.2324 C   0  0  0  0  0  0
   16.7641   11.8932   60.5035 Cl  0  0  0  0  0  0
   14.5540   14.2330   63.3066 O   0  0  0  0  0  0
   13.1928   15.9010   61.4624 O   0  0  0  0  0  0
   13.8359   13.1090   58.9740 C   0  0  0  0  0  0
   13.8117   11.3720   57.4223 C   0  0  0  0  0  0
   14.3531   12.6619   57.7023 C   0  0  0  0  0  0
   13.0465   11.0330   58.5065 N   0  0  0  0  0  0
   13.0853   12.0428   59.4270 C   0  0  0  0  0  0
   14.1201   10.7202   56.2227 C   0  0  0  0  0  0
   14.9545   11.3441   55.3567 N   0  0  0  0  0  0
   15.1838   13.2565   56.8401 N   0  0  0  0  0  0
   15.4383   12.5598   55.7062 C   0  0  0  0  0  0
   13.5540    9.4954   56.0076 O   0  0  0  0  0  0
   14.5391   12.8459   61.8205 H   0  0  0  0  0  0
   12.5723   13.9970   61.1999 H   0  0  0  0  0  0
   13.6344   15.2089   59.0198 H   0  0  0  0  0  0
   16.1302   15.4091   61.6063 H   0  0  0  0  0  0
   17.4246   13.3331   62.2561 H   0  0  0  0  0  0
   17.9087   13.9366   60.6712 H   0  0  0  0  0  0
   13.8101   13.7563   63.6967 H   0  0  0  0  0  0
   13.0749   15.9129   62.4185 H   0  0  0  0  0  0
   12.5542   10.1633   58.6607 H   0  0  0  0  0  0
   12.5582   11.9290   60.3562 H   0  0  0  0  0  0
   16.0901   13.0330   54.9970 H   0  0  0  0  0  0
   13.7911    9.1301   55.1525 H   0  0  0  0  0  0
  1  5  1  0  0  0
  1  2  1  0  0  0
  1  8  1  0  0  0
  1 20  1  0  0  0
  2  3  1  0  0  0
  2  9  1  0  0  0
  2 21  1  0  0  0
  3  4  1  0  0  0
  3 10  1  0  0  0
  3 22  1  0  0  0
  4  5  1  0  0  0
  5  6  1  0  0  0
  5 23  1  0  0  0
  6  7  1  0  0  0
  6 24  1  0  0  0
  6 25  1  0  0  0
  8 26  1  0  0  0
  9 27  1  0  0  0
 10 12  1  0  0  0
 10 14  2  0  0  0
 11 12  1  0  0  0
 11 15  2  0  0  0
 11 13  1  0  0  0
 12 17  2  0  0  0
 13 14  1  0  0  0
 13 28  1  0  0  0
 14 29  1  0  0  0
 15 19  1  0  0  0
 15 16  1  0  0  0
 16 18  2  0  0  0
 17 18  1  0  0  0
 18 30  1  0  0  0
 19 31  1  0  0  0
M  END
> <s_m_entry_id>
11985

> <s_m_entry_name>
dock_pv.188

> <s_m_Source_Path>
/home/csk/Desktop/cluster/DUD-E-result/pnph

> <s_m_Source_File>
dock_pv.maegz

> <i_m_Source_File_Index>
188

> <chembl_id>
CHEMBL604864

> <chembl_pref_name>
None

> <i_lp_mmshare_version>
53161

> <r_lp_tautomer_probability>
1

> <s_lp_Force_Field>
OPLS_2005

> <r_lp_Energy>
22.60788

> <b_lp_Chiralities_Consistent>
1

> <s_lp_Variant>
CHEMBL4338_lig113-2

> <s_i_glide_gridfile>
glide-grid_3bgs

> <i_i_glide_lignum>
135

> <i_i_glide_rotatable_bonds>
5

> <r_i_docking_score>
-6.97043505496151

> <r_i_glide_ligand_efficiency>
-0.366865002892711

> <r_i_glide_ligand_efficiency_sa>
-0.978943177616478

> <r_i_glide_ligand_efficiency_ln>
-1.76715499765052

> <r_i_glide_gscore>
-6.97043505496151

> <r_i_glide_lipo>
-2.63643235810245

> <r_i_glide_hbond>
-0.113227736552697

> <r_i_glide_metal>
0

> <r_i_glide_rewards>
-1.99458301515151

> <r_i_glide_evdw>
-33.1197509765625

> <r_i_glide_ecoul>
-5.28374052047729

> <r_i_glide_erotb>
0.222356681744875

> <r_i_glide_esite>
0

> <r_i_glide_emodel>
-53.2133357038651

> <r_i_glide_energy>
-38.4034914970398

> <r_i_glide_einternal>
2.31706857681274

> <i_i_glide_confnum>
6

> <i_i_glide_posenum>
227

> <r_i_glide_eff_state_penalty>
0

> <s_user_duplicate_titles>
CHEMBL4338_lig113

> <i_f3d_flags>
0

> <s_m_subgroup_title>
dock_pv

> <s_m_subgroupid>
dock_pv

> <b_m_subgroup_collapsed>
1

$$$$
CHEMBL4338_lig204
                    3D
 Schrodinger Suite 2021-1.
 44 46  0  0  1  0            999 V2000
   14.9559   15.3287   64.4300 N   0  0  0  0  0  0
   15.3539   16.3640   65.0928 C   0  0  0  0  0  0
   16.4660   17.0844   64.6990 N   0  0  0  0  0  0
   17.2806   16.8497   63.6249 C   0  0  0  0  0  0
   15.6947   14.9530   63.3392 C   0  0  0  0  0  0
   16.8392   15.6472   62.9389 C   0  0  0  0  0  0
   17.3540   15.0330   61.8360 N   0  0  0  0  0  0
   16.5666   13.9563   61.5417 C   0  0  0  0  0  0
   15.4782   13.9000   62.4231 C   0  0  0  0  0  0
   18.1956   17.6057   63.3132 O   0  0  0  0  0  0
   14.3036   12.9232   62.4276 C   0  0  0  0  0  0
   13.7084   12.5993   61.1260 N   0  0  2  0  0  0
   14.4491   11.6220   60.3450 C   0  0  0  0  0  0
   13.9122   11.7273   58.9133 C   0  0  1  0  0  0
   13.2376   13.1141   58.8424 C   0  0  2  0  0  0
   13.4624   13.7191   60.2275 C   0  0  0  0  0  0
   15.0241   11.5351   57.8636 C   0  0  0  0  0  0
   14.4978   11.4366   56.1293 S   0  0  0  0  0  0
   11.8696   13.0330   58.5047 O   0  0  0  0  0  0
   13.7498    9.7808   56.0968 C   0  0  0  0  0  0
   13.5741    9.1800   54.6965 C   0  0  0  0  0  0
   14.8864    8.9250   53.9389 C   0  0  0  0  0  0
   14.8201   16.7063   65.9749 H   0  0  0  0  0  0
   16.7184   17.9008   65.2334 H   0  0  0  0  0  0
   18.1558   15.3481   61.3058 H   0  0  0  0  0  0
   16.8201   13.3535   60.6836 H   0  0  0  0  0  0
   13.4976   13.3346   63.0352 H   0  0  0  0  0  0
   14.5808   11.9876   62.9052 H   0  0  0  0  0  0
   14.3057   10.6310   60.7780 H   0  0  0  0  0  0
   15.5211   11.7972   60.3934 H   0  0  0  0  0  0
   13.1635   10.9452   58.7773 H   0  0  0  0  0  0
   13.7459   13.7415   58.1073 H   0  0  0  0  0  0
   14.3316   14.3756   60.1992 H   0  0  0  0  0  0
   12.6571   14.3662   60.5776 H   0  0  0  0  0  0
   15.5825   10.6337   58.1071 H   0  0  0  0  0  0
   15.7503   12.3463   57.9328 H   0  0  0  0  0  0
   11.7212   13.7304   57.8552 H   0  0  0  0  0  0
   12.7701    9.8586   56.5696 H   0  0  0  0  0  0
   14.3310    9.1014   56.7193 H   0  0  0  0  0  0
   12.9541    9.8495   54.1062 H   0  0  0  0  0  0
   13.0200    8.2450   54.7796 H   0  0  0  0  0  0
   14.6865    8.4325   52.9878 H   0  0  0  0  0  0
   15.5566    8.2789   54.5047 H   0  0  0  0  0  0
   15.4165    9.8523   53.7213 H   0  0  0  0  0  0
  1  2  2  0  0  0
  1  5  1  0  0  0
  2  3  1  0  0  0
  2 23  1  0  0  0
  3  4  1  0  0  0
  3 24  1  0  0  0
  4  6  1  0  0  0
  4 10  2  0  0  0
  5  6  2  0  0  0
  5  9  1  0  0  0
  6  7  1  0  0  0
  7  8  1  0  0  0
  7 25  1  0  0  0
  8  9  2  0  0  0
  8 26  1  0  0  0
  9 11  1  0  0  0
 11 12  1  0  0  0
 11 27  1  0  0  0
 11 28  1  0  0  0
 12 13  1  0  0  0
 12 16  1  0  0  0
 13 14  1  0  0  0
 13 29  1  0  0  0
 13 30  1  0  0  0
 14 15  1  0  0  0
 14 17  1  0  0  0
 14 31  1  0  0  0
 15 16  1  0  0  0
 15 19  1  0  0  0
 15 32  1  0  0  0
 16 33  1  0  0  0
 16 34  1  0  0  0
 17 18  1  0  0  0
 17 35  1  0  0  0
 17 36  1  0  0  0
 18 20  1  0  0  0
 19 37  1  0  0  0
 20 21  1  0  0  0
 20 38  1  0  0  0
 20 39  1  0  0  0
 21 22  1  0  0  0
 21 40  1  0  0  0
 21 41  1  0  0  0
 22 42  1  0  0  0
 22 43  1  0  0  0
 22 44  1  0  0  0
M  END
> <s_m_entry_id>
11986

> <s_m_entry_name>
dock_pv.189

> <s_m_Source_Path>
/home/csk/Desktop/cluster/DUD-E-result/pnph

> <s_m_Source_File>
dock_pv.maegz

> <i_m_Source_File_Index>
189

> <chembl_id>
CHEMBL443968

> <chembl_pref_name>
None

> <i_lp_mmshare_version>
53161

> <r_lp_tautomer_probability>
1

> <s_lp_Force_Field>
OPLS_2005

> <r_lp_Energy>
51.943907

> <b_lp_Chiralities_Consistent>
1

> <s_lp_Variant>
CHEMBL4338_lig204-1

> <s_i_glide_gridfile>
glide-grid_3bgs

> <i_i_glide_lignum>
276

> <i_i_glide_rotatable_bonds>
7

> <r_i_docking_score>
-6.96418808419171

> <r_i_glide_ligand_efficiency>
-0.316554003826896

> <r_i_glide_ligand_efficiency_sa>
-0.886996768085483

> <r_i_glide_ligand_efficiency_ln>
-1.70230159270893

> <r_i_glide_gscore>
-6.96418808419171

> <r_i_glide_lipo>
-2.30458550661449

> <r_i_glide_hbond>
-0.787985507901187

> <r_i_glide_metal>
0

> <r_i_glide_rewards>
-1.92692397142564

> <r_i_glide_evdw>
-35.9589309692383

> <r_i_glide_ecoul>
-6.92722606658936

> <r_i_glide_erotb>
0.899401359812808

> <r_i_glide_esite>
-0.00706399961288144

> <r_i_glide_emodel>
-57.6177168218991

> <r_i_glide_energy>
-42.8861570358276

> <r_i_glide_einternal>
7.42276382446289

> <i_i_glide_confnum>
142

> <i_i_glide_posenum>
303

> <r_i_glide_eff_state_penalty>
0

> <s_user_duplicate_titles>
CHEMBL4338_lig204,453463

> <i_f3d_flags>
0

> <s_m_subgroup_title>
dock_pv

> <s_m_subgroupid>
dock_pv

> <b_m_subgroup_collapsed>
1

$$$$
CHEMBL4338_lig162
                    3D
 Schrodinger Suite 2021-1.
 35 37  0  0  1  0            999 V2000
   12.9540   10.2330   56.9847 N   0  0  0  0  0  0
   12.8483    9.2910   56.1060 C   0  0  0  0  0  0
   13.7874    9.1340   55.1136 N   0  0  0  0  0  0
   14.9019    9.8975   54.9060 C   0  0  0  0  0  0
   13.9473   11.1523   56.8151 C   0  0  0  0  0  0
   14.8970   11.0448   55.8025 C   0  0  0  0  0  0
   15.7540   12.1041   55.9102 N   0  0  0  0  0  0
   15.3112   12.9085   56.9285 C   0  0  0  0  0  0
   14.1772   12.3461   57.5198 C   0  0  0  0  0  0
   15.7540    9.5694   54.1028 O   0  0  0  0  0  0
   13.3126   12.9096   58.6281 C   0  0  0  0  0  0
   14.0240   13.8303   59.5157 N   0  0  2  0  0  0
   14.7979   13.2966   60.6396 C   0  0  2  0  0  0
   13.2846   14.7077   60.4368 C   0  0  2  0  0  0
   14.2874   14.4142   61.5430 C   0  0  0  0  0  0
   16.3254   13.2524   60.4595 C   0  0  0  0  0  0
   16.9540   13.0330   61.7060 O   0  0  0  0  0  0
   11.8252   14.3732   60.8253 C   0  0  0  0  0  0
   10.9540   14.6330   59.7439 O   0  0  0  0  0  0
   12.0381    8.5682   56.1454 H   0  0  0  0  0  0
   13.7081    8.3237   54.5115 H   0  0  0  0  0  0
   16.5646   12.2722   55.3301 H   0  0  0  0  0  0
   15.8246   13.8291   57.1611 H   0  0  0  0  0  0
   12.8580   12.1113   59.2170 H   0  0  0  0  0  0
   12.4848   13.4330   58.1543 H   0  0  0  0  0  0
   14.4495   12.3105   60.9564 H   0  0  0  0  0  0
   13.3077   15.7457   60.1015 H   0  0  0  0  0  0
   13.8604   14.0711   62.4869 H   0  0  0  0  0  0
   14.9963   15.2248   61.7181 H   0  0  0  0  0  0
   16.6911   14.1992   60.0590 H   0  0  0  0  0  0
   16.6103   12.4651   59.7605 H   0  0  0  0  0  0
   16.8381   12.1110   61.9569 H   0  0  0  0  0  0
   11.7163   13.3414   61.1628 H   0  0  0  0  0  0
   11.5157   15.0084   61.6567 H   0  0  0  0  0  0
   10.0866   14.8769   60.1111 H   0  0  0  0  0  0
  1  2  2  0  0  0
  1  5  1  0  0  0
  2  3  1  0  0  0
  2 20  1  0  0  0
  3  4  1  0  0  0
  3 21  1  0  0  0
  4  6  1  0  0  0
  4 10  2  0  0  0
  5  9  1  0  0  0
  5  6  2  0  0  0
  6  7  1  0  0  0
  7  8  1  0  0  0
  7 22  1  0  0  0
  8  9  2  0  0  0
  8 23  1  0  0  0
  9 11  1  0  0  0
 11 12  1  0  0  0
 11 24  1  0  0  0
 11 25  1  0  0  0
 12 13  1  0  0  0
 12 14  1  0  0  0
 13 15  1  0  0  0
 13 16  1  0  0  0
 13 26  1  0  0  0
 14 15  1  0  0  0
 14 18  1  0  0  0
 14 27  1  0  0  0
 15 28  1  0  0  0
 15 29  1  0  0  0
 16 17  1  0  0  0
 16 30  1  0  0  0
 16 31  1  0  0  0
 17 32  1  0  0  0
 18 19  1  0  0  0
 18 33  1  0  0  0
 18 34  1  0  0  0
 19 35  1  0  0  0
M  END
> <s_m_entry_id>
11987

> <s_m_entry_name>
dock_pv.190

> <s_m_Source_Path>
/home/csk/Desktop/cluster/DUD-E-result/pnph

> <s_m_Source_File>
dock_pv.maegz

> <i_m_Source_File_Index>
190

> <chembl_id>
CHEMBL271387

> <chembl_pref_name>
None

> <i_lp_mmshare_version>
53161

> <r_lp_tautomer_probability>
1

> <s_lp_Force_Field>
OPLS_2005

> <r_lp_Energy>
48.407813

> <b_lp_Chiralities_Consistent>
1

> <s_lp_Variant>
CHEMBL4338_lig162-1

> <s_i_glide_gridfile>
glide-grid_3bgs

> <i_i_glide_lignum>
221

> <i_i_glide_rotatable_bonds>
6

> <r_i_docking_score>
-6.94557689430806

> <r_i_glide_ligand_efficiency>
-0.365556678647793

> <r_i_glide_ligand_efficiency_sa>
-0.975452043047702

> <r_i_glide_ligand_efficiency_ln>
-1.76085292002054

> <r_i_glide_gscore>
-6.94557689430806

> <r_i_glide_lipo>
-2.62411512292569

> <r_i_glide_hbond>
-0.531654811112849

> <r_i_glide_metal>
0

> <r_i_glide_rewards>
-1.7027962003706

> <r_i_glide_evdw>
-34.1631278991699

> <r_i_glide_ecoul>
-9.17872333526611

> <r_i_glide_erotb>
1.0179470825819

> <r_i_glide_esite>
-0.0199929472324125

> <r_i_glide_emodel>
-58.6269239119503

> <r_i_glide_energy>
-43.341851234436

> <r_i_glide_einternal>
3.90732169151306

> <i_i_glide_confnum>
140

> <i_i_glide_posenum>
398

> <r_i_glide_eff_state_penalty>
0

> <s_user_duplicate_titles>
CHEMBL4338_lig162,CHEMBL4338_lig163,442277

> <i_f3d_flags>
0

> <s_m_subgroup_title>
dock_pv

> <s_m_subgroupid>
dock_pv

> <b_m_subgroup_collapsed>
1

$$$$
CHEMBL4338_lig205
                    3D
 Schrodinger Suite 2021-1.
 38 40  0  0  1  0            999 V2000
   15.5047    9.2417   54.1079 C   0  0  0  0  0  0
   13.7541    9.4330   54.5067 S   0  0  0  0  0  0
   13.7743    9.6904   56.2982 C   0  0  0  0  0  0
   13.9571   11.1437   56.7801 C   0  0  1  0  0  0
   13.7591   11.2982   58.2885 C   0  0  0  0  0  0
   15.0925   11.2240   58.8698 N   0  0  2  0  0  0
   15.1888   11.5829   60.2931 C   0  0  0  0  0  0
   14.8765   13.0424   60.5883 C   0  0  0  0  0  0
   15.7882   14.0909   60.7004 C   0  0  0  0  0  0
   15.1116   15.2752   60.8279 N   0  0  0  0  0  0
   13.7705   15.0187   60.8377 C   0  0  0  0  0  0
   12.6125   15.9136   60.8803 C   0  0  0  0  0  0
   12.5544   17.1401   60.9056 O   0  0  0  0  0  0
   11.4696   15.1678   60.8562 N   0  0  0  0  0  0
   11.3539   13.7983   60.7973 C   0  0  0  0  0  0
   12.3836   13.0328   60.7581 N   0  0  0  0  0  0
   13.6102   13.6314   60.7588 C   0  0  0  0  0  0
   15.8885   12.0368   57.9551 C   0  0  0  0  0  0
   15.3549   11.7526   56.5489 C   0  0  2  0  0  0
   15.3612   12.8861   55.7073 O   0  0  0  0  0  0
   15.6277    8.7818   53.1277 H   0  0  0  0  0  0
   16.0069    8.6329   54.8504 H   0  0  0  0  0  0
   15.9898   10.2084   54.1037 H   0  0  0  0  0  0
   12.8252    9.3027   56.6696 H   0  0  0  0  0  0
   14.5441    9.0531   56.7343 H   0  0  0  0  0  0
   13.1900   11.7323   56.2740 H   0  0  0  0  0  0
   13.2814   12.2498   58.5130 H   0  0  0  0  0  0
   13.0939   10.5585   58.7356 H   0  0  0  0  0  0
   14.5395   10.9166   60.8633 H   0  0  0  0  0  0
   16.1965   11.3344   60.6291 H   0  0  0  0  0  0
   16.8660   14.0923   60.6314 H   0  0  0  0  0  0
   15.5398   16.1919   60.8593 H   0  0  0  0  0  0
   10.6093   15.6969   60.9056 H   0  0  0  0  0  0
   10.3468   13.3952   60.7997 H   0  0  0  0  0  0
   16.9539   11.8330   58.0689 H   0  0  0  0  0  0
   15.7561   13.0900   58.2039 H   0  0  0  0  0  0
   16.0306   11.0329   56.1053 H   0  0  0  0  0  0
   14.7646   13.5415   56.0773 H   0  0  0  0  0  0
  1  2  1  0  0  0
  1 21  1  0  0  0
  1 22  1  0  0  0
  1 23  1  0  0  0
  2  3  1  0  0  0
  3  4  1  0  0  0
  3 24  1  0  0  0
  3 25  1  0  0  0
  4  5  1  0  0  0
  4 19  1  0  0  0
  4 26  1  0  0  0
  5  6  1  0  0  0
  5 27  1  0  0  0
  5 28  1  0  0  0
  6  7  1  0  0  0
  6 18  1  0  0  0
  7  8  1  0  0  0
  7 29  1  0  0  0
  7 30  1  0  0  0
  8  9  2  0  0  0
  8 17  1  0  0  0
  9 10  1  0  0  0
  9 31  1  0  0  0
 10 11  1  0  0  0
 10 32  1  0  0  0
 11 12  1  0  0  0
 11 17  2  0  0  0
 12 13  2  0  0  0
 12 14  1  0  0  0
 14 15  1  0  0  0
 14 33  1  0  0  0
 15 16  2  0  0  0
 15 34  1  0  0  0
 16 17  1  0  0  0
 18 19  1  0  0  0
 18 35  1  0  0  0
 18 36  1  0  0  0
 19 20  1  0  0  0
 19 37  1  0  0  0
 20 38  1  0  0  0
M  END
> <s_m_entry_id>
11989

> <s_m_entry_name>
dock_pv.192

> <s_m_Source_Path>
/home/csk/Desktop/cluster/DUD-E-result/pnph

> <s_m_Source_File>
dock_pv.maegz

> <i_m_Source_File_Index>
192

> <chembl_id>
CHEMBL514795

> <chembl_pref_name>
None

> <i_lp_mmshare_version>
53161

> <r_lp_tautomer_probability>
1

> <s_lp_Force_Field>
OPLS_2005

> <r_lp_Energy>
50.873823

> <b_lp_Chiralities_Consistent>
1

> <s_lp_Variant>
CHEMBL4338_lig205-1

> <s_i_glide_gridfile>
glide-grid_3bgs

> <i_i_glide_lignum>
277

> <i_i_glide_rotatable_bonds>
5

> <r_i_docking_score>
-6.93927449320654

> <r_i_glide_ligand_efficiency>
-0.346963724660327

> <r_i_glide_ligand_efficiency_sa>
-0.941804445596911

> <r_i_glide_ligand_efficiency_ln>
-1.73667153305905

> <r_i_glide_gscore>
-6.93927449320654

> <r_i_glide_lipo>
-2.66634246197764

> <r_i_glide_hbond>
-0.524598704554281

> <r_i_glide_metal>
0

> <r_i_glide_rewards>
-1.73455548339819

> <r_i_glide_evdw>
-38.6757316589355

> <r_i_glide_ecoul>
-4.70897912979126

> <r_i_glide_erotb>
0.633112070603171

> <r_i_glide_esite>
-0.00675646146413074

> <r_i_glide_emodel>
-58.2326987043315

> <r_i_glide_energy>
-43.3847107887268

> <r_i_glide_einternal>
7.35442924499512

> <i_i_glide_confnum>
29

> <i_i_glide_posenum>
26

> <r_i_glide_eff_state_penalty>
0

> <s_user_duplicate_titles>
CHEMBL4338_lig205,454571

> <i_f3d_flags>
0

> <s_m_subgroup_title>
dock_pv

> <s_m_subgroupid>
dock_pv

> <b_m_subgroup_collapsed>
1

$$$$
CHEMBL4338_lig176
                    3D
 Schrodinger Suite 2021-1.
 34 35  0  0  1  0            999 V2000
   14.8291   12.8431   56.7046 C   0  0  0  0  0  0
   15.0016   11.3734   59.6177 C   0  0  0  0  0  0
   15.0285   11.3495   57.0636 C   0  0  0  0  0  0
   14.5447   10.3860   55.9322 C   0  0  0  0  0  0
   14.7927   12.8353   59.9925 C   0  0  0  0  0  0
   15.7841   13.8105   60.1064 C   0  0  0  0  0  0
   13.8603   14.8654   60.4304 C   0  0  0  0  0  0
   13.5882   13.5010   60.3174 C   0  0  0  0  0  0
   12.3209   13.0025   60.4387 N   0  0  0  0  0  0
   11.3544   13.8329   60.5945 C   0  0  0  0  0  0
   12.7813   15.8411   60.5488 C   0  0  0  0  0  0
   12.8273   17.0657   60.5251 O   0  0  0  0  0  0
   12.9405   10.9367   58.3345 C   0  0  0  0  0  0
   14.3978   10.9507   58.3400 N   0  0  2  0  0  0
   15.7537   13.2163   55.7063 O   0  0  0  0  0  0
   15.3540   10.4149   54.7755 O   0  0  0  0  0  0
   15.2135   15.0329   60.3484 N   0  0  0  0  0  0
   11.5848   15.1892   60.6467 N   0  0  0  0  0  0
   15.0290   13.5092   57.5366 H   0  0  0  0  0  0
   13.8081   13.0332   56.3765 H   0  0  0  0  0  0
   14.6005   10.7406   60.4110 H   0  0  0  0  0  0
   16.0687   11.1494   59.5788 H   0  0  0  0  0  0
   16.0945   11.1869   57.2227 H   0  0  0  0  0  0
   14.5539    9.3520   56.2822 H   0  0  0  0  0  0
   13.5219   10.6083   55.6271 H   0  0  0  0  0  0
   16.8538   13.7398   59.9733 H   0  0  0  0  0  0
   10.3277   13.4943   60.6981 H   0  0  0  0  0  0
   12.5540   10.2221   57.6113 H   0  0  0  0  0  0
   12.5541   10.6344   59.3066 H   0  0  0  0  0  0
   12.5363   11.9170   58.0868 H   0  0  0  0  0  0
   15.3532   13.8743   55.1316 H   0  0  0  0  0  0
   15.0951    9.6811   54.2095 H   0  0  0  0  0  0
   15.7083   15.9157   60.4070 H   0  0  0  0  0  0
   10.7770   15.7855   60.7606 H   0  0  0  0  0  0
  1  3  1  0  0  0
  1 15  1  0  0  0
  1 19  1  0  0  0
  1 20  1  0  0  0
  2  5  1  0  0  0
  2 14  1  0  0  0
  2 21  1  0  0  0
  2 22  1  0  0  0
  3  4  1  0  0  0
  3 14  1  0  0  0
  3 23  1  0  0  0
  4 16  1  0  0  0
  4 24  1  0  0  0
  4 25  1  0  0  0
  5  8  1  0  0  0
  5  6  2  0  0  0
  6 17  1  0  0  0
  6 26  1  0  0  0
  7  8  2  0  0  0
  7 11  1  0  0  0
  7 17  1  0  0  0
  8  9  1  0  0  0
  9 10  2  0  0  0
 10 18  1  0  0  0
 10 27  1  0  0  0
 11 12  2  0  0  0
 11 18  1  0  0  0
 13 14  1  0  0  0
 13 28  1  0  0  0
 13 29  1  0  0  0
 13 30  1  0  0  0
 15 31  1  0  0  0
 16 32  1  0  0  0
 17 33  1  0  0  0
 18 34  1  0  0  0
M  END
> <s_m_entry_id>
11990

> <s_m_entry_name>
dock_pv.193

> <s_m_Source_Path>
/home/csk/Desktop/cluster/DUD-E-result/pnph

> <s_m_Source_File>
dock_pv.maegz

> <i_m_Source_File_Index>
193

> <chembl_id>
CHEMBL508602

> <chembl_pref_name>
None

> <i_lp_mmshare_version>
53161

> <r_lp_tautomer_probability>
1

> <s_lp_Force_Field>
OPLS_2005

> <r_lp_Energy>
38.085607

> <b_lp_Chiralities_Consistent>
1

> <s_lp_Variant>
CHEMBL4338_lig176-1

> <s_i_glide_gridfile>
glide-grid_3bgs

> <i_i_glide_lignum>
237

> <i_i_glide_rotatable_bonds>
7

> <r_i_docking_score>
-6.92955064061149

> <r_i_glide_ligand_efficiency>
-0.384975035589527

> <r_i_glide_ligand_efficiency_sa>
-1.00892001053447

> <r_i_glide_ligand_efficiency_ln>
-1.78120526053758

> <r_i_glide_gscore>
-6.92955064061149

> <r_i_glide_lipo>
-2.21267010657521

> <r_i_glide_hbond>
-0.500419306821115

> <r_i_glide_metal>
0

> <r_i_glide_rewards>
-2.09862503257478

> <r_i_glide_evdw>
-32.5511779785156

> <r_i_glide_ecoul>
-10.6203260421753

> <r_i_glide_erotb>
1.10277161061169

> <r_i_glide_esite>
0

> <r_i_glide_emodel>
-55.7474861103347

> <r_i_glide_energy>
-43.1715040206909

> <r_i_glide_einternal>
8.46323776245117

> <i_i_glide_confnum>
145

> <i_i_glide_posenum>
69

> <r_i_glide_eff_state_penalty>
0

> <s_user_duplicate_titles>
CHEMBL4338_lig176,454868

> <i_f3d_flags>
0

> <s_m_subgroup_title>
dock_pv

> <s_m_subgroupid>
dock_pv

> <b_m_subgroup_collapsed>
1

$$$$
CHEMBL4338_lig133
                    3D
 Schrodinger Suite 2021-1.
 32 34  0  0  1  0            999 V2000
   14.3189   12.2779   58.9077 C   0  0  0  0  0  0
   14.4341   13.1461   61.0612 C   0  0  0  0  0  0
   13.9765   13.4022   59.7357 C   0  0  0  0  0  0
   15.0148   11.8948   61.0377 N   0  0  0  0  0  0
   14.0688   12.1467   57.4174 C   0  0  2  0  0  0
   14.9550   11.3867   59.7638 C   0  0  0  0  0  0
   14.2521   14.1199   62.0531 C   0  0  0  0  0  0
   13.3529   14.5435   59.4234 N   0  0  0  0  0  0
   13.3706   10.8986   57.1652 N   0  0  1  0  0  0
   13.6581   15.2896   61.7053 N   0  0  0  0  0  0
   15.3523   12.1492   56.5626 C   0  0  1  0  0  0
   13.2245   15.4349   60.4339 C   0  0  0  0  0  0
   15.0654   11.1378   55.4471 C   0  0  0  0  0  0
   13.6993   10.5188   55.7993 C   0  0  1  0  0  0
   14.7050   13.8346   63.3077 O   0  0  0  0  0  0
   15.7538   13.4300   56.1060 O   0  0  0  0  0  0
   13.9992    8.6335   54.2535 O   0  0  0  0  0  0
   13.5598    9.0024   55.5461 C   0  0  0  0  0  0
   15.4597   11.3975   61.7985 H   0  0  0  0  0  0
   13.4080   12.9616   57.1137 H   0  0  0  0  0  0
   15.3878   10.4159   59.5636 H   0  0  0  0  0  0
   13.7081   10.2080   57.8197 H   0  0  0  0  0  0
   16.1626   11.7324   57.1639 H   0  0  0  0  0  0
   12.7267   16.3642   60.2007 H   0  0  0  0  0  0
   15.8605   10.4048   55.3059 H   0  0  0  0  0  0
   14.9533   11.6873   54.5142 H   0  0  0  0  0  0
   12.9550   10.9845   55.1555 H   0  0  0  0  0  0
   14.5862   12.9067   63.5337 H   0  0  0  0  0  0
   15.1551   13.7097   55.4087 H   0  0  0  0  0  0
   13.7549    7.6977   54.1060 H   0  0  0  0  0  0
   12.5217    8.6876   55.6650 H   0  0  0  0  0  0
   14.1518    8.4442   56.2693 H   0  0  0  0  0  0
  1  3  1  0  0  0
  1  5  1  0  0  0
  1  6  2  0  0  0
  2  3  1  0  0  0
  2  4  1  0  0  0
  2  7  2  0  0  0
  3  8  2  0  0  0
  4  6  1  0  0  0
  4 19  1  0  0  0
  5  9  1  0  0  0
  5 11  1  0  0  0
  5 20  1  0  0  0
  6 21  1  0  0  0
  7 10  1  0  0  0
  7 15  1  0  0  0
  8 12  1  0  0  0
  9 14  1  0  0  0
  9 22  1  0  0  0
 10 12  2  0  0  0
 11 13  1  0  0  0
 11 16  1  0  0  0
 11 23  1  0  0  0
 12 24  1  0  0  0
 13 14  1  0  0  0
 13 25  1  0  0  0
 13 26  1  0  0  0
 14 18  1  0  0  0
 14 27  1  0  0  0
 15 28  1  0  0  0
 16 29  1  0  0  0
 17 18  1  0  0  0
 17 30  1  0  0  0
 18 31  1  0  0  0
 18 32  1  0  0  0
M  END
> <s_m_entry_id>
11991

> <s_m_entry_name>
dock_pv.194

> <s_m_Source_Path>
/home/csk/Desktop/cluster/DUD-E-result/pnph

> <s_m_Source_File>
dock_pv.maegz

> <i_m_Source_File_Index>
194

> <chembl_id>
CHEMBL538773

> <chembl_pref_name>
None

> <i_lp_mmshare_version>
53161

> <r_lp_tautomer_probability>
1

> <s_lp_Force_Field>
OPLS_2005

> <r_lp_Energy>
22.390334

> <b_lp_Chiralities_Consistent>
1

> <s_lp_Variant>
CHEMBL4338_lig133-2

> <s_i_glide_gridfile>
glide-grid_3bgs

> <i_i_glide_lignum>
173

> <i_i_glide_rotatable_bonds>
5

> <r_i_docking_score>
-6.90851248611415

> <r_i_glide_ligand_efficiency>
-0.383806249228564

> <r_i_glide_ligand_efficiency_sa>
-1.00585692374025

> <r_i_glide_ligand_efficiency_ln>
-1.77579751140548

> <r_i_glide_gscore>
-6.90851248611415

> <r_i_glide_lipo>
-2.07610112933034

> <r_i_glide_hbond>
-0.44895011496779

> <r_i_glide_metal>
0

> <r_i_glide_rewards>
-1.97743681431711

> <r_i_glide_evdw>
-31.3259525299072

> <r_i_glide_ecoul>
-9.32502174377441

> <r_i_glide_erotb>
0.559026460562615

> <r_i_glide_esite>
0

> <r_i_glide_emodel>
-55.0045052441

> <r_i_glide_energy>
-40.6509742736816

> <r_i_glide_einternal>
4.80744075775146

> <i_i_glide_confnum>
16

> <i_i_glide_posenum>
117

> <r_i_glide_eff_state_penalty>
0

> <s_user_duplicate_titles>
CHEMBL4338_lig133

> <i_f3d_flags>
0

> <s_m_subgroup_title>
dock_pv

> <s_m_subgroupid>
dock_pv

> <b_m_subgroup_collapsed>
1

$$$$
CHEMBL4338_lig75
                    3D
 Schrodinger Suite 2021-1.
 36 38  0  0  1  0            999 V2000
   15.2499   12.2362   59.9834 N   0  0  0  0  0  0
   16.1646   12.4587   60.9365 C   0  0  0  0  0  0
   16.0322   13.2101   62.0462 N   0  0  0  0  0  0
   14.8327   13.7959   62.2759 C   0  0  0  0  0  0
   14.0792   12.8469   60.1573 C   0  0  0  0  0  0
   13.8180   13.6311   61.3194 C   0  0  0  0  0  0
   12.5164   14.0731   61.2005 N   0  0  0  0  0  0
   11.9962   13.6361   60.0044 C   0  0  0  0  0  0
   12.9268   12.8832   59.2974 C   0  0  0  0  0  0
   14.5540   14.5468   63.3808 O   0  0  0  0  0  0
   12.7431   12.2134   57.9397 C   0  0  0  0  0  0
   13.9873   11.8207   57.2630 N   0  0  1  0  0  0
   13.8143   11.0124   56.0523 C   0  0  1  0  0  0
   15.1455   11.1268   55.2761 C   0  0  0  0  0  0
   15.8353   12.3399   55.8844 C   0  0  0  0  0  0
   14.7732   12.9523   56.7853 C   0  0  0  0  0  0
   17.3540   11.8008   60.7591 N   0  0  0  0  0  0
   13.3603    9.5515   56.2506 C   0  0  0  0  0  0
   13.3509    8.8907   55.0002 O   0  0  0  0  0  0
   11.9836   14.6291   61.8588 H   0  0  0  0  0  0
   10.9824   13.9098   59.7486 H   0  0  0  0  0  0
   13.6049   14.6305   63.5065 H   0  0  0  0  0  0
   12.1542   12.8516   57.2803 H   0  0  0  0  0  0
   12.1541   11.3116   58.1060 H   0  0  0  0  0  0
   13.0338   11.4623   55.4362 H   0  0  0  0  0  0
   15.7650   10.2313   55.3061 H   0  0  0  0  0  0
   14.9539   11.3441   54.2283 H   0  0  0  0  0  0
   16.7110   12.0599   56.4692 H   0  0  0  0  0  0
   16.1602   13.0339   55.1151 H   0  0  0  0  0  0
   15.2009   13.4932   57.6288 H   0  0  0  0  0  0
   14.1541   13.6770   56.2658 H   0  0  0  0  0  0
   17.3259   11.0568   60.0807 H   0  0  0  0  0  0
   17.9041   11.6994   61.5984 H   0  0  0  0  0  0
   12.3651    9.4898   56.6909 H   0  0  0  0  0  0
   14.0595    9.0322   56.9057 H   0  0  0  0  0  0
   12.9939    7.9946   55.0953 H   0  0  0  0  0  0
  1  5  2  0  0  0
  1  2  1  0  0  0
  2 17  1  0  0  0
  2  3  2  0  0  0
  3  4  1  0  0  0
  4  6  2  0  0  0
  4 10  1  0  0  0
  5  6  1  0  0  0
  5  9  1  0  0  0
  6  7  1  0  0  0
  7  8  1  0  0  0
  7 20  1  0  0  0
  8  9  2  0  0  0
  8 21  1  0  0  0
  9 11  1  0  0  0
 10 22  1  0  0  0
 11 12  1  0  0  0
 11 23  1  0  0  0
 11 24  1  0  0  0
 12 13  1  0  0  0
 12 16  1  0  0  0
 13 14  1  0  0  0
 13 18  1  0  0  0
 13 25  1  0  0  0
 14 15  1  0  0  0
 14 26  1  0  0  0
 14 27  1  0  0  0
 15 16  1  0  0  0
 15 28  1  0  0  0
 15 29  1  0  0  0
 16 30  1  0  0  0
 16 31  1  0  0  0
 17 32  1  0  0  0
 17 33  1  0  0  0
 18 19  1  0  0  0
 18 34  1  0  0  0
 18 35  1  0  0  0
 19 36  1  0  0  0
M  END
> <s_m_entry_id>
11992

> <s_m_entry_name>
dock_pv.195

> <s_m_Source_Path>
/home/csk/Desktop/cluster/DUD-E-result/pnph

> <s_m_Source_File>
dock_pv.maegz

> <i_m_Source_File_Index>
195

> <chembl_id>
CHEMBL1161895

> <chembl_pref_name>
None

> <i_lp_mmshare_version>
53161

> <r_lp_tautomer_probability>
1

> <s_lp_Force_Field>
OPLS_2005

> <r_lp_Energy>
39.462453

> <b_lp_Chiralities_Consistent>
1

> <s_lp_Variant>
CHEMBL4338_lig75-1

> <s_i_glide_gridfile>
glide-grid_3bgs

> <i_i_glide_lignum>
94

> <i_i_glide_rotatable_bonds>
5

> <r_i_docking_score>
-6.88139708389641

> <r_i_glide_ligand_efficiency>
-0.362178793889285

> <r_i_glide_ligand_efficiency_sa>
-0.966438489797753

> <r_i_glide_ligand_efficiency_ln>
-1.74458195962525

> <r_i_glide_gscore>
-6.88139708389641

> <r_i_glide_lipo>
-2.57531916446394

> <r_i_glide_hbond>
-0.406409084818751

> <r_i_glide_metal>
0

> <r_i_glide_rewards>
-1.90349991755665

> <r_i_glide_evdw>
-34.0019607543945

> <r_i_glide_ecoul>
-7.09642553329468

> <r_i_glide_erotb>
0.76839295065686

> <r_i_glide_esite>
0

> <r_i_glide_emodel>
-55.0992895014926

> <r_i_glide_energy>
-41.0983862876892

> <r_i_glide_einternal>
3.36072254180908

> <i_i_glide_confnum>
4

> <i_i_glide_posenum>
267

> <r_i_glide_eff_state_penalty>
0

> <s_user_duplicate_titles>
CHEMBL4338_lig75,643434

> <i_f3d_flags>
0

> <s_m_subgroup_title>
dock_pv

> <s_m_subgroupid>
dock_pv

> <b_m_subgroup_collapsed>
1

$$$$
CHEMBL4338_lig132
                    3D
 Schrodinger Suite 2021-1.
 32 34  0  0  1  0            999 V2000
   14.6279   12.6208   60.5389 C   0  0  0  0  0  0
   15.0179   14.1667   62.2435 C   0  0  0  0  0  0
   15.5940   13.5347   61.1021 C   0  0  0  0  0  0
   14.7892   11.7132   59.3230 C   0  0  2  0  0  0
   15.7476   12.2908   58.3940 N   0  0  2  0  0  0
   13.7546   13.6331   62.3817 N   0  0  0  0  0  0
   13.5284   12.7297   61.3756 C   0  0  0  0  0  0
   13.5217   11.4506   58.4775 C   0  0  2  0  0  0
   15.7577   15.1226   62.9535 C   0  0  0  0  0  0
   14.1773   10.9889   57.1607 C   0  0  2  0  0  0
   16.8362   13.8310   60.7002 N   0  0  0  0  0  0
   15.4633   11.8335   57.0480 C   0  0  1  0  0  0
   17.0079   15.4213   62.5171 N   0  0  0  0  0  0
   17.4726   14.7801   61.4204 C   0  0  0  0  0  0
   15.1596   15.7040   64.0354 O   0  0  0  0  0  0
   12.6459   12.5674   58.3399 O   0  0  0  0  0  0
   13.3541   10.9758   56.0134 O   0  0  0  0  0  0
   15.3775   13.0339   56.0998 C   0  0  0  0  0  0
   15.2000   10.7707   59.6916 H   0  0  0  0  0  0
   16.7104   12.2372   58.7008 H   0  0  0  0  0  0
   13.0535   13.8329   63.0902 H   0  0  0  0  0  0
   12.5729   12.2332   61.3300 H   0  0  0  0  0  0
   12.9554   10.6329   58.9238 H   0  0  0  0  0  0
   14.4803    9.9520   57.3244 H   0  0  0  0  0  0
   16.2862   11.2110   56.6991 H   0  0  0  0  0  0
   18.4532   15.0652   61.0672 H   0  0  0  0  0  0
   14.2749   15.3644   64.1694 H   0  0  0  0  0  0
   13.0300   13.1705   57.6968 H   0  0  0  0  0  0
   13.0270   10.0837   55.8641 H   0  0  0  0  0  0
   15.2040   12.7162   55.0711 H   0  0  0  0  0  0
   16.2997   13.6132   56.1099 H   0  0  0  0  0  0
   14.5675   13.7053   56.3831 H   0  0  0  0  0  0
  1  3  1  0  0  0
  1  4  1  0  0  0
  1  7  2  0  0  0
  2  3  1  0  0  0
  2  9  2  0  0  0
  2  6  1  0  0  0
  3 11  2  0  0  0
  4  5  1  0  0  0
  4  8  1  0  0  0
  4 19  1  0  0  0
  5 12  1  0  0  0
  5 20  1  0  0  0
  6  7  1  0  0  0
  6 21  1  0  0  0
  7 22  1  0  0  0
  8 10  1  0  0  0
  8 16  1  0  0  0
  8 23  1  0  0  0
  9 15  1  0  0  0
  9 13  1  0  0  0
 10 17  1  0  0  0
 10 12  1  0  0  0
 10 24  1  0  0  0
 11 14  1  0  0  0
 12 18  1  0  0  0
 12 25  1  0  0  0
 13 14  2  0  0  0
 14 26  1  0  0  0
 15 27  1  0  0  0
 16 28  1  0  0  0
 17 29  1  0  0  0
 18 30  1  0  0  0
 18 31  1  0  0  0
 18 32  1  0  0  0
M  END
> <s_m_entry_id>
11993

> <s_m_entry_name>
dock_pv.196

> <s_m_Source_Path>
/home/csk/Desktop/cluster/DUD-E-result/pnph

> <s_m_Source_File>
dock_pv.maegz

> <i_m_Source_File_Index>
196

> <chembl_id>
CHEMBL117065

> <chembl_pref_name>
None

> <i_lp_mmshare_version>
53161

> <r_lp_tautomer_probability>
1

> <s_lp_Force_Field>
OPLS_2005

> <r_lp_Energy>
39.083391

> <b_lp_Chiralities_Consistent>
1

> <s_lp_Variant>
CHEMBL4338_lig132-1

> <s_i_glide_gridfile>
glide-grid_3bgs

> <i_i_glide_lignum>
170

> <i_i_glide_rotatable_bonds>
4

> <r_i_docking_score>
-6.87844080999676

> <r_i_glide_ligand_efficiency>
-0.382135600555376

> <r_i_glide_ligand_efficiency_sa>
-1.00147858561147

> <r_i_glide_ligand_efficiency_ln>
-1.76806774212151

> <r_i_glide_gscore>
-6.87844080999676

> <r_i_glide_lipo>
-2.30538334403693

> <r_i_glide_hbond>
-0.32

> <r_i_glide_metal>
0

> <r_i_glide_rewards>
-1.73484931392008

> <r_i_glide_evdw>
-31.0825729370117

> <r_i_glide_ecoul>
-8.1360559463501

> <r_i_glide_erotb>
0.279513230281307

> <r_i_glide_esite>
-0.0231843435179504

> <r_i_glide_emodel>
-54.1071778964617

> <r_i_glide_energy>
-39.2186288833618

> <r_i_glide_einternal>
2.82395315170288

> <i_i_glide_confnum>
5

> <i_i_glide_posenum>
215

> <r_i_glide_eff_state_penalty>
0

> <s_user_duplicate_titles>
CHEMBL4338_lig132

> <i_f3d_flags>
0

> <s_m_subgroup_title>
dock_pv

> <s_m_subgroupid>
dock_pv

> <b_m_subgroup_collapsed>
1

$$$$
CHEMBL4338_lig152
                    3D
 Schrodinger Suite 2021-1.
 45 48  0  0  1  0            999 V2000
   13.7721   15.2241   61.2882 N   0  0  0  0  0  0
   14.7877   15.4573   62.2043 C   0  0  0  0  0  0
   12.7254   16.0244   61.7053 C   0  0  0  0  0  0
   13.7505   14.3234   60.1507 C   0  0  2  0  0  0
   14.2387   16.3865   63.1227 C   0  0  0  0  0  0
   12.9551   16.7090   62.7894 N   0  0  0  0  0  0
   16.0576   15.0367   62.2182 N   0  0  0  0  0  0
   13.0421   12.9791   60.3900 C   0  0  1  0  0  0
   16.3754   16.4470   64.1727 N   0  0  0  0  0  0
   15.0428   14.0386   59.7045 O   0  0  0  0  0  0
   15.0843   16.8608   64.1417 C   0  0  0  0  0  0
   16.7885   15.6006   63.2056 C   0  0  0  0  0  0
   14.2344   12.1205   60.7825 C   0  0  1  0  0  0
   15.3901   12.6765   59.9417 C   0  0  1  0  0  0
   11.5485   16.0625   61.0205 N   0  0  0  0  0  0
   15.5748   12.0006   58.5744 C   0  0  0  0  0  0
   14.3581   12.4840   57.3194 S   0  0  0  0  0  0
   11.9573   13.0340   61.3052 O   0  0  0  0  0  0
   18.1538   15.4766   63.0843 N   0  0  0  0  0  0
   14.5569   17.7808   65.0037 O   0  0  0  0  0  0
   14.5530   12.2330   62.1496 O   0  0  0  0  0  0
   14.3404   11.1292   56.2402 C   0  0  0  0  0  0
   15.3552   11.0268   55.3058 C   0  0  0  0  0  0
   13.3496   10.1625   56.3498 C   0  0  0  0  0  0
   13.3275    9.1128   55.4422 C   0  0  0  0  0  0
   15.3538    9.9497   54.4285 C   0  0  0  0  0  0
   14.3158    9.0320   54.4687 C   0  0  0  0  0  0
   13.2447   14.8739   59.3558 H   0  0  0  0  0  0
   12.6510   12.6381   59.4325 H   0  0  0  0  0  0
   14.0484   11.0697   60.5543 H   0  0  0  0  0  0
   16.3276   12.6220   60.4996 H   0  0  0  0  0  0
   10.6794   16.2324   61.5085 H   0  0  0  0  0  0
   11.4346   15.4635   60.2157 H   0  0  0  0  0  0
   15.5581   10.9166   58.6955 H   0  0  0  0  0  0
   16.5537   12.2335   58.1685 H   0  0  0  0  0  0
   12.2639   13.3935   62.1476 H   0  0  0  0  0  0
   18.6324   16.1196   63.6962 H   0  0  0  0  0  0
   18.4030   15.4316   62.1100 H   0  0  0  0  0  0
   13.7175   18.1019   64.6674 H   0  0  0  0  0  0
   13.8646   11.8341   62.6906 H   0  0  0  0  0  0
   16.1495   11.7591   55.3037 H   0  0  0  0  0  0
   12.5852   10.2318   57.1093 H   0  0  0  0  0  0
   12.5521    8.3641   55.4854 H   0  0  0  0  0  0
   16.1439    9.8254   53.7061 H   0  0  0  0  0  0
   14.2941    8.2315   53.7483 H   0  0  0  0  0  0
  1  2  1  0  0  0
  1  3  1  0  0  0
  1  4  1  0  0  0
  2  5  1  0  0  0
  2  7  2  0  0  0
  3  6  2  0  0  0
  3 15  1  0  0  0
  4  8  1  0  0  0
  4 10  1  0  0  0
  4 28  1  0  0  0
  5 11  2  0  0  0
  5  6  1  0  0  0
  7 12  1  0  0  0
  8 13  1  0  0  0
  8 18  1  0  0  0
  8 29  1  0  0  0
  9 12  2  0  0  0
  9 11  1  0  0  0
 10 14  1  0  0  0
 11 20  1  0  0  0
 12 19  1  0  0  0
 13 21  1  0  0  0
 13 14  1  0  0  0
 13 30  1  0  0  0
 14 16  1  0  0  0
 14 31  1  0  0  0
 15 32  1  0  0  0
 15 33  1  0  0  0
 16 17  1  0  0  0
 16 34  1  0  0  0
 16 35  1  0  0  0
 17 22  1  0  0  0
 18 36  1  0  0  0
 19 37  1  0  0  0
 19 38  1  0  0  0
 20 39  1  0  0  0
 21 40  1  0  0  0
 22 23  2  0  0  0
 22 24  1  0  0  0
 23 26  1  0  0  0
 23 41  1  0  0  0
 24 25  2  0  0  0
 24 42  1  0  0  0
 25 27  1  0  0  0
 25 43  1  0  0  0
 26 27  2  0  0  0
 26 44  1  0  0  0
 27 45  1  0  0  0
M  END
> <s_m_entry_id>
11994

> <s_m_entry_name>
dock_pv.197

> <s_m_Source_Path>
/home/csk/Desktop/cluster/DUD-E-result/pnph

> <s_m_Source_File>
dock_pv.maegz

> <i_m_Source_File_Index>
197

> <chembl_id>
CHEMBL603291

> <chembl_pref_name>
None

> <i_lp_mmshare_version>
53161

> <r_lp_tautomer_probability>
1

> <s_lp_Force_Field>
OPLS_2005

> <r_lp_Energy>
41.178171

> <b_lp_Chiralities_Consistent>
1

> <s_lp_Variant>
CHEMBL4338_lig152-1

> <s_i_glide_gridfile>
glide-grid_3bgs

> <i_i_glide_lignum>
205

> <i_i_glide_rotatable_bonds>
7

> <r_i_docking_score>
-6.87192749101666

> <r_i_glide_ligand_efficiency>
-0.254515833000617

> <r_i_glide_ligand_efficiency_sa>
-0.763547498163009

> <r_i_glide_ligand_efficiency_ln>
-1.59967142732969

> <r_i_glide_gscore>
-6.87192749101666

> <r_i_glide_lipo>
-2.22692480564424

> <r_i_glide_hbond>
-0.106796192364664

> <r_i_glide_metal>
0

> <r_i_glide_rewards>
-1.50077356280007

> <r_i_glide_evdw>
-39.8485717773438

> <r_i_glide_ecoul>
-9.9560489654541

> <r_i_glide_erotb>
0.511835024814355

> <r_i_glide_esite>
-0.0634320213367394

> <r_i_glide_emodel>
-66.598078123132

> <r_i_glide_energy>
-49.8046207427979

> <r_i_glide_einternal>
5.47949600219727

> <i_i_glide_confnum>
161

> <i_i_glide_posenum>
241

> <r_i_glide_eff_state_penalty>
0

> <s_user_duplicate_titles>
CHEMBL4338_lig152,605636

> <i_f3d_flags>
0

> <s_m_subgroup_title>
dock_pv

> <s_m_subgroupid>
dock_pv

> <b_m_subgroup_collapsed>
1

$$$$
CHEMBL4338_lig6
                    3D
 Schrodinger Suite 2021-1.
 31 33  0  0  1  0            999 V2000
   13.8068   13.7621   60.3908 C   0  0  0  0  0  0
   13.9266   14.8850   61.2413 C   0  0  0  0  0  0
   15.0023   13.0785   60.5269 N   0  0  0  0  0  0
   15.1322   14.8907   61.8864 N   0  0  0  0  0  0
   12.7436   13.4809   59.6288 N   0  0  0  0  0  0
   15.7292   13.8095   61.4567 C   0  0  0  0  0  0
   12.8362   15.7686   61.2830 C   0  0  0  0  0  0
   11.7540   15.5174   60.5057 N   0  0  0  0  0  0
   11.7628   14.4036   59.7368 C   0  0  0  0  0  0
   15.3688   11.7942   59.9170 C   0  0  0  0  0  0
   12.9517   16.8523   62.1067 O   0  0  0  0  0  0
   16.9533   13.4296   61.9155 N   0  0  0  0  0  0
   10.6736   14.2330   58.9061 N   0  0  0  0  0  0
   14.9452   11.6106   58.4608 C   0  0  0  0  0  0
   15.3529   12.5097   57.4707 C   0  0  0  0  0  0
   14.1400   10.5235   58.1181 C   0  0  0  0  0  0
   13.7539   10.3191   56.7974 C   0  0  0  0  0  0
   14.9776   12.3031   56.1449 C   0  0  0  0  0  0
   14.1844   11.2049   55.8153 C   0  0  0  0  0  0
   14.9434   11.0090   60.5454 H   0  0  0  0  0  0
   16.4517   11.6739   59.9639 H   0  0  0  0  0  0
   13.7746   16.8168   62.5994 H   0  0  0  0  0  0
   17.3536   13.9175   62.7010 H   0  0  0  0  0  0
   17.3450   12.5239   61.7020 H   0  0  0  0  0  0
   10.0611   15.0315   58.9907 H   0  0  0  0  0  0
   10.9686   13.8939   58.0015 H   0  0  0  0  0  0
   15.9536   13.3677   57.7280 H   0  0  0  0  0  0
   13.8109    9.8330   58.8786 H   0  0  0  0  0  0
   13.1346    9.4737   56.5325 H   0  0  0  0  0  0
   15.2943   12.9934   55.3767 H   0  0  0  0  0  0
   13.8926   11.0331   54.7902 H   0  0  0  0  0  0
  1  2  1  0  0  0
  1  3  1  0  0  0
  1  5  2  0  0  0
  2  4  1  0  0  0
  2  7  2  0  0  0
  3  6  1  0  0  0
  3 10  1  0  0  0
  4  6  2  0  0  0
  5  9  1  0  0  0
  6 12  1  0  0  0
  7 11  1  0  0  0
  7  8  1  0  0  0
  8  9  2  0  0  0
  9 13  1  0  0  0
 10 14  1  0  0  0
 10 20  1  0  0  0
 10 21  1  0  0  0
 11 22  1  0  0  0
 12 23  1  0  0  0
 12 24  1  0  0  0
 13 25  1  0  0  0
 13 26  1  0  0  0
 14 15  1  0  0  0
 14 16  2  0  0  0
 15 18  2  0  0  0
 15 27  1  0  0  0
 16 17  1  0  0  0
 16 28  1  0  0  0
 17 19  2  0  0  0
 17 29  1  0  0  0
 18 19  1  0  0  0
 18 30  1  0  0  0
 19 31  1  0  0  0
M  END
> <s_m_entry_id>
11995

> <s_m_entry_name>
dock_pv.198

> <s_m_Source_Path>
/home/csk/Desktop/cluster/DUD-E-result/pnph

> <s_m_Source_File>
dock_pv.maegz

> <i_m_Source_File_Index>
198

> <chembl_id>
CHEMBL8230

> <chembl_pref_name>
None

> <i_lp_mmshare_version>
53161

> <r_lp_tautomer_probability>
1

> <s_lp_Force_Field>
OPLS_2005

> <r_lp_Energy>
8.926337

> <b_lp_Chiralities_Consistent>
1

> <s_lp_Variant>
CHEMBL4338_lig6-1

> <s_i_glide_gridfile>
glide-grid_3bgs

> <i_i_glide_lignum>
6

> <i_i_glide_rotatable_bonds>
3

> <r_i_docking_score>
-6.86304488064386

> <r_i_glide_ligand_efficiency>
-0.36121288845494

> <r_i_glide_ligand_efficiency_sa>
-0.963861066146767

> <r_i_glide_ligand_efficiency_ln>
-1.73992928193154

> <r_i_glide_gscore>
-6.86304488064386

> <r_i_glide_lipo>
-2.14301261097566

> <r_i_glide_hbond>
-0.0401552161364063

> <r_i_glide_metal>
0

> <r_i_glide_rewards>
-2.98519274842397

> <r_i_glide_evdw>
-38.3691368103027

> <r_i_glide_ecoul>
-1.57889688014984

> <r_i_glide_erotb>
0.536708702827988

> <r_i_glide_esite>
-0.0761016353982037

> <r_i_glide_emodel>
-54.3964210559104

> <r_i_glide_energy>
-39.9480336904526

> <r_i_glide_einternal>
1.1885107755661

> <i_i_glide_confnum>
3

> <i_i_glide_posenum>
201

> <r_i_glide_eff_state_penalty>
0

> <s_user_duplicate_titles>
CHEMBL4338_lig6,3505

> <i_f3d_flags>
0

> <s_m_subgroup_title>
dock_pv

> <s_m_subgroupid>
dock_pv

> <b_m_subgroup_collapsed>
1

$$$$
CHEMBL4338_lig70
                    3D
 Schrodinger Suite 2021-1.
 32 33  0  0  1  0            999 V2000
   12.3291   12.6329   58.6251 N   0  0  0  0  0  0
   11.7619   13.5487   59.4369 C   0  0  0  0  0  0
   12.1427   13.8776   60.6889 N   0  0  0  0  0  0
   13.2436   13.2704   61.2024 C   0  0  0  0  0  0
   13.3793   11.9826   59.1370 C   0  0  0  0  0  0
   13.8864   12.3000   60.4279 C   0  0  0  0  0  0
   14.9747   11.4816   60.6372 N   0  0  0  0  0  0
   15.1272   10.6431   59.5618 C   0  0  0  0  0  0
   14.1500   10.8881   58.6077 C   0  0  0  0  0  0
   13.7541   13.5133   62.4455 O   0  0  0  0  0  0
   13.9014   10.1057   57.3356 C   0  0  0  0  0  0
   10.6874   14.2329   58.9061 N   0  0  0  0  0  0
   13.9176   10.8814   56.0910 N   0  0  2  0  0  0
   13.3539   10.0031   55.0657 C   0  0  0  0  0  0
   15.2251   11.3284   55.5818 C   0  0  0  0  0  0
   16.0433   12.2531   56.4984 C   0  0  0  0  0  0
   15.3254   13.4327   56.7775 O   0  0  0  0  0  0
   15.5674   11.4391   61.4568 H   0  0  0  0  0  0
   15.9118    9.8985   59.5804 H   0  0  0  0  0  0
   13.0952   13.9509   62.9969 H   0  0  0  0  0  0
   12.9004    9.6839   57.4445 H   0  0  0  0  0  0
   14.5539    9.2388   57.2551 H   0  0  0  0  0  0
   10.8240   14.4085   57.9207 H   0  0  0  0  0  0
   10.3224   14.9591   59.5109 H   0  0  0  0  0  0
   12.3224    9.7359   55.3037 H   0  0  0  0  0  0
   13.3540   10.4948   54.0986 H   0  0  0  0  0  0
   13.9209    9.0757   54.9571 H   0  0  0  0  0  0
   15.1427   11.8012   54.6025 H   0  0  0  0  0  0
   15.8326   10.4464   55.3702 H   0  0  0  0  0  0
   16.9539   12.5449   55.9823 H   0  0  0  0  0  0
   16.3636   11.7564   57.4118 H   0  0  0  0  0  0
   14.4319   13.1714   57.0292 H   0  0  0  0  0  0
  1  5  2  0  0  0
  1  2  1  0  0  0
  2  3  2  0  0  0
  2 12  1  0  0  0
  3  4  1  0  0  0
  4 10  1  0  0  0
  4  6  2  0  0  0
  5  6  1  0  0  0
  5  9  1  0  0  0
  6  7  1  0  0  0
  7  8  1  0  0  0
  7 18  1  0  0  0
  8  9  2  0  0  0
  8 19  1  0  0  0
  9 11  1  0  0  0
 10 20  1  0  0  0
 11 13  1  0  0  0
 11 21  1  0  0  0
 11 22  1  0  0  0
 12 23  1  0  0  0
 12 24  1  0  0  0
 13 14  1  0  0  0
 13 15  1  0  0  0
 14 25  1  0  0  0
 14 26  1  0  0  0
 14 27  1  0  0  0
 15 16  1  0  0  0
 15 28  1  0  0  0
 15 29  1  0  0  0
 16 17  1  0  0  0
 16 30  1  0  0  0
 16 31  1  0  0  0
 17 32  1  0  0  0
M  END
> <s_m_entry_id>
11996

> <s_m_entry_name>
dock_pv.199

> <s_m_Source_Path>
/home/csk/Desktop/cluster/DUD-E-result/pnph

> <s_m_Source_File>
dock_pv.maegz

> <i_m_Source_File_Index>
199

> <chembl_id>
CHEMBL1161898

> <chembl_pref_name>
None

> <i_lp_mmshare_version>
53161

> <r_lp_tautomer_probability>
1

> <s_lp_Force_Field>
OPLS_2005

> <r_lp_Energy>
13.030412

> <b_lp_Chiralities_Consistent>
1

> <s_lp_Variant>
CHEMBL4338_lig70-1

> <s_i_glide_gridfile>
glide-grid_3bgs

> <i_i_glide_lignum>
89

> <i_i_glide_rotatable_bonds>
6

> <r_i_docking_score>
-6.86211022967336

> <r_i_glide_ligand_efficiency>
-0.403653542921962

> <r_i_glide_ligand_efficiency_sa>
-1.03790692293901

> <r_i_glide_ligand_efficiency_ln>
-1.79017174724015

> <r_i_glide_gscore>
-6.86211022967336

> <r_i_glide_lipo>
-2.23897069940004

> <r_i_glide_hbond>
-0.649194099715367

> <r_i_glide_metal>
0

> <r_i_glide_rewards>
-2.01359765813159

> <r_i_glide_evdw>
-33.8696479797363

> <r_i_glide_ecoul>
-9.44185066223145

> <r_i_glide_erotb>
1.22473379843594

> <r_i_glide_esite>
-0.0753215725407683

> <r_i_glide_emodel>
-59.4182776339706

> <r_i_glide_energy>
-43.3114986419678

> <r_i_glide_einternal>
3.11393117904663

> <i_i_glide_confnum>
2

> <i_i_glide_posenum>
146

> <r_i_glide_eff_state_penalty>
0

> <s_user_duplicate_titles>
CHEMBL4338_lig70,643437

> <i_f3d_flags>
0

> <s_m_subgroup_title>
dock_pv

> <s_m_subgroupid>
dock_pv

> <b_m_subgroup_collapsed>
1

$$$$
CHEMBL4338_lig129
                    3D
 Schrodinger Suite 2021-1.
 34 36  0  0  1  0            999 V2000
   14.6022   13.4927   60.1758 C   0  0  0  0  0  0
   15.4059   13.3509   61.3454 C   0  0  0  0  0  0
   15.0619   12.5480   59.1941 C   0  0  0  0  0  0
   14.1760   15.1058   62.3467 N   0  0  0  0  0  0
   15.1747   14.1947   62.4401 C   0  0  0  0  0  0
   13.6168   14.3957   60.1059 N   0  0  0  0  0  0
   16.2921   12.3226   61.0893 N   0  0  0  0  0  0
   13.4479   15.1446   61.2141 C   0  0  0  0  0  0
   14.5281   12.3913   57.7883 C   0  0  2  0  0  0
   16.0778   11.8404   59.8224 C   0  0  0  0  0  0
   13.6689   11.2263   57.6891 N   0  0  1  0  0  0
   15.5999   12.2161   56.7115 C   0  0  0  0  0  0
   13.6044   10.8956   56.2656 C   0  0  1  0  0  0
   14.8829   11.4578   55.6050 C   0  0  2  0  0  0
   15.9803   14.0459   63.5334 O   0  0  0  0  0  0
   12.3762   16.0119   61.2174 N   0  0  0  0  0  0
   15.7343   10.5668   54.9060 O   0  0  0  0  0  0
   13.3013    9.4069   55.9706 C   0  0  0  0  0  0
   12.0162    9.0330   56.4202 O   0  0  0  0  0  0
   16.9908   11.9246   61.7027 H   0  0  0  0  0  0
   13.9096   13.2612   57.5541 H   0  0  0  0  0  0
   16.6850   11.0230   59.4582 H   0  0  0  0  0  0
   14.0682   10.4670   58.2218 H   0  0  0  0  0  0
   16.4410   11.6387   57.0976 H   0  0  0  0  0  0
   16.0021   13.1692   56.3669 H   0  0  0  0  0  0
   12.7765   11.4752   55.8565 H   0  0  0  0  0  0
   14.5534   12.2196   54.9060 H   0  0  0  0  0  0
   16.5896   13.3163   63.4245 H   0  0  0  0  0  0
   11.6639   15.7482   60.5548 H   0  0  0  0  0  0
   12.1208   16.2316   62.1661 H   0  0  0  0  0  0
   15.2039   10.0206   54.3171 H   0  0  0  0  0  0
   14.0598    8.7547   56.4057 H   0  0  0  0  0  0
   13.3257    9.2281   54.8949 H   0  0  0  0  0  0
   11.8351    8.1312   56.1066 H   0  0  0  0  0  0
  1  2  1  0  0  0
  1  3  1  0  0  0
  1  6  2  0  0  0
  2  5  2  0  0  0
  2  7  1  0  0  0
  3  9  1  0  0  0
  3 10  2  0  0  0
  4  8  2  0  0  0
  4  5  1  0  0  0
  5 15  1  0  0  0
  6  8  1  0  0  0
  7 10  1  0  0  0
  7 20  1  0  0  0
  8 16  1  0  0  0
  9 11  1  0  0  0
  9 12  1  0  0  0
  9 21  1  0  0  0
 10 22  1  0  0  0
 11 13  1  0  0  0
 11 23  1  0  0  0
 12 14  1  0  0  0
 12 24  1  0  0  0
 12 25  1  0  0  0
 13 18  1  0  0  0
 13 14  1  0  0  0
 13 26  1  0  0  0
 14 17  1  0  0  0
 14 27  1  0  0  0
 15 28  1  0  0  0
 16 29  1  0  0  0
 16 30  1  0  0  0
 17 31  1  0  0  0
 18 19  1  0  0  0
 18 32  1  0  0  0
 18 33  1  0  0  0
 19 34  1  0  0  0
M  END
> <s_m_entry_id>
11997

> <s_m_entry_name>
dock_pv.200

> <s_m_Source_Path>
/home/csk/Desktop/cluster/DUD-E-result/pnph

> <s_m_Source_File>
dock_pv.maegz

> <i_m_Source_File_Index>
200

> <chembl_id>
CHEMBL114781

> <chembl_pref_name>
None

> <i_lp_mmshare_version>
53161

> <r_lp_tautomer_probability>
1

> <s_lp_Force_Field>
OPLS_2005

> <r_lp_Energy>
27.828453

> <b_lp_Chiralities_Consistent>
1

> <s_lp_Variant>
CHEMBL4338_lig129-1

> <s_i_glide_gridfile>
glide-grid_3bgs

> <i_i_glide_lignum>
166

> <i_i_glide_rotatable_bonds>
5

> <r_i_docking_score>
-6.84801622544867

> <r_i_glide_ligand_efficiency>
-0.360421906602562

> <r_i_glide_ligand_efficiency_sa>
-0.961750408869844

> <r_i_glide_ligand_efficiency_ln>
-1.73611919505365

> <r_i_glide_gscore>
-6.84801622544867

> <r_i_glide_lipo>
-2.26961427614306

> <r_i_glide_hbond>
-0.456

> <r_i_glide_metal>
0

> <r_i_glide_rewards>
-1.71471606022071

> <r_i_glide_evdw>
-32.424430847168

> <r_i_glide_ecoul>
-8.61446952819824

> <r_i_glide_erotb>
0.505706082503229

> <r_i_glide_esite>
0

> <r_i_glide_emodel>
-55.9899265944384

> <r_i_glide_energy>
-41.0389003753662

> <r_i_glide_einternal>
1.87430500984192

> <i_i_glide_confnum>
13

> <i_i_glide_posenum>
348

> <r_i_glide_eff_state_penalty>
0

> <s_user_duplicate_titles>
CHEMBL4338_lig129

> <i_f3d_flags>
0

> <s_m_subgroup_title>
dock_pv

> <s_m_subgroupid>
dock_pv

> <b_m_subgroup_collapsed>
1

$$$$
CHEMBL4338_lig10
                    3D
 Schrodinger Suite 2021-1.
 31 33  0  0  1  0            999 V2000
   13.5599   13.2515   60.4362 N   0  0  0  0  0  0
   14.3006   13.8456   61.4156 C   0  0  0  0  0  0
   13.9562   15.1268   61.8721 C   0  0  0  0  0  0
   12.5015   13.9412   59.9210 C   0  0  0  0  0  0
   12.1513   15.1866   60.3108 N   0  0  0  0  0  0
   15.3971   13.4295   62.0987 N   0  0  0  0  0  0
   12.8505   15.7909   61.3032 C   0  0  0  0  0  0
   14.8435   15.4800   62.8431 N   0  0  0  0  0  0
   15.6301   14.4322   62.9063 C   0  0  0  0  0  0
   13.9047   11.8781   59.9575 C   0  0  0  0  0  0
   12.5543   17.0330   61.7892 O   0  0  0  0  0  0
   11.7079   13.4330   58.9060 N   0  0  0  0  0  0
   16.6565   14.3837   63.7797 N   0  0  0  0  0  0
   14.2345   11.7839   58.4682 C   0  0  0  0  0  0
   15.0936   12.7097   57.8663 C   0  0  0  0  0  0
   13.6634   10.7636   57.7033 C   0  0  0  0  0  0
   13.9216   10.6838   56.3391 C   0  0  0  0  0  0
   15.3549   12.6291   56.5011 C   0  0  0  0  0  0
   14.7659   11.6176   55.7443 C   0  0  0  0  0  0
   14.7545   11.5114   60.5371 H   0  0  0  0  0  0
   13.0494   11.2541   60.2235 H   0  0  0  0  0  0
   13.1918   17.2587   62.4747 H   0  0  0  0  0  0
   11.2732   14.1936   58.4041 H   0  0  0  0  0  0
   12.1571   12.6985   58.3783 H   0  0  0  0  0  0
   17.1748   13.5284   63.8872 H   0  0  0  0  0  0
   16.7701   15.1121   64.4644 H   0  0  0  0  0  0
   15.5502   13.4943   58.4517 H   0  0  0  0  0  0
   13.0056   10.0382   58.1581 H   0  0  0  0  0  0
   13.4693    9.9018   55.7446 H   0  0  0  0  0  0
   16.0068   13.3480   56.0280 H   0  0  0  0  0  0
   14.9537   11.5583   54.6840 H   0  0  0  0  0  0
  1  2  1  0  0  0
  1  4  1  0  0  0
  1 10  1  0  0  0
  2  3  1  0  0  0
  2  6  2  0  0  0
  3  8  1  0  0  0
  3  7  2  0  0  0
  4  5  2  0  0  0
  4 12  1  0  0  0
  5  7  1  0  0  0
  6  9  1  0  0  0
  7 11  1  0  0  0
  8  9  2  0  0  0
  9 13  1  0  0  0
 10 14  1  0  0  0
 10 20  1  0  0  0
 10 21  1  0  0  0
 11 22  1  0  0  0
 12 23  1  0  0  0
 12 24  1  0  0  0
 13 25  1  0  0  0
 13 26  1  0  0  0
 14 15  2  0  0  0
 14 16  1  0  0  0
 15 18  1  0  0  0
 15 27  1  0  0  0
 16 17  2  0  0  0
 16 28  1  0  0  0
 17 19  1  0  0  0
 17 29  1  0  0  0
 18 19  2  0  0  0
 18 30  1  0  0  0
 19 31  1  0  0  0
M  END
> <s_m_entry_id>
11998

> <s_m_entry_name>
dock_pv.201

> <s_m_Source_Path>
/home/csk/Desktop/cluster/DUD-E-result/pnph

> <s_m_Source_File>
dock_pv.maegz

> <i_m_Source_File_Index>
201

> <chembl_id>
CHEMBL285258

> <chembl_pref_name>
None

> <i_lp_mmshare_version>
53161

> <r_lp_tautomer_probability>
1

> <s_lp_Force_Field>
OPLS_2005

> <r_lp_Energy>
19.944084

> <b_lp_Chiralities_Consistent>
1

> <s_lp_Variant>
CHEMBL4338_lig10-1

> <s_i_glide_gridfile>
glide-grid_3bgs

> <i_i_glide_lignum>
10

> <i_i_glide_rotatable_bonds>
3

> <r_i_docking_score>
-6.83397283001325

> <r_i_glide_ligand_efficiency>
-0.359682780527013

> <r_i_glide_ligand_efficiency_sa>
-0.959778123633173

> <r_i_glide_ligand_efficiency_ln>
-1.73255889268629

> <r_i_glide_gscore>
-6.83397283001325

> <r_i_glide_lipo>
-2.28291898702194

> <r_i_glide_hbond>
-0.0734046027343377

> <r_i_glide_metal>
0

> <r_i_glide_rewards>
-2.80135349863294

> <r_i_glide_evdw>
-38.8914566040039

> <r_i_glide_ecoul>
-1.4573061466217

> <r_i_glide_erotb>
0.536708702827988

> <r_i_glide_esite>
-0.0498356922585747

> <r_i_glide_emodel>
-55.7453373740164

> <r_i_glide_energy>
-40.3487627506256

> <r_i_glide_einternal>
1.45762050151825

> <i_i_glide_confnum>
3

> <i_i_glide_posenum>
122

> <r_i_glide_eff_state_penalty>
0

> <s_user_duplicate_titles>
CHEMBL4338_lig10

> <i_f3d_flags>
0

> <s_m_subgroup_title>
dock_pv

> <s_m_subgroupid>
dock_pv

> <b_m_subgroup_collapsed>
1

$$$$
CHEMBL4338_lig88
                    3D
 Schrodinger Suite 2021-1.
 29 31  0  0  1  0            999 V2000
   12.0950   15.7269   61.3105 N   0  0  0  0  0  0
   13.0828   14.7479   61.0990 C   0  0  0  0  0  0
   12.9859   13.9213   60.1167 N   0  0  0  0  0  0
   13.9448   12.9518   60.0017 C   0  0  0  0  0  0
   14.0402   11.9052   59.0668 C   0  0  0  0  0  0
   13.0742   11.6246   57.9325 C   0  0  0  0  0  0
   13.6974   10.9391   56.7251 C   0  0  0  0  0  0
   13.1702    9.7430   56.2248 C   0  0  0  0  0  0
   13.7452    9.1518   55.1007 C   0  0  0  0  0  0
   14.8399    9.7760   54.5061 C   0  0  0  0  0  0
   15.3539   10.9447   54.9635 N   0  0  0  0  0  0
   14.7826   11.5108   56.0551 C   0  0  0  0  0  0
   15.1951   11.1975   59.4170 C   0  0  0  0  0  0
   15.7866   11.7808   60.5086 N   0  0  0  0  0  0
   15.0255   12.8523   60.8796 C   0  0  0  0  0  0
   15.1988   13.7917   61.9737 C   0  0  0  0  0  0
   16.1015   13.8425   62.8055 O   0  0  0  0  0  0
   14.1542   14.6805   61.9713 N   0  0  0  0  0  0
   11.2068   15.5796   60.8513 H   0  0  0  0  0  0
   11.9719   16.0502   62.2589 H   0  0  0  0  0  0
   12.6356   12.5598   57.5787 H   0  0  0  0  0  0
   12.2395   11.0355   58.3114 H   0  0  0  0  0  0
   12.3174    9.2714   56.6917 H   0  0  0  0  0  0
   13.3449    8.2327   54.6992 H   0  0  0  0  0  0
   15.3144    9.3430   53.6364 H   0  0  0  0  0  0
   15.2113   12.4441   56.3902 H   0  0  0  0  0  0
   15.6363   10.3166   58.9728 H   0  0  0  0  0  0
   16.6231   11.4601   60.9788 H   0  0  0  0  0  0
   14.1861   15.3430   62.7281 H   0  0  0  0  0  0
  1  2  1  0  0  0
  1 19  1  0  0  0
  1 20  1  0  0  0
  2  3  2  0  0  0
  2 18  1  0  0  0
  3  4  1  0  0  0
  4  5  1  0  0  0
  4 15  2  0  0  0
  5  6  1  0  0  0
  5 13  2  0  0  0
  6  7  1  0  0  0
  6 21  1  0  0  0
  6 22  1  0  0  0
  7  8  2  0  0  0
  7 12  1  0  0  0
  8  9  1  0  0  0
  8 23  1  0  0  0
  9 10  2  0  0  0
  9 24  1  0  0  0
 10 11  1  0  0  0
 10 25  1  0  0  0
 11 12  2  0  0  0
 12 26  1  0  0  0
 13 14  1  0  0  0
 13 27  1  0  0  0
 14 15  1  0  0  0
 14 28  1  0  0  0
 15 16  1  0  0  0
 16 17  2  0  0  0
 16 18  1  0  0  0
 18 29  1  0  0  0
M  END
> <s_m_entry_id>
11999

> <s_m_entry_name>
dock_pv.202

> <s_m_Source_Path>
/home/csk/Desktop/cluster/DUD-E-result/pnph

> <s_m_Source_File>
dock_pv.maegz

> <i_m_Source_File_Index>
202

> <chembl_id>
CHEMBL311300

> <chembl_pref_name>
PELDESINE

> <i_lp_mmshare_version>
53161

> <r_lp_tautomer_probability>
1

> <s_lp_Force_Field>
OPLS_2005

> <r_lp_Energy>
14.963871

> <b_lp_Chiralities_Consistent>
1

> <s_lp_Variant>
CHEMBL4338_lig88-1

> <s_i_glide_gridfile>
glide-grid_3bgs

> <i_i_glide_lignum>
107

> <i_i_glide_rotatable_bonds>
2

> <r_i_docking_score>
-6.83164947608993

> <r_i_glide_ligand_efficiency>
-0.379536082004996

> <r_i_glide_ligand_efficiency_sa>
-0.994665919748038

> <r_i_glide_ligand_efficiency_ln>
-1.75604027101625

> <r_i_glide_gscore>
-6.83164947608993

> <r_i_glide_lipo>
-2.39620175640927

> <r_i_glide_hbond>
-0.32

> <r_i_glide_metal>
0

> <r_i_glide_rewards>
-1.93640862055346

> <r_i_glide_evdw>
-36.8774261474609

> <r_i_glide_ecoul>
-6.16848087310791

> <r_i_glide_erotb>
0.595196374359332

> <r_i_glide_esite>
-0.00509203514729786

> <r_i_glide_emodel>
-59.5311551632527

> <r_i_glide_energy>
-43.0459070205688

> <r_i_glide_einternal>
0.578113734722137

> <i_i_glide_confnum>
2

> <i_i_glide_posenum>
366

> <r_i_glide_eff_state_penalty>
0

> <s_user_duplicate_titles>
CHEMBL4338_lig88,128309

> <i_f3d_flags>
0

> <s_m_subgroup_title>
dock_pv

> <s_m_subgroupid>
dock_pv

> <b_m_subgroup_collapsed>
1

$$$$
CHEMBL4338_lig150
                    3D
 Schrodinger Suite 2021-1.
 27 29  0  0  1  0            999 V2000
   14.3666   12.4294   57.9741 C   0  0  0  0  0  0
   13.9654   12.9283   59.3648 C   0  0  1  0  0  0
   15.3134   13.0320   57.2841 N   0  0  0  0  0  0
   13.8923   11.2920   57.2386 C   0  0  0  0  0  0
   14.6773   11.2509   56.0660 C   0  0  0  0  0  0
   15.5180   12.3400   56.1489 N   0  0  0  0  0  0
   14.5318   14.2116   59.6242 O   0  0  0  0  0  0
   12.4655   13.1435   59.6645 C   0  0  1  0  0  0
   12.4629   14.2518   60.7400 C   0  0  1  0  0  0
   13.9180   14.7416   60.7910 C   0  0  1  0  0  0
   14.4983   10.2075   55.1524 C   0  0  0  0  0  0
   13.5156    9.3097   55.3766 N   0  0  0  0  0  0
   12.9540   10.3690   57.4827 N   0  0  0  0  0  0
   12.7874    9.4330   56.5060 C   0  0  0  0  0  0
   11.5958   15.3454   60.4741 O   0  0  0  0  0  0
   14.9138   13.8332   62.5338 I   0  0  0  0  0  0
   11.6943   13.4330   58.5060 O   0  0  0  0  0  0
   15.3540   10.1301   54.1060 O   0  0  0  0  0  0
   14.3986   12.2066   60.0604 H   0  0  0  0  0  0
   16.2247   12.6338   55.4895 H   0  0  0  0  0  0
   12.0674   12.2330   60.1042 H   0  0  0  0  0  0
   12.1794   13.8291   61.7058 H   0  0  0  0  0  0
   14.0172   15.8270   60.8298 H   0  0  0  0  0  0
   11.9847    8.7173   56.6235 H   0  0  0  0  0  0
   10.6804   15.0430   60.5284 H   0  0  0  0  0  0
   12.1540   14.1066   57.9784 H   0  0  0  0  0  0
   15.1843    9.3286   53.6029 H   0  0  0  0  0  0
  1  2  1  0  0  0
  1  3  2  0  0  0
  1  4  1  0  0  0
  2  7  1  0  0  0
  2  8  1  0  0  0
  2 19  1  0  0  0
  3  6  1  0  0  0
  4  5  1  0  0  0
  4 13  2  0  0  0
  5 11  2  0  0  0
  5  6  1  0  0  0
  6 20  1  0  0  0
  7 10  1  0  0  0
  8  9  1  0  0  0
  8 17  1  0  0  0
  8 21  1  0  0  0
  9 15  1  0  0  0
  9 10  1  0  0  0
  9 22  1  0  0  0
 10 16  1  0  0  0
 10 23  1  0  0  0
 11 18  1  0  0  0
 11 12  1  0  0  0
 12 14  2  0  0  0
 13 14  1  0  0  0
 14 24  1  0  0  0
 15 25  1  0  0  0
 17 26  1  0  0  0
 18 27  1  0  0  0
M  END
> <s_m_entry_id>
12000

> <s_m_entry_name>
dock_pv.203

> <s_m_Source_Path>
/home/csk/Desktop/cluster/DUD-E-result/pnph

> <s_m_Source_File>
dock_pv.maegz

> <i_m_Source_File_Index>
203

> <chembl_id>
CHEMBL606329

> <chembl_pref_name>
None

> <i_lp_mmshare_version>
53161

> <r_lp_tautomer_probability>
1

> <s_lp_Force_Field>
OPLS_2005

> <r_lp_Energy>
23.004818

> <b_lp_Chiralities_Consistent>
1

> <s_lp_Variant>
CHEMBL4338_lig150-2

> <s_i_glide_gridfile>
glide-grid_3bgs

> <i_i_glide_lignum>
196

> <i_i_glide_rotatable_bonds>
4

> <r_i_docking_score>
-6.81636978448716

> <r_i_glide_ligand_efficiency>
-0.378687210249286

> <r_i_glide_ligand_efficiency_sa>
-0.992441246401618

> <r_i_glide_ligand_efficiency_ln>
-1.75211270507817

> <r_i_glide_gscore>
-6.81636978448716

> <r_i_glide_lipo>
-2.09586728205102

> <r_i_glide_hbond>
-0.32

> <r_i_glide_metal>
0

> <r_i_glide_rewards>
-1.12396977672665

> <r_i_glide_evdw>
-33.6157302856445

> <r_i_glide_ecoul>
-11.6049146652222

> <r_i_glide_erotb>
0.144990988356064

> <r_i_glide_esite>
0

> <r_i_glide_emodel>
-59.5373447147143

> <r_i_glide_energy>
-45.2206449508667

> <r_i_glide_einternal>
3.74946069717407

> <i_i_glide_confnum>
7

> <i_i_glide_posenum>
280

> <r_i_glide_eff_state_penalty>
0

> <s_user_duplicate_titles>
CHEMBL4338_lig150

> <i_f3d_flags>
0

> <s_m_subgroup_title>
dock_pv

> <s_m_subgroupid>
dock_pv

> <b_m_subgroup_collapsed>
1

$$$$
CHEMBL4338_lig135
                    3D
 Schrodinger Suite 2021-1.
 42 44  0  0  1  0            999 V2000
   14.2398   12.8702   59.2980 C   0  0  0  0  0  0
   13.7664   11.3778   57.5888 C   0  0  0  0  0  0
   14.4937   12.5555   57.9162 C   0  0  0  0  0  0
   14.8508   13.9853   60.1133 C   0  0  2  0  0  0
   15.8250   13.5254   61.1111 N   0  0  2  0  0  0
   13.8316   14.8390   60.8896 C   0  0  1  0  0  0
   13.0664   11.0330   58.7179 N   0  0  0  0  0  0
   16.0709   14.7619   61.8703 C   0  0  1  0  0  0
   14.6223   15.2175   62.1611 C   0  0  2  0  0  0
   13.3579   11.9043   59.7330 C   0  0  0  0  0  0
   13.8929   10.8057   56.3182 C   0  0  0  0  0  0
   15.2932   13.1497   57.0242 N   0  0  0  0  0  0
   14.7155   11.4133   55.4273 N   0  0  0  0  0  0
   15.3540   12.5443   55.8141 C   0  0  0  0  0  0
   13.1913    9.6588   56.0744 O   0  0  0  0  0  0
   13.3544   15.9203   60.1060 O   0  0  0  0  0  0
   14.1540   14.5358   63.3060 O   0  0  0  0  0  0
   17.0341   12.9077   60.5672 C   0  0  0  0  0  0
   16.9540   14.6651   63.1531 C   0  0  0  0  0  0
   17.5990   15.9037   63.3914 O   0  0  0  0  0  0
   16.8340   11.4191   60.2274 C   0  0  0  0  0  0
   18.1379   10.6339   60.1060 C   0  0  0  0  0  0
   15.3750   14.6308   59.4030 H   0  0  0  0  0  0
   12.9730   14.2339   61.1881 H   0  0  0  0  0  0
   12.4808   10.2196   58.8456 H   0  0  0  0  0  0
   16.5569   15.4543   61.1815 H   0  0  0  0  0  0
   14.5844   16.2835   62.3618 H   0  0  0  0  0  0
   12.9540   11.7509   60.7222 H   0  0  0  0  0  0
   15.9605   13.0330   55.0714 H   0  0  0  0  0  0
   13.3514    9.3107   55.1936 H   0  0  0  0  0  0
   13.0837   15.5475   59.2606 H   0  0  0  0  0  0
   13.1958   14.6330   63.3899 H   0  0  0  0  0  0
   17.3633   13.4778   59.7060 H   0  0  0  0  0  0
   17.8510   12.9670   61.2732 H   0  0  0  0  0  0
   17.7540   13.9510   63.0270 H   0  0  0  0  0  0
   16.4311   14.3151   64.0422 H   0  0  0  0  0  0
   17.9469   15.9023   64.2874 H   0  0  0  0  0  0
   16.1247   10.9446   60.9060 H   0  0  0  0  0  0
   16.3875   11.3386   59.2405 H   0  0  0  0  0  0
   17.9134    9.5847   59.9295 H   0  0  0  0  0  0
   18.7613   11.0330   59.3060 H   0  0  0  0  0  0
   18.7272   10.6682   61.0124 H   0  0  0  0  0  0
  1  3  1  0  0  0
  1  4  1  0  0  0
  1 10  2  0  0  0
  2  3  1  0  0  0
  2  7  1  0  0  0
  2 11  2  0  0  0
  3 12  2  0  0  0
  4  5  1  0  0  0
  4  6  1  0  0  0
  4 23  1  0  0  0
  5  8  1  0  0  0
  5 18  1  0  0  0
  6  9  1  0  0  0
  6 16  1  0  0  0
  6 24  1  0  0  0
  7 10  1  0  0  0
  7 25  1  0  0  0
  8  9  1  0  0  0
  8 19  1  0  0  0
  8 26  1  0  0  0
  9 17  1  0  0  0
  9 27  1  0  0  0
 10 28  1  0  0  0
 11 13  1  0  0  0
 11 15  1  0  0  0
 12 14  1  0  0  0
 13 14  2  0  0  0
 14 29  1  0  0  0
 15 30  1  0  0  0
 16 31  1  0  0  0
 17 32  1  0  0  0
 18 21  1  0  0  0
 18 33  1  0  0  0
 18 34  1  0  0  0
 19 20  1  0  0  0
 19 35  1  0  0  0
 19 36  1  0  0  0
 20 37  1  0  0  0
 21 22  1  0  0  0
 21 38  1  0  0  0
 21 39  1  0  0  0
 22 40  1  0  0  0
 22 41  1  0  0  0
 22 42  1  0  0  0
M  END
> <s_m_entry_id>
12001

> <s_m_entry_name>
dock_pv.204

> <s_m_Source_Path>
/home/csk/Desktop/cluster/DUD-E-result/pnph

> <s_m_Source_File>
dock_pv.maegz

> <i_m_Source_File_Index>
204

> <chembl_id>
CHEMBL542702

> <chembl_pref_name>
None

> <i_lp_mmshare_version>
53161

> <r_lp_tautomer_probability>
1

> <s_lp_Force_Field>
OPLS_2005

> <r_lp_Energy>
52.727544

> <b_lp_Chiralities_Consistent>
1

> <s_lp_Variant>
CHEMBL4338_lig135-2

> <s_i_glide_gridfile>
glide-grid_3bgs

> <i_i_glide_lignum>
177

> <i_i_glide_rotatable_bonds>
8

> <r_i_docking_score>
-6.80752219228057

> <r_i_glide_ligand_efficiency>
-0.309432826921844

> <r_i_glide_ligand_efficiency_sa>
-0.867042950337532

> <r_i_glide_ligand_efficiency_ln>
-1.66400673419859

> <r_i_glide_gscore>
-6.80752219228057

> <r_i_glide_lipo>
-2.60896255218739

> <r_i_glide_hbond>
-0.421226073494279

> <r_i_glide_metal>
0

> <r_i_glide_rewards>
-1.84015378787879

> <r_i_glide_evdw>
-32.5383033752441

> <r_i_glide_ecoul>
-5.96033000946045

> <r_i_glide_erotb>
0.583784891461165

> <r_i_glide_esite>
0

> <r_i_glide_emodel>
-50.0292143494785

> <r_i_glide_energy>
-38.4986333847046

> <r_i_glide_einternal>
8.3023796081543

> <i_i_glide_confnum>
19

> <i_i_glide_posenum>
103

> <r_i_glide_eff_state_penalty>
0

> <s_user_duplicate_titles>
CHEMBL4338_lig135,546787

> <i_f3d_flags>
0

> <s_m_subgroup_title>
dock_pv

> <s_m_subgroupid>
dock_pv

> <b_m_subgroup_collapsed>
1

$$$$
CHEMBL4338_lig135
                    3D
 Schrodinger Suite 2021-1.
 42 44  0  0  1  0            999 V2000
   13.7943   12.9924   58.9261 C   0  0  0  0  0  0
   13.7949   11.3224   57.3159 C   0  0  0  0  0  0
   14.3315   12.6037   57.6500 C   0  0  0  0  0  0
   13.9995   14.2334   59.7648 C   0  0  2  0  0  0
   14.5860   13.9356   61.0747 N   0  0  2  0  0  0
   12.7103   15.0460   60.0236 C   0  0  2  0  0  0
   12.9970   10.9505   58.3641 N   0  0  0  0  0  0
   14.4552   15.2334   61.7576 C   0  0  1  0  0  0
   13.1700   15.9251   61.1874 C   0  0  2  0  0  0
   13.0334   11.9265   59.3156 C   0  0  0  0  0  0
   14.1460   10.7006   56.1150 C   0  0  0  0  0  0
   15.1956   13.2221   56.8419 N   0  0  0  0  0  0
   15.0194   11.3426   55.3060 N   0  0  0  0  0  0
   15.4906   12.5472   55.7060 C   0  0  0  0  0  0
   13.5899    9.4810   55.8493 O   0  0  0  0  0  0
   11.5307   14.2787   60.2869 O   0  0  0  0  0  0
   12.1540   16.2331   62.1060 O   0  0  0  0  0  0
   15.9833   13.4588   60.9857 C   0  0  0  0  0  0
   14.5538   15.1749   63.3055 C   0  0  0  0  0  0
   15.8843   15.0763   63.7810 O   0  0  0  0  0  0
   16.0966   11.9259   60.8213 C   0  0  0  0  0  0
   17.5329   11.4331   60.6259 C   0  0  0  0  0  0
   14.7340   14.8810   59.3060 H   0  0  0  0  0  0
   12.5218   15.6462   59.1333 H   0  0  0  0  0  0
   12.5105   10.0732   58.4835 H   0  0  0  0  0  0
   15.2989   15.8330   61.4188 H   0  0  0  0  0  0
   13.3701   16.8984   60.7478 H   0  0  0  0  0  0
   12.5540   11.8330   60.2686 H   0  0  0  0  0  0
   16.1541   13.0330   55.0207 H   0  0  0  0  0  0
   13.8649    9.1305   54.9987 H   0  0  0  0  0  0
   10.8351   14.8721   60.5946 H   0  0  0  0  0  0
   11.9453   15.4282   62.6015 H   0  0  0  0  0  0
   16.5293   13.9679   60.1891 H   0  0  0  0  0  0
   16.5392   13.7180   61.8842 H   0  0  0  0  0  0
   13.9268   14.3799   63.7063 H   0  0  0  0  0  0
   14.1880   16.1114   63.7279 H   0  0  0  0  0  0
   15.8659   15.0330   64.7403 H   0  0  0  0  0  0
   15.6770   11.4518   61.7057 H   0  0  0  0  0  0
   15.5328   11.5455   59.9792 H   0  0  0  0  0  0
   17.5581   10.3496   60.5062 H   0  0  0  0  0  0
   17.9800   11.8641   59.7294 H   0  0  0  0  0  0
   18.1540   11.6843   61.4832 H   0  0  0  0  0  0
  1  3  1  0  0  0
  1  4  1  0  0  0
  1 10  2  0  0  0
  2  3  1  0  0  0
  2  7  1  0  0  0
  2 11  2  0  0  0
  3 12  2  0  0  0
  4  5  1  0  0  0
  4  6  1  0  0  0
  4 23  1  0  0  0
  5  8  1  0  0  0
  5 18  1  0  0  0
  6  9  1  0  0  0
  6 16  1  0  0  0
  6 24  1  0  0  0
  7 10  1  0  0  0
  7 25  1  0  0  0
  8  9  1  0  0  0
  8 19  1  0  0  0
  8 26  1  0  0  0
  9 17  1  0  0  0
  9 27  1  0  0  0
 10 28  1  0  0  0
 11 13  1  0  0  0
 11 15  1  0  0  0
 12 14  1  0  0  0
 13 14  2  0  0  0
 14 29  1  0  0  0
 15 30  1  0  0  0
 16 31  1  0  0  0
 17 32  1  0  0  0
 18 21  1  0  0  0
 18 33  1  0  0  0
 18 34  1  0  0  0
 19 20  1  0  0  0
 19 35  1  0  0  0
 19 36  1  0  0  0
 20 37  1  0  0  0
 21 22  1  0  0  0
 21 38  1  0  0  0
 21 39  1  0  0  0
 22 40  1  0  0  0
 22 41  1  0  0  0
 22 42  1  0  0  0
M  END
> <s_m_entry_id>
12002

> <s_m_entry_name>
dock_pv.205

> <s_m_Source_Path>
/home/csk/Desktop/cluster/DUD-E-result/pnph

> <s_m_Source_File>
dock_pv.maegz

> <i_m_Source_File_Index>
205

> <chembl_id>
CHEMBL542702

> <chembl_pref_name>
None

> <i_lp_mmshare_version>
53161

> <r_lp_tautomer_probability>
1

> <s_lp_Force_Field>
OPLS_2005

> <r_lp_Energy>
62.400067

> <b_lp_Chiralities_Consistent>
1

> <s_lp_Variant>
CHEMBL4338_lig135-1

> <s_i_glide_gridfile>
glide-grid_3bgs

> <i_i_glide_lignum>
176

> <i_i_glide_rotatable_bonds>
8

> <r_i_docking_score>
-6.80535992953059

> <r_i_glide_ligand_efficiency>
-0.30933454225139

> <r_i_glide_ligand_efficiency_sa>
-0.866767552825604

> <r_i_glide_ligand_efficiency_ln>
-1.66347819831205

> <r_i_glide_gscore>
-6.80535992953059

> <r_i_glide_lipo>
-2.73964026797469

> <r_i_glide_hbond>
-0.16893234715255

> <r_i_glide_metal>
0

> <r_i_glide_rewards>
-1.85203204759272

> <r_i_glide_evdw>
-34.0968475341797

> <r_i_glide_ecoul>
-6.1579852104187

> <r_i_glide_erotb>
0.583784891461165

> <r_i_glide_esite>
0

> <r_i_glide_emodel>
-52.8545618321363

> <r_i_glide_energy>
-40.2548327445984

> <r_i_glide_einternal>
5.8536901473999

> <i_i_glide_confnum>
4

> <i_i_glide_posenum>
392

> <r_i_glide_eff_state_penalty>
0

> <s_user_duplicate_titles>
CHEMBL4338_lig135

> <i_f3d_flags>
0

> <s_m_subgroup_title>
dock_pv

> <s_m_subgroupid>
dock_pv

> <b_m_subgroup_collapsed>
1

$$$$
CHEMBL4338_lig127
                    3D
 Schrodinger Suite 2021-1.
 36 38  0  0  1  0            999 V2000
   15.2272   13.8056   61.4738 C   0  0  0  0  0  0
   14.2269   14.8394   61.4755 C   0  0  0  0  0  0
   14.3564   15.5972   62.6797 C   0  0  0  0  0  0
   15.4250   12.6913   60.4551 C   0  0  2  0  0  0
   15.4138   15.0457   63.3841 N   0  0  0  0  0  0
   15.9229   13.9957   62.6544 C   0  0  0  0  0  0
   15.4198   13.2406   59.1055 N   0  0  2  0  0  0
   14.3097   11.6143   60.4855 C   0  0  2  0  0  0
   13.4820   16.6733   62.9065 C   0  0  0  0  0  0
   13.7015   11.6562   59.0655 C   0  0  2  0  0  0
   14.8942   12.1852   58.2464 C   0  0  1  0  0  0
   13.2850   15.1208   60.5668 N   0  0  0  0  0  0
   12.5542   16.9640   61.9563 N   0  0  0  0  0  0
   12.4890   16.1712   60.8637 C   0  0  0  0  0  0
   13.6659   17.4329   64.0308 O   0  0  0  0  0  0
   13.3547   11.7285   61.5290 O   0  0  0  0  0  0
   12.5555   12.4925   58.9438 O   0  0  0  0  0  0
   15.9131   15.4800   64.6789 C   0  0  0  0  0  0
   14.5755   12.6284   56.8010 C   0  0  0  0  0  0
   15.7447   13.0318   56.1068 O   0  0  0  0  0  0
   16.3945   12.2314   60.6607 H   0  0  0  0  0  0
   16.7533   13.4326   63.0548 H   0  0  0  0  0  0
   16.3027   13.6314   58.8066 H   0  0  0  0  0  0
   14.7875   10.6397   60.6031 H   0  0  0  0  0  0
   13.4407   10.6484   58.7356 H   0  0  0  0  0  0
   15.6451   11.3943   58.1852 H   0  0  0  0  0  0
   11.7248   16.3992   60.1409 H   0  0  0  0  0  0
   13.4078   18.3446   63.8405 H   0  0  0  0  0  0
   13.7954   12.0496   62.3209 H   0  0  0  0  0  0
   12.8229   13.3672   59.2521 H   0  0  0  0  0  0
   16.2384   16.5188   64.6118 H   0  0  0  0  0  0
   15.1124   15.4025   65.4150 H   0  0  0  0  0  0
   16.7522   14.8605   64.9964 H   0  0  0  0  0  0
   13.8436   13.4331   56.7998 H   0  0  0  0  0  0
   14.1149   11.8047   56.2539 H   0  0  0  0  0  0
   15.4896   13.3656   55.2415 H   0  0  0  0  0  0
  1  2  1  0  0  0
  1  4  1  0  0  0
  1  6  2  0  0  0
  2  3  1  0  0  0
  2 12  2  0  0  0
  3  9  2  0  0  0
  3  5  1  0  0  0
  4  7  1  0  0  0
  4  8  1  0  0  0
  4 21  1  0  0  0
  5  6  1  0  0  0
  5 18  1  0  0  0
  6 22  1  0  0  0
  7 11  1  0  0  0
  7 23  1  0  0  0
  8 10  1  0  0  0
  8 16  1  0  0  0
  8 24  1  0  0  0
  9 15  1  0  0  0
  9 13  1  0  0  0
 10 17  1  0  0  0
 10 11  1  0  0  0
 10 25  1  0  0  0
 11 19  1  0  0  0
 11 26  1  0  0  0
 12 14  1  0  0  0
 13 14  2  0  0  0
 14 27  1  0  0  0
 15 28  1  0  0  0
 16 29  1  0  0  0
 17 30  1  0  0  0
 18 31  1  0  0  0
 18 32  1  0  0  0
 18 33  1  0  0  0
 19 20  1  0  0  0
 19 34  1  0  0  0
 19 35  1  0  0  0
 20 36  1  0  0  0
M  END
> <s_m_entry_id>
12003

> <s_m_entry_name>
dock_pv.206

> <s_m_Source_Path>
/home/csk/Desktop/cluster/DUD-E-result/pnph

> <s_m_Source_File>
dock_pv.maegz

> <i_m_Source_File_Index>
206

> <chembl_id>
CHEMBL543164

> <chembl_pref_name>
None

> <i_lp_mmshare_version>
53161

> <r_lp_tautomer_probability>
1

> <s_lp_Force_Field>
OPLS_2005

> <r_lp_Energy>
45.872929

> <b_lp_Chiralities_Consistent>
1

> <s_lp_Variant>
CHEMBL4338_lig127-1

> <s_i_glide_gridfile>
glide-grid_3bgs

> <i_i_glide_lignum>
162

> <i_i_glide_rotatable_bonds>
6

> <r_i_docking_score>
-6.80158040489047

> <r_i_glide_ligand_efficiency>
-0.340079020244523

> <r_i_glide_ligand_efficiency_sa>
-0.923116482664267

> <r_i_glide_ligand_efficiency_ln>
-1.70221124420852

> <r_i_glide_gscore>
-6.80158040489047

> <r_i_glide_lipo>
-2.21604597398909

> <r_i_glide_hbond>
-0.299706415801755

> <r_i_glide_metal>
0

> <r_i_glide_rewards>
-1.9457437047139

> <r_i_glide_evdw>
-31.8410091400146

> <r_i_glide_ecoul>
-8.05174541473389

> <r_i_glide_erotb>
0.459727958825089

> <r_i_glide_esite>
0

> <r_i_glide_emodel>
-54.67663016144

> <r_i_glide_energy>
-39.8927545547485

> <r_i_glide_einternal>
3.92051529884338

> <i_i_glide_confnum>
7

> <i_i_glide_posenum>
141

> <r_i_glide_eff_state_penalty>
0

> <s_user_duplicate_titles>
CHEMBL4338_lig127

> <i_f3d_flags>
0

> <s_m_subgroup_title>
dock_pv

> <s_m_subgroupid>
dock_pv

> <b_m_subgroup_collapsed>
1

$$$$
12180
                    3D
 Schrodinger Suite 2021-1.
 42 43  0  0  1  0            999 V2000
   15.2028   11.8330   61.4881 C   0  0  0  0  0  0
   15.6696   13.1666   60.8640 C   0  0  0  0  0  0
   17.1015   13.4332   61.3746 C   0  0  0  0  0  0
   15.7313   13.0438   59.3180 C   0  0  0  0  0  0
   14.4105   12.7741   58.5519 C   0  0  0  0  0  0
   14.6968   12.2314   57.2215 N   0  0  0  0  0  0
   15.5975   12.7144   56.3479 C   0  0  0  0  0  0
   15.7488   11.9459   55.3060 N   0  0  0  0  0  0
   14.8584   10.9589   55.4788 C   0  0  0  0  0  0
   14.1536   11.1238   56.6369 C   0  0  0  0  0  0
   13.1398   10.3427   57.1089 N   0  0  0  0  0  0
   12.8130    9.4067   56.2826 C   0  0  0  0  0  0
   13.5359    9.1123   55.1448 N   0  0  0  0  0  0
   14.6235    9.7855   54.6621 C   0  0  0  0  0  0
   15.2698    9.3736   53.7060 O   0  0  0  0  0  0
   11.7542    8.6330   56.5060 N   0  0  0  0  0  0
   14.7750   14.3520   61.3082 C   0  0  0  0  0  0
   13.2665   14.0498   61.3072 C   0  0  0  0  0  0
   12.2736   15.4444   60.7101 P   0  0  0  0  0  0
   12.8386   16.3905   59.7113 O   0  0  0  0  0  0
   10.9540   14.6528   60.2246 O   0  0  0  0  0  0
   11.8076   16.1037   62.1060 O   0  0  0  0  0  0
   15.9313   11.0424   61.3059 H   0  0  0  0  0  0
   15.0667   11.9322   62.5634 H   0  0  0  0  0  0
   14.2582   11.4623   61.0962 H   0  0  0  0  0  0
   17.7540   12.5995   61.1210 H   0  0  0  0  0  0
   17.5294   14.3378   60.9392 H   0  0  0  0  0  0
   17.1324   13.5411   62.4597 H   0  0  0  0  0  0
   16.1540   13.9653   58.9161 H   0  0  0  0  0  0
   16.4490   12.2558   59.0750 H   0  0  0  0  0  0
   13.7867   12.0255   59.0363 H   0  0  0  0  0  0
   13.8195   13.6771   58.3881 H   0  0  0  0  0  0
   16.1539   13.6145   56.5521 H   0  0  0  0  0  0
   13.2809    8.2851   54.6214 H   0  0  0  0  0  0
   11.1044    8.8494   57.2432 H   0  0  0  0  0  0
   11.6969    7.7100   56.0458 H   0  0  0  0  0  0
   14.9907   15.1984   60.6533 H   0  0  0  0  0  0
   15.0552   14.7005   62.3040 H   0  0  0  0  0  0
   12.9540   13.7466   62.3045 H   0  0  0  0  0  0
   13.0019   13.2144   60.6713 H   0  0  0  0  0  0
   10.0771   15.0330   60.5060 H   0  0  0  0  0  0
   11.6257   15.4511   62.8184 H   0  0  0  0  0  0
  1  2  1  0  0  0
  1 23  1  0  0  0
  1 24  1  0  0  0
  1 25  1  0  0  0
  2  3  1  0  0  0
  2  4  1  0  0  0
  2 17  1  0  0  0
  3 26  1  0  0  0
  3 27  1  0  0  0
  3 28  1  0  0  0
  4  5  1  0  0  0
  4 29  1  0  0  0
  4 30  1  0  0  0
  5 31  1  0  0  0
  5 32  1  0  0  0
  5  6  1  0  0  0
  6  7  1  0  0  0
  6 10  1  0  0  0
  7 33  1  0  0  0
  7  8  2  0  0  0
  8  9  1  0  0  0
  9 14  1  0  0  0
  9 10  2  0  0  0
 10 11  1  0  0  0
 11 12  2  0  0  0
 12 16  1  0  0  0
 12 13  1  0  0  0
 13 34  1  0  0  0
 13 14  1  0  0  0
 14 15  2  0  0  0
 16 35  1  0  0  0
 16 36  1  0  0  0
 17 18  1  0  0  0
 17 37  1  0  0  0
 17 38  1  0  0  0
 18 19  1  0  0  0
 18 39  1  0  0  0
 18 40  1  0  0  0
 19 20  2  0  0  0
 19 21  1  0  0  0
 19 22  1  0  0  0
 21 41  1  0  0  0
 22 42  1  0  0  0
M  END
> <s_m_entry_id>
12093

> <s_m_entry_name>
ligand_docking-pose.7

> <s_m_Source_Path>
/home/csk/Desktop/cluster/DUD-E-result/pnph

> <s_m_Source_File>
ligand_docking-pose.sdf

> <i_m_Source_File_Index>
7

> <i_lp_mmshare_version>
53161

> <i_f3d_flags>
0

> <r_lp_tautomer_probability>
0.999940409345307

> <s_lp_Force_Field>
OPLS_2005

> <r_lp_Energy>
5.736093

> <b_lp_Chiralities_Consistent>
1

> <s_lp_Variant>
12180-1

> <s_i_glide_gridfile>
glide-grid_3bgs

> <i_i_glide_lignum>
322

> <i_i_glide_rotatable_bonds>
8

> <r_i_docking_score>
-9.663365450971

> <r_i_glide_ligand_efficiency>
-0.439243884135046

> <r_i_glide_ligand_efficiency_sa>
-1.23077863782811

> <r_i_glide_ligand_efficiency_ln>
-2.36207899603642

> <r_i_glide_gscore>
-9.663365450971

> <r_i_glide_lipo>
-1.59974423729619

> <r_i_glide_hbond>
-0.741456946256156

> <r_i_glide_metal>
0

> <r_i_glide_rewards>
-2.73412210492597

> <r_i_glide_evdw>
-29.8539123535156

> <r_i_glide_ecoul>
-29.7363739013672

> <r_i_glide_erotb>
1.03987998617602

> <r_i_glide_esite>
-0.135226530992928

> <r_i_glide_emodel>
-80.1924687637795

> <r_i_glide_energy>
-59.5902862548828

> <r_i_glide_einternal>
11.2943744659424

> <i_i_glide_confnum>
62

> <i_i_glide_posenum>
251

> <r_i_glide_eff_state_penalty>
0

> <s_user_duplicate_titles>
12180

> <s_m_subgroup_title>
dock_pv

> <s_m_subgroupid>
dock_pv1

> <b_m_subgroup_collapsed>
0

$$$$
290421
                    3D
 Schrodinger Suite 2021-1.
 40 41  0  0  1  0            999 V2000
   12.9770   11.1671   57.9136 C   0  0  0  0  0  0
   13.3524   10.4139   56.7653 C   0  0  0  0  0  0
   14.5284   11.0326   56.2999 C   0  0  0  0  0  0
   15.2412   10.6483   55.2297 N   0  0  0  0  0  0
   14.6972    9.5697   54.6161 C   0  0  0  0  0  0
   13.5848    8.9036   54.9587 N   0  0  0  0  0  0
   12.8976    9.2998   56.0455 C   0  0  0  0  0  0
   11.7994    8.6330   56.5060 O   0  0  0  0  0  0
   15.3540    9.0220   53.5413 N   0  0  0  0  0  0
   14.8052   12.0059   57.2400 N   0  0  0  0  0  0
   13.7989   12.1463   58.1170 N   0  0  0  0  0  0
   16.0607   12.6003   57.5490 C   0  0  0  0  0  0
   16.7394   11.8330   58.5231 O   0  0  0  0  0  0
   16.3397   11.9339   59.8982 C   0  0  0  0  0  0
   16.6658   13.3051   60.5360 C   0  0  0  0  0  0
   15.9729   13.5693   61.8969 C   0  0  0  0  0  0
   14.7514   14.5169   61.8300 C   0  0  0  0  0  0
   13.4864   13.9058   61.1922 C   0  0  0  0  0  0
   12.2851   15.2049   60.6893 P   0  0  0  0  0  0
   12.7070   16.2330   59.7060 O   0  0  0  0  0  0
   10.9540   14.3643   60.2976 O   0  0  0  0  0  0
   11.8627   15.8330   62.1060 O   0  0  0  0  0  0
   12.1540   11.0330   58.5844 H   0  0  0  0  0  0
   11.7539    7.7636   56.0552 H   0  0  0  0  0  0
   14.9894    8.1407   53.2075 H   0  0  0  0  0  0
   16.2044    9.4303   53.1660 H   0  0  0  0  0  0
   15.8790   13.6323   57.8508 H   0  0  0  0  0  0
   16.6451   12.6015   56.6280 H   0  0  0  0  0  0
   16.8882   11.1632   60.4415 H   0  0  0  0  0  0
   15.2957   11.6655   60.0367 H   0  0  0  0  0  0
   16.4322   14.1240   59.8583 H   0  0  0  0  0  0
   17.7469   13.3589   60.6680 H   0  0  0  0  0  0
   16.7054   14.0282   62.5626 H   0  0  0  0  0  0
   15.6977   12.6329   62.3848 H   0  0  0  0  0  0
   15.0423   15.4193   61.2883 H   0  0  0  0  0  0
   14.5030   14.8524   62.8384 H   0  0  0  0  0  0
   13.0073   13.2068   61.8783 H   0  0  0  0  0  0
   13.7480   13.3509   60.3011 H   0  0  0  0  0  0
   10.0958   14.8187   60.5060 H   0  0  0  0  0  0
   11.7539   15.1717   62.8297 H   0  0  0  0  0  0
  1 11  2  0  0  0
  1  2  1  0  0  0
  1 23  1  0  0  0
  2  7  2  0  0  0
  2  3  1  0  0  0
  3  4  2  0  0  0
  3 10  1  0  0  0
  4  5  1  0  0  0
  5  6  2  0  0  0
  5  9  1  0  0  0
  6  7  1  0  0  0
  7  8  1  0  0  0
  8 24  1  0  0  0
  9 25  1  0  0  0
  9 26  1  0  0  0
 10 11  1  0  0  0
 10 12  1  0  0  0
 12 13  1  0  0  0
 12 27  1  0  0  0
 12 28  1  0  0  0
 13 14  1  0  0  0
 14 15  1  0  0  0
 14 29  1  0  0  0
 14 30  1  0  0  0
 15 16  1  0  0  0
 15 31  1  0  0  0
 15 32  1  0  0  0
 16 17  1  0  0  0
 16 33  1  0  0  0
 16 34  1  0  0  0
 17 18  1  0  0  0
 17 35  1  0  0  0
 17 36  1  0  0  0
 18 19  1  0  0  0
 18 37  1  0  0  0
 18 38  1  0  0  0
 19 20  2  0  0  0
 19 21  1  0  0  0
 19 22  1  0  0  0
 21 39  1  0  0  0
 22 40  1  0  0  0
M  END
> <s_m_entry_id>
12104

> <s_m_entry_name>
ligand_docking-pose.18

> <s_m_Source_Path>
/home/csk/Desktop/cluster/DUD-E-result/pnph

> <s_m_Source_File>
ligand_docking-pose.sdf

> <i_m_Source_File_Index>
18

> <i_lp_mmshare_version>
53161

> <i_f3d_flags>
0

> <r_lp_tautomer_probability>
1

> <s_lp_Force_Field>
OPLS_2005

> <r_lp_Energy>
-11.474548

> <b_lp_Chiralities_Consistent>
1

> <s_lp_Variant>
290421-1

> <s_i_glide_gridfile>
glide-grid_3bgs

> <i_i_glide_lignum>
8

> <i_i_glide_rotatable_bonds>
11

> <r_i_docking_score>
-8.99807182460769

> <r_i_glide_ligand_efficiency>
-0.409003264754895

> <r_i_glide_ligand_efficiency_sa>
-1.14604323302885

> <r_i_glide_ligand_efficiency_ln>
-2.19945696657858

> <r_i_glide_gscore>
-8.99807182460769

> <r_i_glide_lipo>
-1.35436875737941

> <r_i_glide_hbond>
-1.01745843910116

> <r_i_glide_metal>
0

> <r_i_glide_rewards>
-2.50849823890815

> <r_i_glide_evdw>
-29.3141441345215

> <r_i_glide_ecoul>
-28.9517097473145

> <r_i_glide_erotb>
1.37194462687445

> <r_i_glide_esite>
-0.0239838093673523

> <r_i_glide_emodel>
-82.0817590095563

> <r_i_glide_energy>
-58.2658538818359

> <r_i_glide_einternal>
9.14517307281494

> <i_i_glide_confnum>
133

> <i_i_glide_posenum>
242

> <r_i_glide_eff_state_penalty>
0

> <s_user_duplicate_titles>
290421

> <s_m_subgroup_title>
dock_pv

> <s_m_subgroupid>
dock_pv1

> <b_m_subgroup_collapsed>
0

$$$$
128721
                    3D
 Schrodinger Suite 2021-1.
 31 33  0  0  1  0            999 V2000
   13.0766   15.3374   60.6821 C   0  0  0  0  0  0
   14.1248   14.6253   60.1060 C   0  0  0  0  0  0
   13.8632   13.5081   59.2971 C   0  0  0  0  0  0
   12.5221   13.1529   59.1047 C   0  0  0  0  0  0
   11.4836   13.8330   59.6579 N   0  0  0  0  0  0
   11.7768   14.9052   60.4377 C   0  0  0  0  0  0
   15.0438   12.7016   58.7447 C   0  0  1  0  0  0
   15.6236   11.7335   59.7960 C   0  0  0  0  0  0
   16.3258   12.4530   60.8723 C   0  0  0  0  0  0
   16.8799   13.0330   61.7060 N   0  0  0  0  0  0
   14.9564   12.0462   57.3648 C   0  0  0  0  0  0
   15.8351   12.3048   56.3220 C   0  0  0  0  0  0
   15.7540   11.4925   55.3060 N   0  0  0  0  0  0
   14.7023   10.6862   55.5631 C   0  0  0  0  0  0
   14.1722    9.5938   54.8408 C   0  0  0  0  0  0
   13.0877    8.9996   55.3419 N   0  0  0  0  0  0
   12.5540    9.3792   56.5060 C   0  0  0  0  0  0
   13.0821   10.3365   57.3156 N   0  0  0  0  0  0
   14.1306   11.0069   56.8237 C   0  0  0  0  0  0
   14.7200    9.0330   53.7179 O   0  0  0  0  0  0
   12.7101    8.1706   54.8901 H   0  0  0  0  0  0
   13.2697   16.1876   61.3195 H   0  0  0  0  0  0
   15.1404   14.9385   60.3028 H   0  0  0  0  0  0
   12.2432   12.3045   58.5074 H   0  0  0  0  0  0
   10.9540   15.4281   60.8920 H   0  0  0  0  0  0
   15.8140   13.4629   58.6086 H   0  0  0  0  0  0
   14.8438   11.1092   60.2337 H   0  0  0  0  0  0
   16.3563   11.0633   59.3449 H   0  0  0  0  0  0
   16.6179   13.0459   56.3490 H   0  0  0  0  0  0
   11.7021    8.7983   56.8357 H   0  0  0  0  0  0
   14.3256    8.1781   53.5089 H   0  0  0  0  0  0
  1  6  1  0  0  0
  1  2  2  0  0  0
  1 22  1  0  0  0
  2  3  1  0  0  0
  2 23  1  0  0  0
  3  4  2  0  0  0
  3  7  1  0  0  0
  4  5  1  0  0  0
  4 24  1  0  0  0
  5  6  2  0  0  0
  6 25  1  0  0  0
  7  8  1  0  0  0
  7 11  1  0  0  0
  7 26  1  0  0  0
  8  9  1  0  0  0
  8 27  1  0  0  0
  8 28  1  0  0  0
  9 10  3  0  0  0
 11 19  2  0  0  0
 11 12  1  0  0  0
 12 13  2  0  0  0
 12 29  1  0  0  0
 13 14  1  0  0  0
 14 19  1  0  0  0
 14 15  2  0  0  0
 15 16  1  0  0  0
 15 20  1  0  0  0
 16 21  1  0  0  0
 16 17  1  0  0  0
 17 18  2  0  0  0
 17 30  1  0  0  0
 18 19  1  0  0  0
 20 31  1  0  0  0
M  END
> <s_m_entry_id>
12107

> <s_m_entry_name>
ligand_docking-pose.21

> <s_m_Source_Path>
/home/csk/Desktop/cluster/DUD-E-result/pnph

> <s_m_Source_File>
ligand_docking-pose.sdf

> <i_m_Source_File_Index>
21

> <i_lp_mmshare_version>
53161

> <i_f3d_flags>
0

> <r_lp_tautomer_probability>
1

> <s_lp_Force_Field>
OPLS_2005

> <r_lp_Energy>
19.484984

> <b_lp_Chiralities_Consistent>
1

> <s_lp_Variant>
128721-2

> <s_i_glide_gridfile>
glide-grid_3bgs

> <i_i_glide_lignum>
214

> <i_i_glide_rotatable_bonds>
4

> <r_i_docking_score>
-8.86940492221749

> <r_i_glide_ligand_efficiency>
-0.443470246110875

> <r_i_glide_ligand_efficiency_sa>
-1.20376344727699

> <r_i_glide_ligand_efficiency_ln>
-2.21971951947837

> <r_i_glide_gscore>
-8.86940492221749

> <r_i_glide_lipo>
-2.8477508521604

> <r_i_glide_hbond>
-0.498642852834905

> <r_i_glide_metal>
0

> <r_i_glide_rewards>
-2.85281662200032

> <r_i_glide_evdw>
-35.5911521911621

> <r_i_glide_ecoul>
-8.87938499450684

> <r_i_glide_erotb>
0.505701014600392

> <r_i_glide_esite>
-0.06443025108813

> <r_i_glide_emodel>
-64.9826577784785

> <r_i_glide_energy>
-44.4705371856689

> <r_i_glide_einternal>
2.85741710662842

> <i_i_glide_confnum>
9

> <i_i_glide_posenum>
98

> <r_i_glide_eff_state_penalty>
0

> <s_user_duplicate_titles>
128721

> <s_m_subgroup_title>
dock_pv

> <s_m_subgroupid>
dock_pv1

> <b_m_subgroup_collapsed>
0

$$$$
183173
                    3D
 Schrodinger Suite 2021-1.
 33 35  0  0  1  0            999 V2000
   13.9820   11.6052   59.7449 C   0  0  0  0  0  0
   14.4067   12.7825   59.1498 C   0  0  0  0  0  0
   14.6973   12.4037   57.7984 C   0  0  0  0  0  0
   14.1939   11.0883   57.5733 C   0  0  0  0  0  0
   13.7808   10.6335   58.8012 N   0  0  0  0  0  0
   14.2290   10.5442   56.2811 C   0  0  0  0  0  0
   14.8503   11.2616   55.3161 N   0  0  0  0  0  0
   15.3420   12.4782   55.6356 C   0  0  0  0  0  0
   15.2692   13.1122   56.8242 N   0  0  0  0  0  0
   13.6791    9.3112   56.0740 O   0  0  0  0  0  0
   14.5282   14.1873   59.7263 C   0  0  2  0  0  0
   14.4941   14.3579   61.2485 C   0  0  1  0  0  0
   12.9876   14.3048   61.5852 C   0  0  1  0  0  0
   12.2757   14.7602   60.2724 C   0  0  1  0  0  0
   13.3538   14.9385   59.3060 N   0  0  2  0  0  0
   11.1608   13.8089   59.7473 C   0  0  0  0  0  0
   10.5557   14.2331   58.5321 O   0  0  0  0  0  0
   12.5766   13.0327   62.0649 O   0  0  0  0  0  0
   15.3493   13.5091   62.0021 O   0  0  0  0  0  0
   13.4106    9.7238   59.0456 H   0  0  0  0  0  0
   13.7146   11.3898   60.7684 H   0  0  0  0  0  0
   15.7542   13.0338   54.8186 H   0  0  0  0  0  0
   13.2074    8.9492   56.8232 H   0  0  0  0  0  0
   15.4408   14.6252   59.3184 H   0  0  0  0  0  0
   14.8316   15.3756   61.4598 H   0  0  0  0  0  0
   12.8002   15.0556   62.3537 H   0  0  0  0  0  0
   11.8250   15.7399   60.4389 H   0  0  0  0  0  0
   13.1122   14.8341   58.3225 H   0  0  0  0  0  0
   10.3807   13.7136   60.5028 H   0  0  0  0  0  0
   11.5544   12.8046   59.5982 H   0  0  0  0  0  0
   11.2518   14.4196   57.8880 H   0  0  0  0  0  0
   12.3748   13.1469   63.0053 H   0  0  0  0  0  0
   16.1026   13.2749   61.4555 H   0  0  0  0  0  0
  1  5  1  0  0  0
  1  2  2  0  0  0
  1 21  1  0  0  0
  2  3  1  0  0  0
  2 11  1  0  0  0
  3  9  2  0  0  0
  3  4  1  0  0  0
  4  5  1  0  0  0
  4  6  2  0  0  0
  5 20  1  0  0  0
  6  7  1  0  0  0
  6 10  1  0  0  0
  7  8  2  0  0  0
  8  9  1  0  0  0
  8 22  1  0  0  0
 10 23  1  0  0  0
 11 15  1  0  0  0
 11 12  1  0  0  0
 11 24  1  0  0  0
 12 13  1  0  0  0
 12 19  1  0  0  0
 12 25  1  0  0  0
 13 14  1  0  0  0
 13 18  1  0  0  0
 13 26  1  0  0  0
 14 15  1  0  0  0
 14 16  1  0  0  0
 14 27  1  0  0  0
 15 28  1  0  0  0
 16 17  1  0  0  0
 16 29  1  0  0  0
 16 30  1  0  0  0
 17 31  1  0  0  0
 18 32  1  0  0  0
 19 33  1  0  0  0
M  END
> <s_m_entry_id>
12114

> <s_m_entry_name>
ligand_docking-pose.28

> <s_m_Source_Path>
/home/csk/Desktop/cluster/DUD-E-result/pnph

> <s_m_Source_File>
ligand_docking-pose.sdf

> <i_m_Source_File_Index>
28

> <i_lp_mmshare_version>
53161

> <i_f3d_flags>
0

> <r_lp_tautomer_probability>
1

> <s_lp_Force_Field>
OPLS_2005

> <r_lp_Energy>
44.471678

> <b_lp_Chiralities_Consistent>
1

> <s_lp_Variant>
183173-1

> <s_i_glide_gridfile>
glide-grid_3bgs

> <i_i_glide_lignum>
42

> <i_i_glide_rotatable_bonds>
6

> <r_i_docking_score>
-8.56643283127651

> <r_i_glide_ligand_efficiency>
-0.450864885856659

> <r_i_glide_ligand_efficiency_sa>
-1.20308860358993

> <r_i_glide_ligand_efficiency_ln>
-2.17177471283554

> <r_i_glide_gscore>
-8.56643283127651

> <r_i_glide_lipo>
-2.00880965417105

> <r_i_glide_hbond>
-1.20533667320794

> <r_i_glide_metal>
0

> <r_i_glide_rewards>
-2.04372777272727

> <r_i_glide_evdw>
-26.9303760528564

> <r_i_glide_ecoul>
-16.430139541626

> <r_i_glide_erotb>
0.502481002716467

> <r_i_glide_esite>
0

> <r_i_glide_emodel>
-62.018788968895

> <r_i_glide_energy>
-43.3605155944824

> <r_i_glide_einternal>
2.09949350357056

> <i_i_glide_confnum>
13

> <i_i_glide_posenum>
102

> <r_i_glide_eff_state_penalty>
0

> <s_user_duplicate_titles>
183173

> <s_m_subgroup_title>
dock_pv

> <s_m_subgroupid>
dock_pv1

> <b_m_subgroup_collapsed>
0

$$$$
563617
                    3D
 Schrodinger Suite 2021-1.
 33 35  0  0  1  0            999 V2000
   15.2742   12.2304   56.7573 C   0  0  0  0  0  0
   14.8223   11.1454   56.0057 C   0  0  0  0  0  0
   13.6877   10.6575   56.6440 C   0  0  0  0  0  0
   12.9540    9.5186   56.1060 C   0  0  0  0  0  0
   11.9027    9.0330   56.5060 O   0  0  0  0  0  0
   13.6254    9.0147   55.0249 N   0  0  0  0  0  0
   14.7771    9.5034   54.4402 C   0  0  0  0  0  0
   15.3540   10.5708   54.8898 N   0  0  0  0  0  0
   13.4617   11.4239   57.7573 N   0  0  0  0  0  0
   14.4282   12.4032   57.8510 C   0  0  0  0  0  0
   14.4883   13.4059   58.9906 C   0  0  2  0  0  0
   15.1202   12.9146   60.3208 C   0  0  1  0  0  0
   14.1722   13.4694   61.4160 C   0  0  1  0  0  0
   13.3417   14.5150   60.6319 C   0  0  1  0  0  0
   13.1663   13.9174   59.3123 N   0  0  1  0  0  0
   12.0313   14.9744   61.3060 C   0  0  0  0  0  0
   11.3540   15.9431   60.5341 O   0  0  0  0  0  0
   13.3540   12.4782   62.0378 O   0  0  0  0  0  0
   15.3343   11.5164   60.4438 O   0  0  0  0  0  0
   13.2252    8.1554   54.6605 H   0  0  0  0  0  0
   12.7132   11.2867   58.4212 H   0  0  0  0  0  0
   15.0862   14.2330   58.6088 H   0  0  0  0  0  0
   16.0935   13.3951   60.4333 H   0  0  0  0  0  0
   14.7495   13.9794   62.1888 H   0  0  0  0  0  0
   13.9628   15.4051   60.5024 H   0  0  0  0  0  0
   16.1499   12.8196   56.5337 H   0  0  0  0  0  0
   15.1696    8.9654   53.5806 H   0  0  0  0  0  0
   12.8111   14.5571   58.6083 H   0  0  0  0  0  0
   12.2578   15.4330   62.2683 H   0  0  0  0  0  0
   11.3659   14.1314   61.4979 H   0  0  0  0  0  0
   10.4015   15.8330   60.6938 H   0  0  0  0  0  0
   13.4768   12.5108   62.9961 H   0  0  0  0  0  0
   14.5704   11.1609   60.9103 H   0  0  0  0  0  0
  1 10  2  0  0  0
  1  2  1  0  0  0
  1 26  1  0  0  0
  2  8  1  0  0  0
  2  3  2  0  0  0
  3  4  1  0  0  0
  3  9  1  0  0  0
  4  5  2  0  0  0
  4  6  1  0  0  0
  6 20  1  0  0  0
  6  7  1  0  0  0
  7  8  2  0  0  0
  7 27  1  0  0  0
  9 21  1  0  0  0
  9 10  1  0  0  0
 10 11  1  0  0  0
 11 22  1  0  0  0
 11 15  1  0  0  0
 11 12  1  0  0  0
 12 23  1  0  0  0
 12 13  1  0  0  0
 12 19  1  0  0  0
 13 24  1  0  0  0
 13 14  1  0  0  0
 13 18  1  0  0  0
 14 25  1  0  0  0
 14 15  1  0  0  0
 14 16  1  0  0  0
 15 28  1  0  0  0
 16 17  1  0  0  0
 16 29  1  0  0  0
 16 30  1  0  0  0
 17 31  1  0  0  0
 18 32  1  0  0  0
 19 33  1  0  0  0
M  END
> <s_m_entry_id>
12118

> <s_m_entry_name>
ligand_docking-pose.32

> <s_m_Source_Path>
/home/csk/Desktop/cluster/DUD-E-result/pnph

> <s_m_Source_File>
ligand_docking-pose.sdf

> <i_m_Source_File_Index>
32

> <i_lp_mmshare_version>
53161

> <i_f3d_flags>
0

> <r_lp_tautomer_probability>
1

> <s_lp_Force_Field>
OPLS_2005

> <r_lp_Energy>
56.508713

> <b_lp_Chiralities_Consistent>
1

> <s_lp_Variant>
563617-1

> <s_i_glide_gridfile>
glide-grid_3bgs

> <i_i_glide_lignum>
4

> <i_i_glide_rotatable_bonds>
5

> <r_i_docking_score>
-8.51996702284254

> <r_i_glide_ligand_efficiency>
-0.448419316991712

> <r_i_glide_ligand_efficiency_sa>
-1.19656284360505

> <r_i_glide_ligand_efficiency_ln>
-2.15999463240347

> <r_i_glide_gscore>
-8.51996702284254

> <r_i_glide_lipo>
-2.17134953777469

> <r_i_glide_hbond>
-1.02258086789773

> <r_i_glide_metal>
0

> <r_i_glide_rewards>
-1.7328211972586

> <r_i_glide_evdw>
-34.7114028930664

> <r_i_glide_ecoul>
-15.3853607177734

> <r_i_glide_erotb>
0.502481002716467

> <r_i_glide_esite>
-0.0523221703086423

> <r_i_glide_emodel>
-73.67011045743

> <r_i_glide_energy>
-50.0967636108398

> <r_i_glide_einternal>
1.34792220592499

> <i_i_glide_confnum>
3

> <i_i_glide_posenum>
191

> <r_i_glide_eff_state_penalty>
0

> <s_user_duplicate_titles>
563617

> <s_m_subgroup_title>
dock_pv

> <s_m_subgroupid>
dock_pv1

> <b_m_subgroup_collapsed>
0

$$$$
554890
                    3D
 Schrodinger Suite 2021-1.
 33 35  0  0  1  0            999 V2000
   15.2127   13.1257   57.2783 C   0  0  0  0  0  0
   14.2638   12.4393   58.0443 C   0  0  0  0  0  0
   13.8934   11.3307   57.2253 C   0  0  0  0  0  0
   14.6798   11.3680   56.0691 C   0  0  0  0  0  0
   15.4740   12.4716   56.1078 N   0  0  0  0  0  0
   14.6256   10.3120   55.0741 C   0  0  0  0  0  0
   15.3540   10.1585   54.1060 O   0  0  0  0  0  0
   13.6320    9.4300   55.3862 N   0  0  0  0  0  0
   12.8348    9.4330   56.5060 C   0  0  0  0  0  0
   12.9766   10.3320   57.4283 N   0  0  0  0  0  0
   13.7733   12.8810   59.4438 C   0  0  2  0  0  0
   14.9260   13.4719   60.3245 C   0  0  1  0  0  0
   14.4254   13.3004   61.7685 C   0  0  2  0  0  0
   13.5240   12.0603   61.6459 C   0  0  0  0  0  0
   13.3541   11.7294   60.2330 N   0  0  2  0  0  0
   13.7541   14.4670   62.2216 O   0  0  0  0  0  0
   16.2023   12.8579   60.1573 O   0  0  0  0  0  0
   12.5779   13.8857   59.3263 C   0  0  0  0  0  0
   11.5161   13.4330   58.5060 O   0  0  0  0  0  0
   16.1423   12.7457   55.4009 H   0  0  0  0  0  0
   13.5233    8.6668   54.7322 H   0  0  0  0  0  0
   15.0549   14.5309   60.0916 H   0  0  0  0  0  0
   15.2608   13.0853   62.4382 H   0  0  0  0  0  0
   15.7540   14.0296   57.5099 H   0  0  0  0  0  0
   12.0974    8.6376   56.5877 H   0  0  0  0  0  0
   12.5523   12.2334   62.1102 H   0  0  0  0  0  0
   13.9762   11.2003   62.1367 H   0  0  0  0  0  0
   13.8867   10.9072   59.9794 H   0  0  0  0  0  0
   13.1468   14.2322   62.9361 H   0  0  0  0  0  0
   16.1056   11.9147   60.3133 H   0  0  0  0  0  0
   12.1387   14.1099   60.2976 H   0  0  0  0  0  0
   12.9292   14.8383   58.9294 H   0  0  0  0  0  0
   11.7543   13.6688   57.6007 H   0  0  0  0  0  0
  1  5  1  0  0  0
  1  2  2  0  0  0
  1 24  1  0  0  0
  2  3  1  0  0  0
  2 11  1  0  0  0
  3 10  1  0  0  0
  3  4  2  0  0  0
  4  5  1  0  0  0
  4  6  1  0  0  0
  5 20  1  0  0  0
  6  7  2  0  0  0
  6  8  1  0  0  0
  8 21  1  0  0  0
  8  9  1  0  0  0
  9 10  2  0  0  0
  9 25  1  0  0  0
 11 15  1  0  0  0
 11 12  1  0  0  0
 11 18  1  0  0  0
 12 22  1  0  0  0
 12 13  1  0  0  0
 12 17  1  0  0  0
 13 23  1  0  0  0
 13 14  1  0  0  0
 13 16  1  0  0  0
 14 15  1  0  0  0
 14 26  1  0  0  0
 14 27  1  0  0  0
 15 28  1  0  0  0
 16 29  1  0  0  0
 17 30  1  0  0  0
 18 19  1  0  0  0
 18 31  1  0  0  0
 18 32  1  0  0  0
 19 33  1  0  0  0
M  END
> <s_m_entry_id>
12124

> <s_m_entry_name>
ligand_docking-pose.38

> <s_m_Source_Path>
/home/csk/Desktop/cluster/DUD-E-result/pnph

> <s_m_Source_File>
ligand_docking-pose.sdf

> <i_m_Source_File_Index>
38

> <i_lp_mmshare_version>
53161

> <i_f3d_flags>
0

> <r_lp_tautomer_probability>
1

> <s_lp_Force_Field>
OPLS_2005

> <r_lp_Energy>
54.626278

> <b_lp_Chiralities_Consistent>
1

> <s_lp_Variant>
554890-1

> <s_i_glide_gridfile>
glide-grid_3bgs

> <i_i_glide_lignum>
82

> <i_i_glide_rotatable_bonds>
5

> <r_i_docking_score>
-8.40130395055092

> <r_i_glide_ligand_efficiency>
-0.442173892134259

> <r_i_glide_ligand_efficiency_sa>
-1.17989754163481

> <r_i_glide_ligand_efficiency_ln>
-2.12991099492844

> <r_i_glide_gscore>
-8.40130395055092

> <r_i_glide_lipo>
-2.39912472020896

> <r_i_glide_hbond>
-1.20077335273373

> <r_i_glide_metal>
0

> <r_i_glide_rewards>
-1.8153946298822

> <r_i_glide_evdw>
-30.0219650268555

> <r_i_glide_ecoul>
-13.2492933273315

> <r_i_glide_erotb>
0.502481002716467

> <r_i_glide_esite>
0

> <r_i_glide_emodel>
-62.692170450675

> <r_i_glide_energy>
-43.271258354187

> <r_i_glide_einternal>
4.21383428573608

> <i_i_glide_confnum>
32

> <i_i_glide_posenum>
226

> <r_i_glide_eff_state_penalty>
0

> <s_user_duplicate_titles>
554890

> <s_m_subgroup_title>
dock_pv

> <s_m_subgroupid>
dock_pv1

> <b_m_subgroup_collapsed>
0

$$$$
131042
                    3D
 Schrodinger Suite 2021-1.
 32 34  0  0  1  0            999 V2000
   16.8762   11.9724   60.7049 C   0  0  0  0  0  0
   15.9090   11.9807   59.7031 C   0  0  0  0  0  0
   15.0279   13.0643   59.5808 C   0  0  0  0  0  0
   15.1218   14.1267   60.4914 C   0  0  0  0  0  0
   16.0760   14.1070   61.5077 C   0  0  0  0  0  0
   16.9537   13.0312   61.6087 C   0  0  0  0  0  0
   16.1598   15.3958   62.6528 Cl  0  0  0  0  0  0
   13.9277   13.0926   58.5198 C   0  0  2  0  0  0
   12.5751   12.6810   59.1517 C   0  0  0  0  0  0
   11.4452   13.5479   58.7827 C   0  0  0  0  0  0
   10.5539   14.2323   58.5060 N   0  0  0  0  0  0
   14.3216   12.3627   57.2284 C   0  0  0  0  0  0
   15.2831   12.7882   56.3142 C   0  0  0  0  0  0
   15.4997   11.9787   55.3078 N   0  0  0  0  0  0
   14.6582   10.9344   55.5027 C   0  0  0  0  0  0
   14.4800    9.7429   54.7692 C   0  0  0  0  0  0
   13.5136    8.9038   55.1668 N   0  0  0  0  0  0
   12.7632    9.1602   56.2483 C   0  0  0  0  0  0
   12.9549   10.2331   57.0642 N   0  0  0  0  0  0
   13.8707   11.1266   56.6657 C   0  0  0  0  0  0
   15.2477    9.3600   53.7060 O   0  0  0  0  0  0
   13.3532    8.0355   54.6636 H   0  0  0  0  0  0
   17.5483   11.1309   60.8000 H   0  0  0  0  0  0
   15.8441   11.1372   59.0309 H   0  0  0  0  0  0
   14.4390   14.9611   60.4263 H   0  0  0  0  0  0
   17.6878   13.0014   62.3999 H   0  0  0  0  0  0
   13.8385   14.1467   58.2538 H   0  0  0  0  0  0
   12.3092   11.6446   58.9614 H   0  0  0  0  0  0
   12.6266   12.7617   60.2377 H   0  0  0  0  0  0
   15.8475   13.7043   56.4083 H   0  0  0  0  0  0
   12.0265    8.4071   56.5022 H   0  0  0  0  0  0
   15.0280    8.4847   53.3779 H   0  0  0  0  0  0
  1  6  1  0  0  0
  1  2  2  0  0  0
  1 23  1  0  0  0
  2  3  1  0  0  0
  2 24  1  0  0  0
  3  4  2  0  0  0
  3  8  1  0  0  0
  4  5  1  0  0  0
  4 25  1  0  0  0
  5  6  2  0  0  0
  5  7  1  0  0  0
  6 26  1  0  0  0
  8  9  1  0  0  0
  8 12  1  0  0  0
  8 27  1  0  0  0
  9 10  1  0  0  0
  9 28  1  0  0  0
  9 29  1  0  0  0
 10 11  3  0  0  0
 12 20  2  0  0  0
 12 13  1  0  0  0
 13 14  2  0  0  0
 13 30  1  0  0  0
 14 15  1  0  0  0
 15 20  1  0  0  0
 15 16  2  0  0  0
 16 17  1  0  0  0
 16 21  1  0  0  0
 17 22  1  0  0  0
 17 18  1  0  0  0
 18 19  2  0  0  0
 18 31  1  0  0  0
 19 20  1  0  0  0
 21 32  1  0  0  0
M  END
> <s_m_entry_id>
12128

> <s_m_entry_name>
ligand_docking-pose.42

> <s_m_Source_Path>
/home/csk/Desktop/cluster/DUD-E-result/pnph

> <s_m_Source_File>
ligand_docking-pose.sdf

> <i_m_Source_File_Index>
42

> <i_lp_mmshare_version>
53161

> <i_f3d_flags>
0

> <r_lp_tautomer_probability>
1

> <s_lp_Force_Field>
OPLS_2005

> <r_lp_Energy>
20.531143

> <b_lp_Chiralities_Consistent>
1

> <s_lp_Variant>
131042-1

> <s_i_glide_gridfile>
glide-grid_3bgs

> <i_i_glide_lignum>
173

> <i_i_glide_rotatable_bonds>
4

> <r_i_docking_score>
-8.38383198566338

> <r_i_glide_ligand_efficiency>
-0.399230094555399

> <r_i_glide_ligand_efficiency_sa>
-1.10144555869002

> <r_i_glide_ligand_efficiency_ln>
-2.0728855173276

> <r_i_glide_gscore>
-8.38383198566338

> <r_i_glide_lipo>
-3.26564152884962

> <r_i_glide_hbond>
-0.770955554144581

> <r_i_glide_metal>
0

> <r_i_glide_rewards>
-1.56645480769665

> <r_i_glide_evdw>
-34.9133644104004

> <r_i_glide_ecoul>
-8.61625194549561

> <r_i_glide_erotb>
0.41138326305506

> <r_i_glide_esite>
-0.15405734568323

> <r_i_glide_emodel>
-64.8877170682352

> <r_i_glide_energy>
-43.529616355896

> <r_i_glide_einternal>
5.34105157852173

> <i_i_glide_confnum>
8

> <i_i_glide_posenum>
17

> <r_i_glide_eff_state_penalty>
0

> <s_user_duplicate_titles>
131042

> <s_m_subgroup_title>
dock_pv

> <s_m_subgroupid>
dock_pv1

> <b_m_subgroup_collapsed>
0

$$$$
12101
                    3D
 Schrodinger Suite 2021-1.
 41 42  0  0  1  0            999 V2000
   14.2189   11.0330   61.0648 C   0  0  0  0  0  0
   14.7457   12.4815   60.9611 C   0  0  0  0  0  0
   15.9686   12.6801   61.8814 C   0  0  0  0  0  0
   15.2069   12.7363   59.4971 C   0  0  0  0  0  0
   14.0866   12.9261   58.4478 C   0  0  0  0  0  0
   14.4988   12.3472   57.1653 N   0  0  0  0  0  0
   15.4374   12.8304   56.3322 C   0  0  0  0  0  0
   15.6563   12.0465   55.3061 N   0  0  0  0  0  0
   14.8081   11.0195   55.4778 C   0  0  0  0  0  0
   14.0697   11.1779   56.6168 C   0  0  0  0  0  0
   13.0883   10.3647   57.0937 N   0  0  0  0  0  0
   12.8043    9.4117   56.2780 C   0  0  0  0  0  0
   13.5528    9.1208   55.1540 N   0  0  0  0  0  0
   14.6179    9.8297   54.6666 C   0  0  0  0  0  0
   15.2723    9.4330   53.7063 O   0  0  0  0  0  0
   11.7540    8.6330   56.5060 N   0  0  0  0  0  0
   13.5995   13.4100   61.4367 C   0  0  0  0  0  0
   13.8175   14.9153   61.1956 C   0  0  0  0  0  0
   12.2376   15.7022   60.5579 S   0  0  0  0  0  0
   11.4982   14.7641   59.7062 O   0  0  0  0  0  0
   12.5547   17.0540   60.1060 O   0  0  0  0  0  0
   11.4559   15.8330   62.0024 O   0  0  0  0  0  0
   15.0060   10.2959   60.9044 H   0  0  0  0  0  0
   13.7552   10.8383   62.0330 H   0  0  0  0  0  0
   13.4537   10.8387   60.3138 H   0  0  0  0  0  0
   16.7376   11.9275   61.7005 H   0  0  0  0  0  0
   16.4320   13.6562   61.7332 H   0  0  0  0  0  0
   15.6847   12.6327   62.9301 H   0  0  0  0  0  0
   15.8838   13.5900   59.4396 H   0  0  0  0  0  0
   15.8376   11.8917   59.2073 H   0  0  0  0  0  0
   13.1427   12.4527   58.7183 H   0  0  0  0  0  0
   13.8825   13.9782   58.2495 H   0  0  0  0  0  0
   15.9449   13.7581   56.5449 H   0  0  0  0  0  0
   13.3246    8.2830   54.6349 H   0  0  0  0  0  0
   11.0965    8.8555   57.2344 H   0  0  0  0  0  0
   11.7017    7.7083   56.0487 H   0  0  0  0  0  0
   13.4267   13.2592   62.5050 H   0  0  0  0  0  0
   12.6687   13.0690   60.9844 H   0  0  0  0  0  0
   14.5878   15.1311   60.4588 H   0  0  0  0  0  0
   14.0939   15.4360   62.1121 H   0  0  0  0  0  0
   11.3550   14.9550   62.4235 H   0  0  0  0  0  0
  1  2  1  0  0  0
  1 23  1  0  0  0
  1 24  1  0  0  0
  1 25  1  0  0  0
  2  3  1  0  0  0
  2  4  1  0  0  0
  2 17  1  0  0  0
  3 26  1  0  0  0
  3 27  1  0  0  0
  3 28  1  0  0  0
  4  5  1  0  0  0
  4 29  1  0  0  0
  4 30  1  0  0  0
  5 31  1  0  0  0
  5 32  1  0  0  0
  5  6  1  0  0  0
  6  7  1  0  0  0
  6 10  1  0  0  0
  7 33  1  0  0  0
  7  8  2  0  0  0
  8  9  1  0  0  0
  9 14  1  0  0  0
  9 10  2  0  0  0
 10 11  1  0  0  0
 11 12  2  0  0  0
 12 16  1  0  0  0
 12 13  1  0  0  0
 13 34  1  0  0  0
 13 14  1  0  0  0
 14 15  2  0  0  0
 16 35  1  0  0  0
 16 36  1  0  0  0
 17 18  1  0  0  0
 17 37  1  0  0  0
 17 38  1  0  0  0
 18 19  1  0  0  0
 18 39  1  0  0  0
 18 40  1  0  0  0
 19 20  2  0  0  0
 19 21  2  0  0  0
 19 22  1  0  0  0
 22 41  1  0  0  0
M  END
> <s_m_entry_id>
12130

> <s_m_entry_name>
ligand_docking-pose.44

> <s_m_Source_Path>
/home/csk/Desktop/cluster/DUD-E-result/pnph

> <s_m_Source_File>
ligand_docking-pose.sdf

> <i_m_Source_File_Index>
44

> <i_lp_mmshare_version>
53161

> <i_f3d_flags>
0

> <r_lp_tautomer_probability>
0.999940409345307

> <s_lp_Force_Field>
OPLS_2005

> <r_lp_Energy>
3.879528

> <b_lp_Chiralities_Consistent>
1

> <s_lp_Variant>
12101-1

> <s_i_glide_gridfile>
glide-grid_3bgs

> <i_i_glide_lignum>
323

> <i_i_glide_rotatable_bonds>
7

> <r_i_docking_score>
-8.30302225969706

> <r_i_glide_ligand_efficiency>
-0.377410102713503

> <r_i_glide_ligand_efficiency_sa>
-1.05751795050031

> <r_i_glide_ligand_efficiency_ln>
-2.02956150036555

> <r_i_glide_gscore>
-8.30302225969706

> <r_i_glide_lipo>
-1.70255761804527

> <r_i_glide_hbond>
-0.410893731530261

> <r_i_glide_metal>
0

> <r_i_glide_rewards>
-3.01325379510691

> <r_i_glide_evdw>
-34.181396484375

> <r_i_glide_ecoul>
-15.67751121521

> <r_i_glide_erotb>
1.03940973245005

> <r_i_glide_esite>
-0.155030340964418

> <r_i_glide_emodel>
-67.9812947456534

> <r_i_glide_energy>
-49.858907699585

> <r_i_glide_einternal>
6.98730278015137

> <i_i_glide_confnum>
126

> <i_i_glide_posenum>
141

> <r_i_glide_eff_state_penalty>
0

> <s_user_duplicate_titles>
12101

> <s_m_subgroup_title>
dock_pv

> <s_m_subgroupid>
dock_pv1

> <b_m_subgroup_collapsed>
0

$$$$
267661
                    3D
 Schrodinger Suite 2021-1.
 30 32  0  0  1  0            999 V2000
   14.5546   11.0336   55.7661 C   0  0  0  0  0  0
   13.5946   10.8717   56.7689 C   0  0  0  0  0  0
   13.7620   11.6931   57.8869 C   0  0  0  0  0  0
   15.2211   12.6325   57.6701 S   0  0  0  0  0  0
   15.5177   11.9633   56.1075 C   0  0  0  0  0  0
   12.8780   11.7787   59.1272 C   0  0  0  0  0  0
   12.7174   13.1258   59.6798 N   0  0  0  0  0  0
   13.5769   13.7395   60.5486 C   0  0  0  0  0  0
   13.0191   14.8106   61.1084 C   0  0  0  0  0  0
   13.7545   15.5878   62.1178 C   0  0  0  0  0  0
   15.0176   15.0458   62.4767 N   0  0  0  0  0  0
   15.4928   13.9914   61.9132 C   0  0  0  0  0  0
   14.8232   13.2953   60.9191 N   0  0  0  0  0  0
   16.7421   13.5211   62.3360 N   0  0  0  0  0  0
   13.2364   16.6244   62.5345 O   0  0  0  0  0  0
   11.7572   14.9928   60.5901 N   0  0  0  0  0  0
   11.4223   13.7051   60.0196 C   0  0  1  0  0  0
   10.5541   13.8779   58.9062 N   0  0  0  0  0  0
   14.5471   10.4824   54.8366 H   0  0  0  0  0  0
   12.7740   10.1757   56.6734 H   0  0  0  0  0  0
   16.3778   12.2805   55.5393 H   0  0  0  0  0  0
   11.8932   11.3780   58.8943 H   0  0  0  0  0  0
   13.2753   11.1328   59.9116 H   0  0  0  0  0  0
   17.0682   13.9177   63.2031 H   0  0  0  0  0  0
   15.2379   12.4886   60.4822 H   0  0  0  0  0  0
   16.8870   12.5230   62.3136 H   0  0  0  0  0  0
   11.0414   15.3325   61.2228 H   0  0  0  0  0  0
   10.9337   13.0889   60.7813 H   0  0  0  0  0  0
    9.8336   14.4781   59.2879 H   0  0  0  0  0  0
   11.1072   14.4529   58.2807 H   0  0  0  0  0  0
  1  5  2  0  0  0
  1  2  1  0  0  0
  1 19  1  0  0  0
  2  3  2  0  0  0
  2 20  1  0  0  0
  3  4  1  0  0  0
  3  6  1  0  0  0
  4  5  1  0  0  0
  5 21  1  0  0  0
  6  7  1  0  0  0
  6 22  1  0  0  0
  6 23  1  0  0  0
  7 17  1  0  0  0
  7  8  1  0  0  0
  8  9  2  0  0  0
  8 13  1  0  0  0
  9 16  1  0  0  0
  9 10  1  0  0  0
 10 15  2  0  0  0
 10 11  1  0  0  0
 11 12  2  0  0  0
 12 14  1  0  0  0
 12 13  1  0  0  0
 13 25  1  0  0  0
 14 24  1  0  0  0
 14 26  1  0  0  0
 16 17  1  0  0  0
 16 27  1  0  0  0
 17 18  1  0  0  0
 17 28  1  0  0  0
 18 29  1  0  0  0
 18 30  1  0  0  0
M  END
> <s_m_entry_id>
12137

> <s_m_entry_name>
ligand_docking-pose.51

> <s_m_Source_Path>
/home/csk/Desktop/cluster/DUD-E-result/pnph

> <s_m_Source_File>
ligand_docking-pose.sdf

> <i_m_Source_File_Index>
51

> <i_lp_mmshare_version>
53161

> <i_f3d_flags>
0

> <r_lp_tautomer_probability>
0.0305685059214395

> <s_lp_Force_Field>
OPLS_2005

> <r_lp_Energy>
25.283722

> <b_lp_Chiralities_Consistent>
1

> <s_lp_Variant>
267661-3

> <s_i_glide_gridfile>
glide-grid_3bgs

> <i_i_glide_lignum>
231

> <i_i_glide_rotatable_bonds>
2

> <r_i_docking_score>
-8.17929036618138

> <r_i_glide_ligand_efficiency>
-0.45440502034341

> <r_i_glide_ligand_efficiency_sa>
-1.19087804540295

> <r_i_glide_ligand_efficiency_ln>
-2.10244441281997

> <r_i_glide_gscore>
-8.17929036618138

> <r_i_glide_lipo>
-2.068767310325

> <r_i_glide_hbond>
-0.790822569145221

> <r_i_glide_metal>
0

> <r_i_glide_rewards>
-2.36879939614572

> <r_i_glide_evdw>
-36.7536315917969

> <r_i_glide_ecoul>
-10.8140125274658

> <r_i_glide_erotb>
0.508882368144268

> <r_i_glide_esite>
0

> <r_i_glide_emodel>
-67.3896207920967

> <r_i_glide_energy>
-47.5676441192627

> <r_i_glide_einternal>
1.87512350082397

> <i_i_glide_confnum>
4

> <i_i_glide_posenum>
291

> <r_i_glide_eff_state_penalty>
0

> <s_user_duplicate_titles>
267661

> <s_m_subgroup_title>
dock_pv

> <s_m_subgroupid>
dock_pv1

> <b_m_subgroup_collapsed>
0

$$$$
267516
                    3D
 Schrodinger Suite 2021-1.
 26 28  0  0  1  0            999 V2000
   13.5481    9.1828   55.5515 C   0  0  0  0  0  0
   13.3096   10.0508   56.6175 C   0  0  0  0  0  0
   14.0914   11.2030   56.7800 C   0  0  0  0  0  0
   15.1080   11.4330   55.8497 C   0  0  0  0  0  0
   15.3540   10.5961   54.8123 N   0  0  0  0  0  0
   14.5767    9.4935   54.6664 C   0  0  0  0  0  0
   13.8340   12.1439   57.8705 C   0  0  0  0  0  0
   12.6692   12.4581   58.2851 N   0  0  0  0  0  0
   12.8292   13.3798   59.3072 C   0  0  0  0  0  0
   14.1521   13.6275   59.5927 C   0  0  0  0  0  0
   14.5626   14.4602   60.5828 N   0  0  0  0  0  0
   13.5546   15.0474   61.2799 C   0  0  0  0  0  0
   12.2261   14.9118   61.0388 N   0  0  0  0  0  0
   11.8548   14.0615   60.0456 C   0  0  0  0  0  0
   10.5539   13.8377   59.7079 O   0  0  0  0  0  0
   13.8978   15.8324   62.3666 N   0  0  0  0  0  0
   14.9721   12.8424   58.6214 C   0  0  0  0  0  0
   12.9533    8.2896   55.4112 H   0  0  0  0  0  0
   12.5090    9.8277   57.3059 H   0  0  0  0  0  0
   15.7429   12.3054   55.9043 H   0  0  0  0  0  0
   14.7980    8.8435   53.8303 H   0  0  0  0  0  0
    9.9705   14.4107   60.2281 H   0  0  0  0  0  0
   13.1481   16.0225   63.0137 H   0  0  0  0  0  0
   14.8508   15.7797   62.6885 H   0  0  0  0  0  0
   15.5575   13.4832   57.9632 H   0  0  0  0  0  0
   15.6298   12.1187   59.1031 H   0  0  0  0  0  0
  1  6  1  0  0  0
  1  2  2  0  0  0
  1 18  1  0  0  0
  2  3  1  0  0  0
  2 19  1  0  0  0
  3  4  2  0  0  0
  3  7  1  0  0  0
  4  5  1  0  0  0
  4 20  1  0  0  0
  5  6  2  0  0  0
  6 21  1  0  0  0
  7 17  1  0  0  0
  7  8  2  0  0  0
  8  9  1  0  0  0
  9 14  2  0  0  0
  9 10  1  0  0  0
 10 11  2  0  0  0
 10 17  1  0  0  0
 11 12  1  0  0  0
 12 13  2  0  0  0
 12 16  1  0  0  0
 13 14  1  0  0  0
 14 15  1  0  0  0
 15 22  1  0  0  0
 16 23  1  0  0  0
 16 24  1  0  0  0
 17 25  1  0  0  0
 17 26  1  0  0  0
M  END
> <s_m_entry_id>
12138

> <s_m_entry_name>
ligand_docking-pose.52

> <s_m_Source_Path>
/home/csk/Desktop/cluster/DUD-E-result/pnph

> <s_m_Source_File>
ligand_docking-pose.sdf

> <i_m_Source_File_Index>
52

> <i_lp_mmshare_version>
53161

> <i_f3d_flags>
0

> <r_lp_tautomer_probability>
0.999601159137504

> <s_lp_Force_Field>
OPLS_2005

> <r_lp_Energy>
17.045855

> <b_lp_Chiralities_Consistent>
1

> <s_lp_Variant>
267516-1

> <s_i_glide_gridfile>
glide-grid_3bgs

> <i_i_glide_lignum>
208

> <i_i_glide_rotatable_bonds>
2

> <r_i_docking_score>
-8.17921028562088

> <r_i_glide_ligand_efficiency>
-0.481130016801228

> <r_i_glide_ligand_efficiency_sa>
-1.23712075374574

> <r_i_glide_ligand_efficiency_ln>
-2.13377382146067

> <r_i_glide_gscore>
-8.17921028562088

> <r_i_glide_lipo>
-1.98671884629884

> <r_i_glide_hbond>
-0.864

> <r_i_glide_metal>
0

> <r_i_glide_rewards>
-2.52330821240599

> <r_i_glide_evdw>
-34.2998237609863

> <r_i_glide_ecoul>
-9.46470260620117

> <r_i_glide_erotb>
0.329513352063441

> <r_i_glide_esite>
0

> <r_i_glide_emodel>
-63.2273163227467

> <r_i_glide_energy>
-43.7645263671875

> <r_i_glide_einternal>
2.75730490684509

> <i_i_glide_confnum>
2

> <i_i_glide_posenum>
245

> <r_i_glide_eff_state_penalty>
0

> <s_user_duplicate_titles>
267516

> <s_m_subgroup_title>
dock_pv

> <s_m_subgroupid>
dock_pv1

> <b_m_subgroup_collapsed>
0

$$$$
268067
                    3D
 Schrodinger Suite 2021-1.
 33 35  0  0  1  0            999 V2000
   15.0630   17.4602   65.4210 C   0  0  0  0  0  0
   15.0696   17.0328   64.0947 C   0  0  0  0  0  0
   15.2219   15.6769   63.7872 C   0  0  0  0  0  0
   15.3793   14.7531   64.8259 C   0  0  0  0  0  0
   15.3861   15.1737   66.1641 C   0  0  0  0  0  0
   15.2243   16.5359   66.4517 C   0  0  0  0  0  0
   15.5679   14.1725   67.3027 C   0  0  0  0  0  0
   16.8203   14.2585   67.7557 F   0  0  0  0  0  0
   14.7280   14.4454   68.3031 F   0  0  0  0  0  0
   15.3537   12.9149   66.9066 F   0  0  0  0  0  0
   15.2451   15.2046   62.3370 C   0  0  0  0  0  0
   13.8882   15.2010   61.6495 C   0  0  0  0  0  0
   12.8103   16.0600   61.8231 C   0  0  0  0  0  0
   11.7545   15.6952   61.0205 N   0  0  0  0  0  0
   12.1199   14.6004   60.2666 C   0  0  0  0  0  0
   13.4478   14.2592   60.6569 C   0  0  0  0  0  0
   14.0911   13.2181   60.1204 N   0  0  0  0  0  0
   13.3983   12.5319   59.1885 C   0  0  0  0  0  0
   12.1533   12.7925   58.7469 N   0  0  0  0  0  0
   11.4801   13.8424   59.2821 C   0  0  0  0  0  0
   10.2206   14.2329   58.9062 O   0  0  0  0  0  0
   14.0276   11.4355   58.6358 N   0  0  0  0  0  0
   10.8547   16.1609   61.0377 H   0  0  0  0  0  0
   14.9392   18.5087   65.6461 H   0  0  0  0  0  0
   14.9543   17.7631   63.3063 H   0  0  0  0  0  0
   15.4991   13.7062   64.5860 H   0  0  0  0  0  0
   15.2280   16.8791   67.4788 H   0  0  0  0  0  0
   15.9331   15.8330   61.7742 H   0  0  0  0  0  0
   15.6851   14.2043   62.2998 H   0  0  0  0  0  0
   12.7029   16.8997   62.4948 H   0  0  0  0  0  0
    9.8290   14.8192   59.5662 H   0  0  0  0  0  0
   14.8970   11.1401   59.0489 H   0  0  0  0  0  0
   13.4865   10.8380   58.0315 H   0  0  0  0  0  0
  1  6  1  0  0  0
  1  2  2  0  0  0
  1 24  1  0  0  0
  2  3  1  0  0  0
  2 25  1  0  0  0
  3  4  2  0  0  0
  3 11  1  0  0  0
  4  5  1  0  0  0
  4 26  1  0  0  0
  5  6  2  0  0  0
  5  7  1  0  0  0
  6 27  1  0  0  0
  7  8  1  0  0  0
  7  9  1  0  0  0
  7 10  1  0  0  0
 11 12  1  0  0  0
 11 28  1  0  0  0
 11 29  1  0  0  0
 12 16  1  0  0  0
 12 13  2  0  0  0
 13 14  1  0  0  0
 13 30  1  0  0  0
 14 23  1  0  0  0
 14 15  1  0  0  0
 15 20  1  0  0  0
 15 16  2  0  0  0
 16 17  1  0  0  0
 17 18  2  0  0  0
 18 19  1  0  0  0
 18 22  1  0  0  0
 19 20  2  0  0  0
 20 21  1  0  0  0
 21 31  1  0  0  0
 22 32  1  0  0  0
 22 33  1  0  0  0
M  END
> <s_m_entry_id>
12146

> <s_m_entry_name>
ligand_docking-pose.60

> <s_m_Source_Path>
/home/csk/Desktop/cluster/DUD-E-result/pnph

> <s_m_Source_File>
ligand_docking-pose.sdf

> <i_m_Source_File_Index>
60

> <i_lp_mmshare_version>
53161

> <i_f3d_flags>
0

> <r_lp_tautomer_probability>
1

> <s_lp_Force_Field>
OPLS_2005

> <r_lp_Energy>
3.428676

> <b_lp_Chiralities_Consistent>
1

> <s_lp_Variant>
268067-1

> <s_i_glide_gridfile>
glide-grid_3bgs

> <i_i_glide_lignum>
171

> <i_i_glide_rotatable_bonds>
4

> <r_i_docking_score>
-8.01050204077725

> <r_i_glide_ligand_efficiency>
-0.364113729126239

> <r_i_glide_ligand_efficiency_sa>
-1.0202609887921

> <r_i_glide_ligand_efficiency_ln>
-1.95805888892731

> <r_i_glide_gscore>
-8.01050204077725

> <r_i_glide_lipo>
-1.42167208312439

> <r_i_glide_hbond>
-1.13491383733692

> <r_i_glide_metal>
0

> <r_i_glide_rewards>
-2.44134842892767

> <r_i_glide_evdw>
-33.1117820739746

> <r_i_glide_ecoul>
-11.6422233581543

> <r_i_glide_erotb>
0.389354916033606

> <r_i_glide_esite>
0

> <r_i_glide_emodel>
-63.6319653087456

> <r_i_glide_energy>
-44.7540054321289

> <r_i_glide_einternal>
0.715446472167969

> <i_i_glide_confnum>
4

> <i_i_glide_posenum>
384

> <r_i_glide_eff_state_penalty>
0

> <s_user_duplicate_titles>
268067

> <s_m_subgroup_title>
dock_pv

> <s_m_subgroupid>
dock_pv1

> <b_m_subgroup_collapsed>
0

$$$$
267633
                    3D
 Schrodinger Suite 2021-1.
 29 31  0  0  1  0            999 V2000
   15.6872   15.2411   62.3732 C   0  0  0  0  0  0
   15.3660   15.9276   63.5355 C   0  0  0  0  0  0
   16.0673   15.1886   64.9299 S   0  0  0  0  0  0
   16.7809   13.9695   63.9298 C   0  0  0  0  0  0
   16.4716   14.0939   62.5790 C   0  0  0  0  0  0
   16.9405   13.1479   61.4860 C   0  0  0  0  0  0
   15.8562   12.1825   60.9471 C   0  0  2  0  0  0
   16.2316   11.4275   59.6681 C   0  0  0  0  0  0
   15.2636   11.2407   58.8470 N   0  0  0  0  0  0
   14.0841   11.7793   59.4886 C   0  0  1  0  0  0
   14.6021   12.8493   60.4378 C   0  0  1  0  0  0
   13.4984   13.2418   61.3028 N   0  0  0  0  0  0
   12.3078   13.5811   60.5912 C   0  0  0  0  0  0
   12.0581   13.2070   59.3805 N   0  0  0  0  0  0
   12.9695   12.4404   58.6168 C   0  0  0  0  0  0
   12.9567   12.2371   57.4040 O   0  0  0  0  0  0
   11.3555   14.3519   61.2788 N   0  0  0  0  0  0
   15.3476   15.5498   61.3969 H   0  0  0  0  0  0
   14.7660   16.8233   63.6353 H   0  0  0  0  0  0
   17.3871   13.2015   64.3865 H   0  0  0  0  0  0
   17.3678   13.7298   60.6668 H   0  0  0  0  0  0
   17.7548   12.5326   61.8616 H   0  0  0  0  0  0
   17.2313   11.0587   59.4597 H   0  0  0  0  0  0
   15.5930   11.4481   61.7050 H   0  0  0  0  0  0
   13.5724   10.9577   60.0036 H   0  0  0  0  0  0
   14.9072   13.7368   59.8677 H   0  0  0  0  0  0
   13.7438   13.8272   62.0881 H   0  0  0  0  0  0
   10.4398   14.4964   60.8670 H   0  0  0  0  0  0
   11.3037   14.2352   62.2858 H   0  0  0  0  0  0
  1  5  1  0  0  0
  1  2  2  0  0  0
  1 18  1  0  0  0
  2  3  1  0  0  0
  2 19  1  0  0  0
  3  4  1  0  0  0
  4  5  2  0  0  0
  4 20  1  0  0  0
  5  6  1  0  0  0
  6 21  1  0  0  0
  6 22  1  0  0  0
  6  7  1  0  0  0
  7 11  1  0  0  0
  7 24  1  0  0  0
  7  8  1  0  0  0
  8 23  1  0  0  0
  8  9  2  0  0  0
  9 10  1  0  0  0
 10 15  1  0  0  0
 10 11  1  0  0  0
 10 25  1  0  0  0
 11 12  1  0  0  0
 11 26  1  0  0  0
 12 13  1  0  0  0
 12 27  1  0  0  0
 13 14  2  0  0  0
 13 17  1  0  0  0
 14 15  1  0  0  0
 15 16  2  0  0  0
 17 28  1  0  0  0
 17 29  1  0  0  0
M  END
> <s_m_entry_id>
12151

> <s_m_entry_name>
ligand_docking-pose.65

> <s_m_Source_Path>
/home/csk/Desktop/cluster/DUD-E-result/pnph

> <s_m_Source_File>
ligand_docking-pose.sdf

> <i_m_Source_File_Index>
65

> <i_lp_mmshare_version>
53161

> <i_f3d_flags>
0

> <r_lp_tautomer_probability>
0.999981853117734

> <s_lp_Force_Field>
OPLS_2005

> <r_lp_Energy>
28.188892

> <b_lp_Chiralities_Consistent>
1

> <s_lp_Variant>
267633-6

> <s_i_glide_gridfile>
glide-grid_3bgs

> <i_i_glide_lignum>
248

> <i_i_glide_rotatable_bonds>
2

> <r_i_docking_score>
-7.89642665244358

> <r_i_glide_ligand_efficiency>
-0.464495685437858

> <r_i_glide_ligand_efficiency_sa>
-1.19434920377859

> <r_i_glide_ligand_efficiency_ln>
-2.06000186884661

> <r_i_glide_gscore>
-7.89642665244358

> <r_i_glide_lipo>
-1.69313917639945

> <r_i_glide_hbond>
-0.706167194360895

> <r_i_glide_metal>
0

> <r_i_glide_rewards>
-3.40768921320419

> <r_i_glide_evdw>
-30.1486339569092

> <r_i_glide_ecoul>
-7.53651571273804

> <r_i_glide_erotb>
0.566565815233523

> <r_i_glide_esite>
-0.0180878289564061

> <r_i_glide_emodel>
-56.4803989927017

> <r_i_glide_energy>
-37.6851496696472

> <r_i_glide_einternal>
0.823698818683624

> <i_i_glide_confnum>
3

> <i_i_glide_posenum>
266

> <r_i_glide_eff_state_penalty>
0

> <s_user_duplicate_titles>
267633

> <s_m_subgroup_title>
dock_pv

> <s_m_subgroupid>
dock_pv1

> <b_m_subgroup_collapsed>
0

$$$$
267561
                    3D
 Schrodinger Suite 2021-1.
 31 33  0  0  1  0            999 V2000
   15.3541   12.8719   57.6302 C   0  0  0  0  0  0
   14.8860   12.4954   56.3822 C   0  0  0  0  0  0
   14.1531   10.9330   56.4179 S   0  0  0  0  0  0
   14.5370   10.7855   58.1036 C   0  0  0  0  0  0
   15.1921   11.8958   58.6286 C   0  0  0  0  0  0
   15.6178   12.0478   60.0801 C   0  0  0  0  0  0
   15.1958   13.3296   60.7840 C   0  0  0  0  0  0
   15.7602   14.0585   61.7727 C   0  0  0  0  0  0
   15.0207   15.1825   62.1031 N   0  0  0  0  0  0
   13.6836   14.7812   61.7173 C   0  0  2  0  0  0
   13.9681   14.0987   60.3834 C   0  0  2  0  0  0
   12.7586   13.3930   59.9732 N   0  0  0  0  0  0
   11.5550   14.1598   59.9807 C   0  0  0  0  0  0
   11.5511   15.2820   60.7605 N   0  0  0  0  0  0
   12.5671   15.8322   61.4705 C   0  0  0  0  0  0
   12.5546   16.9995   61.8532 O   0  0  0  0  0  0
   10.5540   13.8340   59.3056 N   0  0  0  0  0  0
   16.8948   13.8394   62.5011 N   0  0  0  0  0  0
   15.8063   13.8333   57.8202 H   0  0  0  0  0  0
   14.9118   13.0668   55.4663 H   0  0  0  0  0  0
   14.2583    9.8863   58.6344 H   0  0  0  0  0  0
   15.2036   11.2296   60.6701 H   0  0  0  0  0  0
   16.6990   11.9471   60.1679 H   0  0  0  0  0  0
   15.0541   15.4882   63.0648 H   0  0  0  0  0  0
   13.2804   14.0956   62.4735 H   0  0  0  0  0  0
   14.2372   14.8205   59.6075 H   0  0  0  0  0  0
   12.8943   12.8409   59.1388 H   0  0  0  0  0  0
    9.7978   14.4819   59.4959 H   0  0  0  0  0  0
   10.7049   15.8323   60.7496 H   0  0  0  0  0  0
   17.4162   12.9825   62.3801 H   0  0  0  0  0  0
   17.1423   14.4416   63.2712 H   0  0  0  0  0  0
  1  5  1  0  0  0
  1  2  2  0  0  0
  1 19  1  0  0  0
  2  3  1  0  0  0
  2 20  1  0  0  0
  3  4  1  0  0  0
  4  5  2  0  0  0
  4 21  1  0  0  0
  5  6  1  0  0  0
  6  7  1  0  0  0
  6 22  1  0  0  0
  6 23  1  0  0  0
  7 11  1  0  0  0
  7  8  2  0  0  0
  8  9  1  0  0  0
  8 18  1  0  0  0
  9 24  1  0  0  0
  9 10  1  0  0  0
 10 15  1  0  0  0
 10 11  1  0  0  0
 10 25  1  0  0  0
 11 12  1  0  0  0
 11 26  1  0  0  0
 12 27  1  0  0  0
 12 13  1  0  0  0
 13 17  2  0  0  0
 13 14  1  0  0  0
 14 29  1  0  0  0
 14 15  1  0  0  0
 15 16  2  0  0  0
 17 28  1  0  0  0
 18 30  1  0  0  0
 18 31  1  0  0  0
M  END
> <s_m_entry_id>
12155

> <s_m_entry_name>
ligand_docking-pose.69

> <s_m_Source_Path>
/home/csk/Desktop/cluster/DUD-E-result/pnph

> <s_m_Source_File>
ligand_docking-pose.sdf

> <i_m_Source_File_Index>
69

> <i_lp_mmshare_version>
53161

> <i_f3d_flags>
0

> <r_lp_tautomer_probability>
0.114260407439966

> <s_lp_Force_Field>
OPLS_2005

> <r_lp_Energy>
34.980758

> <b_lp_Chiralities_Consistent>
1

> <s_lp_Variant>
267561-10

> <s_i_glide_gridfile>
glide-grid_3bgs

> <i_i_glide_lignum>
260

> <i_i_glide_rotatable_bonds>
2

> <r_i_docking_score>
-7.81115070640053

> <r_i_glide_ligand_efficiency>
-0.433952817022251

> <r_i_glide_ligand_efficiency_sa>
-1.13727810960805

> <r_i_glide_ligand_efficiency_ln>
-2.00781601155378

> <r_i_glide_gscore>
-7.81115070640053

> <r_i_glide_lipo>
-2.35368844902584

> <r_i_glide_hbond>
-0.808775623597381

> <r_i_glide_metal>
0

> <r_i_glide_rewards>
-1.77222293654308

> <r_i_glide_evdw>
-34.7879219055176

> <r_i_glide_ecoul>
-10.9189205169678

> <r_i_glide_erotb>
0.512180972167535

> <r_i_glide_esite>
-0.0114104965807155

> <r_i_glide_emodel>
-64.9871541354236

> <r_i_glide_energy>
-45.7068424224854

> <r_i_glide_einternal>
2.06469631195068

> <i_i_glide_confnum>
2

> <i_i_glide_posenum>
398

> <r_i_glide_eff_state_penalty>
0

> <s_user_duplicate_titles>
267561

> <s_m_subgroup_title>
dock_pv

> <s_m_subgroupid>
dock_pv1

> <b_m_subgroup_collapsed>
0

$$$$
83247
                    3D
 Schrodinger Suite 2021-1.
 31 33  0  0  1  0            999 V2000
   12.9537   12.7296   60.5018 C   0  0  0  0  0  0
   14.1009   12.7726   59.7292 C   0  0  0  0  0  0
   15.0585   13.5088   60.5121 C   0  0  0  0  0  0
   14.4406   13.8554   61.7514 C   0  0  0  0  0  0
   13.1542   13.3581   61.7060 N   0  0  0  0  0  0
   15.1725   14.5752   62.7044 C   0  0  0  0  0  0
   16.4387   14.9441   62.4000 N   0  0  0  0  0  0
   16.9317   14.5789   61.2027 C   0  0  0  0  0  0
   16.3159   13.8665   60.2402 N   0  0  0  0  0  0
   18.1938   15.0330   60.9063 N   0  0  0  0  0  0
   14.5541   14.8721   63.8825 O   0  0  0  0  0  0
   14.2525   12.1802   58.4039 C   0  0  0  0  0  0
   13.7119   10.9642   58.1651 C   0  0  0  0  0  0
   13.7539   10.2288   56.8331 C   0  0  0  0  0  0
   14.3114   11.1156   55.7034 C   0  0  0  0  0  0
   15.4325   12.0639   56.1652 C   0  0  0  0  0  0
   14.9403   12.9841   57.3008 C   0  0  0  0  0  0
   12.4321   13.4304   62.4140 H   0  0  0  0  0  0
   11.9962   12.2882   60.2783 H   0  0  0  0  0  0
   18.4243   14.9728   59.9280 H   0  0  0  0  0  0
   18.4812   15.8329   61.4440 H   0  0  0  0  0  0
   13.6632   14.5098   63.9106 H   0  0  0  0  0  0
   13.2321   10.4537   58.9863 H   0  0  0  0  0  0
   12.7672    9.8488   56.5628 H   0  0  0  0  0  0
   14.3782    9.3446   56.9552 H   0  0  0  0  0  0
   13.4931   11.7156   55.3063 H   0  0  0  0  0  0
   14.6570   10.4929   54.8772 H   0  0  0  0  0  0
   16.2925   11.4835   56.5034 H   0  0  0  0  0  0
   15.7779   12.6680   55.3250 H   0  0  0  0  0  0
   15.7537   13.6012   57.6765 H   0  0  0  0  0  0
   14.2111   13.6734   56.8821 H   0  0  0  0  0  0
  1  5  1  0  0  0
  1  2  2  0  0  0
  1 19  1  0  0  0
  2  3  1  0  0  0
  2 12  1  0  0  0
  3  9  2  0  0  0
  3  4  1  0  0  0
  4  5  1  0  0  0
  4  6  2  0  0  0
  5 18  1  0  0  0
  6  7  1  0  0  0
  6 11  1  0  0  0
  7  8  2  0  0  0
  8  9  1  0  0  0
  8 10  1  0  0  0
 10 20  1  0  0  0
 10 21  1  0  0  0
 11 22  1  0  0  0
 12 17  1  0  0  0
 12 13  2  0  0  0
 13 14  1  0  0  0
 13 23  1  0  0  0
 14 15  1  0  0  0
 14 24  1  0  0  0
 14 25  1  0  0  0
 15 16  1  0  0  0
 15 26  1  0  0  0
 15 27  1  0  0  0
 16 17  1  0  0  0
 16 28  1  0  0  0
 16 29  1  0  0  0
 17 30  1  0  0  0
 17 31  1  0  0  0
M  END
> <s_m_entry_id>
12163

> <s_m_entry_name>
ligand_docking-pose.77

> <s_m_Source_Path>
/home/csk/Desktop/cluster/DUD-E-result/pnph

> <s_m_Source_File>
ligand_docking-pose.sdf

> <i_m_Source_File_Index>
77

> <i_lp_mmshare_version>
53161

> <i_f3d_flags>
0

> <r_lp_tautomer_probability>
1

> <s_lp_Force_Field>
OPLS_2005

> <r_lp_Energy>
7.862495

> <b_lp_Chiralities_Consistent>
1

> <s_lp_Variant>
83247-1

> <s_i_glide_gridfile>
glide-grid_3bgs

> <i_i_glide_lignum>
10

> <i_i_glide_rotatable_bonds>
2

> <r_i_docking_score>
-7.69267228333066

> <r_i_glide_ligand_efficiency>
-0.452510134313568

> <r_i_glide_ligand_efficiency_sa>
-1.16353097684792

> <r_i_glide_ligand_efficiency_ln>
-2.00684689133177

> <r_i_glide_gscore>
-7.69267228333066

> <r_i_glide_lipo>
-2.71013748741089

> <r_i_glide_hbond>
-0.543036342458553

> <r_i_glide_metal>
0

> <r_i_glide_rewards>
-2.32500966283615

> <r_i_glide_evdw>
-29.7801780700684

> <r_i_glide_ecoul>
-6.31760692596436

> <r_i_glide_erotb>
0.322161151773007

> <r_i_glide_esite>
0

> <r_i_glide_emodel>
-50.9450763524098

> <r_i_glide_energy>
-36.0977849960327

> <r_i_glide_einternal>
1.09853672981262

> <i_i_glide_confnum>
2

> <i_i_glide_posenum>
259

> <r_i_glide_eff_state_penalty>
0

> <s_user_duplicate_titles>
83247

> <s_m_subgroup_title>
dock_pv

> <s_m_subgroupid>
dock_pv1

> <b_m_subgroup_collapsed>
0

$$$$
128889
                    3D
 Schrodinger Suite 2021-1.
 40 43  0  0  1  0            999 V2000
   14.1531   10.8048   55.5766 C   0  0  0  0  0  0
   13.4904   10.3187   56.6952 C   0  0  0  0  0  0
   13.7539   10.8729   57.9441 C   0  0  0  0  0  0
   14.6975   11.9031   58.1069 C   0  0  0  0  0  0
   15.3521   12.3704   56.9560 C   0  0  0  0  0  0
   15.0762   11.8357   55.7056 C   0  0  0  0  0  0
   15.0090   12.4769   59.4627 C   0  0  0  0  0  0
   14.5751   11.8341   60.6312 C   0  0  0  0  0  0
   14.8703   12.3485   61.8852 C   0  0  0  0  0  0
   15.6426   13.4960   62.0162 C   0  0  0  0  0  0
   16.0803   14.1587   60.8719 C   0  0  0  0  0  0
   15.7539   13.6606   59.6135 C   0  0  0  0  0  0
   15.9825   14.0303   63.4008 C   0  0  0  0  0  0
   15.2258   15.2865   63.7638 C   0  0  0  0  0  0
   14.2042   15.8993   63.0587 C   0  0  0  0  0  0
   13.7926   17.0333   63.7020 N   0  0  0  0  0  0
   14.5271   17.2101   64.8563 C   0  0  0  0  0  0
   15.4079   16.0942   64.9410 C   0  0  0  0  0  0
   16.2320   15.9297   65.9820 N   0  0  0  0  0  0
   16.1554   16.8877   66.9299 C   0  0  0  0  0  0
   15.3739   17.9863   66.9208 N   0  0  0  0  0  0
   14.5549   18.1876   65.8611 C   0  0  0  0  0  0
   13.7634   19.2923   65.7059 O   0  0  0  0  0  0
   16.9666   16.7242   68.0341 N   0  0  0  0  0  0
   13.0892   17.6481   63.3185 H   0  0  0  0  0  0
   13.9406   10.3850   54.6028 H   0  0  0  0  0  0
   12.7673    9.5207   56.5910 H   0  0  0  0  0  0
   13.2017   10.4731   58.7781 H   0  0  0  0  0  0
   16.0902   13.1536   56.9985 H   0  0  0  0  0  0
   15.5727   12.2385   54.8365 H   0  0  0  0  0  0
   14.0097   10.9163   60.6052 H   0  0  0  0  0  0
   14.5179   11.8333   62.7636 H   0  0  0  0  0  0
   16.6619   15.0668   60.9521 H   0  0  0  0  0  0
   16.0964   14.2270   58.7636 H   0  0  0  0  0  0
   17.0545   14.2259   63.4332 H   0  0  0  0  0  0
   15.7853   13.2712   64.1539 H   0  0  0  0  0  0
   13.7387   15.6140   62.1274 H   0  0  0  0  0  0
   13.5183   19.4333   64.7856 H   0  0  0  0  0  0
   16.8094   17.3433   68.8131 H   0  0  0  0  0  0
   17.4353   15.8387   68.1382 H   0  0  0  0  0  0
  1  6  1  0  0  0
  1  2  2  0  0  0
  1 26  1  0  0  0
  2  3  1  0  0  0
  2 27  1  0  0  0
  3  4  2  0  0  0
  3 28  1  0  0  0
  4  5  1  0  0  0
  4  7  1  0  0  0
  5  6  2  0  0  0
  5 29  1  0  0  0
  6 30  1  0  0  0
  7 12  1  0  0  0
  7  8  2  0  0  0
  8  9  1  0  0  0
  8 31  1  0  0  0
  9 10  2  0  0  0
  9 32  1  0  0  0
 10 11  1  0  0  0
 10 13  1  0  0  0
 11 12  2  0  0  0
 11 33  1  0  0  0
 12 34  1  0  0  0
 13 14  1  0  0  0
 13 35  1  0  0  0
 13 36  1  0  0  0
 14 18  1  0  0  0
 14 15  2  0  0  0
 15 16  1  0  0  0
 15 37  1  0  0  0
 16 25  1  0  0  0
 16 17  1  0  0  0
 17 22  1  0  0  0
 17 18  2  0  0  0
 18 19  1  0  0  0
 19 20  2  0  0  0
 20 21  1  0  0  0
 20 24  1  0  0  0
 21 22  2  0  0  0
 22 23  1  0  0  0
 23 38  1  0  0  0
 24 39  1  0  0  0
 24 40  1  0  0  0
M  END
> <s_m_entry_id>
12165

> <s_m_entry_name>
ligand_docking-pose.79

> <s_m_Source_Path>
/home/csk/Desktop/cluster/DUD-E-result/pnph

> <s_m_Source_File>
ligand_docking-pose.sdf

> <i_m_Source_File_Index>
79

> <i_lp_mmshare_version>
53161

> <i_f3d_flags>
0

> <r_lp_tautomer_probability>
1

> <s_lp_Force_Field>
OPLS_2005

> <r_lp_Energy>
10.540171

> <b_lp_Chiralities_Consistent>
1

> <s_lp_Variant>
128889-1

> <s_i_glide_gridfile>
glide-grid_3bgs

> <i_i_glide_lignum>
139

> <i_i_glide_rotatable_bonds>
4

> <r_i_docking_score>
-7.6900686393416

> <r_i_glide_ligand_efficiency>
-0.320419526639233

> <r_i_glide_ligand_efficiency_sa>
-0.924249848247969

> <r_i_glide_ligand_efficiency_ln>
-1.84058629965071

> <r_i_glide_gscore>
-7.6900686393416

> <r_i_glide_lipo>
-3.69525313216988

> <r_i_glide_hbond>
-0.367890271081033

> <r_i_glide_metal>
0

> <r_i_glide_rewards>
-1.43327953165168

> <r_i_glide_evdw>
-36.8359603881836

> <r_i_glide_ecoul>
-6.06574487686157

> <r_i_glide_erotb>
0.558014046499407

> <r_i_glide_esite>
0

> <r_i_glide_emodel>
-60.8937738837583

> <r_i_glide_energy>
-42.9017052650452

> <r_i_glide_einternal>
1.76726818084717

> <i_i_glide_confnum>
10

> <i_i_glide_posenum>
188

> <r_i_glide_eff_state_penalty>
0

> <s_user_duplicate_titles>
128889

> <s_m_subgroup_title>
dock_pv

> <s_m_subgroupid>
dock_pv1

> <b_m_subgroup_collapsed>
0

$$$$
60322
                    3D
 Schrodinger Suite 2021-1.
 35 37  0  0  1  0            999 V2000
   15.9820   12.5130   60.0992 C   0  0  0  0  0  0
   14.9998   12.3211   59.1386 C   0  0  0  0  0  0
   13.8652   13.0773   59.6049 C   0  0  0  0  0  0
   14.2495   13.7512   60.7982 C   0  0  0  0  0  0
   15.5435   13.3697   61.0771 N   0  0  0  0  0  0
   13.3379   14.5999   61.4292 C   0  0  0  0  0  0
   12.0958   14.7216   60.9060 N   0  0  0  0  0  0
   11.8147   14.0404   59.7794 C   0  0  0  0  0  0
   12.6397   13.2287   59.0845 N   0  0  0  0  0  0
   10.5540   14.2330   59.2548 N   0  0  0  0  0  0
   13.7540   15.2514   62.5489 O   0  0  0  0  0  0
   15.1189   11.5175   57.8625 C   0  0  2  0  0  0
   14.9581   12.3410   56.5754 C   0  0  2  0  0  0
   14.3741   11.3215   55.6102 C   0  0  2  0  0  0
   13.4781   10.4903   56.5371 C   0  0  2  0  0  0
   14.1539   10.4171   57.8341 N   0  0  1  0  0  0
   13.0125    9.1514   55.9162 C   0  0  0  0  0  0
   11.8433    8.6330   56.5060 O   0  0  0  0  0  0
   15.3540   10.5724   54.9046 O   0  0  0  0  0  0
   16.1027   13.0330   56.1060 O   0  0  0  0  0  0
   16.1131   13.6497   61.8636 H   0  0  0  0  0  0
   14.1893   13.0978   56.7463 H   0  0  0  0  0  0
   13.7288   11.8315   54.9060 H   0  0  0  0  0  0
   12.5947   11.0973   56.7171 H   0  0  0  0  0  0
   16.9863   12.1167   60.1518 H   0  0  0  0  0  0
   10.5576   14.2329   58.2486 H   0  0  0  0  0  0
    9.9698   14.8661   59.7997 H   0  0  0  0  0  0
   12.9773   15.5312   63.0393 H   0  0  0  0  0  0
   16.1155   11.0734   57.8691 H   0  0  0  0  0  0
   14.6479    9.5380   57.8938 H   0  0  0  0  0  0
   13.8069    8.4053   55.9262 H   0  0  0  0  0  0
   12.7655    9.3046   54.8660 H   0  0  0  0  0  0
   11.7239    7.7318   56.1395 H   0  0  0  0  0  0
   14.9195    9.8648   54.4191 H   0  0  0  0  0  0
   15.9751   13.2206   55.1716 H   0  0  0  0  0  0
  1  5  1  0  0  0
  1  2  2  0  0  0
  1 25  1  0  0  0
  2  3  1  0  0  0
  2 12  1  0  0  0
  3  9  2  0  0  0
  3  4  1  0  0  0
  4  5  1  0  0  0
  4  6  2  0  0  0
  5 21  1  0  0  0
  6  7  1  0  0  0
  6 11  1  0  0  0
  7  8  2  0  0  0
  8  9  1  0  0  0
  8 10  1  0  0  0
 10 26  1  0  0  0
 10 27  1  0  0  0
 11 28  1  0  0  0
 12 16  1  0  0  0
 12 13  1  0  0  0
 12 29  1  0  0  0
 13 22  1  0  0  0
 13 14  1  0  0  0
 13 20  1  0  0  0
 14 23  1  0  0  0
 14 15  1  0  0  0
 14 19  1  0  0  0
 15 24  1  0  0  0
 15 16  1  0  0  0
 15 17  1  0  0  0
 16 30  1  0  0  0
 17 18  1  0  0  0
 17 31  1  0  0  0
 17 32  1  0  0  0
 18 33  1  0  0  0
 19 34  1  0  0  0
 20 35  1  0  0  0
M  END
> <s_m_entry_id>
12172

> <s_m_entry_name>
ligand_docking-pose.86

> <s_m_Source_Path>
/home/csk/Desktop/cluster/DUD-E-result/pnph

> <s_m_Source_File>
ligand_docking-pose.sdf

> <i_m_Source_File_Index>
86

> <i_lp_mmshare_version>
53161

> <i_f3d_flags>
0

> <r_lp_tautomer_probability>
1

> <s_lp_Force_Field>
OPLS_2005

> <r_lp_Energy>
39.444342

> <b_lp_Chiralities_Consistent>
1

> <s_lp_Variant>
60322-1

> <s_i_glide_gridfile>
glide-grid_3bgs

> <i_i_glide_lignum>
11

> <i_i_glide_rotatable_bonds>
6

> <r_i_docking_score>
-7.65886805489878

> <r_i_glide_ligand_efficiency>
-0.382943402744939

> <r_i_glide_ligand_efficiency_sa>
-1.03946831753167

> <r_i_glide_ligand_efficiency_ln>
-1.91676206776652

> <r_i_glide_gscore>
-7.65886805489878

> <r_i_glide_lipo>
-1.88365777856111

> <r_i_glide_hbond>
-0.595127063505122

> <r_i_glide_metal>
0

> <r_i_glide_rewards>
-1.90974977290199

> <r_i_glide_evdw>
-31.5785217285156

> <r_i_glide_ecoul>
-13.9646320343018

> <r_i_glide_erotb>
0.456925785389594

> <r_i_glide_esite>
-0.0536383337491089

> <r_i_glide_emodel>
-62.4596396280154

> <r_i_glide_energy>
-45.5431537628174

> <r_i_glide_einternal>
5.70165967941284

> <i_i_glide_confnum>
11

> <i_i_glide_posenum>
303

> <r_i_glide_eff_state_penalty>
0

> <s_user_duplicate_titles>
60322

> <s_m_subgroup_title>
dock_pv

> <s_m_subgroupid>
dock_pv1

> <b_m_subgroup_collapsed>
0

$$$$
60296
                    3D
 Schrodinger Suite 2021-1.
 33 35  0  0  1  0            999 V2000
   15.3830   12.9667   56.9064 C   0  0  0  0  0  0
   14.4308   12.4266   57.7485 C   0  0  0  0  0  0
   13.9246   11.2814   57.0323 C   0  0  0  0  0  0
   14.6950   11.1335   55.8406 C   0  0  0  0  0  0
   15.5675   12.1952   55.7943 N   0  0  0  0  0  0
   14.4830   10.0269   55.0156 C   0  0  0  0  0  0
   13.4639    9.1923   55.3068 N   0  0  0  0  0  0
   12.7409    9.4330   56.4213 C   0  0  0  0  0  0
   12.9578   10.4078   57.3400 N   0  0  0  0  0  0
   15.3540    9.8313   53.9926 O   0  0  0  0  0  0
   14.0886   12.9418   59.1317 C   0  0  2  0  0  0
   14.3921   11.9540   60.2579 C   0  0  2  0  0  0
   13.5030   12.4497   61.4186 C   0  0  2  0  0  0
   12.4843   13.4081   60.7167 C   0  0  2  0  0  0
   12.6740   13.2313   59.2765 N   0  0  1  0  0  0
   12.6176   14.9088   61.1029 C   0  0  0  0  0  0
   11.6078   15.7063   60.5115 O   0  0  0  0  0  0
   14.2219   13.0368   62.5020 O   0  0  0  0  0  0
   15.7800   11.8079   60.5287 O   0  0  0  0  0  0
   16.2597   12.4111   55.0917 H   0  0  0  0  0  0
   14.0227   10.9707   59.9573 H   0  0  0  0  0  0
   12.9539   11.5875   61.7896 H   0  0  0  0  0  0
   11.4745   13.0874   60.9786 H   0  0  0  0  0  0
   16.0036   13.8330   57.0405 H   0  0  0  0  0  0
   11.9171    8.7545   56.5976 H   0  0  0  0  0  0
   15.1595    9.0000   53.5508 H   0  0  0  0  0  0
   14.6603   13.8604   59.2834 H   0  0  0  0  0  0
   12.4046   14.0471   58.7364 H   0  0  0  0  0  0
   13.5983   15.2990   60.8262 H   0  0  0  0  0  0
   12.5496   15.0353   62.1792 H   0  0  0  0  0  0
   10.7471   15.4330   60.8567 H   0  0  0  0  0  0
   13.9643   12.6038   63.3298 H   0  0  0  0  0  0
   15.8785   11.4259   61.4056 H   0  0  0  0  0  0
  1  5  1  0  0  0
  1  2  2  0  0  0
  1 24  1  0  0  0
  2  3  1  0  0  0
  2 11  1  0  0  0
  3  9  2  0  0  0
  3  4  1  0  0  0
  4  5  1  0  0  0
  4  6  2  0  0  0
  5 20  1  0  0  0
  6  7  1  0  0  0
  6 10  1  0  0  0
  7  8  2  0  0  0
  8  9  1  0  0  0
  8 25  1  0  0  0
 10 26  1  0  0  0
 11 15  1  0  0  0
 11 12  1  0  0  0
 11 27  1  0  0  0
 12 21  1  0  0  0
 12 13  1  0  0  0
 12 19  1  0  0  0
 13 22  1  0  0  0
 13 14  1  0  0  0
 13 18  1  0  0  0
 14 23  1  0  0  0
 14 15  1  0  0  0
 14 16  1  0  0  0
 15 28  1  0  0  0
 16 17  1  0  0  0
 16 29  1  0  0  0
 16 30  1  0  0  0
 17 31  1  0  0  0
 18 32  1  0  0  0
 19 33  1  0  0  0
M  END
> <s_m_entry_id>
12176

> <s_m_entry_name>
ligand_docking-pose.90

> <s_m_Source_Path>
/home/csk/Desktop/cluster/DUD-E-result/pnph

> <s_m_Source_File>
ligand_docking-pose.sdf

> <i_m_Source_File_Index>
90

> <i_lp_mmshare_version>
53161

> <i_f3d_flags>
0

> <r_lp_tautomer_probability>
1

> <s_lp_Force_Field>
OPLS_2005

> <r_lp_Energy>
40.484404

> <b_lp_Chiralities_Consistent>
1

> <s_lp_Variant>
60296-1

> <s_i_glide_gridfile>
glide-grid_3bgs

> <i_i_glide_lignum>
58

> <i_i_glide_rotatable_bonds>
6

> <r_i_docking_score>
-7.63858173164374

> <r_i_glide_ligand_efficiency>
-0.402030617454934

> <r_i_glide_ligand_efficiency_sa>
-1.07277916140054

> <r_i_glide_ligand_efficiency_ln>
-1.93654453066427

> <r_i_glide_gscore>
-7.63858173164374

> <r_i_glide_lipo>
-2.56447314002357

> <r_i_glide_hbond>
-0.605098449487325

> <r_i_glide_metal>
0

> <r_i_glide_rewards>
-1.76262287969734

> <r_i_glide_evdw>
-33.0375366210938

> <r_i_glide_ecoul>
-10.3799428939819

> <r_i_glide_erotb>
0.502481002716467

> <r_i_glide_esite>
0

> <r_i_glide_emodel>
-62.4815144537261

> <r_i_glide_energy>
-43.4174795150757

> <r_i_glide_einternal>
2.1367609500885

> <i_i_glide_confnum>
1

> <i_i_glide_posenum>
8

> <r_i_glide_eff_state_penalty>
0

> <s_user_duplicate_titles>
60296

> <s_m_subgroup_title>
dock_pv

> <s_m_subgroupid>
dock_pv1

> <b_m_subgroup_collapsed>
0

$$$$
249195
                    3D
 Schrodinger Suite 2021-1.
 35 37  0  0  1  0            999 V2000
   16.3289   11.2899   60.2196 C   0  0  0  0  0  0
   15.8061   12.3698   60.9104 C   0  0  0  0  0  0
   14.4945   12.5784   60.3430 C   0  0  0  0  0  0
   14.2901   11.5984   59.3324 C   0  0  0  0  0  0
   15.4250   10.8122   59.3060 N   0  0  0  0  0  0
   13.0931   11.6012   58.6106 C   0  0  0  0  0  0
   12.1566   12.5421   58.9060 N   0  0  0  0  0  0
   12.4325   13.4248   59.8869 C   0  0  0  0  0  0
   13.5567   13.4931   60.6246 N   0  0  0  0  0  0
   11.4506   14.3432   60.2036 N   0  0  0  0  0  0
   12.9540   10.6368   57.6550 O   0  0  0  0  0  0
   16.5032   13.1947   61.9810 C   0  0  1  0  0  0
   17.1348   14.5009   61.4582 C   0  0  2  0  0  0
   17.1329   15.4154   62.7056 C   0  0  1  0  0  0
   16.1290   14.7562   63.6772 C   0  0  2  0  0  0
   15.5423   13.6185   62.9848 N   0  0  2  0  0  0
   15.0897   15.7135   64.2912 C   0  0  0  0  0  0
   14.1847   16.1748   63.3060 O   0  0  0  0  0  0
   18.4116   15.5380   63.3060 O   0  0  0  0  0  0
   16.4620   15.0330   60.3242 O   0  0  0  0  0  0
   15.6233   10.0105   58.7238 H   0  0  0  0  0  0
   17.2721   12.5832   62.4535 H   0  0  0  0  0  0
   18.1538   14.2760   61.1402 H   0  0  0  0  0  0
   16.6925   14.3262   64.5082 H   0  0  0  0  0  0
   17.2891   10.8030   60.3220 H   0  0  0  0  0  0
   11.5855   14.8475   61.0652 H   0  0  0  0  0  0
   10.5312   14.2330   59.8101 H   0  0  0  0  0  0
   13.7159   10.0617   57.5920 H   0  0  0  0  0  0
   16.7653   16.4087   62.4559 H   0  0  0  0  0  0
   15.1435   12.8807   63.5548 H   0  0  0  0  0  0
   15.5791   16.5718   64.7527 H   0  0  0  0  0  0
   14.5540   15.1973   65.0847 H   0  0  0  0  0  0
   13.9022   15.3966   62.8098 H   0  0  0  0  0  0
   18.3610   16.1883   64.0131 H   0  0  0  0  0  0
   16.7130   15.9629   60.2104 H   0  0  0  0  0  0
  1  5  1  0  0  0
  1  2  2  0  0  0
  1 25  1  0  0  0
  2  3  1  0  0  0
  2 12  1  0  0  0
  3  9  2  0  0  0
  3  4  1  0  0  0
  4  5  1  0  0  0
  4  6  2  0  0  0
  5 21  1  0  0  0
  6  7  1  0  0  0
  6 11  1  0  0  0
  7  8  2  0  0  0
  8  9  1  0  0  0
  8 10  1  0  0  0
 10 26  1  0  0  0
 10 27  1  0  0  0
 11 28  1  0  0  0
 12 22  1  0  0  0
 12 16  1  0  0  0
 12 13  1  0  0  0
 13 23  1  0  0  0
 13 14  1  0  0  0
 13 20  1  0  0  0
 14 15  1  0  0  0
 14 19  1  0  0  0
 14 29  1  0  0  0
 15 24  1  0  0  0
 15 16  1  0  0  0
 15 17  1  0  0  0
 16 30  1  0  0  0
 17 18  1  0  0  0
 17 31  1  0  0  0
 17 32  1  0  0  0
 18 33  1  0  0  0
 19 34  1  0  0  0
 20 35  1  0  0  0
M  END
> <s_m_entry_id>
12177

> <s_m_entry_name>
ligand_docking-pose.91

> <s_m_Source_Path>
/home/csk/Desktop/cluster/DUD-E-result/pnph

> <s_m_Source_File>
ligand_docking-pose.sdf

> <i_m_Source_File_Index>
91

> <i_lp_mmshare_version>
53161

> <i_f3d_flags>
0

> <r_lp_tautomer_probability>
1

> <s_lp_Force_Field>
OPLS_2005

> <r_lp_Energy>
35.083848

> <b_lp_Chiralities_Consistent>
1

> <s_lp_Variant>
249195-1

> <s_i_glide_gridfile>
glide-grid_3bgs

> <i_i_glide_lignum>
32

> <i_i_glide_rotatable_bonds>
6

> <r_i_docking_score>
-7.63729040605901

> <r_i_glide_ligand_efficiency>
-0.38186452030295

> <r_i_glide_ligand_efficiency_sa>
-1.03653978002783

> <r_i_glide_ligand_efficiency_ln>
-1.91136189394042

> <r_i_glide_gscore>
-7.63729040605901

> <r_i_glide_lipo>
-1.79558585750071

> <r_i_glide_hbond>
-0.935451435814971

> <r_i_glide_metal>
0

> <r_i_glide_rewards>
-2.21306212071288

> <r_i_glide_evdw>
-28.8528308868408

> <r_i_glide_ecoul>
-11.38316822052

> <r_i_glide_erotb>
0.456925785389594

> <r_i_glide_esite>
0

> <r_i_glide_emodel>
-57.2078980581249

> <r_i_glide_energy>
-40.2359991073608

> <r_i_glide_einternal>
2.95590424537659

> <i_i_glide_confnum>
3

> <i_i_glide_posenum>
278

> <r_i_glide_eff_state_penalty>
0

> <s_user_duplicate_titles>
249195

> <s_m_subgroup_title>
dock_pv

> <s_m_subgroupid>
dock_pv1

> <b_m_subgroup_collapsed>
0

$$$$
128308
                    3D
 Schrodinger Suite 2021-1.
 29 31  0  0  1  0            999 V2000
   16.9852   17.7764   64.7685 C   0  0  0  0  0  0
   15.8892   18.2479   65.4896 C   0  0  0  0  0  0
   14.6220   17.8326   65.2533 N   0  0  0  0  0  0
   14.4317   16.9313   64.2574 C   0  0  0  0  0  0
   15.4625   16.4084   63.4645 C   0  0  0  0  0  0
   16.7723   16.8400   63.7539 C   0  0  0  0  0  0
   18.1536   16.2304   62.9068 Cl  0  0  0  0  0  0
   15.1878   15.3687   62.3654 C   0  0  0  0  0  0
   13.8437   15.3810   61.6353 C   0  0  0  0  0  0
   12.8086   16.3107   61.6359 C   0  0  0  0  0  0
   11.7546   15.8779   60.8702 N   0  0  0  0  0  0
   12.1015   14.6993   60.2509 C   0  0  0  0  0  0
   13.4028   14.3600   60.7215 C   0  0  0  0  0  0
   14.0296   13.2543   60.3077 N   0  0  0  0  0  0
   13.3528   12.5131   59.4066 C   0  0  0  0  0  0
   12.1274   12.7605   58.9048 N   0  0  0  0  0  0
   11.4644   13.8653   59.3269 C   0  0  0  0  0  0
   10.2133   14.2328   58.9062 O   0  0  0  0  0  0
   13.9797   11.3710   58.9552 N   0  0  0  0  0  0
   10.8782   16.3780   60.7948 H   0  0  0  0  0  0
   17.9822   18.1206   65.0002 H   0  0  0  0  0  0
   16.0182   18.9674   66.2852 H   0  0  0  0  0  0
   13.4094   16.6302   64.1065 H   0  0  0  0  0  0
   15.9664   15.4334   61.6053 H   0  0  0  0  0  0
   15.3297   14.3923   62.8300 H   0  0  0  0  0  0
   12.7217   17.2552   62.1511 H   0  0  0  0  0  0
    9.8084   14.8425   59.5357 H   0  0  0  0  0  0
   14.8134   11.0846   59.4432 H   0  0  0  0  0  0
   13.4312   10.7281   58.4073 H   0  0  0  0  0  0
  1  6  1  0  0  0
  1  2  2  0  0  0
  1 21  1  0  0  0
  2  3  1  0  0  0
  2 22  1  0  0  0
  3  4  2  0  0  0
  4  5  1  0  0  0
  4 23  1  0  0  0
  5  6  2  0  0  0
  5  8  1  0  0  0
  6  7  1  0  0  0
  8  9  1  0  0  0
  8 24  1  0  0  0
  8 25  1  0  0  0
  9 13  1  0  0  0
  9 10  2  0  0  0
 10 11  1  0  0  0
 10 26  1  0  0  0
 11 20  1  0  0  0
 11 12  1  0  0  0
 12 17  1  0  0  0
 12 13  2  0  0  0
 13 14  1  0  0  0
 14 15  2  0  0  0
 15 16  1  0  0  0
 15 19  1  0  0  0
 16 17  2  0  0  0
 17 18  1  0  0  0
 18 27  1  0  0  0
 19 28  1  0  0  0
 19 29  1  0  0  0
M  END
> <s_m_entry_id>
12179

> <s_m_entry_name>
ligand_docking-pose.93

> <s_m_Source_Path>
/home/csk/Desktop/cluster/DUD-E-result/pnph

> <s_m_Source_File>
ligand_docking-pose.sdf

> <i_m_Source_File_Index>
93

> <i_lp_mmshare_version>
53161

> <i_f3d_flags>
0

> <r_lp_tautomer_probability>
1

> <s_lp_Force_Field>
OPLS_2005

> <r_lp_Energy>
3.07046

> <b_lp_Chiralities_Consistent>
1

> <s_lp_Variant>
128308-1

> <s_i_glide_gridfile>
glide-grid_3bgs

> <i_i_glide_lignum>
241

> <i_i_glide_rotatable_bonds>
3

> <r_i_docking_score>
-7.63271763226153

> <r_i_glide_ligand_efficiency>
-0.401721980645344

> <r_i_glide_ligand_efficiency_sa>
-1.07195559442978

> <r_i_glide_ligand_efficiency_ln>
-1.93505785552158

> <r_i_glide_gscore>
-7.63271763226153

> <r_i_glide_lipo>
-1.15196849712454

> <r_i_glide_hbond>
-0.969286982739356

> <r_i_glide_metal>
0

> <r_i_glide_rewards>
-2.65258188273469

> <r_i_glide_evdw>
-33.0677185058594

> <r_i_glide_ecoul>
-11.1905069351196

> <r_i_glide_erotb>
0.473081695897971

> <r_i_glide_esite>
0

> <r_i_glide_emodel>
-61.9507394474522

> <r_i_glide_energy>
-44.258225440979

> <r_i_glide_einternal>
1.73129296302795

> <i_i_glide_confnum>
2

> <i_i_glide_posenum>
388

> <r_i_glide_eff_state_penalty>
0

> <s_user_duplicate_titles>
128308

> <s_m_subgroup_title>
dock_pv

> <s_m_subgroupid>
dock_pv1

> <b_m_subgroup_collapsed>
0

$$$$
398264
                    3D
 Schrodinger Suite 2021-1.
 40 41  0  0  1  0            999 V2000
   15.7548   12.9190   59.0315 C   0  0  0  0  0  0
   15.1708   11.7020   59.3736 C   0  0  0  0  0  0
   14.4941   11.2890   58.1960 C   0  0  0  0  0  0
   14.9235   12.1449   57.1930 C   0  0  0  0  0  0
   15.5885   13.1895   57.7161 N   0  0  0  0  0  0
   14.7697   11.8309   55.8200 C   0  0  0  0  0  0
   15.3541   12.3684   54.9057 O   0  0  0  0  0  0
   13.9176   10.7773   55.6760 N   0  0  0  0  0  0
   13.3542   10.0156   56.6697 C   0  0  0  0  0  0
   13.6617   10.2353   57.9133 N   0  0  0  0  0  0
   12.4346    9.0330   56.2660 N   0  0  0  0  0  0
   15.2819   11.0355   60.7292 C   0  0  0  0  0  0
   14.7584   11.9382   61.8657 C   0  0  0  0  0  0
   15.6112   13.1498   62.3152 C   0  0  0  0  0  0
   14.8119   14.1817   63.1241 C   0  0  0  0  0  0
   13.9809   15.1518   62.2695 C   0  0  0  0  0  0
   13.0117   14.5175   61.2437 C   0  0  0  0  0  0
   12.1534   13.6075   61.7060 F   0  0  0  0  0  0
   13.5868   14.0686   60.1402 F   0  0  0  0  0  0
   11.9322   15.7778   60.5972 P   0  0  0  0  0  0
   12.5540   17.0330   60.1067 O   0  0  0  0  0  0
   10.9548   14.9683   59.5895 O   0  0  0  0  0  0
   10.9540   15.9584   61.8442 O   0  0  0  0  0  0
   16.0028   13.9511   57.1976 H   0  0  0  0  0  0
   13.7165   10.5254   54.7224 H   0  0  0  0  0  0
   16.3657   13.6051   59.5877 H   0  0  0  0  0  0
   12.1495    8.3230   56.9234 H   0  0  0  0  0  0
   12.4565    8.6779   55.3197 H   0  0  0  0  0  0
   16.3208   10.7573   60.9055 H   0  0  0  0  0  0
   14.7204   10.1017   60.7299 H   0  0  0  0  0  0
   14.5534   11.4330   62.7903 H   0  0  0  0  0  0
   13.7604   12.1720   61.5572 H   0  0  0  0  0  0
   16.0900   13.6842   61.5136 H   0  0  0  0  0  0
   16.4475   12.7845   62.9059 H   0  0  0  0  0  0
   15.5021   14.7648   63.7353 H   0  0  0  0  0  0
   14.1531   13.6851   63.8287 H   0  0  0  0  0  0
   14.6584   15.8217   61.7396 H   0  0  0  0  0  0
   13.4144   15.7861   62.9535 H   0  0  0  0  0  0
   10.0054   15.0329   59.8357 H   0  0  0  0  0  0
    9.9950   15.8323   61.6256 H   0  0  0  0  0  0
  1  5  1  0  0  0
  1  2  2  0  0  0
  1 26  1  0  0  0
  2  3  1  0  0  0
  2 12  1  0  0  0
  3 10  1  0  0  0
  3  4  2  0  0  0
  4  5  1  0  0  0
  4  6  1  0  0  0
  5 24  1  0  0  0
  6  7  2  0  0  0
  6  8  1  0  0  0
  8 25  1  0  0  0
  8  9  1  0  0  0
  9 10  2  0  0  0
  9 11  1  0  0  0
 11 27  1  0  0  0
 11 28  1  0  0  0
 12 13  1  0  0  0
 12 29  1  0  0  0
 12 30  1  0  0  0
 13 14  1  0  0  0
 13 31  1  0  0  0
 13 32  1  0  0  0
 14 15  1  0  0  0
 14 33  1  0  0  0
 14 34  1  0  0  0
 15 16  1  0  0  0
 15 35  1  0  0  0
 15 36  1  0  0  0
 16 17  1  0  0  0
 16 37  1  0  0  0
 16 38  1  0  0  0
 17 18  1  0  0  0
 17 19  1  0  0  0
 17 20  1  0  0  0
 20 21  2  0  0  0
 20 22  1  0  0  0
 20 23  1  0  0  0
 22 39  1  0  0  0
 23 40  1  0  0  0
M  END
> <s_m_entry_id>
12180

> <s_m_entry_name>
ligand_docking-pose.94

> <s_m_Source_Path>
/home/csk/Desktop/cluster/DUD-E-result/pnph

> <s_m_Source_File>
ligand_docking-pose.sdf

> <i_m_Source_File_Index>
94

> <i_lp_mmshare_version>
53161

> <i_f3d_flags>
0

> <r_lp_tautomer_probability>
1

> <s_lp_Force_Field>
OPLS_2005

> <r_lp_Energy>
9.492208

> <b_lp_Chiralities_Consistent>
1

> <s_lp_Variant>
398264-1

> <s_i_glide_gridfile>
glide-grid_3bgs

> <i_i_glide_lignum>
130

> <i_i_glide_rotatable_bonds>
9

> <r_i_docking_score>
-7.59580722527048

> <r_i_glide_ligand_efficiency>
-0.330252488055238

> <r_i_glide_ligand_efficiency_sa>
-0.939194144812503

> <r_i_glide_ligand_efficiency_ln>
-1.83673506204237

> <r_i_glide_gscore>
-7.59580722527048

> <r_i_glide_lipo>
-1.77208888663745

> <r_i_glide_hbond>
-0.517638361274349

> <r_i_glide_metal>
0

> <r_i_glide_rewards>
-1.69116780799419

> <r_i_glide_evdw>
-19.0730419158936

> <r_i_glide_ecoul>
-24.1979789733887

> <r_i_glide_erotb>
1.0874614245878

> <r_i_glide_esite>
-0.11902465214932

> <r_i_glide_emodel>
-58.8932392594113

> <r_i_glide_energy>
-43.2710208892822

> <r_i_glide_einternal>
5.90977001190186

> <i_i_glide_confnum>
74

> <i_i_glide_posenum>
387

> <r_i_glide_eff_state_penalty>
0

> <s_user_duplicate_titles>
398264

> <s_m_subgroup_title>
dock_pv

> <s_m_subgroupid>
dock_pv1

> <b_m_subgroup_collapsed>
0

$$$$
558327
                    3D
 Schrodinger Suite 2021-1.
 33 35  0  0  1  0            999 V2000
   15.4972   13.6737   59.8279 C   0  0  0  0  0  0
   14.4926   12.9324   59.1981 C   0  0  0  0  0  0
   13.2853   13.5808   59.5620 C   0  0  0  0  0  0
   13.6080   14.6948   60.3536 C   0  0  0  0  0  0
   14.9621   14.7367   60.5061 N   0  0  0  0  0  0
   12.5809   15.5973   60.8587 C   0  0  0  0  0  0
   12.6999   16.6330   61.5087 O   0  0  0  0  0  0
   11.3540   15.1260   60.4857 N   0  0  0  0  0  0
   11.0626   14.0276   59.7060 C   0  0  0  0  0  0
   11.9902   13.2653   59.2446 N   0  0  0  0  0  0
   14.7365   11.7221   58.2909 C   0  0  2  0  0  0
   15.3584   12.0650   56.9077 C   0  0  1  0  0  0
   14.5604   11.2008   55.9183 C   0  0  2  0  0  0
   13.8636   10.1741   56.8289 C   0  0  1  0  0  0
   13.5233   10.9538   58.0106 N   0  0  1  0  0  0
   12.7374    9.3853   56.1426 C   0  0  0  0  0  0
   13.3287    8.6330   55.1022 O   0  0  0  0  0  0
   15.3540   10.6087   54.9060 O   0  0  0  0  0  0
   15.3540   13.4330   56.5321 O   0  0  0  0  0  0
   15.4778   15.4380   61.0207 H   0  0  0  0  0  0
   10.5686   15.6418   60.8593 H   0  0  0  0  0  0
   15.4195   11.0725   58.8427 H   0  0  0  0  0  0
   16.4003   11.7393   56.9196 H   0  0  0  0  0  0
   13.7889   11.8079   55.4392 H   0  0  0  0  0  0
   14.5540    9.4130   57.1790 H   0  0  0  0  0  0
   16.5684   13.5400   59.8144 H   0  0  0  0  0  0
   10.0125   13.8330   59.5100 H   0  0  0  0  0  0
   13.2204   10.4075   58.8069 H   0  0  0  0  0  0
   12.0012   10.0416   55.7060 H   0  0  0  0  0  0
   12.2159    8.7193   56.8306 H   0  0  0  0  0  0
   12.8591    7.7839   54.9996 H   0  0  0  0  0  0
   14.8422    9.8662   54.5536 H   0  0  0  0  0  0
   14.4375   13.7260   56.5060 H   0  0  0  0  0  0
  1  5  1  0  0  0
  1  2  2  0  0  0
  1 26  1  0  0  0
  2  3  1  0  0  0
  2 11  1  0  0  0
  3 10  1  0  0  0
  3  4  2  0  0  0
  4  5  1  0  0  0
  4  6  1  0  0  0
  5 20  1  0  0  0
  6  7  2  0  0  0
  6  8  1  0  0  0
  8 21  1  0  0  0
  8  9  1  0  0  0
  9 10  2  0  0  0
  9 27  1  0  0  0
 11 22  1  0  0  0
 11 15  1  0  0  0
 11 12  1  0  0  0
 12 23  1  0  0  0
 12 13  1  0  0  0
 12 19  1  0  0  0
 13 24  1  0  0  0
 13 14  1  0  0  0
 13 18  1  0  0  0
 14 25  1  0  0  0
 14 15  1  0  0  0
 14 16  1  0  0  0
 15 28  1  0  0  0
 16 17  1  0  0  0
 16 29  1  0  0  0
 16 30  1  0  0  0
 17 31  1  0  0  0
 18 32  1  0  0  0
 19 33  1  0  0  0
M  END
> <s_m_entry_id>
12181

> <s_m_entry_name>
ligand_docking-pose.95

> <s_m_Source_Path>
/home/csk/Desktop/cluster/DUD-E-result/pnph

> <s_m_Source_File>
ligand_docking-pose.sdf

> <i_m_Source_File_Index>
95

> <i_lp_mmshare_version>
53161

> <i_f3d_flags>
0

> <r_lp_tautomer_probability>
1

> <s_lp_Force_Field>
OPLS_2005

> <r_lp_Energy>
45.04308

> <b_lp_Chiralities_Consistent>
1

> <s_lp_Variant>
558327-1

> <s_i_glide_gridfile>
glide-grid_3bgs

> <i_i_glide_lignum>
83

> <i_i_glide_rotatable_bonds>
5

> <r_i_docking_score>
-7.58558162574653

> <r_i_glide_ligand_efficiency>
-0.399241138197186

> <r_i_glide_ligand_efficiency_sa>
-1.06533571035739

> <r_i_glide_ligand_efficiency_ln>
-1.92310786548143

> <r_i_glide_gscore>
-7.58558162574653

> <r_i_glide_lipo>
-2.34234283386723

> <r_i_glide_hbond>
-0.413800214677793

> <r_i_glide_metal>
0

> <r_i_glide_rewards>
-1.67903514157562

> <r_i_glide_evdw>
-34.70751953125

> <r_i_glide_ecoul>
-12.7111368179321

> <r_i_glide_erotb>
0.502481002716467

> <r_i_glide_esite>
-0.0108379390900372

> <r_i_glide_emodel>
-64.2635477280618

> <r_i_glide_energy>
-47.4186563491821

> <r_i_glide_einternal>
3.835688829422

> <i_i_glide_confnum>
3

> <i_i_glide_posenum>
153

> <r_i_glide_eff_state_penalty>
0

> <s_user_duplicate_titles>
558327

> <s_m_subgroup_title>
dock_pv

> <s_m_subgroupid>
dock_pv1

> <b_m_subgroup_collapsed>
0

$$$$
189955
                    3D
 Schrodinger Suite 2021-1.
 32 34  0  0  1  0            999 V2000
   14.9826   10.5612   59.2886 C   0  0  0  0  0  0
   15.1721   11.3519   60.3747 N   0  0  0  0  0  0
   14.6736   12.5858   60.2598 C   0  0  0  0  0  0
   14.0081   13.0255   59.0933 C   0  0  0  0  0  0
   13.8579   12.1546   58.0114 C   0  0  0  0  0  0
   14.3576   10.8980   58.1325 N   0  0  0  0  0  0
   13.2175   12.6328   56.9060 O   0  0  0  0  0  0
   13.6423   14.3276   59.3531 N   0  0  0  0  0  0
   14.0556   14.7203   60.5721 N   0  0  0  0  0  0
   14.6494   13.6959   61.1553 C   0  0  0  0  0  0
   15.2205   13.7496   62.5714 C   0  0  1  0  0  0
   16.7245   14.0753   62.6684 C   0  0  2  0  0  0
   16.8196   14.5951   64.1150 C   0  0  2  0  0  0
   15.4698   15.3194   64.3607 C   0  0  2  0  0  0
   14.5541   14.7652   63.3701 N   0  0  2  0  0  0
   15.5062   16.8629   64.2398 C   0  0  0  0  0  0
   14.2329   17.4334   64.5059 O   0  0  0  0  0  0
   18.0116   15.3049   64.4256 O   0  0  0  0  0  0
   17.1925   15.0105   61.7057 O   0  0  0  0  0  0
   13.1451   14.9680   58.7472 H   0  0  0  0  0  0
   15.0154   12.7781   63.0255 H   0  0  0  0  0  0
   16.8205   13.7136   64.7600 H   0  0  0  0  0  0
   15.1152   15.0675   65.3617 H   0  0  0  0  0  0
   15.3618    9.5511   59.3556 H   0  0  0  0  0  0
   12.9572   13.5624   56.9511 H   0  0  0  0  0  0
   17.2910   13.1494   62.5540 H   0  0  0  0  0  0
   13.6033   14.5589   63.6671 H   0  0  0  0  0  0
   15.8444   17.1597   63.2460 H   0  0  0  0  0  0
   16.2241   17.2858   64.9434 H   0  0  0  0  0  0
   14.1673   18.2846   64.0519 H   0  0  0  0  0  0
   18.0705   15.4085   65.3786 H   0  0  0  0  0  0
   16.6046   14.9810   60.9462 H   0  0  0  0  0  0
  1  6  1  0  0  0
  1  2  2  0  0  0
  1 24  1  0  0  0
  2  3  1  0  0  0
  3 10  1  0  0  0
  3  4  2  0  0  0
  4  5  1  0  0  0
  4  8  1  0  0  0
  5  6  2  0  0  0
  5  7  1  0  0  0
  7 25  1  0  0  0
  8 20  1  0  0  0
  8  9  1  0  0  0
  9 10  2  0  0  0
 10 11  1  0  0  0
 11 21  1  0  0  0
 11 15  1  0  0  0
 11 12  1  0  0  0
 12 13  1  0  0  0
 12 19  1  0  0  0
 12 26  1  0  0  0
 13 22  1  0  0  0
 13 14  1  0  0  0
 13 18  1  0  0  0
 14 23  1  0  0  0
 14 15  1  0  0  0
 14 16  1  0  0  0
 15 27  1  0  0  0
 16 17  1  0  0  0
 16 28  1  0  0  0
 16 29  1  0  0  0
 17 30  1  0  0  0
 18 31  1  0  0  0
 19 32  1  0  0  0
M  END
> <s_m_entry_id>
12182

> <s_m_entry_name>
ligand_docking-pose.96

> <s_m_Source_Path>
/home/csk/Desktop/cluster/DUD-E-result/pnph

> <s_m_Source_File>
ligand_docking-pose.sdf

> <i_m_Source_File_Index>
96

> <i_lp_mmshare_version>
53161

> <i_f3d_flags>
0

> <r_lp_tautomer_probability>
1

> <s_lp_Force_Field>
OPLS_2005

> <r_lp_Energy>
44.485046

> <b_lp_Chiralities_Consistent>
1

> <s_lp_Variant>
189955-2

> <s_i_glide_gridfile>
glide-grid_3bgs

> <i_i_glide_lignum>
279

> <i_i_glide_rotatable_bonds>
6

> <r_i_docking_score>
-7.5773157647944

> <r_i_glide_ligand_efficiency>
-0.398806092883916

> <r_i_glide_ligand_efficiency_sa>
-1.06417483472733

> <r_i_glide_ligand_efficiency_ln>
-1.92101229219565

> <r_i_glide_gscore>
-7.5773157647944

> <r_i_glide_lipo>
-1.49696044913518

> <r_i_glide_hbond>
-1.13681698853704

> <r_i_glide_metal>
0

> <r_i_glide_rewards>
-2.00748259301436

> <r_i_glide_evdw>
-27.3632850646973

> <r_i_glide_ecoul>
-13.7811183929443

> <r_i_glide_erotb>
0.499276278068686

> <r_i_glide_esite>
0

> <r_i_glide_emodel>
-58.6503637435796

> <r_i_glide_energy>
-41.1444034576416

> <r_i_glide_einternal>
1.57348990440369

> <i_i_glide_confnum>
13

> <i_i_glide_posenum>
302

> <r_i_glide_eff_state_penalty>
0

> <s_user_duplicate_titles>
189955,60847,249388

> <s_m_subgroup_title>
dock_pv

> <s_m_subgroupid>
dock_pv1

> <b_m_subgroup_collapsed>
0

$$$$
560126
                    3D
 Schrodinger Suite 2021-1.
 36 38  0  0  1  0            999 V2000
   11.1347   13.9478   59.2607 C   0  0  0  0  0  0
   11.3540   14.9138   60.2197 N   0  0  0  0  0  0
   12.5037   15.1761   60.9062 C   0  0  0  0  0  0
   12.6001   16.1290   61.6758 O   0  0  0  0  0  0
   13.4914   14.1725   60.5515 C   0  0  0  0  0  0
   13.2577   13.2036   59.5711 C   0  0  0  0  0  0
   12.0565   13.1108   58.9186 N   0  0  0  0  0  0
   14.4398   12.4354   59.4033 C   0  0  0  0  0  0
   15.3446   12.9460   60.3692 C   0  0  0  0  0  0
   14.7458   13.9933   61.0249 N   0  0  0  0  0  0
   16.6992   12.6182   60.7048 C   0  0  0  0  0  0
   17.3540   13.3177   61.4721 O   0  0  0  0  0  0
   17.1705   11.4896   60.1061 O   0  0  0  0  0  0
   14.7027   11.3505   58.3423 C   0  0  2  0  0  0
   15.3916   11.8444   57.0417 C   0  0  1  0  0  0
   14.6420   11.0938   55.9242 C   0  0  2  0  0  0
   13.8452   10.0090   56.6624 C   0  0  1  0  0  0
   13.4989   10.6330   57.9389 N   0  0  2  0  0  0
   12.7018    9.4275   55.8018 C   0  0  0  0  0  0
   11.7759    8.6330   56.5060 O   0  0  0  0  0  0
   15.4721   10.5747   54.9060 O   0  0  0  0  0  0
   15.3539   13.2505   56.8379 O   0  0  0  0  0  0
   10.5637   15.4769   60.5061 H   0  0  0  0  0  0
   15.1847   14.5513   61.7452 H   0  0  0  0  0  0
   15.3145   10.5826   58.8124 H   0  0  0  0  0  0
   16.4401   11.5419   57.0681 H   0  0  0  0  0  0
   13.9393   11.7846   55.4520 H   0  0  0  0  0  0
   14.5067    9.1753   56.9060 H   0  0  0  0  0  0
   10.1539   13.9286   58.8010 H   0  0  0  0  0  0
   16.4810   11.0044   59.6563 H   0  0  0  0  0  0
   12.7182   11.2721   57.8500 H   0  0  0  0  0  0
   12.1541   10.2330   55.3491 H   0  0  0  0  0  0
   13.1108    8.8455   54.9741 H   0  0  0  0  0  0
   11.7540    7.7407   56.0987 H   0  0  0  0  0  0
   16.0047    9.8576   55.2612 H   0  0  0  0  0  0
   14.4441   13.5151   56.6716 H   0  0  0  0  0  0
  1  7  2  0  0  0
  1  2  1  0  0  0
  1 29  1  0  0  0
  2 23  1  0  0  0
  2  3  1  0  0  0
  3  4  2  0  0  0
  3  5  1  0  0  0
  5 10  1  0  0  0
  5  6  2  0  0  0
  6  7  1  0  0  0
  6  8  1  0  0  0
  8  9  2  0  0  0
  8 14  1  0  0  0
  9 10  1  0  0  0
  9 11  1  0  0  0
 10 24  1  0  0  0
 11 12  2  0  0  0
 11 13  1  0  0  0
 13 30  1  0  0  0
 14 25  1  0  0  0
 14 18  1  0  0  0
 14 15  1  0  0  0
 15 26  1  0  0  0
 15 16  1  0  0  0
 15 22  1  0  0  0
 16 27  1  0  0  0
 16 17  1  0  0  0
 16 21  1  0  0  0
 17 28  1  0  0  0
 17 18  1  0  0  0
 17 19  1  0  0  0
 18 31  1  0  0  0
 19 20  1  0  0  0
 19 32  1  0  0  0
 19 33  1  0  0  0
 20 34  1  0  0  0
 21 35  1  0  0  0
 22 36  1  0  0  0
M  END
> <s_m_entry_id>
12184

> <s_m_entry_name>
ligand_docking-pose.98

> <s_m_Source_Path>
/home/csk/Desktop/cluster/DUD-E-result/pnph

> <s_m_Source_File>
ligand_docking-pose.sdf

> <i_m_Source_File_Index>
98

> <i_lp_mmshare_version>
53161

> <i_f3d_flags>
0

> <r_lp_tautomer_probability>
1

> <s_lp_Force_Field>
OPLS_2005

> <r_lp_Energy>
45.272528

> <b_lp_Chiralities_Consistent>
1

> <s_lp_Variant>
560126-1

> <s_i_glide_gridfile>
glide-grid_3bgs

> <i_i_glide_lignum>
306

> <i_i_glide_rotatable_bonds>
7

> <r_i_docking_score>
-7.57461353452769

> <r_i_glide_ligand_efficiency>
-0.344300615205804

> <r_i_glide_ligand_efficiency_sa>
-0.964743864381487

> <r_i_glide_ligand_efficiency_ln>
-1.85151183858034

> <r_i_glide_gscore>
-7.57461353452769

> <r_i_glide_lipo>
-2.23673838032601

> <r_i_glide_hbond>
-0.558805812475567

> <r_i_glide_metal>
0

> <r_i_glide_rewards>
-1.65584200303331

> <r_i_glide_evdw>
-36.2635612487793

> <r_i_glide_ecoul>
-12.2862930297852

> <r_i_glide_erotb>
0.577425009537262

> <r_i_glide_esite>
-0.0445303313233256

> <r_i_glide_emodel>
-67.7089262045694

> <r_i_glide_energy>
-48.5498542785645

> <r_i_glide_einternal>
3.40508961677551

> <i_i_glide_confnum>
19

> <i_i_glide_posenum>
30

> <r_i_glide_eff_state_penalty>
0

> <s_user_duplicate_titles>
560126

> <s_m_subgroup_title>
dock_pv

> <s_m_subgroupid>
dock_pv1

> <b_m_subgroup_collapsed>
0

$$$$
267518
                    3D
 Schrodinger Suite 2021-1.
 32 34  0  0  1  0            999 V2000
   14.1552   10.6396   55.7215 C   0  0  0  0  0  0
   13.3979   10.2346   56.8179 C   0  0  0  0  0  0
   13.3544   11.0341   57.9585 C   0  0  0  0  0  0
   14.0626   12.2374   57.9965 C   0  0  0  0  0  0
   14.8321   12.6307   56.8985 C   0  0  0  0  0  0
   14.8783   11.8308   55.7606 C   0  0  0  0  0  0
   13.9737   13.1373   59.2239 C   0  0  0  0  0  0
   14.6575   12.5778   60.5008 C   0  0  1  0  0  0
   16.1496   12.2331   60.3736 C   0  0  0  0  0  0
   16.9538   13.1042   60.8616 N   0  0  0  0  0  0
   16.1265   14.1989   61.3120 C   0  0  1  0  0  0
   14.7702   13.5767   61.6390 C   0  0  1  0  0  0
   13.8168   14.6573   61.8856 N   0  0  0  0  0  0
   14.3074   15.6964   62.7411 C   0  0  0  0  0  0
   15.5470   15.8595   63.0450 N   0  0  0  0  0  0
   16.5812   15.0537   62.5353 C   0  0  0  0  0  0
   17.7540   15.0329   62.9061 O   0  0  0  0  0  0
   13.3909   16.6329   63.2524 N   0  0  0  0  0  0
   14.1791   10.0223   54.8348 H   0  0  0  0  0  0
   12.8390    9.3111   56.7744 H   0  0  0  0  0  0
   12.7664   10.7231   58.8085 H   0  0  0  0  0  0
   15.3804   13.5613   56.9176 H   0  0  0  0  0  0
   15.4547   12.1478   54.9060 H   0  0  0  0  0  0
   14.3819   14.1182   58.9751 H   0  0  0  0  0  0
   12.9182   13.3220   59.4288 H   0  0  0  0  0  0
   16.5133   11.3190   59.9130 H   0  0  0  0  0  0
   14.1088   11.6964   60.8367 H   0  0  0  0  0  0
   16.0779   14.9334   60.5015 H   0  0  0  0  0  0
   14.8456   13.0003   62.5681 H   0  0  0  0  0  0
   12.8614   14.3717   62.0489 H   0  0  0  0  0  0
   13.7774   17.3222   63.8807 H   0  0  0  0  0  0
   12.5452   16.2437   63.6399 H   0  0  0  0  0  0
  1  6  1  0  0  0
  1  2  2  0  0  0
  1 19  1  0  0  0
  2  3  1  0  0  0
  2 20  1  0  0  0
  3  4  2  0  0  0
  3 21  1  0  0  0
  4  5  1  0  0  0
  4  7  1  0  0  0
  5  6  2  0  0  0
  5 22  1  0  0  0
  6 23  1  0  0  0
  7 24  1  0  0  0
  7 25  1  0  0  0
  7  8  1  0  0  0
  8 12  1  0  0  0
  8 27  1  0  0  0
  8  9  1  0  0  0
  9 26  1  0  0  0
  9 10  2  0  0  0
 10 11  1  0  0  0
 11 16  1  0  0  0
 11 12  1  0  0  0
 11 28  1  0  0  0
 12 13  1  0  0  0
 12 29  1  0  0  0
 13 14  1  0  0  0
 13 30  1  0  0  0
 14 15  2  0  0  0
 14 18  1  0  0  0
 15 16  1  0  0  0
 16 17  2  0  0  0
 18 31  1  0  0  0
 18 32  1  0  0  0
M  END
> <s_m_entry_id>
12187

> <s_m_entry_name>
ligand_docking-pose.101

> <s_m_Source_Path>
/home/csk/Desktop/cluster/DUD-E-result/pnph

> <s_m_Source_File>
ligand_docking-pose.sdf

> <i_m_Source_File_Index>
101

> <i_lp_mmshare_version>
53161

> <i_f3d_flags>
0

> <r_lp_tautomer_probability>
0.999981853117734

> <s_lp_Force_Field>
OPLS_2005

> <r_lp_Energy>
34.633961

> <b_lp_Chiralities_Consistent>
1

> <s_lp_Variant>
267518-5

> <s_i_glide_gridfile>
glide-grid_3bgs

> <i_i_glide_lignum>
145

> <i_i_glide_rotatable_bonds>
2

> <r_i_docking_score>
-7.54515666026595

> <r_i_glide_ligand_efficiency>
-0.419175370014775

> <r_i_glide_ligand_efficiency_sa>
-1.09855024257215

> <r_i_glide_ligand_efficiency_ln>
-1.93944361357029

> <r_i_glide_gscore>
-7.54515666026595

> <r_i_glide_lipo>
-2.67721649211952

> <r_i_glide_hbond>
-0.460799946011607

> <r_i_glide_metal>
0

> <r_i_glide_rewards>
-2.3595459549166

> <r_i_glide_evdw>
-32.3305625915527

> <r_i_glide_ecoul>
-6.81305170059204

> <r_i_glide_erotb>
0.590891617448226

> <r_i_glide_esite>
0

> <r_i_glide_emodel>
-55.9145351150755

> <r_i_glide_energy>
-39.1436142921448

> <r_i_glide_einternal>
0.392038762569427

> <i_i_glide_confnum>
3

> <i_i_glide_posenum>
231

> <r_i_glide_eff_state_penalty>
0

> <s_user_duplicate_titles>
267518

> <s_m_subgroup_title>
dock_pv

> <s_m_subgroupid>
dock_pv1

> <b_m_subgroup_collapsed>
0

$$$$
267431
                    3D
 Schrodinger Suite 2021-1.
 27 29  0  0  1  0            999 V2000
   13.0923    9.3254   55.6224 C   0  0  0  0  0  0
   13.4439   10.2414   56.6050 C   0  0  0  0  0  0
   14.5541   10.9296   56.1389 C   0  0  0  0  0  0
   14.8927   10.4575   54.9081 O   0  0  0  0  0  0
   14.0206    9.4614   54.6073 C   0  0  0  0  0  0
   15.4587   11.9985   56.7163 C   0  0  0  0  0  0
   15.2948   12.1398   58.2200 C   0  0  0  0  0  0
   16.2120   11.8312   59.2156 C   0  0  0  0  0  0
   15.7081   12.1401   60.4567 N   0  0  0  0  0  0
   14.4376   12.6559   60.3135 C   0  0  0  0  0  0
   14.1402   12.6251   58.9273 C   0  0  0  0  0  0
   12.9568   13.0326   58.4671 N   0  0  0  0  0  0
   12.0998   13.5071   59.3911 C   0  0  0  0  0  0
   12.2919   13.5825   60.7183 N   0  0  0  0  0  0
   13.4835   13.1612   61.2015 C   0  0  0  0  0  0
   13.8345   13.2347   62.5060 O   0  0  0  0  0  0
   10.9310   14.0515   58.9060 N   0  0  0  0  0  0
   16.2228   11.9943   61.3155 H   0  0  0  0  0  0
   12.2669    8.6330   55.6571 H   0  0  0  0  0  0
   12.9545   10.3825   57.5558 H   0  0  0  0  0  0
   14.1649    8.9549   53.6644 H   0  0  0  0  0  0
   16.4969   11.7687   56.4729 H   0  0  0  0  0  0
   15.2575   12.9505   56.2238 H   0  0  0  0  0  0
   17.2095   11.4218   59.1375 H   0  0  0  0  0  0
   13.0904   13.5225   63.0480 H   0  0  0  0  0  0
   11.0856   14.3814   57.9611 H   0  0  0  0  0  0
   10.4552   14.6335   59.5842 H   0  0  0  0  0  0
  1  5  2  0  0  0
  1  2  1  0  0  0
  1 19  1  0  0  0
  2  3  2  0  0  0
  2 20  1  0  0  0
  3  4  1  0  0  0
  3  6  1  0  0  0
  4  5  1  0  0  0
  5 21  1  0  0  0
  6  7  1  0  0  0
  6 22  1  0  0  0
  6 23  1  0  0  0
  7 11  1  0  0  0
  7  8  2  0  0  0
  8  9  1  0  0  0
  8 24  1  0  0  0
  9 18  1  0  0  0
  9 10  1  0  0  0
 10 15  1  0  0  0
 10 11  2  0  0  0
 11 12  1  0  0  0
 12 13  2  0  0  0
 13 14  1  0  0  0
 13 17  1  0  0  0
 14 15  2  0  0  0
 15 16  1  0  0  0
 16 25  1  0  0  0
 17 26  1  0  0  0
 17 27  1  0  0  0
M  END
> <s_m_entry_id>
12192

> <s_m_entry_name>
ligand_docking-pose.106

> <s_m_Source_Path>
/home/csk/Desktop/cluster/DUD-E-result/pnph

> <s_m_Source_File>
ligand_docking-pose.sdf

> <i_m_Source_File_Index>
106

> <i_lp_mmshare_version>
53161

> <i_f3d_flags>
0

> <r_lp_tautomer_probability>
1

> <s_lp_Force_Field>
OPLS_2005

> <r_lp_Energy>
-2.989453

> <b_lp_Chiralities_Consistent>
1

> <s_lp_Variant>
267431-1

> <s_i_glide_gridfile>
glide-grid_3bgs

> <i_i_glide_lignum>
217

> <i_i_glide_rotatable_bonds>
3

> <r_i_docking_score>
-7.50581524467615

> <r_i_glide_ligand_efficiency>
-0.441518543804479

> <r_i_glide_ligand_efficiency_sa>
-1.13526850254654

> <r_i_glide_ligand_efficiency_ln>
-1.95810005104847

> <r_i_glide_gscore>
-7.50581524467615

> <r_i_glide_lipo>
-2.09114127329863

> <r_i_glide_hbond>
-0.741900292067359

> <r_i_glide_metal>
0

> <r_i_glide_rewards>
-2.13714828442726

> <r_i_glide_evdw>
-34.8098335266113

> <r_i_glide_ecoul>
-9.09033298492432

> <r_i_glide_erotb>
0.644526848513468

> <r_i_glide_esite>
-0.0761106193271511

> <r_i_glide_emodel>
-60.1936758419558

> <r_i_glide_energy>
-43.9001665115356

> <r_i_glide_einternal>
1.74984931945801

> <i_i_glide_confnum>
6

> <i_i_glide_posenum>
38

> <r_i_glide_eff_state_penalty>
0

> <s_user_duplicate_titles>
267431

> <s_m_subgroup_title>
dock_pv

> <s_m_subgroupid>
dock_pv1

> <b_m_subgroup_collapsed>
0

$$$$
83439
                    3D
 Schrodinger Suite 2021-1.
 39 41  0  0  1  0            999 V2000
   14.5895   14.1834   61.7614 C   0  0  0  0  0  0
   15.9588   14.3810   61.6407 C   0  0  0  0  0  0
   16.2603   15.4278   62.5835 C   0  0  0  0  0  0
   15.0428   15.8765   63.1643 C   0  0  0  0  0  0
   14.0506   15.0700   62.6576 N   0  0  0  0  0  0
   15.0588   16.9665   64.0413 C   0  0  0  0  0  0
   16.2514   17.5415   64.3273 N   0  0  0  0  0  0
   17.3621   17.0185   63.7696 C   0  0  0  0  0  0
   17.4355   15.9833   62.9064 N   0  0  0  0  0  0
   18.5542   17.6317   64.0924 N   0  0  0  0  0  0
   13.8627   17.4313   64.5045 O   0  0  0  0  0  0
   16.9836   13.6958   60.7510 C   0  0  0  0  0  0
   16.5212   12.5382   59.8331 C   0  0  1  0  0  0
   16.0091   11.3160   60.6203 C   0  0  0  0  0  0
   15.6457   10.1256   59.7067 C   0  0  0  0  0  0
   14.7128   10.5514   58.5546 C   0  0  0  0  0  0
   15.3148   11.7359   57.7590 C   0  0  2  0  0  0
   15.4893   12.9181   58.7464 C   0  0  0  0  0  0
   14.4639   12.1173   56.5331 C   0  0  0  0  0  0
   14.2328   11.0730   55.7375 F   0  0  0  0  0  0
   13.2857   12.6130   56.9080 F   0  0  0  0  0  0
   15.0893   13.0376   55.8012 F   0  0  0  0  0  0
   13.0657   15.0706   62.9003 H   0  0  0  0  0  0
   13.9308   13.4796   61.2744 H   0  0  0  0  0  0
   19.3978   17.1484   63.8304 H   0  0  0  0  0  0
   18.5302   18.2686   64.8729 H   0  0  0  0  0  0
   13.9924   18.3152   64.8559 H   0  0  0  0  0  0
   17.7563   13.2968   61.4022 H   0  0  0  0  0  0
   17.4813   14.4461   60.1348 H   0  0  0  0  0  0
   17.4134   12.1954   59.3067 H   0  0  0  0  0  0
   15.1592   11.5723   61.2505 H   0  0  0  0  0  0
   16.7995   11.0223   61.3058 H   0  0  0  0  0  0
   16.5589    9.6893   59.3054 H   0  0  0  0  0  0
   15.1695    9.3407   60.2917 H   0  0  0  0  0  0
   14.5477    9.7014   57.8918 H   0  0  0  0  0  0
   13.7193   10.8057   58.9298 H   0  0  0  0  0  0
   16.3004   11.4377   57.3958 H   0  0  0  0  0  0
   15.8492   13.7893   58.1990 H   0  0  0  0  0  0
   14.5400   13.2666   59.1501 H   0  0  0  0  0  0
  1  5  1  0  0  0
  1  2  2  0  0  0
  1 24  1  0  0  0
  2  3  1  0  0  0
  2 12  1  0  0  0
  3  9  2  0  0  0
  3  4  1  0  0  0
  4  5  1  0  0  0
  4  6  2  0  0  0
  5 23  1  0  0  0
  6  7  1  0  0  0
  6 11  1  0  0  0
  7  8  2  0  0  0
  8  9  1  0  0  0
  8 10  1  0  0  0
 10 25  1  0  0  0
 10 26  1  0  0  0
 11 27  1  0  0  0
 12 13  1  0  0  0
 12 28  1  0  0  0
 12 29  1  0  0  0
 13 18  1  0  0  0
 13 14  1  0  0  0
 13 30  1  0  0  0
 14 15  1  0  0  0
 14 31  1  0  0  0
 14 32  1  0  0  0
 15 16  1  0  0  0
 15 33  1  0  0  0
 15 34  1  0  0  0
 16 17  1  0  0  0
 16 35  1  0  0  0
 16 36  1  0  0  0
 17 18  1  0  0  0
 17 19  1  0  0  0
 17 37  1  0  0  0
 18 38  1  0  0  0
 18 39  1  0  0  0
 19 20  1  0  0  0
 19 21  1  0  0  0
 19 22  1  0  0  0
M  END
> <s_m_entry_id>
12202

> <s_m_entry_name>
ligand_docking-pose.116

> <s_m_Source_Path>
/home/csk/Desktop/cluster/DUD-E-result/pnph

> <s_m_Source_File>
ligand_docking-pose.sdf

> <i_m_Source_File_Index>
116

> <i_lp_mmshare_version>
53161

> <i_f3d_flags>
0

> <r_lp_tautomer_probability>
1

> <s_lp_Force_Field>
OPLS_2005

> <r_lp_Energy>
8.516884

> <b_lp_Chiralities_Consistent>
1

> <s_lp_Variant>
83439-4

> <s_i_glide_gridfile>
glide-grid_3bgs

> <i_i_glide_lignum>
19

> <i_i_glide_rotatable_bonds>
4

> <r_i_docking_score>
-7.41720088713891

> <r_i_glide_ligand_efficiency>
-0.33714549486995

> <r_i_glide_ligand_efficiency_sa>
-0.944694935805511

> <r_i_glide_ligand_efficiency_ln>
-1.8130344457927

> <r_i_glide_gscore>
-7.41720088713891

> <r_i_glide_lipo>
-2.5928241029924

> <r_i_glide_hbond>
-0.300339502482019

> <r_i_glide_metal>
0

> <r_i_glide_rewards>
-2.52304214383669

> <r_i_glide_evdw>
-28.5738258361816

> <r_i_glide_ecoul>
-6.16123104095459

> <r_i_glide_erotb>
0.376289176287309

> <r_i_glide_esite>
-0.0244083661628339

> <r_i_glide_emodel>
-45.8675630396659

> <r_i_glide_energy>
-34.7350568771362

> <r_i_glide_einternal>
3.80040454864502

> <i_i_glide_confnum>
9

> <i_i_glide_posenum>
352

> <r_i_glide_eff_state_penalty>
0

> <s_user_duplicate_titles>
83439

> <s_m_subgroup_title>
dock_pv

> <s_m_subgroupid>
dock_pv1

> <b_m_subgroup_collapsed>
0

$$$$
83356
                    3D
 Schrodinger Suite 2021-1.
 31 33  0  0  1  0            999 V2000
   12.6031   16.5026   61.5898 C   0  0  0  0  0  0
   13.6865   15.6486   61.5982 C   0  0  0  0  0  0
   13.3376   14.5877   60.6843 C   0  0  0  0  0  0
   12.0196   14.8363   60.2106 C   0  0  0  0  0  0
   11.6011   16.0054   60.8022 N   0  0  0  0  0  0
   11.4270   13.9432   59.3152 C   0  0  0  0  0  0
   12.1430   12.8626   58.9176 N   0  0  0  0  0  0
   13.3844   12.7019   59.4161 C   0  0  0  0  0  0
   14.0255   13.5135   60.2839 N   0  0  0  0  0  0
   14.0622   11.5699   59.0132 N   0  0  0  0  0  0
   10.1549   14.2293   58.9050 O   0  0  0  0  0  0
   14.9436   15.8325   62.4198 C   0  0  0  0  0  0
   15.0887   14.7421   63.4849 C   0  0  1  0  0  0
   15.8820   13.5295   62.9996 C   0  0  0  0  0  0
   17.1947   13.6998   63.7252 C   0  0  0  0  0  0
   16.7749   14.3260   65.0400 C   0  0  0  0  0  0
   15.8191   15.2754   64.5952 O   0  0  0  0  0  0
   10.6932   16.4437   60.7176 H   0  0  0  0  0  0
   12.4720   17.4290   62.1259 H   0  0  0  0  0  0
   14.9111   11.3434   59.5053 H   0  0  0  0  0  0
   13.5413   10.8804   58.4956 H   0  0  0  0  0  0
    9.7179   14.8161   59.5369 H   0  0  0  0  0  0
   14.9216   16.8046   62.9149 H   0  0  0  0  0  0
   15.8243   15.8338   61.7760 H   0  0  0  0  0  0
   14.1308   14.4192   63.8847 H   0  0  0  0  0  0
   16.0492   13.4947   61.9241 H   0  0  0  0  0  0
   15.3503   12.6281   63.2995 H   0  0  0  0  0  0
   17.8100   14.4083   63.1760 H   0  0  0  0  0  0
   17.7537   12.7767   63.8422 H   0  0  0  0  0  0
   17.5948   14.8143   65.5663 H   0  0  0  0  0  0
   16.3162   13.6236   65.7367 H   0  0  0  0  0  0
  1  5  1  0  0  0
  1  2  2  0  0  0
  1 19  1  0  0  0
  2  3  1  0  0  0
  2 12  1  0  0  0
  3  9  2  0  0  0
  3  4  1  0  0  0
  4  5  1  0  0  0
  4  6  2  0  0  0
  5 18  1  0  0  0
  6  7  1  0  0  0
  6 11  1  0  0  0
  7  8  2  0  0  0
  8  9  1  0  0  0
  8 10  1  0  0  0
 10 20  1  0  0  0
 10 21  1  0  0  0
 11 22  1  0  0  0
 12 13  1  0  0  0
 12 23  1  0  0  0
 12 24  1  0  0  0
 13 17  1  0  0  0
 13 14  1  0  0  0
 13 25  1  0  0  0
 14 15  1  0  0  0
 14 26  1  0  0  0
 14 27  1  0  0  0
 15 16  1  0  0  0
 15 28  1  0  0  0
 15 29  1  0  0  0
 16 17  1  0  0  0
 16 30  1  0  0  0
 16 31  1  0  0  0
M  END
> <s_m_entry_id>
12205

> <s_m_entry_name>
ligand_docking-pose.119

> <s_m_Source_Path>
/home/csk/Desktop/cluster/DUD-E-result/pnph

> <s_m_Source_File>
ligand_docking-pose.sdf

> <i_m_Source_File_Index>
119

> <i_lp_mmshare_version>
53161

> <i_f3d_flags>
0

> <r_lp_tautomer_probability>
1

> <s_lp_Force_Field>
OPLS_2005

> <r_lp_Energy>
11.900286

> <b_lp_Chiralities_Consistent>
1

> <s_lp_Variant>
83356-2

> <s_i_glide_gridfile>
glide-grid_3bgs

> <i_i_glide_lignum>
22

> <i_i_glide_rotatable_bonds>
3

> <r_i_docking_score>
-7.41551400779408

> <r_i_glide_ligand_efficiency>
-0.436206706340828

> <r_i_glide_ligand_efficiency_sa>
-1.12161027267658

> <r_i_glide_ligand_efficiency_ln>
-1.93454246925561

> <r_i_glide_gscore>
-7.41551400779408

> <r_i_glide_lipo>
-1.08837144596603

> <r_i_glide_hbond>
-1.13580681284311

> <r_i_glide_metal>
0

> <r_i_glide_rewards>
-2.92053565835817

> <r_i_glide_evdw>
-24.8237953186035

> <r_i_glide_ecoul>
-11.0360250473022

> <r_i_glide_erotb>
0.625793432398742

> <r_i_glide_esite>
0

> <r_i_glide_emodel>
-49.3407025562527

> <r_i_glide_energy>
-35.8598203659058

> <r_i_glide_einternal>
2.17805552482605

> <i_i_glide_confnum>
30

> <i_i_glide_posenum>
354

> <r_i_glide_eff_state_penalty>
0

> <s_user_duplicate_titles>
83356

> <s_m_subgroup_title>
dock_pv

> <s_m_subgroupid>
dock_pv1

> <b_m_subgroup_collapsed>
0

$$$$
128427
                    3D
 Schrodinger Suite 2021-1.
 28 30  0  0  1  0            999 V2000
   16.6626   13.4595   61.5642 C   0  0  0  0  0  0
   16.6361   12.2329   60.9058 C   0  0  0  0  0  0
   15.7315   12.0250   59.8689 C   0  0  0  0  0  0
   14.8628   13.0519   59.4841 C   0  0  0  0  0  0
   14.8959   14.2791   60.1516 C   0  0  0  0  0  0
   15.7988   14.4853   61.1904 C   0  0  0  0  0  0
   13.8423   12.8298   58.3750 C   0  0  0  0  0  0
   14.3958   12.1410   57.1404 C   0  0  0  0  0  0
   15.4484   12.5201   56.3149 C   0  0  0  0  0  0
   15.6993   11.6860   55.3321 N   0  0  0  0  0  0
   14.7783   10.6943   55.4480 C   0  0  0  0  0  0
   14.5606    9.5110   54.7090 C   0  0  0  0  0  0
   13.5350    8.7274   55.0650 N   0  0  0  0  0  0
   12.7480    9.0330   56.1060 C   0  0  0  0  0  0
   12.9540   10.1045   56.9155 N   0  0  0  0  0  0
   13.9389   10.9320   56.5580 C   0  0  0  0  0  0
   15.3540    9.0630   53.6971 O   0  0  0  0  0  0
   13.3541    7.8631   54.5600 H   0  0  0  0  0  0
   17.3540   13.6111   62.3788 H   0  0  0  0  0  0
   17.3031   11.4386   61.2105 H   0  0  0  0  0  0
   15.7013   11.0652   59.3729 H   0  0  0  0  0  0
   14.2187   15.0726   59.8725 H   0  0  0  0  0  0
   15.8238   15.4330   61.7074 H   0  0  0  0  0  0
   13.0431   12.2236   58.8039 H   0  0  0  0  0  0
   13.3767   13.7764   58.1060 H   0  0  0  0  0  0
   16.0462   13.4095   56.4501 H   0  0  0  0  0  0
   11.9614    8.3238   56.3306 H   0  0  0  0  0  0
   15.0819    8.2026   53.3669 H   0  0  0  0  0  0
  1  6  1  0  0  0
  1  2  2  0  0  0
  1 19  1  0  0  0
  2  3  1  0  0  0
  2 20  1  0  0  0
  3  4  2  0  0  0
  3 21  1  0  0  0
  4  5  1  0  0  0
  4  7  1  0  0  0
  5  6  2  0  0  0
  5 22  1  0  0  0
  6 23  1  0  0  0
  7  8  1  0  0  0
  7 24  1  0  0  0
  7 25  1  0  0  0
  8 16  2  0  0  0
  8  9  1  0  0  0
  9 10  2  0  0  0
  9 26  1  0  0  0
 10 11  1  0  0  0
 11 16  1  0  0  0
 11 12  2  0  0  0
 12 13  1  0  0  0
 12 17  1  0  0  0
 13 18  1  0  0  0
 13 14  1  0  0  0
 14 15  2  0  0  0
 14 27  1  0  0  0
 15 16  1  0  0  0
 17 28  1  0  0  0
M  END
> <s_m_entry_id>
12207

> <s_m_entry_name>
ligand_docking-pose.121

> <s_m_Source_Path>
/home/csk/Desktop/cluster/DUD-E-result/pnph

> <s_m_Source_File>
ligand_docking-pose.sdf

> <i_m_Source_File_Index>
121

> <i_lp_mmshare_version>
53161

> <i_f3d_flags>
0

> <r_lp_tautomer_probability>
1

> <s_lp_Force_Field>
OPLS_2005

> <r_lp_Energy>
20.146479

> <b_lp_Chiralities_Consistent>
1

> <s_lp_Variant>
128427-1

> <s_i_glide_gridfile>
glide-grid_3bgs

> <i_i_glide_lignum>
149

> <i_i_glide_rotatable_bonds>
3

> <r_i_docking_score>
-7.40091356067732

> <r_i_glide_ligand_efficiency>
-0.43534785651043

> <r_i_glide_ligand_efficiency_sa>
-1.11940192792062

> <r_i_glide_ligand_efficiency_ln>
-1.93073353773882

> <r_i_glide_gscore>
-7.40091356067732

> <r_i_glide_lipo>
-2.95533383260984

> <r_i_glide_hbond>
-0.415984102957417

> <r_i_glide_metal>
0

> <r_i_glide_rewards>
-2.05852994938642

> <r_i_glide_evdw>
-29.1499080657959

> <r_i_glide_ecoul>
-7.0008282661438

> <r_i_glide_erotb>
0.668847678971138

> <r_i_glide_esite>
-0.132293711483411

> <r_i_glide_emodel>
-52.9299054819287

> <r_i_glide_energy>
-36.1507363319397

> <r_i_glide_einternal>
0.709330201148987

> <i_i_glide_confnum>
2

> <i_i_glide_posenum>
87

> <r_i_glide_eff_state_penalty>
0

> <s_user_duplicate_titles>
128427

> <s_m_subgroup_title>
dock_pv

> <s_m_subgroupid>
dock_pv1

> <b_m_subgroup_collapsed>
0

$$$$
128950
                    3D
 Schrodinger Suite 2021-1.
 31 33  0  0  1  0            999 V2000
   12.6648    9.5624   56.5053 C   0  0  0  0  0  0
   13.3798   10.5945   57.1136 C   0  0  0  0  0  0
   14.5412   11.1007   56.5099 C   0  0  0  0  0  0
   14.9687   10.5371   55.3061 C   0  0  0  0  0  0
   14.2846    9.4726   54.7331 C   0  0  0  0  0  0
   13.1064    9.0330   55.3059 C   0  0  0  0  0  0
   14.7841    8.8096   53.6509 O   0  0  0  0  0  0
   15.3702   12.2385   57.1043 C   0  0  0  0  0  0
   15.3043   12.4141   58.6095 C   0  0  0  0  0  0
   16.2635   12.1072   59.5655 C   0  0  0  0  0  0
   15.8594   12.5266   60.8112 N   0  0  0  0  0  0
   14.6025   13.0856   60.7136 C   0  0  0  0  0  0
   14.2227   12.9915   59.3494 C   0  0  0  0  0  0
   13.0310   13.4092   58.9224 N   0  0  0  0  0  0
   12.2102   13.8807   59.8758 C   0  0  0  0  0  0
   12.4889   14.0409   61.1846 N   0  0  0  0  0  0
   13.7187   13.6705   61.6254 C   0  0  0  0  0  0
   14.1540   13.8330   62.9055 O   0  0  0  0  0  0
   10.9540   14.2361   59.4352 N   0  0  0  0  0  0
   16.4213   12.4087   61.6437 H   0  0  0  0  0  0
   11.7539    9.1768   56.9371 H   0  0  0  0  0  0
   13.0126   10.9848   58.0477 H   0  0  0  0  0  0
   15.8972   10.8634   54.8757 H   0  0  0  0  0  0
   12.5542    8.2331   54.8432 H   0  0  0  0  0  0
   14.3177    7.9737   53.5163 H   0  0  0  0  0  0
   16.4104   12.1054   56.8014 H   0  0  0  0  0  0
   15.0550   13.1574   56.6078 H   0  0  0  0  0  0
   17.2339   11.6442   59.4506 H   0  0  0  0  0  0
   13.4001   14.0589   63.4603 H   0  0  0  0  0  0
   10.9387   14.4516   58.4500 H   0  0  0  0  0  0
   10.3657   14.7267   60.1016 H   0  0  0  0  0  0
  1  6  1  0  0  0
  1  2  2  0  0  0
  1 21  1  0  0  0
  2  3  1  0  0  0
  2 22  1  0  0  0
  3  4  2  0  0  0
  3  8  1  0  0  0
  4  5  1  0  0  0
  4 23  1  0  0  0
  5  6  2  0  0  0
  5  7  1  0  0  0
  6 24  1  0  0  0
  7 25  1  0  0  0
  8  9  1  0  0  0
  8 26  1  0  0  0
  8 27  1  0  0  0
  9 13  1  0  0  0
  9 10  2  0  0  0
 10 11  1  0  0  0
 10 28  1  0  0  0
 11 20  1  0  0  0
 11 12  1  0  0  0
 12 17  1  0  0  0
 12 13  2  0  0  0
 13 14  1  0  0  0
 14 15  2  0  0  0
 15 16  1  0  0  0
 15 19  1  0  0  0
 16 17  2  0  0  0
 17 18  1  0  0  0
 18 29  1  0  0  0
 19 30  1  0  0  0
 19 31  1  0  0  0
M  END
> <s_m_entry_id>
12215

> <s_m_entry_name>
ligand_docking-pose.129

> <s_m_Source_Path>
/home/csk/Desktop/cluster/DUD-E-result/pnph

> <s_m_Source_File>
ligand_docking-pose.sdf

> <i_m_Source_File_Index>
129

> <i_lp_mmshare_version>
53161

> <i_f3d_flags>
0

> <r_lp_tautomer_probability>
0.999999999997365

> <s_lp_Force_Field>
OPLS_2005

> <r_lp_Energy>
3.195592

> <b_lp_Chiralities_Consistent>
1

> <s_lp_Variant>
128950-1

> <s_i_glide_gridfile>
glide-grid_3bgs

> <i_i_glide_lignum>
203

> <i_i_glide_rotatable_bonds>
4

> <r_i_docking_score>
-7.3609836426874

> <r_i_glide_ligand_efficiency>
-0.387420191720389

> <r_i_glide_ligand_efficiency_sa>
-1.03379267732021

> <r_i_glide_ligand_efficiency_ln>
-1.86616745285358

> <r_i_glide_gscore>
-7.3609836426874

> <r_i_glide_lipo>
-2.23797799128769

> <r_i_glide_hbond>
-0.68279510038291

> <r_i_glide_metal>
0

> <r_i_glide_rewards>
-2.20794161317165

> <r_i_glide_evdw>
-33.5107154846191

> <r_i_glide_ecoul>
-7.20707225799561

> <r_i_glide_erotb>
0.536720585861874

> <r_i_glide_esite>
-0.0123929107767301

> <r_i_glide_emodel>
-56.5407579100325

> <r_i_glide_energy>
-40.7177877426147

> <r_i_glide_einternal>
2.28599166870117

> <i_i_glide_confnum>
3

> <i_i_glide_posenum>
342

> <r_i_glide_eff_state_penalty>
0

> <s_user_duplicate_titles>
128950

> <s_m_subgroup_title>
dock_pv

> <s_m_subgroupid>
dock_pv1

> <b_m_subgroup_collapsed>
0

$$$$
268017
                    3D
 Schrodinger Suite 2021-1.
 30 32  0  0  1  0            999 V2000
   15.3545   15.1060   66.4046 C   0  0  0  0  0  0
   15.4370   14.7486   65.0559 C   0  0  0  0  0  0
   15.2361   15.7092   64.0573 C   0  0  0  0  0  0
   14.9710   17.0348   64.4238 C   0  0  0  0  0  0
   14.8747   17.3884   65.7692 C   0  0  0  0  0  0
   15.0636   16.4253   66.7618 C   0  0  0  0  0  0
   14.5905   18.6655   66.1064 F   0  0  0  0  0  0
   15.3224   15.3208   62.5863 C   0  0  0  0  0  0
   13.9786   15.3166   61.8645 C   0  0  0  0  0  0
   12.9372   16.2306   61.9650 C   0  0  0  0  0  0
   11.8659   15.8369   61.1973 N   0  0  0  0  0  0
   12.1898   14.6862   60.5173 C   0  0  0  0  0  0
   13.5118   14.3366   60.9184 C   0  0  0  0  0  0
   14.1240   13.2527   60.4309 N   0  0  0  0  0  0
   13.4070   12.5359   59.5370 C   0  0  0  0  0  0
   12.1547   12.7908   59.1041 N   0  0  0  0  0  0
   11.5154   13.8766   59.5958 C   0  0  0  0  0  0
   10.2439   14.2326   59.2425 O   0  0  0  0  0  0
   14.0243   11.4237   59.0112 N   0  0  0  0  0  0
   10.9872   16.3331   61.1769 H   0  0  0  0  0  0
   15.5036   14.3630   67.1741 H   0  0  0  0  0  0
   15.6503   13.7245   64.7878 H   0  0  0  0  0  0
   14.8280   17.7948   63.6697 H   0  0  0  0  0  0
   14.9930   16.7030   67.8039 H   0  0  0  0  0  0
   15.9994   16.0232   62.1039 H   0  0  0  0  0  0
   15.8029   14.3459   62.4980 H   0  0  0  0  0  0
   12.8600   17.1235   62.5686 H   0  0  0  0  0  0
    9.8254   14.8097   59.8995 H   0  0  0  0  0  0
   14.9023   11.1425   59.4168 H   0  0  0  0  0  0
   13.4732   10.8088   58.4340 H   0  0  0  0  0  0
  1  6  1  0  0  0
  1  2  2  0  0  0
  1 21  1  0  0  0
  2  3  1  0  0  0
  2 22  1  0  0  0
  3  4  2  0  0  0
  3  8  1  0  0  0
  4  5  1  0  0  0
  4 23  1  0  0  0
  5  6  2  0  0  0
  5  7  1  0  0  0
  6 24  1  0  0  0
  8  9  1  0  0  0
  8 25  1  0  0  0
  8 26  1  0  0  0
  9 13  1  0  0  0
  9 10  2  0  0  0
 10 11  1  0  0  0
 10 27  1  0  0  0
 11 20  1  0  0  0
 11 12  1  0  0  0
 12 17  1  0  0  0
 12 13  2  0  0  0
 13 14  1  0  0  0
 14 15  2  0  0  0
 15 16  1  0  0  0
 15 19  1  0  0  0
 16 17  2  0  0  0
 17 18  1  0  0  0
 18 28  1  0  0  0
 19 29  1  0  0  0
 19 30  1  0  0  0
M  END
> <s_m_entry_id>
12216

> <s_m_entry_name>
ligand_docking-pose.130

> <s_m_Source_Path>
/home/csk/Desktop/cluster/DUD-E-result/pnph

> <s_m_Source_File>
ligand_docking-pose.sdf

> <i_m_Source_File_Index>
130

> <i_lp_mmshare_version>
53161

> <i_f3d_flags>
0

> <r_lp_tautomer_probability>
1

> <s_lp_Force_Field>
OPLS_2005

> <r_lp_Energy>
3.162023

> <b_lp_Chiralities_Consistent>
1

> <s_lp_Variant>
268017-1

> <s_i_glide_gridfile>
glide-grid_3bgs

> <i_i_glide_lignum>
200

> <i_i_glide_rotatable_bonds>
3

> <r_i_docking_score>
-7.3425655813796

> <r_i_glide_ligand_efficiency>
-0.386450820072611

> <r_i_glide_ligand_efficiency_sa>
-1.03120600441959

> <r_i_glide_ligand_efficiency_ln>
-1.86149807872836

> <r_i_glide_gscore>
-7.3425655813796

> <r_i_glide_lipo>
-1.47388213315448

> <r_i_glide_hbond>
-0.840963707338591

> <r_i_glide_metal>
0

> <r_i_glide_rewards>
-2.20694230303311

> <r_i_glide_evdw>
-29.8734741210938

> <r_i_glide_ecoul>
-12.3781757354736

> <r_i_glide_erotb>
0.52962262852232

> <r_i_glide_esite>
0

> <r_i_glide_emodel>
-58.7734563364453

> <r_i_glide_energy>
-42.2516498565674

> <r_i_glide_einternal>
0.896921396255493

> <i_i_glide_confnum>
2

> <i_i_glide_posenum>
393

> <r_i_glide_eff_state_penalty>
0

> <s_user_duplicate_titles>
268017

> <s_m_subgroup_title>
dock_pv

> <s_m_subgroupid>
dock_pv1

> <b_m_subgroup_collapsed>
0

$$$$
268018
                    3D
 Schrodinger Suite 2021-1.
 27 29  0  0  1  0            999 V2000
   12.8443    9.3936   56.1060 C   0  0  0  0  0  0
   13.3575   10.4192   56.9003 C   0  0  0  0  0  0
   14.5310   10.9995   56.4106 C   0  0  0  0  0  0
   14.9539   10.2330   54.9058 S   0  0  0  0  0  0
   13.6209    9.1447   54.9952 C   0  0  0  0  0  0
   15.4050   12.1075   56.9631 C   0  0  0  0  0  0
   15.3118   12.2563   58.4698 C   0  0  0  0  0  0
   16.2729   11.9420   59.4206 C   0  0  0  0  0  0
   15.8560   12.3178   60.6750 N   0  0  0  0  0  0
   14.5901   12.8578   60.5890 C   0  0  0  0  0  0
   14.2039   12.7727   59.2253 C   0  0  0  0  0  0
   12.9977   13.1711   58.8172 N   0  0  0  0  0  0
   12.1894   13.6624   59.7743 C   0  0  0  0  0  0
   12.4759   13.8053   61.0829 N   0  0  0  0  0  0
   13.7061   13.4225   61.5130 C   0  0  0  0  0  0
   14.1541   13.5776   62.7896 O   0  0  0  0  0  0
   10.9541   14.1000   59.3376 N   0  0  0  0  0  0
   16.4205   12.1927   61.5056 H   0  0  0  0  0  0
   11.9530    8.8293   56.3439 H   0  0  0  0  0  0
   12.8878   10.7187   57.8229 H   0  0  0  0  0  0
   13.4710    8.3843   54.2398 H   0  0  0  0  0  0
   16.4440   11.9399   56.6750 H   0  0  0  0  0  0
   15.1301   13.0502   56.4876 H   0  0  0  0  0  0
   17.2540   11.5053   59.2963 H   0  0  0  0  0  0
   13.4125   13.8288   63.3506 H   0  0  0  0  0  0
   10.9678   14.3466   58.3596 H   0  0  0  0  0  0
   10.4136   14.6330   60.0106 H   0  0  0  0  0  0
  1  5  2  0  0  0
  1  2  1  0  0  0
  1 19  1  0  0  0
  2  3  2  0  0  0
  2 20  1  0  0  0
  3  4  1  0  0  0
  3  6  1  0  0  0
  4  5  1  0  0  0
  5 21  1  0  0  0
  6  7  1  0  0  0
  6 22  1  0  0  0
  6 23  1  0  0  0
  7 11  1  0  0  0
  7  8  2  0  0  0
  8  9  1  0  0  0
  8 24  1  0  0  0
  9 18  1  0  0  0
  9 10  1  0  0  0
 10 15  1  0  0  0
 10 11  2  0  0  0
 11 12  1  0  0  0
 12 13  2  0  0  0
 13 14  1  0  0  0
 13 17  1  0  0  0
 14 15  2  0  0  0
 15 16  1  0  0  0
 16 25  1  0  0  0
 17 26  1  0  0  0
 17 27  1  0  0  0
M  END
> <s_m_entry_id>
12218

> <s_m_entry_name>
ligand_docking-pose.132

> <s_m_Source_Path>
/home/csk/Desktop/cluster/DUD-E-result/pnph

> <s_m_Source_File>
ligand_docking-pose.sdf

> <i_m_Source_File_Index>
132

> <i_lp_mmshare_version>
53161

> <i_f3d_flags>
0

> <r_lp_tautomer_probability>
1

> <s_lp_Force_Field>
OPLS_2005

> <r_lp_Energy>
-1.223042

> <b_lp_Chiralities_Consistent>
1

> <s_lp_Variant>
268018-1

> <s_i_glide_gridfile>
glide-grid_3bgs

> <i_i_glide_lignum>
224

> <i_i_glide_rotatable_bonds>
3

> <r_i_docking_score>
-7.32937886176981

> <r_i_glide_ligand_efficiency>
-0.431139933045283

> <r_i_glide_ligand_efficiency_sa>
-1.10858217179001

> <r_i_glide_ligand_efficiency_ln>
-1.91207172779328

> <r_i_glide_gscore>
-7.32937886176981

> <r_i_glide_lipo>
-2.09181135916377

> <r_i_glide_hbond>
-0.583178442112258

> <r_i_glide_metal>
0

> <r_i_glide_rewards>
-2.31324628677106

> <r_i_glide_evdw>
-33.7787742614746

> <r_i_glide_ecoul>
-7.92431545257568

> <r_i_glide_erotb>
0.574528349225712

> <r_i_glide_esite>
-0.0380850919883466

> <r_i_glide_emodel>
-56.6892008866692

> <r_i_glide_energy>
-41.7030897140503

> <r_i_glide_einternal>
2.70764565467834

> <i_i_glide_confnum>
6

> <i_i_glide_posenum>
232

> <r_i_glide_eff_state_penalty>
0

> <s_user_duplicate_titles>
268018

> <s_m_subgroup_title>
dock_pv

> <s_m_subgroupid>
dock_pv1

> <b_m_subgroup_collapsed>
0

$$$$
83382
                    3D
 Schrodinger Suite 2021-1.
 31 33  0  0  1  0            999 V2000
   16.3906   12.0344   59.7044 C   0  0  0  0  0  0
   15.4725   12.2919   58.6944 C   0  0  0  0  0  0
   14.3412   12.8716   59.3737 C   0  0  0  0  0  0
   14.6732   13.0271   60.7481 C   0  0  0  0  0  0
   15.9309   12.4908   60.9144 N   0  0  0  0  0  0
   13.7568   13.6344   61.6125 C   0  0  0  0  0  0
   12.5451   13.9958   61.1164 N   0  0  0  0  0  0
   12.3056   13.7853   59.8054 C   0  0  0  0  0  0
   13.1526   13.2546   58.9021 N   0  0  0  0  0  0
   11.0763   14.1751   59.3079 N   0  0  0  0  0  0
   14.1540   13.8328   62.9035 O   0  0  0  0  0  0
   15.6529   12.0256   57.2054 C   0  0  0  0  0  0
   14.4565   11.3420   56.4990 C   0  0  2  0  0  0
   13.7535   10.2076   57.2759 C   0  0  0  0  0  0
   13.4620    9.0139   56.3483 C   0  0  0  0  0  0
   13.6489    9.3978   54.8926 C   0  0  0  0  0  0
   14.9540   10.6327   54.9061 S   0  0  0  0  0  0
   16.4605   12.4116   61.7726 H   0  0  0  0  0  0
   17.3697   11.5795   59.6514 H   0  0  0  0  0  0
   11.1171   14.3821   58.3204 H   0  0  0  0  0  0
   10.4965   14.7115   59.9429 H   0  0  0  0  0  0
   13.3835   14.0758   63.4281 H   0  0  0  0  0  0
   16.5544   11.4329   57.0601 H   0  0  0  0  0  0
   15.8620   12.9646   56.6903 H   0  0  0  0  0  0
   13.7144   12.1045   56.2556 H   0  0  0  0  0  0
   12.8219   10.5775   57.7059 H   0  0  0  0  0  0
   14.3683    9.8574   58.1065 H   0  0  0  0  0  0
   12.4562    8.6214   56.5057 H   0  0  0  0  0  0
   14.1540    8.2097   56.5678 H   0  0  0  0  0  0
   12.7344    9.8331   54.5061 H   0  0  0  0  0  0
   13.9205    8.5477   54.2663 H   0  0  0  0  0  0
  1  5  1  0  0  0
  1  2  2  0  0  0
  1 19  1  0  0  0
  2  3  1  0  0  0
  2 12  1  0  0  0
  3  9  2  0  0  0
  3  4  1  0  0  0
  4  5  1  0  0  0
  4  6  2  0  0  0
  5 18  1  0  0  0
  6  7  1  0  0  0
  6 11  1  0  0  0
  7  8  2  0  0  0
  8  9  1  0  0  0
  8 10  1  0  0  0
 10 20  1  0  0  0
 10 21  1  0  0  0
 11 22  1  0  0  0
 12 13  1  0  0  0
 12 23  1  0  0  0
 12 24  1  0  0  0
 13 17  1  0  0  0
 13 14  1  0  0  0
 13 25  1  0  0  0
 14 15  1  0  0  0
 14 26  1  0  0  0
 14 27  1  0  0  0
 15 16  1  0  0  0
 15 28  1  0  0  0
 15 29  1  0  0  0
 16 17  1  0  0  0
 16 30  1  0  0  0
 16 31  1  0  0  0
M  END
> <s_m_entry_id>
12225

> <s_m_entry_name>
ligand_docking-pose.139

> <s_m_Source_Path>
/home/csk/Desktop/cluster/DUD-E-result/pnph

> <s_m_Source_File>
ligand_docking-pose.sdf

> <i_m_Source_File_Index>
139

> <i_lp_mmshare_version>
53161

> <i_f3d_flags>
0

> <r_lp_tautomer_probability>
1

> <s_lp_Force_Field>
OPLS_2005

> <r_lp_Energy>
7.993072

> <b_lp_Chiralities_Consistent>
1

> <s_lp_Variant>
83382-1

> <s_i_glide_gridfile>
glide-grid_3bgs

> <i_i_glide_lignum>
23

> <i_i_glide_rotatable_bonds>
3

> <r_i_docking_score>
-7.19147531506691

> <r_i_glide_ligand_efficiency>
-0.423027959709818

> <r_i_glide_ligand_efficiency_sa>
-1.08772400410832

> <r_i_glide_ligand_efficiency_ln>
-1.87609576341949

> <r_i_glide_gscore>
-7.19147531506691

> <r_i_glide_lipo>
-2.04967381469884

> <r_i_glide_hbond>
-0.615888701607486

> <r_i_glide_metal>
0

> <r_i_glide_rewards>
-2.24286618041926

> <r_i_glide_evdw>
-32.5205764770508

> <r_i_glide_ecoul>
-7.95928001403809

> <r_i_glide_erotb>
0.558769181055739

> <r_i_glide_esite>
-0.021894973438804

> <r_i_glide_emodel>
-53.8877064102937

> <r_i_glide_energy>
-40.4798564910889

> <r_i_glide_einternal>
3.0669310092926

> <i_i_glide_confnum>
19

> <i_i_glide_posenum>
80

> <r_i_glide_eff_state_penalty>
0

> <s_user_duplicate_titles>
83382

> <s_m_subgroup_title>
dock_pv

> <s_m_subgroupid>
dock_pv1

> <b_m_subgroup_collapsed>
0

$$$$
131508
                    3D
 Schrodinger Suite 2021-1.
 27 29  0  0  1  0            999 V2000
   16.6662   12.2329   60.9059 C   0  0  0  0  0  0
   15.7728   12.0191   59.8554 C   0  0  0  0  0  0
   14.8815   13.0355   59.4877 C   0  0  0  0  0  0
   14.9177   14.2330   60.2116 C   0  0  0  0  0  0
   15.7784   14.4572   61.2368 N   0  0  0  0  0  0
   16.6344   13.4591   61.5701 C   0  0  0  0  0  0
   13.8628   12.8390   58.3726 C   0  0  0  0  0  0
   14.4065   12.1394   57.1388 C   0  0  0  0  0  0
   15.4599   12.5117   56.3111 C   0  0  0  0  0  0
   15.7072   11.6744   55.3304 N   0  0  0  0  0  0
   14.7818   10.6874   55.4485 C   0  0  0  0  0  0
   14.5611    9.5034   54.7117 C   0  0  0  0  0  0
   13.5338    8.7230   55.0678 N   0  0  0  0  0  0
   12.7457    9.0330   56.1060 C   0  0  0  0  0  0
   12.9540   10.1063   56.9143 N   0  0  0  0  0  0
   13.9426   10.9306   56.5579 C   0  0  0  0  0  0
   15.3540    9.0506   53.7022 O   0  0  0  0  0  0
   13.3540    7.8571   54.5653 H   0  0  0  0  0  0
   17.3540   11.4566   61.2102 H   0  0  0  0  0  0
   15.7684   11.0689   59.3404 H   0  0  0  0  0  0
   14.2403   15.0414   59.9810 H   0  0  0  0  0  0
   17.3000   13.6512   62.3978 H   0  0  0  0  0  0
   13.0334   12.2701   58.7949 H   0  0  0  0  0  0
   13.4372   13.8050   58.1060 H   0  0  0  0  0  0
   16.0620   13.3985   56.4439 H   0  0  0  0  0  0
   11.9570    8.3263   56.3310 H   0  0  0  0  0  0
   15.0790    8.1907   53.3730 H   0  0  0  0  0  0
  1  6  1  0  0  0
  1  2  2  0  0  0
  1 19  1  0  0  0
  2  3  1  0  0  0
  2 20  1  0  0  0
  3  4  2  0  0  0
  3  7  1  0  0  0
  4  5  1  0  0  0
  4 21  1  0  0  0
  5  6  2  0  0  0
  6 22  1  0  0  0
  7  8  1  0  0  0
  7 23  1  0  0  0
  7 24  1  0  0  0
  8 16  2  0  0  0
  8  9  1  0  0  0
  9 10  2  0  0  0
  9 25  1  0  0  0
 10 11  1  0  0  0
 11 16  1  0  0  0
 11 12  2  0  0  0
 12 13  1  0  0  0
 12 17  1  0  0  0
 13 18  1  0  0  0
 13 14  1  0  0  0
 14 15  2  0  0  0
 14 26  1  0  0  0
 15 16  1  0  0  0
 17 27  1  0  0  0
M  END
> <s_m_entry_id>
12226

> <s_m_entry_name>
ligand_docking-pose.140

> <s_m_Source_Path>
/home/csk/Desktop/cluster/DUD-E-result/pnph

> <s_m_Source_File>
ligand_docking-pose.sdf

> <i_m_Source_File_Index>
140

> <i_lp_mmshare_version>
53161

> <i_f3d_flags>
0

> <r_lp_tautomer_probability>
1

> <s_lp_Force_Field>
OPLS_2005

> <r_lp_Energy>
17.87076

> <b_lp_Chiralities_Consistent>
1

> <s_lp_Variant>
131508-1

> <s_i_glide_gridfile>
glide-grid_3bgs

> <i_i_glide_lignum>
211

> <i_i_glide_rotatable_bonds>
3

> <r_i_docking_score>
-7.1810294490885

> <r_i_glide_ligand_efficiency>
-0.422413497005206

> <r_i_glide_ligand_efficiency_sa>
-1.08614404746929

> <r_i_glide_ligand_efficiency_ln>
-1.87337066960372

> <r_i_glide_gscore>
-7.1810294490885

> <r_i_glide_lipo>
-2.73708392596881

> <r_i_glide_hbond>
-0.417449727849346

> <r_i_glide_metal>
0

> <r_i_glide_rewards>
-2.0476361244418

> <r_i_glide_evdw>
-29.3264465332031

> <r_i_glide_ecoul>
-6.95965528488159

> <r_i_glide_erotb>
0.663909655309814

> <r_i_glide_esite>
-0.132498706745965

> <r_i_glide_emodel>
-52.9802930131919

> <r_i_glide_energy>
-36.2861018180847

> <r_i_glide_einternal>
0.31972661614418

> <i_i_glide_confnum>
2

> <i_i_glide_posenum>
360

> <r_i_glide_eff_state_penalty>
0

> <s_user_duplicate_titles>
131508

> <s_m_subgroup_title>
dock_pv

> <s_m_subgroupid>
dock_pv1

> <b_m_subgroup_collapsed>
0

$$$$
83248
                    3D
 Schrodinger Suite 2021-1.
 33 35  0  0  1  0            999 V2000
   16.1510   12.3363   60.3538 C   0  0  0  0  0  0
   15.1318   12.3055   59.4125 C   0  0  0  0  0  0
   14.1321   13.2012   59.9196 C   0  0  0  0  0  0
   14.6062   13.7691   61.1340 C   0  0  0  0  0  0
   15.8459   13.2158   61.3676 N   0  0  0  0  0  0
   13.8008   14.6900   61.8149 C   0  0  0  0  0  0
   12.5771   14.9792   61.3064 N   0  0  0  0  0  0
   12.2140   14.3742   60.1594 C   0  0  0  0  0  0
   12.9364   13.5162   59.4184 N   0  0  0  0  0  0
   10.9541   14.6324   59.6759 N   0  0  0  0  0  0
   14.2871   15.2318   62.9663 O   0  0  0  0  0  0
   15.0774   11.5134   58.1218 C   0  0  0  0  0  0
   13.8047   10.6331   57.9914 C   0  0  0  0  0  0
   13.7554    9.8363   56.6650 C   0  0  0  0  0  0
   14.0033   10.7295   55.4388 C   0  0  0  0  0  0
   15.2619   11.6043   55.5871 C   0  0  0  0  0  0
   15.2269   12.4266   56.8833 C   0  0  0  0  0  0
   16.4592   13.3878   62.1522 H   0  0  0  0  0  0
   17.0896   11.8006   60.3784 H   0  0  0  0  0  0
   10.7415   14.2459   58.7754 H   0  0  0  0  0  0
   10.2515   15.0351   60.2907 H   0  0  0  0  0  0
   13.5737   15.7083   63.3953 H   0  0  0  0  0  0
   15.9272   10.8331   58.1067 H   0  0  0  0  0  0
   12.9114   11.2560   58.0092 H   0  0  0  0  0  0
   13.7571    9.9229   58.8152 H   0  0  0  0  0  0
   12.7933    9.3342   56.5629 H   0  0  0  0  0  0
   14.5023    9.0422   56.6879 H   0  0  0  0  0  0
   13.1396   11.3805   55.3063 H   0  0  0  0  0  0
   14.0679   10.1190   54.5368 H   0  0  0  0  0  0
   15.3532   12.2741   54.7316 H   0  0  0  0  0  0
   16.1530   10.9794   55.5729 H   0  0  0  0  0  0
   16.1554   12.9972   56.9373 H   0  0  0  0  0  0
   14.3904   13.1264   56.8206 H   0  0  0  0  0  0
  1  5  1  0  0  0
  1  2  2  0  0  0
  1 19  1  0  0  0
  2  3  1  0  0  0
  2 12  1  0  0  0
  3  9  2  0  0  0
  3  4  1  0  0  0
  4  5  1  0  0  0
  4  6  2  0  0  0
  5 18  1  0  0  0
  6  7  1  0  0  0
  6 11  1  0  0  0
  7  8  2  0  0  0
  8  9  1  0  0  0
  8 10  1  0  0  0
 10 20  1  0  0  0
 10 21  1  0  0  0
 11 22  1  0  0  0
 12 17  1  0  0  0
 12 13  1  0  0  0
 12 23  1  0  0  0
 13 14  1  0  0  0
 13 24  1  0  0  0
 13 25  1  0  0  0
 14 15  1  0  0  0
 14 26  1  0  0  0
 14 27  1  0  0  0
 15 16  1  0  0  0
 15 28  1  0  0  0
 15 29  1  0  0  0
 16 17  1  0  0  0
 16 30  1  0  0  0
 16 31  1  0  0  0
 17 32  1  0  0  0
 17 33  1  0  0  0
M  END
> <s_m_entry_id>
12231

> <s_m_entry_name>
ligand_docking-pose.145

> <s_m_Source_Path>
/home/csk/Desktop/cluster/DUD-E-result/pnph

> <s_m_Source_File>
ligand_docking-pose.sdf

> <i_m_Source_File_Index>
145

> <i_lp_mmshare_version>
53161

> <i_f3d_flags>
0

> <r_lp_tautomer_probability>
1

> <s_lp_Force_Field>
OPLS_2005

> <r_lp_Energy>
5.968048

> <b_lp_Chiralities_Consistent>
1

> <s_lp_Variant>
83248-1

> <s_i_glide_gridfile>
glide-grid_3bgs

> <i_i_glide_lignum>
9

> <i_i_glide_rotatable_bonds>
2

> <r_i_docking_score>
-7.15018523543347

> <r_i_glide_ligand_efficiency>
-0.420599131496087

> <r_i_glide_ligand_efficiency_sa>
-1.08147880284138

> <r_i_glide_ligand_efficiency_ln>
-1.86532410112799

> <r_i_glide_gscore>
-7.15018523543347

> <r_i_glide_lipo>
-2.60431587534568

> <r_i_glide_hbond>
-0.32

> <r_i_glide_metal>
0

> <r_i_glide_rewards>
-2.4350571712797

> <r_i_glide_evdw>
-32.5649719238281

> <r_i_glide_ecoul>
-3.19994211196899

> <r_i_glide_erotb>
0.317427724178659

> <r_i_glide_esite>
0

> <r_i_glide_emodel>
-49.3531658928731

> <r_i_glide_energy>
-35.7649140357971

> <r_i_glide_einternal>
1.78801119327545

> <i_i_glide_confnum>
1

> <i_i_glide_posenum>
399

> <r_i_glide_eff_state_penalty>
0

> <s_user_duplicate_titles>
83248

> <s_m_subgroup_title>
dock_pv

> <s_m_subgroupid>
dock_pv1

> <b_m_subgroup_collapsed>
0

$$$$
128947
                    3D
 Schrodinger Suite 2021-1.
 28 30  0  0  1  0            999 V2000
   13.4959    9.0918   55.0464 C   0  0  0  0  0  0
   12.9214    9.4326   56.2658 C   0  0  0  0  0  0
   13.4485   10.4780   57.0169 C   0  0  0  0  0  0
   14.5341   11.2133   56.5210 C   0  0  0  0  0  0
   15.0579   10.8999   55.2744 C   0  0  0  0  0  0
   14.5612    9.8277   54.5388 C   0  0  0  0  0  0
   15.1665   12.2385   57.1863 O   0  0  0  0  0  0
   15.0309   12.3845   58.5376 C   0  0  0  0  0  0
   16.0096   12.1293   59.4808 C   0  0  0  0  0  0
   15.5412   12.4671   60.7278 N   0  0  0  0  0  0
   14.2537   12.9573   60.6175 C   0  0  0  0  0  0
   13.8912   12.8811   59.2499 C   0  0  0  0  0  0
   12.6838   13.2580   58.8226 N   0  0  0  0  0  0
   11.8588   13.7522   59.7651 C   0  0  0  0  0  0
   12.1147   13.8658   61.0823 N   0  0  0  0  0  0
   13.3361   13.4746   61.5302 C   0  0  0  0  0  0
   13.7541   13.5754   62.8175 O   0  0  0  0  0  0
   10.6467   14.2322   59.3060 N   0  0  0  0  0  0
   16.0913   12.3671   61.5712 H   0  0  0  0  0  0
   13.1092    8.2408   54.4994 H   0  0  0  0  0  0
   12.0885    8.8544   56.6390 H   0  0  0  0  0  0
   13.0127   10.6934   57.9791 H   0  0  0  0  0  0
   15.8822   11.4842   54.9066 H   0  0  0  0  0  0
   15.0043    9.5560   53.5918 H   0  0  0  0  0  0
   17.0125   11.7445   59.3621 H   0  0  0  0  0  0
   13.0095   13.8320   63.3797 H   0  0  0  0  0  0
   10.0695   14.7228   59.9882 H   0  0  0  0  0  0
   10.6929   14.5323   58.3446 H   0  0  0  0  0  0
  1  6  1  0  0  0
  1  2  2  0  0  0
  1 20  1  0  0  0
  2  3  1  0  0  0
  2 21  1  0  0  0
  3  4  2  0  0  0
  3 22  1  0  0  0
  4  5  1  0  0  0
  4  7  1  0  0  0
  5  6  2  0  0  0
  5 23  1  0  0  0
  6 24  1  0  0  0
  7  8  1  0  0  0
  8 12  1  0  0  0
  8  9  2  0  0  0
  9 10  1  0  0  0
  9 25  1  0  0  0
 10 19  1  0  0  0
 10 11  1  0  0  0
 11 16  1  0  0  0
 11 12  2  0  0  0
 12 13  1  0  0  0
 13 14  2  0  0  0
 14 15  1  0  0  0
 14 18  1  0  0  0
 15 16  2  0  0  0
 16 17  1  0  0  0
 17 26  1  0  0  0
 18 27  1  0  0  0
 18 28  1  0  0  0
M  END
> <s_m_entry_id>
12233

> <s_m_entry_name>
ligand_docking-pose.147

> <s_m_Source_Path>
/home/csk/Desktop/cluster/DUD-E-result/pnph

> <s_m_Source_File>
ligand_docking-pose.sdf

> <i_m_Source_File_Index>
147

> <i_lp_mmshare_version>
53161

> <i_f3d_flags>
0

> <r_lp_tautomer_probability>
1

> <s_lp_Force_Field>
OPLS_2005

> <r_lp_Energy>
6.01501

> <b_lp_Chiralities_Consistent>
1

> <s_lp_Variant>
128947-1

> <s_i_glide_gridfile>
glide-grid_3bgs

> <i_i_glide_lignum>
202

> <i_i_glide_rotatable_bonds>
3

> <r_i_docking_score>
-7.14070854353352

> <r_i_glide_ligand_efficiency>
-0.396706030196307

> <r_i_glide_ligand_efficiency_sa>
-1.03966391366607

> <r_i_glide_ligand_efficiency_ln>
-1.83548231066613

> <r_i_glide_gscore>
-7.14070854353352

> <r_i_glide_lipo>
-1.98067993408056

> <r_i_glide_hbond>
-0.608

> <r_i_glide_metal>
0

> <r_i_glide_rewards>
-2.21630752496562

> <r_i_glide_evdw>
-29.7448310852051

> <r_i_glide_ecoul>
-9.30606555938721

> <r_i_glide_erotb>
0.591071015316926

> <r_i_glide_esite>
-0.0436407116359278

> <r_i_glide_emodel>
-51.8584237911407

> <r_i_glide_energy>
-39.0508966445923

> <r_i_glide_einternal>
5.20699977874756

> <i_i_glide_confnum>
2

> <i_i_glide_posenum>
371

> <r_i_glide_eff_state_penalty>
0

> <s_user_duplicate_titles>
128947

> <s_m_subgroup_title>
dock_pv

> <s_m_subgroupid>
dock_pv1

> <b_m_subgroup_collapsed>
0

$$$$
131174
                    3D
 Schrodinger Suite 2021-1.
 25 27  0  0  1  0            999 V2000
   15.8590   13.4342   62.7766 C   0  0  0  0  0  0
   16.3347   14.3825   63.6687 C   0  0  0  0  0  0
   17.4352   15.4745   62.9117 S   0  0  0  0  0  0
   17.2529   14.6317   61.4069 C   0  0  0  0  0  0
   16.3700   13.5580   61.4752 C   0  0  0  0  0  0
   15.9946   12.6564   60.3151 C   0  0  0  0  0  0
   14.5736   12.8695   59.8101 C   0  0  0  0  0  0
   13.9146   12.1270   58.8306 C   0  0  0  0  0  0
   12.6849   12.5063   58.5756 N   0  0  0  0  0  0
   12.4636   13.5574   59.4061 C   0  0  0  0  0  0
   11.3241   14.3566   59.6000 C   0  0  0  0  0  0
   11.3559   15.2973   60.5571 N   0  0  0  0  0  0
   12.4691   15.5254   61.2765 C   0  0  0  0  0  0
   13.6250   14.8336   61.1055 N   0  0  0  0  0  0
   13.5998   13.8404   60.1986 C   0  0  0  0  0  0
   10.1550   14.2327   58.9093 O   0  0  0  0  0  0
   10.4956   15.7910   60.7788 H   0  0  0  0  0  0
   15.1443   12.6707   63.0470 H   0  0  0  0  0  0
   16.0827   14.4943   64.7129 H   0  0  0  0  0  0
   17.7788   14.9827   60.5307 H   0  0  0  0  0  0
   16.6899   12.7893   59.4892 H   0  0  0  0  0  0
   16.1193   11.6152   60.6163 H   0  0  0  0  0  0
   14.3469   11.2903   58.3004 H   0  0  0  0  0  0
   12.4074   16.2838   62.0434 H   0  0  0  0  0  0
    9.4731   14.7051   59.4056 H   0  0  0  0  0  0
  1  5  1  0  0  0
  1  2  2  0  0  0
  1 18  1  0  0  0
  2  3  1  0  0  0
  2 19  1  0  0  0
  3  4  1  0  0  0
  4  5  2  0  0  0
  4 20  1  0  0  0
  5  6  1  0  0  0
  6  7  1  0  0  0
  6 21  1  0  0  0
  6 22  1  0  0  0
  7 15  2  0  0  0
  7  8  1  0  0  0
  8  9  2  0  0  0
  8 23  1  0  0  0
  9 10  1  0  0  0
 10 15  1  0  0  0
 10 11  2  0  0  0
 11 12  1  0  0  0
 11 16  1  0  0  0
 12 17  1  0  0  0
 12 13  1  0  0  0
 13 14  2  0  0  0
 13 24  1  0  0  0
 14 15  1  0  0  0
 16 25  1  0  0  0
M  END
> <s_m_entry_id>
12235

> <s_m_entry_name>
ligand_docking-pose.149

> <s_m_Source_Path>
/home/csk/Desktop/cluster/DUD-E-result/pnph

> <s_m_Source_File>
ligand_docking-pose.sdf

> <i_m_Source_File_Index>
149

> <i_lp_mmshare_version>
53161

> <i_f3d_flags>
0

> <r_lp_tautomer_probability>
1

> <s_lp_Force_Field>
OPLS_2005

> <r_lp_Energy>
15.748368

> <b_lp_Chiralities_Consistent>
1

> <s_lp_Variant>
131174-1

> <s_i_glide_gridfile>
glide-grid_3bgs

> <i_i_glide_lignum>
263

> <i_i_glide_rotatable_bonds>
3

> <r_i_docking_score>
-7.13657911338429

> <r_i_glide_ligand_efficiency>
-0.446036194586518

> <r_i_glide_ligand_efficiency_sa>
-1.12394078011038

> <r_i_glide_ligand_efficiency_ln>
-1.89169285040626

> <r_i_glide_gscore>
-7.13657911338429

> <r_i_glide_lipo>
-1.72331981236184

> <r_i_glide_hbond>
-0.974842123922757

> <r_i_glide_metal>
0

> <r_i_glide_rewards>
-1.94492961746352

> <r_i_glide_evdw>
-26.3163967132568

> <r_i_glide_ecoul>
-12.0288124084473

> <r_i_glide_erotb>
0.639557817697206

> <r_i_glide_esite>
-0.0129036804034394

> <r_i_glide_emodel>
-54.1079456303859

> <r_i_glide_energy>
-38.3452091217041

> <r_i_glide_einternal>
2.626380443573

> <i_i_glide_confnum>
6

> <i_i_glide_posenum>
240

> <r_i_glide_eff_state_penalty>
0

> <s_user_duplicate_titles>
131174

> <s_m_subgroup_title>
dock_pv

> <s_m_subgroupid>
dock_pv1

> <b_m_subgroup_collapsed>
0

$$$$
267628
                    3D
 Schrodinger Suite 2021-1.
 28 30  0  0  1  0            999 V2000
   13.8178    9.1433   55.0288 C   0  0  0  0  0  0
   13.1420    9.6002   56.1604 C   0  0  0  0  0  0
   13.6392   10.7895   56.6899 C   0  0  0  0  0  0
   14.9539   11.3632   55.7034 S   0  0  0  0  0  0
   14.8571    9.9753   54.6641 C   0  0  0  0  0  0
   13.1528   11.5750   57.8893 C   0  0  0  0  0  0
   14.1977   11.9626   58.8330 N   0  0  0  0  0  0
   15.2207   11.0343   59.3265 C   0  0  0  0  0  0
   15.9510   11.8299   60.3125 N   0  0  0  0  0  0
   15.0191   12.7557   60.7264 C   0  0  0  0  0  0
   14.0017   12.8363   59.8622 C   0  0  0  0  0  0
   12.9033   13.6391   60.0096 N   0  0  0  0  0  0
   12.8546   14.3757   61.0624 C   0  0  0  0  0  0
   13.8712   14.3580   61.9808 N   0  0  0  0  0  0
   14.9940   13.5937   61.9171 C   0  0  0  0  0  0
   15.8590   13.6543   62.7864 O   0  0  0  0  0  0
   11.7538   15.2089   61.3060 N   0  0  0  0  0  0
   13.5561    8.2337   54.5065 H   0  0  0  0  0  0
   12.3029    9.0674   56.5817 H   0  0  0  0  0  0
   15.5379    9.8337   53.8372 H   0  0  0  0  0  0
   12.6812   12.4917   57.5304 H   0  0  0  0  0  0
   12.3772   11.0339   58.4317 H   0  0  0  0  0  0
   14.7679   10.1530   59.7889 H   0  0  0  0  0  0
   15.8840   10.6994   58.5266 H   0  0  0  0  0  0
   16.4057   11.2728   61.0283 H   0  0  0  0  0  0
   13.8053   14.9232   62.8086 H   0  0  0  0  0  0
   10.9410   15.0379   60.7294 H   0  0  0  0  0  0
   11.4763   15.2682   62.2742 H   0  0  0  0  0  0
  1  5  2  0  0  0
  1  2  1  0  0  0
  1 18  1  0  0  0
  2  3  2  0  0  0
  2 19  1  0  0  0
  3  4  1  0  0  0
  3  6  1  0  0  0
  4  5  1  0  0  0
  5 20  1  0  0  0
  6  7  1  0  0  0
  6 21  1  0  0  0
  6 22  1  0  0  0
  7  8  1  0  0  0
  7 11  1  0  0  0
  8 23  1  0  0  0
  8 24  1  0  0  0
  8  9  1  0  0  0
  9 10  1  0  0  0
  9 25  1  0  0  0
 10 11  2  0  0  0
 10 15  1  0  0  0
 11 12  1  0  0  0
 12 13  2  0  0  0
 13 14  1  0  0  0
 13 17  1  0  0  0
 14 15  1  0  0  0
 14 26  1  0  0  0
 15 16  2  0  0  0
 17 27  1  0  0  0
 17 28  1  0  0  0
M  END
> <s_m_entry_id>
12238

> <s_m_entry_name>
ligand_docking-pose.152

> <s_m_Source_Path>
/home/csk/Desktop/cluster/DUD-E-result/pnph

> <s_m_Source_File>
ligand_docking-pose.sdf

> <i_m_Source_File_Index>
152

> <i_lp_mmshare_version>
53161

> <i_f3d_flags>
0

> <r_lp_tautomer_probability>
0.0243188113840173

> <s_lp_Force_Field>
OPLS_2005

> <r_lp_Energy>
27.950611

> <b_lp_Chiralities_Consistent>
1

> <s_lp_Variant>
267628-3

> <s_i_glide_gridfile>
glide-grid_3bgs

> <i_i_glide_lignum>
237

> <i_i_glide_rotatable_bonds>
2

> <r_i_docking_score>
-7.10450486038691

> <r_i_glide_ligand_efficiency>
-0.417912050610995

> <r_i_glide_ligand_efficiency_sa>
-1.07456956123546

> <r_i_glide_ligand_efficiency_ln>
-1.85340710853028

> <r_i_glide_gscore>
-7.10450486038691

> <r_i_glide_lipo>
-1.89427522403643

> <r_i_glide_hbond>
-0.278980933328424

> <r_i_glide_metal>
0

> <r_i_glide_rewards>
-2.54869854127534

> <r_i_glide_evdw>
-36.0979042053223

> <r_i_glide_ecoul>
-7.47082281112671

> <r_i_glide_erotb>
0.562723947200978

> <r_i_glide_esite>
-0.0197554770125762

> <r_i_glide_emodel>
-57.7364127565684

> <r_i_glide_energy>
-43.568727016449

> <r_i_glide_einternal>
5.71056795120239

> <i_i_glide_confnum>
7

> <i_i_glide_posenum>
345

> <r_i_glide_eff_state_penalty>
0

> <s_user_duplicate_titles>
267628

> <s_m_subgroup_title>
dock_pv

> <s_m_subgroupid>
dock_pv1

> <b_m_subgroup_collapsed>
0

$$$$
128874
                    3D
 Schrodinger Suite 2021-1.
 29 31  0  0  1  0            999 V2000
   14.8938   12.2332   56.9277 C   0  0  0  0  0  0
   15.3531   11.9626   55.6423 C   0  0  0  0  0  0
   14.9541   10.8788   54.9262 N   0  0  0  0  0  0
   14.0561   10.0378   55.4994 C   0  0  0  0  0  0
   13.5561   10.2331   56.7887 C   0  0  0  0  0  0
   14.0006   11.3367   57.5272 C   0  0  0  0  0  0
   13.5313   11.5548   58.9608 C   0  0  0  0  0  0
   14.6462   12.0270   59.8791 C   0  0  0  0  0  0
   15.8955   11.4278   60.0648 C   0  0  0  0  0  0
   16.6602   12.1926   60.9068 N   0  0  0  0  0  0
   15.9142   13.2676   61.2993 C   0  0  0  0  0  0
   14.6596   13.1787   60.6906 C   0  0  0  0  0  0
   13.6790   14.1116   60.8856 N   0  0  0  0  0  0
   13.9300   15.0921   61.6828 C   0  0  0  0  0  0
   15.1649   15.2020   62.2946 N   0  0  0  0  0  0
   16.2549   14.3778   62.1737 C   0  0  0  0  0  0
   17.3211   14.6133   62.7413 O   0  0  0  0  0  0
   12.9543   16.0736   61.9338 N   0  0  0  0  0  0
   17.6022   11.9844   61.2083 H   0  0  0  0  0  0
   15.3143   15.9862   62.9075 H   0  0  0  0  0  0
   15.2415   13.1100   57.4545 H   0  0  0  0  0  0
   16.0487   12.6372   55.1657 H   0  0  0  0  0  0
   13.7444    9.1849   54.9106 H   0  0  0  0  0  0
   12.8492    9.5301   57.2024 H   0  0  0  0  0  0
   12.7182   12.2814   58.9337 H   0  0  0  0  0  0
   13.0937   10.6335   59.3429 H   0  0  0  0  0  0
   16.3050   10.5213   59.6414 H   0  0  0  0  0  0
   12.0020   15.8319   61.7026 H   0  0  0  0  0  0
   13.0158   16.6028   62.7911 H   0  0  0  0  0  0
  1  6  1  0  0  0
  1  2  2  0  0  0
  1 21  1  0  0  0
  2  3  1  0  0  0
  2 22  1  0  0  0
  3  4  2  0  0  0
  4  5  1  0  0  0
  4 23  1  0  0  0
  5  6  2  0  0  0
  5 24  1  0  0  0
  6  7  1  0  0  0
  7  8  1  0  0  0
  7 25  1  0  0  0
  7 26  1  0  0  0
  8 12  1  0  0  0
  8  9  2  0  0  0
  9 10  1  0  0  0
  9 27  1  0  0  0
 10 19  1  0  0  0
 10 11  1  0  0  0
 11 16  1  0  0  0
 11 12  2  0  0  0
 12 13  1  0  0  0
 13 14  2  0  0  0
 14 15  1  0  0  0
 14 18  1  0  0  0
 15 20  1  0  0  0
 15 16  1  0  0  0
 16 17  2  0  0  0
 18 28  1  0  0  0
 18 29  1  0  0  0
M  END
> <s_m_entry_id>
12239

> <s_m_entry_name>
ligand_docking-pose.153

> <s_m_Source_Path>
/home/csk/Desktop/cluster/DUD-E-result/pnph

> <s_m_Source_File>
ligand_docking-pose.sdf

> <i_m_Source_File_Index>
153

> <i_lp_mmshare_version>
53161

> <i_f3d_flags>
0

> <r_lp_tautomer_probability>
1

> <s_lp_Force_Field>
OPLS_2005

> <r_lp_Energy>
15.421224

> <b_lp_Chiralities_Consistent>
1

> <s_lp_Variant>
128874-1

> <s_i_glide_gridfile>
glide-grid_3bgs

> <i_i_glide_lignum>
240

> <i_i_glide_rotatable_bonds>
2

> <r_i_docking_score>
-7.07883138208167

> <r_i_glide_ligand_efficiency>
-0.393268410115648

> <r_i_glide_ligand_efficiency_sa>
-1.03065480043181

> <r_i_glide_ligand_efficiency_ln>
-1.81957710537919

> <r_i_glide_gscore>
-7.07883138208167

> <r_i_glide_lipo>
-2.73523602983736

> <r_i_glide_hbond>
-0.488839031136721

> <r_i_glide_metal>
0

> <r_i_glide_rewards>
-2.06197862396424

> <r_i_glide_evdw>
-35.5268058776855

> <r_i_glide_ecoul>
-4.07755851745605

> <r_i_glide_erotb>
0.595196374359332

> <r_i_glide_esite>
0

> <r_i_glide_emodel>
-56.6234538379073

> <r_i_glide_energy>
-39.6043643951416

> <r_i_glide_einternal>
0.258490204811096

> <i_i_glide_confnum>
7

> <i_i_glide_posenum>
34

> <r_i_glide_eff_state_penalty>
0

> <s_user_duplicate_titles>
128874

> <s_m_subgroup_title>
dock_pv

> <s_m_subgroupid>
dock_pv1

> <b_m_subgroup_collapsed>
0

$$$$
128831
                    3D
 Schrodinger Suite 2021-1.
 30 32  0  0  1  0            999 V2000
   15.1253   16.6974   64.2263 C   0  0  0  0  0  0
   15.7546   17.8349   64.7237 C   0  0  0  0  0  0
   17.0785   18.0987   64.3796 C   0  0  0  0  0  0
   17.7846   17.2220   63.5587 C   0  0  0  0  0  0
   17.1498   16.0910   63.0498 C   0  0  0  0  0  0
   15.8110   15.8371   63.3636 C   0  0  0  0  0  0
   15.1230   14.5973   62.7992 C   0  0  0  0  0  0
   13.9211   14.8468   61.8935 C   0  0  0  0  0  0
   13.0015   15.8906   61.8955 C   0  0  0  0  0  0
   11.9881   15.6536   60.9982 N   0  0  0  0  0  0
   12.2457   14.4819   60.3216 C   0  0  0  0  0  0
   13.4734   13.9753   60.8405 C   0  0  0  0  0  0
   14.0180   12.8470   60.3745 N   0  0  0  0  0  0
   13.3313   12.2426   59.3839 C   0  0  0  0  0  0
   12.1542   12.6333   58.8541 N   0  0  0  0  0  0
   11.5765   13.7663   59.3230 C   0  0  0  0  0  0
   10.3593   14.2330   58.9062 O   0  0  0  0  0  0
   13.8885   11.0910   58.8666 N   0  0  0  0  0  0
   17.8482   19.5257   64.9692 Cl  0  0  0  0  0  0
   11.1817   16.2548   60.9060 H   0  0  0  0  0  0
   14.1034   16.4909   64.5058 H   0  0  0  0  0  0
   15.2153   18.5124   65.3695 H   0  0  0  0  0  0
   18.8160   17.4251   63.3081 H   0  0  0  0  0  0
   17.6930   15.4256   62.3950 H   0  0  0  0  0  0
   15.8591   13.9796   62.2816 H   0  0  0  0  0  0
   14.7864   13.9959   63.6451 H   0  0  0  0  0  0
   12.9525   16.7687   62.5225 H   0  0  0  0  0  0
    9.9845   14.8538   59.5419 H   0  0  0  0  0  0
   14.6665   10.6936   59.3679 H   0  0  0  0  0  0
   13.3247   10.5462   58.2346 H   0  0  0  0  0  0
  1  6  1  0  0  0
  1  2  2  0  0  0
  1 21  1  0  0  0
  2  3  1  0  0  0
  2 22  1  0  0  0
  3  4  2  0  0  0
  3 19  1  0  0  0
  4  5  1  0  0  0
  4 23  1  0  0  0
  5  6  2  0  0  0
  5 24  1  0  0  0
  6  7  1  0  0  0
  7  8  1  0  0  0
  7 25  1  0  0  0
  7 26  1  0  0  0
  8 12  1  0  0  0
  8  9  2  0  0  0
  9 10  1  0  0  0
  9 27  1  0  0  0
 10 20  1  0  0  0
 10 11  1  0  0  0
 11 16  1  0  0  0
 11 12  2  0  0  0
 12 13  1  0  0  0
 13 14  2  0  0  0
 14 15  1  0  0  0
 14 18  1  0  0  0
 15 16  2  0  0  0
 16 17  1  0  0  0
 17 28  1  0  0  0
 18 29  1  0  0  0
 18 30  1  0  0  0
M  END
> <s_m_entry_id>
12240

> <s_m_entry_name>
ligand_docking-pose.154

> <s_m_Source_Path>
/home/csk/Desktop/cluster/DUD-E-result/pnph

> <s_m_Source_File>
ligand_docking-pose.sdf

> <i_m_Source_File_Index>
154

> <i_lp_mmshare_version>
53161

> <i_f3d_flags>
0

> <r_lp_tautomer_probability>
1

> <s_lp_Force_Field>
OPLS_2005

> <r_lp_Energy>
2.322023

> <b_lp_Chiralities_Consistent>
1

> <s_lp_Variant>
128831-1

> <s_i_glide_gridfile>
glide-grid_3bgs

> <i_i_glide_lignum>
150

> <i_i_glide_rotatable_bonds>
3

> <r_i_docking_score>
-7.07859626935274

> <r_i_glide_ligand_efficiency>
-0.372557698386986

> <r_i_glide_ligand_efficiency_sa>
-0.994133575644165

> <r_i_glide_ligand_efficiency_ln>
-1.79457618858858

> <r_i_glide_gscore>
-7.07859626935274

> <r_i_glide_lipo>
-1.01067344552653

> <r_i_glide_hbond>
-0.92589270446126

> <r_i_glide_metal>
0

> <r_i_glide_rewards>
-2.6728919916746

> <r_i_glide_evdw>
-31.7446174621582

> <r_i_glide_ecoul>
-9.05294990539551

> <r_i_glide_erotb>
0.476035231226892

> <r_i_glide_esite>
0

> <r_i_glide_emodel>
-56.0545547521538

> <r_i_glide_energy>
-40.7975673675537

> <r_i_glide_einternal>
0.99616926908493

> <i_i_glide_confnum>
1

> <i_i_glide_posenum>
396

> <r_i_glide_eff_state_penalty>
0

> <s_user_duplicate_titles>
128831

> <s_m_subgroup_title>
dock_pv

> <s_m_subgroupid>
dock_pv1

> <b_m_subgroup_collapsed>
0

$$$$
131175
                    3D
 Schrodinger Suite 2021-1.
 31 33  0  0  1  0            999 V2000
   15.3767   12.7602   56.7046 C   0  0  0  0  0  0
   14.3206   12.3186   57.4959 C   0  0  0  0  0  0
   13.9185   11.1152   56.8620 C   0  0  0  0  0  0
   12.9540   10.2404   57.1682 N   0  0  0  0  0  0
   12.7449    9.2479   56.2651 C   0  0  0  0  0  0
   13.5250    9.0322   55.1947 N   0  0  0  0  0  0
   14.5540    9.8433   54.9062 C   0  0  0  0  0  0
   14.7658   10.9689   55.7373 C   0  0  0  0  0  0
   15.6818   11.9735   55.6999 N   0  0  0  0  0  0
   15.3515    9.4885   53.8576 O   0  0  0  0  0  0
   13.6997   12.9562   58.7277 C   0  0  0  0  0  0
   14.5723   12.9331   60.0104 C   0  0  0  0  0  0
   15.2641   11.5801   60.3114 C   0  0  0  0  0  0
   16.7718   11.8611   60.2656 C   0  0  0  0  0  0
   16.8862   13.3173   60.7120 C   0  0  0  0  0  0
   15.6915   13.9950   60.0386 C   0  0  0  0  0  0
   13.3552    8.2031   54.6316 H   0  0  0  0  0  0
   15.9312   13.6663   56.8734 H   0  0  0  0  0  0
   11.9406    8.5489   56.4363 H   0  0  0  0  0  0
   15.1132    8.6436   53.4715 H   0  0  0  0  0  0
   12.7520   12.4612   58.9505 H   0  0  0  0  0  0
   13.4184   13.9843   58.5064 H   0  0  0  0  0  0
   13.9004   13.1558   60.8434 H   0  0  0  0  0  0
   14.9879   10.7804   59.6205 H   0  0  0  0  0  0
   14.9800   11.2356   61.3066 H   0  0  0  0  0  0
   17.1421   11.7506   59.2452 H   0  0  0  0  0  0
   17.3436   11.1822   60.9027 H   0  0  0  0  0  0
   17.8299   13.7804   60.4268 H   0  0  0  0  0  0
   16.7987   13.3818   61.7995 H   0  0  0  0  0  0
   15.3906   14.8938   60.5804 H   0  0  0  0  0  0
   15.9650   14.3124   59.0329 H   0  0  0  0  0  0
  1  9  2  0  0  0
  1  2  1  0  0  0
  1 18  1  0  0  0
  2  3  2  0  0  0
  2 11  1  0  0  0
  3  8  1  0  0  0
  3  4  1  0  0  0
  4  5  2  0  0  0
  5  6  1  0  0  0
  5 19  1  0  0  0
  6 17  1  0  0  0
  6  7  1  0  0  0
  7  8  2  0  0  0
  7 10  1  0  0  0
  8  9  1  0  0  0
 10 20  1  0  0  0
 11 12  1  0  0  0
 11 21  1  0  0  0
 11 22  1  0  0  0
 12 16  1  0  0  0
 12 13  1  0  0  0
 12 23  1  0  0  0
 13 14  1  0  0  0
 13 24  1  0  0  0
 13 25  1  0  0  0
 14 15  1  0  0  0
 14 26  1  0  0  0
 14 27  1  0  0  0
 15 16  1  0  0  0
 15 28  1  0  0  0
 15 29  1  0  0  0
 16 30  1  0  0  0
 16 31  1  0  0  0
M  END
> <s_m_entry_id>
12243

> <s_m_entry_name>
ligand_docking-pose.157

> <s_m_Source_Path>
/home/csk/Desktop/cluster/DUD-E-result/pnph

> <s_m_Source_File>
ligand_docking-pose.sdf

> <i_m_Source_File_Index>
157

> <i_lp_mmshare_version>
53161

> <i_f3d_flags>
0

> <r_lp_tautomer_probability>
1

> <s_lp_Force_Field>
OPLS_2005

> <r_lp_Energy>
34.587355

> <b_lp_Chiralities_Consistent>
1

> <s_lp_Variant>
131175-1

> <s_i_glide_gridfile>
glide-grid_3bgs

> <i_i_glide_lignum>
138

> <i_i_glide_rotatable_bonds>
3

> <r_i_docking_score>
-7.0521766504619

> <r_i_glide_ligand_efficiency>
-0.440761040653869

> <r_i_glide_ligand_efficiency_sa>
-1.1106482251603

> <r_i_glide_ligand_efficiency_ln>
-1.86932029163121

> <r_i_glide_gscore>
-7.0521766504619

> <r_i_glide_lipo>
-3.00607650633506

> <r_i_glide_hbond>
-0.261806731921419

> <r_i_glide_metal>
0

> <r_i_glide_rewards>
-2.16284104757989

> <r_i_glide_evdw>
-29.1990203857422

> <r_i_glide_ecoul>
-5.49366521835327

> <r_i_glide_erotb>
0.710849087544165

> <r_i_glide_esite>
-0.0483006501295991

> <r_i_glide_emodel>
-48.5621926556529

> <r_i_glide_energy>
-34.6926856040955

> <r_i_glide_einternal>
2.65826368331909

> <i_i_glide_confnum>
15

> <i_i_glide_posenum>
387

> <r_i_glide_eff_state_penalty>
0

> <s_user_duplicate_titles>
131175

> <s_m_subgroup_title>
dock_pv

> <s_m_subgroupid>
dock_pv1

> <b_m_subgroup_collapsed>
0

$$$$
83489
                    3D
 Schrodinger Suite 2021-1.
 33 35  0  0  1  0            999 V2000
   12.9542   16.1709   61.8391 C   0  0  0  0  0  0
   14.0300   15.3376   61.5653 C   0  0  0  0  0  0
   13.5187   14.3614   60.6430 C   0  0  0  0  0  0
   12.1552   14.6734   60.3688 C   0  0  0  0  0  0
   11.8371   15.7723   61.1407 N   0  0  0  0  0  0
   11.4492   13.8888   59.4503 C   0  0  0  0  0  0
   12.0908   12.8437   58.8759 N   0  0  0  0  0  0
   13.3738   12.6101   59.2105 C   0  0  0  0  0  0
   14.1335   13.3234   60.0668 N   0  0  0  0  0  0
   13.9700   11.5145   58.6195 N   0  0  0  0  0  0
   10.1545   14.2318   59.1774 O   0  0  0  0  0  0
   15.4521   15.4181   62.0943 C   0  0  0  0  0  0
   15.7649   14.3503   63.1667 C   0  0  0  0  0  0
   17.2762   14.1809   63.4292 C   0  0  0  0  0  0
   17.4411   14.0689   64.9458 C   0  0  0  0  0  0
   16.3121   14.9346   65.4961 C   0  0  0  0  0  0
   15.1440   14.6785   64.5408 C   0  0  0  0  0  0
   10.9361   16.2278   61.2222 H   0  0  0  0  0  0
   12.9068   17.0249   62.4995 H   0  0  0  0  0  0
   14.8740   11.2345   58.9645 H   0  0  0  0  0  0
   13.3839   10.8977   58.0812 H   0  0  0  0  0  0
    9.7685   14.7990   59.8631 H   0  0  0  0  0  0
   15.6678   16.4037   62.5073 H   0  0  0  0  0  0
   16.1412   15.3035   61.2557 H   0  0  0  0  0  0
   15.3795   13.3882   62.8200 H   0  0  0  0  0  0
   17.8360   15.0399   63.0565 H   0  0  0  0  0  0
   17.6673   13.2947   62.9286 H   0  0  0  0  0  0
   18.4229   14.4027   65.2844 H   0  0  0  0  0  0
   17.3174   13.0347   65.2704 H   0  0  0  0  0  0
   16.5980   15.9872   65.4638 H   0  0  0  0  0  0
   16.0656   14.6911   66.5300 H   0  0  0  0  0  0
   14.5535   13.8332   64.8895 H   0  0  0  0  0  0
   14.4768   15.5395   64.5052 H   0  0  0  0  0  0
  1  5  1  0  0  0
  1  2  2  0  0  0
  1 19  1  0  0  0
  2  3  1  0  0  0
  2 12  1  0  0  0
  3  9  2  0  0  0
  3  4  1  0  0  0
  4  5  1  0  0  0
  4  6  2  0  0  0
  5 18  1  0  0  0
  6  7  1  0  0  0
  6 11  1  0  0  0
  7  8  2  0  0  0
  8  9  1  0  0  0
  8 10  1  0  0  0
 10 20  1  0  0  0
 10 21  1  0  0  0
 11 22  1  0  0  0
 12 13  1  0  0  0
 12 23  1  0  0  0
 12 24  1  0  0  0
 13 17  1  0  0  0
 13 14  1  0  0  0
 13 25  1  0  0  0
 14 15  1  0  0  0
 14 26  1  0  0  0
 14 27  1  0  0  0
 15 16  1  0  0  0
 15 28  1  0  0  0
 15 29  1  0  0  0
 16 17  1  0  0  0
 16 30  1  0  0  0
 16 31  1  0  0  0
 17 32  1  0  0  0
 17 33  1  0  0  0
M  END
> <s_m_entry_id>
12246

> <s_m_entry_name>
ligand_docking-pose.160

> <s_m_Source_Path>
/home/csk/Desktop/cluster/DUD-E-result/pnph

> <s_m_Source_File>
ligand_docking-pose.sdf

> <i_m_Source_File_Index>
160

> <i_lp_mmshare_version>
53161

> <i_f3d_flags>
0

> <r_lp_tautomer_probability>
1

> <s_lp_Force_Field>
OPLS_2005

> <r_lp_Energy>
16.962702

> <b_lp_Chiralities_Consistent>
1

> <s_lp_Variant>
83489-1

> <s_i_glide_gridfile>
glide-grid_3bgs

> <i_i_glide_lignum>
14

> <i_i_glide_rotatable_bonds>
3

> <r_i_docking_score>
-7.00544729169128

> <r_i_glide_ligand_efficiency>
-0.412085134805369

> <r_i_glide_ligand_efficiency_sa>
-1.05958691990828

> <r_i_glide_ligand_efficiency_ln>
-1.82756519476119

> <r_i_glide_gscore>
-7.00544729169128

> <r_i_glide_lipo>
-1.19229491622315

> <r_i_glide_hbond>
-0.933201890879644

> <r_i_glide_metal>
0

> <r_i_glide_rewards>
-2.31922907442529

> <r_i_glide_evdw>
-25.782958984375

> <r_i_glide_ecoul>
-12.7095260620117

> <r_i_glide_erotb>
0.634855448357317

> <r_i_glide_esite>
0

> <r_i_glide_emodel>
-52.4234856263506

> <r_i_glide_energy>
-38.4924850463867

> <r_i_glide_einternal>
0.90563040971756

> <i_i_glide_confnum>
20

> <i_i_glide_posenum>
213

> <r_i_glide_eff_state_penalty>
0

> <s_user_duplicate_titles>
83489

> <s_m_subgroup_title>
dock_pv

> <s_m_subgroupid>
dock_pv1

> <b_m_subgroup_collapsed>
0

$$$$
83488
                    3D
 Schrodinger Suite 2021-1.
 39 41  0  0  1  0            999 V2000
   13.3880    9.4330   55.2506 C   0  0  0  0  0  0
   13.7716   10.7186   56.0053 C   0  0  2  0  0  0
   15.0644   11.3346   55.4469 C   0  0  0  0  0  0
   15.3836   12.6684   56.1307 C   0  0  0  0  0  0
   15.5955   12.4854   57.6427 C   0  0  0  0  0  0
   14.5300   11.6224   58.3694 C   0  0  1  0  0  0
   13.8763   10.4866   57.5307 C   0  0  0  0  0  0
   14.9530   11.1775   59.7903 C   0  0  0  0  0  0
   14.7330   12.2437   60.8466 C   0  0  0  0  0  0
   13.6162   12.3973   61.6431 C   0  0  0  0  0  0
   13.7540   13.4455   62.5060 N   0  0  0  0  0  0
   14.9785   14.0313   62.3154 C   0  0  0  0  0  0
   15.6079   13.3116   61.2548 C   0  0  0  0  0  0
   16.8129   13.6624   60.8015 N   0  0  0  0  0  0
   17.3610   14.7262   61.4209 C   0  0  0  0  0  0
   16.8662   15.4330   62.4566 N   0  0  0  0  0  0
   15.6409   15.1020   62.9218 C   0  0  0  0  0  0
   14.9960   15.7511   63.9361 O   0  0  0  0  0  0
   18.5540   15.1760   60.9060 N   0  0  0  0  0  0
   13.0308   13.6865   63.1789 H   0  0  0  0  0  0
   14.1081    8.6330   55.4249 H   0  0  0  0  0  0
   12.4072    9.0669   55.5575 H   0  0  0  0  0  0
   13.3540    9.6047   54.1745 H   0  0  0  0  0  0
   12.9850   11.4597   55.8525 H   0  0  0  0  0  0
   14.9540   11.4819   54.3755 H   0  0  0  0  0  0
   15.8940   10.6340   55.5391 H   0  0  0  0  0  0
   14.5724   13.3775   55.9604 H   0  0  0  0  0  0
   16.2752   13.1103   55.6868 H   0  0  0  0  0  0
   16.5426   11.9495   57.7299 H   0  0  0  0  0  0
   15.7540   13.4357   58.1539 H   0  0  0  0  0  0
   13.6925   12.3173   58.4622 H   0  0  0  0  0  0
   12.9518   10.1192   57.9710 H   0  0  0  0  0  0
   14.5540    9.6396   57.6280 H   0  0  0  0  0  0
   14.3814   10.2922   60.0696 H   0  0  0  0  0  0
   15.9893   10.8359   59.7907 H   0  0  0  0  0  0
   12.7071   11.8330   61.6865 H   0  0  0  0  0  0
   14.1369   15.3640   64.1058 H   0  0  0  0  0  0
   18.7849   14.7888   60.0066 H   0  0  0  0  0  0
   18.7662   16.1382   61.1118 H   0  0  0  0  0  0
  1  2  1  0  0  0
  1 21  1  0  0  0
  1 22  1  0  0  0
  1 23  1  0  0  0
  2  7  1  0  0  0
  2  3  1  0  0  0
  2 24  1  0  0  0
  3  4  1  0  0  0
  3 25  1  0  0  0
  3 26  1  0  0  0
  4  5  1  0  0  0
  4 27  1  0  0  0
  4 28  1  0  0  0
  5  6  1  0  0  0
  5 29  1  0  0  0
  5 30  1  0  0  0
  6  7  1  0  0  0
  6  8  1  0  0  0
  6 31  1  0  0  0
  7 32  1  0  0  0
  7 33  1  0  0  0
  8  9  1  0  0  0
  8 34  1  0  0  0
  8 35  1  0  0  0
  9 13  1  0  0  0
  9 10  2  0  0  0
 10 11  1  0  0  0
 10 36  1  0  0  0
 11 20  1  0  0  0
 11 12  1  0  0  0
 12 17  1  0  0  0
 12 13  2  0  0  0
 13 14  1  0  0  0
 14 15  2  0  0  0
 15 16  1  0  0  0
 15 19  1  0  0  0
 16 17  2  0  0  0
 17 18  1  0  0  0
 18 37  1  0  0  0
 19 38  1  0  0  0
 19 39  1  0  0  0
M  END
> <s_m_entry_id>
12252

> <s_m_entry_name>
ligand_docking-pose.166

> <s_m_Source_Path>
/home/csk/Desktop/cluster/DUD-E-result/pnph

> <s_m_Source_File>
ligand_docking-pose.sdf

> <i_m_Source_File_Index>
166

> <i_lp_mmshare_version>
53161

> <i_f3d_flags>
0

> <r_lp_tautomer_probability>
1

> <s_lp_Force_Field>
OPLS_2005

> <r_lp_Energy>
6.330723

> <b_lp_Chiralities_Consistent>
1

> <s_lp_Variant>
83488-1

> <s_i_glide_gridfile>
glide-grid_3bgs

> <i_i_glide_lignum>
310

> <i_i_glide_rotatable_bonds>
3

> <r_i_docking_score>
-6.91297134509711

> <r_i_glide_ligand_efficiency>
-0.363840597110374

> <r_i_glide_ligand_efficiency_sa>
-0.970872848248408

> <r_i_glide_ligand_efficiency_ln>
-1.75258671299258

> <r_i_glide_gscore>
-6.91297134509711

> <r_i_glide_lipo>
-2.86508941064649

> <r_i_glide_hbond>
-0.33330380795849

> <r_i_glide_metal>
0

> <r_i_glide_rewards>
-1.90119889393604

> <r_i_glide_evdw>
-26.6653995513916

> <r_i_glide_ecoul>
-6.35881090164185

> <r_i_glide_erotb>
0.522345246931634

> <r_i_glide_esite>
-0.0486328666718717

> <r_i_glide_emodel>
-45.4434449907848

> <r_i_glide_energy>
-33.0242104530334

> <r_i_glide_einternal>
1.67827963829041

> <i_i_glide_confnum>
3

> <i_i_glide_posenum>
88

> <r_i_glide_eff_state_penalty>
0

> <s_user_duplicate_titles>
83488

> <s_m_subgroup_title>
dock_pv

> <s_m_subgroupid>
dock_pv1

> <b_m_subgroup_collapsed>
0

$$$$
267904
                    3D
 Schrodinger Suite 2021-1.
 33 35  0  0  1  0            999 V2000
   13.2064    9.5755   55.9763 C   0  0  0  0  0  0
   13.9511   10.6850   56.6991 C   0  0  0  0  0  0
   14.4739   11.7544   55.9724 C   0  0  0  0  0  0
   15.1659   12.7762   56.6166 C   0  0  0  0  0  0
   15.3641   12.7141   57.9942 C   0  0  0  0  0  0
   14.8896   11.6266   58.7346 C   0  0  0  0  0  0
   14.1563   10.6330   58.0814 C   0  0  0  0  0  0
   15.1728   11.5197   60.2339 C   0  0  0  0  0  0
   14.8724   12.7980   60.9956 C   0  0  0  0  0  0
   15.6323   13.4315   61.9657 C   0  0  0  0  0  0
   15.0200   14.5905   62.3849 N   0  0  0  0  0  0
   13.8301   14.7534   61.7016 C   0  0  0  0  0  0
   13.7100   13.6225   60.8429 C   0  0  0  0  0  0
   12.6584   13.4521   60.0416 N   0  0  0  0  0  0
   11.7259   14.4120   60.1159 C   0  0  0  0  0  0
   11.7540   15.5278   60.8736 N   0  0  0  0  0  0
   12.8151   15.7218   61.6933 C   0  0  0  0  0  0
   12.9549   16.8103   62.5055 O   0  0  0  0  0  0
   10.6319   14.2329   59.3006 N   0  0  0  0  0  0
   15.4245   15.1876   63.0920 H   0  0  0  0  0  0
   13.2835    8.6257   56.5056 H   0  0  0  0  0  0
   12.1542    9.8291   55.8516 H   0  0  0  0  0  0
   13.6324    9.4060   54.9858 H   0  0  0  0  0  0
   14.3293   11.8017   54.9061 H   0  0  0  0  0  0
   15.5452   13.6126   56.0484 H   0  0  0  0  0  0
   15.9016   13.5085   58.4900 H   0  0  0  0  0  0
   13.7547    9.8225   58.6600 H   0  0  0  0  0  0
   14.6003   10.6933   60.6586 H   0  0  0  0  0  0
   16.2221   11.2475   60.3557 H   0  0  0  0  0  0
   16.5826   13.1434   62.3934 H   0  0  0  0  0  0
   13.7535   16.7795   63.0322 H   0  0  0  0  0  0
   10.8945   13.8907   58.3896 H   0  0  0  0  0  0
    9.9518   14.9717   59.4355 H   0  0  0  0  0  0
  1  2  1  0  0  0
  1 21  1  0  0  0
  1 22  1  0  0  0
  1 23  1  0  0  0
  2  7  1  0  0  0
  2  3  2  0  0  0
  3  4  1  0  0  0
  3 24  1  0  0  0
  4  5  2  0  0  0
  4 25  1  0  0  0
  5  6  1  0  0  0
  5 26  1  0  0  0
  6  7  2  0  0  0
  6  8  1  0  0  0
  7 27  1  0  0  0
  8  9  1  0  0  0
  8 28  1  0  0  0
  8 29  1  0  0  0
  9 13  1  0  0  0
  9 10  2  0  0  0
 10 11  1  0  0  0
 10 30  1  0  0  0
 11 20  1  0  0  0
 11 12  1  0  0  0
 12 17  1  0  0  0
 12 13  2  0  0  0
 13 14  1  0  0  0
 14 15  2  0  0  0
 15 16  1  0  0  0
 15 19  1  0  0  0
 16 17  2  0  0  0
 17 18  1  0  0  0
 18 31  1  0  0  0
 19 32  1  0  0  0
 19 33  1  0  0  0
M  END
> <s_m_entry_id>
12254

> <s_m_entry_name>
ligand_docking-pose.168

> <s_m_Source_Path>
/home/csk/Desktop/cluster/DUD-E-result/pnph

> <s_m_Source_File>
ligand_docking-pose.sdf

> <i_m_Source_File_Index>
168

> <i_lp_mmshare_version>
53161

> <i_f3d_flags>
0

> <r_lp_tautomer_probability>
1

> <s_lp_Force_Field>
OPLS_2005

> <r_lp_Energy>
3.044331

> <b_lp_Chiralities_Consistent>
1

> <s_lp_Variant>
267904-1

> <s_i_glide_gridfile>
glide-grid_3bgs

> <i_i_glide_lignum>
309

> <i_i_glide_rotatable_bonds>
3

> <r_i_docking_score>
-6.88677872307709

> <r_i_glide_ligand_efficiency>
-0.362462038056689

> <r_i_glide_ligand_efficiency_sa>
-0.967194299000304

> <r_i_glide_ligand_efficiency_ln>
-1.74594632074456

> <r_i_glide_gscore>
-6.88677872307709

> <r_i_glide_lipo>
-2.85145721426324

> <r_i_glide_hbond>
-0.223631217729603

> <r_i_glide_metal>
0

> <r_i_glide_rewards>
-2.22456542226041

> <r_i_glide_evdw>
-37.9355239868164

> <r_i_glide_ecoul>
-1.26194775104523

> <r_i_glide_erotb>
0.543896464279414

> <r_i_glide_esite>
-0.0449529711056444

> <r_i_glide_emodel>
-53.3096336467498

> <r_i_glide_energy>
-39.1974717378616

> <r_i_glide_einternal>
0.92774909734726

> <i_i_glide_confnum>
2

> <i_i_glide_posenum>
30

> <r_i_glide_eff_state_penalty>
0

> <s_user_duplicate_titles>
267904

> <s_m_subgroup_title>
dock_pv

> <s_m_subgroupid>
dock_pv1

> <b_m_subgroup_collapsed>
0

$$$$
291188
                    3D
 Schrodinger Suite 2021-1.
 40 41  0  0  1  0            999 V2000
   15.3879   14.8024   62.6780 C   0  0  0  0  0  0
   14.5472   15.8093   62.6490 N   0  0  0  0  0  0
   13.6237   15.4331   61.7490 C   0  0  0  0  0  0
   13.8804   14.1806   61.2655 C   0  0  0  0  0  0
   15.0519   13.7930   61.8474 N   0  0  0  0  0  0
   15.7713   12.4936   61.5858 C   0  0  0  0  0  0
   16.2206   12.5070   60.2680 O   0  0  0  0  0  0
   16.5519   11.2226   59.7516 C   0  0  0  0  0  0
   15.3079   10.5066   59.1858 C   0  0  0  0  0  0
   14.6809   11.2383   57.9783 C   0  0  0  0  0  0
   13.4932   10.4982   57.3204 C   0  0  0  0  0  0
   13.8626    9.2338   56.5061 C   0  0  0  0  0  0
   14.6339    9.6599   54.9049 P   0  0  0  0  0  0
   15.7540   10.6329   54.9060 O   0  0  0  0  0  0
   14.9412    8.2330   54.1833 O   0  0  0  0  0  0
   13.3540   10.1790   54.1060 O   0  0  0  0  0  0
   13.1525   13.4738   60.3519 N   0  0  0  0  0  0
   12.1310   14.1209   59.9135 C   0  0  0  0  0  0
   11.7671   15.3678   60.3890 N   0  0  0  0  0  0
   12.4826   16.1699   61.2424 C   0  0  0  0  0  0
   12.1540   17.3319   61.4677 O   0  0  0  0  0  0
   11.4185   13.6183   58.9062 N   0  0  0  0  0  0
   16.2813   14.7445   63.2828 H   0  0  0  0  0  0
   15.0055   11.7497   61.8130 H   0  0  0  0  0  0
   16.5934   12.4986   62.3009 H   0  0  0  0  0  0
   17.0474   10.6079   60.5058 H   0  0  0  0  0  0
   17.2866   11.3600   58.9572 H   0  0  0  0  0  0
   14.5600   10.3872   59.9698 H   0  0  0  0  0  0
   15.5956    9.4947   58.9059 H   0  0  0  0  0  0
   15.4524   11.4486   57.2399 H   0  0  0  0  0  0
   14.3385   12.2196   58.3050 H   0  0  0  0  0  0
   12.9561   11.1930   56.6724 H   0  0  0  0  0  0
   12.7881   10.2331   58.1059 H   0  0  0  0  0  0
   12.9777    8.6270   56.3114 H   0  0  0  0  0  0
   14.5536    8.6250   57.0766 H   0  0  0  0  0  0
   14.2103    7.5720   54.1061 H   0  0  0  0  0  0
   12.5603    9.6137   54.1553 H   0  0  0  0  0  0
   10.8912   15.7576   60.0750 H   0  0  0  0  0  0
   11.7540   12.7467   58.5255 H   0  0  0  0  0  0
   10.9542   14.2566   58.2790 H   0  0  0  0  0  0
  1 23  1  0  0  0
  1  5  1  0  0  0
  1  2  2  0  0  0
  2  3  1  0  0  0
  3 20  1  0  0  0
  3  4  2  0  0  0
  4  5  1  0  0  0
  4 17  1  0  0  0
  5  6  1  0  0  0
  6  7  1  0  0  0
  6 24  1  0  0  0
  6 25  1  0  0  0
  7  8  1  0  0  0
  8  9  1  0  0  0
  8 26  1  0  0  0
  8 27  1  0  0  0
  9 10  1  0  0  0
  9 28  1  0  0  0
  9 29  1  0  0  0
 10 11  1  0  0  0
 10 30  1  0  0  0
 10 31  1  0  0  0
 11 12  1  0  0  0
 11 32  1  0  0  0
 11 33  1  0  0  0
 12 13  1  0  0  0
 12 34  1  0  0  0
 12 35  1  0  0  0
 13 14  2  0  0  0
 13 15  1  0  0  0
 13 16  1  0  0  0
 15 36  1  0  0  0
 16 37  1  0  0  0
 17 18  2  0  0  0
 18 22  1  0  0  0
 18 19  1  0  0  0
 19 38  1  0  0  0
 19 20  1  0  0  0
 20 21  2  0  0  0
 22 39  1  0  0  0
 22 40  1  0  0  0
M  END
> <s_m_entry_id>
12260

> <s_m_entry_name>
ligand_docking-pose.174

> <s_m_Source_Path>
/home/csk/Desktop/cluster/DUD-E-result/pnph

> <s_m_Source_File>
ligand_docking-pose.sdf

> <i_m_Source_File_Index>
174

> <i_lp_mmshare_version>
53161

> <i_f3d_flags>
0

> <r_lp_tautomer_probability>
0.999940409345307

> <s_lp_Force_Field>
OPLS_2005

> <r_lp_Energy>
-11.768157

> <b_lp_Chiralities_Consistent>
1

> <s_lp_Variant>
291188-1

> <s_i_glide_gridfile>
glide-grid_3bgs

> <i_i_glide_lignum>
298

> <i_i_glide_rotatable_bonds>
10

> <r_i_docking_score>
-6.81323870546987

> <r_i_glide_ligand_efficiency>
-0.309692668430449

> <r_i_glide_ligand_efficiency_sa>
-0.86777103646363

> <r_i_glide_ligand_efficiency_ln>
-1.66540405853694

> <r_i_glide_gscore>
-6.81323870546987

> <r_i_glide_lipo>
-1.30445501556426

> <r_i_glide_hbond>
-0.469456441749461

> <r_i_glide_metal>
0

> <r_i_glide_rewards>
-2.40613857181092

> <r_i_glide_evdw>
-31.9858646392822

> <r_i_glide_ecoul>
-15.5602140426636

> <r_i_glide_erotb>
1.37194462687445

> <r_i_glide_esite>
-0.0718079648560411

> <r_i_glide_emodel>
-62.6459303844583

> <r_i_glide_energy>
-47.5460786819458

> <r_i_glide_einternal>
3.20515394210815

> <i_i_glide_confnum>
125

> <i_i_glide_posenum>
307

> <r_i_glide_eff_state_penalty>
0

> <s_user_duplicate_titles>
291188

> <s_m_subgroup_title>
dock_pv

> <s_m_subgroupid>
dock_pv1

> <b_m_subgroup_collapsed>
0

$$$$
83384
                    3D
 Schrodinger Suite 2021-1.
 38 40  0  0  1  0            999 V2000
   15.7211   11.8866   55.9041 C   0  0  0  0  0  0
   15.3963   13.2256   56.5727 C   0  0  0  0  0  0
   14.8014   12.9954   57.9653 C   0  0  0  0  0  0
   13.5197   12.1283   57.8839 C   0  0  0  0  0  0
   13.8772   10.7617   57.2555 C   0  0  0  0  0  0
   14.5071   10.9331   55.8596 C   0  0  0  0  0  0
   12.8328   11.9420   59.2517 C   0  0  0  0  0  0
   12.6048   13.2547   59.9751 C   0  0  0  0  0  0
   13.4703   13.8347   60.9699 C   0  0  0  0  0  0
   12.9133   15.0758   61.3617 C   0  0  0  0  0  0
   13.5638   15.8563   62.3130 C   0  0  0  0  0  0
   14.7424   15.4220   62.8145 N   0  0  0  0  0  0
   15.2061   14.2312   62.3815 C   0  0  0  0  0  0
   14.6262   13.3991   61.4869 N   0  0  0  0  0  0
   16.4154   13.8307   62.9074 N   0  0  0  0  0  0
   12.9680   17.0330   62.6473 O   0  0  0  0  0  0
   11.7538   15.2308   60.6465 N   0  0  0  0  0  0
   11.5878   14.1801   59.7892 C   0  0  0  0  0  0
   10.5542   14.2327   58.9062 N   0  0  0  0  0  0
   11.0844   15.9835   60.6973 H   0  0  0  0  0  0
   16.5527   11.4263   56.4365 H   0  0  0  0  0  0
   16.0771   12.0890   54.9061 H   0  0  0  0  0  0
   16.2942   13.8328   56.6371 H   0  0  0  0  0  0
   14.6969   13.7856   55.9554 H   0  0  0  0  0  0
   15.5289   12.5332   58.6357 H   0  0  0  0  0  0
   14.5864   13.9628   58.4153 H   0  0  0  0  0  0
   12.8247   12.6342   57.2104 H   0  0  0  0  0  0
   12.9859   10.1362   57.1887 H   0  0  0  0  0  0
   14.5532   10.2118   57.9135 H   0  0  0  0  0  0
   14.8049    9.9637   55.4581 H   0  0  0  0  0  0
   13.7569   11.3278   55.1732 H   0  0  0  0  0  0
   11.8838   11.4328   59.0924 H   0  0  0  0  0  0
   13.4203   11.2661   59.8765 H   0  0  0  0  0  0
   16.6534   12.8642   62.7484 H   0  0  0  0  0  0
   16.7064   14.3226   63.7357 H   0  0  0  0  0  0
   13.5456   17.5611   63.2061 H   0  0  0  0  0  0
   10.7334   13.9656   57.9460 H   0  0  0  0  0  0
    9.7965   14.8800   59.0876 H   0  0  0  0  0  0
  1  6  1  0  0  0
  1  2  1  0  0  0
  1 21  1  0  0  0
  1 22  1  0  0  0
  2  3  1  0  0  0
  2 23  1  0  0  0
  2 24  1  0  0  0
  3  4  1  0  0  0
  3 25  1  0  0  0
  3 26  1  0  0  0
  4  5  1  0  0  0
  4  7  1  0  0  0
  4 27  1  0  0  0
  5  6  1  0  0  0
  5 28  1  0  0  0
  5 29  1  0  0  0
  6 30  1  0  0  0
  6 31  1  0  0  0
  7  8  1  0  0  0
  7 32  1  0  0  0
  7 33  1  0  0  0
  8 18  2  0  0  0
  8  9  1  0  0  0
  9 14  2  0  0  0
  9 10  1  0  0  0
 10 11  2  0  0  0
 10 17  1  0  0  0
 11 12  1  0  0  0
 11 16  1  0  0  0
 12 13  2  0  0  0
 13 14  1  0  0  0
 13 15  1  0  0  0
 15 34  1  0  0  0
 15 35  1  0  0  0
 16 36  1  0  0  0
 17 20  1  0  0  0
 17 18  1  0  0  0
 18 19  1  0  0  0
 19 37  1  0  0  0
 19 38  1  0  0  0
M  END
> <s_m_entry_id>
12262

> <s_m_entry_name>
ligand_docking-pose.176

> <s_m_Source_Path>
/home/csk/Desktop/cluster/DUD-E-result/pnph

> <s_m_Source_File>
ligand_docking-pose.sdf

> <i_m_Source_File_Index>
176

> <i_lp_mmshare_version>
53161

> <i_f3d_flags>
0

> <r_lp_tautomer_probability>
1

> <s_lp_Force_Field>
OPLS_2005

> <r_lp_Energy>
4.360757

> <b_lp_Chiralities_Consistent>
1

> <s_lp_Variant>
83384-1

> <s_i_glide_gridfile>
glide-grid_3bgs

> <i_i_glide_lignum>
140

> <i_i_glide_rotatable_bonds>
3

> <r_i_docking_score>
-6.79981456258862

> <r_i_glide_ligand_efficiency>
-0.357884976978349

> <r_i_glide_ligand_efficiency_sa>
-0.954980861684546

> <r_i_glide_ligand_efficiency_ln>
-1.72389903824183

> <r_i_glide_gscore>
-6.79981456258862

> <r_i_glide_lipo>
-2.76110448328995

> <r_i_glide_hbond>
-0.198653115935016

> <r_i_glide_metal>
0

> <r_i_glide_rewards>
-1.85248716615819

> <r_i_glide_evdw>
-34.310920715332

> <r_i_glide_ecoul>
-4.7207407951355

> <r_i_glide_erotb>
0.518947277929359

> <r_i_glide_esite>
-0.0828599200979059

> <r_i_glide_emodel>
-50.370126746142

> <r_i_glide_energy>
-39.0316615104675

> <r_i_glide_einternal>
2.46737289428711

> <i_i_glide_confnum>
4

> <i_i_glide_posenum>
185

> <r_i_glide_eff_state_penalty>
0

> <s_user_duplicate_titles>
83384

> <s_m_subgroup_title>
dock_pv

> <s_m_subgroupid>
dock_pv1

> <b_m_subgroup_collapsed>
0

$$$$
