CHEMBL2026_lig30
                    3D
 Schrodinger Suite 2021-1.
 42 44  0  0  1  0            999 V2000
   85.8032    4.6549   23.3248 C   0  0  0  0  0  0
   84.3125    4.7616   23.0445 C   0  0  0  0  0  0
   83.8987    5.0563   21.9230 O   0  0  0  0  0  0
   83.5631    4.5209   24.1416 O   0  0  0  0  0  0
   82.1413    4.5175   24.0857 C   0  0  0  0  0  0
   81.4657    5.0666   25.3519 C   0  0  0  0  0  0
   80.1964    4.7168   25.7306 C   0  0  0  0  0  0
   79.6091    5.1657   26.8903 N   0  0  0  0  0  0
   80.1880    6.1727   27.8190 C   0  0  2  0  0  0
   81.9711    5.8591   28.0009 S   0  0  0  0  0  0
   82.3160    6.0258   26.2154 C   0  0  0  0  0  0
   79.1616    5.7004   28.8836 C   0  0  2  0  0  0
   79.6682    5.1797   30.1593 N   0  0  0  0  0  0
   79.3862    5.6542   31.3841 C   0  0  0  0  0  0
   78.6966    6.6563   31.5861 O   0  0  0  0  0  0
   79.9488    4.8518   32.5617 C   0  0  0  0  0  0
   80.9547    5.6254   33.3875 C   0  0  0  0  0  0
   80.7748    6.2729   34.6105 C   0  0  0  0  0  0
   81.9223    6.8932   35.1096 C   0  0  0  0  0  0
   83.0128    6.7388   34.2719 C   0  0  0  0  0  0
   82.6129    5.8086   32.8676 S   0  0  0  0  0  0
   78.8518    4.5501   27.8925 C   0  0  0  0  0  0
   78.2972    3.4568   27.9768 O   0  0  0  0  0  0
   79.3812    3.8189   24.9139 C   0  0  0  0  0  0
   79.6849    2.6613   24.6270 O   0  0  0  0  0  0
   78.2154    4.3926   24.5025 O   0  0  0  0  0  0
   80.0608    7.1995   27.4698 H   0  0  0  0  0  0
   86.1327    3.6277   23.1724 H   0  0  0  0  0  0
   86.3641    5.3035   22.6526 H   0  0  0  0  0  0
   86.0261    4.9398   24.3527 H   0  0  0  0  0  0
   81.8581    3.4734   23.9756 H   0  0  0  0  0  0
   81.7604    5.0578   23.2171 H   0  0  0  0  0  0
   83.3854    5.8421   26.1313 H   0  0  0  0  0  0
   82.1455    7.0608   25.9174 H   0  0  0  0  0  0
   78.3168    6.3676   29.0730 H   0  0  0  0  0  0
   80.3073    4.3989   30.0939 H   0  0  0  0  0  0
   80.3807    3.9127   32.2124 H   0  0  0  0  0  0
   79.1016    4.5543   33.1777 H   0  0  0  0  0  0
   79.8298    6.2909   35.1330 H   0  0  0  0  0  0
   81.9501    7.4364   36.0437 H   0  0  0  0  0  0
   84.0130    7.1187   34.4143 H   0  0  0  0  0  0
   77.6988    3.7759   23.9744 H   0  0  0  0  0  0
  1  2  1  0  0  0
  1 28  1  0  0  0
  1 29  1  0  0  0
  1 30  1  0  0  0
  2  3  2  0  0  0
  2  4  1  0  0  0
  4  5  1  0  0  0
  5  6  1  0  0  0
  5 31  1  0  0  0
  5 32  1  0  0  0
  6  7  2  0  0  0
  6 11  1  0  0  0
  7  8  1  0  0  0
  7 24  1  0  0  0
  8  9  1  0  0  0
  8 22  1  0  0  0
  9 10  1  0  0  0
  9 12  1  0  0  0
  9 27  1  0  0  0
 10 11  1  0  0  0
 11 33  1  0  0  0
 11 34  1  0  0  0
 12 13  1  0  0  0
 12 22  1  0  0  0
 12 35  1  0  0  0
 13 14  1  0  0  0
 13 36  1  0  0  0
 14 15  2  0  0  0
 14 16  1  0  0  0
 16 17  1  0  0  0
 16 37  1  0  0  0
 16 38  1  0  0  0
 17 18  2  0  0  0
 17 21  1  0  0  0
 18 19  1  0  0  0
 18 39  1  0  0  0
 19 20  2  0  0  0
 19 40  1  0  0  0
 20 21  1  0  0  0
 20 41  1  0  0  0
 22 23  2  0  0  0
 24 25  2  0  0  0
 24 26  1  0  0  0
 26 42  1  0  0  0
M  END
> <s_m_entry_id>
7411

> <s_m_entry_name>
dock_pv.2

> <s_m_Source_Path>
/home/csk/Desktop/cluster/DUD-E-result/ampc

> <s_m_Source_File>
dock_pv.maegz

> <i_m_Source_File_Index>
2

> <chembl_id>
CHEMBL1632

> <chembl_pref_name>
CEPHALOTHIN SODIUM

> <i_lp_mmshare_version>
53161

> <i_f3d_flags>
0

> <r_lp_tautomer_probability>
1

> <s_lp_Force_Field>
OPLS_2005

> <r_lp_Energy>
12.674511

> <b_lp_Chiralities_Consistent>
1

> <s_lp_Variant>
CHEMBL2026_lig30-1

> <s_i_glide_gridfile>
glide-grid_1l2s

> <i_i_glide_lignum>
44

> <i_i_glide_rotatable_bonds>
9

> <r_i_docking_score>
-8.72084526588783

> <r_i_glide_ligand_efficiency>
-0.33541712561107

> <r_i_glide_ligand_efficiency_sa>
-0.993671914820137

> <r_i_glide_ligand_efficiency_ln>
-2.04806189526646

> <r_i_glide_gscore>
-8.72084526588783

> <r_i_glide_lipo>
-1.42296803660321

> <r_i_glide_hbond>
-1.74796746166495

> <r_i_glide_metal>
0

> <r_i_glide_rewards>
-1.81631340091726

> <r_i_glide_evdw>
-42.4577980041504

> <r_i_glide_ecoul>
-15.4013586044312

> <r_i_glide_erotb>
0.746918164909918

> <r_i_glide_esite>
-0.0474208407401338

> <r_i_glide_emodel>
-85.0104070494738

> <r_i_glide_energy>
-57.8591566085815

> <r_i_glide_einternal>
2.90961194038391

> <i_i_glide_confnum>
115

> <i_i_glide_posenum>
128

> <r_i_glide_eff_state_penalty>
0

> <s_user_duplicate_titles>
CHEMBL2026_lig30

> <s_m_subgroup_title>
dock_pv

> <s_m_subgroupid>
dock_pv

> <b_m_subgroup_collapsed>
0

$$$$
CHEMBL2026_lig6
                    3D
 Schrodinger Suite 2021-1.
 44 47  0  0  1  0            999 V2000
   81.2237    7.3677   36.9094 C   0  0  0  0  0  0
   82.2069    6.3573   36.9314 C   0  0  0  0  0  0
   82.3399    5.4567   35.8677 C   0  0  0  0  0  0
   80.3661    7.4512   35.7951 C   0  0  0  0  0  0
   80.5133    6.5315   34.7534 C   0  0  0  0  0  0
   81.4708    5.5655   34.7828 C   0  0  0  0  0  0
   81.3705    4.7898   33.5166 C   0  0  0  0  0  0
   80.3366    5.3341   32.8123 N   0  0  0  0  0  0
   79.7742    6.3744   33.4809 C   0  0  0  0  0  0
   78.8465    7.0567   33.0871 O   0  0  0  0  0  0
   82.0897    3.8568   33.1762 O   0  0  0  0  0  0
   79.9997    4.9367   31.3990 C   0  0  1  0  0  0
   81.0742    8.3429   38.0574 C   0  0  0  0  0  0
   82.0301    8.2547   39.0265 O   0  0  0  0  0  0
   80.1627    9.1651   38.1060 O   0  0  0  0  0  0
   78.4742    4.6475   31.1742 C   0  0  0  0  0  0
   80.5872    5.9558   30.3556 C   0  0  0  0  0  0
   78.2972    3.4567   30.5321 O   0  0  0  0  0  0
   77.5629    5.4066   31.4266 O   0  0  0  0  0  0
   79.8346    6.0845   29.0266 C   0  0  0  0  0  0
   79.9529    5.0813   28.0669 C   0  0  0  0  0  0
   78.9744    7.1608   28.8033 C   0  0  0  0  0  0
   78.2119    7.2369   27.6400 C   0  0  0  0  0  0
   78.2856    6.2094   26.6671 C   0  0  0  0  0  0
   79.1725    5.1111   26.8838 C   0  0  0  0  0  0
   79.2347    4.0771   25.9162 C   0  0  0  0  0  0
   78.4385    4.1279   24.7762 C   0  0  0  0  0  0
   77.5785    5.1986   24.5630 C   0  0  0  0  0  0
   77.4972    6.2344   25.4891 C   0  0  0  0  0  0
   82.8790    6.2630   37.7720 H   0  0  0  0  0  0
   83.1052    4.6952   35.8991 H   0  0  0  0  0  0
   79.5946    8.2101   35.7446 H   0  0  0  0  0  0
   80.4933    3.9806   31.2172 H   0  0  0  0  0  0
   81.8941    8.9247   39.7040 H   0  0  0  0  0  0
   80.6615    6.9539   30.7912 H   0  0  0  0  0  0
   81.6229    5.6882   30.1397 H   0  0  0  0  0  0
   79.1325    2.9909   30.3761 H   0  0  0  0  0  0
   80.6209    4.2567   28.2502 H   0  0  0  0  0  0
   78.8712    7.9351   29.5497 H   0  0  0  0  0  0
   77.5432    8.0717   27.4853 H   0  0  0  0  0  0
   79.8972    3.2400   26.0680 H   0  0  0  0  0  0
   78.4852    3.3309   24.0481 H   0  0  0  0  0  0
   76.9681    5.2259   23.6718 H   0  0  0  0  0  0
   76.8197    7.0564   25.3141 H   0  0  0  0  0  0
  1 13  1  0  0  0
  1  4  1  0  0  0
  1  2  2  0  0  0
  2  3  1  0  0  0
  2 30  1  0  0  0
  3  6  2  0  0  0
  3 31  1  0  0  0
  4  5  2  0  0  0
  4 32  1  0  0  0
  5  9  1  0  0  0
  5  6  1  0  0  0
  6  7  1  0  0  0
  7  8  1  0  0  0
  7 11  2  0  0  0
  8  9  1  0  0  0
  8 12  1  0  0  0
  9 10  2  0  0  0
 12 16  1  0  0  0
 12 17  1  0  0  0
 12 33  1  0  0  0
 13 14  1  0  0  0
 13 15  2  0  0  0
 14 34  1  0  0  0
 16 18  1  0  0  0
 16 19  2  0  0  0
 17 20  1  0  0  0
 17 35  1  0  0  0
 17 36  1  0  0  0
 18 37  1  0  0  0
 20 21  2  0  0  0
 20 22  1  0  0  0
 21 25  1  0  0  0
 21 38  1  0  0  0
 22 23  2  0  0  0
 22 39  1  0  0  0
 23 24  1  0  0  0
 23 40  1  0  0  0
 24 25  1  0  0  0
 24 29  2  0  0  0
 25 26  2  0  0  0
 26 27  1  0  0  0
 26 41  1  0  0  0
 27 28  2  0  0  0
 27 42  1  0  0  0
 28 29  1  0  0  0
 28 43  1  0  0  0
 29 44  1  0  0  0
M  END
> <s_m_entry_id>
7412

> <s_m_entry_name>
dock_pv.3

> <s_m_Source_Path>
/home/csk/Desktop/cluster/DUD-E-result/ampc

> <s_m_Source_File>
dock_pv.maegz

> <i_m_Source_File_Index>
3

> <chembl_id>
CHEMBL428611

> <chembl_pref_name>
None

> <i_lp_mmshare_version>
53161

> <i_f3d_flags>
0

> <r_lp_tautomer_probability>
1

> <s_lp_Force_Field>
OPLS_2005

> <r_lp_Energy>
40.252937

> <b_lp_Chiralities_Consistent>
1

> <s_lp_Variant>
CHEMBL2026_lig6-1

> <s_i_glide_gridfile>
glide-grid_1l2s

> <i_i_glide_lignum>
6

> <i_i_glide_rotatable_bonds>
7

> <r_i_docking_score>
-7.73076370508254

> <r_i_glide_ligand_efficiency>
-0.26657805879595

> <r_i_glide_ligand_efficiency_sa>
-0.819012254478182

> <r_i_glide_ligand_efficiency_ln>
-1.77014885321073

> <r_i_glide_gscore>
-7.73076370508254

> <r_i_glide_lipo>
-2.20260406974586

> <r_i_glide_hbond>
-0.494071624593803

> <r_i_glide_metal>
0

> <r_i_glide_rewards>
-1.52352281930791

> <r_i_glide_evdw>
-39.6009407043457

> <r_i_glide_ecoul>
-14.4238367080688

> <r_i_glide_erotb>
0.642926156725193

> <r_i_glide_esite>
-0.00986880673254682

> <r_i_glide_emodel>
-77.3264329435089

> <r_i_glide_energy>
-54.0247774124146

> <r_i_glide_einternal>
4.9145827293396

> <i_i_glide_confnum>
12

> <i_i_glide_posenum>
334

> <r_i_glide_eff_state_penalty>
0

> <s_user_duplicate_titles>
CHEMBL2026_lig6

> <s_m_subgroup_title>
dock_pv

> <s_m_subgroupid>
dock_pv

> <b_m_subgroup_collapsed>
0

$$$$
CHEMBL2026_lig39
                    3D
 Schrodinger Suite 2021-1.
 44 46  0  0  1  0            999 V2000
   80.2383    5.6223   33.2865 N   0  0  0  0  0  0
   81.0874    4.6553   32.5441 C   0  0  1  0  0  0
   79.3495    5.8118   32.2275 C   0  0  0  0  0  0
   80.0096    4.6694   31.4305 C   0  0  1  0  0  0
   80.9181    6.6506   34.0813 C   0  0  2  0  0  0
   82.7158    5.4599   32.4307 S   0  0  0  0  0  0
   82.2304    6.9972   33.2770 C   0  0  0  0  0  0
   80.3966    5.0566   30.0694 N   0  0  0  0  0  0
   79.5390    5.0571   29.0273 C   0  0  0  0  0  0
   81.1940    6.2008   35.5330 C   0  0  0  0  0  0
   80.0632    5.6458   27.6834 C   0  0  1  0  0  0
   78.4957    6.6569   31.9761 O   0  0  0  0  0  0
   78.3859    4.6149   29.1119 O   0  0  0  0  0  0
   79.0579    5.4994   26.5602 C   0  0  0  0  0  0
   81.1067    7.2581   36.3905 O   0  0  0  0  0  0
   81.4454    5.0576   35.8509 O   0  0  0  0  0  0
   78.1206    6.5097   26.3105 C   0  0  0  0  0  0
   79.0315    4.3310   25.7885 C   0  0  0  0  0  0
   80.5662    7.0162   27.9430 N   0  0  0  0  0  0
   81.8975    8.0078   32.1509 C   0  0  0  0  0  0
   83.4037    7.6311   34.0660 C   0  0  0  0  0  0
   77.1522    5.1917   24.5503 C   0  0  0  0  0  0
   77.1699    6.3505   25.3093 C   0  0  0  0  0  0
   78.0810    4.1788   24.7814 C   0  0  0  0  0  0
   76.2050    5.0565   23.5757 O   0  0  0  0  0  0
   81.2080    3.7150   33.0860 H   0  0  0  0  0  0
   79.4134    3.7563   31.3564 H   0  0  0  0  0  0
   80.2433    7.5068   34.1413 H   0  0  0  0  0  0
   81.3420    5.3850   29.9403 H   0  0  0  0  0  0
   80.9430    5.0564   27.4205 H   0  0  0  0  0  0
   80.8646    8.0831   35.9677 H   0  0  0  0  0  0
   78.1187    7.4165   26.8967 H   0  0  0  0  0  0
   79.7434    3.5396   25.9718 H   0  0  0  0  0  0
   79.8378    7.6224   28.2941 H   0  0  0  0  0  0
   81.3217    7.0413   28.6113 H   0  0  0  0  0  0
   81.5033    8.9369   32.5651 H   0  0  0  0  0  0
   82.7822    8.2681   31.5676 H   0  0  0  0  0  0
   81.1639    7.6403   31.4367 H   0  0  0  0  0  0
   83.1063    8.5604   34.5537 H   0  0  0  0  0  0
   83.7779    6.9597   34.8394 H   0  0  0  0  0  0
   84.2511    7.8571   33.4175 H   0  0  0  0  0  0
   76.4442    7.1256   25.1173 H   0  0  0  0  0  0
   78.0643    3.2728   24.1949 H   0  0  0  0  0  0
   76.2969    4.1981   23.1349 H   0  0  0  0  0  0
  1  2  1  0  0  0
  1  3  1  0  0  0
  1  5  1  0  0  0
  2  6  1  0  0  0
  2 26  1  0  0  0
  2  4  1  0  0  0
  3  4  1  0  0  0
  3 12  2  0  0  0
  4  8  1  0  0  0
  4 27  1  0  0  0
  5  7  1  0  0  0
  5 10  1  0  0  0
  5 28  1  0  0  0
  6  7  1  0  0  0
  7 20  1  0  0  0
  7 21  1  0  0  0
  8  9  1  0  0  0
  8 29  1  0  0  0
  9 11  1  0  0  0
  9 13  2  0  0  0
 10 15  1  0  0  0
 10 16  2  0  0  0
 11 14  1  0  0  0
 11 19  1  0  0  0
 11 30  1  0  0  0
 14 17  2  0  0  0
 14 18  1  0  0  0
 15 31  1  0  0  0
 17 23  1  0  0  0
 17 32  1  0  0  0
 18 24  2  0  0  0
 18 33  1  0  0  0
 19 34  1  0  0  0
 19 35  1  0  0  0
 20 36  1  0  0  0
 20 37  1  0  0  0
 20 38  1  0  0  0
 21 39  1  0  0  0
 21 40  1  0  0  0
 21 41  1  0  0  0
 22 24  1  0  0  0
 22 25  1  0  0  0
 22 23  2  0  0  0
 23 42  1  0  0  0
 24 43  1  0  0  0
 25 44  1  0  0  0
M  END
> <s_m_entry_id>
7413

> <s_m_entry_name>
dock_pv.4

> <s_m_Source_Path>
/home/csk/Desktop/cluster/DUD-E-result/ampc

> <s_m_Source_File>
dock_pv.maegz

> <i_m_Source_File_Index>
4

> <chembl_id>
CHEMBL1082

> <chembl_pref_name>
AMOXICILLIN

> <i_lp_mmshare_version>
53161

> <i_f3d_flags>
0

> <r_lp_tautomer_probability>
0.999999999997365

> <s_lp_Force_Field>
OPLS_2005

> <r_lp_Energy>
11.568731

> <b_lp_Chiralities_Consistent>
1

> <s_lp_Variant>
CHEMBL2026_lig39-1

> <s_i_glide_gridfile>
glide-grid_1l2s

> <i_i_glide_lignum>
54

> <i_i_glide_rotatable_bonds>
7

> <r_i_docking_score>
-7.60621370884429

> <r_i_glide_ligand_efficiency>
-0.304248548353772

> <r_i_glide_ligand_efficiency_sa>
-0.889628151257409

> <r_i_glide_ligand_efficiency_ln>
-1.80290058882734

> <r_i_glide_gscore>
-7.60621370884429

> <r_i_glide_lipo>
-1.82265977686023

> <r_i_glide_hbond>
-1.2284022769342

> <r_i_glide_metal>
0

> <r_i_glide_rewards>
-1.36075455124907

> <r_i_glide_evdw>
-36.4372482299805

> <r_i_glide_ecoul>
-13.8278894424438

> <r_i_glide_erotb>
0.720327870858845

> <r_i_glide_esite>
-0.0186791467940326

> <r_i_glide_emodel>
-72.6168873372342

> <r_i_glide_energy>
-50.2651376724243

> <r_i_glide_einternal>
2.9564323425293

> <i_i_glide_confnum>
14

> <i_i_glide_posenum>
383

> <r_i_glide_eff_state_penalty>
0

> <s_user_duplicate_titles>
CHEMBL2026_lig39

> <s_m_subgroup_title>
dock_pv

> <s_m_subgroupid>
dock_pv

> <b_m_subgroup_collapsed>
0

$$$$
CHEMBL2026_lig49
                    3D
 Schrodinger Suite 2021-1.
 44 46  0  0  1  0            999 V2000
   80.4905    5.6484   26.3255 O   0  0  0  0  0  0
   78.2974    3.4567   27.9758 O   0  0  0  0  0  0
   78.6972    6.6565   31.7838 O   0  0  0  0  0  0
   78.7090    5.6943   28.4137 N   0  0  0  0  0  0
   80.1412    5.1267   30.9383 N   0  0  0  0  0  0
   79.3669    6.9065   28.0389 C   0  0  0  0  0  0
   80.2999    6.8426   26.9886 C   0  0  0  0  0  0
   78.6974    4.5726   27.6273 C   0  0  0  0  0  0
   79.2639    4.9097   26.2058 C   0  0  2  0  0  0
   78.0322    5.6120   29.7416 C   0  0  0  0  0  0
   79.2005    8.1328   28.7012 C   0  0  0  0  0  0
   81.0691    7.9422   26.6199 C   0  0  0  0  0  0
   78.9990    5.8339   30.9178 C   0  0  0  0  0  0
   79.9748    9.2360   28.3420 C   0  0  0  0  0  0
   80.9071    9.1435   27.3074 C   0  0  0  0  0  0
   79.4693    3.6708   25.3161 C   0  0  0  0  0  0
   81.1911    5.2899   31.9425 C   0  0  0  0  0  0
   81.9140    4.9158   34.3751 C   0  0  0  0  0  0
   80.8895    4.6015   33.2898 C   0  0  0  0  0  0
   83.2695    4.6437   34.1628 C   0  0  0  0  0  0
   81.4956    5.4569   35.5948 C   0  0  0  0  0  0
   84.2001    4.9085   35.1635 C   0  0  0  0  0  0
   82.4258    5.7202   36.5970 C   0  0  0  0  0  0
   83.7736    5.4461   36.3755 C   0  0  0  0  0  0
   80.3005    4.4322   30.2213 H   0  0  0  0  0  0
   78.5085    5.5397   25.7268 H   0  0  0  0  0  0
   77.4967    4.6779   29.9108 H   0  0  0  0  0  0
   77.2761    6.3975   29.7718 H   0  0  0  0  0  0
   78.4910    8.2472   29.5075 H   0  0  0  0  0  0
   81.7840    7.8630   25.8150 H   0  0  0  0  0  0
   79.8527   10.1677   28.8716 H   0  0  0  0  0  0
   81.4990   10.0053   27.0346 H   0  0  0  0  0  0
   78.5710    3.0581   25.2413 H   0  0  0  0  0  0
   79.7304    3.9756   24.3027 H   0  0  0  0  0  0
   80.2897    3.0567   25.6786 H   0  0  0  0  0  0
   81.3670    6.3541   32.1218 H   0  0  0  0  0  0
   82.1481    4.9527   31.5440 H   0  0  0  0  0  0
   80.8381    3.5204   33.1546 H   0  0  0  0  0  0
   79.8980    4.9013   33.6347 H   0  0  0  0  0  0
   83.6036    4.2289   33.2245 H   0  0  0  0  0  0
   80.4507    5.6702   35.7727 H   0  0  0  0  0  0
   85.2472    4.7008   35.0024 H   0  0  0  0  0  0
   82.1020    6.1354   37.5408 H   0  0  0  0  0  0
   84.4956    5.6577   37.1510 H   0  0  0  0  0  0
  1  7  1  0  0  0
  1  9  1  0  0  0
  2  8  2  0  0  0
  3 13  2  0  0  0
  4  6  1  0  0  0
  4  8  1  0  0  0
  4 10  1  0  0  0
  5 13  1  0  0  0
  5 17  1  0  0  0
  5 25  1  0  0  0
  6  7  1  0  0  0
  6 11  2  0  0  0
  7 12  2  0  0  0
  8  9  1  0  0  0
  9 16  1  0  0  0
  9 26  1  0  0  0
 10 13  1  0  0  0
 10 27  1  0  0  0
 10 28  1  0  0  0
 11 14  1  0  0  0
 11 29  1  0  0  0
 12 15  1  0  0  0
 12 30  1  0  0  0
 14 15  2  0  0  0
 14 31  1  0  0  0
 15 32  1  0  0  0
 16 33  1  0  0  0
 16 34  1  0  0  0
 16 35  1  0  0  0
 17 19  1  0  0  0
 17 36  1  0  0  0
 17 37  1  0  0  0
 18 19  1  0  0  0
 18 20  2  0  0  0
 18 21  1  0  0  0
 19 38  1  0  0  0
 19 39  1  0  0  0
 20 22  1  0  0  0
 20 40  1  0  0  0
 21 23  2  0  0  0
 21 41  1  0  0  0
 22 24  2  0  0  0
 22 42  1  0  0  0
 23 24  1  0  0  0
 23 43  1  0  0  0
 24 44  1  0  0  0
M  END
> <s_m_entry_id>
7414

> <s_m_entry_name>
dock_pv.5

> <s_m_Source_Path>
/home/csk/Desktop/cluster/DUD-E-result/ampc

> <s_m_Source_File>
dock_pv.maegz

> <i_m_Source_File_Index>
5

> <chembl_id>
CHEMBL1562680

> <chembl_pref_name>
None

> <i_lp_mmshare_version>
53161

> <i_f3d_flags>
0

> <r_lp_tautomer_probability>
1

> <s_lp_Force_Field>
OPLS_2005

> <r_lp_Energy>
22.918956

> <b_lp_Chiralities_Consistent>
1

> <s_lp_Variant>
CHEMBL2026_lig49-1

> <s_i_glide_gridfile>
glide-grid_1l2s

> <i_i_glide_lignum>
83

> <i_i_glide_rotatable_bonds>
6

> <r_i_docking_score>
-7.49279739278717

> <r_i_glide_ligand_efficiency>
-0.312199891366132

> <r_i_glide_ligand_efficiency_sa>
-0.900540317391659

> <r_i_glide_ligand_efficiency_ln>
-1.79337023816258

> <r_i_glide_gscore>
-7.49279739278717

> <r_i_glide_lipo>
-1.85895507194355

> <r_i_glide_hbond>
-1.52767492232527

> <r_i_glide_metal>
0

> <r_i_glide_rewards>
-1.78842921948527

> <r_i_glide_evdw>
-33.4062232971191

> <r_i_glide_ecoul>
-9.97262001037598

> <r_i_glide_erotb>
0.889901610632714

> <r_i_glide_esite>
-0.0414356232534479

> <r_i_glide_emodel>
-59.7531115772221

> <r_i_glide_energy>
-43.3788433074951

> <r_i_glide_einternal>
8.82752704620361

> <i_i_glide_confnum>
16

> <i_i_glide_posenum>
206

> <r_i_glide_eff_state_penalty>
0

> <s_user_duplicate_titles>
CHEMBL2026_lig49

> <s_m_subgroup_title>
dock_pv

> <s_m_subgroupid>
dock_pv

> <b_m_subgroup_collapsed>
0

$$$$
CHEMBL2026_lig43
                    3D
 Schrodinger Suite 2021-1.
 38 40  0  0  1  0            999 V2000
   81.2577    7.0658   27.0882 S   0  0  0  0  0  0
   83.4953    5.5892   31.9039 S   0  0  0  0  0  0
   78.2987    3.5692   28.0758 O   0  0  0  0  0  0
   78.4115    6.6565   31.3050 O   0  0  0  0  0  0
   77.8293    4.2069   24.3781 O   0  0  0  0  0  0
   79.4974    2.6567   24.3762 O   0  0  0  0  0  0
   81.3762    5.5205   33.9151 O   0  0  0  0  0  0
   79.2125    5.2432   26.5933 N   0  0  0  0  0  0
   79.7815    5.9299   29.6539 N   0  0  0  0  0  0
   80.3168    5.5982   32.9967 N   0  0  0  0  0  0
   83.6869    7.3469   30.0390 N   0  0  0  0  0  0
   85.7215    6.2684   30.5512 N   0  0  0  0  0  0
   79.4879    6.5785   27.1796 C   0  0  1  0  0  0
   78.8734    6.0452   28.5089 C   0  0  1  0  0  0
   78.6972    4.6954   27.7683 C   0  0  0  0  0  0
   79.8260    4.7003   25.5150 C   0  0  0  0  0  0
   79.5181    6.2467   30.9377 C   0  0  0  0  0  0
   81.0995    4.9795   25.1694 C   0  0  0  0  0  0
   79.0681    3.7520   24.7242 C   0  0  0  0  0  0
   80.6604    6.0531   31.8485 C   0  0  0  0  0  0
   82.0556    5.8416   25.9803 C   0  0  0  0  0  0
   82.0308    6.3861   31.3655 C   0  0  0  0  0  0
   82.4143    7.3076   30.3786 C   0  0  0  0  0  0
   84.3885    6.4909   30.7279 C   0  0  0  0  0  0
   80.8553    5.1801   35.1868 C   0  0  0  0  0  0
   78.9168    7.3674   26.6848 H   0  0  0  0  0  0
   80.7140    5.6019   29.4443 H   0  0  0  0  0  0
   86.2440    6.7848   29.8590 H   0  0  0  0  0  0
   86.1964    5.5115   31.0171 H   0  0  0  0  0  0
   77.9421    6.5195   28.8292 H   0  0  0  0  0  0
   81.5275    4.4551   24.3238 H   0  0  0  0  0  0
   82.6804    5.2033   26.6064 H   0  0  0  0  0  0
   82.7228    6.3967   25.3202 H   0  0  0  0  0  0
   81.7379    7.9731   29.8606 H   0  0  0  0  0  0
   81.6764    5.0575   35.8920 H   0  0  0  0  0  0
   80.2083    5.9684   35.5747 H   0  0  0  0  0  0
   80.3001    4.2417   35.1584 H   0  0  0  0  0  0
   77.3787    3.5695   23.8099 H   0  0  0  0  0  0
  1 13  1  0  0  0
  1 21  1  0  0  0
  2 22  1  0  0  0
  2 24  1  0  0  0
  3 15  2  0  0  0
  4 17  2  0  0  0
  5 19  1  0  0  0
  5 38  1  0  0  0
  6 19  2  0  0  0
  7 10  1  0  0  0
  7 25  1  0  0  0
  8 13  1  0  0  0
  8 15  1  0  0  0
  8 16  1  0  0  0
  9 14  1  0  0  0
  9 17  1  0  0  0
  9 27  1  0  0  0
 10 20  2  0  0  0
 11 23  1  0  0  0
 11 24  2  0  0  0
 12 24  1  0  0  0
 12 28  1  0  0  0
 12 29  1  0  0  0
 13 14  1  0  0  0
 13 26  1  0  0  0
 14 15  1  0  0  0
 14 30  1  0  0  0
 16 18  2  0  0  0
 16 19  1  0  0  0
 17 20  1  0  0  0
 18 21  1  0  0  0
 18 31  1  0  0  0
 20 22  1  0  0  0
 21 32  1  0  0  0
 21 33  1  0  0  0
 22 23  2  0  0  0
 23 34  1  0  0  0
 25 35  1  0  0  0
 25 36  1  0  0  0
 25 37  1  0  0  0
M  END
> <s_m_entry_id>
7415

> <s_m_entry_name>
dock_pv.6

> <s_m_Source_Path>
/home/csk/Desktop/cluster/DUD-E-result/ampc

> <s_m_Source_File>
dock_pv.maegz

> <i_m_Source_File_Index>
6

> <chembl_id>
CHEMBL1994463

> <chembl_pref_name>
None

> <i_lp_mmshare_version>
53161

> <i_f3d_flags>
0

> <r_lp_tautomer_probability>
1

> <s_lp_Force_Field>
OPLS_2005

> <r_lp_Energy>
18.752319

> <b_lp_Chiralities_Consistent>
1

> <s_lp_Variant>
CHEMBL2026_lig43-1

> <s_i_glide_gridfile>
glide-grid_1l2s

> <i_i_glide_lignum>
61

> <i_i_glide_rotatable_bonds>
7

> <r_i_docking_score>
-7.40984240312217

> <r_i_glide_ligand_efficiency>
-0.296393696124887

> <r_i_glide_ligand_efficiency_sa>
-0.866660424033752

> <r_i_glide_ligand_efficiency_ln>
-1.75635470459803

> <r_i_glide_gscore>
-7.40984240312217

> <r_i_glide_lipo>
-1.06368331979448

> <r_i_glide_hbond>
-1.52189229425481

> <r_i_glide_metal>
0

> <r_i_glide_rewards>
-1.86346616891306

> <r_i_glide_evdw>
-37.2800369262695

> <r_i_glide_ecoul>
-12.3096084594727

> <r_i_glide_erotb>
0.793138058717924

> <r_i_glide_esite>
-0.0434955636433656

> <r_i_glide_emodel>
-69.5827226645864

> <r_i_glide_energy>
-49.5896453857422

> <r_i_glide_einternal>
3.39418816566467

> <i_i_glide_confnum>
208

> <i_i_glide_posenum>
275

> <r_i_glide_eff_state_penalty>
0

> <s_user_duplicate_titles>
CHEMBL2026_lig43

> <s_m_subgroup_title>
dock_pv

> <s_m_subgroupid>
dock_pv

> <b_m_subgroup_collapsed>
0

$$$$
CHEMBL2026_lig2
                    3D
 Schrodinger Suite 2021-1.
 44 46  0  0  1  0            999 V2000
   78.2970    6.5470   31.5761 O   0  0  0  0  0  0
   82.5125    5.0548   30.5783 O   0  0  0  0  0  0
   78.3589    3.4567   28.3772 O   0  0  0  0  0  0
   77.5565    4.5381   30.1829 O   0  0  0  0  0  0
   81.3978    7.5622   37.4014 O   0  0  0  0  0  0
   79.7857    8.8187   36.3762 O   0  0  0  0  0  0
   80.2486    5.5311   30.8098 N   0  0  0  0  0  0
   80.3148    6.4471   32.8947 C   0  0  0  0  0  0
   81.5719    6.0034   32.6057 C   0  0  0  0  0  0
   79.4649    6.1911   31.7135 C   0  0  0  0  0  0
   81.5481    5.4579   31.2265 C   0  0  0  0  0  0
   79.8715    5.0685   29.4296 C   0  0  2  0  0  0
   80.0189    7.0566   34.1123 C   0  0  0  0  0  0
   82.6086    6.1410   33.5268 C   0  0  0  0  0  0
   81.0415    7.2214   35.0584 C   0  0  0  0  0  0
   80.1124    6.1959   28.3735 C   0  0  0  0  0  0
   78.5325    4.2573   29.2762 C   0  0  0  0  0  0
   82.3325    6.7400   34.7618 C   0  0  0  0  0  0
   79.3666    6.0676   27.0435 C   0  0  0  0  0  0
   80.7620    7.8621   36.3926 C   0  0  0  0  0  0
   78.1702    6.7637   26.7933 C   0  0  0  0  0  0
   79.8738    5.1972   26.0713 C   0  0  0  0  0  0
   77.4994    6.5545   25.5855 C   0  0  0  0  0  0
   78.0026    5.6805   24.6240 C   0  0  0  0  0  0
   79.1951    4.9995   24.8701 C   0  0  0  0  0  0
   77.5884    7.7472   27.8045 C   0  0  0  0  0  0
   77.2606    5.5078   23.3144 C   0  0  0  0  0  0
   77.8061    5.2617   30.7754 H   0  0  0  0  0  0
   79.4599    9.0238   35.4952 H   0  0  0  0  0  0
   80.5762    4.2711   29.1794 H   0  0  0  0  0  0
   79.0083    7.3889   34.3194 H   0  0  0  0  0  0
   83.6101    5.7996   33.3046 H   0  0  0  0  0  0
   81.1810    6.2408   28.1515 H   0  0  0  0  0  0
   79.9168    7.1735   28.8115 H   0  0  0  0  0  0
   83.1329    6.8450   35.4834 H   0  0  0  0  0  0
   80.7896    4.6561   26.2524 H   0  0  0  0  0  0
   76.5834    7.0830   25.3753 H   0  0  0  0  0  0
   79.5976    4.3136   24.1391 H   0  0  0  0  0  0
   77.3354    7.2409   28.7374 H   0  0  0  0  0  0
   78.3149    8.5266   28.0360 H   0  0  0  0  0  0
   76.7000    8.2577   27.4364 H   0  0  0  0  0  0
   76.9484    6.4804   22.9291 H   0  0  0  0  0  0
   77.8882    5.0554   22.5478 H   0  0  0  0  0  0
   76.3643    4.9026   23.4582 H   0  0  0  0  0  0
  1 10  2  0  0  0
  2 11  2  0  0  0
  3 17  2  0  0  0
  4 17  1  0  0  0
  4 28  1  0  0  0
  5 20  2  0  0  0
  6 20  1  0  0  0
  6 29  1  0  0  0
  7 10  1  0  0  0
  7 11  1  0  0  0
  7 12  1  0  0  0
  8  9  1  0  0  0
  8 10  1  0  0  0
  8 13  2  0  0  0
  9 11  1  0  0  0
  9 14  2  0  0  0
 12 16  1  0  0  0
 12 17  1  0  0  0
 12 30  1  0  0  0
 13 15  1  0  0  0
 13 31  1  0  0  0
 14 18  1  0  0  0
 14 32  1  0  0  0
 15 18  2  0  0  0
 15 20  1  0  0  0
 16 19  1  0  0  0
 16 33  1  0  0  0
 16 34  1  0  0  0
 18 35  1  0  0  0
 19 21  1  0  0  0
 19 22  2  0  0  0
 21 23  2  0  0  0
 21 26  1  0  0  0
 22 25  1  0  0  0
 22 36  1  0  0  0
 23 24  1  0  0  0
 23 37  1  0  0  0
 24 25  2  0  0  0
 24 27  1  0  0  0
 25 38  1  0  0  0
 26 39  1  0  0  0
 26 40  1  0  0  0
 26 41  1  0  0  0
 27 42  1  0  0  0
 27 43  1  0  0  0
 27 44  1  0  0  0
M  END
> <s_m_entry_id>
7416

> <s_m_entry_name>
dock_pv.7

> <s_m_Source_Path>
/home/csk/Desktop/cluster/DUD-E-result/ampc

> <s_m_Source_File>
dock_pv.maegz

> <i_m_Source_File_Index>
7

> <chembl_id>
CHEMBL1436305

> <chembl_pref_name>
None

> <i_lp_mmshare_version>
53161

> <i_f3d_flags>
0

> <r_lp_tautomer_probability>
1

> <s_lp_Force_Field>
OPLS_2005

> <r_lp_Energy>
36.551097

> <b_lp_Chiralities_Consistent>
1

> <s_lp_Variant>
CHEMBL2026_lig2-1

> <s_i_glide_gridfile>
glide-grid_1l2s

> <i_i_glide_lignum>
2

> <i_i_glide_rotatable_bonds>
7

> <r_i_docking_score>
-7.37457180621503

> <r_i_glide_ligand_efficiency>
-0.273132289119075

> <r_i_glide_ligand_efficiency_sa>
-0.819396866457026

> <r_i_glide_ligand_efficiency_ln>
-1.71667873716869

> <r_i_glide_gscore>
-7.37457180621503

> <r_i_glide_lipo>
-1.351642555606

> <r_i_glide_hbond>
-1.45031153761693

> <r_i_glide_metal>
0

> <r_i_glide_rewards>
-1.24430845254695

> <r_i_glide_evdw>
-36.470386505127

> <r_i_glide_ecoul>
-14.1010589599609

> <r_i_glide_erotb>
0.713525347225432

> <r_i_glide_esite>
-0.103156438420088

> <r_i_glide_emodel>
-69.9019509100612

> <r_i_glide_energy>
-50.5714454650879

> <r_i_glide_einternal>
6.58574104309082

> <i_i_glide_confnum>
3

> <i_i_glide_posenum>
346

> <r_i_glide_eff_state_penalty>
0

> <s_user_duplicate_titles>
CHEMBL2026_lig2

> <s_m_subgroup_title>
dock_pv

> <s_m_subgroupid>
dock_pv

> <b_m_subgroup_collapsed>
0

$$$$
CHEMBL2026_lig1
                    3D
 Schrodinger Suite 2021-1.
 44 47  0  0  1  0            999 V2000
   79.7795    5.8413   28.0721 C   0  0  0  0  0  0
   79.5608    4.5187   27.5924 C   0  0  0  0  0  0
   78.9403    4.2792   26.3696 C   0  0  0  0  0  0
   78.5060    5.3345   25.5825 C   0  0  0  0  0  0
   78.6972    6.6441   26.0037 C   0  0  0  0  0  0
   79.3323    6.9209   27.2419 C   0  0  0  0  0  0
   79.5413    8.2535   27.6614 C   0  0  0  0  0  0
   80.1854    8.5215   28.8614 C   0  0  0  0  0  0
   80.6187    7.4854   29.6790 C   0  0  0  0  0  0
   80.4279    6.1501   29.3229 C   0  0  0  0  0  0
   80.9627    5.0567   30.2699 C   0  0  0  0  0  0
   80.0076    4.5088   31.3937 C   0  0  2  0  0  0
   78.4987    4.4741   30.9703 C   0  0  0  0  0  0
   78.2972    3.4556   30.0985 O   0  0  0  0  0  0
   77.6106    5.2104   31.3382 O   0  0  0  0  0  0
   80.2790    5.1062   32.7472 N   0  0  0  0  0  0
   79.8154    6.3057   33.1762 C   0  0  0  0  0  0
   79.0795    7.0567   32.5595 O   0  0  0  0  0  0
   80.3873    6.5314   34.5204 C   0  0  0  0  0  0
   80.2035    7.5720   35.4244 C   0  0  0  0  0  0
   80.8855    7.5588   36.6527 C   0  0  0  0  0  0
   80.6474    8.6232   37.6967 C   0  0  0  0  0  0
   80.9526    8.4542   38.8746 O   0  0  0  0  0  0
   80.0817    9.7744   37.2307 O   0  0  0  0  0  0
   81.7563    6.4877   36.9244 C   0  0  0  0  0  0
   81.9323    5.4567   35.9956 C   0  0  0  0  0  0
   81.2123    5.4904   34.7995 C   0  0  0  0  0  0
   81.1253    4.5379   33.6605 C   0  0  0  0  0  0
   81.7014    3.4567   33.5762 O   0  0  0  0  0  0
   79.8972    3.6754   28.1683 H   0  0  0  0  0  0
   78.8040    3.2688   26.0176 H   0  0  0  0  0  0
   78.0274    5.1396   24.6336 H   0  0  0  0  0  0
   78.3710    7.4567   25.3732 H   0  0  0  0  0  0
   79.2048    9.0641   27.0333 H   0  0  0  0  0  0
   80.3512    9.5456   29.1610 H   0  0  0  0  0  0
   81.1135    7.7284   30.6085 H   0  0  0  0  0  0
   81.8763    5.4363   30.7318 H   0  0  0  0  0  0
   81.3522    4.2429   29.6649 H   0  0  0  0  0  0
   80.2513    3.4567   31.5346 H   0  0  0  0  0  0
   79.1234    2.9595   29.9762 H   0  0  0  0  0  0
   79.4972    8.3421   35.1773 H   0  0  0  0  0  0
   79.9312    9.7569   36.2860 H   0  0  0  0  0  0
   82.2925    6.4412   37.8632 H   0  0  0  0  0  0
   82.6107    4.6536   36.2280 H   0  0  0  0  0  0
  1  2  2  0  0  0
  1  6  1  0  0  0
  1 10  1  0  0  0
  2  3  1  0  0  0
  2 30  1  0  0  0
  3  4  2  0  0  0
  3 31  1  0  0  0
  4  5  1  0  0  0
  4 32  1  0  0  0
  5  6  2  0  0  0
  5 33  1  0  0  0
  6  7  1  0  0  0
  7  8  2  0  0  0
  7 34  1  0  0  0
  8  9  1  0  0  0
  8 35  1  0  0  0
  9 10  2  0  0  0
  9 36  1  0  0  0
 10 11  1  0  0  0
 11 12  1  0  0  0
 11 37  1  0  0  0
 11 38  1  0  0  0
 12 13  1  0  0  0
 12 16  1  0  0  0
 12 39  1  0  0  0
 13 14  1  0  0  0
 13 15  2  0  0  0
 14 40  1  0  0  0
 16 17  1  0  0  0
 16 28  1  0  0  0
 17 18  2  0  0  0
 17 19  1  0  0  0
 19 20  2  0  0  0
 19 27  1  0  0  0
 20 21  1  0  0  0
 20 41  1  0  0  0
 21 22  1  0  0  0
 21 25  2  0  0  0
 22 23  2  0  0  0
 22 24  1  0  0  0
 24 42  1  0  0  0
 25 26  1  0  0  0
 25 43  1  0  0  0
 26 27  2  0  0  0
 26 44  1  0  0  0
 27 28  1  0  0  0
 28 29  2  0  0  0
M  END
> <s_m_entry_id>
7417

> <s_m_entry_name>
dock_pv.8

> <s_m_Source_Path>
/home/csk/Desktop/cluster/DUD-E-result/ampc

> <s_m_Source_File>
dock_pv.maegz

> <i_m_Source_File_Index>
8

> <chembl_id>
CHEMBL405886

> <chembl_pref_name>
None

> <i_lp_mmshare_version>
53161

> <i_f3d_flags>
0

> <r_lp_tautomer_probability>
1

> <s_lp_Force_Field>
OPLS_2005

> <r_lp_Energy>
44.234509

> <b_lp_Chiralities_Consistent>
1

> <s_lp_Variant>
CHEMBL2026_lig1-1

> <s_i_glide_gridfile>
glide-grid_1l2s

> <i_i_glide_lignum>
1

> <i_i_glide_rotatable_bonds>
7

> <r_i_docking_score>
-7.20649745742392

> <r_i_glide_ligand_efficiency>
-0.248499912324963

> <r_i_glide_ligand_efficiency_sa>
-0.763470460960497

> <r_i_glide_ligand_efficiency_ln>
-1.65010517674188

> <r_i_glide_gscore>
-7.20649745742392

> <r_i_glide_lipo>
-1.49696378602666

> <r_i_glide_hbond>
-0.547632193767318

> <r_i_glide_metal>
0

> <r_i_glide_rewards>
-1.50417649964658

> <r_i_glide_evdw>
-37.2006454467773

> <r_i_glide_ecoul>
-16.1493377685547

> <r_i_glide_erotb>
0.642926156725193

> <r_i_glide_esite>
-0.0182181970864807

> <r_i_glide_emodel>
-73.1735207682444

> <r_i_glide_energy>
-53.349983215332

> <r_i_glide_einternal>
6.52406978607178

> <i_i_glide_confnum>
7

> <i_i_glide_posenum>
89

> <r_i_glide_eff_state_penalty>
0

> <s_user_duplicate_titles>
CHEMBL2026_lig1

> <s_m_subgroup_title>
dock_pv

> <s_m_subgroupid>
dock_pv

> <b_m_subgroup_collapsed>
0

$$$$
CHEMBL2026_lig46
                    3D
 Schrodinger Suite 2021-1.
 48 50  0  0  1  0            999 V2000
   80.1074    7.6552   28.7439 S   0  0  0  0  0  0
   78.4347    3.4566   28.3762 O   0  0  0  0  0  0
   79.9306    5.5787   24.3767 O   0  0  0  0  0  0
   79.4962    3.8457   25.7811 O   0  0  0  0  0  0
   78.6972    6.6567   32.4196 O   0  0  0  0  0  0
   81.8706    5.1061   32.2917 O   0  0  0  0  0  0
   78.5173    5.8111   27.8112 N   0  0  0  0  0  0
   79.4134    5.1996   30.8720 N   0  0  0  0  0  0
   78.5546    6.7449   28.9635 C   0  0  1  0  0  0
   79.3642    6.1400   26.6501 C   0  0  1  0  0  0
   78.3733    5.5111   29.8876 C   0  0  1  0  0  0
   80.6737    6.7477   27.2735 C   0  0  0  0  0  0
   78.4498    4.6622   28.6098 C   0  0  0  0  0  0
   79.6053    5.0353   25.5836 C   0  0  0  0  0  0
   81.6548    5.6671   27.8058 C   0  0  0  0  0  0
   81.4779    7.6571   26.3251 C   0  0  0  0  0  0
   79.4995    5.7925   32.0723 C   0  0  0  0  0  0
   80.6448    5.3460   33.0152 C   0  0  2  0  0  0
   80.8225    6.2108   34.2969 C   0  0  0  0  0  0
   82.5966    6.1055   31.6594 C   0  0  0  0  0  0
   83.7829    5.6982   31.0482 C   0  0  0  0  0  0
   82.2244    7.4570   31.5815 C   0  0  0  0  0  0
   81.8304    5.6268   35.2964 C   0  0  0  0  0  0
   84.5916    6.6087   30.3742 C   0  0  0  0  0  0
   83.0289    8.3728   30.9078 C   0  0  0  0  0  0
   84.2091    7.9450   30.3062 C   0  0  0  0  0  0
   80.0896    4.4864   30.6324 H   0  0  0  0  0  0
   77.7339    7.4653   28.9565 H   0  0  0  0  0  0
   78.8151    6.9239   26.1274 H   0  0  0  0  0  0
   77.4143    5.4449   30.4064 H   0  0  0  0  0  0
   82.0629    5.0567   27.0001 H   0  0  0  0  0  0
   81.1957    4.9876   28.5217 H   0  0  0  0  0  0
   82.5059    6.1220   28.3137 H   0  0  0  0  0  0
   81.8861    7.1071   25.4781 H   0  0  0  0  0  0
   80.8548    8.4614   25.9345 H   0  0  0  0  0  0
   82.3174    8.1270   26.8402 H   0  0  0  0  0  0
   80.3284    4.3598   33.3586 H   0  0  0  0  0  0
   81.1194    7.2302   34.0598 H   0  0  0  0  0  0
   79.8622    6.3041   34.8081 H   0  0  0  0  0  0
   84.0767    4.6619   31.0954 H   0  0  0  0  0  0
   81.3091    7.8223   32.0153 H   0  0  0  0  0  0
   81.9440    6.2814   36.1613 H   0  0  0  0  0  0
   81.4998    4.6569   35.6648 H   0  0  0  0  0  0
   82.8148    5.5022   34.8439 H   0  0  0  0  0  0
   85.5064    6.2794   29.9043 H   0  0  0  0  0  0
   82.7333    9.4099   30.8468 H   0  0  0  0  0  0
   84.8297    8.6558   29.7803 H   0  0  0  0  0  0
   79.8971    6.5378   24.3324 H   0  0  0  0  0  0
  1  9  1  0  0  0
  1 12  1  0  0  0
  2 13  2  0  0  0
  3 14  1  0  0  0
  3 48  1  0  0  0
  4 14  2  0  0  0
  5 17  2  0  0  0
  6 18  1  0  0  0
  6 20  1  0  0  0
  7  9  1  0  0  0
  7 10  1  0  0  0
  7 13  1  0  0  0
  8 11  1  0  0  0
  8 17  1  0  0  0
  8 27  1  0  0  0
  9 11  1  0  0  0
  9 28  1  0  0  0
 10 12  1  0  0  0
 10 14  1  0  0  0
 10 29  1  0  0  0
 11 13  1  0  0  0
 11 30  1  0  0  0
 12 15  1  0  0  0
 12 16  1  0  0  0
 15 31  1  0  0  0
 15 32  1  0  0  0
 15 33  1  0  0  0
 16 34  1  0  0  0
 16 35  1  0  0  0
 16 36  1  0  0  0
 17 18  1  0  0  0
 18 19  1  0  0  0
 18 37  1  0  0  0
 19 23  1  0  0  0
 19 38  1  0  0  0
 19 39  1  0  0  0
 20 21  2  0  0  0
 20 22  1  0  0  0
 21 24  1  0  0  0
 21 40  1  0  0  0
 22 25  2  0  0  0
 22 41  1  0  0  0
 23 42  1  0  0  0
 23 43  1  0  0  0
 23 44  1  0  0  0
 24 26  2  0  0  0
 24 45  1  0  0  0
 25 26  1  0  0  0
 25 46  1  0  0  0
 26 47  1  0  0  0
M  END
> <s_m_entry_id>
7418

> <s_m_entry_name>
dock_pv.9

> <s_m_Source_Path>
/home/csk/Desktop/cluster/DUD-E-result/ampc

> <s_m_Source_File>
dock_pv.maegz

> <i_m_Source_File_Index>
9

> <chembl_id>
CHEMBL1539961

> <chembl_pref_name>
None

> <i_lp_mmshare_version>
53161

> <i_f3d_flags>
0

> <r_lp_tautomer_probability>
1

> <s_lp_Force_Field>
OPLS_2005

> <r_lp_Energy>
20.626247

> <b_lp_Chiralities_Consistent>
1

> <s_lp_Variant>
CHEMBL2026_lig46-8

> <s_i_glide_gridfile>
glide-grid_1l2s

> <i_i_glide_lignum>
71

> <i_i_glide_rotatable_bonds>
8

> <r_i_docking_score>
-7.15450951066871

> <r_i_glide_ligand_efficiency>
-0.275173442718027

> <r_i_glide_ligand_efficiency_sa>
-0.815200241296943

> <r_i_glide_ligand_efficiency_ln>
-1.68021308272007

> <r_i_glide_gscore>
-7.15450951066871

> <r_i_glide_lipo>
-1.22144255347142

> <r_i_glide_hbond>
-1.55758092371299

> <r_i_glide_metal>
0

> <r_i_glide_rewards>
-1.18267667658464

> <r_i_glide_evdw>
-35.1928253173828

> <r_i_glide_ecoul>
-13.450569152832

> <r_i_glide_erotb>
0.676556404593282

> <r_i_glide_esite>
-0.0921391226989893

> <r_i_glide_emodel>
-64.9755361901631

> <r_i_glide_energy>
-48.6433944702148

> <r_i_glide_einternal>
7.71730613708496

> <i_i_glide_confnum>
57

> <i_i_glide_posenum>
280

> <r_i_glide_eff_state_penalty>
0

> <s_user_duplicate_titles>
CHEMBL2026_lig46

> <s_m_subgroup_title>
dock_pv

> <s_m_subgroupid>
dock_pv

> <b_m_subgroup_collapsed>
0

$$$$
CHEMBL2026_lig80
                    3D
 Schrodinger Suite 2021-1.
 45 47  0  0  1  0            999 V2000
   80.2783    7.6532   28.3628 S   0  0  0  0  0  0
   78.6846    3.4567   28.0040 O   0  0  0  0  0  0
   80.0151    5.4567   23.9762 O   0  0  0  0  0  0
   79.8954    3.7866   25.5001 O   0  0  0  0  0  0
   78.6973    6.6567   32.0482 O   0  0  0  0  0  0
   80.5026    6.0164   33.9053 O   0  0  0  0  0  0
   78.7118    5.8013   27.3951 N   0  0  0  0  0  0
   79.4800    5.2270   30.4978 N   0  0  0  0  0  0
   78.7129    6.7535   28.5348 C   0  0  1  0  0  0
   79.5961    6.1064   26.2594 C   0  0  1  0  0  0
   78.4895    5.5357   29.4677 C   0  0  1  0  0  0
   80.8830    6.7295   26.9168 C   0  0  0  0  0  0
   78.6420    4.6658   28.2107 C   0  0  0  0  0  0
   79.8637    4.9674   25.2350 C   0  0  0  0  0  0
   81.8553    5.6702   27.4999 C   0  0  0  0  0  0
   81.7138    7.6173   25.9762 C   0  0  0  0  0  0
   79.5005    5.7826   31.7189 C   0  0  0  0  0  0
   80.5813    5.2629   32.6908 C   0  0  2  0  0  0
   81.5381    6.0157   34.8195 C   0  0  0  0  0  0
   80.4005    3.7583   32.9977 C   0  0  0  0  0  0
   81.2875    6.6724   36.0244 C   0  0  0  0  0  0
   82.7956    5.4290   34.6029 C   0  0  0  0  0  0
   82.2723    6.7543   37.0045 C   0  0  0  0  0  0
   83.7829    5.5100   35.5821 C   0  0  0  0  0  0
   83.5189    6.1783   36.7747 C   0  0  0  0  0  0
   80.1191    4.4694   30.2987 H   0  0  0  0  0  0
   77.8974    7.4782   28.4865 H   0  0  0  0  0  0
   79.0650    6.8803   25.7043 H   0  0  0  0  0  0
   77.5067    5.4757   29.9405 H   0  0  0  0  0  0
   82.2970    5.0568   26.7150 H   0  0  0  0  0  0
   81.3769    4.9979   28.2095 H   0  0  0  0  0  0
   82.6852    6.1400   28.0304 H   0  0  0  0  0  0
   82.1681    7.0350   25.1765 H   0  0  0  0  0  0
   81.0971    8.3900   25.5191 H   0  0  0  0  0  0
   82.5209    8.1233   26.5082 H   0  0  0  0  0  0
   81.5300    5.4477   32.1848 H   0  0  0  0  0  0
   80.3184    3.1528   32.0942 H   0  0  0  0  0  0
   81.2298    3.3590   33.5795 H   0  0  0  0  0  0
   79.4972    3.5885   33.5762 H   0  0  0  0  0  0
   80.3208    7.1246   36.1958 H   0  0  0  0  0  0
   83.0291    4.9178   33.6833 H   0  0  0  0  0  0
   82.0722    7.2694   37.9332 H   0  0  0  0  0  0
   84.7528    5.0658   35.4144 H   0  0  0  0  0  0
   84.2878    6.2571   37.5295 H   0  0  0  0  0  0
   79.8972    6.4092   23.8705 H   0  0  0  0  0  0
  1  9  1  0  0  0
  1 12  1  0  0  0
  2 13  2  0  0  0
  3 14  1  0  0  0
  3 45  1  0  0  0
  4 14  2  0  0  0
  5 17  2  0  0  0
  6 18  1  0  0  0
  6 19  1  0  0  0
  7  9  1  0  0  0
  7 10  1  0  0  0
  7 13  1  0  0  0
  8 11  1  0  0  0
  8 17  1  0  0  0
  8 26  1  0  0  0
  9 11  1  0  0  0
  9 27  1  0  0  0
 10 12  1  0  0  0
 10 14  1  0  0  0
 10 28  1  0  0  0
 11 13  1  0  0  0
 11 29  1  0  0  0
 12 15  1  0  0  0
 12 16  1  0  0  0
 15 30  1  0  0  0
 15 31  1  0  0  0
 15 32  1  0  0  0
 16 33  1  0  0  0
 16 34  1  0  0  0
 16 35  1  0  0  0
 17 18  1  0  0  0
 18 20  1  0  0  0
 18 36  1  0  0  0
 19 21  2  0  0  0
 19 22  1  0  0  0
 20 37  1  0  0  0
 20 38  1  0  0  0
 20 39  1  0  0  0
 21 23  1  0  0  0
 21 40  1  0  0  0
 22 24  2  0  0  0
 22 41  1  0  0  0
 23 25  2  0  0  0
 23 42  1  0  0  0
 24 25  1  0  0  0
 24 43  1  0  0  0
 25 44  1  0  0  0
M  END
> <s_m_entry_id>
7419

> <s_m_entry_name>
dock_pv.10

> <s_m_Source_Path>
/home/csk/Desktop/cluster/DUD-E-result/ampc

> <s_m_Source_File>
dock_pv.maegz

> <i_m_Source_File_Index>
10

> <chembl_id>
CHEMBL1484438

> <chembl_pref_name>
None

> <i_lp_mmshare_version>
53161

> <i_f3d_flags>
0

> <r_lp_tautomer_probability>
1

> <s_lp_Force_Field>
OPLS_2005

> <r_lp_Energy>
15.785904

> <b_lp_Chiralities_Consistent>
1

> <s_lp_Variant>
CHEMBL2026_lig80-8

> <s_i_glide_gridfile>
glide-grid_1l2s

> <i_i_glide_lignum>
141

> <i_i_glide_rotatable_bonds>
7

> <r_i_docking_score>
-7.0318727468631

> <r_i_glide_ligand_efficiency>
-0.281274909874524

> <r_i_glide_ligand_efficiency_sa>
-0.822452824904876

> <r_i_glide_ligand_efficiency_ln>
-1.66676456922805

> <r_i_glide_gscore>
-7.0318727468631

> <r_i_glide_lipo>
-1.19203470250965

> <r_i_glide_hbond>
-1.16329910556374

> <r_i_glide_metal>
0

> <r_i_glide_rewards>
-1.3275005265325

> <r_i_glide_evdw>
-35.1834182739258

> <r_i_glide_ecoul>
-14.955454826355

> <r_i_glide_erotb>
0.723817599576657

> <r_i_glide_esite>
-0.070366874184333

> <r_i_glide_emodel>
-68.9378049604162

> <r_i_glide_energy>
-50.1388731002808

> <r_i_glide_einternal>
3.94519972801208

> <i_i_glide_confnum>
74

> <i_i_glide_posenum>
110

> <r_i_glide_eff_state_penalty>
0

> <s_user_duplicate_titles>
CHEMBL2026_lig80

> <s_m_subgroup_title>
dock_pv

> <s_m_subgroupid>
dock_pv

> <b_m_subgroup_collapsed>
0

$$$$
CHEMBL2026_lig42
                    3D
 Schrodinger Suite 2021-1.
 26 26  0  0  1  0            999 V2000
   79.1331    5.4503   27.8347 C   0  0  0  0  0  0
   78.2974    4.1166   25.9762 C   0  0  0  0  0  0
   79.0970    5.6002   31.7989 C   0  0  0  0  0  0
   78.6011    4.2508   27.3338 C   0  0  0  0  0  0
   78.4614    5.1833   25.1076 C   0  0  0  0  0  0
   79.2996    6.5181   26.9454 C   0  0  0  0  0  0
   78.9535    6.3876   25.6015 C   0  0  0  0  0  0
   78.6413    5.0989   30.4084 C   0  0  2  0  0  0
   79.5846    5.6410   29.2948 C   0  0  0  0  0  0
   77.2189    5.4570   30.2266 N   0  0  0  0  0  0
   80.0014    4.7518   32.3716 O   0  0  0  0  0  0
   78.6972    6.6568   32.2884 O   0  0  0  0  0  0
   78.3281    3.1989   28.1613 O   0  0  0  0  0  0
   78.1133    5.0432   23.7878 O   0  0  0  0  0  0
   79.0972    7.4567   24.7763 O   0  0  0  0  0  0
   77.9016    3.1971   25.5769 H   0  0  0  0  0  0
   79.6991    7.4619   27.2883 H   0  0  0  0  0  0
   78.7199    4.0129   30.4561 H   0  0  0  0  0  0
   79.7208    6.7128   29.4607 H   0  0  0  0  0  0
   80.5766    5.1961   29.3937 H   0  0  0  0  0  0
   76.7386    5.4441   31.1169 H   0  0  0  0  0  0
   77.1304    6.4007   29.8688 H   0  0  0  0  0  0
   80.1874    3.9722   31.8445 H   0  0  0  0  0  0
   78.7001    3.3588   29.0349 H   0  0  0  0  0  0
   77.6612    4.2122   23.6086 H   0  0  0  0  0  0
   79.0968    7.2481   23.8299 H   0  0  0  0  0  0
  1  4  2  0  0  0
  1  6  1  0  0  0
  1  9  1  0  0  0
  2  4  1  0  0  0
  2  5  2  0  0  0
  2 16  1  0  0  0
  3  8  1  0  0  0
  3 11  1  0  0  0
  3 12  2  0  0  0
  4 13  1  0  0  0
  5  7  1  0  0  0
  5 14  1  0  0  0
  6  7  2  0  0  0
  6 17  1  0  0  0
  7 15  1  0  0  0
  8  9  1  0  0  0
  8 10  1  0  0  0
  8 18  1  0  0  0
  9 19  1  0  0  0
  9 20  1  0  0  0
 10 21  1  0  0  0
 10 22  1  0  0  0
 11 23  1  0  0  0
 13 24  1  0  0  0
 14 25  1  0  0  0
 15 26  1  0  0  0
M  END
> <s_m_entry_id>
7420

> <s_m_entry_name>
dock_pv.11

> <s_m_Source_Path>
/home/csk/Desktop/cluster/DUD-E-result/ampc

> <s_m_Source_File>
dock_pv.maegz

> <i_m_Source_File_Index>
11

> <chembl_id>
CHEMBL109037

> <chembl_pref_name>
None

> <i_lp_mmshare_version>
53161

> <i_f3d_flags>
0

> <r_lp_tautomer_probability>
0.999932286074798

> <s_lp_Force_Field>
OPLS_2005

> <r_lp_Energy>
4.476551

> <b_lp_Chiralities_Consistent>
1

> <s_lp_Variant>
CHEMBL2026_lig42-1

> <s_i_glide_gridfile>
glide-grid_1l2s

> <i_i_glide_lignum>
59

> <i_i_glide_rotatable_bonds>
7

> <r_i_docking_score>
-6.97348302647593

> <r_i_glide_ligand_efficiency>
-0.464898868431728

> <r_i_glide_ligand_efficiency_sa>
-1.14653920163394

> <r_i_glide_ligand_efficiency_ln>
-1.88063339174941

> <r_i_glide_gscore>
-6.97348302647593

> <r_i_glide_lipo>
-0.632556964191939

> <r_i_glide_hbond>
-1.5539868855066

> <r_i_glide_metal>
0

> <r_i_glide_rewards>
-2.13934089548219

> <r_i_glide_evdw>
-13.5966997146606

> <r_i_glide_ecoul>
-20.4573135375977

> <r_i_glide_erotb>
1.10083373507749

> <r_i_glide_esite>
0

> <r_i_glide_emodel>
-47.8182085249487

> <r_i_glide_energy>
-34.0540132522583

> <r_i_glide_einternal>
3.47396183013916

> <i_i_glide_confnum>
9

> <i_i_glide_posenum>
208

> <r_i_glide_eff_state_penalty>
0

> <s_user_duplicate_titles>
CHEMBL2026_lig42

> <s_m_subgroup_title>
dock_pv

> <s_m_subgroupid>
dock_pv

> <b_m_subgroup_collapsed>
0

$$$$
CHEMBL2026_lig41
                    3D
 Schrodinger Suite 2021-1.
 86 91  0  0  1  0            999 V2000
   81.6527    9.6936   38.4143 C   0  0  0  0  0  0
   79.7016    7.4492   27.7445 C   0  0  0  0  0  0
   80.8986    8.6915   39.7125 S   0  0  0  0  0  0
   78.0681    7.1823   28.4858 S   0  0  0  0  0  0
   82.8872    9.3486   37.8457 C   0  0  0  0  0  0
   80.5327    6.3922   27.3419 C   0  0  0  0  0  0
   80.6199   15.3955   35.5270 S   0  0  0  0  0  0
   83.3875   12.4481   25.8762 S   0  0  0  0  0  0
   83.4498   10.1960   36.8700 C   0  0  0  0  0  0
   81.7489    6.6711   26.6913 C   0  0  0  0  0  0
   82.7815   11.4010   36.4473 C   0  0  0  0  0  0
   82.1967    8.0211   26.4923 C   0  0  0  0  0  0
   83.5740    8.2105   38.3169 N   0  0  0  0  0  0
   80.1522    5.0568   27.5261 N   0  0  0  0  0  0
   81.4123   13.8149   35.8227 C   0  0  0  0  0  0
   82.9341   10.7392   26.1434 C   0  0  0  0  0  0
   81.5113   11.7011   37.0336 C   0  0  0  0  0  0
   81.3507    9.0745   26.9605 C   0  0  0  0  0  0
   83.3149   12.3410   35.4968 C   0  0  0  0  0  0
   83.4377    8.3865   25.8577 C   0  0  0  0  0  0
   80.9571   10.8198   37.9814 C   0  0  0  0  0  0
   80.1174    8.7668   27.5769 C   0  0  0  0  0  0
   83.7985    7.1692   37.5745 N   0  0  0  0  0  0
   80.0785    4.5421   28.7101 N   0  0  0  0  0  0
   82.6289   13.5222   35.2173 C   0  0  0  0  0  0
   83.7723    9.7275   25.6920 C   0  0  0  0  0  0
   80.8367   12.9024   36.6992 C   0  0  0  0  0  0
   81.7444   10.4224   26.7853 C   0  0  0  0  0  0
   82.1935    6.4024   33.7094 C   0  0  0  0  0  0
   81.6227    6.0224   32.3873 C   0  0  0  0  0  0
   82.1411    8.6567   40.8155 O   0  0  0  0  0  0
   77.2199    8.2567   27.5768 O   0  0  0  0  0  0
   81.0969   16.1405   36.9272 O   0  0  0  0  0  0
   83.1721   12.4819   24.2350 O   0  0  0  0  0  0
   79.7911    9.4567   40.2966 O   0  0  0  0  0  0
   80.7008    7.3397   39.1759 O   0  0  0  0  0  0
   77.5372    5.8568   28.1583 O   0  0  0  0  0  0
   78.1054    7.6847   29.8620 O   0  0  0  0  0  0
   83.5384    6.1573   34.0045 C   0  0  0  0  0  0
   80.3584    5.4340   32.3090 C   0  0  0  0  0  0
   81.2877   16.0576   34.4023 O   0  0  0  0  0  0
   79.1669   15.2152   35.5762 O   0  0  0  0  0  0
   82.3694   13.3086   26.4887 O   0  0  0  0  0  0
   84.8182   12.5893   26.1629 O   0  0  0  0  0  0
   83.2608    6.9823   36.2821 C   0  0  0  0  0  0
   80.5674    5.1334   29.8975 C   0  0  0  0  0  0
   84.0709    6.4348   35.2669 C   0  0  0  0  0  0
   79.8383    4.9836   31.0939 C   0  0  0  0  0  0
   81.3911    6.9541   34.7120 C   0  0  0  0  0  0
   82.3469    6.1827   31.2027 C   0  0  0  0  0  0
   81.9111    7.2204   35.9747 C   0  0  0  0  0  0
   81.8343    5.7339   29.9864 C   0  0  0  0  0  0
   84.5271   12.1519   34.8324 N   0  0  0  0  0  0
   84.3524    7.4515   25.3701 N   0  0  0  0  0  0
   84.6866    9.8567   36.3672 O   0  0  0  0  0  0
   82.5103    5.6027   26.2666 O   0  0  0  0  0  0
   78.4766    4.3048   31.1239 C   0  0  0  0  0  0
   85.5374    6.0999   35.5197 C   0  0  0  0  0  0
   79.9991   11.0682   38.4171 H   0  0  0  0  0  0
   79.4847    9.5775   27.9079 H   0  0  0  0  0  0
   83.0614   14.2342   34.5294 H   0  0  0  0  0  0
   84.6977    9.9970   25.2019 H   0  0  0  0  0  0
   79.8895   13.1251   37.1739 H   0  0  0  0  0  0
   81.0976   11.2106   27.1384 H   0  0  0  0  0  0
   84.1729    5.7136   33.2518 H   0  0  0  0  0  0
   79.7873    5.2802   33.2145 H   0  0  0  0  0  0
   80.3444    7.1575   34.5329 H   0  0  0  0  0  0
   83.3313    6.6277   31.2222 H   0  0  0  0  0  0
   81.2341    7.5936   36.7271 H   0  0  0  0  0  0
   82.4624    5.8175   29.1140 H   0  0  0  0  0  0
   84.9198   12.8848   34.2605 H   0  0  0  0  0  0
   85.0720   11.3437   35.1103 H   0  0  0  0  0  0
   84.1278    6.4738   25.5156 H   0  0  0  0  0  0
   85.2602    7.7447   25.0381 H   0  0  0  0  0  0
   85.0115    9.0646   36.8058 H   0  0  0  0  0  0
   82.0634    4.7742   26.4620 H   0  0  0  0  0  0
   77.8967    4.6568   31.9762 H   0  0  0  0  0  0
   77.8870    4.5410   30.2425 H   0  0  0  0  0  0
   78.5914    3.2220   31.1760 H   0  0  0  0  0  0
   86.1367    7.0121   35.5475 H   0  0  0  0  0  0
   85.6565    5.5910   36.4785 H   0  0  0  0  0  0
   85.9419    5.4260   34.7612 H   0  0  0  0  0  0
   82.2375   12.6717   24.0326 H   0  0  0  0  0  0
   82.0163   16.4546   36.8420 H   0  0  0  0  0  0
   77.2483    9.1362   27.9985 H   0  0  0  0  0  0
   82.2971    9.5867   41.1759 H   0  0  0  0  0  0
  1  3  1  0  0  0
  1  5  1  0  0  0
  1 21  2  0  0  0
  2  6  1  0  0  0
  2  4  1  0  0  0
  2 22  2  0  0  0
  3 31  1  0  0  0
  3 35  2  0  0  0
  3 36  2  0  0  0
  4 32  1  0  0  0
  4 37  2  0  0  0
  4 38  2  0  0  0
  5  9  2  0  0  0
  5 13  1  0  0  0
  6 14  1  0  0  0
  6 10  2  0  0  0
  7 15  1  0  0  0
  7 33  1  0  0  0
  7 41  2  0  0  0
  7 42  2  0  0  0
  8 16  1  0  0  0
  8 34  1  0  0  0
  8 43  2  0  0  0
  8 44  2  0  0  0
  9 55  1  0  0  0
  9 11  1  0  0  0
 10 12  1  0  0  0
 10 56  1  0  0  0
 11 17  1  0  0  0
 11 19  2  0  0  0
 12 18  1  0  0  0
 12 20  2  0  0  0
 13 23  2  3  0  0
 14 24  2  3  0  0
 15 27  1  0  0  0
 15 25  2  0  0  0
 16 26  2  0  0  0
 16 28  1  0  0  0
 17 21  1  0  0  0
 17 27  2  0  0  0
 18 28  2  0  0  0
 18 22  1  0  0  0
 19 53  1  0  0  0
 19 25  1  0  0  0
 20 26  1  0  0  0
 20 54  1  0  0  0
 21 59  1  0  0  0
 22 60  1  0  0  0
 23 45  1  0  0  0
 24 46  1  0  0  0
 25 61  1  0  0  0
 26 62  1  0  0  0
 27 63  1  0  0  0
 28 64  1  0  0  0
 29 49  2  0  0  0
 29 30  1  0  0  0
 29 39  1  0  0  0
 30 40  1  0  0  0
 30 50  2  0  0  0
 31 86  1  0  0  0
 32 85  1  0  0  0
 33 84  1  0  0  0
 34 83  1  0  0  0
 39 47  2  0  0  0
 39 65  1  0  0  0
 40 48  2  0  0  0
 40 66  1  0  0  0
 45 47  1  0  0  0
 45 51  2  0  0  0
 46 52  2  0  0  0
 46 48  1  0  0  0
 47 58  1  0  0  0
 48 57  1  0  0  0
 49 51  1  0  0  0
 49 67  1  0  0  0
 50 52  1  0  0  0
 50 68  1  0  0  0
 51 69  1  0  0  0
 52 70  1  0  0  0
 53 71  1  0  0  0
 53 72  1  0  0  0
 54 73  1  0  0  0
 54 74  1  0  0  0
 55 75  1  0  0  0
 56 76  1  0  0  0
 57 77  1  0  0  0
 57 78  1  0  0  0
 57 79  1  0  0  0
 58 80  1  0  0  0
 58 81  1  0  0  0
 58 82  1  0  0  0
M  END
> <s_m_entry_id>
7421

> <s_m_entry_name>
dock_pv.12

> <s_m_Source_Path>
/home/csk/Desktop/cluster/DUD-E-result/ampc

> <s_m_Source_File>
dock_pv.maegz

> <i_m_Source_File_Index>
12

> <chembl_id>
CHEMBL177987

> <chembl_pref_name>
None

> <i_lp_mmshare_version>
53161

> <i_f3d_flags>
0

> <r_lp_tautomer_probability>
1

> <s_lp_Force_Field>
OPLS_2005

> <r_lp_Energy>
63.559266

> <b_lp_Chiralities_Consistent>
1

> <s_lp_Variant>
CHEMBL2026_lig41-2

> <s_i_glide_gridfile>
glide-grid_1l2s

> <i_i_glide_lignum>
58

> <i_i_glide_rotatable_bonds>
15

> <r_i_docking_score>
-6.94291728492337

> <r_i_glide_ligand_efficiency>
-0.119705470429713

> <r_i_glide_ligand_efficiency_sa>
-0.463365108614583

> <r_i_glide_ligand_efficiency_ln>
-1.37199792003461

> <r_i_glide_gscore>
-6.94291728492337

> <r_i_glide_lipo>
-1.62847203817529

> <r_i_glide_hbond>
0

> <r_i_glide_metal>
0

> <r_i_glide_rewards>
-0.350875764075495

> <r_i_glide_evdw>
-52.0018348693848

> <r_i_glide_ecoul>
-15.0658645629883

> <r_i_glide_erotb>
0.0444976071876051

> <r_i_glide_esite>
-0.148095661942713

> <r_i_glide_emodel>
-93.5358333039129

> <r_i_glide_energy>
-67.067699432373

> <r_i_glide_einternal>
5.03016519546509

> <i_i_glide_confnum>
504

> <i_i_glide_posenum>
141

> <r_i_glide_eff_state_penalty>
0

> <s_user_duplicate_titles>
CHEMBL2026_lig41

> <s_m_subgroup_title>
dock_pv

> <s_m_subgroupid>
dock_pv

> <b_m_subgroup_collapsed>
0

$$$$
CHEMBL2026_lig80
                    3D
 Schrodinger Suite 2021-1.
 45 47  0  0  1  0            999 V2000
   80.7750    7.4914   28.4291 S   0  0  0  0  0  0
   78.2973    3.5616   28.4698 O   0  0  0  0  0  0
   79.5854    5.4340   24.3764 O   0  0  0  0  0  0
   79.2977    3.5522   25.6205 O   0  0  0  0  0  0
   78.9196    6.6566   32.3763 O   0  0  0  0  0  0
   80.2112    5.9512   34.7073 O   0  0  0  0  0  0
   80.2013    4.9866   28.0377 N   0  0  0  0  0  0
   79.5866    4.8468   31.2150 N   0  0  0  0  0  0
   80.6298    5.8523   29.1529 C   0  0  2  0  0  0
   80.3991    5.4691   26.6659 C   0  0  2  0  0  0
   79.3488    5.4405   29.8965 C   0  0  1  0  0  0
   80.1562    7.0152   26.7877 C   0  0  0  0  0  0
   79.0974    4.4623   28.7189 C   0  0  0  0  0  0
   79.6800    4.6982   25.5203 C   0  0  0  0  0  0
   80.8748    7.8567   25.7307 C   0  0  0  0  0  0
   78.6497    7.3860   26.7884 C   0  0  0  0  0  0
   79.4954    5.5671   32.3500 C   0  0  0  0  0  0
   80.1739    5.0037   33.6251 C   0  0  1  0  0  0
   80.9343    7.1329   34.6962 C   0  0  0  0  0  0
   81.5463    4.3287   33.4176 C   0  0  0  0  0  0
   80.8626    7.8874   35.8675 C   0  0  0  0  0  0
   81.6964    7.6108   33.6190 C   0  0  0  0  0  0
   81.5374    9.1002   35.9743 C   0  0  0  0  0  0
   82.3738    8.8239   33.7227 C   0  0  0  0  0  0
   82.2916    9.5628   34.8996 C   0  0  0  0  0  0
   80.0439    3.9451   31.2335 H   0  0  0  0  0  0
   81.5900    5.5611   29.5871 H   0  0  0  0  0  0
   81.4551    5.2948   26.4594 H   0  0  0  0  0  0
   78.5766    6.2090   29.9841 H   0  0  0  0  0  0
   80.3612    7.8428   24.7764 H   0  0  0  0  0  0
   81.9017    7.5234   25.5758 H   0  0  0  0  0  0
   80.9260    8.9049   26.0280 H   0  0  0  0  0  0
   78.1706    7.1599   25.8361 H   0  0  0  0  0  0
   78.0863    6.8598   27.5582 H   0  0  0  0  0  0
   78.5079    8.4528   26.9690 H   0  0  0  0  0  0
   79.4973    4.2285   33.9762 H   0  0  0  0  0  0
   81.4479    3.4570   32.7764 H   0  0  0  0  0  0
   82.2907    4.9851   32.9710 H   0  0  0  0  0  0
   81.9468    3.9845   34.3715 H   0  0  0  0  0  0
   80.2703    7.5293   36.6971 H   0  0  0  0  0  0
   81.7592    7.0742   32.6881 H   0  0  0  0  0  0
   81.4730    9.6779   36.8852 H   0  0  0  0  0  0
   82.9528    9.1950   32.8903 H   0  0  0  0  0  0
   82.8129   10.5056   34.9793 H   0  0  0  0  0  0
   79.8975    6.3361   24.4717 H   0  0  0  0  0  0
  1  9  1  0  0  0
  1 12  1  0  0  0
  2 13  2  0  0  0
  3 14  1  0  0  0
  3 45  1  0  0  0
  4 14  2  0  0  0
  5 17  2  0  0  0
  6 18  1  0  0  0
  6 19  1  0  0  0
  7  9  1  0  0  0
  7 10  1  0  0  0
  7 13  1  0  0  0
  8 11  1  0  0  0
  8 17  1  0  0  0
  8 26  1  0  0  0
  9 11  1  0  0  0
  9 27  1  0  0  0
 10 12  1  0  0  0
 10 14  1  0  0  0
 10 28  1  0  0  0
 11 13  1  0  0  0
 11 29  1  0  0  0
 12 15  1  0  0  0
 12 16  1  0  0  0
 15 30  1  0  0  0
 15 31  1  0  0  0
 15 32  1  0  0  0
 16 33  1  0  0  0
 16 34  1  0  0  0
 16 35  1  0  0  0
 17 18  1  0  0  0
 18 20  1  0  0  0
 18 36  1  0  0  0
 19 21  2  0  0  0
 19 22  1  0  0  0
 20 37  1  0  0  0
 20 38  1  0  0  0
 20 39  1  0  0  0
 21 23  1  0  0  0
 21 40  1  0  0  0
 22 24  2  0  0  0
 22 41  1  0  0  0
 23 25  2  0  0  0
 23 42  1  0  0  0
 24 25  1  0  0  0
 24 43  1  0  0  0
 25 44  1  0  0  0
M  END
> <s_m_entry_id>
7422

> <s_m_entry_name>
dock_pv.13

> <s_m_Source_Path>
/home/csk/Desktop/cluster/DUD-E-result/ampc

> <s_m_Source_File>
dock_pv.maegz

> <i_m_Source_File_Index>
13

> <chembl_id>
CHEMBL1484438

> <chembl_pref_name>
None

> <i_lp_mmshare_version>
53161

> <i_f3d_flags>
0

> <r_lp_tautomer_probability>
1

> <s_lp_Force_Field>
OPLS_2005

> <r_lp_Energy>
18.54307

> <b_lp_Chiralities_Consistent>
1

> <s_lp_Variant>
CHEMBL2026_lig80-13

> <s_i_glide_gridfile>
glide-grid_1l2s

> <i_i_glide_lignum>
146

> <i_i_glide_rotatable_bonds>
7

> <r_i_docking_score>
-6.92685027652133

> <r_i_glide_ligand_efficiency>
-0.277074011060853

> <r_i_glide_ligand_efficiency_sa>
-0.810169322270445

> <r_i_glide_ligand_efficiency_ln>
-1.64187109648759

> <r_i_glide_gscore>
-6.92685027652133

> <r_i_glide_lipo>
-0.954274064217274

> <r_i_glide_hbond>
-1.48114144953836

> <r_i_glide_metal>
0

> <r_i_glide_rewards>
-1.50156159288138

> <r_i_glide_evdw>
-34.0524978637695

> <r_i_glide_ecoul>
-13.0881595611572

> <r_i_glide_erotb>
0.723817599576657

> <r_i_glide_esite>
-0.047841942098916

> <r_i_glide_emodel>
-63.0196209858265

> <r_i_glide_energy>
-47.1406574249268

> <r_i_glide_einternal>
9.48123455047607

> <i_i_glide_confnum>
75

> <i_i_glide_posenum>
33

> <r_i_glide_eff_state_penalty>
0

> <s_user_duplicate_titles>
CHEMBL2026_lig80

> <s_m_subgroup_title>
dock_pv

> <s_m_subgroupid>
dock_pv

> <b_m_subgroup_collapsed>
0

$$$$
CHEMBL2026_lig46
                    3D
 Schrodinger Suite 2021-1.
 48 50  0  0  1  0            999 V2000
   82.9496    5.1076   34.0683 S   0  0  0  0  0  0
   78.6976    6.2612   32.7763 O   0  0  0  0  0  0
   81.9738    9.5552   35.0489 O   0  0  0  0  0  0
   82.9492    8.7690   33.1299 O   0  0  0  0  0  0
   80.5990    6.8633   30.0333 O   0  0  0  0  0  0
   79.6139    6.1072   27.5937 O   0  0  0  0  0  0
   81.0562    6.6077   33.1424 N   0  0  0  0  0  0
   80.6224    4.6626   30.6208 N   0  0  0  0  0  0
   81.9813    5.5868   32.6080 C   0  0  2  0  0  0
   81.3993    7.3389   34.3587 C   0  0  1  0  0  0
   80.7316    4.8139   32.0942 C   0  0  1  0  0  0
   82.1565    6.2734   35.2361 C   0  0  0  0  0  0
   79.8905    5.9643   32.7346 C   0  0  0  0  0  0
   82.2159    8.6214   34.0848 C   0  0  0  0  0  0
   83.1402    6.7891   36.3149 C   0  0  0  0  0  0
   81.0975    5.4471   35.9964 C   0  0  0  0  0  0
   80.6086    5.6732   29.7110 C   0  0  0  0  0  0
   80.6353    5.3214   28.2113 C   0  0  2  0  0  0
   82.0212    5.6941   27.6065 C   0  0  0  0  0  0
   78.8675    5.6354   26.5335 C   0  0  0  0  0  0
   77.8978    6.5144   26.0588 C   0  0  0  0  0  0
   79.0270    4.3839   25.9156 C   0  0  0  0  0  0
   82.1415    5.6010   26.0733 C   0  0  0  0  0  0
   77.0958    6.1686   24.9784 C   0  0  0  0  0  0
   78.2201    4.0331   24.8373 C   0  0  0  0  0  0
   77.2564    4.9269   24.3767 C   0  0  0  0  0  0
   80.6979    3.7100   30.2748 H   0  0  0  0  0  0
   82.6627    5.9893   31.8567 H   0  0  0  0  0  0
   80.4604    7.6576   34.8157 H   0  0  0  0  0  0
   80.5582    3.8279   32.5264 H   0  0  0  0  0  0
   82.6479    7.4498   37.0299 H   0  0  0  0  0  0
   83.9688    7.3441   35.8726 H   0  0  0  0  0  0
   83.5841    5.9686   36.8799 H   0  0  0  0  0  0
   80.5274    6.0773   36.6817 H   0  0  0  0  0  0
   80.3783    4.9654   35.3334 H   0  0  0  0  0  0
   81.5507    4.6580   36.5978 H   0  0  0  0  0  0
   80.4338    4.2567   28.1384 H   0  0  0  0  0  0
   82.2807    6.7186   27.8844 H   0  0  0  0  0  0
   82.7897    5.0605   28.0546 H   0  0  0  0  0  0
   77.7723    7.4742   26.5344 H   0  0  0  0  0  0
   79.7750    3.6784   26.2372 H   0  0  0  0  0  0
   83.1509    5.8553   25.7500 H   0  0  0  0  0  0
   81.9265    4.6016   25.7005 H   0  0  0  0  0  0
   81.4629    6.2961   25.5781 H   0  0  0  0  0  0
   76.3479    6.8574   24.6134 H   0  0  0  0  0  0
   78.3363    3.0719   24.3581 H   0  0  0  0  0  0
   76.6235    4.6571   23.5464 H   0  0  0  0  0  0
   81.3384    9.2688   35.7081 H   0  0  0  0  0  0
  1  9  1  0  0  0
  1 12  1  0  0  0
  2 13  2  0  0  0
  3 14  1  0  0  0
  3 48  1  0  0  0
  4 14  2  0  0  0
  5 17  2  0  0  0
  6 18  1  0  0  0
  6 20  1  0  0  0
  7  9  1  0  0  0
  7 10  1  0  0  0
  7 13  1  0  0  0
  8 11  1  0  0  0
  8 17  1  0  0  0
  8 27  1  0  0  0
  9 11  1  0  0  0
  9 28  1  0  0  0
 10 12  1  0  0  0
 10 14  1  0  0  0
 10 29  1  0  0  0
 11 13  1  0  0  0
 11 30  1  0  0  0
 12 15  1  0  0  0
 12 16  1  0  0  0
 15 31  1  0  0  0
 15 32  1  0  0  0
 15 33  1  0  0  0
 16 34  1  0  0  0
 16 35  1  0  0  0
 16 36  1  0  0  0
 17 18  1  0  0  0
 18 19  1  0  0  0
 18 37  1  0  0  0
 19 23  1  0  0  0
 19 38  1  0  0  0
 19 39  1  0  0  0
 20 21  2  0  0  0
 20 22  1  0  0  0
 21 24  1  0  0  0
 21 40  1  0  0  0
 22 25  2  0  0  0
 22 41  1  0  0  0
 23 42  1  0  0  0
 23 43  1  0  0  0
 23 44  1  0  0  0
 24 26  2  0  0  0
 24 45  1  0  0  0
 25 26  1  0  0  0
 25 46  1  0  0  0
 26 47  1  0  0  0
M  END
> <s_m_entry_id>
7423

> <s_m_entry_name>
dock_pv.14

> <s_m_Source_Path>
/home/csk/Desktop/cluster/DUD-E-result/ampc

> <s_m_Source_File>
dock_pv.maegz

> <i_m_Source_File_Index>
14

> <chembl_id>
CHEMBL1539961

> <chembl_pref_name>
None

> <i_lp_mmshare_version>
53161

> <i_f3d_flags>
0

> <r_lp_tautomer_probability>
1

> <s_lp_Force_Field>
OPLS_2005

> <r_lp_Energy>
16.498816

> <b_lp_Chiralities_Consistent>
1

> <s_lp_Variant>
CHEMBL2026_lig46-7

> <s_i_glide_gridfile>
glide-grid_1l2s

> <i_i_glide_lignum>
70

> <i_i_glide_rotatable_bonds>
8

> <r_i_docking_score>
-6.91053623443715

> <r_i_glide_ligand_efficiency>
-0.26578985517066

> <r_i_glide_ligand_efficiency_sa>
-0.787401400110501

> <r_i_glide_ligand_efficiency_ln>
-1.6229167593387

> <r_i_glide_gscore>
-6.91053623443715

> <r_i_glide_lipo>
-2.06093333927315

> <r_i_glide_hbond>
-0.576954673143962

> <r_i_glide_metal>
0

> <r_i_glide_rewards>
-1.79514383270437

> <r_i_glide_evdw>
-36.7239303588867

> <r_i_glide_ecoul>
-8.77171611785889

> <r_i_glide_erotb>
0.676556404593282

> <r_i_glide_esite>
-0.00210685828579371

> <r_i_glide_emodel>
-65.2182978895666

> <r_i_glide_energy>
-45.4956464767456

> <r_i_glide_einternal>
3.41331911087036

> <i_i_glide_confnum>
20

> <i_i_glide_posenum>
400

> <r_i_glide_eff_state_penalty>
0

> <s_user_duplicate_titles>
CHEMBL2026_lig46

> <s_m_subgroup_title>
dock_pv

> <s_m_subgroupid>
dock_pv

> <b_m_subgroup_collapsed>
0

$$$$
CHEMBL2026_lig7
                    3D
 Schrodinger Suite 2021-1.
 48 51  0  0  1  0            999 V2000
   78.9299    7.0567   32.9514 O   0  0  0  0  0  0
   81.8080    3.5789   33.5757 O   0  0  0  0  0  0
   77.5757    5.2731   31.5138 O   0  0  0  0  0  0
   78.2972    3.4567   30.3817 O   0  0  0  0  0  0
   80.1750    9.5468   37.8211 O   0  0  0  0  0  0
   81.7933    8.4870   39.0150 O   0  0  0  0  0  0
   80.2608    5.1966   32.9379 N   0  0  0  0  0  0
   80.4256    6.5453   34.7800 C   0  0  0  0  0  0
   81.2992    5.5168   34.9497 C   0  0  0  0  0  0
   79.7566    6.3356   33.4773 C   0  0  0  0  0  0
   81.1837    4.6200   33.7638 C   0  0  0  0  0  0
   80.0097    4.7702   31.5131 C   0  0  1  0  0  0
   80.2972    7.5625   35.7305 C   0  0  0  0  0  0
   82.1072    5.4559   36.0857 C   0  0  0  0  0  0
   81.0922    7.5248   36.8930 C   0  0  0  0  0  0
   78.4870    4.5493   31.1762 C   0  0  0  0  0  0
   81.9958    6.4568   37.0567 C   0  0  0  0  0  0
   80.7318    5.7543   30.5125 C   0  0  0  0  0  0
   80.1333    5.8871   29.1109 C   0  0  0  0  0  0
   80.9645    8.6128   37.9383 C   0  0  0  0  0  0
   78.9888    6.6606   28.9089 C   0  0  0  0  0  0
   80.6971    5.1993   28.0410 C   0  0  0  0  0  0
   78.8485    5.8601   26.6248 C   0  0  0  0  0  0
   78.3452    6.6336   27.6782 C   0  0  0  0  0  0
   80.0590    5.1836   26.8015 C   0  0  0  0  0  0
   78.0737    5.7437   25.3605 C   0  0  0  0  0  0
   76.6972    5.5511   25.4179 C   0  0  0  0  0  0
   78.6683    5.8503   24.1048 C   0  0  0  0  0  0
   75.9153    5.5315   24.2670 C   0  0  0  0  0  0
   77.8782    5.8567   22.9516 C   0  0  0  0  0  0
   76.5047    5.7190   23.0334 C   0  0  0  0  0  0
   79.1322    2.9941   30.2102 H   0  0  0  0  0  0
   81.6851    9.2192   39.6308 H   0  0  0  0  0  0
   80.4691    3.7898   31.3922 H   0  0  0  0  0  0
   79.5886    8.3664   35.5762 H   0  0  0  0  0  0
   82.8167    4.6567   36.2286 H   0  0  0  0  0  0
   82.6216    6.3928   37.9360 H   0  0  0  0  0  0
   80.7608    6.7670   30.9177 H   0  0  0  0  0  0
   81.7843    5.4764   30.4341 H   0  0  0  0  0  0
   78.5563    7.2247   29.7232 H   0  0  0  0  0  0
   81.6173    4.6567   28.1872 H   0  0  0  0  0  0
   77.4330    7.1988   27.5552 H   0  0  0  0  0  0
   80.4830    4.6060   25.9932 H   0  0  0  0  0  0
   76.2208    5.4567   26.3762 H   0  0  0  0  0  0
   79.7336    6.0046   24.0217 H   0  0  0  0  0  0
   74.8476    5.4292   24.3251 H   0  0  0  0  0  0
   78.2972    6.0339   21.9762 H   0  0  0  0  0  0
   75.8996    5.7496   22.1387 H   0  0  0  0  0  0
  1 10  2  0  0  0
  2 11  2  0  0  0
  3 16  2  0  0  0
  4 16  1  0  0  0
  4 32  1  0  0  0
  5 20  2  0  0  0
  6 20  1  0  0  0
  6 33  1  0  0  0
  7 10  1  0  0  0
  7 11  1  0  0  0
  7 12  1  0  0  0
  8  9  1  0  0  0
  8 10  1  0  0  0
  8 13  2  0  0  0
  9 11  1  0  0  0
  9 14  2  0  0  0
 12 16  1  0  0  0
 12 18  1  0  0  0
 12 34  1  0  0  0
 13 15  1  0  0  0
 13 35  1  0  0  0
 14 17  1  0  0  0
 14 36  1  0  0  0
 15 17  2  0  0  0
 15 20  1  0  0  0
 17 37  1  0  0  0
 18 19  1  0  0  0
 18 38  1  0  0  0
 18 39  1  0  0  0
 19 21  2  0  0  0
 19 22  1  0  0  0
 21 24  1  0  0  0
 21 40  1  0  0  0
 22 25  2  0  0  0
 22 41  1  0  0  0
 23 24  2  0  0  0
 23 25  1  0  0  0
 23 26  1  0  0  0
 24 42  1  0  0  0
 25 43  1  0  0  0
 26 27  2  0  0  0
 26 28  1  0  0  0
 27 29  1  0  0  0
 27 44  1  0  0  0
 28 30  2  0  0  0
 28 45  1  0  0  0
 29 31  2  0  0  0
 29 46  1  0  0  0
 30 31  1  0  0  0
 30 47  1  0  0  0
 31 48  1  0  0  0
M  END
> <s_m_entry_id>
7424

> <s_m_entry_name>
dock_pv.15

> <s_m_Source_Path>
/home/csk/Desktop/cluster/DUD-E-result/ampc

> <s_m_Source_File>
dock_pv.maegz

> <i_m_Source_File_Index>
15

> <chembl_id>
CHEMBL1591906

> <chembl_pref_name>
None

> <i_lp_mmshare_version>
53161

> <i_f3d_flags>
0

> <r_lp_tautomer_probability>
1

> <s_lp_Force_Field>
OPLS_2005

> <r_lp_Energy>
42.620913

> <b_lp_Chiralities_Consistent>
1

> <s_lp_Variant>
CHEMBL2026_lig7-1

> <s_i_glide_gridfile>
glide-grid_1l2s

> <i_i_glide_lignum>
7

> <i_i_glide_rotatable_bonds>
8

> <r_i_docking_score>
-6.90660724558521

> <r_i_glide_ligand_efficiency>
-0.222793782115652

> <r_i_glide_ligand_efficiency_sa>
-0.699880075810086

> <r_i_glide_ligand_efficiency_ln>
-1.55765159597189

> <r_i_glide_gscore>
-6.90660724558521

> <r_i_glide_lipo>
-2.08365302833107

> <r_i_glide_hbond>
-0.484676085832624

> <r_i_glide_metal>
0

> <r_i_glide_rewards>
-1.35226604200076

> <r_i_glide_evdw>
-31.7083473205566

> <r_i_glide_ecoul>
-13.8536491394043

> <r_i_glide_erotb>
0.686619440451809

> <r_i_glide_esite>
-0.00916679293409041

> <r_i_glide_emodel>
-64.1028002323815

> <r_i_glide_energy>
-45.5619964599609

> <r_i_glide_einternal>
4.95168209075928

> <i_i_glide_confnum>
30

> <i_i_glide_posenum>
176

> <r_i_glide_eff_state_penalty>
0

> <s_user_duplicate_titles>
CHEMBL2026_lig7

> <s_m_subgroup_title>
dock_pv

> <s_m_subgroupid>
dock_pv

> <b_m_subgroup_collapsed>
0

$$$$
CHEMBL2026_lig80
                    3D
 Schrodinger Suite 2021-1.
 45 47  0  0  1  0            999 V2000
   80.1887    7.6658   28.6555 S   0  0  0  0  0  0
   78.3025    3.4188   28.3769 O   0  0  0  0  0  0
   80.1284    5.8571   24.3764 O   0  0  0  0  0  0
   78.3271    6.9583   25.2309 O   0  0  0  0  0  0
   78.6972    6.6555   32.3787 O   0  0  0  0  0  0
   80.6673    6.0830   34.1100 O   0  0  0  0  0  0
   78.7618    5.6836   27.7458 N   0  0  0  0  0  0
   79.4081    5.2317   30.7949 N   0  0  0  0  0  0
   78.6574    6.7115   28.8045 C   0  0  1  0  0  0
   79.8143    5.7600   26.7351 C   0  0  2  0  0  0
   78.3830    5.5529   29.8036 C   0  0  1  0  0  0
   80.9694    6.5979   27.4056 C   0  0  0  0  0  0
   78.4577    4.6191   28.5792 C   0  0  0  0  0  0
   79.3188    6.2833   25.3815 C   0  0  0  0  0  0
   81.8733    5.6395   28.2198 C   0  0  0  0  0  0
   81.9194    7.4008   26.4845 C   0  0  0  0  0  0
   79.5000    5.7990   32.0059 C   0  0  0  0  0  0
   80.6824    5.3387   32.8876 C   0  0  2  0  0  0
   81.7626    6.0932   34.9513 C   0  0  0  0  0  0
   80.6523    3.8198   33.1859 C   0  0  0  0  0  0
   81.5655    6.6731   36.2049 C   0  0  0  0  0  0
   83.0298    5.5876   34.6170 C   0  0  0  0  0  0
   82.6110    6.7486   37.1210 C   0  0  0  0  0  0
   84.0762    5.6613   35.5317 C   0  0  0  0  0  0
   83.8632    6.2450   36.7769 C   0  0  0  0  0  0
   80.0603    4.4998   30.5516 H   0  0  0  0  0  0
   77.8263    7.4003   28.6357 H   0  0  0  0  0  0
   80.1444    4.7395   26.5328 H   0  0  0  0  0  0
   77.4161    5.5687   30.3121 H   0  0  0  0  0  0
   82.5000    5.0510   27.5529 H   0  0  0  0  0  0
   81.3149    4.9418   28.8415 H   0  0  0  0  0  0
   82.5531    6.1829   28.8783 H   0  0  0  0  0  0
   82.4172    6.7583   25.7570 H   0  0  0  0  0  0
   81.3784    8.1694   25.9314 H   0  0  0  0  0  0
   82.6942    7.9147   27.0555 H   0  0  0  0  0  0
   81.5663    5.5942   32.3013 H   0  0  0  0  0  0
   80.4399    3.2166   32.3030 H   0  0  0  0  0  0
   81.6019    3.4676   33.5856 H   0  0  0  0  0  0
   79.8970    3.5859   33.9332 H   0  0  0  0  0  0
   80.5931    7.0663   36.4649 H   0  0  0  0  0  0
   83.2251    5.1442   33.6543 H   0  0  0  0  0  0
   82.4515    7.2001   38.0895 H   0  0  0  0  0  0
   85.0520    5.2752   35.2755 H   0  0  0  0  0  0
   84.6763    6.3113   37.4851 H   0  0  0  0  0  0
   79.8974    6.3860   23.5987 H   0  0  0  0  0  0
  1  9  1  0  0  0
  1 12  1  0  0  0
  2 13  2  0  0  0
  3 14  1  0  0  0
  3 45  1  0  0  0
  4 14  2  0  0  0
  5 17  2  0  0  0
  6 18  1  0  0  0
  6 19  1  0  0  0
  7  9  1  0  0  0
  7 10  1  0  0  0
  7 13  1  0  0  0
  8 11  1  0  0  0
  8 17  1  0  0  0
  8 26  1  0  0  0
  9 11  1  0  0  0
  9 27  1  0  0  0
 10 12  1  0  0  0
 10 14  1  0  0  0
 10 28  1  0  0  0
 11 13  1  0  0  0
 11 29  1  0  0  0
 12 15  1  0  0  0
 12 16  1  0  0  0
 15 30  1  0  0  0
 15 31  1  0  0  0
 15 32  1  0  0  0
 16 33  1  0  0  0
 16 34  1  0  0  0
 16 35  1  0  0  0
 17 18  1  0  0  0
 18 20  1  0  0  0
 18 36  1  0  0  0
 19 21  2  0  0  0
 19 22  1  0  0  0
 20 37  1  0  0  0
 20 38  1  0  0  0
 20 39  1  0  0  0
 21 23  1  0  0  0
 21 40  1  0  0  0
 22 24  2  0  0  0
 22 41  1  0  0  0
 23 25  2  0  0  0
 23 42  1  0  0  0
 24 25  1  0  0  0
 24 43  1  0  0  0
 25 44  1  0  0  0
M  END
> <s_m_entry_id>
7425

> <s_m_entry_name>
dock_pv.16

> <s_m_Source_Path>
/home/csk/Desktop/cluster/DUD-E-result/ampc

> <s_m_Source_File>
dock_pv.maegz

> <i_m_Source_File_Index>
16

> <chembl_id>
CHEMBL1484438

> <chembl_pref_name>
None

> <i_lp_mmshare_version>
53161

> <i_f3d_flags>
0

> <r_lp_tautomer_probability>
1

> <s_lp_Force_Field>
OPLS_2005

> <r_lp_Energy>
14.311771

> <b_lp_Chiralities_Consistent>
1

> <s_lp_Variant>
CHEMBL2026_lig80-6

> <s_i_glide_gridfile>
glide-grid_1l2s

> <i_i_glide_lignum>
139

> <i_i_glide_rotatable_bonds>
7

> <r_i_docking_score>
-6.83272293555153

> <r_i_glide_ligand_efficiency>
-0.273308917422061

> <r_i_glide_ligand_efficiency_sa>
-0.799160121696396

> <r_i_glide_ligand_efficiency_ln>
-1.61956009590896

> <r_i_glide_gscore>
-6.83272293555153

> <r_i_glide_lipo>
-1.09071230104975

> <r_i_glide_hbond>
-1.57739802790139

> <r_i_glide_metal>
0

> <r_i_glide_rewards>
-1.16005668069889

> <r_i_glide_evdw>
-32.9254989624023

> <r_i_glide_ecoul>
-13.306830406189

> <r_i_glide_erotb>
0.723817599576657

> <r_i_glide_esite>
-0.0860740164296993

> <r_i_glide_emodel>
-64.3792652791066

> <r_i_glide_energy>
-46.2323293685913

> <r_i_glide_einternal>
4.34224843978882

> <i_i_glide_confnum>
24

> <i_i_glide_posenum>
91

> <r_i_glide_eff_state_penalty>
0

> <s_user_duplicate_titles>
CHEMBL2026_lig80

> <s_m_subgroup_title>
dock_pv

> <s_m_subgroupid>
dock_pv

> <b_m_subgroup_collapsed>
0

$$$$
CHEMBL2026_lig59
                    3D
 Schrodinger Suite 2021-1.
 29 31  0  0  1  0            999 V2000
   85.1903    5.5655   29.5761 O   0  0  0  0  0  0
   85.1317    7.8009   29.9178 O   0  0  0  0  0  0
   78.2991    3.5040   27.6368 O   0  0  0  0  0  0
   81.2263    6.9094   25.9480 O   0  0  0  0  0  0
   79.2077    7.6444   28.8586 O   0  5  0  0  0  0
   80.3758    9.4440   28.8018 O   0  0  0  0  0  0
   77.6709    5.4568   23.6155 O   0  0  0  0  0  0
   80.2916    8.2198   28.8558 N   0  3  0  0  0  0
   78.0571    4.5157   25.6482 N   0  0  0  0  0  0
   79.4189    6.1638   24.8803 N   0  0  0  0  0  0
   81.6129    6.0228   28.7321 C   0  0  0  0  0  0
   81.5504    7.4293   28.9803 C   0  0  0  0  0  0
   83.9386    6.0292   29.3231 C   0  0  0  0  0  0
   83.9015    7.3739   29.5264 C   0  0  0  0  0  0
   79.8398    5.2520   27.0373 C   0  0  0  0  0  0
   82.8140    5.3212   28.9352 C   0  0  0  0  0  0
   80.4766    5.2102   28.2432 C   0  0  0  0  0  0
   82.7295    8.1024   29.3735 C   0  0  0  0  0  0
   78.6977    4.3504   26.8331 C   0  0  0  0  0  0
   80.2426    6.1740   25.9578 C   0  0  0  0  0  0
   78.3321    5.3870   24.6445 C   0  0  0  0  0  0
   85.9878    6.7110   29.7003 C   0  0  0  0  0  0
   77.2641    3.9162   25.4853 H   0  0  0  0  0  0
   79.6543    6.8119   24.1389 H   0  0  0  0  0  0
   82.8773    4.2563   28.7761 H   0  0  0  0  0  0
   80.1318    4.5083   28.9923 H   0  0  0  0  0  0
   82.7286    9.1659   29.5662 H   0  0  0  0  0  0
   86.6959    6.6005   30.5199 H   0  0  0  0  0  0
   86.5418    6.8677   28.7721 H   0  0  0  0  0  0
  1 13  1  0  0  0
  1 22  1  0  0  0
  2 14  1  0  0  0
  2 22  1  0  0  0
  3 19  2  0  0  0
  4 20  2  0  0  0
  5  8  1  0  0  0
  6  8  2  0  0  0
  7 21  2  0  0  0
  8 12  1  0  0  0
  9 19  1  0  0  0
  9 21  1  0  0  0
  9 23  1  0  0  0
 10 20  1  0  0  0
 10 21  1  0  0  0
 10 24  1  0  0  0
 11 12  1  0  0  0
 11 16  2  0  0  0
 11 17  1  0  0  0
 12 18  2  0  0  0
 13 14  2  0  0  0
 13 16  1  0  0  0
 14 18  1  0  0  0
 15 17  2  0  0  0
 15 19  1  0  0  0
 15 20  1  0  0  0
 16 25  1  0  0  0
 17 26  1  0  0  0
 18 27  1  0  0  0
 22 28  1  0  0  0
 22 29  1  0  0  0
M  CHG  2   5  -1   8   1
M  END
> <s_m_entry_id>
7426

> <s_m_entry_name>
dock_pv.17

> <s_m_Source_Path>
/home/csk/Desktop/cluster/DUD-E-result/ampc

> <s_m_Source_File>
dock_pv.maegz

> <i_m_Source_File_Index>
17

> <chembl_id>
CHEMBL1312673

> <chembl_pref_name>
None

> <i_lp_mmshare_version>
53161

> <i_f3d_flags>
0

> <r_lp_tautomer_probability>
1

> <s_lp_Force_Field>
OPLS_2005

> <r_lp_Energy>
40.455254

> <b_lp_Chiralities_Consistent>
1

> <s_lp_Variant>
CHEMBL2026_lig59-1

> <s_i_glide_gridfile>
glide-grid_1l2s

> <i_i_glide_lignum>
95

> <i_i_glide_rotatable_bonds>
2

> <r_i_docking_score>
-6.82967350219129

> <r_i_glide_ligand_efficiency>
-0.310439704645059

> <r_i_glide_ligand_efficiency_sa>
-0.869864261316234

> <r_i_glide_ligand_efficiency_ln>
-1.66942132232943

> <r_i_glide_gscore>
-6.82967350219129

> <r_i_glide_lipo>
-0.637652387160515

> <r_i_glide_hbond>
-0.897877796569451

> <r_i_glide_metal>
0

> <r_i_glide_rewards>
-2.68415602782406

> <r_i_glide_evdw>
-27.9048500061035

> <r_i_glide_ecoul>
-9.34007167816162

> <r_i_glide_erotb>
0.198112746037364

> <r_i_glide_esite>
-0.0118467846452031

> <r_i_glide_emodel>
-51.2333403763106

> <r_i_glide_energy>
-37.2449216842651

> <r_i_glide_einternal>
1.40890312194824

> <i_i_glide_confnum>
3

> <i_i_glide_posenum>
199

> <r_i_glide_eff_state_penalty>
0

> <s_user_duplicate_titles>
CHEMBL2026_lig59

> <s_m_subgroup_title>
dock_pv

> <s_m_subgroupid>
dock_pv

> <b_m_subgroup_collapsed>
0

$$$$
201
                    3D
 Schrodinger Suite 2021-1.
 39 41  0  0  1  0            999 V2000
   77.4954    4.4263   30.2828 O   0  0  0  0  0  0
   78.3552    4.3907   29.2277 C   0  0  0  0  0  0
   78.3015    3.4525   28.4360 O   0  0  0  0  0  0
   79.3209    5.5858   29.0499 C   0  0  2  0  0  0
   80.0355    5.6247   27.6694 C   0  0  0  0  0  0
   79.0832    5.5493   26.4856 C   0  0  0  0  0  0
   78.0856    6.5312   26.3081 C   0  0  0  0  0  0
   77.1096    6.3646   25.3073 C   0  0  0  0  0  0
   77.1262    5.2285   24.4855 C   0  0  0  0  0  0
   76.1380    5.0542   23.5659 O   0  0  0  0  0  0
   78.1502    4.2725   24.6248 C   0  0  0  0  0  0
   79.1307    4.4367   25.6181 C   0  0  0  0  0  0
   80.2158    5.7365   30.2260 N   0  0  0  0  0  0
   81.5110    5.3236   30.3459 C   0  0  0  0  0  0
   82.2470    4.8123   29.5031 O   0  0  0  0  0  0
   81.9047    5.5775   31.7554 C   0  0  0  0  0  0
   80.8186    6.0989   32.4033 C   0  0  0  0  0  0
   80.8301    6.4035   33.7742 C   0  0  0  0  0  0
   82.0333    6.1591   34.4887 C   0  0  0  0  0  0
   83.1697    5.6386   33.7998 C   0  0  0  0  0  0
   83.1188    5.3413   32.4163 C   0  0  0  0  0  0
   82.0892    6.4488   35.9642 C   0  0  0  0  0  0
   83.3259    6.3404   36.5251 O   0  0  0  0  0  0
   81.0988    6.7923   36.6015 O   0  0  0  0  0  0
   79.7351    6.2203   31.4053 C   0  0  0  0  0  0
   78.6030    6.6500   31.6353 O   0  0  0  0  0  0
   77.6293    5.1968   30.8210 H   0  0  0  0  0  0
   78.6752    6.4651   29.0570 H   0  0  0  0  0  0
   80.7321    4.7960   27.5755 H   0  0  0  0  0  0
   80.6213    6.5395   27.5778 H   0  0  0  0  0  0
   78.0399    7.3928   26.9576 H   0  0  0  0  0  0
   76.3267    7.0974   25.1754 H   0  0  0  0  0  0
   76.2482    4.2259   23.1053 H   0  0  0  0  0  0
   78.1754    3.3999   23.9914 H   0  0  0  0  0  0
   79.8860    3.6758   25.7471 H   0  0  0  0  0  0
   79.9509    6.8002   34.2624 H   0  0  0  0  0  0
   84.0923    5.4510   34.3302 H   0  0  0  0  0  0
   83.9737    4.9400   31.8924 H   0  0  0  0  0  0
   83.3121    6.6451   37.4196 H   0  0  0  0  0  0
  1  2  1  0  0  0
  1 27  1  0  0  0
  2  3  2  0  0  0
  2  4  1  0  0  0
  4  5  1  0  0  0
  4 13  1  0  0  0
  4 28  1  0  0  0
  5  6  1  0  0  0
  5 29  1  0  0  0
  5 30  1  0  0  0
  6 12  1  0  0  0
  6  7  2  0  0  0
  7  8  1  0  0  0
  7 31  1  0  0  0
  8  9  2  0  0  0
  8 32  1  0  0  0
  9 10  1  0  0  0
  9 11  1  0  0  0
 10 33  1  0  0  0
 11 12  2  0  0  0
 11 34  1  0  0  0
 12 35  1  0  0  0
 13 25  1  0  0  0
 13 14  1  0  0  0
 14 15  2  0  0  0
 14 16  1  0  0  0
 16 21  1  0  0  0
 16 17  2  0  0  0
 17 18  1  0  0  0
 17 25  1  0  0  0
 18 19  2  0  0  0
 18 36  1  0  0  0
 19 20  1  0  0  0
 19 22  1  0  0  0
 20 21  2  0  0  0
 20 37  1  0  0  0
 21 38  1  0  0  0
 22 23  1  0  0  0
 22 24  2  0  0  0
 23 39  1  0  0  0
 25 26  2  0  0  0
M  END
> <s_m_entry_id>
7565

> <s_m_entry_name>
ligand_docking-pose.1

> <s_m_Source_Path>
/home/csk/Desktop/cluster/DUD-E-result/ampc

> <s_m_Source_File>
ligand_docking-pose.sdf

> <i_m_Source_File_Index>
1

> <i_lp_mmshare_version>
53161

> <r_lp_tautomer_probability>
0.999999999997365

> <s_lp_Force_Field>
OPLS_2005

> <r_lp_Energy>
37.454506

> <b_lp_Chiralities_Consistent>
1

> <s_lp_Variant>
201-1

> <s_i_glide_gridfile>
glide-grid_1l2s

> <i_i_glide_lignum>
23

> <i_i_glide_rotatable_bonds>
8

> <r_i_docking_score>
-7.80753244852146

> <r_i_glide_ligand_efficiency>
-0.300289709558518

> <r_i_glide_ligand_efficiency_sa>
-0.889607082984158

> <r_i_glide_ligand_efficiency_ln>
-1.83357337693175

> <r_i_glide_gscore>
-7.80753244852146

> <r_i_glide_lipo>
-1.67078413327882

> <r_i_glide_hbond>
-1.8771659334468

> <r_i_glide_metal>
0

> <r_i_glide_rewards>
-1.26548980123971

> <r_i_glide_evdw>
-36.301212310791

> <r_i_glide_ecoul>
-12.193585395813

> <r_i_glide_erotb>
0.757263260294589

> <r_i_glide_esite>
-0.107257415939212

> <r_i_glide_emodel>
-68.7152454244573

> <r_i_glide_energy>
-48.494797706604

> <r_i_glide_einternal>
5.46898221969604

> <i_i_glide_confnum>
3

> <i_i_glide_posenum>
201

> <r_i_glide_eff_state_penalty>
0

> <i_f3d_flags>
0

> <s_user_duplicate_titles>
201,204

> <s_m_subgroup_title>
dock_pv

> <s_m_subgroupid>
dock_pv1

> <b_m_subgroup_collapsed>
0

$$$$
202
                    3D
 Schrodinger Suite 2021-1.
 38 40  0  0  1  0            999 V2000
   77.3211    4.6848   30.3772 O   0  0  0  0  0  0
   78.2973    4.4859   29.4488 C   0  0  0  0  0  0
   78.2972    3.4568   28.7752 O   0  0  0  0  0  0
   79.3382    5.6079   29.2415 C   0  0  2  0  0  0
   80.0466    5.5380   27.8548 C   0  0  0  0  0  0
   79.1341    5.4104   26.6420 C   0  0  0  0  0  0
   79.1776    4.2375   25.8571 C   0  0  0  0  0  0
   78.2975    4.0718   24.7737 C   0  0  0  0  0  0
   77.3802    5.0884   24.4521 C   0  0  0  0  0  0
   77.3476    6.2683   25.2174 C   0  0  0  0  0  0
   78.2203    6.4322   26.3114 C   0  0  0  0  0  0
   80.2554    5.7271   30.4101 N   0  0  0  0  0  0
   81.5543    5.3093   30.4843 C   0  0  0  0  0  0
   82.2949    4.8784   29.6024 O   0  0  0  0  0  0
   81.9522    5.4167   31.9074 C   0  0  0  0  0  0
   80.8773    5.8802   32.6117 C   0  0  0  0  0  0
   80.8836    5.9920   34.0141 C   0  0  0  0  0  0
   82.0728    5.5989   34.6916 C   0  0  0  0  0  0
   83.1978    5.1515   33.9400 C   0  0  0  0  0  0
   83.1521    5.0568   32.5317 C   0  0  0  0  0  0
   82.1649    5.6093   36.1929 C   0  0  0  0  0  0
   81.0973    6.1600   36.8375 O   0  0  0  0  0  0
   83.0964    5.0568   36.7761 O   0  0  0  0  0  0
   79.7988    6.1316   31.6307 C   0  0  0  0  0  0
   78.6948    6.6063   31.9026 O   0  0  0  0  0  0
   77.4668    5.4766   30.8806 H   0  0  0  0  0  0
   78.7584    6.5320   29.2236 H   0  0  0  0  0  0
   80.7089    4.6776   27.8194 H   0  0  0  0  0  0
   80.6749    6.4182   27.7136 H   0  0  0  0  0  0
   79.8737    3.4479   26.0963 H   0  0  0  0  0  0
   78.3231    3.1653   24.1870 H   0  0  0  0  0  0
   76.7064    4.9659   23.6167 H   0  0  0  0  0  0
   76.6512    7.0548   24.9636 H   0  0  0  0  0  0
   78.1805    7.3395   26.8966 H   0  0  0  0  0  0
   79.9964    6.3235   34.5345 H   0  0  0  0  0  0
   84.1052    4.8552   34.4471 H   0  0  0  0  0  0
   83.9919    4.6890   31.9615 H   0  0  0  0  0  0
   80.5920    6.7468   36.2986 H   0  0  0  0  0  0
  1  2  1  0  0  0
  1 26  1  0  0  0
  2  3  2  0  0  0
  2  4  1  0  0  0
  4  5  1  0  0  0
  4 12  1  0  0  0
  4 27  1  0  0  0
  5  6  1  0  0  0
  5 28  1  0  0  0
  5 29  1  0  0  0
  6 11  1  0  0  0
  6  7  2  0  0  0
  7  8  1  0  0  0
  7 30  1  0  0  0
  8  9  2  0  0  0
  8 31  1  0  0  0
  9 10  1  0  0  0
  9 32  1  0  0  0
 10 11  2  0  0  0
 10 33  1  0  0  0
 11 34  1  0  0  0
 12 24  1  0  0  0
 12 13  1  0  0  0
 13 14  2  0  0  0
 13 15  1  0  0  0
 15 20  1  0  0  0
 15 16  2  0  0  0
 16 17  1  0  0  0
 16 24  1  0  0  0
 17 18  2  0  0  0
 17 35  1  0  0  0
 18 19  1  0  0  0
 18 21  1  0  0  0
 19 20  2  0  0  0
 19 36  1  0  0  0
 20 37  1  0  0  0
 21 22  1  0  0  0
 21 23  2  0  0  0
 22 38  1  0  0  0
 24 25  2  0  0  0
M  END
> <s_m_entry_id>
7567

> <s_m_entry_name>
ligand_docking-pose.3

> <s_m_Source_Path>
/home/csk/Desktop/cluster/DUD-E-result/ampc

> <s_m_Source_File>
ligand_docking-pose.sdf

> <i_m_Source_File_Index>
3

> <i_lp_mmshare_version>
53161

> <r_lp_tautomer_probability>
1

> <s_lp_Force_Field>
OPLS_2005

> <r_lp_Energy>
36.125428

> <b_lp_Chiralities_Consistent>
1

> <s_lp_Variant>
202-1

> <s_i_glide_gridfile>
glide-grid_1l2s

> <i_i_glide_lignum>
27

> <i_i_glide_rotatable_bonds>
7

> <r_i_docking_score>
-7.60177426514513

> <r_i_glide_ligand_efficiency>
-0.304070970605805

> <r_i_glide_ligand_efficiency_sa>
-0.889108910773

> <r_i_glide_ligand_efficiency_ln>
-1.80184830763124

> <r_i_glide_gscore>
-7.60177426514513

> <r_i_glide_lipo>
-1.79266896157282

> <r_i_glide_hbond>
-1.4014011531661

> <r_i_glide_metal>
0

> <r_i_glide_rewards>
-1.50031707673284

> <r_i_glide_evdw>
-39.1313629150391

> <r_i_glide_ecoul>
-11.2113761901855

> <r_i_glide_erotb>
0.821851734116176

> <r_i_glide_esite>
-0.0909642335097602

> <r_i_glide_emodel>
-66.7963936267375

> <r_i_glide_energy>
-50.3427391052246

> <r_i_glide_einternal>
10.2425289154053

> <i_i_glide_confnum>
57

> <i_i_glide_posenum>
73

> <r_i_glide_eff_state_penalty>
0

> <i_f3d_flags>
0

> <s_user_duplicate_titles>
202

> <s_m_subgroup_title>
dock_pv

> <s_m_subgroupid>
dock_pv1

> <b_m_subgroup_collapsed>
0

$$$$
301
                    3D
 Schrodinger Suite 2021-1.
 32 34  0  0  1  0            999 V2000
   81.0663    5.2753   30.0549 C   0  0  0  0  0  0
   79.6270    5.8027   29.9154 C   0  0  2  0  0  0
   78.6745    5.1999   30.9584 C   0  0  0  0  0  0
   77.8977    5.9230   31.5761 O   0  0  0  0  0  0
   78.6980    3.8524   31.1656 O   0  0  0  0  0  0
   79.1624    5.6859   28.5202 N   0  0  0  0  0  0
   79.2512    6.7210   27.6404 C   0  0  0  0  0  0
   79.7671    7.8250   27.8008 O   0  0  0  0  0  0
   78.4417    6.3058   26.4316 C   0  0  1  0  0  0
   78.4488    6.6313   24.9135 C   0  0  2  0  0  0
   76.9760    6.4181   24.4957 C   0  0  0  0  0  0
   76.7480    4.9063   24.8143 C   0  0  0  0  0  0
   78.1785    4.3731   25.1020 C   0  0  1  0  0  0
   78.9846    5.3564   24.2245 C   0  0  0  0  0  0
   78.8302    4.8620   26.4107 C   0  0  2  0  0  0
   78.6983    4.5680   27.8876 C   0  0  0  0  0  0
   78.3219    3.4923   28.3565 O   0  0  0  0  0  0
   79.6633    6.8641   30.1651 H   0  0  0  0  0  0
   77.4256    6.4596   26.8078 H   0  0  0  0  0  0
   78.8960    7.5763   24.6134 H   0  0  0  0  0  0
   78.3400    3.3190   24.8715 H   0  0  0  0  0  0
   79.9087    4.7057   26.2910 H   0  0  0  0  0  0
   81.4005    5.2946   31.0933 H   0  0  0  0  0  0
   81.1647    4.2563   29.6865 H   0  0  0  0  0  0
   81.7608    5.8922   29.4801 H   0  0  0  0  0  0
   76.2964    7.0741   25.0291 H   0  0  0  0  0  0
   76.8415    6.6201   23.4313 H   0  0  0  0  0  0
   76.0870    4.7631   25.6645 H   0  0  0  0  0  0
   76.2971    4.3940   23.9655 H   0  0  0  0  0  0
   78.6967    5.3004   23.1757 H   0  0  0  0  0  0
   80.0710    5.2561   24.2703 H   0  0  0  0  0  0
   79.3237    3.3864   30.6235 H   0  0  0  0  0  0
  1  2  1  0  0  0
  1 23  1  0  0  0
  1 24  1  0  0  0
  1 25  1  0  0  0
  2 18  1  0  0  0
  2  3  1  0  0  0
  2  6  1  0  0  0
  3  4  2  0  0  0
  3  5  1  0  0  0
  5 32  1  0  0  0
  6 16  1  0  0  0
  6  7  1  0  0  0
  7  8  2  0  0  0
  7  9  1  0  0  0
  9 19  1  0  0  0
  9 15  1  0  0  0
  9 10  1  0  0  0
 10 20  1  0  0  0
 10 14  1  0  0  0
 10 11  1  0  0  0
 11 12  1  0  0  0
 11 26  1  0  0  0
 11 27  1  0  0  0
 12 13  1  0  0  0
 12 28  1  0  0  0
 12 29  1  0  0  0
 13 21  1  0  0  0
 13 14  1  0  0  0
 13 15  1  0  0  0
 14 30  1  0  0  0
 14 31  1  0  0  0
 15 22  1  0  0  0
 15 16  1  0  0  0
 16 17  2  0  0  0
M  END
> <s_m_entry_id>
7568

> <s_m_entry_name>
ligand_docking-pose.4

> <s_m_Source_Path>
/home/csk/Desktop/cluster/DUD-E-result/ampc

> <s_m_Source_File>
ligand_docking-pose.sdf

> <i_m_Source_File_Index>
4

> <i_lp_mmshare_version>
53161

> <r_lp_tautomer_probability>
1

> <s_lp_Force_Field>
OPLS_2005

> <r_lp_Energy>
110.612168

> <b_lp_Chiralities_Consistent>
1

> <s_lp_Variant>
301-1

> <s_i_glide_gridfile>
glide-grid_1l2s

> <i_i_glide_lignum>
46

> <i_i_glide_rotatable_bonds>
3

> <r_i_docking_score>
-7.17580184213167

> <r_i_glide_ligand_efficiency>
-0.422105990713627

> <r_i_glide_ligand_efficiency_sa>
-1.08535336220349

> <r_i_glide_ligand_efficiency_ln>
-1.87200690336176

> <r_i_glide_gscore>
-7.17580184213167

> <r_i_glide_lipo>
-1.20326155079437

> <r_i_glide_hbond>
-1.23951822943081

> <r_i_glide_metal>
0

> <r_i_glide_rewards>
-2.13980510054737

> <r_i_glide_evdw>
-26.048023223877

> <r_i_glide_ecoul>
-10.3003387451172

> <r_i_glide_erotb>
0.306197959347923

> <r_i_glide_esite>
-0.051962947745622

> <r_i_glide_emodel>
-48.6214851416123

> <r_i_glide_energy>
-36.3483619689941

> <r_i_glide_einternal>
5.78223371505737

> <i_i_glide_confnum>
2

> <i_i_glide_posenum>
336

> <r_i_glide_eff_state_penalty>
0

> <i_f3d_flags>
0

> <s_user_duplicate_titles>
301

> <s_m_subgroup_title>
dock_pv

> <s_m_subgroupid>
dock_pv1

> <b_m_subgroup_collapsed>
0

$$$$
203
                    3D
 Schrodinger Suite 2021-1.
 39 41  0  0  1  0            999 V2000
   78.2972    3.4567   30.0615 O   0  0  0  0  0  0
   78.2379    4.8083   29.9762 C   0  0  0  0  0  0
   77.1633    5.3881   30.1211 O   0  0  0  0  0  0
   79.5549    5.5700   29.7393 C   0  0  1  0  0  0
   79.3648    6.9138   28.9985 C   0  0  0  0  0  0
   78.9831    6.7320   27.5341 C   0  0  0  0  0  0
   79.9707    6.7771   26.5276 C   0  0  0  0  0  0
   79.6129    6.5956   25.1762 C   0  0  0  0  0  0
   78.2717    6.3518   24.8213 C   0  0  0  0  0  0
   77.8972    6.2557   23.5133 O   0  0  0  0  0  0
   77.2974    6.2567   25.8242 C   0  0  0  0  0  0
   77.6447    6.4790   27.1689 C   0  0  0  0  0  0
   80.3112    5.7248   30.9972 N   0  0  0  0  0  0
   79.8064    6.1768   32.1777 C   0  0  0  0  0  0
   78.6972    6.6567   32.3951 O   0  0  0  0  0  0
   80.8551    5.9481   33.1961 C   0  0  0  0  0  0
   81.9562    5.4627   32.5437 C   0  0  0  0  0  0
   83.1110    5.0567   33.2286 C   0  0  0  0  0  0
   83.1029    5.1481   34.6467 C   0  0  0  0  0  0
   81.9533    5.6724   35.3140 C   0  0  0  0  0  0
   80.8079    6.0829   34.5910 C   0  0  0  0  0  0
   84.2960    4.6567   35.4207 C   0  0  0  0  0  0
   84.1555    4.7116   36.7762 O   0  0  0  0  0  0
   85.2384    4.0990   34.8614 O   0  0  0  0  0  0
   81.6224    5.3903   31.1008 C   0  0  0  0  0  0
   82.3953    5.0504   30.2068 O   0  0  0  0  0  0
   80.1435    4.9306   29.0788 H   0  0  0  0  0  0
   79.1816    3.1015   29.9808 H   0  0  0  0  0  0
   80.2936    7.4849   29.0348 H   0  0  0  0  0  0
   78.6176    7.5350   29.4956 H   0  0  0  0  0  0
   81.0034    6.9616   26.7856 H   0  0  0  0  0  0
   80.3703    6.6567   24.4111 H   0  0  0  0  0  0
   78.5195    6.7022   22.9458 H   0  0  0  0  0  0
   76.2720    6.0655   25.5522 H   0  0  0  0  0  0
   76.8701    6.4524   27.9186 H   0  0  0  0  0  0
   83.9557    4.6567   32.6863 H   0  0  0  0  0  0
   81.9129    5.7453   36.3906 H   0  0  0  0  0  0
   79.9240    6.4509   35.0936 H   0  0  0  0  0  0
   83.6383    5.4567   37.0405 H   0  0  0  0  0  0
  1  2  1  0  0  0
  1 28  1  0  0  0
  2  3  2  0  0  0
  2  4  1  0  0  0
  4 27  1  0  0  0
  4  5  1  0  0  0
  4 13  1  0  0  0
  5  6  1  0  0  0
  5 29  1  0  0  0
  5 30  1  0  0  0
  6 12  1  0  0  0
  6  7  2  0  0  0
  7  8  1  0  0  0
  7 31  1  0  0  0
  8  9  2  0  0  0
  8 32  1  0  0  0
  9 10  1  0  0  0
  9 11  1  0  0  0
 10 33  1  0  0  0
 11 12  2  0  0  0
 11 34  1  0  0  0
 12 35  1  0  0  0
 13 25  1  0  0  0
 13 14  1  0  0  0
 14 15  2  0  0  0
 14 16  1  0  0  0
 16 21  1  0  0  0
 16 17  2  0  0  0
 17 18  1  0  0  0
 17 25  1  0  0  0
 18 19  2  0  0  0
 18 36  1  0  0  0
 19 20  1  0  0  0
 19 22  1  0  0  0
 20 21  2  0  0  0
 20 37  1  0  0  0
 21 38  1  0  0  0
 22 23  1  0  0  0
 22 24  2  0  0  0
 23 39  1  0  0  0
 25 26  2  0  0  0
M  END
> <s_m_entry_id>
7569

> <s_m_entry_name>
ligand_docking-pose.5

> <s_m_Source_Path>
/home/csk/Desktop/cluster/DUD-E-result/ampc

> <s_m_Source_File>
ligand_docking-pose.sdf

> <i_m_Source_File_Index>
5

> <i_lp_mmshare_version>
53161

> <r_lp_tautomer_probability>
0.999999999997365

> <s_lp_Force_Field>
OPLS_2005

> <r_lp_Energy>
36.422205

> <b_lp_Chiralities_Consistent>
1

> <s_lp_Variant>
203-1

> <s_i_glide_gridfile>
glide-grid_1l2s

> <i_i_glide_lignum>
15

> <i_i_glide_rotatable_bonds>
8

> <r_i_docking_score>
-7.09700700195538

> <r_i_glide_ligand_efficiency>
-0.272961807767515

> <r_i_glide_ligand_efficiency_sa>
-0.808648281458413

> <r_i_glide_ligand_efficiency_ln>
-1.66670880722986

> <r_i_glide_gscore>
-7.09700700195538

> <r_i_glide_lipo>
-1.02797213122614

> <r_i_glide_hbond>
-1.06321648249359

> <r_i_glide_metal>
0

> <r_i_glide_rewards>
-1.40398222377931

> <r_i_glide_evdw>
-34.6465339660645

> <r_i_glide_ecoul>
-17.1425018310547

> <r_i_glide_erotb>
0.757263260294589

> <r_i_glide_esite>
-0.055397451789512

> <r_i_glide_emodel>
-68.5902582383333

> <r_i_glide_energy>
-51.7890357971191

> <r_i_glide_einternal>
9.31418609619141

> <i_i_glide_confnum>
60

> <i_i_glide_posenum>
371

> <r_i_glide_eff_state_penalty>
0

> <i_f3d_flags>
0

> <s_user_duplicate_titles>
203

> <s_m_subgroup_title>
dock_pv

> <s_m_subgroupid>
dock_pv1

> <b_m_subgroup_collapsed>
0

$$$$
205
                    3D
 Schrodinger Suite 2021-1.
 35 37  0  0  1  0            999 V2000
   77.3784    4.6578   30.3762 O   0  0  0  0  0  0
   78.3172    4.4746   29.4064 C   0  0  0  0  0  0
   78.2974    3.4570   28.7169 O   0  0  0  0  0  0
   79.3479    5.5991   29.1728 C   0  0  2  0  0  0
   80.0532    5.5181   27.7866 C   0  0  0  0  0  0
   79.1367    5.4009   26.5761 C   0  0  0  0  0  0
   79.1904    4.2456   25.7656 C   0  0  0  0  0  0
   78.3120    4.0988   24.6772 C   0  0  0  0  0  0
   77.3812    5.1117   24.3834 C   0  0  0  0  0  0
   77.3359    6.2717   25.1772 C   0  0  0  0  0  0
   78.2109    6.4202   26.2714 C   0  0  0  0  0  0
   80.2730    5.7522   30.3290 N   0  0  0  0  0  0
   81.5770    5.3494   30.4177 C   0  0  0  0  0  0
   82.2971    4.8294   29.5672 O   0  0  0  0  0  0
   82.0185    5.6443   31.8034 C   0  0  0  0  0  0
   80.9489    6.1702   32.4758 C   0  0  0  0  0  0
   81.0137    6.5412   33.8288 C   0  0  0  0  0  0
   82.2544    6.3511   34.4828 C   0  0  0  0  0  0
   83.3702    5.8171   33.7843 C   0  0  0  0  0  0
   83.2671    5.4569   32.4188 C   0  0  0  0  0  0
   79.8248    6.2393   31.5195 C   0  0  0  0  0  0
   78.6966    6.6567   31.7856 O   0  0  0  0  0  0
   77.5395    5.4486   30.8772 H   0  0  0  0  0  0
   78.7579    6.5163   29.1401 H   0  0  0  0  0  0
   80.7133    4.6567   27.7549 H   0  0  0  0  0  0
   80.6853    6.3949   27.6425 H   0  0  0  0  0  0
   79.8935    3.4565   25.9852 H   0  0  0  0  0  0
   78.3471    3.2076   24.0677 H   0  0  0  0  0  0
   76.7050    5.0019   23.5488 H   0  0  0  0  0  0
   76.6267    7.0524   24.9442 H   0  0  0  0  0  0
   78.1625    7.3140   26.8761 H   0  0  0  0  0  0
   80.1583    6.9517   34.3473 H   0  0  0  0  0  0
   82.3533    6.6204   35.5248 H   0  0  0  0  0  0
   84.3083    5.6867   34.3027 H   0  0  0  0  0  0
   84.1084    5.0532   31.8749 H   0  0  0  0  0  0
  1  2  1  0  0  0
  1 23  1  0  0  0
  2  3  2  0  0  0
  2  4  1  0  0  0
  4  5  1  0  0  0
  4 12  1  0  0  0
  4 24  1  0  0  0
  5  6  1  0  0  0
  5 25  1  0  0  0
  5 26  1  0  0  0
  6 11  1  0  0  0
  6  7  2  0  0  0
  7  8  1  0  0  0
  7 27  1  0  0  0
  8  9  2  0  0  0
  8 28  1  0  0  0
  9 10  1  0  0  0
  9 29  1  0  0  0
 10 11  2  0  0  0
 10 30  1  0  0  0
 11 31  1  0  0  0
 12 21  1  0  0  0
 12 13  1  0  0  0
 13 14  2  0  0  0
 13 15  1  0  0  0
 15 20  1  0  0  0
 15 16  2  0  0  0
 16 17  1  0  0  0
 16 21  1  0  0  0
 17 18  2  0  0  0
 17 32  1  0  0  0
 18 19  1  0  0  0
 18 33  1  0  0  0
 19 20  2  0  0  0
 19 34  1  0  0  0
 20 35  1  0  0  0
 21 22  2  0  0  0
M  END
> <s_m_entry_id>
7570

> <s_m_entry_name>
ligand_docking-pose.6

> <s_m_Source_Path>
/home/csk/Desktop/cluster/DUD-E-result/ampc

> <s_m_Source_File>
ligand_docking-pose.sdf

> <i_m_Source_File_Index>
6

> <i_lp_mmshare_version>
53161

> <r_lp_tautomer_probability>
1

> <s_lp_Force_Field>
OPLS_2005

> <r_lp_Energy>
32.980045

> <b_lp_Chiralities_Consistent>
1

> <s_lp_Variant>
205-1

> <s_i_glide_gridfile>
glide-grid_1l2s

> <i_i_glide_lignum>
36

> <i_i_glide_rotatable_bonds>
5

> <r_i_docking_score>
-7.06266107157765

> <r_i_glide_ligand_efficiency>
-0.321030048708075

> <r_i_glide_ligand_efficiency_sa>
-0.899538821875404

> <r_i_glide_ligand_efficiency_ln>
-1.72637198271554

> <r_i_glide_gscore>
-7.06266107157765

> <r_i_glide_lipo>
-1.6781166957253

> <r_i_glide_hbond>
-1.42811574384146

> <r_i_glide_metal>
0

> <r_i_glide_rewards>
-1.66841531311509

> <r_i_glide_evdw>
-33.626033782959

> <r_i_glide_ecoul>
-8.9816198348999

> <r_i_glide_erotb>
0.839581766680425

> <r_i_glide_esite>
-0.0990504211932998

> <r_i_glide_emodel>
-58.1910149035403

> <r_i_glide_energy>
-42.6076536178589

> <r_i_glide_einternal>
5.71086263656616

> <i_i_glide_confnum>
15

> <i_i_glide_posenum>
130

> <r_i_glide_eff_state_penalty>
0

> <i_f3d_flags>
0

> <s_user_duplicate_titles>
205

> <s_m_subgroup_title>
dock_pv

> <s_m_subgroupid>
dock_pv1

> <b_m_subgroup_collapsed>
0

$$$$
303
                    3D
 Schrodinger Suite 2021-1.
 24 25  0  0  1  0            999 V2000
   79.5941    3.4151   24.8233 C   0  0  0  0  0  0
   78.4673    4.3030   25.3632 C   0  0  0  0  0  0
   78.8714    5.0299   26.6210 C   0  0  0  0  0  0
   79.4241    6.3387   26.7443 C   0  0  0  0  0  0
   79.6379    6.6872   28.0090 N   0  0  0  0  0  0
   79.2493    5.6248   28.7485 N   0  0  0  0  0  0
   78.7896    4.6216   27.9198 C   0  0  0  0  0  0
   78.3014    3.4559   28.4230 O   0  0  0  0  0  0
   79.3037    5.6691   30.1608 C   0  0  0  0  0  0
   79.7885    4.6568   30.8864 N   0  0  0  0  0  0
   79.6589    4.9852   32.1916 N   0  0  0  0  0  0
   79.1122    6.1700   32.2209 N   0  0  0  0  0  0
   78.8695    6.6508   30.9438 N   0  0  0  0  0  0
   79.7601    7.3023   25.6434 C   0  0  0  0  0  0
   78.8289    3.2232   29.1769 H   0  0  0  0  0  0
   79.2786    2.9011   23.9159 H   0  0  0  0  0  0
   79.8837    2.6589   25.5515 H   0  0  0  0  0  0
   80.4785    4.0039   24.5806 H   0  0  0  0  0  0
   78.1743    5.0105   24.5868 H   0  0  0  0  0  0
   77.5843    3.6889   25.5394 H   0  0  0  0  0  0
   80.5900    6.9297   25.0423 H   0  0  0  0  0  0
   78.9096    7.4492   24.9768 H   0  0  0  0  0  0
   80.0475    8.2777   26.0362 H   0  0  0  0  0  0
   80.2022    3.7869   30.5722 H   0  0  0  0  0  0
  1  2  1  0  0  0
  1 16  1  0  0  0
  1 17  1  0  0  0
  1 18  1  0  0  0
  2 19  1  0  0  0
  2 20  1  0  0  0
  2  3  1  0  0  0
  3  4  1  0  0  0
  3  7  2  0  0  0
  4 14  1  0  0  0
  4  5  2  0  0  0
  5  6  1  0  0  0
  6  9  1  0  0  0
  6  7  1  0  0  0
  7  8  1  0  0  0
  8 15  1  0  0  0
  9 13  2  0  0  0
  9 10  1  0  0  0
 10 11  1  0  0  0
 10 24  1  0  0  0
 11 12  2  0  0  0
 12 13  1  0  0  0
 14 21  1  0  0  0
 14 22  1  0  0  0
 14 23  1  0  0  0
M  END
> <s_m_entry_id>
7571

> <s_m_entry_name>
ligand_docking-pose.7

> <s_m_Source_Path>
/home/csk/Desktop/cluster/DUD-E-result/ampc

> <s_m_Source_File>
ligand_docking-pose.sdf

> <i_m_Source_File_Index>
7

> <i_lp_mmshare_version>
53161

> <r_lp_tautomer_probability>
0.659747154949192

> <s_lp_Force_Field>
OPLS_2005

> <r_lp_Energy>
5.3666

> <b_lp_Chiralities_Consistent>
1

> <s_lp_Variant>
303-1

> <s_i_glide_gridfile>
glide-grid_1l2s

> <i_i_glide_lignum>
52

> <i_i_glide_rotatable_bonds>
3

> <r_i_docking_score>
-6.931837717257

> <r_i_glide_ligand_efficiency>
-0.495131265518357

> <r_i_glide_ligand_efficiency_sa>
-1.1933367882906

> <r_i_glide_ligand_efficiency_ln>
-1.9048443290092

> <r_i_glide_gscore>
-6.931837717257

> <r_i_glide_lipo>
-0.75466604151529

> <r_i_glide_hbond>
-1.47076641980726

> <r_i_glide_metal>
0

> <r_i_glide_rewards>
-2.26514472507176

> <r_i_glide_evdw>
-23.3878631591797

> <r_i_glide_ecoul>
-10.94664478302

> <r_i_glide_erotb>
0.428841530241787

> <r_i_glide_esite>
-0.058712185692488

> <r_i_glide_emodel>
-46.853177406279

> <r_i_glide_energy>
-34.3345079421997

> <r_i_glide_einternal>
1.6203727722168

> <i_i_glide_confnum>
1

> <i_i_glide_posenum>
138

> <r_i_glide_eff_state_penalty>
0

> <i_f3d_flags>
0

> <s_user_duplicate_titles>
303

> <s_m_subgroup_title>
dock_pv

> <s_m_subgroupid>
dock_pv1

> <b_m_subgroup_collapsed>
0

$$$$
210
                    3D
 Schrodinger Suite 2021-1.
 42 45  0  0  1  0            999 V2000
   78.2970    3.2019   30.4989 O   0  0  0  0  0  0
   78.6332    4.3377   31.1632 C   0  0  0  0  0  0
   77.7626    5.1744   31.3776 O   0  0  0  0  0  0
   80.1244    4.5473   31.5230 C   0  0  1  0  0  0
   80.9437    5.2575   30.4105 C   0  0  0  0  0  0
   80.1833    6.0776   29.4039 C   0  0  0  0  0  0
   79.9591    7.4074   29.4686 C   0  0  0  0  0  0
   79.1810    7.7971   28.3972 N   0  0  0  0  0  0
   78.8811    6.7356   27.5704 C   0  0  0  0  0  0
   78.1349    6.6098   26.3849 C   0  0  0  0  0  0
   78.0594    5.3600   25.7464 C   0  0  0  0  0  0
   78.7133    4.2509   26.3054 C   0  0  0  0  0  0
   79.4208    4.3773   27.5162 C   0  0  0  0  0  0
   79.5344    5.6224   28.1778 C   0  0  0  0  0  0
   80.3920    5.1267   32.8635 N   0  0  0  0  0  0
   81.3348    4.6251   33.7113 C   0  0  0  0  0  0
   82.0288    3.6232   33.5761 O   0  0  0  0  0  0
   81.3960    5.5312   34.8780 C   0  0  0  0  0  0
   80.5065    6.5402   34.6491 C   0  0  0  0  0  0
   80.2542    7.5396   35.5930 C   0  0  0  0  0  0
   80.9656    7.4938   36.8195 C   0  0  0  0  0  0
   81.9098    6.4516   37.0407 C   0  0  0  0  0  0
   82.1440    5.4549   36.0639 C   0  0  0  0  0  0
   80.6986    8.5015   37.9022 C   0  0  0  0  0  0
   80.0115    9.6080   37.4938 O   0  0  0  0  0  0
   81.1087    8.3415   39.0488 O   0  0  0  0  0  0
   79.8945    6.3023   33.3242 C   0  0  0  0  0  0
   79.1004    7.0567   32.7748 O   0  0  0  0  0  0
   80.5018    3.5260   31.5762 H   0  0  0  0  0  0
   79.0680    2.6558   30.3498 H   0  0  0  0  0  0
   81.7084    5.8950   30.8558 H   0  0  0  0  0  0
   81.4987    4.5067   29.8481 H   0  0  0  0  0  0
   80.3181    8.0427   30.2631 H   0  0  0  0  0  0
   78.8803    8.7516   28.2545 H   0  0  0  0  0  0
   77.6298    7.4571   25.9597 H   0  0  0  0  0  0
   77.5071    5.2611   24.8219 H   0  0  0  0  0  0
   78.6709    3.2965   25.8068 H   0  0  0  0  0  0
   79.8973    3.5130   27.9553 H   0  0  0  0  0  0
   79.4864    8.2616   35.3806 H   0  0  0  0  0  0
   82.4530    6.4005   37.9769 H   0  0  0  0  0  0
   82.8497    4.6560   36.2344 H   0  0  0  0  0  0
   79.7106    9.5406   36.6014 H   0  0  0  0  0  0
  1  2  1  0  0  0
  1 30  1  0  0  0
  2  3  2  0  0  0
  2  4  1  0  0  0
  4 29  1  0  0  0
  4  5  1  0  0  0
  4 15  1  0  0  0
  5  6  1  0  0  0
  5 31  1  0  0  0
  5 32  1  0  0  0
  6 14  1  0  0  0
  6  7  2  0  0  0
  7  8  1  0  0  0
  7 33  1  0  0  0
  8  9  1  0  0  0
  8 34  1  0  0  0
  9 14  1  0  0  0
  9 10  2  0  0  0
 10 11  1  0  0  0
 10 35  1  0  0  0
 11 12  2  0  0  0
 11 36  1  0  0  0
 12 13  1  0  0  0
 12 37  1  0  0  0
 13 14  2  0  0  0
 13 38  1  0  0  0
 15 27  1  0  0  0
 15 16  1  0  0  0
 16 17  2  0  0  0
 16 18  1  0  0  0
 18 23  1  0  0  0
 18 19  2  0  0  0
 19 20  1  0  0  0
 19 27  1  0  0  0
 20 21  2  0  0  0
 20 39  1  0  0  0
 21 22  1  0  0  0
 21 24  1  0  0  0
 22 23  2  0  0  0
 22 40  1  0  0  0
 23 41  1  0  0  0
 24 25  1  0  0  0
 24 26  2  0  0  0
 25 42  1  0  0  0
 27 28  2  0  0  0
M  END
> <s_m_entry_id>
7572

> <s_m_entry_name>
ligand_docking-pose.8

> <s_m_Source_Path>
/home/csk/Desktop/cluster/DUD-E-result/ampc

> <s_m_Source_File>
ligand_docking-pose.sdf

> <i_m_Source_File_Index>
8

> <i_lp_mmshare_version>
53161

> <r_lp_tautomer_probability>
1

> <s_lp_Force_Field>
OPLS_2005

> <r_lp_Energy>
33.796392

> <b_lp_Chiralities_Consistent>
1

> <s_lp_Variant>
210-1

> <s_i_glide_gridfile>
glide-grid_1l2s

> <i_i_glide_lignum>
11

> <i_i_glide_rotatable_bonds>
7

> <r_i_docking_score>
-6.89588295325818

> <r_i_glide_ligand_efficiency>
-0.246281534044935

> <r_i_glide_ligand_efficiency_sa>
-0.747855789426801

> <r_i_glide_ligand_efficiency_ln>
-1.59177225753345

> <r_i_glide_gscore>
-6.89588295325818

> <r_i_glide_lipo>
-1.33684025284358

> <r_i_glide_hbond>
-0.496944786586027

> <r_i_glide_metal>
0

> <r_i_glide_rewards>
-1.5482717706387

> <r_i_glide_evdw>
-35.1086578369141

> <r_i_glide_ecoul>
-16.191089630127

> <r_i_glide_erotb>
0.676904640449825

> <r_i_glide_esite>
-0.00663444727494501

> <r_i_glide_emodel>
-65.2965151495004

> <r_i_glide_energy>
-51.299747467041

> <r_i_glide_einternal>
15.0990619659424

> <i_i_glide_confnum>
64

> <i_i_glide_posenum>
397

> <r_i_glide_eff_state_penalty>
0

> <i_f3d_flags>
0

> <s_user_duplicate_titles>
210

> <s_m_subgroup_title>
dock_pv

> <s_m_subgroupid>
dock_pv1

> <b_m_subgroup_collapsed>
0

$$$$
212
                    3D
 Schrodinger Suite 2021-1.
 35 36  0  0  1  0            999 V2000
   75.4923    5.9204   22.4219 C   0  0  0  0  0  0
   76.2972    5.4572   23.9789 S   0  0  0  0  0  0
   77.8527    6.3620   23.7951 C   0  0  0  0  0  0
   78.6390    6.5653   25.0982 C   0  0  0  0  0  0
   79.2367    5.2653   25.6930 C   0  0  2  0  0  0
   79.6148    5.4413   27.1112 N   0  0  0  0  0  0
   80.4014    6.4431   27.6016 C   0  0  0  0  0  0
   80.9734    7.3417   26.9906 O   0  0  0  0  0  0
   80.4530    6.2548   29.0726 C   0  0  0  0  0  0
   79.6955    5.1550   29.3711 C   0  0  0  0  0  0
   79.5821    4.6572   30.6790 C   0  0  0  0  0  0
   80.3024    5.3303   31.6992 C   0  0  0  0  0  0
   81.0544    6.4999   31.3868 C   0  0  0  0  0  0
   81.1412    6.9808   30.0581 C   0  0  0  0  0  0
   80.3162    4.7759   33.0897 C   0  0  0  0  0  0
   80.2928    5.7207   34.0707 O   0  0  0  0  0  0
   80.2974    3.5652   33.3078 O   0  0  0  0  0  0
   79.1318    4.6422   28.0998 C   0  0  0  0  0  0
   78.3757    3.6711   28.0043 O   0  0  0  0  0  0
   80.3976    4.7106   24.8514 C   0  0  0  0  0  0
   80.2978    3.4372   24.3767 O   0  0  0  0  0  0
   81.3832    5.3945   24.5899 O   0  0  0  0  0  0
   74.5211    5.4341   22.3322 H   0  0  0  0  0  0
   76.1083    5.6314   21.5703 H   0  0  0  0  0  0
   75.3324    6.9985   22.3909 H   0  0  0  0  0  0
   78.4591    5.8557   23.0477 H   0  0  0  0  0  0
   77.6214    7.3421   23.3789 H   0  0  0  0  0  0
   79.4345    7.2887   24.9067 H   0  0  0  0  0  0
   77.9765    7.0348   25.8271 H   0  0  0  0  0  0
   78.4543    4.5117   25.6509 H   0  0  0  0  0  0
   79.0092    3.7649   30.8882 H   0  0  0  0  0  0
   81.5962    7.0171   32.1680 H   0  0  0  0  0  0
   81.7383    7.8463   29.8102 H   0  0  0  0  0  0
   80.1488    5.3346   34.9230 H   0  0  0  0  0  0
   80.9842    3.2665   23.7413 H   0  0  0  0  0  0
  1  2  1  0  0  0
  1 23  1  0  0  0
  1 24  1  0  0  0
  1 25  1  0  0  0
  2  3  1  0  0  0
  3  4  1  0  0  0
  3 26  1  0  0  0
  3 27  1  0  0  0
  4  5  1  0  0  0
  4 28  1  0  0  0
  4 29  1  0  0  0
  5  6  1  0  0  0
  5 20  1  0  0  0
  5 30  1  0  0  0
  6 18  1  0  0  0
  6  7  1  0  0  0
  7  8  2  0  0  0
  7  9  1  0  0  0
  9 14  1  0  0  0
  9 10  2  0  0  0
 10 11  1  0  0  0
 10 18  1  0  0  0
 11 12  2  0  0  0
 11 31  1  0  0  0
 12 13  1  0  0  0
 12 15  1  0  0  0
 13 14  2  0  0  0
 13 32  1  0  0  0
 14 33  1  0  0  0
 15 16  1  0  0  0
 15 17  2  0  0  0
 16 34  1  0  0  0
 18 19  2  0  0  0
 20 21  1  0  0  0
 20 22  2  0  0  0
 21 35  1  0  0  0
M  END
> <s_m_entry_id>
7573

> <s_m_entry_name>
ligand_docking-pose.9

> <s_m_Source_Path>
/home/csk/Desktop/cluster/DUD-E-result/ampc

> <s_m_Source_File>
ligand_docking-pose.sdf

> <i_m_Source_File_Index>
9

> <i_lp_mmshare_version>
53161

> <r_lp_tautomer_probability>
1

> <s_lp_Force_Field>
OPLS_2005

> <r_lp_Energy>
33.972312

> <b_lp_Chiralities_Consistent>
1

> <s_lp_Variant>
212-1

> <s_i_glide_gridfile>
glide-grid_1l2s

> <i_i_glide_lignum>
42

> <i_i_glide_rotatable_bonds>
8

> <r_i_docking_score>
-6.87957762249854

> <r_i_glide_ligand_efficiency>
-0.312708073749934

> <r_i_glide_ligand_efficiency_sa>
-0.876220320757988

> <r_i_glide_ligand_efficiency_ln>
-1.68161970962954

> <r_i_glide_gscore>
-6.87957762249854

> <r_i_glide_lipo>
-1.10059260289617

> <r_i_glide_hbond>
-1.00319802356653

> <r_i_glide_metal>
0

> <r_i_glide_rewards>
-1.92626461053477

> <r_i_glide_evdw>
-37.082447052002

> <r_i_glide_ecoul>
-12.4042739868164

> <r_i_glide_erotb>
0.895013752330096

> <r_i_glide_esite>
-0.029772687208601

> <r_i_glide_emodel>
-66.3464425491466

> <r_i_glide_energy>
-49.4867210388184

> <r_i_glide_einternal>
6.50970697402954

> <i_i_glide_confnum>
71

> <i_i_glide_posenum>
152

> <r_i_glide_eff_state_penalty>
0

> <i_f3d_flags>
0

> <s_user_duplicate_titles>
212

> <s_m_subgroup_title>
dock_pv

> <s_m_subgroupid>
dock_pv1

> <b_m_subgroup_collapsed>
0

$$$$
310
                    3D
 Schrodinger Suite 2021-1.
 32 33  0  0  1  0            999 V2000
   81.0327    4.6620   34.7760 C   0  0  0  0  0  0
   80.5862    5.9569   34.0871 C   0  0  0  0  0  0
   80.4009    5.7610   32.5955 C   0  0  0  0  0  0
   79.1399    5.4055   32.0817 C   0  0  0  0  0  0
   78.9718    5.1901   30.7022 C   0  0  0  0  0  0
   80.0653    5.3210   29.8098 C   0  0  0  0  0  0
   81.3241    5.7010   30.3345 C   0  0  0  0  0  0
   81.4919    5.9130   31.7163 C   0  0  0  0  0  0
   79.9110    5.1043   28.4025 N   0  0  0  0  0  0
   80.7499    5.7768   27.4148 C   0  0  0  0  0  0
   80.1885    5.3980   26.0251 C   0  0  2  0  0  0
   79.0899    4.3579   26.3101 C   0  0  0  0  0  0
   79.0490    4.2575   27.8178 C   0  0  0  0  0  0
   78.2974    3.4567   28.3760 O   0  0  0  0  0  0
   81.2424    4.8780   25.0349 C   0  0  0  0  0  0
   82.4525    5.0303   25.1670 O   0  0  0  0  0  0
   80.6531    4.2573   23.9778 O   0  0  0  0  0  0
   79.7307    6.2811   25.5769 H   0  0  0  0  0  0
   81.1484    4.8147   35.8493 H   0  0  0  0  0  0
   80.2985    3.8693   34.6341 H   0  0  0  0  0  0
   81.9842    4.3098   34.3788 H   0  0  0  0  0  0
   81.3205    6.7459   34.2600 H   0  0  0  0  0  0
   79.6516    6.3061   34.5286 H   0  0  0  0  0  0
   78.2973    5.2891   32.7486 H   0  0  0  0  0  0
   77.9867    4.9311   30.3460 H   0  0  0  0  0  0
   82.1848    5.8171   29.6946 H   0  0  0  0  0  0
   82.4638    6.1850   32.1023 H   0  0  0  0  0  0
   81.7857    5.4590   27.5436 H   0  0  0  0  0  0
   80.7169    6.8568   27.5677 H   0  0  0  0  0  0
   78.1219    4.6873   25.9317 H   0  0  0  0  0  0
   79.2972    3.3689   25.8996 H   0  0  0  0  0  0
   81.2680    3.8952   23.3439 H   0  0  0  0  0  0
  1  2  1  0  0  0
  1 19  1  0  0  0
  1 20  1  0  0  0
  1 21  1  0  0  0
  2  3  1  0  0  0
  2 22  1  0  0  0
  2 23  1  0  0  0
  3  8  1  0  0  0
  3  4  2  0  0  0
  4  5  1  0  0  0
  4 24  1  0  0  0
  5  6  2  0  0  0
  5 25  1  0  0  0
  6  7  1  0  0  0
  6  9  1  0  0  0
  7  8  2  0  0  0
  7 26  1  0  0  0
  8 27  1  0  0  0
  9 13  1  0  0  0
  9 10  1  0  0  0
 10 11  1  0  0  0
 10 28  1  0  0  0
 10 29  1  0  0  0
 11 18  1  0  0  0
 11 12  1  0  0  0
 11 15  1  0  0  0
 12 13  1  0  0  0
 12 30  1  0  0  0
 12 31  1  0  0  0
 13 14  2  0  0  0
 15 16  2  0  0  0
 15 17  1  0  0  0
 17 32  1  0  0  0
M  END
> <s_m_entry_id>
7574

> <s_m_entry_name>
ligand_docking-pose.10

> <s_m_Source_Path>
/home/csk/Desktop/cluster/DUD-E-result/ampc

> <s_m_Source_File>
ligand_docking-pose.sdf

> <i_m_Source_File_Index>
10

> <i_lp_mmshare_version>
53161

> <r_lp_tautomer_probability>
1

> <s_lp_Force_Field>
OPLS_2005

> <r_lp_Energy>
24.366082

> <b_lp_Chiralities_Consistent>
1

> <s_lp_Variant>
310-1

> <s_i_glide_gridfile>
glide-grid_1l2s

> <i_i_glide_lignum>
49

> <i_i_glide_rotatable_bonds>
4

> <r_i_docking_score>
-6.86093178680681

> <r_i_glide_ligand_efficiency>
-0.403584222753342

> <r_i_glide_ligand_efficiency_sa>
-1.03772868126574

> <r_i_glide_ligand_efficiency_ln>
-1.78986431773889

> <r_i_glide_gscore>
-6.86093178680681

> <r_i_glide_lipo>
-1.24816831291583

> <r_i_glide_hbond>
-0.925600774961261

> <r_i_glide_metal>
0

> <r_i_glide_rewards>
-2.22181061857642

> <r_i_glide_evdw>
-22.5341014862061

> <r_i_glide_ecoul>
-12.8365154266357

> <r_i_glide_erotb>
0.630322496045733

> <r_i_glide_esite>
-0.0434921880933603

> <r_i_glide_emodel>
-49.3154481150828

> <r_i_glide_energy>
-35.3706169128418

> <r_i_glide_einternal>
0.469344198703766

> <i_i_glide_confnum>
10

> <i_i_glide_posenum>
230

> <r_i_glide_eff_state_penalty>
0

> <i_f3d_flags>
0

> <s_user_duplicate_titles>
310

> <s_m_subgroup_title>
dock_pv

> <s_m_subgroupid>
dock_pv1

> <b_m_subgroup_collapsed>
0

$$$$
