CHEMBL3650_lig259
                    3D
 Schrodinger Suite 2021-1.
 52 55  0  0  1  0            999 V2000
    7.4806    3.0827   21.1515 C   0  0  0  0  0  0
    6.5008    2.0937   21.5705 C   0  0  0  0  0  0
    9.1571    3.2393   23.1360 C   0  0  0  0  0  0
    8.5689    3.5262   21.8321 C   0  0  0  0  0  0
    5.7210    1.8578   20.4983 N   0  0  0  0  0  0
    6.0232    2.6781   19.4437 C   0  0  0  0  0  0
    7.0643    3.4694   19.8213 C   0  0  0  0  0  0
   10.4493    3.4607   23.6420 C   0  0  0  0  0  0
    8.4322    2.6408   24.1190 N   0  0  0  0  0  0
   10.4114    3.1370   25.0311 C   0  0  0  0  0  0
    9.1822    2.5461   25.2505 C   0  0  0  0  0  0
    5.5221    2.7360   18.1484 C   0  0  0  0  0  0
    6.0221    3.6767   17.2336 C   0  0  0  0  0  0
    7.6180    4.3368   18.9070 C   0  0  0  0  0  0
   11.6238    3.9361   22.7853 C   0  0  0  0  0  0
    5.4824    3.8254   15.8649 C   0  0  0  0  0  0
   13.6642    5.5372   22.6717 C   0  0  0  0  0  0
    6.3732    1.5370   22.6532 O   0  0  0  0  0  0
    7.0933    4.4737   17.6263 C   0  0  0  0  0  0
    5.9595    3.0372   14.8141 C   0  0  0  0  0  0
   13.5586    5.6508   21.4529 O   0  0  0  0  0  0
   12.8565    4.5369   23.5113 C   0  0  0  0  0  0
    5.4503    3.1620   13.5205 C   0  0  0  0  0  0
   14.5464    6.2425   23.4320 O   0  0  0  0  0  0
    5.9709    2.3179   12.5611 O   0  0  0  0  0  0
   11.5061    3.2027   26.0763 C   0  0  0  0  0  0
    4.4994    4.7817   15.5978 C   0  0  0  0  0  0
    3.9816    4.9226   14.3127 C   0  0  0  0  0  0
    4.4518    4.1163   13.2782 C   0  0  0  0  0  0
    5.7308    2.5950   11.1839 C   0  0  0  0  0  0
    9.1726    4.2438   21.2998 H   0  0  0  0  0  0
    4.9821    1.1685   20.4839 H   0  0  0  0  0  0
    7.4935    2.2771   23.9968 H   0  0  0  0  0  0
    8.7651    2.0761   26.1290 H   0  0  0  0  0  0
    4.7706    2.0343   17.8537 H   0  0  0  0  0  0
    8.5610    4.7376   19.1743 H   0  0  0  0  0  0
   11.2676    4.6142   22.0099 H   0  0  0  0  0  0
   11.9824    3.0697   22.2266 H   0  0  0  0  0  0
    7.5657    5.1378   16.9148 H   0  0  0  0  0  0
    6.7326    2.3085   15.0076 H   0  0  0  0  0  0
   13.5019    3.7642   23.9264 H   0  0  0  0  0  0
   12.4919    5.1382   24.3429 H   0  0  0  0  0  0
   14.7179    5.8284   24.2823 H   0  0  0  0  0  0
   11.3536    2.4592   26.8604 H   0  0  0  0  0  0
   12.4980    2.9939   25.6836 H   0  0  0  0  0  0
   11.5469    4.1824   26.5559 H   0  0  0  0  0  0
    4.1271    5.4122   16.3927 H   0  0  0  0  0  0
    3.2240    5.6642   14.1085 H   0  0  0  0  0  0
    4.0342    4.2530   12.2913 H   0  0  0  0  0  0
    6.3730    1.9545   10.5772 H   0  0  0  0  0  0
    4.7050    2.3833   10.8982 H   0  0  0  0  0  0
    5.9610    3.6320   10.9315 H   0  0  0  0  0  0
  1  2  1  0  0  0
  1  4  2  0  0  0
  1  7  1  0  0  0
  2  5  1  0  0  0
  2 18  2  0  0  0
  3  4  1  0  0  0
  3  8  2  0  0  0
  3  9  1  0  0  0
  4 31  1  0  0  0
  5  6  1  0  0  0
  5 32  1  0  0  0
  6  7  1  0  0  0
  6 12  2  0  0  0
  7 14  2  0  0  0
  8 10  1  0  0  0
  8 15  1  0  0  0
  9 11  1  0  0  0
  9 33  1  0  0  0
 10 26  1  0  0  0
 10 11  2  0  0  0
 11 34  1  0  0  0
 12 13  1  0  0  0
 12 35  1  0  0  0
 13 19  2  0  0  0
 13 16  1  0  0  0
 14 19  1  0  0  0
 14 36  1  0  0  0
 15 22  1  0  0  0
 15 37  1  0  0  0
 15 38  1  0  0  0
 16 20  1  0  0  0
 16 27  2  0  0  0
 17 22  1  0  0  0
 17 21  2  0  0  0
 17 24  1  0  0  0
 19 39  1  0  0  0
 20 23  2  0  0  0
 20 40  1  0  0  0
 22 41  1  0  0  0
 22 42  1  0  0  0
 23 25  1  0  0  0
 23 29  1  0  0  0
 24 43  1  0  0  0
 25 30  1  0  0  0
 26 44  1  0  0  0
 26 45  1  0  0  0
 26 46  1  0  0  0
 27 28  1  0  0  0
 27 47  1  0  0  0
 28 29  2  0  0  0
 28 48  1  0  0  0
 29 49  1  0  0  0
 30 50  1  0  0  0
 30 51  1  0  0  0
 30 52  1  0  0  0
M  END
> <s_m_entry_id>
49412

> <s_m_entry_name>
dock_pv.2

> <s_m_Source_Path>
/home/csk/Desktop/cluster/DUD-E-result/fgfr1

> <s_m_Source_File>
dock_pv.maegz

> <i_m_Source_File_Index>
2

> <chembl_id>
CHEMBL450622

> <chembl_pref_name>
None

> <i_lp_mmshare_version>
53161

> <i_f3d_flags>
0

> <r_lp_tautomer_probability>
1

> <s_lp_Force_Field>
OPLS_2005

> <r_lp_Energy>
38.632899

> <b_lp_Chiralities_Consistent>
1

> <s_lp_Variant>
CHEMBL3650_lig259-1

> <s_i_glide_gridfile>
glide-grid_3c4f

> <i_i_glide_lignum>
282

> <i_i_glide_rotatable_bonds>
7

> <r_i_docking_score>
-10.4896388706865

> <r_i_glide_ligand_efficiency>
-0.349654629022884

> <r_i_glide_ligand_efficiency_sa>
-1.08645822792539

> <r_i_glide_ligand_efficiency_ln>
-2.38336024518968

> <r_i_glide_gscore>
-10.4896388706865

> <r_i_glide_lipo>
-3.33529902676646

> <r_i_glide_hbond>
-1.20699026973183

> <r_i_glide_metal>
0

> <r_i_glide_rewards>
-2.68676953000728

> <r_i_glide_evdw>
-42.1943244934082

> <r_i_glide_ecoul>
-10.0929641723633

> <r_i_glide_erotb>
0.424076260392956

> <r_i_glide_esite>
-0.0609954540489827

> <r_i_glide_emodel>
-66.6629697187611

> <r_i_glide_energy>
-52.2872886657715

> <r_i_glide_einternal>
14.4539089202881

> <i_i_glide_confnum>
41

> <i_i_glide_posenum>
153

> <r_i_glide_eff_state_penalty>
0

> <s_user_duplicate_titles>
CHEMBL3650_lig259,246585

> <s_m_subgroup_title>
dock_pv

> <s_m_subgroupid>
dock_pv

> <b_m_subgroup_collapsed>
1

$$$$
CHEMBL3650_lig86
                    3D
 Schrodinger Suite 2021-1.
 45 48  0  0  1  0            999 V2000
   10.3646    1.5370   28.7391 O   0  0  0  0  0  0
   11.3497    2.3115   28.0747 C   0  0  0  0  0  0
   11.0027    2.7538   26.6531 C   0  0  0  0  0  0
   11.9189    3.5371   25.9436 C   0  0  0  0  0  0
   11.6430    3.9384   24.6368 C   0  0  0  0  0  0
   10.4413    3.5746   24.0270 C   0  0  0  0  0  0
    9.5100    2.8032   24.7268 C   0  0  0  0  0  0
    8.3112    2.3370   24.1738 N   0  0  0  0  0  0
    7.6412    2.5199   22.9664 C   0  0  0  0  0  0
    6.7710    1.5370   22.6604 N   0  0  0  0  0  0
    6.1856    1.5472   21.4377 C   0  0  0  0  0  0
    6.3625    2.6079   20.5696 C   0  0  0  0  0  0
    5.7271    2.7204   19.2423 C   0  0  0  0  0  0
    5.9294    3.8309   18.4971 C   0  0  0  0  0  0
    6.7507    4.9253   18.9945 C   0  0  0  0  0  0
    6.7710    5.9370   18.3334 O   0  0  0  0  0  0
    7.2744    4.8166   20.2482 N   0  0  0  0  0  0
    7.1723    3.6571   21.0288 C   0  0  0  0  0  0
    7.8752    3.5967   22.1946 N   0  0  0  0  0  0
    7.8114    6.0263   20.9060 C   0  0  0  0  0  0
    5.3557    4.0763   17.1344 C   0  0  0  0  0  0
    5.9589    3.5143   16.0108 C   0  0  0  0  0  0
    7.1710    2.3368   16.2385 Cl  0  0  0  0  0  0
    5.5709    3.8610   14.7174 C   0  0  0  0  0  0
    4.5540    4.7893   14.5263 C   0  0  0  0  0  0
    3.9144    5.3436   15.6304 C   0  0  0  0  0  0
    4.3145    4.9986   16.9240 C   0  0  0  0  0  0
    3.3558    5.5380   18.2530 Cl  0  0  0  0  0  0
    9.7991    2.3954   26.0326 C   0  0  0  0  0  0
   10.3709    0.6337   28.3883 H   0  0  0  0  0  0
   11.5358    3.2054   28.6714 H   0  0  0  0  0  0
   12.2903    1.7590   28.0647 H   0  0  0  0  0  0
   12.8593    3.8220   26.3953 H   0  0  0  0  0  0
   12.3716    4.5242   24.0949 H   0  0  0  0  0  0
   10.2586    3.8782   23.0081 H   0  0  0  0  0  0
    8.0655    1.4298   24.5545 H   0  0  0  0  0  0
    5.5708    0.7060   21.1560 H   0  0  0  0  0  0
    5.1162    1.9143   18.8572 H   0  0  0  0  0  0
    7.9315    6.8881   20.2532 H   0  0  0  0  0  0
    7.1396    6.3322   21.7085 H   0  0  0  0  0  0
    8.7724    5.8155   21.3655 H   0  0  0  0  0  0
    6.0660    3.4232   13.8635 H   0  0  0  0  0  0
    4.2544    5.0701   13.5256 H   0  0  0  0  0  0
    3.0870    6.0183   15.4742 H   0  0  0  0  0  0
    9.0834    1.7846   26.5641 H   0  0  0  0  0  0
  1  2  1  0  0  0
  1 30  1  0  0  0
  2  3  1  0  0  0
  2 31  1  0  0  0
  2 32  1  0  0  0
  3  4  2  0  0  0
  3 29  1  0  0  0
  4  5  1  0  0  0
  4 33  1  0  0  0
  5  6  2  0  0  0
  5 34  1  0  0  0
  6  7  1  0  0  0
  6 35  1  0  0  0
  7  8  1  0  0  0
  7 29  2  0  0  0
  8  9  1  0  0  0
  8 36  1  0  0  0
  9 10  2  0  0  0
  9 19  1  0  0  0
 10 11  1  0  0  0
 11 12  2  0  0  0
 11 37  1  0  0  0
 12 13  1  0  0  0
 12 18  1  0  0  0
 13 14  2  0  0  0
 13 38  1  0  0  0
 14 15  1  0  0  0
 14 21  1  0  0  0
 15 16  2  0  0  0
 15 17  1  0  0  0
 17 18  1  0  0  0
 17 20  1  0  0  0
 18 19  2  0  0  0
 20 39  1  0  0  0
 20 40  1  0  0  0
 20 41  1  0  0  0
 21 22  2  0  0  0
 21 27  1  0  0  0
 22 23  1  0  0  0
 22 24  1  0  0  0
 24 25  2  0  0  0
 24 42  1  0  0  0
 25 26  1  0  0  0
 25 43  1  0  0  0
 26 27  2  0  0  0
 26 44  1  0  0  0
 27 28  1  0  0  0
 29 45  1  0  0  0
M  END
> <s_m_entry_id>
49413

> <s_m_entry_name>
dock_pv.3

> <s_m_Source_Path>
/home/csk/Desktop/cluster/DUD-E-result/fgfr1

> <s_m_Source_File>
dock_pv.maegz

> <i_m_Source_File_Index>
3

> <chembl_id>
CHEMBL327127

> <chembl_pref_name>
None

> <i_lp_mmshare_version>
53161

> <i_f3d_flags>
0

> <r_lp_tautomer_probability>
1

> <s_lp_Force_Field>
OPLS_2005

> <r_lp_Energy>
26.618173

> <b_lp_Chiralities_Consistent>
1

> <s_lp_Variant>
CHEMBL3650_lig86-1

> <s_i_glide_gridfile>
glide-grid_3c4f

> <i_i_glide_lignum>
108

> <i_i_glide_rotatable_bonds>
5

> <r_i_docking_score>
-10.4414976745123

> <r_i_glide_ligand_efficiency>
-0.360051643948699

> <r_i_glide_ligand_efficiency_sa>
-1.10619272257781

> <r_i_glide_ligand_efficiency_ln>
-2.39083819392757

> <r_i_glide_gscore>
-10.4414976745123

> <r_i_glide_lipo>
-3.51097768849186

> <r_i_glide_hbond>
-0.812654043670445

> <r_i_glide_metal>
0

> <r_i_glide_rewards>
-3.36735630301401

> <r_i_glide_evdw>
-34.0051116943359

> <r_i_glide_ecoul>
-9.03159046173096

> <r_i_glide_erotb>
0.304484514640488

> <r_i_glide_esite>
0

> <r_i_glide_emodel>
-42.1063490863461

> <r_i_glide_energy>
-43.0367021560669

> <r_i_glide_einternal>
7.54196882247925

> <i_i_glide_confnum>
1

> <i_i_glide_posenum>
186

> <r_i_glide_eff_state_penalty>
0

> <s_user_duplicate_titles>
CHEMBL3650_lig86,183155

> <s_m_subgroup_title>
dock_pv

> <s_m_subgroupid>
dock_pv

> <b_m_subgroup_collapsed>
1

$$$$
CHEMBL3650_lig87
                    3D
 Schrodinger Suite 2021-1.
 42 45  0  0  1  0            999 V2000
   12.1396    3.9370   25.3895 C   0  0  0  0  0  0
   11.1937    3.4661   26.2970 C   0  0  0  0  0  0
    9.9797    2.9607   25.8361 C   0  0  0  0  0  0
    9.6944    2.9542   24.4697 C   0  0  0  0  0  0
   10.6307    3.4712   23.5636 C   0  0  0  0  0  0
   11.8631    3.9370   24.0236 C   0  0  0  0  0  0
    8.5035    2.3371   24.0538 N   0  0  0  0  0  0
    7.7102    2.5217   22.9203 C   0  0  0  0  0  0
    7.8811    3.6179   22.1574 N   0  0  0  0  0  0
    6.1878    1.5602   21.4529 C   0  0  0  0  0  0
    6.8254    1.5370   22.6529 N   0  0  0  0  0  0
    6.3261    2.6286   20.5822 C   0  0  0  0  0  0
    7.1363    3.6836   21.0224 C   0  0  0  0  0  0
    7.2348    4.8379   20.2337 N   0  0  0  0  0  0
    6.7278    4.9327   18.9734 C   0  0  0  0  0  0
    5.9000    3.8347   18.4957 C   0  0  0  0  0  0
    5.6841    2.7351   19.2562 C   0  0  0  0  0  0
    7.7649    6.0535   20.8839 C   0  0  0  0  0  0
    6.7710    5.9370   18.2964 O   0  0  0  0  0  0
    5.3344    4.0723   17.1324 C   0  0  0  0  0  0
    5.9504    3.5098   16.0151 C   0  0  0  0  0  0
    5.5709    3.8588   14.7200 C   0  0  0  0  0  0
    4.5529    4.7862   14.5236 C   0  0  0  0  0  0
    3.9047    5.3409   15.6235 C   0  0  0  0  0  0
    4.2958    4.9975   16.9202 C   0  0  0  0  0  0
    3.3374    5.5370   18.2529 Cl  0  0  0  0  0  0
    7.1710    2.3370   16.2527 Cl  0  0  0  0  0  0
   13.3531    4.3724   25.8529 O   0  0  0  0  0  0
   11.4168    3.4608   27.3538 H   0  0  0  0  0  0
    9.2696    2.5576   26.5440 H   0  0  0  0  0  0
   10.4395    3.4527   22.5014 H   0  0  0  0  0  0
   12.6005    4.2979   23.3214 H   0  0  0  0  0  0
    8.3710    1.4058   24.4396 H   0  0  0  0  0  0
    5.5710    0.7160   21.1858 H   0  0  0  0  0  0
    5.0641    1.9308   18.8820 H   0  0  0  0  0  0
    7.1539    6.3012   21.7524 H   0  0  0  0  0  0
    8.7710    5.8716   21.2485 H   0  0  0  0  0  0
    7.7819    6.9407   20.2531 H   0  0  0  0  0  0
    6.0731    3.4242   13.8688 H   0  0  0  0  0  0
    4.2602    5.0679   13.5211 H   0  0  0  0  0  0
    3.0787    6.0158   15.4617 H   0  0  0  0  0  0
   14.1062    4.1978   25.2669 H   0  0  0  0  0  0
  1  2  2  0  0  0
  1  6  1  0  0  0
  1 28  1  0  0  0
  2  3  1  0  0  0
  2 29  1  0  0  0
  3  4  2  0  0  0
  3 30  1  0  0  0
  4  7  1  0  0  0
  4  5  1  0  0  0
  5  6  2  0  0  0
  5 31  1  0  0  0
  6 32  1  0  0  0
  7  8  1  0  0  0
  7 33  1  0  0  0
  8  9  1  0  0  0
  8 11  2  0  0  0
  9 13  2  0  0  0
 10 12  2  0  0  0
 10 11  1  0  0  0
 10 34  1  0  0  0
 12 17  1  0  0  0
 12 13  1  0  0  0
 13 14  1  0  0  0
 14 15  1  0  0  0
 14 18  1  0  0  0
 15 16  1  0  0  0
 15 19  2  0  0  0
 16 17  2  0  0  0
 16 20  1  0  0  0
 17 35  1  0  0  0
 18 36  1  0  0  0
 18 37  1  0  0  0
 18 38  1  0  0  0
 20 21  2  0  0  0
 20 25  1  0  0  0
 21 22  1  0  0  0
 21 27  1  0  0  0
 22 23  2  0  0  0
 22 39  1  0  0  0
 23 24  1  0  0  0
 23 40  1  0  0  0
 24 25  2  0  0  0
 24 41  1  0  0  0
 25 26  1  0  0  0
 28 42  1  0  0  0
M  END
> <s_m_entry_id>
49414

> <s_m_entry_name>
dock_pv.4

> <s_m_Source_Path>
/home/csk/Desktop/cluster/DUD-E-result/fgfr1

> <s_m_Source_File>
dock_pv.maegz

> <i_m_Source_File_Index>
4

> <chembl_id>
CHEMBL323405

> <chembl_pref_name>
None

> <i_lp_mmshare_version>
53161

> <i_f3d_flags>
0

> <r_lp_tautomer_probability>
1

> <s_lp_Force_Field>
OPLS_2005

> <r_lp_Energy>
25.574862

> <b_lp_Chiralities_Consistent>
1

> <s_lp_Variant>
CHEMBL3650_lig87-1

> <s_i_glide_gridfile>
glide-grid_3c4f

> <i_i_glide_lignum>
109

> <i_i_glide_rotatable_bonds>
4

> <r_i_docking_score>
-10.357985927394

> <r_i_glide_ligand_efficiency>
-0.3699280688355

> <r_i_glide_ligand_efficiency_sa>
-1.12331949296543

> <r_i_glide_ligand_efficiency_ln>
-2.39092727572436

> <r_i_glide_gscore>
-10.357985927394

> <r_i_glide_lipo>
-3.51665040024077

> <r_i_glide_hbond>
-0.72

> <r_i_glide_metal>
0

> <r_i_glide_rewards>
-3.4851046062142

> <r_i_glide_evdw>
-32.5359039306641

> <r_i_glide_ecoul>
-8.3466854095459

> <r_i_glide_erotb>
0.24256708702606

> <r_i_glide_esite>
0

> <r_i_glide_emodel>
-38.7844397298519

> <r_i_glide_energy>
-40.88258934021

> <r_i_glide_einternal>
8.29530143737793

> <i_i_glide_confnum>
2

> <i_i_glide_posenum>
148

> <r_i_glide_eff_state_penalty>
0

> <s_user_duplicate_titles>
CHEMBL3650_lig87,183101

> <s_m_subgroup_title>
dock_pv

> <s_m_subgroupid>
dock_pv

> <b_m_subgroup_collapsed>
1

$$$$
CHEMBL3650_lig94
                    3D
 Schrodinger Suite 2021-1.
 42 45  0  0  1  0            999 V2000
   12.1131    3.9370   25.3538 C   0  0  0  0  0  0
   11.1919    3.4327   26.2700 C   0  0  0  0  0  0
    9.9710    2.9254   25.8278 C   0  0  0  0  0  0
    9.6518    2.9362   24.4683 C   0  0  0  0  0  0
   10.5741    3.4606   23.5523 C   0  0  0  0  0  0
   11.8088    3.9370   23.9938 C   0  0  0  0  0  0
    8.4496    2.3370   24.0684 N   0  0  0  0  0  0
    7.6634    2.5218   22.9309 C   0  0  0  0  0  0
    7.8425    3.6160   22.1689 N   0  0  0  0  0  0
    6.1671    1.5540   21.4431 C   0  0  0  0  0  0
    6.7843    1.5370   22.6530 N   0  0  0  0  0  0
    6.3122    2.6230   20.5742 C   0  0  0  0  0  0
    7.1161    3.6792   21.0231 C   0  0  0  0  0  0
    7.2286    4.8323   20.2351 N   0  0  0  0  0  0
    6.7257    4.9305   18.9734 C   0  0  0  0  0  0
    5.9010    3.8327   18.4886 C   0  0  0  0  0  0
    5.6822    2.7303   19.2436 C   0  0  0  0  0  0
    7.7735    6.0418   20.8869 C   0  0  0  0  0  0
    6.7710    5.9370   18.3002 O   0  0  0  0  0  0
    5.3365    4.0742   17.1264 C   0  0  0  0  0  0
    4.2979    4.9999   16.9171 C   0  0  0  0  0  0
    3.9050    5.3456   15.6217 C   0  0  0  0  0  0
    4.5527    4.7928   14.5204 C   0  0  0  0  0  0
    5.5710    3.8650   14.7140 C   0  0  0  0  0  0
    5.9517    3.5128   16.0080 C   0  0  0  0  0  0
    7.1710    2.3370   16.2423 Cl  0  0  0  0  0  0
    3.3413    5.5370   18.2530 Cl  0  0  0  0  0  0
   11.4926    3.4198   27.6032 O   0  0  0  0  0  0
   13.0716    4.3137   25.6830 H   0  0  0  0  0  0
    9.2781    2.5127   26.5464 H   0  0  0  0  0  0
   10.3684    3.4502   22.4927 H   0  0  0  0  0  0
   12.5313    4.3130   23.2840 H   0  0  0  0  0  0
    8.3228    1.4059   24.4548 H   0  0  0  0  0  0
    5.5710    0.6996   21.1634 H   0  0  0  0  0  0
    5.0637    1.9274   18.8642 H   0  0  0  0  0  0
    7.1533    6.3059   21.7440 H   0  0  0  0  0  0
    8.7710    5.8442   21.2701 H   0  0  0  0  0  0
    7.8182    6.9252   20.2530 H   0  0  0  0  0  0
    3.0787    6.0207   15.4615 H   0  0  0  0  0  0
    4.2592    5.0759   13.5186 H   0  0  0  0  0  0
    6.0720    3.4319   13.8613 H   0  0  0  0  0  0
   12.3757    3.7525   27.7788 H   0  0  0  0  0  0
  1  2  2  0  0  0
  1  6  1  0  0  0
  1 29  1  0  0  0
  2  3  1  0  0  0
  2 28  1  0  0  0
  3  4  2  0  0  0
  3 30  1  0  0  0
  4  7  1  0  0  0
  4  5  1  0  0  0
  5  6  2  0  0  0
  5 31  1  0  0  0
  6 32  1  0  0  0
  7  8  1  0  0  0
  7 33  1  0  0  0
  8  9  1  0  0  0
  8 11  2  0  0  0
  9 13  2  0  0  0
 10 12  2  0  0  0
 10 11  1  0  0  0
 10 34  1  0  0  0
 12 17  1  0  0  0
 12 13  1  0  0  0
 13 14  1  0  0  0
 14 15  1  0  0  0
 14 18  1  0  0  0
 15 16  1  0  0  0
 15 19  2  0  0  0
 16 17  2  0  0  0
 16 20  1  0  0  0
 17 35  1  0  0  0
 18 36  1  0  0  0
 18 37  1  0  0  0
 18 38  1  0  0  0
 20 21  2  0  0  0
 20 25  1  0  0  0
 21 22  1  0  0  0
 21 27  1  0  0  0
 22 23  2  0  0  0
 22 39  1  0  0  0
 23 24  1  0  0  0
 23 40  1  0  0  0
 24 25  2  0  0  0
 24 41  1  0  0  0
 25 26  1  0  0  0
 28 42  1  0  0  0
M  END
> <s_m_entry_id>
49415

> <s_m_entry_name>
dock_pv.5

> <s_m_Source_Path>
/home/csk/Desktop/cluster/DUD-E-result/fgfr1

> <s_m_Source_File>
dock_pv.maegz

> <i_m_Source_File_Index>
5

> <chembl_id>
CHEMBL321193

> <chembl_pref_name>
None

> <i_lp_mmshare_version>
53161

> <i_f3d_flags>
0

> <r_lp_tautomer_probability>
1

> <s_lp_Force_Field>
OPLS_2005

> <r_lp_Energy>
26.889088

> <b_lp_Chiralities_Consistent>
1

> <s_lp_Variant>
CHEMBL3650_lig94-1

> <s_i_glide_gridfile>
glide-grid_3c4f

> <i_i_glide_lignum>
116

> <i_i_glide_rotatable_bonds>
4

> <r_i_docking_score>
-9.90439582049043

> <r_i_glide_ligand_efficiency>
-0.353728422160372

> <r_i_glide_ligand_efficiency_sa>
-1.07412782457809

> <r_i_glide_ligand_efficiency_ln>
-2.28622536106678

> <r_i_glide_gscore>
-9.90439582049043

> <r_i_glide_lipo>
-3.51227422305393

> <r_i_glide_hbond>
-0.608

> <r_i_glide_metal>
0

> <r_i_glide_rewards>
-3.47046891593839

> <r_i_glide_evdw>
-32.6699905395508

> <r_i_glide_ecoul>
-6.15146827697754

> <r_i_glide_erotb>
0.24256708702606

> <r_i_glide_esite>
0

> <r_i_glide_emodel>
-39.4135816264134

> <r_i_glide_energy>
-38.8214588165283

> <r_i_glide_einternal>
3.32014632225037

> <i_i_glide_confnum>
1

> <i_i_glide_posenum>
121

> <r_i_glide_eff_state_penalty>
0

> <s_user_duplicate_titles>
CHEMBL3650_lig94,183102

> <s_m_subgroup_title>
dock_pv

> <s_m_subgroupid>
dock_pv

> <b_m_subgroup_collapsed>
1

$$$$
CHEMBL3650_lig99
                    3D
 Schrodinger Suite 2021-1.
 45 48  0  0  1  0            999 V2000
    7.2524    4.8230   20.2374 N   0  0  0  0  0  0
    5.9169    3.8331   18.4891 C   0  0  0  0  0  0
    7.1446    3.6665   21.0211 C   0  0  0  0  0  0
    6.7447    4.9276   18.9773 C   0  0  0  0  0  0
    7.8607    3.6032   22.1758 N   0  0  0  0  0  0
    6.3364    2.6151   20.5671 C   0  0  0  0  0  0
    5.7038    2.7268   19.2388 C   0  0  0  0  0  0
    7.6507    2.5193   22.9442 C   0  0  0  0  0  0
    5.3473    4.0756   17.1267 C   0  0  0  0  0  0
    6.7710    1.5370   22.6530 N   0  0  0  0  0  0
    8.3807    2.3370   24.1180 N   0  0  0  0  0  0
    6.1734    1.5502   21.4352 C   0  0  0  0  0  0
    9.5710    2.8757   24.6359 C   0  0  0  0  0  0
    6.7710    5.9370   18.3101 O   0  0  0  0  0  0
    5.9559    3.5141   16.0053 C   0  0  0  0  0  0
    4.3060    4.9985   16.9186 C   0  0  0  0  0  0
    9.8647    2.6491   25.9952 C   0  0  0  0  0  0
    7.7903    6.0326   20.8948 C   0  0  0  0  0  0
    7.1710    2.3370   16.2356 Cl  0  0  0  0  0  0
    3.3507    5.5370   18.2530 Cl  0  0  0  0  0  0
    8.9350    1.9485   26.7506 O   0  0  0  0  0  0
    4.5525    4.7912   14.5206 C   0  0  0  0  0  0
   10.5007    3.5370   23.8226 C   0  0  0  0  0  0
    3.9090    5.3437   15.6241 C   0  0  0  0  0  0
    5.5710    3.8638   14.7119 C   0  0  0  0  0  0
   11.0831    3.1195   26.5167 C   0  0  0  0  0  0
    9.1876    1.6993   28.1285 C   0  0  0  0  0  0
   11.7236    3.9493   24.3476 C   0  0  0  0  0  0
   12.0072    3.7618   25.6963 C   0  0  0  0  0  0
    5.0865    1.9240   18.8569 H   0  0  0  0  0  0
    8.1790    1.4305   24.5298 H   0  0  0  0  0  0
    5.5710    0.7008   21.1530 H   0  0  0  0  0  0
    7.1427    6.3135   21.7258 H   0  0  0  0  0  0
    8.7710    5.8301   21.3162 H   0  0  0  0  0  0
    7.8697    6.9077   20.2530 H   0  0  0  0  0  0
    4.2552    5.0733   13.5198 H   0  0  0  0  0  0
   10.3129    3.6837   22.7704 H   0  0  0  0  0  0
    3.0815    6.0178   15.4665 H   0  0  0  0  0  0
    6.0685    3.4288   13.8581 H   0  0  0  0  0  0
   11.3448    2.9721   27.5531 H   0  0  0  0  0  0
    8.3710    1.1072   28.5416 H   0  0  0  0  0  0
   10.1105    1.1370   28.2756 H   0  0  0  0  0  0
    9.2432    2.6295   28.6953 H   0  0  0  0  0  0
   12.4552    4.4252   23.7108 H   0  0  0  0  0  0
   12.9544    4.0939   26.0985 H   0  0  0  0  0  0
  1  3  1  0  0  0
  1  4  1  0  0  0
  1 18  1  0  0  0
  2  4  1  0  0  0
  2  7  2  0  0  0
  2  9  1  0  0  0
  3  5  1  0  0  0
  3  6  2  0  0  0
  4 14  2  0  0  0
  5  8  2  0  0  0
  6 12  1  0  0  0
  6  7  1  0  0  0
  7 30  1  0  0  0
  8 11  1  0  0  0
  8 10  1  0  0  0
  9 15  1  0  0  0
  9 16  2  0  0  0
 10 12  2  0  0  0
 11 13  1  0  0  0
 11 31  1  0  0  0
 12 32  1  0  0  0
 13 17  2  0  0  0
 13 23  1  0  0  0
 15 19  1  0  0  0
 15 25  2  0  0  0
 16 20  1  0  0  0
 16 24  1  0  0  0
 17 21  1  0  0  0
 17 26  1  0  0  0
 18 33  1  0  0  0
 18 34  1  0  0  0
 18 35  1  0  0  0
 21 27  1  0  0  0
 22 24  2  0  0  0
 22 25  1  0  0  0
 22 36  1  0  0  0
 23 28  2  0  0  0
 23 37  1  0  0  0
 24 38  1  0  0  0
 25 39  1  0  0  0
 26 29  2  0  0  0
 26 40  1  0  0  0
 27 41  1  0  0  0
 27 42  1  0  0  0
 27 43  1  0  0  0
 28 29  1  0  0  0
 28 44  1  0  0  0
 29 45  1  0  0  0
M  END
> <s_m_entry_id>
49416

> <s_m_entry_name>
dock_pv.6

> <s_m_Source_Path>
/home/csk/Desktop/cluster/DUD-E-result/fgfr1

> <s_m_Source_File>
dock_pv.maegz

> <i_m_Source_File_Index>
6

> <chembl_id>
CHEMBL320705

> <chembl_pref_name>
None

> <i_lp_mmshare_version>
53161

> <i_f3d_flags>
0

> <r_lp_tautomer_probability>
1

> <s_lp_Force_Field>
OPLS_2005

> <r_lp_Energy>
29.053765

> <b_lp_Chiralities_Consistent>
1

> <s_lp_Variant>
CHEMBL3650_lig99-1

> <s_i_glide_gridfile>
glide-grid_3c4f

> <i_i_glide_lignum>
121

> <i_i_glide_rotatable_bonds>
4

> <r_i_docking_score>
-9.87941647182816

> <r_i_glide_ligand_efficiency>
-0.340669533511316

> <r_i_glide_ligand_efficiency_sa>
-1.04664473863058

> <r_i_glide_ligand_efficiency_ln>
-2.26213585166241

> <r_i_glide_gscore>
-9.87941647182816

> <r_i_glide_lipo>
-3.48235881035537

> <r_i_glide_hbond>
-0.567785295176865

> <r_i_glide_metal>
0

> <r_i_glide_rewards>
-3.36505815179717

> <r_i_glide_evdw>
-35.6579093933105

> <r_i_glide_ecoul>
-6.06454753875732

> <r_i_glide_erotb>
0.228363385980366

> <r_i_glide_esite>
0

> <r_i_glide_emodel>
-42.994714079733

> <r_i_glide_energy>
-41.7224569320679

> <r_i_glide_einternal>
7.37392139434814

> <i_i_glide_confnum>
8

> <i_i_glide_posenum>
134

> <r_i_glide_eff_state_penalty>
0

> <s_user_duplicate_titles>
CHEMBL3650_lig99

> <s_m_subgroup_title>
dock_pv

> <s_m_subgroupid>
dock_pv

> <b_m_subgroup_collapsed>
1

$$$$
CHEMBL3650_lig130
                    3D
 Schrodinger Suite 2021-1.
 42 45  0  0  1  0            999 V2000
    5.9486    3.8093   18.4680 C   0  0  0  0  0  0
    6.7268    4.9417   18.9415 C   0  0  0  0  0  0
    7.1752    4.8930   20.2216 N   0  0  0  0  0  0
    7.1674    3.7336   21.0060 C   0  0  0  0  0  0
    5.7438    2.7242   19.2526 C   0  0  0  0  0  0
    6.3714    2.6541   20.5916 C   0  0  0  0  0  0
    5.3819    4.0259   17.1035 C   0  0  0  0  0  0
    7.8843    3.6524   22.2007 C   0  0  0  0  0  0
    7.7536    2.5210   22.9833 C   0  0  0  0  0  0
    6.8888    1.5364   22.6525 N   0  0  0  0  0  0
    6.7711    5.9370   18.2532 O   0  0  0  0  0  0
    6.2487    1.5755   21.4526 C   0  0  0  0  0  0
    8.5104    2.3371   24.1431 N   0  0  0  0  0  0
    5.9671    3.4503   15.9795 C   0  0  0  0  0  0
    4.3613    4.9650   16.8979 C   0  0  0  0  0  0
    7.6592    6.1339   20.8510 C   0  0  0  0  0  0
    3.4306    5.5400   18.2403 Cl  0  0  0  0  0  0
    7.1710    2.2727   16.2095 Cl  0  0  0  0  0  0
    9.7011    2.9386   24.5818 C   0  0  0  0  0  0
    4.5679    4.7354   14.4989 C   0  0  0  0  0  0
    3.9529    5.3099   15.6067 C   0  0  0  0  0  0
    5.5707    3.7907   14.6869 C   0  0  0  0  0  0
    9.9720    2.9283   25.9513 C   0  0  0  0  0  0
   10.6516    3.4574   23.6920 C   0  0  0  0  0  0
   11.8672    3.9369   24.1724 C   0  0  0  0  0  0
   11.1740    3.4400   26.4342 C   0  0  0  0  0  0
   12.1177    3.9408   25.5413 C   0  0  0  0  0  0
    5.1442    1.9016   18.8866 H   0  0  0  0  0  0
    8.5210    4.4554   22.5312 H   0  0  0  0  0  0
    5.6278    0.7343   21.1797 H   0  0  0  0  0  0
    8.3701    1.4061   24.5271 H   0  0  0  0  0  0
    8.7181    6.0241   21.0736 H   0  0  0  0  0  0
    7.5370    7.0354   20.2531 H   0  0  0  0  0  0
    7.1378    6.3104   21.7932 H   0  0  0  0  0  0
    4.2625    5.0142   13.4996 H   0  0  0  0  0  0
    3.1384    6.0019   15.4588 H   0  0  0  0  0  0
    6.0516    3.3388   13.8325 H   0  0  0  0  0  0
    9.2543    2.5145   26.6444 H   0  0  0  0  0  0
   10.4926    3.4254   22.6246 H   0  0  0  0  0  0
   12.6178    4.3060   23.4889 H   0  0  0  0  0  0
   11.3819    3.4306   27.4940 H   0  0  0  0  0  0
   13.0627    4.3168   25.9089 H   0  0  0  0  0  0
  1  2  1  0  0  0
  1  5  2  0  0  0
  1  7  1  0  0  0
  2  3  1  0  0  0
  2 11  2  0  0  0
  3 16  1  0  0  0
  3  4  1  0  0  0
  4  6  1  0  0  0
  4  8  2  0  0  0
  5  6  1  0  0  0
  5 28  1  0  0  0
  6 12  2  0  0  0
  7 14  2  0  0  0
  7 15  1  0  0  0
  8  9  1  0  0  0
  8 29  1  0  0  0
  9 10  2  0  0  0
  9 13  1  0  0  0
 10 12  1  0  0  0
 12 30  1  0  0  0
 13 19  1  0  0  0
 13 31  1  0  0  0
 14 18  1  0  0  0
 14 22  1  0  0  0
 15 17  1  0  0  0
 15 21  2  0  0  0
 16 32  1  0  0  0
 16 33  1  0  0  0
 16 34  1  0  0  0
 19 23  2  0  0  0
 19 24  1  0  0  0
 20 21  1  0  0  0
 20 22  2  0  0  0
 20 35  1  0  0  0
 21 36  1  0  0  0
 22 37  1  0  0  0
 23 26  1  0  0  0
 23 38  1  0  0  0
 24 25  2  0  0  0
 24 39  1  0  0  0
 25 27  1  0  0  0
 25 40  1  0  0  0
 26 27  2  0  0  0
 26 41  1  0  0  0
 27 42  1  0  0  0
M  END
> <s_m_entry_id>
49417

> <s_m_entry_name>
dock_pv.7

> <s_m_Source_Path>
/home/csk/Desktop/cluster/DUD-E-result/fgfr1

> <s_m_Source_File>
dock_pv.maegz

> <i_m_Source_File_Index>
7

> <chembl_id>
CHEMBL323453

> <chembl_pref_name>
None

> <i_lp_mmshare_version>
53161

> <i_f3d_flags>
0

> <r_lp_tautomer_probability>
1

> <s_lp_Force_Field>
OPLS_2005

> <r_lp_Energy>
38.277416

> <b_lp_Chiralities_Consistent>
1

> <s_lp_Variant>
CHEMBL3650_lig130-1

> <s_i_glide_gridfile>
glide-grid_3c4f

> <i_i_glide_lignum>
152

> <i_i_glide_rotatable_bonds>
3

> <r_i_docking_score>
-9.62871523056962

> <r_i_glide_ligand_efficiency>
-0.35661908261369

> <r_i_glide_ligand_efficiency_sa>
-1.06985724666571

> <r_i_glide_ligand_efficiency_ln>
-2.24140616389969

> <r_i_glide_gscore>
-9.62871523056962

> <r_i_glide_lipo>
-4.29512837219359

> <r_i_glide_hbond>
-0.604054068067581

> <r_i_glide_metal>
0

> <r_i_glide_rewards>
-2.72851918149483

> <r_i_glide_evdw>
-30.0132675170898

> <r_i_glide_ecoul>
-5.07917165756226

> <r_i_glide_erotb>
0.261624688420536

> <r_i_glide_esite>
-9.91727453239083e-05

> <r_i_glide_emodel>
-33.4006967540096

> <r_i_glide_energy>
-35.0924391746521

> <r_i_glide_einternal>
8.72286701202393

> <i_i_glide_confnum>
17

> <i_i_glide_posenum>
73

> <r_i_glide_eff_state_penalty>
0

> <s_user_duplicate_titles>
CHEMBL3650_lig130

> <s_m_subgroup_title>
dock_pv

> <s_m_subgroupid>
dock_pv

> <b_m_subgroup_collapsed>
1

$$$$
CHEMBL3650_lig2649
                    3D
 Schrodinger Suite 2021-1.
 26 27  0  0  1  0            999 V2000
    8.3577    4.2651   20.9163 S   0  0  0  0  0  0
   10.3505    3.5370   23.0530 S   0  0  0  0  0  0
    5.9710    1.5370   22.0997 O   0  0  0  0  0  0
    3.7184    5.8332   16.1056 O   0  0  0  0  0  0
    5.9710    5.6570   14.6533 O   0  0  0  0  0  0
    7.9492    2.4370   22.6011 N   0  0  0  0  0  0
    6.8913    3.2854   20.7510 C   0  0  0  0  0  0
    6.8456    2.3499   21.8530 C   0  0  0  0  0  0
    5.9319    4.0204   18.4997 C   0  0  0  0  0  0
    5.9344    3.2823   19.7850 C   0  0  0  0  0  0
    8.9005    3.3337   22.2859 C   0  0  0  0  0  0
    4.7881    5.1986   16.6897 C   0  0  0  0  0  0
    4.7815    4.6404   17.9843 C   0  0  0  0  0  0
    5.9526    5.1480   15.9253 C   0  0  0  0  0  0
    7.0830    4.0117   17.7143 C   0  0  0  0  0  0
    7.0977    4.5585   16.4404 C   0  0  0  0  0  0
    2.4186    5.3139   16.3028 C   0  0  0  0  0  0
    6.8490    5.5370   14.2422 H   0  0  0  0  0  0
    8.0820    1.8043   23.3780 H   0  0  0  0  0  0
    5.0875    2.6194   19.9005 H   0  0  0  0  0  0
    3.8827    4.6670   18.5812 H   0  0  0  0  0  0
    7.9710    3.5370   18.0699 H   0  0  0  0  0  0
    8.0012    4.5145   15.8530 H   0  0  0  0  0  0
    1.6948    5.9370   15.7783 H   0  0  0  0  0  0
    2.3710    4.3370   15.8530 H   0  0  0  0  0  0
    2.1218    5.2650   17.3502 H   0  0  0  0  0  0
  1  7  1  0  0  0
  1 11  1  0  0  0
  2 11  2  0  0  0
  3  8  2  0  0  0
  4 12  1  0  0  0
  4 17  1  0  0  0
  5 14  1  0  0  0
  5 18  1  0  0  0
  6  8  1  0  0  0
  6 11  1  0  0  0
  6 19  1  0  0  0
  7  8  1  0  0  0
  7 10  2  3  0  0
  9 10  1  0  0  0
  9 13  1  0  0  0
  9 15  2  0  0  0
 10 20  1  0  0  0
 12 13  2  0  0  0
 12 14  1  0  0  0
 13 21  1  0  0  0
 14 16  2  0  0  0
 15 16  1  0  0  0
 15 22  1  0  0  0
 16 23  1  0  0  0
 17 24  1  0  0  0
 17 25  1  0  0  0
 17 26  1  0  0  0
M  END
> <s_m_entry_id>
49418

> <s_m_entry_name>
dock_pv.8

> <s_m_Source_Path>
/home/csk/Desktop/cluster/DUD-E-result/fgfr1

> <s_m_Source_File>
dock_pv.maegz

> <i_m_Source_File_Index>
8

> <chembl_id>
CHEMBL1973098

> <chembl_pref_name>
None

> <i_lp_mmshare_version>
53161

> <i_f3d_flags>
0

> <r_lp_tautomer_probability>
1

> <s_lp_Force_Field>
OPLS_2005

> <r_lp_Energy>
13.302511

> <b_lp_Chiralities_Consistent>
1

> <s_lp_Variant>
CHEMBL3650_lig2649-2

> <s_i_glide_gridfile>
glide-grid_3c4f

> <i_i_glide_lignum>
3265

> <i_i_glide_rotatable_bonds>
3

> <r_i_docking_score>
-9.47114129107391

> <r_i_glide_ligand_efficiency>
-0.557125958298465

> <r_i_glide_ligand_efficiency_sa>
-1.43252771889779

> <r_i_glide_ligand_efficiency_ln>
-2.47080985089439

> <r_i_glide_gscore>
-9.47114129107391

> <r_i_glide_lipo>
-2.12065834174555

> <r_i_glide_hbond>
-0.335668853691879

> <r_i_glide_metal>
0

> <r_i_glide_rewards>
-4.30641322727273

> <r_i_glide_evdw>
-29.2157001495361

> <r_i_glide_ecoul>
-9.48177909851074

> <r_i_glide_erotb>
0.174651003889669

> <r_i_glide_esite>
0

> <r_i_glide_emodel>
-57.0753317762844

> <r_i_glide_energy>
-38.6974792480469

> <r_i_glide_einternal>
3.27126359939575

> <i_i_glide_confnum>
3

> <i_i_glide_posenum>
32

> <r_i_glide_eff_state_penalty>
0

> <s_user_duplicate_titles>
CHEMBL3650_lig2649,CHEMBL3650_lig2649

> <s_m_subgroup_title>
dock_pv

> <s_m_subgroupid>
dock_pv

> <b_m_subgroup_collapsed>
1

$$$$
CHEMBL3650_lig102
                    3D
 Schrodinger Suite 2021-1.
 44 47  0  0  1  0            999 V2000
    7.3071    4.8055   20.2579 N   0  0  0  0  0  0
    5.9352    3.8344   18.5139 C   0  0  0  0  0  0
    7.2047    3.6470   21.0413 C   0  0  0  0  0  0
    6.7647    4.9229   19.0110 C   0  0  0  0  0  0
    7.9169    3.5801   22.2072 N   0  0  0  0  0  0
    6.3709    2.6107   20.5866 C   0  0  0  0  0  0
    5.7280    2.7278   19.2627 C   0  0  0  0  0  0
    5.3595    4.0787   17.1487 C   0  0  0  0  0  0
    7.6519    2.5125   22.9819 C   0  0  0  0  0  0
    6.7711    1.5370   22.6725 N   0  0  0  0  0  0
   12.6338    4.6946   24.9222 C   0  0  0  0  0  0
    8.2348    2.3370   24.2319 N   0  0  0  0  0  0
    6.1902    1.5490   21.4500 C   0  0  0  0  0  0
   11.4238    3.9373   25.3873 C   0  0  0  0  0  0
    6.7710    5.9369   18.3537 O   0  0  0  0  0  0
    5.9605    3.5135   16.0251 C   0  0  0  0  0  0
    4.3175    4.9993   16.9327 C   0  0  0  0  0  0
   10.3714    3.5872   24.5164 C   0  0  0  0  0  0
    9.3215    2.7875   24.9884 C   0  0  0  0  0  0
   13.1681    5.5607   25.6089 O   0  0  0  0  0  0
    7.8534    6.0114   20.9125 C   0  0  0  0  0  0
   13.1710    4.2218   23.7672 O   0  0  0  0  0  0
    3.3518    5.5402   18.2530 Cl  0  0  0  0  0  0
    7.1710    2.3363   16.2526 Cl  0  0  0  0  0  0
   11.3789    3.5288   26.7260 C   0  0  0  0  0  0
   10.3466    2.7202   27.1843 C   0  0  0  0  0  0
    4.5564    4.7839   14.5358 C   0  0  0  0  0  0
    5.5711    3.8546   14.7304 C   0  0  0  0  0  0
    3.9183    5.3419   15.6383 C   0  0  0  0  0  0
    9.3354    2.3369   26.3125 C   0  0  0  0  0  0
    5.1112    1.9248   18.8803 H   0  0  0  0  0  0
    7.9018    1.4576   24.6074 H   0  0  0  0  0  0
    5.5707    0.7118   21.1687 H   0  0  0  0  0  0
   10.3832    3.8964   23.4807 H   0  0  0  0  0  0
    7.9709    6.8694   20.2531 H   0  0  0  0  0  0
    7.1831    6.3227   21.7143 H   0  0  0  0  0  0
    8.8148    5.7943   21.3710 H   0  0  0  0  0  0
   14.1196    4.4062   23.8067 H   0  0  0  0  0  0
   12.1728    3.7950   27.4118 H   0  0  0  0  0  0
   10.3391    2.3775   28.2088 H   0  0  0  0  0  0
    4.2574    5.0615   13.5341 H   0  0  0  0  0  0
    6.0646    3.4128   13.8780 H   0  0  0  0  0  0
    3.0913    6.0168   15.4808 H   0  0  0  0  0  0
    8.5464    1.6981   26.6842 H   0  0  0  0  0  0
  1  3  1  0  0  0
  1  4  1  0  0  0
  1 21  1  0  0  0
  2  4  1  0  0  0
  2  7  2  0  0  0
  2  8  1  0  0  0
  3  5  1  0  0  0
  3  6  2  0  0  0
  4 15  2  0  0  0
  5  9  2  0  0  0
  6 13  1  0  0  0
  6  7  1  0  0  0
  7 31  1  0  0  0
  8 16  2  0  0  0
  8 17  1  0  0  0
  9 12  1  0  0  0
  9 10  1  0  0  0
 10 13  2  0  0  0
 11 14  1  0  0  0
 11 20  2  0  0  0
 11 22  1  0  0  0
 12 19  1  0  0  0
 12 32  1  0  0  0
 13 33  1  0  0  0
 14 18  1  0  0  0
 14 25  2  0  0  0
 16 24  1  0  0  0
 16 28  1  0  0  0
 17 23  1  0  0  0
 17 29  2  0  0  0
 18 19  2  0  0  0
 18 34  1  0  0  0
 19 30  1  0  0  0
 21 35  1  0  0  0
 21 36  1  0  0  0
 21 37  1  0  0  0
 22 38  1  0  0  0
 25 26  1  0  0  0
 25 39  1  0  0  0
 26 30  2  0  0  0
 26 40  1  0  0  0
 27 29  1  0  0  0
 27 28  2  0  0  0
 27 41  1  0  0  0
 28 42  1  0  0  0
 29 43  1  0  0  0
 30 44  1  0  0  0
M  END
> <s_m_entry_id>
49419

> <s_m_entry_name>
dock_pv.9

> <s_m_Source_Path>
/home/csk/Desktop/cluster/DUD-E-result/fgfr1

> <s_m_Source_File>
dock_pv.maegz

> <i_m_Source_File_Index>
9

> <chembl_id>
CHEMBL109631

> <chembl_pref_name>
None

> <i_lp_mmshare_version>
53161

> <i_f3d_flags>
0

> <r_lp_tautomer_probability>
1

> <s_lp_Force_Field>
OPLS_2005

> <r_lp_Energy>
27.257101

> <b_lp_Chiralities_Consistent>
1

> <s_lp_Variant>
CHEMBL3650_lig102-1

> <s_i_glide_gridfile>
glide-grid_3c4f

> <i_i_glide_lignum>
124

> <i_i_glide_rotatable_bonds>
5

> <r_i_docking_score>
-9.46291428436596

> <r_i_glide_ligand_efficiency>
-0.315430476145532

> <r_i_glide_ligand_efficiency_sa>
-0.980115827736712

> <r_i_glide_ligand_efficiency_ln>
-2.15007723211727

> <r_i_glide_gscore>
-9.46291428436596

> <r_i_glide_lipo>
-3.14828488846671

> <r_i_glide_hbond>
-0.485100701678282

> <r_i_glide_metal>
0

> <r_i_glide_rewards>
-3.06552520915873

> <r_i_glide_evdw>
-36.202953338623

> <r_i_glide_ecoul>
-7.84057426452637

> <r_i_glide_erotb>
0.287218518580739

> <r_i_glide_esite>
-0.0649881970328706

> <r_i_glide_emodel>
-44.1550715256757

> <r_i_glide_energy>
-44.0435276031494

> <r_i_glide_einternal>
6.50756931304932

> <i_i_glide_confnum>
10

> <i_i_glide_posenum>
71

> <r_i_glide_eff_state_penalty>
0

> <s_user_duplicate_titles>
CHEMBL3650_lig102,183377

> <s_m_subgroup_title>
dock_pv

> <s_m_subgroupid>
dock_pv

> <b_m_subgroup_collapsed>
1

$$$$
CHEMBL3650_lig790
                    3D
 Schrodinger Suite 2021-1.
 32 34  0  0  1  0            999 V2000
    5.3662    1.9747   12.7566 C   0  0  0  0  0  0
    6.1360    2.3371   13.8977 O   0  0  0  0  0  0
    5.6745    3.3480   14.7179 C   0  0  0  0  0  0
    4.5806    4.1748   14.4233 C   0  0  0  0  0  0
    4.1817    5.1616   15.3233 C   0  0  0  0  0  0
    4.8631    5.3334   16.5285 C   0  0  0  0  0  0
    6.3504    3.5363   15.9244 C   0  0  0  0  0  0
    5.9542    4.5162   16.8380 C   0  0  0  0  0  0
    6.6936    4.6709   18.1649 C   0  0  0  0  0  0
    6.4165    3.5534   19.1618 C   0  0  0  0  0  0
    7.0215    3.3826   20.4598 C   0  0  0  0  0  0
    5.5663    2.4667   19.0251 C   0  0  0  0  0  0
    5.5743    1.6806   20.1476 N   0  0  0  0  0  0
    6.4582    2.2137   21.0529 C   0  0  0  0  0  0
    6.7704    1.7069   22.2500 N   0  0  0  0  0  0
    7.7391    2.3837   22.9176 C   0  0  0  0  0  0
    8.3712    3.5366   22.4446 C   0  0  0  0  0  0
    8.0006    4.0634   21.2033 C   0  0  0  0  0  0
    5.8464    1.1375   12.2521 H   0  0  0  0  0  0
    4.3658    1.6486   13.0493 H   0  0  0  0  0  0
    5.2894    2.7953   12.0392 H   0  0  0  0  0  0
    4.0334    4.0753   13.4973 H   0  0  0  0  0  0
    3.3409    5.7938   15.0825 H   0  0  0  0  0  0
    4.5377    6.0979   17.2187 H   0  0  0  0  0  0
    7.1753    2.8884   16.1692 H   0  0  0  0  0  0
    7.7626    4.6893   17.9442 H   0  0  0  0  0  0
    6.4653    5.6394   18.6075 H   0  0  0  0  0  0
    4.9243    2.1938   18.1991 H   0  0  0  0  0  0
    5.0104    0.8421   20.2284 H   0  0  0  0  0  0
    8.0160    1.9720   23.8784 H   0  0  0  0  0  0
    9.1327    4.0223   23.0373 H   0  0  0  0  0  0
    8.4739    4.9533   20.8124 H   0  0  0  0  0  0
  1  2  1  0  0  0
  1 19  1  0  0  0
  1 20  1  0  0  0
  1 21  1  0  0  0
  2  3  1  0  0  0
  3  4  2  0  0  0
  3  7  1  0  0  0
  4  5  1  0  0  0
  4 22  1  0  0  0
  5  6  2  0  0  0
  5 23  1  0  0  0
  6  8  1  0  0  0
  6 24  1  0  0  0
  7  8  2  0  0  0
  7 25  1  0  0  0
  8  9  1  0  0  0
  9 10  1  0  0  0
  9 26  1  0  0  0
  9 27  1  0  0  0
 10 11  1  0  0  0
 10 12  2  0  0  0
 11 14  2  0  0  0
 11 18  1  0  0  0
 12 13  1  0  0  0
 12 28  1  0  0  0
 13 14  1  0  0  0
 13 29  1  0  0  0
 14 15  1  0  0  0
 15 16  2  0  0  0
 16 17  1  0  0  0
 16 30  1  0  0  0
 17 18  2  0  0  0
 17 31  1  0  0  0
 18 32  1  0  0  0
M  END
> <s_m_entry_id>
49420

> <s_m_entry_name>
dock_pv.10

> <s_m_Source_Path>
/home/csk/Desktop/cluster/DUD-E-result/fgfr1

> <s_m_Source_File>
dock_pv.maegz

> <i_m_Source_File_Index>
10

> <chembl_id>
CHEMBL1231606

> <chembl_pref_name>
None

> <i_lp_mmshare_version>
53161

> <i_f3d_flags>
0

> <r_lp_tautomer_probability>
0.999998432528457

> <s_lp_Force_Field>
OPLS_2005

> <r_lp_Energy>
10.616902

> <b_lp_Chiralities_Consistent>
1

> <s_lp_Variant>
CHEMBL3650_lig790-1

> <s_i_glide_gridfile>
glide-grid_3c4f

> <i_i_glide_lignum>
974

> <i_i_glide_rotatable_bonds>
3

> <r_i_docking_score>
-9.42370770959825

> <r_i_glide_ligand_efficiency>
-0.523539317199903

> <r_i_glide_ligand_efficiency_sa>
-1.37206115875972

> <r_i_glide_ligand_efficiency_ln>
-2.42231547421432

> <r_i_glide_gscore>
-9.42370770959825

> <r_i_glide_lipo>
-2.62664531075329

> <r_i_glide_hbond>
-0.713797861931546

> <r_i_glide_metal>
0

> <r_i_glide_rewards>
-3.77690268040582

> <r_i_glide_evdw>
-39.115104675293

> <r_i_glide_ecoul>
-5.17415380477905

> <r_i_glide_erotb>
0.425516447973907

> <r_i_glide_esite>
0

> <r_i_glide_emodel>
-66.5063831417309

> <r_i_glide_energy>
-44.289258480072

> <r_i_glide_einternal>
4.37117910385132

> <i_i_glide_confnum>
6

> <i_i_glide_posenum>
129

> <r_i_glide_eff_state_penalty>
0

> <s_user_duplicate_titles>
CHEMBL3650_lig790

> <s_m_subgroup_title>
dock_pv

> <s_m_subgroupid>
dock_pv

> <b_m_subgroup_collapsed>
1

$$$$
CHEMBL3650_lig421
                    3D
 Schrodinger Suite 2021-1.
 32 35  0  0  1  0            999 V2000
    6.4532    4.3585   17.9352 C   0  0  0  0  0  0
    5.6802    3.2075   17.9070 C   0  0  0  0  0  0
    5.5727    2.3951   19.0331 C   0  0  0  0  0  0
    7.1711    4.6888   19.0774 C   0  0  0  0  0  0
    7.1611    3.8358   20.2190 C   0  0  0  0  0  0
    6.3182    2.6984   20.1960 C   0  0  0  0  0  0
    6.2180    1.8819   21.2649 N   0  0  0  0  0  0
    6.9822    2.1015   22.3565 C   0  0  0  0  0  0
    7.9398    3.1251   22.4639 C   0  0  0  0  0  0
    7.9622    4.0265   21.3817 C   0  0  0  0  0  0
    8.8637    3.2823   23.6977 C   0  0  0  0  0  0
    9.6014    4.3368   23.9693 N   0  0  0  0  0  0
    9.0702    2.3358   24.6784 N   0  0  0  0  0  0
    9.9706    2.7909   25.6035 C   0  0  0  0  0  0
   10.2961    4.0679   25.1188 C   0  0  0  0  0  0
   11.1711    4.8691   25.7372 N   0  0  0  0  0  0
   11.7485    4.3747   26.8659 C   0  0  0  0  0  0
   11.4698    3.1123   27.3988 C   0  0  0  0  0  0
   10.5491    2.2716   26.7657 C   0  0  0  0  0  0
    6.7710    1.3518   23.4530 O   0  0  0  0  0  0
    8.7711    5.1370   21.4530 N   0  0  0  0  0  0
    6.5160    4.9869   17.0577 H   0  0  0  0  0  0
    5.1710    2.9494   16.9937 H   0  0  0  0  0  0
    4.9461    1.5164   19.0186 H   0  0  0  0  0  0
    7.7853    5.5728   19.0676 H   0  0  0  0  0  0
    8.6731    1.4061   24.6649 H   0  0  0  0  0  0
   12.4650    5.0230   27.3505 H   0  0  0  0  0  0
   11.9717    2.7850   28.2981 H   0  0  0  0  0  0
   10.3145    1.2875   27.1481 H   0  0  0  0  0  0
    7.5646    0.8874   23.7417 H   0  0  0  0  0  0
    9.2620    5.2961   22.3246 H   0  0  0  0  0  0
    8.6781    5.8592   20.7568 H   0  0  0  0  0  0
  1  2  1  0  0  0
  1  4  2  0  0  0
  1 22  1  0  0  0
  2  3  2  0  0  0
  2 23  1  0  0  0
  3  6  1  0  0  0
  3 24  1  0  0  0
  4  5  1  0  0  0
  4 25  1  0  0  0
  5  6  1  0  0  0
  5 10  2  0  0  0
  6  7  2  0  0  0
  7  8  1  0  0  0
  8 20  1  0  0  0
  8  9  2  0  0  0
  9 10  1  0  0  0
  9 11  1  0  0  0
 10 21  1  0  0  0
 11 12  2  0  0  0
 11 13  1  0  0  0
 12 15  1  0  0  0
 13 26  1  0  0  0
 13 14  1  0  0  0
 14 15  2  0  0  0
 14 19  1  0  0  0
 15 16  1  0  0  0
 16 17  2  0  0  0
 17 18  1  0  0  0
 17 27  1  0  0  0
 18 19  2  0  0  0
 18 28  1  0  0  0
 19 29  1  0  0  0
 20 30  1  0  0  0
 21 31  1  0  0  0
 21 32  1  0  0  0
M  END
> <s_m_entry_id>
49421

> <s_m_entry_name>
dock_pv.11

> <s_m_Source_Path>
/home/csk/Desktop/cluster/DUD-E-result/fgfr1

> <s_m_Source_File>
dock_pv.maegz

> <i_m_Source_File_Index>
11

> <chembl_id>
CHEMBL204727

> <chembl_pref_name>
None

> <i_lp_mmshare_version>
53161

> <i_f3d_flags>
0

> <r_lp_tautomer_probability>
0.641916433060686

> <s_lp_Force_Field>
OPLS_2005

> <r_lp_Energy>
30.315747

> <b_lp_Chiralities_Consistent>
1

> <s_lp_Variant>
CHEMBL3650_lig421-1

> <s_i_glide_gridfile>
glide-grid_3c4f

> <i_i_glide_lignum>
455

> <i_i_glide_rotatable_bonds>
2

> <r_i_docking_score>
-9.39534199497517

> <r_i_glide_ligand_efficiency>
-0.447397237855961

> <r_i_glide_ligand_efficiency_sa>
-1.23433505471429

> <r_i_glide_ligand_efficiency_ln>
-2.32297932318151

> <r_i_glide_gscore>
-9.39534199497517

> <r_i_glide_lipo>
-2.79235395577721

> <r_i_glide_hbond>
-0.955358722890544

> <r_i_glide_metal>
0

> <r_i_glide_rewards>
-2.80194963043127

> <r_i_glide_evdw>
-22.9677505493164

> <r_i_glide_ecoul>
-12.6789989471436

> <r_i_glide_erotb>
0.234197224945532

> <r_i_glide_esite>
-0.029639541284329

> <r_i_glide_emodel>
-49.306621349514

> <r_i_glide_energy>
-35.64674949646

> <r_i_glide_einternal>
1.52217638492584

> <i_i_glide_confnum>
2

> <i_i_glide_posenum>
336

> <r_i_glide_eff_state_penalty>
0

> <s_user_duplicate_titles>
CHEMBL3650_lig421,345149

> <s_m_subgroup_title>
dock_pv

> <s_m_subgroupid>
dock_pv

> <b_m_subgroup_collapsed>
1

$$$$
CHEMBL3650_lig1587
                    3D
 Schrodinger Suite 2021-1.
 45 49  0  0  1  0            999 V2000
    5.3892    3.7212   11.6936 C   0  0  0  0  0  0
    5.4475    3.8689   13.1937 C   0  0  0  0  0  0
    6.0730    3.0485   13.9958 N   0  0  0  0  0  0
    5.8978    3.5971   15.2385 C   0  0  0  0  0  0
    6.3551    3.1371   16.4731 C   0  0  0  0  0  0
    5.8897    3.7811   17.6253 C   0  0  0  0  0  0
    5.1200    4.9452   17.5501 C   0  0  0  0  0  0
    4.7194    5.4756   16.3242 C   0  0  0  0  0  0
    5.0955    4.7618   15.1870 C   0  0  0  0  0  0
    4.8433    4.9118   13.8529 N   0  0  0  0  0  0
    6.0637    3.1421   18.8595 N   0  0  0  0  0  0
    5.5709    1.9059   18.9672 N   0  0  0  0  0  0
    5.8369    1.5368   20.1850 C   0  0  0  0  0  0
    6.5316    2.4944   20.9060 C   0  0  0  0  0  0
    7.0309    2.2842   22.2526 C   0  0  0  0  0  0
    6.4387    1.5377   23.0253 O   0  0  0  0  0  0
    8.3031    2.8684   22.6128 C   0  0  0  0  0  0
    9.2893    3.2118   21.7669 C   0  0  0  0  0  0
   10.3735    3.8250   22.5737 C   0  0  2  0  0  0
   11.8713    3.7336   22.2609 C   0  0  0  0  0  0
   12.7335    3.9369   23.2822 C   0  0  0  0  0  0
   12.2464    4.1026   24.6539 C   0  0  0  0  0  0
   10.9821    3.7450   24.9851 C   0  0  0  0  0  0
   10.1013    3.1171   23.9032 C   0  0  1  0  0  0
    8.6601    3.1367   23.9222 N   0  0  0  0  0  0
    6.6314    3.5845   20.0369 C   0  0  0  0  0  0
    7.1712    4.8346   20.1686 N   0  0  0  0  0  0
    5.9718    2.8726   11.3353 H   0  0  0  0  0  0
    4.3709    3.5778   11.3417 H   0  0  0  0  0  0
    5.7691    4.6143   11.1971 H   0  0  0  0  0  0
    6.9441    2.2342   16.5355 H   0  0  0  0  0  0
    4.7549    5.4063   18.4548 H   0  0  0  0  0  0
    4.0797    6.3371   16.2624 H   0  0  0  0  0  0
    4.3779    5.6683   13.3552 H   0  0  0  0  0  0
    5.5712    0.5514   20.5404 H   0  0  0  0  0  0
    9.2971    3.1386   20.6896 H   0  0  0  0  0  0
   10.0717    4.8634   22.6068 H   0  0  0  0  0  0
   12.2550    3.5370   21.2730 H   0  0  0  0  0  0
   13.7975    3.8892   23.0993 H   0  0  0  0  0  0
   12.9098    4.5111   25.4035 H   0  0  0  0  0  0
   10.6464    3.8111   26.0095 H   0  0  0  0  0  0
   10.3709    2.0612   23.8397 H   0  0  0  0  0  0
    8.2726    2.5339   24.6356 H   0  0  0  0  0  0
    7.5971    5.1354   21.0333 H   0  0  0  0  0  0
    7.2312    5.4671   19.3832 H   0  0  0  0  0  0
  1  2  1  0  0  0
  1 28  1  0  0  0
  1 29  1  0  0  0
  1 30  1  0  0  0
  2  3  2  0  0  0
  2 10  1  0  0  0
  3  4  1  0  0  0
  4  5  2  0  0  0
  4  9  1  0  0  0
  5  6  1  0  0  0
  5 31  1  0  0  0
  6  7  2  0  0  0
  6 11  1  0  0  0
  7  8  1  0  0  0
  7 32  1  0  0  0
  8  9  2  0  0  0
  8 33  1  0  0  0
  9 10  1  0  0  0
 10 34  1  0  0  0
 11 12  1  0  0  0
 11 26  1  0  0  0
 12 13  2  0  0  0
 13 14  1  0  0  0
 13 35  1  0  0  0
 14 15  1  0  0  0
 14 26  2  0  0  0
 15 16  2  0  0  0
 15 17  1  0  0  0
 17 18  2  0  0  0
 17 25  1  0  0  0
 18 19  1  0  0  0
 18 36  1  0  0  0
 19 20  1  0  0  0
 19 24  1  0  0  0
 19 37  1  0  0  0
 20 21  2  0  0  0
 20 38  1  0  0  0
 21 22  1  0  0  0
 21 39  1  0  0  0
 22 23  2  0  0  0
 22 40  1  0  0  0
 23 24  1  0  0  0
 23 41  1  0  0  0
 24 25  1  0  0  0
 24 42  1  0  0  0
 25 43  1  0  0  0
 26 27  1  0  0  0
 27 44  1  0  0  0
 27 45  1  0  0  0
M  END
> <s_m_entry_id>
49422

> <s_m_entry_name>
dock_pv.12

> <s_m_Source_Path>
/home/csk/Desktop/cluster/DUD-E-result/fgfr1

> <s_m_Source_File>
dock_pv.maegz

> <i_m_Source_File_Index>
12

> <chembl_id>
CHEMBL3676312

> <chembl_pref_name>
None

> <i_lp_mmshare_version>
53161

> <i_f3d_flags>
0

> <r_lp_tautomer_probability>
1

> <s_lp_Force_Field>
OPLS_2005

> <r_lp_Energy>
54.882145

> <b_lp_Chiralities_Consistent>
1

> <s_lp_Variant>
CHEMBL3650_lig1587-1

> <s_i_glide_gridfile>
glide-grid_3c4f

> <i_i_glide_lignum>
1951

> <i_i_glide_rotatable_bonds>
3

> <r_i_docking_score>
-9.35999078108845

> <r_i_glide_ligand_efficiency>
-0.346666325225498

> <r_i_glide_ligand_efficiency_sa>
-1.03999897453394

> <r_i_glide_ligand_efficiency_ln>
-2.17885154232927

> <r_i_glide_gscore>
-9.35999078108845

> <r_i_glide_lipo>
-3.39305721414847

> <r_i_glide_hbond>
-0.595376886967501

> <r_i_glide_metal>
0

> <r_i_glide_rewards>
-2.40374884341982

> <r_i_glide_evdw>
-42.7321090698242

> <r_i_glide_ecoul>
-7.7405424118042

> <r_i_glide_erotb>
0.447385849027186

> <r_i_glide_esite>
-0.117506870318017

> <r_i_glide_emodel>
-57.4159487149528

> <r_i_glide_energy>
-50.4726514816284

> <r_i_glide_einternal>
6.52580499649048

> <i_i_glide_confnum>
15

> <i_i_glide_posenum>
140

> <r_i_glide_eff_state_penalty>
0

> <s_user_duplicate_titles>
CHEMBL3650_lig1587

> <s_m_subgroup_title>
dock_pv

> <s_m_subgroupid>
dock_pv

> <b_m_subgroup_collapsed>
1

$$$$
CHEMBL3650_lig2543
                    3D
 Schrodinger Suite 2021-1.
 26 27  0  0  1  0            999 V2000
    8.3710    4.2824   21.0703 S   0  0  0  0  0  0
    5.9710    1.5370   22.2485 O   0  0  0  0  0  0
    9.8931    3.6247   23.1863 O   0  0  0  0  0  0
    3.5354    5.5370   16.3989 O   0  0  0  0  0  0
    5.9710    5.7770   14.8559 O   0  0  0  0  0  0
    7.9442    2.4789   22.7906 N   0  0  0  0  0  0
    6.9358    3.2639   20.8972 C   0  0  0  0  0  0
    6.8636    2.3454   22.0121 C   0  0  0  0  0  0
    5.9985    4.0087   18.6486 C   0  0  0  0  0  0
    6.0026    3.2465   19.9155 C   0  0  0  0  0  0
    8.8740    3.3981   22.5401 C   0  0  0  0  0  0
    4.7559    5.0858   16.8451 C   0  0  0  0  0  0
    4.7974    4.4804   18.1080 C   0  0  0  0  0  0
    5.9397    5.2049   16.1009 C   0  0  0  0  0  0
    7.1710    4.2054   17.9172 C   0  0  0  0  0  0
    7.1311    4.7370   16.6362 C   0  0  0  0  0  0
    3.1166    5.1370   15.0980 C   0  0  0  0  0  0
    6.8352    5.6736   14.4184 H   0  0  0  0  0  0
    8.0535    1.8694   23.5881 H   0  0  0  0  0  0
    5.1710    2.5614   20.0113 H   0  0  0  0  0  0
    3.8732    4.3590   18.6530 H   0  0  0  0  0  0
    8.1361    3.9370   18.3094 H   0  0  0  0  0  0
    8.0361    4.8149   16.0579 H   0  0  0  0  0  0
    2.0274    5.1370   15.0581 H   0  0  0  0  0  0
    3.4608    5.8433   14.3422 H   0  0  0  0  0  0
    3.4732    4.1414   14.8276 H   0  0  0  0  0  0
  1  7  1  0  0  0
  1 11  1  0  0  0
  2  8  2  0  0  0
  3 11  2  0  0  0
  4 12  1  0  0  0
  4 17  1  0  0  0
  5 14  1  0  0  0
  5 18  1  0  0  0
  6  8  1  0  0  0
  6 11  1  0  0  0
  6 19  1  0  0  0
  7  8  1  0  0  0
  7 10  2  3  0  0
  9 10  1  0  0  0
  9 13  1  0  0  0
  9 15  2  0  0  0
 10 20  1  0  0  0
 12 13  2  0  0  0
 12 14  1  0  0  0
 13 21  1  0  0  0
 14 16  2  0  0  0
 15 16  1  0  0  0
 15 22  1  0  0  0
 16 23  1  0  0  0
 17 24  1  0  0  0
 17 25  1  0  0  0
 17 26  1  0  0  0
M  END
> <s_m_entry_id>
49423

> <s_m_entry_name>
dock_pv.13

> <s_m_Source_Path>
/home/csk/Desktop/cluster/DUD-E-result/fgfr1

> <s_m_Source_File>
dock_pv.maegz

> <i_m_Source_File_Index>
13

> <chembl_id>
CHEMBL2003286

> <chembl_pref_name>
None

> <i_lp_mmshare_version>
53161

> <i_f3d_flags>
0

> <r_lp_tautomer_probability>
1

> <s_lp_Force_Field>
OPLS_2005

> <r_lp_Energy>
16.145588

> <b_lp_Chiralities_Consistent>
1

> <s_lp_Variant>
CHEMBL3650_lig2543-2

> <s_i_glide_gridfile>
glide-grid_3c4f

> <i_i_glide_lignum>
3114

> <i_i_glide_rotatable_bonds>
3

> <r_i_docking_score>
-9.28058456415232

> <r_i_glide_ligand_efficiency>
-0.545916739067784

> <r_i_glide_ligand_efficiency_sa>
-1.4037056598715

> <r_i_glide_ligand_efficiency_ln>
-2.42109784433022

> <r_i_glide_gscore>
-9.28058456415232

> <r_i_glide_lipo>
-2.11454629186257

> <r_i_glide_hbond>
-0.359378743391475

> <r_i_glide_metal>
0

> <r_i_glide_rewards>
-3.94095822727273

> <r_i_glide_evdw>
-32.6337127685547

> <r_i_glide_ecoul>
-9.52222633361816

> <r_i_glide_erotb>
0.19431828684491

> <r_i_glide_esite>
0

> <r_i_glide_emodel>
-57.9979034446242

> <r_i_glide_energy>
-42.1559391021729

> <r_i_glide_einternal>
9.29955673217773

> <i_i_glide_confnum>
4

> <i_i_glide_posenum>
82

> <r_i_glide_eff_state_penalty>
0

> <s_user_duplicate_titles>
CHEMBL3650_lig2543,CHEMBL3650_lig2543

> <s_m_subgroup_title>
dock_pv

> <s_m_subgroupid>
dock_pv

> <b_m_subgroup_collapsed>
1

$$$$
CHEMBL3650_lig867
                    3D
 Schrodinger Suite 2021-1.
 40 43  0  0  1  0            999 V2000
    6.0668    3.5877   19.0501 N   0  0  0  0  0  0
    5.5710    2.2763   19.4150 C   0  0  0  0  0  0
    6.1741    2.0584   20.7859 C   0  0  0  0  0  0
    7.0994    3.1409   21.0119 C   0  0  0  0  0  0
    6.9620    4.0200   20.0084 C   0  0  0  0  0  0
    5.9710    1.1370   21.5546 O   0  0  0  0  0  0
    8.0206    3.1642   22.1561 C   0  0  0  0  0  0
    7.7873    2.5739   23.3070 N   0  0  0  0  0  0
    8.9016    2.7879   24.0699 C   0  0  0  0  0  0
    9.8579    3.5489   23.3613 C   0  0  0  0  0  0
    9.2566    3.7726   22.1419 N   0  0  0  0  0  0
    9.1725    2.3722   25.3813 C   0  0  0  0  0  0
   10.3710    2.7839   25.9659 C   0  0  0  0  0  0
   11.3103    3.5370   25.2530 C   0  0  0  0  0  0
   11.0898    3.9047   23.9204 C   0  0  0  0  0  0
   12.6112    3.9379   25.9252 C   0  0  0  0  0  0
    5.8426    4.0366   17.7387 C   0  0  0  0  0  0
    6.4217    3.3580   16.6627 C   0  0  0  0  0  0
    6.1545    3.7602   15.3571 C   0  0  0  0  0  0
    5.3086    4.8409   15.1151 C   0  0  0  0  0  0
    4.7240    5.5172   16.1834 C   0  0  0  0  0  0
    4.9970    5.1233   17.4927 C   0  0  0  0  0  0
    6.7710    3.1370   14.3095 O   0  0  0  0  0  0
    7.5710    5.2206   19.8082 N   0  0  0  0  0  0
    5.8606    1.4825   18.7263 H   0  0  0  0  0  0
    4.4836    2.2542   19.4530 H   0  0  0  0  0  0
    9.6230    4.2447   21.3317 H   0  0  0  0  0  0
    8.4600    1.7718   25.9276 H   0  0  0  0  0  0
   10.5839    2.4910   26.9844 H   0  0  0  0  0  0
   11.8525    4.4159   23.3554 H   0  0  0  0  0  0
   13.0316    4.8386   25.4756 H   0  0  0  0  0  0
   12.4491    4.1625   26.9799 H   0  0  0  0  0  0
   13.3475    3.1370   25.8529 H   0  0  0  0  0  0
    7.0833    2.5223   16.8369 H   0  0  0  0  0  0
    5.1087    5.1607   14.1011 H   0  0  0  0  0  0
    4.0505    6.3370   15.9918 H   0  0  0  0  0  0
    4.5186    5.6425   18.3069 H   0  0  0  0  0  0
    7.3118    3.8213   13.8708 H   0  0  0  0  0  0
    8.2092    5.6055   20.4853 H   0  0  0  0  0  0
    7.3899    5.7522   18.9697 H   0  0  0  0  0  0
  1  2  1  0  0  0
  1  5  1  0  0  0
  1 17  1  0  0  0
  2  3  1  0  0  0
  2 25  1  0  0  0
  2 26  1  0  0  0
  3  4  1  0  0  0
  3  6  2  0  0  0
  4  5  2  0  0  0
  4  7  1  0  0  0
  5 24  1  0  0  0
  7  8  2  0  0  0
  7 11  1  0  0  0
  8  9  1  0  0  0
  9 10  1  0  0  0
  9 12  2  0  0  0
 10 11  1  0  0  0
 10 15  2  0  0  0
 11 27  1  0  0  0
 12 13  1  0  0  0
 12 28  1  0  0  0
 13 14  2  0  0  0
 13 29  1  0  0  0
 14 15  1  0  0  0
 14 16  1  0  0  0
 15 30  1  0  0  0
 16 31  1  0  0  0
 16 32  1  0  0  0
 16 33  1  0  0  0
 17 18  1  0  0  0
 17 22  2  0  0  0
 18 19  2  0  0  0
 18 34  1  0  0  0
 19 20  1  0  0  0
 19 23  1  0  0  0
 20 21  2  0  0  0
 20 35  1  0  0  0
 21 22  1  0  0  0
 21 36  1  0  0  0
 22 37  1  0  0  0
 23 38  1  0  0  0
 24 39  1  0  0  0
 24 40  1  0  0  0
M  END
> <s_m_entry_id>
49424

> <s_m_entry_name>
dock_pv.14

> <s_m_Source_Path>
/home/csk/Desktop/cluster/DUD-E-result/fgfr1

> <s_m_Source_File>
dock_pv.maegz

> <i_m_Source_File_Index>
14

> <chembl_id>
CHEMBL3781980

> <chembl_pref_name>
None

> <i_lp_mmshare_version>
53161

> <i_f3d_flags>
0

> <r_lp_tautomer_probability>
0.999998894699381

> <s_lp_Force_Field>
OPLS_2005

> <r_lp_Energy>
39.08767

> <b_lp_Chiralities_Consistent>
1

> <s_lp_Variant>
CHEMBL3650_lig867-1

> <s_i_glide_gridfile>
glide-grid_3c4f

> <i_i_glide_lignum>
1060

> <i_i_glide_rotatable_bonds>
3

> <r_i_docking_score>
-9.23274698936327

> <r_i_glide_ligand_efficiency>
-0.38469779122347

> <r_i_glide_ligand_efficiency_sa>
-1.109660447005

> <r_i_glide_ligand_efficiency_ln>
-2.20982001770771

> <r_i_glide_gscore>
-9.23274698936327

> <r_i_glide_lipo>
-2.57609793230598

> <r_i_glide_hbond>
-0.585761546326669

> <r_i_glide_metal>
0

> <r_i_glide_rewards>
-3.30050375454817

> <r_i_glide_evdw>
-37.3986358642578

> <r_i_glide_ecoul>
-8.428955078125

> <r_i_glide_erotb>
0.363891298749192

> <r_i_glide_esite>
0

> <r_i_glide_emodel>
-61.907047621124

> <r_i_glide_energy>
-45.8275909423828

> <r_i_glide_einternal>
10.056957244873

> <i_i_glide_confnum>
2

> <i_i_glide_posenum>
131

> <r_i_glide_eff_state_penalty>
0

> <s_user_duplicate_titles>
CHEMBL3650_lig867

> <s_m_subgroup_title>
dock_pv

> <s_m_subgroupid>
dock_pv

> <b_m_subgroup_collapsed>
1

$$$$
CHEMBL3650_lig1675
                    3D
 Schrodinger Suite 2021-1.
 44 48  0  0  1  0            999 V2000
    5.5712    2.9218   11.5236 C   0  0  0  0  0  0
    5.5196    3.3093   12.9823 C   0  0  0  0  0  0
    6.2214    2.7370   13.9299 N   0  0  0  0  0  0
    5.9230    3.4554   15.0612 C   0  0  0  0  0  0
    6.4298    3.3258   16.3636 C   0  0  0  0  0  0
    5.9527    4.1977   17.3520 C   0  0  0  0  0  0
    4.9565    5.1371   17.0634 C   0  0  0  0  0  0
    4.4087    5.2569   15.7842 C   0  0  0  0  0  0
    4.9413    4.4386   14.7910 C   0  0  0  0  0  0
    4.7305    4.3367   13.4385 N   0  0  0  0  0  0
    6.4483    4.0860   18.6679 N   0  0  0  0  0  0
    7.1706    5.0833   19.1986 N   0  0  0  0  0  0
    7.4871    4.6692   20.4030 C   0  0  0  0  0  0
    7.0177    3.3768   20.6884 C   0  0  0  0  0  0
    7.2048    2.5874   21.9129 C   0  0  0  0  0  0
    6.3716    1.7401   22.2504 O   0  0  0  0  0  0
    8.3982    2.8534   22.7348 C   0  0  0  0  0  0
    9.6017    3.5050   22.5010 C   0  0  0  0  0  0
   10.3597    3.4638   23.7200 C   0  0  0  0  0  0
   11.6224    3.9361   24.1176 C   0  0  0  0  0  0
   12.0246    3.7629   25.4417 C   0  0  0  0  0  0
   11.2187    3.0876   26.3560 C   0  0  0  0  0  0
   11.6584    2.9198   27.6377 O   0  0  0  0  0  0
    9.9862    2.5487   25.9916 C   0  0  0  0  0  0
    9.5708    2.7468   24.6697 C   0  0  0  0  0  0
    8.4290    2.3398   24.0098 N   0  0  0  0  0  0
    6.3029    3.0304   19.5437 C   0  0  0  0  0  0
    5.5711    1.9252   19.2167 N   0  0  0  0  0  0
    6.1909    2.0419   11.3467 H   0  0  0  0  0  0
    4.5875    2.6930   11.1253 H   0  0  0  0  0  0
    5.9710    3.7313   10.9131 H   0  0  0  0  0  0
    7.1714    2.5777   16.5951 H   0  0  0  0  0  0
    4.5763    5.7705   17.8505 H   0  0  0  0  0  0
    3.6065    5.9375   15.5646 H   0  0  0  0  0  0
    4.1786    4.9333   12.8343 H   0  0  0  0  0  0
    8.0543    5.3054   21.0663 H   0  0  0  0  0  0
    9.8961    3.9566   21.5665 H   0  0  0  0  0  0
   12.2971    4.3862   23.4070 H   0  0  0  0  0  0
   12.9969    4.1295   25.7452 H   0  0  0  0  0  0
   12.5441    3.2685   27.7664 H   0  0  0  0  0  0
    9.3877    2.0018   26.7054 H   0  0  0  0  0  0
    7.6886    1.7510   24.3664 H   0  0  0  0  0  0
    5.4229    1.1656   19.8676 H   0  0  0  0  0  0
    5.0992    1.8464   18.3286 H   0  0  0  0  0  0
  1  2  1  0  0  0
  1 29  1  0  0  0
  1 30  1  0  0  0
  1 31  1  0  0  0
  2  3  2  0  0  0
  2 10  1  0  0  0
  3  4  1  0  0  0
  4  5  2  0  0  0
  4  9  1  0  0  0
  5  6  1  0  0  0
  5 32  1  0  0  0
  6  7  2  0  0  0
  6 11  1  0  0  0
  7  8  1  0  0  0
  7 33  1  0  0  0
  8  9  2  0  0  0
  8 34  1  0  0  0
  9 10  1  0  0  0
 10 35  1  0  0  0
 11 12  1  0  0  0
 11 27  1  0  0  0
 12 13  2  0  0  0
 13 14  1  0  0  0
 13 36  1  0  0  0
 14 15  1  0  0  0
 14 27  2  0  0  0
 15 16  2  0  0  0
 15 17  1  0  0  0
 17 18  2  0  0  0
 17 26  1  0  0  0
 18 19  1  0  0  0
 18 37  1  0  0  0
 19 20  2  0  0  0
 19 25  1  0  0  0
 20 21  1  0  0  0
 20 38  1  0  0  0
 21 22  2  0  0  0
 21 39  1  0  0  0
 22 23  1  0  0  0
 22 24  1  0  0  0
 23 40  1  0  0  0
 24 25  2  0  0  0
 24 41  1  0  0  0
 25 26  1  0  0  0
 26 42  1  0  0  0
 27 28  1  0  0  0
 28 43  1  0  0  0
 28 44  1  0  0  0
M  END
> <s_m_entry_id>
49425

> <s_m_entry_name>
dock_pv.15

> <s_m_Source_Path>
/home/csk/Desktop/cluster/DUD-E-result/fgfr1

> <s_m_Source_File>
dock_pv.maegz

> <i_m_Source_File_Index>
15

> <chembl_id>
CHEMBL3681316

> <chembl_pref_name>
None

> <i_lp_mmshare_version>
53161

> <i_f3d_flags>
0

> <r_lp_tautomer_probability>
1

> <s_lp_Force_Field>
OPLS_2005

> <r_lp_Energy>
17.727742

> <b_lp_Chiralities_Consistent>
1

> <s_lp_Variant>
CHEMBL3650_lig1675-1

> <s_i_glide_gridfile>
glide-grid_3c4f

> <i_i_glide_lignum>
2052

> <i_i_glide_rotatable_bonds>
4

> <r_i_docking_score>
-9.10964624193613

> <r_i_glide_ligand_efficiency>
-0.325344508640576

> <r_i_glide_ligand_efficiency_sa>
-0.987937545900943

> <r_i_glide_ligand_efficiency_ln>
-2.10277382347486

> <r_i_glide_gscore>
-9.10964624193613

> <r_i_glide_lipo>
-2.89426792560689

> <r_i_glide_hbond>
-0.65489444350515

> <r_i_glide_metal>
0

> <r_i_glide_rewards>
-2.04657991192387

> <r_i_glide_evdw>
-55.4627571105957

> <r_i_glide_ecoul>
-7.25562810897827

> <r_i_glide_erotb>
0.417839416389887

> <r_i_glide_esite>
-0.0702613054135823

> <r_i_glide_emodel>
-94.0431757756291

> <r_i_glide_energy>
-62.718385219574

> <r_i_glide_einternal>
3.83231997489929

> <i_i_glide_confnum>
5

> <i_i_glide_posenum>
81

> <r_i_glide_eff_state_penalty>
0

> <s_user_duplicate_titles>
CHEMBL3650_lig1675

> <s_m_subgroup_title>
dock_pv

> <s_m_subgroupid>
dock_pv

> <b_m_subgroup_collapsed>
1

$$$$
CHEMBL3650_lig1689
                    3D
 Schrodinger Suite 2021-1.
 41 45  0  0  1  0            999 V2000
    5.4073    3.5545   11.7456 C   0  0  0  0  0  0
    5.4892    3.7596   13.2379 C   0  0  0  0  0  0
    6.1036    2.9597   14.0727 N   0  0  0  0  0  0
    5.9350    3.5546   15.2975 C   0  0  0  0  0  0
    6.3836    3.1346   16.5527 C   0  0  0  0  0  0
    5.9353    3.8079   17.6946 C   0  0  0  0  0  0
    5.1728    4.9739   17.5717 C   0  0  0  0  0  0
    4.7779    5.4701   16.3248 C   0  0  0  0  0  0
    5.1494    4.7257   15.2019 C   0  0  0  0  0  0
    4.9118    4.8426   13.8531 N   0  0  0  0  0  0
    6.1419    3.2008   18.9560 N   0  0  0  0  0  0
    5.6464    1.9654   19.1169 N   0  0  0  0  0  0
    5.9716    1.6213   20.3316 C   0  0  0  0  0  0
    6.7313    2.5904   21.0087 C   0  0  0  0  0  0
    7.2732    2.3859   22.3635 C   0  0  0  0  0  0
    6.7432    1.5370   23.0631 O   0  0  0  0  0  0
    8.4682    3.0271   22.9119 C   0  0  0  0  0  0
    8.7697    3.0857   24.1858 N   0  0  0  0  0  0
   10.0500    3.4534   24.4082 C   0  0  0  0  0  0
   10.6382    3.5997   25.6716 C   0  0  0  0  0  0
   11.9872    3.9487   25.7308 C   0  0  0  0  0  0
   12.7356    4.1184   24.5675 C   0  0  0  0  0  0
   12.1785    3.9373   23.3003 C   0  0  0  0  0  0
   10.8087    3.6560   23.2346 C   0  0  0  0  0  0
    9.7345    3.5375   21.8532 S   0  0  0  0  0  0
    6.7676    3.6635   20.1058 C   0  0  0  0  0  0
    7.2862    4.9249   20.1874 N   0  0  0  0  0  0
    5.8770    2.6246   11.4240 H   0  0  0  0  0  0
    4.3732    3.5305   11.4035 H   0  0  0  0  0  0
    5.8921    4.3726   11.2128 H   0  0  0  0  0  0
    6.9664    2.2299   16.6422 H   0  0  0  0  0  0
    4.8178    5.4779   18.4545 H   0  0  0  0  0  0
    4.1489    6.3369   16.2408 H   0  0  0  0  0  0
    4.4610    5.5929   13.3333 H   0  0  0  0  0  0
    5.6948    0.6472   20.7099 H   0  0  0  0  0  0
   10.0662    3.4404   26.5732 H   0  0  0  0  0  0
   12.4678    4.0819   26.6901 H   0  0  0  0  0  0
   13.7740    4.4004   24.6596 H   0  0  0  0  0  0
   12.7694    4.0848   22.4083 H   0  0  0  0  0  0
    7.7459    5.2559   21.0225 H   0  0  0  0  0  0
    7.3003    5.5364   19.3833 H   0  0  0  0  0  0
  1  2  1  0  0  0
  1 28  1  0  0  0
  1 29  1  0  0  0
  1 30  1  0  0  0
  2  3  2  0  0  0
  2 10  1  0  0  0
  3  4  1  0  0  0
  4  5  2  0  0  0
  4  9  1  0  0  0
  5  6  1  0  0  0
  5 31  1  0  0  0
  6  7  2  0  0  0
  6 11  1  0  0  0
  7  8  1  0  0  0
  7 32  1  0  0  0
  8  9  2  0  0  0
  8 33  1  0  0  0
  9 10  1  0  0  0
 10 34  1  0  0  0
 11 12  1  0  0  0
 11 26  1  0  0  0
 12 13  2  0  0  0
 13 14  1  0  0  0
 13 35  1  0  0  0
 14 15  1  0  0  0
 14 26  2  0  0  0
 15 16  2  0  0  0
 15 17  1  0  0  0
 17 18  2  0  0  0
 17 25  1  0  0  0
 18 19  1  0  0  0
 19 20  2  0  0  0
 19 24  1  0  0  0
 20 21  1  0  0  0
 20 36  1  0  0  0
 21 22  2  0  0  0
 21 37  1  0  0  0
 22 23  1  0  0  0
 22 38  1  0  0  0
 23 24  2  0  0  0
 23 39  1  0  0  0
 24 25  1  0  0  0
 26 27  1  0  0  0
 27 40  1  0  0  0
 27 41  1  0  0  0
M  END
> <s_m_entry_id>
49426

> <s_m_entry_name>
dock_pv.16

> <s_m_Source_Path>
/home/csk/Desktop/cluster/DUD-E-result/fgfr1

> <s_m_Source_File>
dock_pv.maegz

> <i_m_Source_File_Index>
16

> <chembl_id>
CHEMBL3681310

> <chembl_pref_name>
None

> <i_lp_mmshare_version>
53161

> <i_f3d_flags>
0

> <r_lp_tautomer_probability>
1

> <s_lp_Force_Field>
OPLS_2005

> <r_lp_Energy>
19.497161

> <b_lp_Chiralities_Consistent>
1

> <s_lp_Variant>
CHEMBL3650_lig1689-1

> <s_i_glide_gridfile>
glide-grid_3c4f

> <i_i_glide_lignum>
2071

> <i_i_glide_rotatable_bonds>
3

> <r_i_docking_score>
-9.10822895492703

> <r_i_glide_ligand_efficiency>
-0.337341813145445

> <r_i_glide_ligand_efficiency_sa>
-1.01202543832451

> <r_i_glide_ligand_efficiency_ln>
-2.12024553981698

> <r_i_glide_gscore>
-9.10822895492703

> <r_i_glide_lipo>
-3.27450522249705

> <r_i_glide_hbond>
-0.591717652875787

> <r_i_glide_metal>
0

> <r_i_glide_rewards>
-2.22538240198047

> <r_i_glide_evdw>
-47.2563514709473

> <r_i_glide_ecoul>
-6.38214302062988

> <r_i_glide_erotb>
0.413775894726264

> <r_i_glide_esite>
-0.110260545658135

> <r_i_glide_emodel>
-59.5717012472756

> <r_i_glide_energy>
-53.6384944915771

> <r_i_glide_einternal>
11.717887878418

> <i_i_glide_confnum>
10

> <i_i_glide_posenum>
38

> <r_i_glide_eff_state_penalty>
0

> <s_user_duplicate_titles>
CHEMBL3650_lig1689

> <s_m_subgroup_title>
dock_pv

> <s_m_subgroupid>
dock_pv

> <b_m_subgroup_collapsed>
1

$$$$
CHEMBL3650_lig129
                    3D
 Schrodinger Suite 2021-1.
 41 44  0  0  1  0            999 V2000
    5.9666    3.7926   18.4433 C   0  0  0  0  0  0
    6.7316    4.9303   18.9270 C   0  0  0  0  0  0
    7.1713    4.8770   20.2107 N   0  0  0  0  0  0
    7.1684    3.7141   20.9920 C   0  0  0  0  0  0
    5.7588    2.7064   19.2261 C   0  0  0  0  0  0
    6.3710    2.6373   20.5719 C   0  0  0  0  0  0
    5.3995    4.0035   17.0783 C   0  0  0  0  0  0
    7.8707    3.6331   22.1978 C   0  0  0  0  0  0
    7.7022    2.5135   22.9931 C   0  0  0  0  0  0
    6.8301    1.5370   22.6531 N   0  0  0  0  0  0
    6.7710    5.9370   18.2530 O   0  0  0  0  0  0
    6.2200    1.5677   21.4402 C   0  0  0  0  0  0
    8.3835    2.3370   24.1999 N   0  0  0  0  0  0
    5.9747    3.4107   15.9566 C   0  0  0  0  0  0
    4.3702    4.9345   16.8687 C   0  0  0  0  0  0
   11.9562    3.7140   25.9477 N   0  0  0  0  0  0
    9.5704    2.8524   24.7398 C   0  0  0  0  0  0
    7.5723    6.1356   20.8626 C   0  0  0  0  0  0
    3.4517    5.5370   18.2060 Cl  0  0  0  0  0  0
    7.1710    2.2203   16.1849 Cl  0  0  0  0  0  0
   10.5409    3.5369   23.9935 C   0  0  0  0  0  0
    9.8219    2.5942   26.0909 C   0  0  0  0  0  0
   11.7159    3.9404   24.6329 C   0  0  0  0  0  0
   11.0145    3.0450   26.6568 C   0  0  0  0  0  0
    4.5670    4.6838   14.4711 C   0  0  0  0  0  0
    5.5710    3.7411   14.6632 C   0  0  0  0  0  0
    3.9536    5.2640   15.5771 C   0  0  0  0  0  0
    5.1630    1.8830   18.8560 H   0  0  0  0  0  0
    8.4957    4.4419   22.5337 H   0  0  0  0  0  0
    5.5992    0.7279   21.1623 H   0  0  0  0  0  0
    8.1482    1.4389   24.6095 H   0  0  0  0  0  0
    8.6350    6.1017   21.0859 H   0  0  0  0  0  0
    7.3764    7.0315   20.2727 H   0  0  0  0  0  0
    7.0380    6.2619   21.8044 H   0  0  0  0  0  0
   10.4355    3.7046   22.9344 H   0  0  0  0  0  0
    9.1104    2.0488   26.6941 H   0  0  0  0  0  0
   12.5037    4.4423   24.0882 H   0  0  0  0  0  0
   11.2383    2.8600   27.6975 H   0  0  0  0  0  0
    4.2564    4.9537   13.4708 H   0  0  0  0  0  0
    6.0435    3.2788   13.8105 H   0  0  0  0  0  0
    3.1357    5.9524   15.4310 H   0  0  0  0  0  0
  1  2  1  0  0  0
  1  5  2  0  0  0
  1  7  1  0  0  0
  2  3  1  0  0  0
  2 11  2  0  0  0
  3 18  1  0  0  0
  3  4  1  0  0  0
  4  6  1  0  0  0
  4  8  2  0  0  0
  5  6  1  0  0  0
  5 28  1  0  0  0
  6 12  2  0  0  0
  7 14  2  0  0  0
  7 15  1  0  0  0
  8  9  1  0  0  0
  8 29  1  0  0  0
  9 10  2  0  0  0
  9 13  1  0  0  0
 10 12  1  0  0  0
 12 30  1  0  0  0
 13 17  1  0  0  0
 13 31  1  0  0  0
 14 20  1  0  0  0
 14 26  1  0  0  0
 15 19  1  0  0  0
 15 27  2  0  0  0
 16 24  2  0  0  0
 16 23  1  0  0  0
 17 21  1  0  0  0
 17 22  2  0  0  0
 18 32  1  0  0  0
 18 33  1  0  0  0
 18 34  1  0  0  0
 21 23  2  0  0  0
 21 35  1  0  0  0
 22 24  1  0  0  0
 22 36  1  0  0  0
 23 37  1  0  0  0
 24 38  1  0  0  0
 25 27  1  0  0  0
 25 26  2  0  0  0
 25 39  1  0  0  0
 26 40  1  0  0  0
 27 41  1  0  0  0
M  END
> <s_m_entry_id>
49427

> <s_m_entry_name>
dock_pv.17

> <s_m_Source_Path>
/home/csk/Desktop/cluster/DUD-E-result/fgfr1

> <s_m_Source_File>
dock_pv.maegz

> <i_m_Source_File_Index>
17

> <chembl_id>
CHEMBL106839

> <chembl_pref_name>
None

> <i_lp_mmshare_version>
53161

> <i_f3d_flags>
0

> <r_lp_tautomer_probability>
0.999999106000799

> <s_lp_Force_Field>
OPLS_2005

> <r_lp_Energy>
34.349087

> <b_lp_Chiralities_Consistent>
1

> <s_lp_Variant>
CHEMBL3650_lig129-1

> <s_i_glide_gridfile>
glide-grid_3c4f

> <i_i_glide_lignum>
151

> <i_i_glide_rotatable_bonds>
3

> <r_i_docking_score>
-9.09285145317699

> <r_i_glide_ligand_efficiency>
-0.336772276043592

> <r_i_glide_ligand_efficiency_sa>
-1.01031682702083

> <r_i_glide_ligand_efficiency_ln>
-2.1166659109275

> <r_i_glide_gscore>
-9.09285145317699

> <r_i_glide_lipo>
-3.94842304010931

> <r_i_glide_hbond>
-0.547407536809528

> <r_i_glide_metal>
0

> <r_i_glide_rewards>
-2.73031976893403

> <r_i_glide_evdw>
-30.0686168670654

> <r_i_glide_ecoul>
-4.1581711769104

> <r_i_glide_erotb>
0.260455412565713

> <r_i_glide_esite>
0

> <r_i_glide_emodel>
-31.7943076531226

> <r_i_glide_energy>
-34.2267880439758

> <r_i_glide_einternal>
11.2815074920654

> <i_i_glide_confnum>
8

> <i_i_glide_posenum>
79

> <r_i_glide_eff_state_penalty>
0

> <s_user_duplicate_titles>
CHEMBL3650_lig129

> <s_m_subgroup_title>
dock_pv

> <s_m_subgroupid>
dock_pv

> <b_m_subgroup_collapsed>
1

$$$$
CHEMBL3650_lig3108
                    3D
 Schrodinger Suite 2021-1.
 32 34  0  0  1  0            999 V2000
    9.7109    4.2502   24.3223 O   0  0  0  0  0  0
    6.2007    3.4451   18.7621 N   0  0  0  0  0  0
    6.7710    2.9737   17.6279 N   0  0  0  0  0  0
    5.2025    4.3370   18.6527 N   0  0  0  0  0  0
    6.2058    3.5435   15.3484 N   0  0  0  0  0  0
    8.6340    2.3370   23.6723 N   0  0  0  0  0  0
    5.5710    4.3370   13.2309 N   0  0  0  0  0  0
    6.0662    3.6352   16.6749 C   0  0  0  0  0  0
    5.1339    4.4875   17.3072 C   0  0  0  0  0  0
    6.7711    3.2060   20.0216 C   0  0  0  0  0  0
    4.2949    5.2875   16.5270 C   0  0  0  0  0  0
    5.3789    4.3312   14.6050 C   0  0  0  0  0  0
    6.2934    2.1827   20.8415 C   0  0  0  0  0  0
    7.8502    3.9946   20.4274 C   0  0  0  0  0  0
    4.4202    5.1876   15.1428 C   0  0  0  0  0  0
    8.0146    2.7099   22.4665 C   0  0  0  0  0  0
    6.9218    1.9384   22.0617 C   0  0  0  0  0  0
    8.4737    3.7490   21.6462 C   0  0  0  0  0  0
    9.4297    3.0644   24.4817 C   0  0  0  0  0  0
    9.9711    2.3394   25.7090 C   0  0  0  0  0  0
    8.4455    1.3849   23.9720 H   0  0  0  0  0  0
    5.0665    5.0645   12.7345 H   0  0  0  0  0  0
    6.5639    4.2897   13.0371 H   0  0  0  0  0  0
    3.5711    5.9369   16.9838 H   0  0  0  0  0  0
    5.4606    1.5675   20.5277 H   0  0  0  0  0  0
    8.2270    4.7758   19.7842 H   0  0  0  0  0  0
    3.8047    5.7958   14.4955 H   0  0  0  0  0  0
    6.5669    1.1382   22.6896 H   0  0  0  0  0  0
    9.3293    4.3476   21.9179 H   0  0  0  0  0  0
    9.3684    2.5815   26.5846 H   0  0  0  0  0  0
   10.9973    2.6511   25.9057 H   0  0  0  0  0  0
    9.9705    1.2572   25.5760 H   0  0  0  0  0  0
  1 19  2  0  0  0
  2  3  1  0  0  0
  2  4  1  0  0  0
  2 10  1  0  0  0
  3  8  2  0  0  0
  4  9  2  0  0  0
  5  8  1  0  0  0
  5 12  2  0  0  0
  6 16  1  0  0  0
  6 19  1  0  0  0
  6 21  1  0  0  0
  7 12  1  0  0  0
  7 22  1  0  0  0
  7 23  1  0  0  0
  8  9  1  0  0  0
  9 11  1  0  0  0
 10 13  2  0  0  0
 10 14  1  0  0  0
 11 15  2  0  0  0
 11 24  1  0  0  0
 12 15  1  0  0  0
 13 17  1  0  0  0
 13 25  1  0  0  0
 14 18  2  0  0  0
 14 26  1  0  0  0
 15 27  1  0  0  0
 16 17  2  0  0  0
 16 18  1  0  0  0
 17 28  1  0  0  0
 18 29  1  0  0  0
 19 20  1  0  0  0
 20 30  1  0  0  0
 20 31  1  0  0  0
 20 32  1  0  0  0
M  END
> <s_m_entry_id>
49428

> <s_m_entry_name>
dock_pv.18

> <s_m_Source_Path>
/home/csk/Desktop/cluster/DUD-E-result/fgfr1

> <s_m_Source_File>
dock_pv.maegz

> <i_m_Source_File_Index>
18

> <chembl_id>
CHEMBL2002723

> <chembl_pref_name>
None

> <i_lp_mmshare_version>
53161

> <i_f3d_flags>
0

> <r_lp_tautomer_probability>
1

> <s_lp_Force_Field>
OPLS_2005

> <r_lp_Energy>
20.949808

> <b_lp_Chiralities_Consistent>
1

> <s_lp_Variant>
CHEMBL3650_lig3108-1

> <s_i_glide_gridfile>
glide-grid_3c4f

> <i_i_glide_lignum>
3968

> <i_i_glide_rotatable_bonds>
3

> <r_i_docking_score>
-9.02741285183277

> <r_i_glide_ligand_efficiency>
-0.451370642591639

> <r_i_glide_ligand_efficiency_sa>
-1.22520842264104

> <r_i_glide_ligand_efficiency_ln>
-2.25926369281077

> <r_i_glide_gscore>
-9.02741285183277

> <r_i_glide_lipo>
-2.48834410701289

> <r_i_glide_hbond>
-0.545741363416073

> <r_i_glide_metal>
0

> <r_i_glide_rewards>
-3.4879776310825

> <r_i_glide_evdw>
-37.5281257629395

> <r_i_glide_ecoul>
-6.91994047164917

> <r_i_glide_erotb>
0.495959818477833

> <r_i_glide_esite>
-0.0869122099047917

> <r_i_glide_emodel>
-64.1201768615388

> <r_i_glide_energy>
-44.4480662345886

> <r_i_glide_einternal>
6.3798041343689

> <i_i_glide_confnum>
10

> <i_i_glide_posenum>
182

> <r_i_glide_eff_state_penalty>
0

> <s_user_duplicate_titles>
CHEMBL3650_lig3108

> <s_m_subgroup_title>
dock_pv

> <s_m_subgroupid>
dock_pv

> <b_m_subgroup_collapsed>
1

$$$$
CHEMBL3650_lig2243
                    3D
 Schrodinger Suite 2021-1.
 29 31  0  0  1  0            999 V2000
    6.2854    4.0432   18.9817 C   0  0  0  0  0  0
    5.9710    2.8998   19.7295 C   0  0  0  0  0  0
    7.7825    4.8291   20.7422 C   0  0  0  0  0  0
    7.1710    4.9883   19.5020 C   0  0  0  0  0  0
    7.5181    3.6707   21.4750 C   0  0  0  0  0  0
    6.5899    2.7057   20.9774 C   0  0  0  0  0  0
    6.4409    1.6464   21.8314 N   0  0  0  0  0  0
    7.2988    1.9370   22.8257 N   0  0  0  0  0  0
    7.9710    3.1235   22.6990 C   0  0  0  0  0  0
    5.7032    4.2637   17.6287 C   0  0  0  0  0  0
    4.7933    5.3057   17.4213 C   0  0  0  0  0  0
    4.2606    5.5370   16.1532 C   0  0  0  0  0  0
    4.6115    4.7385   15.0771 C   0  0  0  0  0  0
    5.5181    3.7080   15.2599 C   0  0  0  0  0  0
    6.0697    3.4756   16.5227 C   0  0  0  0  0  0
    4.0435    4.9457   13.8530 O   0  0  0  0  0  0
    7.0778    2.3623   16.6530 C   0  0  0  0  0  0
    5.2788    2.1659   19.3414 H   0  0  0  0  0  0
    8.4693    5.5729   21.1145 H   0  0  0  0  0  0
    7.3980    5.8706   18.9230 H   0  0  0  0  0  0
    7.4524    1.2946   23.5938 H   0  0  0  0  0  0
    8.6820    3.4362   23.4490 H   0  0  0  0  0  0
    4.4953    5.9370   18.2452 H   0  0  0  0  0  0
    3.5710    6.3370   15.9794 H   0  0  0  0  0  0
    5.7925    3.0968   14.4129 H   0  0  0  0  0  0
    4.3691    5.7196   13.3627 H   0  0  0  0  0  0
    6.7710    1.6466   17.4155 H   0  0  0  0  0  0
    7.1742    1.8453   15.7011 H   0  0  0  0  0  0
    8.0298    2.7921   16.9483 H   0  0  0  0  0  0
  1  2  2  0  0  0
  1 10  1  0  0  0
  1  4  1  0  0  0
  2  6  1  0  0  0
  2 18  1  0  0  0
  3  4  2  0  0  0
  3 19  1  0  0  0
  3  5  1  0  0  0
  4 20  1  0  0  0
  5  6  1  0  0  0
  5  9  2  0  0  0
  6  7  2  0  0  0
  7  8  1  0  0  0
  8 21  1  0  0  0
  8  9  1  0  0  0
  9 22  1  0  0  0
 10 11  2  0  0  0
 10 15  1  0  0  0
 11 12  1  0  0  0
 11 23  1  0  0  0
 12 13  2  0  0  0
 12 24  1  0  0  0
 13 14  1  0  0  0
 13 16  1  0  0  0
 14 15  2  0  0  0
 14 25  1  0  0  0
 15 17  1  0  0  0
 16 26  1  0  0  0
 17 27  1  0  0  0
 17 28  1  0  0  0
 17 29  1  0  0  0
M  END
> <s_m_entry_id>
49429

> <s_m_entry_name>
dock_pv.19

> <s_m_Source_Path>
/home/csk/Desktop/cluster/DUD-E-result/fgfr1

> <s_m_Source_File>
dock_pv.maegz

> <i_m_Source_File_Index>
19

> <chembl_id>
CHEMBL4159347

> <chembl_pref_name>
None

> <i_lp_mmshare_version>
53161

> <i_f3d_flags>
0

> <r_lp_tautomer_probability>
0.0196078431372042

> <s_lp_Force_Field>
OPLS_2005

> <r_lp_Energy>
28.089499

> <b_lp_Chiralities_Consistent>
1

> <s_lp_Variant>
CHEMBL3650_lig2243-2

> <s_i_glide_gridfile>
glide-grid_3c4f

> <i_i_glide_lignum>
2702

> <i_i_glide_rotatable_bonds>
2

> <r_i_docking_score>
-9.0056008604782

> <r_i_glide_ligand_efficiency>
-0.529741227086953

> <r_i_glide_ligand_efficiency_sa>
-1.362113863735

> <r_i_glide_ligand_efficiency_ln>
-2.34936071962764

> <r_i_glide_gscore>
-9.0056008604782

> <r_i_glide_lipo>
-3.26372957797584

> <r_i_glide_hbond>
-0.545472243951023

> <r_i_glide_metal>
0

> <r_i_glide_rewards>
-3.17505990909091

> <r_i_glide_evdw>
-31.4503288269043

> <r_i_glide_ecoul>
-4.56444835662842

> <r_i_glide_erotb>
0.235844565379044

> <r_i_glide_esite>
0

> <r_i_glide_emodel>
-51.8574741541645

> <r_i_glide_energy>
-36.0147771835327

> <r_i_glide_einternal>
4.86806869506836

> <i_i_glide_confnum>
4

> <i_i_glide_posenum>
306

> <r_i_glide_eff_state_penalty>
0

> <s_user_duplicate_titles>
CHEMBL3650_lig2243,CHEMBL3650_lig2243

> <s_m_subgroup_title>
dock_pv

> <s_m_subgroupid>
dock_pv

> <b_m_subgroup_collapsed>
1

$$$$
CHEMBL3650_lig2244
                    3D
 Schrodinger Suite 2021-1.
 29 31  0  0  1  0            999 V2000
    6.3929    4.0222   19.0741 C   0  0  0  0  0  0
    6.1539    2.8343   19.7765 C   0  0  0  0  0  0
    7.7542    4.8827   20.9120 C   0  0  0  0  0  0
    7.1711    5.0257   19.6561 C   0  0  0  0  0  0
    7.5585    3.6849   21.6047 C   0  0  0  0  0  0
    6.7320    2.6630   21.0453 C   0  0  0  0  0  0
    6.6250    1.5765   21.8682 N   0  0  0  0  0  0
    7.4055    1.9134   22.9091 N   0  0  0  0  0  0
    8.0059    3.1371   22.8305 C   0  0  0  0  0  0
    5.8520    4.2172   17.7054 C   0  0  0  0  0  0
    5.0320    5.3092   17.3965 C   0  0  0  0  0  0
    4.5377    5.4935   16.1038 C   0  0  0  0  0  0
    4.8508    4.5785   15.1001 C   0  0  0  0  0  0
    5.6789    3.4888   15.3892 C   0  0  0  0  0  0
    6.1776    3.3181   16.6854 C   0  0  0  0  0  0
    4.3309    4.7382   13.8419 O   0  0  0  0  0  0
    6.0429    2.4911   14.3043 C   0  0  0  0  0  0
    5.5454    2.0534   19.3414 H   0  0  0  0  0  0
    8.3645    5.6711   21.3273 H   0  0  0  0  0  0
    7.3479    5.9371   19.1046 H   0  0  0  0  0  0
    7.5686    1.2630   23.6702 H   0  0  0  0  0  0
    8.6572    3.4804   23.6201 H   0  0  0  0  0  0
    4.7624    6.0103   18.1702 H   0  0  0  0  0  0
    3.8978    6.3348   15.8836 H   0  0  0  0  0  0
    6.8217    2.4771   16.9065 H   0  0  0  0  0  0
    4.3700    5.6424   13.5005 H   0  0  0  0  0  0
    6.7693    1.7600   14.6532 H   0  0  0  0  0  0
    6.4674    3.0191   13.4513 H   0  0  0  0  0  0
    5.1511    1.9687   13.9538 H   0  0  0  0  0  0
  1  2  2  0  0  0
  1 10  1  0  0  0
  1  4  1  0  0  0
  2  6  1  0  0  0
  2 18  1  0  0  0
  3  4  2  0  0  0
  3 19  1  0  0  0
  3  5  1  0  0  0
  4 20  1  0  0  0
  5  6  1  0  0  0
  5  9  2  0  0  0
  6  7  2  0  0  0
  7  8  1  0  0  0
  8 21  1  0  0  0
  8  9  1  0  0  0
  9 22  1  0  0  0
 10 11  2  0  0  0
 10 15  1  0  0  0
 11 12  1  0  0  0
 11 23  1  0  0  0
 12 13  2  0  0  0
 12 24  1  0  0  0
 13 14  1  0  0  0
 13 16  1  0  0  0
 14 15  2  0  0  0
 14 17  1  0  0  0
 15 25  1  0  0  0
 16 26  1  0  0  0
 17 27  1  0  0  0
 17 28  1  0  0  0
 17 29  1  0  0  0
M  END
> <s_m_entry_id>
49430

> <s_m_entry_name>
dock_pv.20

> <s_m_Source_Path>
/home/csk/Desktop/cluster/DUD-E-result/fgfr1

> <s_m_Source_File>
dock_pv.maegz

> <i_m_Source_File_Index>
20

> <chembl_id>
CHEMBL4171437

> <chembl_pref_name>
None

> <i_lp_mmshare_version>
53161

> <i_f3d_flags>
0

> <r_lp_tautomer_probability>
0.0196078431372042

> <s_lp_Force_Field>
OPLS_2005

> <r_lp_Energy>
26.510139

> <b_lp_Chiralities_Consistent>
1

> <s_lp_Variant>
CHEMBL3650_lig2244-2

> <s_i_glide_gridfile>
glide-grid_3c4f

> <i_i_glide_lignum>
2704

> <i_i_glide_rotatable_bonds>
2

> <r_i_docking_score>
-8.99824787519682

> <r_i_glide_ligand_efficiency>
-0.529308698540989

> <r_i_glide_ligand_efficiency_sa>
-1.36100171104838

> <r_i_glide_ligand_efficiency_ln>
-2.34744248951066

> <r_i_glide_gscore>
-8.99824787519682

> <r_i_glide_lipo>
-3.20880515113943

> <r_i_glide_hbond>
-0.577068822135788

> <r_i_glide_metal>
0

> <r_i_glide_rewards>
-3.23339324242424

> <r_i_glide_evdw>
-33.5879859924316

> <r_i_glide_ecoul>
-3.56950616836548

> <r_i_glide_erotb>
0.235844565379044

> <r_i_glide_esite>
0

> <r_i_glide_emodel>
-54.9815173666184

> <r_i_glide_energy>
-37.1574921607971

> <r_i_glide_einternal>
5.03179168701172

> <i_i_glide_confnum>
2

> <i_i_glide_posenum>
391

> <r_i_glide_eff_state_penalty>
0

> <s_user_duplicate_titles>
CHEMBL3650_lig2244,CHEMBL3650_lig2244

> <s_m_subgroup_title>
dock_pv

> <s_m_subgroupid>
dock_pv

> <b_m_subgroup_collapsed>
1

$$$$
CHEMBL3650_lig1640
                    3D
 Schrodinger Suite 2021-1.
 37 40  0  0  1  0            999 V2000
    5.5709    2.9227   11.4327 C   0  0  0  0  0  0
    5.4928    3.3042   12.8951 C   0  0  0  0  0  0
    6.1873    2.7366   13.8529 N   0  0  0  0  0  0
    5.8771    3.4557   14.9795 C   0  0  0  0  0  0
    6.3825    3.3376   16.2823 C   0  0  0  0  0  0
    5.8927    4.2082   17.2631 C   0  0  0  0  0  0
    4.8905    5.1388   16.9677 C   0  0  0  0  0  0
    4.3506    5.2545   15.6844 C   0  0  0  0  0  0
    4.8910    4.4311   14.6988 C   0  0  0  0  0  0
    4.6889    4.3230   13.3437 N   0  0  0  0  0  0
    6.3901    4.1135   18.5776 N   0  0  0  0  0  0
    7.0995    5.1267   19.0930 N   0  0  0  0  0  0
    7.4141    4.7368   20.3074 C   0  0  0  0  0  0
    6.9533    3.4451   20.6111 C   0  0  0  0  0  0
    7.1353    2.6734   21.8439 C   0  0  0  0  0  0
    6.3007    1.8358   22.1969 O   0  0  0  0  0  0
    8.3413    2.9117   22.6325 C   0  0  0  0  0  0
    9.5533    3.5393   22.3762 C   0  0  0  0  0  0
   10.3726    3.3805   23.4998 C   0  0  0  0  0  0
   12.1829    3.9371   23.6743 Br  0  0  0  0  0  0
    9.6249    2.6951   24.4448 C   0  0  0  0  0  0
    8.4178    2.3667   23.8867 N   0  0  0  0  0  0
    6.2638    3.0657   19.4647 C   0  0  0  0  0  0
    5.5707    1.9311   19.1534 N   0  0  0  0  0  0
    6.2112    2.0563   11.2660 H   0  0  0  0  0  0
    4.6002    2.6830   11.0093 H   0  0  0  0  0  0
    5.9703    3.7399   10.8360 H   0  0  0  0  0  0
    7.1491    2.6135   16.5176 H   0  0  0  0  0  0
    4.5087    5.7778   17.7524 H   0  0  0  0  0  0
    3.5535    5.9370   15.4570 H   0  0  0  0  0  0
    4.1407    4.9216   12.7373 H   0  0  0  0  0  0
    7.9691    5.3883   20.9677 H   0  0  0  0  0  0
    9.8394    4.0207   21.4538 H   0  0  0  0  0  0
    9.8761    2.3465   25.4360 H   0  0  0  0  0  0
    7.7088    1.7861   24.3133 H   0  0  0  0  0  0
    5.4220    1.1945   19.8323 H   0  0  0  0  0  0
    5.1096    1.8173   18.2630 H   0  0  0  0  0  0
  1  2  1  0  0  0
  1 25  1  0  0  0
  1 26  1  0  0  0
  1 27  1  0  0  0
  2  3  2  0  0  0
  2 10  1  0  0  0
  3  4  1  0  0  0
  4  5  2  0  0  0
  4  9  1  0  0  0
  5  6  1  0  0  0
  5 28  1  0  0  0
  6  7  2  0  0  0
  6 11  1  0  0  0
  7  8  1  0  0  0
  7 29  1  0  0  0
  8  9  2  0  0  0
  8 30  1  0  0  0
  9 10  1  0  0  0
 10 31  1  0  0  0
 11 12  1  0  0  0
 11 23  1  0  0  0
 12 13  2  0  0  0
 13 14  1  0  0  0
 13 32  1  0  0  0
 14 15  1  0  0  0
 14 23  2  0  0  0
 15 16  2  0  0  0
 15 17  1  0  0  0
 17 18  2  0  0  0
 17 22  1  0  0  0
 18 19  1  0  0  0
 18 33  1  0  0  0
 19 20  1  0  0  0
 19 21  2  0  0  0
 21 22  1  0  0  0
 21 34  1  0  0  0
 22 35  1  0  0  0
 23 24  1  0  0  0
 24 36  1  0  0  0
 24 37  1  0  0  0
M  END
> <s_m_entry_id>
49432

> <s_m_entry_name>
dock_pv.22

> <s_m_Source_Path>
/home/csk/Desktop/cluster/DUD-E-result/fgfr1

> <s_m_Source_File>
dock_pv.maegz

> <i_m_Source_File_Index>
22

> <chembl_id>
CHEMBL3681275

> <chembl_pref_name>
None

> <i_lp_mmshare_version>
53161

> <i_f3d_flags>
0

> <r_lp_tautomer_probability>
1

> <s_lp_Force_Field>
OPLS_2005

> <r_lp_Energy>
15.973868

> <b_lp_Chiralities_Consistent>
1

> <s_lp_Variant>
CHEMBL3650_lig1640-1

> <s_i_glide_gridfile>
glide-grid_3c4f

> <i_i_glide_lignum>
2014

> <i_i_glide_rotatable_bonds>
3

> <r_i_docking_score>
-8.91512271749105

> <r_i_glide_ligand_efficiency>
-0.371463446562127

> <r_i_glide_ligand_efficiency_sa>
-1.07148599124319

> <r_i_glide_ligand_efficiency_ln>
-2.13379795462056

> <r_i_glide_gscore>
-8.91512271749105

> <r_i_glide_lipo>
-2.61871071508634

> <r_i_glide_hbond>
-0.591072761687466

> <r_i_glide_metal>
0

> <r_i_glide_rewards>
-2.35034429527311

> <r_i_glide_evdw>
-52.4684829711914

> <r_i_glide_ecoul>
-7.04021263122559

> <r_i_glide_erotb>
0.393227446507792

> <r_i_glide_esite>
-0.0687663487085139

> <r_i_glide_emodel>
-88.3638899091903

> <r_i_glide_energy>
-59.508695602417

> <r_i_glide_einternal>
3.66148567199707

> <i_i_glide_confnum>
7

> <i_i_glide_posenum>
89

> <r_i_glide_eff_state_penalty>
0

> <s_user_duplicate_titles>
CHEMBL3650_lig1640

> <s_m_subgroup_title>
dock_pv

> <s_m_subgroupid>
dock_pv

> <b_m_subgroup_collapsed>
1

$$$$
CHEMBL3650_lig2241
                    3D
 Schrodinger Suite 2021-1.
 32 34  0  0  1  0            999 V2000
    6.3712    4.0479   18.9597 C   0  0  0  0  0  0
    6.0851    2.8774   19.6748 C   0  0  0  0  0  0
    7.7431    4.8855   20.7981 C   0  0  0  0  0  0
    7.1743    5.0323   19.5366 C   0  0  0  0  0  0
    7.5202    3.6964   21.4951 C   0  0  0  0  0  0
    6.6584    2.6972   20.9471 C   0  0  0  0  0  0
    6.5188    1.6232   21.7844 N   0  0  0  0  0  0
    7.3303    1.9356   22.8099 N   0  0  0  0  0  0
    7.9702    3.1380   22.7146 C   0  0  0  0  0  0
    5.8242    4.2676   17.5962 C   0  0  0  0  0  0
    6.2302    3.4808   16.5052 C   0  0  0  0  0  0
    5.6897    3.6783   15.2270 C   0  0  0  0  0  0
    4.7931    4.7410   15.0352 C   0  0  0  0  0  0
    4.4011    5.5370   16.1026 C   0  0  0  0  0  0
    4.9023    5.2957   17.3770 C   0  0  0  0  0  0
    6.0621    2.7941   14.2302 O   0  0  0  0  0  0
    5.4502    2.8950   12.9478 C   0  0  0  0  0  0
    5.5716    1.5411   12.2575 C   0  0  0  0  0  0
    7.1659    2.5174   16.6823 F   0  0  0  0  0  0
    5.4514    2.1149   19.2445 H   0  0  0  0  0  0
    8.3726    5.6587   21.2104 H   0  0  0  0  0  0
    7.3747    5.9369   18.9837 H   0  0  0  0  0  0
    7.4834    1.2870   23.5730 H   0  0  0  0  0  0
    8.6450    3.4663   23.4919 H   0  0  0  0  0  0
    4.3867    4.9775   14.0637 H   0  0  0  0  0  0
    3.7035    6.3367   15.9204 H   0  0  0  0  0  0
    4.5779    5.9178   18.1986 H   0  0  0  0  0  0
    5.9453    3.6765   12.3687 H   0  0  0  0  0  0
    4.3862    3.1293   13.0012 H   0  0  0  0  0  0
    5.2078    1.5936   11.2313 H   0  0  0  0  0  0
    4.9753    0.7883   12.7774 H   0  0  0  0  0  0
    6.6001    1.1854   12.2377 H   0  0  0  0  0  0
  1  2  2  0  0  0
  1 10  1  0  0  0
  1  4  1  0  0  0
  2  6  1  0  0  0
  2 20  1  0  0  0
  3  4  2  0  0  0
  3 21  1  0  0  0
  3  5  1  0  0  0
  4 22  1  0  0  0
  5  6  1  0  0  0
  5  9  2  0  0  0
  6  7  2  0  0  0
  7  8  1  0  0  0
  8 23  1  0  0  0
  8  9  1  0  0  0
  9 24  1  0  0  0
 10 11  2  0  0  0
 10 15  1  0  0  0
 11 12  1  0  0  0
 11 19  1  0  0  0
 12 13  2  0  0  0
 12 16  1  0  0  0
 13 14  1  0  0  0
 13 25  1  0  0  0
 14 15  2  0  0  0
 14 26  1  0  0  0
 15 27  1  0  0  0
 16 17  1  0  0  0
 17 18  1  0  0  0
 17 28  1  0  0  0
 17 29  1  0  0  0
 18 30  1  0  0  0
 18 31  1  0  0  0
 18 32  1  0  0  0
M  END
> <s_m_entry_id>
49433

> <s_m_entry_name>
dock_pv.23

> <s_m_Source_Path>
/home/csk/Desktop/cluster/DUD-E-result/fgfr1

> <s_m_Source_File>
dock_pv.maegz

> <i_m_Source_File_Index>
23

> <chembl_id>
CHEMBL4171043

> <chembl_pref_name>
None

> <i_lp_mmshare_version>
53161

> <i_f3d_flags>
0

> <r_lp_tautomer_probability>
0.0196078431372549

> <s_lp_Force_Field>
OPLS_2005

> <r_lp_Energy>
32.878414

> <b_lp_Chiralities_Consistent>
1

> <s_lp_Variant>
CHEMBL3650_lig2241-2

> <s_i_glide_gridfile>
glide-grid_3c4f

> <i_i_glide_lignum>
2698

> <i_i_glide_rotatable_bonds>
3

> <r_i_docking_score>
-8.91059671119704

> <r_i_glide_ligand_efficiency>
-0.468978774273528

> <r_i_glide_ligand_efficiency_sa>
-1.25142373325883

> <r_i_glide_ligand_efficiency_ln>
-2.25902764835776

> <r_i_glide_gscore>
-8.91059671119704

> <r_i_glide_lipo>
-3.2624696952179

> <r_i_glide_hbond>
-0.46927135715493

> <r_i_glide_metal>
0

> <r_i_glide_rewards>
-3.2729314308462

> <r_i_glide_evdw>
-38.4985733032227

> <r_i_glide_ecoul>
-2.37774872779846

> <r_i_glide_erotb>
0.375666746352903

> <r_i_glide_esite>
0

> <r_i_glide_emodel>
-61.0510932370264

> <r_i_glide_energy>
-40.8763220310211

> <r_i_glide_einternal>
1.68603849411011

> <i_i_glide_confnum>
2

> <i_i_glide_posenum>
125

> <r_i_glide_eff_state_penalty>
0

> <s_user_duplicate_titles>
CHEMBL3650_lig2241,CHEMBL3650_lig2241

> <s_m_subgroup_title>
dock_pv

> <s_m_subgroupid>
dock_pv

> <b_m_subgroup_collapsed>
1

$$$$
CHEMBL3650_lig454
                    3D
 Schrodinger Suite 2021-1.
 45 48  0  0  1  0            999 V2000
    4.3728    5.1400   16.9403 C   0  0  0  0  0  0
    5.5708    4.4257   16.8236 C   0  0  0  0  0  0
    5.9561    3.9335   15.5691 C   0  0  0  0  0  0
    5.1665    4.1743   14.4295 C   0  0  0  0  0  0
    3.9846    4.9120   14.5745 C   0  0  0  0  0  0
    3.5956    5.3938   15.8154 C   0  0  0  0  0  0
    5.5312    3.5665   13.0981 C   0  0  0  0  0  0
    5.9710    2.4175   13.0504 O   0  0  0  0  0  0
    5.3187    4.3368   12.0087 N   0  0  0  0  0  0
    6.3295    4.1628   17.9738 N   0  0  0  0  0  0
    5.9691    2.8980   18.6044 C   0  0  0  0  0  0
    6.4233    2.7376   20.0443 C   0  0  0  0  0  0
    7.6951    3.6486   20.8496 S   0  0  0  0  0  0
    7.5103    2.6443   22.2629 C   0  0  0  0  0  0
    6.5254    1.7981   22.1747 N   0  0  0  0  0  0
    5.9710    1.8150   20.9817 C   0  0  0  0  0  0
    8.2691    2.7411   23.4097 N   0  0  0  0  0  0
    9.5711    3.2291   23.6019 C   0  0  0  0  0  0
   10.4193    3.3322   22.5447 N   0  0  0  0  0  0
   11.7139    3.6647   22.7757 C   0  0  0  0  0  0
   12.2019    3.9383   24.0535 C   0  0  0  0  0  0
   11.3157    3.8825   25.1302 C   0  0  0  0  0  0
    9.9878    3.5091   24.9074 C   0  0  0  0  0  0
    3.9235    5.5419   18.1510 F   0  0  0  0  0  0
    5.5710    3.9715   10.6128 C   0  0  0  0  0  0
    3.1707    5.1370   13.5248 F   0  0  0  0  0  0
    5.2277    2.5767   10.1183 C   0  0  0  0  0  0
    4.4127    3.7681    9.6782 C   0  0  0  0  0  0
    6.8702    3.3623   15.4818 H   0  0  0  0  0  0
    2.6628    5.9307   15.8939 H   0  0  0  0  0  0
    5.0422    5.3070   12.1661 H   0  0  0  0  0  0
    6.3191    4.9319   18.6282 H   0  0  0  0  0  0
    4.8869    2.7553   18.5608 H   0  0  0  0  0  0
    6.3998    2.0957   18.0022 H   0  0  0  0  0  0
    5.1745    1.1153   20.7746 H   0  0  0  0  0  0
    7.8066    2.5673   24.2878 H   0  0  0  0  0  0
   12.3643    3.7046   21.9140 H   0  0  0  0  0  0
   13.2418    4.1962   24.2075 H   0  0  0  0  0  0
   11.6657    4.0894   26.1315 H   0  0  0  0  0  0
    9.3102    3.4111   25.7421 H   0  0  0  0  0  0
    6.3708    4.5475   10.1518 H   0  0  0  0  0  0
    4.7722    1.8607   10.8035 H   0  0  0  0  0  0
    5.9287    2.0830    9.4530 H   0  0  0  0  0  0
    4.4867    4.1404    8.6556 H   0  0  0  0  0  0
    3.4301    3.9371   10.0920 H   0  0  0  0  0  0
  1 24  1  0  0  0
  1  6  2  0  0  0
  1  2  1  0  0  0
  2 10  1  0  0  0
  2  3  2  0  0  0
  3  4  1  0  0  0
  3 29  1  0  0  0
  4  7  1  0  0  0
  4  5  2  0  0  0
  5  6  1  0  0  0
  5 26  1  0  0  0
  6 30  1  0  0  0
  7  8  2  0  0  0
  7  9  1  0  0  0
  9 25  1  0  0  0
  9 31  1  0  0  0
 10 11  1  0  0  0
 10 32  1  0  0  0
 11 12  1  0  0  0
 11 33  1  0  0  0
 11 34  1  0  0  0
 12 13  1  0  0  0
 12 16  2  0  0  0
 13 14  1  0  0  0
 14 15  2  0  0  0
 14 17  1  0  0  0
 15 16  1  0  0  0
 16 35  1  0  0  0
 17 18  1  0  0  0
 17 36  1  0  0  0
 18 19  2  0  0  0
 18 23  1  0  0  0
 19 20  1  0  0  0
 20 21  2  0  0  0
 20 37  1  0  0  0
 21 22  1  0  0  0
 21 38  1  0  0  0
 22 23  2  0  0  0
 22 39  1  0  0  0
 23 40  1  0  0  0
 25 27  1  0  0  0
 25 28  1  0  0  0
 25 41  1  0  0  0
 27 28  1  0  0  0
 27 42  1  0  0  0
 27 43  1  0  0  0
 28 44  1  0  0  0
 28 45  1  0  0  0
M  END
> <s_m_entry_id>
49434

> <s_m_entry_name>
dock_pv.24

> <s_m_Source_Path>
/home/csk/Desktop/cluster/DUD-E-result/fgfr1

> <s_m_Source_File>
dock_pv.maegz

> <i_m_Source_File_Index>
24

> <chembl_id>
CHEMBL377734

> <chembl_pref_name>
None

> <i_lp_mmshare_version>
53161

> <i_f3d_flags>
0

> <r_lp_tautomer_probability>
0.999999772200052

> <s_lp_Force_Field>
OPLS_2005

> <r_lp_Energy>
26.533599

> <b_lp_Chiralities_Consistent>
1

> <s_lp_Variant>
CHEMBL3650_lig454-1

> <s_i_glide_gridfile>
glide-grid_3c4f

> <i_i_glide_lignum>
509

> <i_i_glide_rotatable_bonds>
8

> <r_i_docking_score>
-8.78988299701419

> <r_i_glide_ligand_efficiency>
-0.313924392750507

> <r_i_glide_ligand_efficiency_sa>
-0.953259347970135

> <r_i_glide_ligand_efficiency_ln>
-2.02896307789004

> <r_i_glide_gscore>
-8.78988299701419

> <r_i_glide_lipo>
-3.22654223962518

> <r_i_glide_hbond>
-0.602514937808278

> <r_i_glide_metal>
0

> <r_i_glide_rewards>
-2.42185577648924

> <r_i_glide_evdw>
-51.1626396179199

> <r_i_glide_ecoul>
-5.12603855133057

> <r_i_glide_erotb>
0.973706720632476

> <r_i_glide_esite>
-0.185639000128394

> <r_i_glide_emodel>
-77.0625756462106

> <r_i_glide_energy>
-56.2886781692505

> <r_i_glide_einternal>
8.70771980285645

> <i_i_glide_confnum>
163

> <i_i_glide_posenum>
142

> <r_i_glide_eff_state_penalty>
0

> <s_user_duplicate_titles>
CHEMBL3650_lig454

> <s_m_subgroup_title>
dock_pv

> <s_m_subgroupid>
dock_pv

> <b_m_subgroup_collapsed>
1

$$$$
CHEMBL3650_lig865
                    3D
 Schrodinger Suite 2021-1.
 40 43  0  0  1  0            999 V2000
    6.1172    3.5121   19.3443 N   0  0  0  0  0  0
    5.7143    2.1804   19.7452 C   0  0  0  0  0  0
    6.3710    2.0337   21.0976 C   0  0  0  0  0  0
    7.2897    3.1370   21.2402 C   0  0  0  0  0  0
    7.0452    3.9996   20.2423 C   0  0  0  0  0  0
    6.2249    1.1370   21.9096 O   0  0  0  0  0  0
    5.8101    3.9254   18.0401 C   0  0  0  0  0  0
    6.4561    3.3409   16.9484 C   0  0  0  0  0  0
    6.1071    3.7035   15.6499 C   0  0  0  0  0  0
    5.1070    4.6561   15.4297 C   0  0  0  0  0  0
    4.4585    5.2337   16.5222 C   0  0  0  0  0  0
    4.8127    4.8773   17.8223 C   0  0  0  0  0  0
    4.7058    5.0510   14.0186 C   0  0  0  0  0  0
    6.7710    3.1370   14.5982 O   0  0  0  0  0  0
    8.2515    3.2020   22.3529 C   0  0  0  0  0  0
    9.3785    3.8822   22.3440 N   0  0  0  0  0  0
    9.9977    3.5686   23.5356 C   0  0  0  0  0  0
    9.1710    2.7506   24.3391 C   0  0  0  0  0  0
    8.0846    2.5205   23.5379 N   0  0  0  0  0  0
   11.2625    3.9370   24.0253 C   0  0  0  0  0  0
   11.6108    3.5659   25.3272 C   0  0  0  0  0  0
   10.7572    2.7883   26.1100 C   0  0  0  0  0  0
    9.5270    2.3370   25.6275 C   0  0  0  0  0  0
    7.5710    5.2292   19.9975 N   0  0  0  0  0  0
    4.6356    2.0949   19.8358 H   0  0  0  0  0  0
    6.0212    1.3911   19.0583 H   0  0  0  0  0  0
    7.2250    2.5994   17.1036 H   0  0  0  0  0  0
    3.6584    5.9370   16.3604 H   0  0  0  0  0  0
    4.2789    5.3105   18.6530 H   0  0  0  0  0  0
    3.8469    5.7225   14.0004 H   0  0  0  0  0  0
    4.4469    4.1670   13.4350 H   0  0  0  0  0  0
    5.5448    5.5370   13.5169 H   0  0  0  0  0  0
    7.2958    3.8353   14.1685 H   0  0  0  0  0  0
    7.2926    1.9182   23.7044 H   0  0  0  0  0  0
   11.9598    4.4953   23.4194 H   0  0  0  0  0  0
   12.5736    3.8597   25.7235 H   0  0  0  0  0  0
   11.0730    2.5009   27.1031 H   0  0  0  0  0  0
    8.8863    1.7014   26.2215 H   0  0  0  0  0  0
    8.2735    5.6076   20.6153 H   0  0  0  0  0  0
    7.3200    5.7514   19.1720 H   0  0  0  0  0  0
  1  2  1  0  0  0
  1  5  1  0  0  0
  1  7  1  0  0  0
  2  3  1  0  0  0
  2 25  1  0  0  0
  2 26  1  0  0  0
  3  4  1  0  0  0
  3  6  2  0  0  0
  4  5  2  0  0  0
  4 15  1  0  0  0
  5 24  1  0  0  0
  7  8  1  0  0  0
  7 12  2  0  0  0
  8  9  2  0  0  0
  8 27  1  0  0  0
  9 10  1  0  0  0
  9 14  1  0  0  0
 10 11  2  0  0  0
 10 13  1  0  0  0
 11 12  1  0  0  0
 11 28  1  0  0  0
 12 29  1  0  0  0
 13 30  1  0  0  0
 13 31  1  0  0  0
 13 32  1  0  0  0
 14 33  1  0  0  0
 15 16  2  0  0  0
 15 19  1  0  0  0
 16 17  1  0  0  0
 17 18  1  0  0  0
 17 20  2  0  0  0
 18 19  1  0  0  0
 18 23  2  0  0  0
 19 34  1  0  0  0
 20 21  1  0  0  0
 20 35  1  0  0  0
 21 22  2  0  0  0
 21 36  1  0  0  0
 22 23  1  0  0  0
 22 37  1  0  0  0
 23 38  1  0  0  0
 24 39  1  0  0  0
 24 40  1  0  0  0
M  END
> <s_m_entry_id>
49435

> <s_m_entry_name>
dock_pv.25

> <s_m_Source_Path>
/home/csk/Desktop/cluster/DUD-E-result/fgfr1

> <s_m_Source_File>
dock_pv.maegz

> <i_m_Source_File_Index>
25

> <chembl_id>
CHEMBL3780482

> <chembl_pref_name>
None

> <i_lp_mmshare_version>
53161

> <i_f3d_flags>
0

> <r_lp_tautomer_probability>
0.999998894699381

> <s_lp_Force_Field>
OPLS_2005

> <r_lp_Energy>
39.446087

> <b_lp_Chiralities_Consistent>
1

> <s_lp_Variant>
CHEMBL3650_lig865-1

> <s_i_glide_gridfile>
glide-grid_3c4f

> <i_i_glide_lignum>
1058

> <i_i_glide_rotatable_bonds>
3

> <r_i_docking_score>
-8.77723398304735

> <r_i_glide_ligand_efficiency>
-0.365718082626973

> <r_i_glide_ligand_efficiency_sa>
-1.05491349392728

> <r_i_glide_ligand_efficiency_ln>
-2.10079485316645

> <r_i_glide_gscore>
-8.77723398304735

> <r_i_glide_lipo>
-2.42211456371673

> <r_i_glide_hbond>
-0.472353948170257

> <r_i_glide_metal>
0

> <r_i_glide_rewards>
-2.96430775562733

> <r_i_glide_evdw>
-37.6129608154297

> <r_i_glide_ecoul>
-9.34467315673828

> <r_i_glide_erotb>
0.363891298749192

> <r_i_glide_esite>
0

> <r_i_glide_emodel>
-59.7994550871747

> <r_i_glide_energy>
-46.957633972168

> <r_i_glide_einternal>
10.7370519638062

> <i_i_glide_confnum>
3

> <i_i_glide_posenum>
145

> <r_i_glide_eff_state_penalty>
0

> <s_user_duplicate_titles>
CHEMBL3650_lig865

> <s_m_subgroup_title>
dock_pv

> <s_m_subgroupid>
dock_pv

> <b_m_subgroup_collapsed>
1

$$$$
CHEMBL3650_lig868
                    3D
 Schrodinger Suite 2021-1.
 37 40  0  0  1  0            999 V2000
    6.0534    3.5152   18.9718 N   0  0  0  0  0  0
    5.5710    2.2136   19.3859 C   0  0  0  0  0  0
    6.1884    2.0368   20.7616 C   0  0  0  0  0  0
    7.1228    3.1273   20.9262 C   0  0  0  0  0  0
    6.9643    3.9723   19.8974 C   0  0  0  0  0  0
    5.9903    1.1370   21.5630 O   0  0  0  0  0  0
    5.6937    4.0256   17.7124 C   0  0  0  0  0  0
    6.2326    3.4785   16.5431 C   0  0  0  0  0  0
    5.8305    3.9627   15.2976 C   0  0  0  0  0  0
    4.9047    4.9910   15.2053 C   0  0  0  0  0  0
    4.3710    5.5370   16.3628 C   0  0  0  0  0  0
    4.7688    5.0702   17.6162 C   0  0  0  0  0  0
    6.3710    3.4795   14.1475 O   0  0  0  0  0  0
    8.1078    3.1927   22.0123 C   0  0  0  0  0  0
    7.9249    2.7370   23.2318 N   0  0  0  0  0  0
    9.0968    2.9895   23.8983 C   0  0  0  0  0  0
   10.0444    3.5958   23.0440 C   0  0  0  0  0  0
    9.3687    3.7220   21.8530 N   0  0  0  0  0  0
    9.4380    2.7370   25.2355 C   0  0  0  0  0  0
   10.6889    3.1546   25.6934 C   0  0  0  0  0  0
   11.6090    3.7526   24.8315 C   0  0  0  0  0  0
   11.3316    3.9370   23.4736 C   0  0  0  0  0  0
    7.5710    5.1608   19.6416 N   0  0  0  0  0  0
    5.8461    1.4037   18.7103 H   0  0  0  0  0  0
    4.4848    2.1915   19.4530 H   0  0  0  0  0  0
    6.9573    2.6797   16.5991 H   0  0  0  0  0  0
    4.6065    5.3725   14.2377 H   0  0  0  0  0  0
    3.6556    6.3310   16.2530 H   0  0  0  0  0  0
    4.3310    5.4952   18.5061 H   0  0  0  0  0  0
    7.0362    4.1299   13.8530 H   0  0  0  0  0  0
    9.6980    4.0821   20.9717 H   0  0  0  0  0  0
    8.7391    2.2519   25.9000 H   0  0  0  0  0  0
   10.9604    2.9920   26.7269 H   0  0  0  0  0  0
   12.5808    4.0351   25.2143 H   0  0  0  0  0  0
   12.0690    4.3569   22.8069 H   0  0  0  0  0  0
    8.2289    5.5627   20.2898 H   0  0  0  0  0  0
    7.3756    5.6633   18.7884 H   0  0  0  0  0  0
  1  2  1  0  0  0
  1  5  1  0  0  0
  1  7  1  0  0  0
  2  3  1  0  0  0
  2 24  1  0  0  0
  2 25  1  0  0  0
  3  4  1  0  0  0
  3  6  2  0  0  0
  4  5  2  0  0  0
  4 14  1  0  0  0
  5 23  1  0  0  0
  7  8  1  0  0  0
  7 12  2  0  0  0
  8  9  2  0  0  0
  8 26  1  0  0  0
  9 10  1  0  0  0
  9 13  1  0  0  0
 10 11  2  0  0  0
 10 27  1  0  0  0
 11 12  1  0  0  0
 11 28  1  0  0  0
 12 29  1  0  0  0
 13 30  1  0  0  0
 14 15  2  0  0  0
 14 18  1  0  0  0
 15 16  1  0  0  0
 16 17  1  0  0  0
 16 19  2  0  0  0
 17 18  1  0  0  0
 17 22  2  0  0  0
 18 31  1  0  0  0
 19 20  1  0  0  0
 19 32  1  0  0  0
 20 21  2  0  0  0
 20 33  1  0  0  0
 21 22  1  0  0  0
 21 34  1  0  0  0
 22 35  1  0  0  0
 23 36  1  0  0  0
 23 37  1  0  0  0
M  END
> <s_m_entry_id>
49436

> <s_m_entry_name>
dock_pv.26

> <s_m_Source_Path>
/home/csk/Desktop/cluster/DUD-E-result/fgfr1

> <s_m_Source_File>
dock_pv.maegz

> <i_m_Source_File_Index>
26

> <chembl_id>
CHEMBL3781511

> <chembl_pref_name>
None

> <i_lp_mmshare_version>
53161

> <i_f3d_flags>
0

> <r_lp_tautomer_probability>
0.999998894699381

> <s_lp_Force_Field>
OPLS_2005

> <r_lp_Energy>
38.741689

> <b_lp_Chiralities_Consistent>
1

> <s_lp_Variant>
CHEMBL3650_lig868-1

> <s_i_glide_gridfile>
glide-grid_3c4f

> <i_i_glide_lignum>
1061

> <i_i_glide_rotatable_bonds>
3

> <r_i_docking_score>
-8.76155762723837

> <r_i_glide_ligand_efficiency>
-0.380937288140799

> <r_i_glide_ligand_efficiency_sa>
-1.08333497400556

> <r_i_glide_ligand_efficiency_ln>
-2.11862407967843

> <r_i_glide_gscore>
-8.76155762723837

> <r_i_glide_lipo>
-2.62628778706789

> <r_i_glide_hbond>
-0.486194862063404

> <r_i_glide_metal>
0

> <r_i_glide_rewards>
-2.91249764644632

> <r_i_glide_evdw>
-35.5035095214844

> <r_i_glide_ecoul>
-9.03395462036133

> <r_i_glide_erotb>
0.393691337467662

> <r_i_glide_esite>
0

> <r_i_glide_emodel>
-58.0364670730333

> <r_i_glide_energy>
-44.5374641418457

> <r_i_glide_einternal>
11.1752996444702

> <i_i_glide_confnum>
1

> <i_i_glide_posenum>
169

> <r_i_glide_eff_state_penalty>
0

> <s_user_duplicate_titles>
CHEMBL3650_lig868

> <s_m_subgroup_title>
dock_pv

> <s_m_subgroupid>
dock_pv

> <b_m_subgroup_collapsed>
1

$$$$
CHEMBL3650_lig2823
                    3D
 Schrodinger Suite 2021-1.
 39 42  0  0  1  0            999 V2000
    8.9525    2.5706   24.1052 O   0  0  0  0  0  0
    5.5979    1.6505   19.4858 N   0  0  0  0  0  0
    5.9710    1.1137   20.6531 N   0  0  0  0  0  0
    7.3662    1.7382   22.5391 N   0  0  0  0  0  0
    5.1710    2.3370    9.4530 N   0  0  0  0  0  0
    6.8716    3.1432   20.6041 C   0  0  0  0  0  0
    6.0917    2.8558   19.4356 C   0  0  0  0  0  0
    6.7708    1.9687   21.3729 C   0  0  0  0  0  0
    5.7544    3.7112   18.2895 C   0  0  0  0  0  0
    7.6416    4.1947   21.1291 C   0  0  0  0  0  0
    8.2088    2.7115   22.9711 C   0  0  0  0  0  0
    8.3702    3.9235   22.2923 C   0  0  0  0  0  0
    6.1860    3.5017   16.9850 C   0  0  0  0  0  0
    5.5987    4.2260   15.9370 C   0  0  0  0  0  0
    4.7931    4.6686   18.5288 C   0  0  0  0  0  0
    5.7547    3.8044   14.5316 C   0  0  0  0  0  0
    4.7082    5.2715   16.2397 C   0  0  0  0  0  0
    7.7200    5.5691   20.5125 C   0  0  0  0  0  0
    4.3173    5.5030   17.5452 C   0  0  0  0  0  0
    5.9687    2.4646   14.1929 C   0  0  0  0  0  0
    5.5710    4.7370   13.5165 C   0  0  0  0  0  0
    5.5710    2.9905   11.9032 C   0  0  0  0  0  0
    5.8170    2.0368   12.8827 C   0  0  0  0  0  0
    5.5127    4.3370   12.1998 C   0  0  0  0  0  0
    5.3572    2.6207   10.5420 C   0  0  0  0  0  0
    8.8282    1.6818   24.4556 H   0  0  0  0  0  0
    5.6972    0.1678   20.8741 H   0  0  0  0  0  0
    9.0271    4.6749   22.7059 H   0  0  0  0  0  0
    6.8815    2.6996   16.7892 H   0  0  0  0  0  0
    4.3710    4.7370   19.4953 H   0  0  0  0  0  0
    4.2299    5.8539   15.4665 H   0  0  0  0  0  0
    8.3987    6.2200   21.0530 H   0  0  0  0  0  0
    7.9710    5.5079   19.4551 H   0  0  0  0  0  0
    6.7710    6.0686   20.5760 H   0  0  0  0  0  0
    3.5892    6.2453   17.8240 H   0  0  0  0  0  0
    6.2009    1.7357   14.9459 H   0  0  0  0  0  0
    5.4922    5.7906   13.7371 H   0  0  0  0  0  0
    5.8950    0.9848   12.6449 H   0  0  0  0  0  0
    5.3825    5.0821   11.4264 H   0  0  0  0  0  0
  1 11  1  0  0  0
  1 26  1  0  0  0
  2  3  1  0  0  0
  2  7  2  0  0  0
  3  8  1  0  0  0
  3 27  1  0  0  0
  4  8  1  0  0  0
  4 11  2  0  0  0
  5 25  3  0  0  0
  6  7  1  0  0  0
  6  8  2  0  0  0
  6 10  1  0  0  0
  7  9  1  0  0  0
  9 13  1  0  0  0
  9 15  2  0  0  0
 10 12  2  0  0  0
 10 18  1  0  0  0
 11 12  1  0  0  0
 12 28  1  0  0  0
 13 14  2  0  0  0
 13 29  1  0  0  0
 14 16  1  0  0  0
 14 17  1  0  0  0
 15 19  1  0  0  0
 15 30  1  0  0  0
 16 20  2  0  0  0
 16 21  1  0  0  0
 17 19  2  0  0  0
 17 31  1  0  0  0
 18 32  1  0  0  0
 18 33  1  0  0  0
 18 34  1  0  0  0
 19 35  1  0  0  0
 20 23  1  0  0  0
 20 36  1  0  0  0
 21 24  2  0  0  0
 21 37  1  0  0  0
 22 23  2  0  0  0
 22 24  1  0  0  0
 22 25  1  0  0  0
 23 38  1  0  0  0
 24 39  1  0  0  0
M  END
> <s_m_entry_id>
49437

> <s_m_entry_name>
dock_pv.27

> <s_m_Source_Path>
/home/csk/Desktop/cluster/DUD-E-result/fgfr1

> <s_m_Source_File>
dock_pv.maegz

> <i_m_Source_File_Index>
27

> <chembl_id>
CHEMBL2000724

> <chembl_pref_name>
None

> <i_lp_mmshare_version>
53161

> <i_f3d_flags>
0

> <r_lp_tautomer_probability>
1

> <s_lp_Force_Field>
OPLS_2005

> <r_lp_Energy>
16.626717

> <b_lp_Chiralities_Consistent>
1

> <s_lp_Variant>
CHEMBL3650_lig2823-1

> <s_i_glide_gridfile>
glide-grid_3c4f

> <i_i_glide_lignum>
3535

> <i_i_glide_rotatable_bonds>
3

> <r_i_docking_score>
-8.75380590301605

> <r_i_glide_ligand_efficiency>
-0.350152236120642

> <r_i_glide_ligand_efficiency_sa>
-1.02385134839311

> <r_i_glide_ligand_efficiency_ln>
-2.07491432940895

> <r_i_glide_gscore>
-8.75380590301605

> <r_i_glide_lipo>
-3.30678065711075

> <r_i_glide_hbond>
-0.580061712932688

> <r_i_glide_metal>
0

> <r_i_glide_rewards>
-3.04532922030967

> <r_i_glide_evdw>
-29.0547981262207

> <r_i_glide_ecoul>
-4.80704545974731

> <r_i_glide_erotb>
0.35216241261019

> <r_i_glide_esite>
0

> <r_i_glide_emodel>
-49.1208617165416

> <r_i_glide_energy>
-33.861843585968

> <r_i_glide_einternal>
5.10715007781982

> <i_i_glide_confnum>
6

> <i_i_glide_posenum>
148

> <r_i_glide_eff_state_penalty>
0

> <s_user_duplicate_titles>
CHEMBL3650_lig2823

> <s_m_subgroup_title>
dock_pv

> <s_m_subgroupid>
dock_pv

> <b_m_subgroup_collapsed>
1

$$$$
CHEMBL3650_lig1690
                    3D
 Schrodinger Suite 2021-1.
 39 42  0  0  1  0            999 V2000
    5.5709    2.7349   11.0852 C   0  0  0  0  0  0
    5.4751    3.1616   12.5303 C   0  0  0  0  0  0
    5.9712    2.4986   13.5474 N   0  0  0  0  0  0
    5.7784    3.3239   14.6285 C   0  0  0  0  0  0
    6.2005    3.1812   15.9600 C   0  0  0  0  0  0
    5.8519    4.1801   16.8814 C   0  0  0  0  0  0
    5.1035    5.2942   16.4809 C   0  0  0  0  0  0
    4.6875    5.4680   15.1611 C   0  0  0  0  0  0
    5.0510    4.4772   14.2536 C   0  0  0  0  0  0
    4.8764    4.3370   12.9010 N   0  0  0  0  0  0
    6.2716    4.0804   18.2283 N   0  0  0  0  0  0
    6.8723    5.1339   18.7974 N   0  0  0  0  0  0
    7.1710    4.7504   20.0116 C   0  0  0  0  0  0
    6.7825    3.4331   20.2847 C   0  0  0  0  0  0
    6.9900    2.6634   21.5146 C   0  0  0  0  0  0
    6.1745    1.7960   21.8393 O   0  0  0  0  0  0
    8.1551    2.9988   22.3966 C   0  0  0  0  0  0
    8.0976    2.6890   23.7610 C   0  0  0  0  0  0
    9.1776    2.9613   24.5939 C   0  0  0  0  0  0
   10.3286    3.5366   24.0666 C   0  0  0  0  0  0
   11.3676    3.8268   24.8807 F   0  0  0  0  0  0
   10.4202    3.8068   22.7056 C   0  0  0  0  0  0
    9.3392    3.5371   21.8726 C   0  0  0  0  0  0
    6.1679    3.0192   19.1091 C   0  0  0  0  0  0
    5.5710    1.8403   18.7741 N   0  0  0  0  0  0
    6.2264    1.8743   10.9582 H   0  0  0  0  0  0
    4.6068    2.4628   10.6625 H   0  0  0  0  0  0
    5.9707    3.5330   10.4615 H   0  0  0  0  0  0
    6.7889    2.3281   16.2578 H   0  0  0  0  0  0
    4.8467    6.0530   17.2078 H   0  0  0  0  0  0
    4.1358    6.3369   14.8480 H   0  0  0  0  0  0
    4.4850    5.0135   12.2539 H   0  0  0  0  0  0
    7.6634    5.4272   20.6965 H   0  0  0  0  0  0
    7.2164    2.2315   24.1894 H   0  0  0  0  0  0
    9.1298    2.7241   25.6458 H   0  0  0  0  0  0
   11.3300    4.2239   22.2998 H   0  0  0  0  0  0
    9.4496    3.7312   20.8154 H   0  0  0  0  0  0
    5.4340    1.1010   19.4537 H   0  0  0  0  0  0
    5.1168    1.7131   17.8820 H   0  0  0  0  0  0
  1  2  1  0  0  0
  1 26  1  0  0  0
  1 27  1  0  0  0
  1 28  1  0  0  0
  2  3  2  0  0  0
  2 10  1  0  0  0
  3  4  1  0  0  0
  4  5  2  0  0  0
  4  9  1  0  0  0
  5  6  1  0  0  0
  5 29  1  0  0  0
  6  7  2  0  0  0
  6 11  1  0  0  0
  7  8  1  0  0  0
  7 30  1  0  0  0
  8  9  2  0  0  0
  8 31  1  0  0  0
  9 10  1  0  0  0
 10 32  1  0  0  0
 11 12  1  0  0  0
 11 24  1  0  0  0
 12 13  2  0  0  0
 13 14  1  0  0  0
 13 33  1  0  0  0
 14 15  1  0  0  0
 14 24  2  0  0  0
 15 16  2  0  0  0
 15 17  1  0  0  0
 17 18  2  0  0  0
 17 23  1  0  0  0
 18 19  1  0  0  0
 18 34  1  0  0  0
 19 20  2  0  0  0
 19 35  1  0  0  0
 20 21  1  0  0  0
 20 22  1  0  0  0
 22 23  2  0  0  0
 22 36  1  0  0  0
 23 37  1  0  0  0
 24 25  1  0  0  0
 25 38  1  0  0  0
 25 39  1  0  0  0
M  END
> <s_m_entry_id>
49438

> <s_m_entry_name>
dock_pv.28

> <s_m_Source_Path>
/home/csk/Desktop/cluster/DUD-E-result/fgfr1

> <s_m_Source_File>
dock_pv.maegz

> <i_m_Source_File_Index>
28

> <chembl_id>
CHEMBL3681311

> <chembl_pref_name>
None

> <i_lp_mmshare_version>
53161

> <i_f3d_flags>
0

> <r_lp_tautomer_probability>
1

> <s_lp_Force_Field>
OPLS_2005

> <r_lp_Energy>
22.284188

> <b_lp_Chiralities_Consistent>
1

> <s_lp_Variant>
CHEMBL3650_lig1690-1

> <s_i_glide_gridfile>
glide-grid_3c4f

> <i_i_glide_lignum>
2072

> <i_i_glide_rotatable_bonds>
3

> <r_i_docking_score>
-8.75111161187803

> <r_i_glide_ligand_efficiency>
-0.350044464475121

> <r_i_glide_ligand_efficiency_sa>
-1.02353622219027

> <r_i_glide_ligand_efficiency_ln>
-2.07427570166785

> <r_i_glide_gscore>
-8.75111161187803

> <r_i_glide_lipo>
-2.84380215127001

> <r_i_glide_hbond>
-0.578482493998918

> <r_i_glide_metal>
0

> <r_i_glide_rewards>
-2.48718259355155

> <r_i_glide_evdw>
-48.5099487304688

> <r_i_glide_ecoul>
-5.53413438796997

> <r_i_glide_erotb>
0.503482900238843

> <r_i_glide_esite>
-0.0895096785774521

> <r_i_glide_emodel>
-81.4618693993785

> <r_i_glide_energy>
-54.0440831184387

> <r_i_glide_einternal>
2.24352622032166

> <i_i_glide_confnum>
19

> <i_i_glide_posenum>
339

> <r_i_glide_eff_state_penalty>
0

> <s_user_duplicate_titles>
CHEMBL3650_lig1690

> <s_m_subgroup_title>
dock_pv

> <s_m_subgroupid>
dock_pv

> <b_m_subgroup_collapsed>
1

$$$$
CHEMBL3650_lig523
                    3D
 Schrodinger Suite 2021-1.
 35 37  0  0  1  0            999 V2000
    8.7791    2.8466   23.3048 C   0  0  0  0  0  0
    9.5786    3.7985   22.6860 C   0  0  0  0  0  0
    9.1580    4.3898   21.5013 C   0  0  0  0  0  0
    7.5736    2.4519   22.7047 C   0  0  0  0  0  0
    7.1726    3.0298   21.4958 C   0  0  0  0  0  0
    7.9386    4.0453   20.9252 C   0  0  0  0  0  0
    7.4191    4.7064   19.7333 C   0  0  0  0  0  0
    6.3732    4.2111   19.0530 C   0  0  0  0  0  0
    5.8241    2.8498   19.4979 C   0  0  0  0  0  0
    5.9710    2.6373   20.9232 O   0  0  0  0  0  0
    5.6949    4.9907   17.9253 C   0  0  0  0  0  0
    5.6141    4.3427   16.5501 C   0  0  0  0  0  0
    4.6885    4.8265   15.6162 C   0  0  0  0  0  0
    4.6009    4.2576   14.3434 C   0  0  0  0  0  0
    5.4462    3.2028   13.9902 C   0  0  0  0  0  0
    6.3710    2.7370   14.9145 C   0  0  0  0  0  0
    6.4706    3.3048   16.1806 C   0  0  0  0  0  0
    5.3919    2.6243   12.7475 O   0  0  0  0  0  0
    9.2011    2.3370   24.5060 O   0  0  0  0  0  0
    6.7710    1.5370   23.3206 O   0  0  0  0  0  0
    3.6845    4.7370   13.4483 O   0  0  0  0  0  0
   10.5153    4.0944   23.1351 H   0  0  0  0  0  0
    9.7800    5.1370   21.0531 H   0  0  0  0  0  0
    7.8119    5.6731   19.4575 H   0  0  0  0  0  0
    4.7697    2.7729   19.2421 H   0  0  0  0  0  0
    6.3283    2.0431   18.9640 H   0  0  0  0  0  0
    6.2116    5.9370   17.7857 H   0  0  0  0  0  0
    4.6838    5.2364   18.2529 H   0  0  0  0  0  0
    4.0292    5.6412   15.8771 H   0  0  0  0  0  0
    7.0355    1.9370   14.6530 H   0  0  0  0  0  0
    7.2199    2.9311   16.8623 H   0  0  0  0  0  0
    4.6191    2.9317   12.2635 H   0  0  0  0  0  0
    9.0998    1.3775   24.5682 H   0  0  0  0  0  0
    7.1970    1.1767   24.1049 H   0  0  0  0  0  0
    3.9705    5.5729   13.0394 H   0  0  0  0  0  0
  1  2  2  0  0  0
  1  4  1  0  0  0
  1 19  1  0  0  0
  2  3  1  0  0  0
  2 22  1  0  0  0
  3  6  2  0  0  0
  3 23  1  0  0  0
  4  5  2  0  0  0
  4 20  1  0  0  0
  5  6  1  0  0  0
  5 10  1  0  0  0
  6  7  1  0  0  0
  7  8  2  0  0  0
  7 24  1  0  0  0
  8 11  1  0  0  0
  8  9  1  0  0  0
  9 10  1  0  0  0
  9 25  1  0  0  0
  9 26  1  0  0  0
 11 12  1  0  0  0
 11 27  1  0  0  0
 11 28  1  0  0  0
 12 13  2  0  0  0
 12 17  1  0  0  0
 13 14  1  0  0  0
 13 29  1  0  0  0
 14 15  2  0  0  0
 14 21  1  0  0  0
 15 16  1  0  0  0
 15 18  1  0  0  0
 16 17  2  0  0  0
 16 30  1  0  0  0
 17 31  1  0  0  0
 18 32  1  0  0  0
 19 33  1  0  0  0
 20 34  1  0  0  0
 21 35  1  0  0  0
M  END
> <s_m_entry_id>
49439

> <s_m_entry_name>
dock_pv.29

> <s_m_Source_Path>
/home/csk/Desktop/cluster/DUD-E-result/fgfr1

> <s_m_Source_File>
dock_pv.maegz

> <i_m_Source_File_Index>
29

> <chembl_id>
CHEMBL477560

> <chembl_pref_name>
HEMATOXYLENE

> <i_lp_mmshare_version>
53161

> <i_f3d_flags>
0

> <r_lp_tautomer_probability>
0.999999999999776

> <s_lp_Force_Field>
OPLS_2005

> <r_lp_Energy>
16.700786

> <b_lp_Chiralities_Consistent>
1

> <s_lp_Variant>
CHEMBL3650_lig523-1

> <s_i_glide_gridfile>
glide-grid_3c4f

> <i_i_glide_lignum>
583

> <i_i_glide_rotatable_bonds>
6

> <r_i_docking_score>
-8.70733173349697

> <r_i_glide_ligand_efficiency>
-0.414634844452237

> <r_i_glide_ligand_efficiency_sa>
-1.14394609556838

> <r_i_glide_ligand_efficiency_ln>
-2.15287017628666

> <r_i_glide_gscore>
-8.70733173349697

> <r_i_glide_lipo>
-3.06937593062985

> <r_i_glide_hbond>
0

> <r_i_glide_metal>
0

> <r_i_glide_rewards>
-2.3251053816267

> <r_i_glide_evdw>
-34.785945892334

> <r_i_glide_ecoul>
-12.5581674575806

> <r_i_glide_erotb>
0.310171992013365

> <r_i_glide_esite>
0

> <r_i_glide_emodel>
-63.248266105941

> <r_i_glide_energy>
-47.3441133499146

> <r_i_glide_einternal>
8.6761474609375

> <i_i_glide_confnum>
4

> <i_i_glide_posenum>
244

> <r_i_glide_eff_state_penalty>
0

> <s_user_duplicate_titles>
CHEMBL3650_lig523,490108

> <s_m_subgroup_title>
dock_pv

> <s_m_subgroupid>
dock_pv

> <b_m_subgroup_collapsed>
1

$$$$
CHEMBL3650_lig2685
                    3D
 Schrodinger Suite 2021-1.
 38 41  0  0  1  0            999 V2000
    5.1710    2.5080    9.8552 Cl  0  0  0  0  0  0
    8.6849    2.6234   24.0191 O   0  0  0  0  0  0
    5.6324    1.5370   19.2351 N   0  0  0  0  0  0
    5.9710    1.0298   20.4289 N   0  0  0  0  0  0
    7.1923    1.7302   22.3922 N   0  0  0  0  0  0
    6.7774    3.0920   20.3989 C   0  0  0  0  0  0
    6.0836    2.7549   19.1841 C   0  0  0  0  0  0
    6.6652    1.9327   21.1880 C   0  0  0  0  0  0
    5.7677    3.5823   18.0063 C   0  0  0  0  0  0
    7.4973    4.1662   20.9460 C   0  0  0  0  0  0
    7.9790    2.7324   22.8571 C   0  0  0  0  0  0
    8.1429    3.9370   22.1690 C   0  0  0  0  0  0
    6.1009    3.2978   16.6782 C   0  0  0  0  0  0
    5.5669    4.0763   15.6350 C   0  0  0  0  0  0
    4.9485    4.6549   18.2879 C   0  0  0  0  0  0
    5.6406    3.6586   14.2051 C   0  0  0  0  0  0
    4.8404    5.2309   15.9743 C   0  0  0  0  0  0
    7.6710    5.4945   20.2530 C   0  0  0  0  0  0
    4.5503    5.5280   17.2971 C   0  0  0  0  0  0
    5.5710    4.6150   13.1956 C   0  0  0  0  0  0
    5.6915    2.3159   13.8275 C   0  0  0  0  0  0
    5.4496    2.9162   11.5077 C   0  0  0  0  0  0
    5.4923    4.2548   11.8573 C   0  0  0  0  0  0
    5.5710    1.9370   12.4922 C   0  0  0  0  0  0
    8.6310    1.7196   24.3481 H   0  0  0  0  0  0
    5.7092    0.0811   20.6542 H   0  0  0  0  0  0
    8.7709    4.7042   22.5987 H   0  0  0  0  0  0
    6.6954    2.4220   16.4633 H   0  0  0  0  0  0
    4.5879    4.7370   19.2982 H   0  0  0  0  0  0
    4.4203    5.8748   15.2162 H   0  0  0  0  0  0
    7.9710    5.3366   19.2196 H   0  0  0  0  0  0
    8.3710    6.1229   20.7897 H   0  0  0  0  0  0
    6.7710    6.0734   20.2052 H   0  0  0  0  0  0
    3.9710    6.3864   17.5649 H   0  0  0  0  0  0
    5.5929    5.6628   13.4530 H   0  0  0  0  0  0
    5.7745    1.5410   14.5690 H   0  0  0  0  0  0
    5.4236    5.0212   11.0984 H   0  0  0  0  0  0
    5.5314    0.8881   12.2460 H   0  0  0  0  0  0
  1 22  1  0  0  0
  2 11  1  0  0  0
  2 25  1  0  0  0
  3  4  1  0  0  0
  3  7  2  0  0  0
  4  8  1  0  0  0
  4 26  1  0  0  0
  5  8  1  0  0  0
  5 11  2  0  0  0
  6  7  1  0  0  0
  6  8  2  0  0  0
  6 10  1  0  0  0
  7  9  1  0  0  0
  9 13  1  0  0  0
  9 15  2  0  0  0
 10 12  2  0  0  0
 10 18  1  0  0  0
 11 12  1  0  0  0
 12 27  1  0  0  0
 13 14  2  0  0  0
 13 28  1  0  0  0
 14 16  1  0  0  0
 14 17  1  0  0  0
 15 19  1  0  0  0
 15 29  1  0  0  0
 16 20  2  0  0  0
 16 21  1  0  0  0
 17 19  2  0  0  0
 17 30  1  0  0  0
 18 31  1  0  0  0
 18 32  1  0  0  0
 18 33  1  0  0  0
 19 34  1  0  0  0
 20 23  1  0  0  0
 20 35  1  0  0  0
 21 24  2  0  0  0
 21 36  1  0  0  0
 22 23  2  0  0  0
 22 24  1  0  0  0
 23 37  1  0  0  0
 24 38  1  0  0  0
M  END
> <s_m_entry_id>
49440

> <s_m_entry_name>
dock_pv.30

> <s_m_Source_Path>
/home/csk/Desktop/cluster/DUD-E-result/fgfr1

> <s_m_Source_File>
dock_pv.maegz

> <i_m_Source_File_Index>
30

> <chembl_id>
CHEMBL1990590

> <chembl_pref_name>
None

> <i_lp_mmshare_version>
53161

> <i_f3d_flags>
0

> <r_lp_tautomer_probability>
1

> <s_lp_Force_Field>
OPLS_2005

> <r_lp_Energy>
14.751772

> <b_lp_Chiralities_Consistent>
1

> <s_lp_Variant>
CHEMBL3650_lig2685-1

> <s_i_glide_gridfile>
glide-grid_3c4f

> <i_i_glide_lignum>
3319

> <i_i_glide_rotatable_bonds>
3

> <r_i_docking_score>
-8.70581905899769

> <r_i_glide_ligand_efficiency>
-0.36274246079157

> <r_i_glide_ligand_efficiency_sa>
-1.04633031530936

> <r_i_glide_ligand_efficiency_ln>
-2.08370198482404

> <r_i_glide_gscore>
-8.70581905899769

> <r_i_glide_lipo>
-3.34736694841937

> <r_i_glide_hbond>
-0.450731404178839

> <r_i_glide_metal>
0

> <r_i_glide_rewards>
-2.83982192742548

> <r_i_glide_evdw>
-32.7059059143066

> <r_i_glide_ecoul>
-5.11639976501465

> <r_i_glide_erotb>
0.334856481493536

> <r_i_glide_esite>
0

> <r_i_glide_emodel>
-37.556552264325

> <r_i_glide_energy>
-37.8223056793213

> <r_i_glide_einternal>
2.06175136566162

> <i_i_glide_confnum>
1

> <i_i_glide_posenum>
317

> <r_i_glide_eff_state_penalty>
0

> <s_user_duplicate_titles>
CHEMBL3650_lig2685

> <s_m_subgroup_title>
dock_pv

> <s_m_subgroupid>
dock_pv

> <b_m_subgroup_collapsed>
1

$$$$
CHEMBL3650_lig3013
                    3D
 Schrodinger Suite 2021-1.
 30 31  0  0  1  0            999 V2000
    6.7721    1.5370   22.9068 O   0  0  0  0  0  0
    8.7941    3.4370   23.4054 O   0  0  0  0  0  0
    5.9710    1.9370   12.7820 O   0  0  0  0  0  0
    3.2597    5.5370   14.2528 O   0  0  0  0  0  0
    5.9276    3.7176   15.9986 C   0  0  0  0  0  0
    6.6759    3.4890   19.7956 C   0  0  0  0  0  0
    7.0736    2.5002   21.9801 C   0  0  0  0  0  0
    8.0832    3.4377   22.2302 C   0  0  0  0  0  0
    6.3698    2.5343   20.7723 C   0  0  0  0  0  0
    5.6515    2.8428   13.7537 C   0  0  0  0  0  0
    4.2523    4.6414   14.5142 C   0  0  0  0  0  0
    4.8841    4.6199   15.7575 C   0  0  0  0  0  0
    6.3218    2.8441   14.9781 C   0  0  0  0  0  0
    6.6064    3.6726   17.3019 C   0  0  0  0  0  0
    5.9936    3.4705   18.4877 C   0  0  0  0  0  0
    7.6754    4.4263   20.0652 C   0  0  0  0  0  0
    4.6312    3.7538   13.5149 C   0  0  0  0  0  0
    8.3710    4.4053   21.2730 C   0  0  0  0  0  0
    7.5561    1.1963   23.3551 H   0  0  0  0  0  0
    8.3696    2.9395   24.1079 H   0  0  0  0  0  0
    5.3170    1.9328   12.0784 H   0  0  0  0  0  0
    3.3839    5.9065   13.3676 H   0  0  0  0  0  0
    5.6049    1.7940   20.5826 H   0  0  0  0  0  0
    4.5707    5.3132   16.5240 H   0  0  0  0  0  0
    7.1129    2.1307   15.1504 H   0  0  0  0  0  0
    7.6752    3.8355   17.2754 H   0  0  0  0  0  0
    4.9257    3.3011   18.5066 H   0  0  0  0  0  0
    7.9311    5.1723   19.3272 H   0  0  0  0  0  0
    4.1243    3.7714   12.5616 H   0  0  0  0  0  0
    9.1440    5.1362   21.4595 H   0  0  0  0  0  0
  1  7  1  0  0  0
  1 19  1  0  0  0
  2  8  1  0  0  0
  2 20  1  0  0  0
  3 10  1  0  0  0
  3 21  1  0  0  0
  4 11  1  0  0  0
  4 22  1  0  0  0
  5 12  2  0  0  0
  5 13  1  0  0  0
  5 14  1  0  0  0
  6  9  1  0  0  0
  6 15  1  0  0  0
  6 16  2  0  0  0
  7  8  1  0  0  0
  7  9  2  0  0  0
  8 18  2  0  0  0
  9 23  1  0  0  0
 10 13  2  0  0  0
 10 17  1  0  0  0
 11 12  1  0  0  0
 11 17  2  0  0  0
 12 24  1  0  0  0
 13 25  1  0  0  0
 14 15  2  3  0  0
 14 26  1  0  0  0
 15 27  1  0  0  0
 16 18  1  0  0  0
 16 28  1  0  0  0
 17 29  1  0  0  0
 18 30  1  0  0  0
M  END
> <s_m_entry_id>
49441

> <s_m_entry_name>
dock_pv.31

> <s_m_Source_Path>
/home/csk/Desktop/cluster/DUD-E-result/fgfr1

> <s_m_Source_File>
dock_pv.maegz

> <i_m_Source_File_Index>
31

> <chembl_id>
CHEMBL1972346

> <chembl_pref_name>
None

> <i_lp_mmshare_version>
53161

> <i_f3d_flags>
0

> <r_lp_tautomer_probability>
1

> <s_lp_Force_Field>
OPLS_2005

> <r_lp_Energy>
12.64971

> <b_lp_Chiralities_Consistent>
1

> <s_lp_Variant>
CHEMBL3650_lig3013-1

> <s_i_glide_gridfile>
glide-grid_3c4f

> <i_i_glide_lignum>
3821

> <i_i_glide_rotatable_bonds>
6

> <r_i_docking_score>
-8.67797784910026

> <r_i_glide_ligand_efficiency>
-0.48210988050557

> <r_i_glide_ligand_efficiency_sa>
-1.26348531918074

> <r_i_glide_ligand_efficiency_ln>
-2.23062945886517

> <r_i_glide_gscore>
-8.67797784910026

> <r_i_glide_lipo>
-2.85627421188157

> <r_i_glide_hbond>
-0.451020830895508

> <r_i_glide_metal>
0

> <r_i_glide_rewards>
-2.83446916613444

> <r_i_glide_evdw>
-34.0266647338867

> <r_i_glide_ecoul>
-9.45111560821533

> <r_i_glide_erotb>
0.582786937737895

> <r_i_glide_esite>
0

> <r_i_glide_emodel>
-61.1472029985965

> <r_i_glide_energy>
-43.4777803421021

> <r_i_glide_einternal>
10.2797241210938

> <i_i_glide_confnum>
7

> <i_i_glide_posenum>
362

> <r_i_glide_eff_state_penalty>
0

> <s_user_duplicate_titles>
CHEMBL3650_lig3013

> <s_m_subgroup_title>
dock_pv

> <s_m_subgroupid>
dock_pv

> <b_m_subgroup_collapsed>
1

$$$$
CHEMBL3650_lig177
                    3D
 Schrodinger Suite 2021-1.
 27 29  0  0  1  0            999 V2000
    6.7452    2.4724   21.1157 C   0  0  0  0  0  0
    5.8724    1.5291   20.6531 N   0  0  0  0  0  0
    6.1652    3.1152   19.0823 N   0  0  0  0  0  0
    6.9463    3.4976   20.1572 C   0  0  0  0  0  0
    5.5697    1.9365   19.4524 C   0  0  0  0  0  0
    7.4374    2.5003   22.3342 C   0  0  0  0  0  0
    7.8112    4.5654   20.3952 C   0  0  0  0  0  0
    8.3709    3.5211   22.5397 C   0  0  0  0  0  0
    5.9944    3.7486   17.8498 C   0  0  0  0  0  0
    8.5352    4.5300   21.5898 C   0  0  0  0  0  0
    7.1709    1.5376   23.2741 O   0  0  0  0  0  0
    9.1198    3.5659   23.6888 O   0  0  0  0  0  0
    5.1681    4.8686   17.7672 C   0  0  0  0  0  0
    6.5719    3.1916   16.7062 C   0  0  0  0  0  0
    6.3418    3.7903   15.4705 C   0  0  0  0  0  0
    4.9506    5.4674   16.5304 C   0  0  0  0  0  0
    5.5424    4.9302   15.3890 C   0  0  0  0  0  0
    4.9035    1.4350   18.7637 H   0  0  0  0  0  0
    7.9587    5.3464   19.6634 H   0  0  0  0  0  0
    9.2436    5.3157   21.7905 H   0  0  0  0  0  0
    7.9353    1.0680   23.6424 H   0  0  0  0  0  0
    8.8838    2.8739   24.3108 H   0  0  0  0  0  0
    4.6823    5.2561   18.6499 H   0  0  0  0  0  0
    7.1913    2.3091   16.7700 H   0  0  0  0  0  0
    6.7927    3.3880   14.5758 H   0  0  0  0  0  0
    4.3181    6.3366   16.4520 H   0  0  0  0  0  0
    5.3825    5.3993   14.4280 H   0  0  0  0  0  0
  1  2  1  0  0  0
  1  4  1  0  0  0
  1  6  2  0  0  0
  2  5  2  0  0  0
  3  4  1  0  0  0
  3  9  1  0  0  0
  3  5  1  0  0  0
  4  7  2  0  0  0
  5 18  1  0  0  0
  6  8  1  0  0  0
  6 11  1  0  0  0
  7 10  1  0  0  0
  7 19  1  0  0  0
  8 10  2  0  0  0
  8 12  1  0  0  0
  9 13  2  0  0  0
  9 14  1  0  0  0
 10 20  1  0  0  0
 11 21  1  0  0  0
 12 22  1  0  0  0
 13 16  1  0  0  0
 13 23  1  0  0  0
 14 15  2  0  0  0
 14 24  1  0  0  0
 15 17  1  0  0  0
 15 25  1  0  0  0
 16 17  2  0  0  0
 16 26  1  0  0  0
 17 27  1  0  0  0
M  END
> <s_m_entry_id>
49443

> <s_m_entry_name>
dock_pv.33

> <s_m_Source_Path>
/home/csk/Desktop/cluster/DUD-E-result/fgfr1

> <s_m_Source_File>
dock_pv.maegz

> <i_m_Source_File_Index>
33

> <chembl_id>
CHEMBL77303

> <chembl_pref_name>
None

> <i_lp_mmshare_version>
53161

> <i_f3d_flags>
0

> <r_lp_tautomer_probability>
1

> <s_lp_Force_Field>
OPLS_2005

> <r_lp_Energy>
14.838922

> <b_lp_Chiralities_Consistent>
1

> <s_lp_Variant>
CHEMBL3650_lig177-1

> <s_i_glide_gridfile>
glide-grid_3c4f

> <i_i_glide_lignum>
199

> <i_i_glide_rotatable_bonds>
3

> <r_i_docking_score>
-8.62719288259216

> <r_i_glide_ligand_efficiency>
-0.507481934270127

> <r_i_glide_ligand_efficiency_sa>
-1.30487895394808

> <r_i_glide_ligand_efficiency_ln>
-2.25064250492853

> <r_i_glide_gscore>
-8.62719288259216

> <r_i_glide_lipo>
-2.82801169208606

> <r_i_glide_hbond>
0

> <r_i_glide_metal>
0

> <r_i_glide_rewards>
-3.45173666939334

> <r_i_glide_evdw>
-30.7296276092529

> <r_i_glide_ecoul>
-7.61950778961182

> <r_i_glide_erotb>
0.331963027791665

> <r_i_glide_esite>
0

> <r_i_glide_emodel>
-53.6614715651272

> <r_i_glide_energy>
-38.3491353988647

> <r_i_glide_einternal>
4.15476131439209

> <i_i_glide_confnum>
3

> <i_i_glide_posenum>
52

> <r_i_glide_eff_state_penalty>
0

> <s_user_duplicate_titles>
CHEMBL3650_lig177

> <s_m_subgroup_title>
dock_pv

> <s_m_subgroupid>
dock_pv

> <b_m_subgroup_collapsed>
1

$$$$
CHEMBL3650_lig447
                    3D
 Schrodinger Suite 2021-1.
 35 39  0  0  1  0            999 V2000
    8.9746    4.2962   22.1568 C   0  0  0  0  0  0
    8.7578    3.3364   23.1428 C   0  0  0  0  0  0
    7.7386    2.3936   23.0150 C   0  0  0  0  0  0
    8.1923    4.3455   21.0052 C   0  0  0  0  0  0
    7.2053    3.3730   20.8222 C   0  0  0  0  0  0
    6.9670    2.4020   21.8439 C   0  0  0  0  0  0
    5.9712    1.5369   21.5061 N   0  0  0  0  0  0
    5.6515    1.9094   20.2587 N   0  0  0  0  0  0
    6.3193    3.0063   19.7758 C   0  0  0  0  0  0
    6.1358    3.4566   18.4299 C   0  0  0  0  0  0
    5.4654    4.6021   18.0658 N   0  0  0  0  0  0
    6.5282    2.7431   17.4099 N   0  0  0  0  0  0
    6.0600    3.4128   16.3167 C   0  0  0  0  0  0
    5.3608    4.5855   16.6900 C   0  0  0  0  0  0
    4.7283    5.3988   15.7462 C   0  0  0  0  0  0
    4.7835    4.9643   14.4150 C   0  0  0  0  0  0
    5.4767    3.8096   14.0247 C   0  0  0  0  0  0
    6.1470    3.0360   14.9732 C   0  0  0  0  0  0
    5.5008    3.4152   12.6690 N   0  0  0  0  0  0
    5.5709    4.2111   11.5522 C   0  0  0  0  0  0
    5.5694    3.5845   10.4058 N   0  0  0  0  0  0
    5.5680    2.3227   10.7570 C   0  0  0  0  0  0
    5.5003    2.1513   12.1347 C   0  0  0  0  0  0
    9.7639    5.0183   22.2805 H   0  0  0  0  0  0
    9.3820    3.3276   24.0243 H   0  0  0  0  0  0
    7.5705    1.6564   23.7861 H   0  0  0  0  0  0
    8.3690    5.0900   20.2450 H   0  0  0  0  0  0
    4.9664    1.3889   19.7247 H   0  0  0  0  0  0
    5.0843    5.2608   18.7269 H   0  0  0  0  0  0
    4.1900    6.2942   16.0228 H   0  0  0  0  0  0
    4.2657    5.5380   13.6611 H   0  0  0  0  0  0
    6.6827    2.1421   14.6925 H   0  0  0  0  0  0
    5.7148    5.2628   11.6719 H   0  0  0  0  0  0
    5.5672    1.5374   10.0162 H   0  0  0  0  0  0
    5.4379    1.2713   12.7575 H   0  0  0  0  0  0
  1  2  1  0  0  0
  1  4  2  0  0  0
  1 24  1  0  0  0
  2  3  2  0  0  0
  2 25  1  0  0  0
  3  6  1  0  0  0
  3 26  1  0  0  0
  4  5  1  0  0  0
  4 27  1  0  0  0
  5  6  1  0  0  0
  5  9  2  0  0  0
  6  7  2  0  0  0
  7  8  1  0  0  0
  8  9  1  0  0  0
  8 28  1  0  0  0
  9 10  1  0  0  0
 10 12  2  0  0  0
 10 11  1  0  0  0
 11 14  1  0  0  0
 11 29  1  0  0  0
 12 13  1  0  0  0
 13 14  2  0  0  0
 13 18  1  0  0  0
 14 15  1  0  0  0
 15 16  2  0  0  0
 15 30  1  0  0  0
 16 17  1  0  0  0
 16 31  1  0  0  0
 17 18  2  0  0  0
 17 19  1  0  0  0
 18 32  1  0  0  0
 19 20  1  0  0  0
 19 23  1  0  0  0
 20 21  2  0  0  0
 20 33  1  0  0  0
 21 22  1  0  0  0
 22 23  2  0  0  0
 22 34  1  0  0  0
 23 35  1  0  0  0
M  END
> <s_m_entry_id>
49444

> <s_m_entry_name>
dock_pv.34

> <s_m_Source_Path>
/home/csk/Desktop/cluster/DUD-E-result/fgfr1

> <s_m_Source_File>
dock_pv.maegz

> <i_m_Source_File_Index>
34

> <chembl_id>
CHEMBL378003

> <chembl_pref_name>
None

> <i_lp_mmshare_version>
53161

> <i_f3d_flags>
0

> <r_lp_tautomer_probability>
0.0196078431372549

> <s_lp_Force_Field>
OPLS_2005

> <r_lp_Energy>
32.371407

> <b_lp_Chiralities_Consistent>
1

> <s_lp_Variant>
CHEMBL3650_lig447-2

> <s_i_glide_gridfile>
glide-grid_3c4f

> <i_i_glide_lignum>
496

> <i_i_glide_rotatable_bonds>
2

> <r_i_docking_score>
-8.62402165939588

> <r_i_glide_ligand_efficiency>
-0.374957463451995

> <r_i_glide_ligand_efficiency_sa>
-1.06632914804554

> <r_i_glide_ligand_efficiency_ln>
-2.08536663554691

> <r_i_glide_gscore>
-8.62402165939588

> <r_i_glide_lipo>
-2.57989284186043

> <r_i_glide_hbond>
-0.35535724384193

> <r_i_glide_metal>
0

> <r_i_glide_rewards>
-2.95073719229942

> <r_i_glide_evdw>
-43.208438873291

> <r_i_glide_ecoul>
-5.16995811462402

> <r_i_glide_erotb>
0.285304885134248

> <r_i_glide_esite>
-0.0874236056701955

> <r_i_glide_emodel>
-65.3276594276277

> <r_i_glide_energy>
-48.378396987915

> <r_i_glide_einternal>
7.33189678192139

> <i_i_glide_confnum>
8

> <i_i_glide_posenum>
174

> <r_i_glide_eff_state_penalty>
0

> <s_user_duplicate_titles>
CHEMBL3650_lig447,352003

> <s_m_subgroup_title>
dock_pv

> <s_m_subgroupid>
dock_pv

> <b_m_subgroup_collapsed>
1

$$$$
CHEMBL3650_lig2700
                    3D
 Schrodinger Suite 2021-1.
 29 31  0  0  1  0            999 V2000
    5.9710    1.1370   22.1037 O   0  0  0  0  0  0
    7.1710    4.8090   20.5025 N   0  0  0  0  0  0
    5.8406    2.2382   20.1900 N   0  0  0  0  0  0
    7.6157    2.7739   21.7976 C   0  0  0  0  0  0
    6.6842    4.3624   19.2785 C   0  0  0  0  0  0
    6.1459    3.0786   19.1283 C   0  0  0  0  0  0
    7.9261    4.0791   21.4142 C   0  0  0  0  0  0
    6.4016    2.0055   21.3740 C   0  0  0  0  0  0
    5.9711    2.5760   17.8530 C   0  0  0  0  0  0
    6.7712    5.1687   18.1491 C   0  0  0  0  0  0
    8.4402    2.1064   22.7058 C   0  0  0  0  0  0
    9.0633    4.6460   21.9526 C   0  0  0  0  0  0
    6.2055    3.3476   16.7071 C   0  0  0  0  0  0
    6.5530    4.6805   16.8689 C   0  0  0  0  0  0
    9.6053    2.6646   23.1887 C   0  0  0  0  0  0
    9.9409    3.9371   22.7836 C   0  0  0  0  0  0
    6.1282    2.7664   15.3054 C   0  0  0  0  0  0
    7.4924    5.7627   20.4389 H   0  0  0  0  0  0
    5.0923    1.5840   20.0112 H   0  0  0  0  0  0
    5.6831    1.5376   17.8530 H   0  0  0  0  0  0
    7.1350    6.1724   18.2575 H   0  0  0  0  0  0
    8.1781    1.1370   23.0530 H   0  0  0  0  0  0
    9.1736    5.6653   21.6624 H   0  0  0  0  0  0
    6.7265    5.3164   16.0112 H   0  0  0  0  0  0
   10.2280    2.1179   23.8799 H   0  0  0  0  0  0
   10.8660    4.3373   23.1578 H   0  0  0  0  0  0
    6.7688    1.8870   15.2330 H   0  0  0  0  0  0
    5.1063    2.4827   15.0530 H   0  0  0  0  0  0
    6.4801    3.4759   14.5545 H   0  0  0  0  0  0
  1  8  2  0  0  0
  2  5  1  0  0  0
  2  7  1  0  0  0
  2 18  1  0  0  0
  3  6  1  0  0  0
  3  8  1  0  0  0
  3 19  1  0  0  0
  4  7  1  0  0  0
  4  8  1  0  0  0
  4 11  2  0  0  0
  5  6  1  0  0  0
  5 10  2  0  0  0
  6  9  2  0  0  0
  7 12  2  0  0  0
  9 13  1  0  0  0
  9 20  1  0  0  0
 10 14  1  0  0  0
 10 21  1  0  0  0
 11 15  1  0  0  0
 11 22  1  0  0  0
 12 16  1  0  0  0
 12 23  1  0  0  0
 13 14  2  0  0  0
 13 17  1  0  0  0
 14 24  1  0  0  0
 15 16  2  0  0  0
 15 25  1  0  0  0
 16 26  1  0  0  0
 17 27  1  0  0  0
 17 28  1  0  0  0
 17 29  1  0  0  0
M  END
> <s_m_entry_id>
49445

> <s_m_entry_name>
dock_pv.35

> <s_m_Source_Path>
/home/csk/Desktop/cluster/DUD-E-result/fgfr1

> <s_m_Source_File>
dock_pv.maegz

> <i_m_Source_File_Index>
35

> <chembl_id>
CHEMBL1999714

> <chembl_pref_name>
None

> <i_lp_mmshare_version>
53161

> <i_f3d_flags>
0

> <r_lp_tautomer_probability>
1

> <s_lp_Force_Field>
OPLS_2005

> <r_lp_Energy>
30.992031

> <b_lp_Chiralities_Consistent>
1

> <s_lp_Variant>
CHEMBL3650_lig2700-1

> <s_i_glide_gridfile>
glide-grid_3c4f

> <i_i_glide_lignum>
3338

> <i_i_glide_rotatable_bonds>
0

> <r_i_docking_score>
-8.62305775714829

> <r_i_glide_ligand_efficiency>
-0.507238691596958

> <r_i_glide_ligand_efficiency_sa>
-1.30425350854109

> <r_i_glide_ligand_efficiency_ln>
-2.24956374278494

> <r_i_glide_gscore>
-8.62305775714829

> <r_i_glide_lipo>
-2.97217521735142

> <r_i_glide_hbond>
-0.281047464399085

> <r_i_glide_metal>
0

> <r_i_glide_rewards>
-3.61075902845412

> <r_i_glide_evdw>
-16.160737991333

> <r_i_glide_ecoul>
-6.34026098251343

> <r_i_glide_erotb>
0

> <r_i_glide_esite>
0

> <r_i_glide_emodel>
-26.5882765914674

> <r_i_glide_energy>
-22.5009989738464

> <r_i_glide_einternal>
0

> <i_i_glide_confnum>
2

> <i_i_glide_posenum>
242

> <r_i_glide_eff_state_penalty>
0

> <s_user_duplicate_titles>
CHEMBL3650_lig2700

> <s_m_subgroup_title>
dock_pv

> <s_m_subgroupid>
dock_pv

> <b_m_subgroup_collapsed>
1

$$$$
CHEMBL3650_lig488
                    3D
 Schrodinger Suite 2021-1.
 36 39  0  0  1  0            999 V2000
    6.3132    4.5770   17.8590 C   0  0  0  0  0  0
    5.6692    3.3518   17.7163 C   0  0  0  0  0  0
    5.6752    2.4266   18.7615 C   0  0  0  0  0  0
    6.9888    4.8734   19.0401 C   0  0  0  0  0  0
    7.0370    3.9402   20.0880 C   0  0  0  0  0  0
    6.3688    2.7206   19.9338 C   0  0  0  0  0  0
    6.3709    1.8048   20.9846 N   0  0  0  0  0  0
    7.0348    1.9389   22.1494 C   0  0  0  0  0  0
    7.9330    3.0877   22.2640 C   0  0  0  0  0  0
    7.8361    4.0799   21.3383 C   0  0  0  0  0  0
    6.7707    1.1718   23.0560 O   0  0  0  0  0  0
    8.8840    3.1221   23.4192 C   0  0  0  0  0  0
    8.7872    2.3371   24.5487 N   0  0  0  0  0  0
    9.9620    3.8774   23.4825 N   0  0  0  0  0  0
   10.5881    3.5527   24.6599 C   0  0  0  0  0  0
    9.8529    2.5839   25.3726 C   0  0  0  0  0  0
   10.2663    2.0702   26.6042 C   0  0  0  0  0  0
   11.4735    2.5635   27.1048 C   0  0  0  0  0  0
   12.2281    3.5225   26.4203 C   0  0  0  0  0  0
   11.7955    4.0310   25.1903 C   0  0  0  0  0  0
    8.5001    5.2537   21.4545 N   0  0  0  0  0  0
   13.5484    3.9881   27.0070 C   0  0  0  0  0  0
    6.3066    5.2876   17.0439 H   0  0  0  0  0  0
    5.1751    3.1279   16.7840 H   0  0  0  0  0  0
    5.1641    1.4805   18.6533 H   0  0  0  0  0  0
    7.4987    5.8212   19.1126 H   0  0  0  0  0  0
    5.7816    0.9906   20.9272 H   0  0  0  0  0  0
    8.0612    1.6369   24.6486 H   0  0  0  0  0  0
    9.7021    1.3152   27.1339 H   0  0  0  0  0  0
   11.8383    2.1794   28.0470 H   0  0  0  0  0  0
   12.3886    4.7570   24.6538 H   0  0  0  0  0  0
    9.1414    5.3877   22.2247 H   0  0  0  0  0  0
    8.3689    6.0052   20.7998 H   0  0  0  0  0  0
   14.1002    3.1428   27.4172 H   0  0  0  0  0  0
   13.3801    4.7058   27.8101 H   0  0  0  0  0  0
   14.1929    4.4415   26.2537 H   0  0  0  0  0  0
  1  2  2  0  0  0
  1  4  1  0  0  0
  1 23  1  0  0  0
  2  3  1  0  0  0
  2 24  1  0  0  0
  3  6  2  0  0  0
  3 25  1  0  0  0
  4  5  2  0  0  0
  4 26  1  0  0  0
  5  6  1  0  0  0
  5 10  1  0  0  0
  6  7  1  0  0  0
  7  8  1  0  0  0
  7 27  1  0  0  0
  8 11  2  0  0  0
  8  9  1  0  0  0
  9 12  1  0  0  0
  9 10  2  0  0  0
 10 21  1  0  0  0
 12 13  1  0  0  0
 12 14  2  0  0  0
 13 16  1  0  0  0
 13 28  1  0  0  0
 14 15  1  0  0  0
 15 16  2  0  0  0
 15 20  1  0  0  0
 16 17  1  0  0  0
 17 18  2  0  0  0
 17 29  1  0  0  0
 18 19  1  0  0  0
 18 30  1  0  0  0
 19 20  2  0  0  0
 19 22  1  0  0  0
 20 31  1  0  0  0
 21 32  1  0  0  0
 21 33  1  0  0  0
 22 34  1  0  0  0
 22 35  1  0  0  0
 22 36  1  0  0  0
M  END
> <s_m_entry_id>
49446

> <s_m_entry_name>
dock_pv.36

> <s_m_Source_Path>
/home/csk/Desktop/cluster/DUD-E-result/fgfr1

> <s_m_Source_File>
dock_pv.maegz

> <i_m_Source_File_Index>
36

> <chembl_id>
CHEMBL498205

> <chembl_pref_name>
None

> <i_lp_mmshare_version>
53161

> <i_f3d_flags>
0

> <r_lp_tautomer_probability>
1

> <s_lp_Force_Field>
OPLS_2005

> <r_lp_Energy>
33.773571

> <b_lp_Chiralities_Consistent>
1

> <s_lp_Variant>
CHEMBL3650_lig488-1

> <s_i_glide_gridfile>
glide-grid_3c4f

> <i_i_glide_lignum>
545

> <i_i_glide_rotatable_bonds>
1

> <r_i_docking_score>
-8.61615718848395

> <r_i_glide_ligand_efficiency>
-0.391643508567452

> <r_i_glide_ligand_efficiency_sa>
-1.09740051347117

> <r_i_glide_ligand_efficiency_ln>
-2.10610309883511

> <r_i_glide_gscore>
-8.61615718848395

> <r_i_glide_lipo>
-3.05004310243383

> <r_i_glide_hbond>
-0.442193497362791

> <r_i_glide_metal>
0

> <r_i_glide_rewards>
-2.65036917179387

> <r_i_glide_evdw>
-29.3253440856934

> <r_i_glide_ecoul>
-7.98220825195312

> <r_i_glide_erotb>
0.2162072507549

> <r_i_glide_esite>
-0.0261602255707206

> <r_i_glide_emodel>
-51.3335165180569

> <r_i_glide_energy>
-37.3075523376465

> <r_i_glide_einternal>
0.428708493709564

> <i_i_glide_confnum>
3

> <i_i_glide_posenum>
251

> <r_i_glide_eff_state_penalty>
0

> <s_user_duplicate_titles>
CHEMBL3650_lig488,494671

> <s_m_subgroup_title>
dock_pv

> <s_m_subgroupid>
dock_pv

> <b_m_subgroup_collapsed>
1

$$$$
CHEMBL3650_lig1676
                    3D
 Schrodinger Suite 2021-1.
 37 40  0  0  1  0            999 V2000
    5.5699    2.9288   11.4361 C   0  0  0  0  0  0
    5.5030    3.3088   12.8976 C   0  0  0  0  0  0
    6.1968    2.7371   13.8529 N   0  0  0  0  0  0
    5.8907    3.4561   14.9799 C   0  0  0  0  0  0
    6.4016    3.3377   16.2811 C   0  0  0  0  0  0
    5.9063    4.2047   17.2639 C   0  0  0  0  0  0
    4.9039    5.1372   16.9716 C   0  0  0  0  0  0
    4.3630    5.2542   15.6893 C   0  0  0  0  0  0
    4.9052    4.4350   14.7023 C   0  0  0  0  0  0
    4.7060    4.3326   13.3476 N   0  0  0  0  0  0
    6.4051    4.1138   18.5771 N   0  0  0  0  0  0
    7.1122    5.1335   19.0856 N   0  0  0  0  0  0
    7.4284    4.7551   20.3011 C   0  0  0  0  0  0
    6.9812    3.4614   20.6079 C   0  0  0  0  0  0
    7.1811    2.7076   21.8466 C   0  0  0  0  0  0
    6.3574    1.8727   22.2205 O   0  0  0  0  0  0
    8.3799    2.9512   22.6450 C   0  0  0  0  0  0
    8.6496    2.7370   23.9818 C   0  0  0  0  0  0
    9.9714    3.1143   24.2366 C   0  0  0  0  0  0
   10.8546    3.0553   25.9212 Br  0  0  0  0  0  0
   10.5239    3.4793   23.0158 C   0  0  0  0  0  0
   12.3117    3.9396   22.5536 Br  0  0  0  0  0  0
    9.5371    3.4091   22.0657 N   0  0  0  0  0  0
    6.2771    3.0706   19.4727 C   0  0  0  0  0  0
    5.5708    1.9388   19.1758 N   0  0  0  0  0  0
    6.2018    2.0565   11.2639 H   0  0  0  0  0  0
    4.5957    2.6941   11.0174 H   0  0  0  0  0  0
    5.9709    3.7451   10.8364 H   0  0  0  0  0  0
    7.1699    2.6141   16.5079 H   0  0  0  0  0  0
    4.5202    5.7696   17.7603 H   0  0  0  0  0  0
    3.5649    5.9377   15.4622 H   0  0  0  0  0  0
    4.1614    4.9310   12.7383 H   0  0  0  0  0  0
    7.9725    5.4179   20.9585 H   0  0  0  0  0  0
    7.9564    2.3318   24.7001 H   0  0  0  0  0  0
    9.6553    3.5947   21.0802 H   0  0  0  0  0  0
    5.4325    1.2009   19.8540 H   0  0  0  0  0  0
    5.1019    1.8193   18.2901 H   0  0  0  0  0  0
  1  2  1  0  0  0
  1 26  1  0  0  0
  1 27  1  0  0  0
  1 28  1  0  0  0
  2  3  2  0  0  0
  2 10  1  0  0  0
  3  4  1  0  0  0
  4  5  2  0  0  0
  4  9  1  0  0  0
  5  6  1  0  0  0
  5 29  1  0  0  0
  6  7  2  0  0  0
  6 11  1  0  0  0
  7  8  1  0  0  0
  7 30  1  0  0  0
  8  9  2  0  0  0
  8 31  1  0  0  0
  9 10  1  0  0  0
 10 32  1  0  0  0
 11 12  1  0  0  0
 11 24  1  0  0  0
 12 13  2  0  0  0
 13 14  1  0  0  0
 13 33  1  0  0  0
 14 15  1  0  0  0
 14 24  2  0  0  0
 15 16  2  0  0  0
 15 17  1  0  0  0
 17 18  2  0  0  0
 17 23  1  0  0  0
 18 19  1  0  0  0
 18 34  1  0  0  0
 19 20  1  0  0  0
 19 21  2  0  0  0
 21 22  1  0  0  0
 21 23  1  0  0  0
 23 35  1  0  0  0
 24 25  1  0  0  0
 25 36  1  0  0  0
 25 37  1  0  0  0
M  END
> <s_m_entry_id>
49447

> <s_m_entry_name>
dock_pv.37

> <s_m_Source_Path>
/home/csk/Desktop/cluster/DUD-E-result/fgfr1

> <s_m_Source_File>
dock_pv.maegz

> <i_m_Source_File_Index>
37

> <chembl_id>
CHEMBL3681318

> <chembl_pref_name>
None

> <i_lp_mmshare_version>
53161

> <i_f3d_flags>
0

> <r_lp_tautomer_probability>
1

> <s_lp_Force_Field>
OPLS_2005

> <r_lp_Energy>
17.499549

> <b_lp_Chiralities_Consistent>
1

> <s_lp_Variant>
CHEMBL3650_lig1676-1

> <s_i_glide_gridfile>
glide-grid_3c4f

> <i_i_glide_lignum>
2053

> <i_i_glide_rotatable_bonds>
3

> <r_i_docking_score>
-8.60591791366498

> <r_i_glide_ligand_efficiency>
-0.344236716546599

> <r_i_glide_ligand_efficiency_sa>
-1.00655426424642

> <r_i_glide_ligand_efficiency_ln>
-2.03986044408734

> <r_i_glide_gscore>
-8.60591791366498

> <r_i_glide_lipo>
-2.80336556120483

> <r_i_glide_hbond>
-0.547100836488025

> <r_i_glide_metal>
0

> <r_i_glide_rewards>
-1.81305775322739

> <r_i_glide_evdw>
-55.3098793029785

> <r_i_glide_ecoul>
-5.90674781799316

> <r_i_glide_erotb>
0.280734414860405

> <r_i_glide_esite>
-0.0716220397572381

> <r_i_glide_emodel>
-87.9861407111578

> <r_i_glide_energy>
-61.2166271209717

> <r_i_glide_einternal>
7.09965372085571

> <i_i_glide_confnum>
12

> <i_i_glide_posenum>
69

> <r_i_glide_eff_state_penalty>
0

> <s_user_duplicate_titles>
CHEMBL3650_lig1676

> <s_m_subgroup_title>
dock_pv

> <s_m_subgroupid>
dock_pv

> <b_m_subgroup_collapsed>
1

$$$$
CHEMBL3650_lig180
                    3D
 Schrodinger Suite 2021-1.
 43 45  0  0  1  0            999 V2000
    6.3587    2.0226   20.8415 N   0  0  0  0  0  0
    6.0077    2.4073   19.5904 C   0  0  0  0  0  0
   10.4140    2.4484   26.7992 C   0  0  0  0  0  0
    9.9709    3.2490   25.5605 C   0  0  0  0  0  0
    6.4721    3.5661   18.9472 C   0  0  0  0  0  0
    6.0778    3.9022   17.5504 C   0  0  0  0  0  0
    9.2697    2.5830   24.6088 N   0  0  0  0  0  0
    7.2756    2.7714   21.5021 C   0  0  0  0  0  0
    8.7616    3.0836   23.3991 C   0  0  0  0  0  0
    7.3540    4.3781   19.6554 C   0  0  0  0  0  0
    7.7646    2.3368   22.7623 C   0  0  0  0  0  0
    7.7982    3.9670   20.9346 C   0  0  0  0  0  0
    9.2669    4.2207   22.8573 N   0  0  0  0  0  0
    5.1368    4.8998   17.2934 C   0  0  0  0  0  0
    6.5321    3.1220   16.4810 C   0  0  0  0  0  0
    8.7710    4.6429   21.6787 C   0  0  0  0  0  0
   10.2101    4.4594   25.5164 O   0  0  0  0  0  0
    5.0525    4.2516   14.9681 C   0  0  0  0  0  0
    5.9956    3.2538   15.1976 C   0  0  0  0  0  0
    4.5970    5.0498   16.0158 C   0  0  0  0  0  0
    5.1710    1.5370   18.9231 N   0  0  0  0  0  0
   10.2968    1.1375   26.5888 F   0  0  0  0  0  0
    9.6451    2.7886   27.8351 F   0  0  0  0  0  0
   11.6839    2.7327   27.0927 F   0  0  0  0  0  0
    3.5720    5.9370   15.8524 O   0  0  0  0  0  0
    6.3710    2.3370   14.2397 O   0  0  0  0  0  0
    2.4839    5.5477   15.0217 C   0  0  0  0  0  0
    5.6676    2.2840   13.0003 C   0  0  0  0  0  0
    9.0377    1.6152   24.7930 H   0  0  0  0  0  0
    7.7540    5.2760   19.2074 H   0  0  0  0  0  0
    7.3817    1.4244   23.1924 H   0  0  0  0  0  0
    4.7465    5.4979   18.1034 H   0  0  0  0  0  0
    7.2426    2.3298   16.6640 H   0  0  0  0  0  0
    9.2045    5.5367   21.2835 H   0  0  0  0  0  0
    4.6518    4.3910   13.9786 H   0  0  0  0  0  0
    4.8652    1.7824   17.9942 H   0  0  0  0  0  0
    4.7483    0.7489   19.4192 H   0  0  0  0  0  0
    1.7485    6.3370   14.9362 H   0  0  0  0  0  0
    2.7569    5.2706   14.0043 H   0  0  0  0  0  0
    1.9709    4.7370   15.5114 H   0  0  0  0  0  0
    6.0462    1.4527   12.4055 H   0  0  0  0  0  0
    4.5995    2.1181   13.1513 H   0  0  0  0  0  0
    5.8106    3.1962   12.4188 H   0  0  0  0  0  0
  1  2  2  0  0  0
  1  8  1  0  0  0
  2  5  1  0  0  0
  2 21  1  0  0  0
  3  4  1  0  0  0
  3 22  1  0  0  0
  3 23  1  0  0  0
  3 24  1  0  0  0
  4  7  1  0  0  0
  4 17  2  0  0  0
  5  6  1  0  0  0
  5 10  2  0  0  0
  6 14  1  0  0  0
  6 15  2  0  0  0
  7  9  1  0  0  0
  7 29  1  0  0  0
  8 11  2  0  0  0
  8 12  1  0  0  0
  9 11  1  0  0  0
  9 13  2  0  0  0
 10 12  1  0  0  0
 10 30  1  0  0  0
 11 31  1  0  0  0
 12 16  2  0  0  0
 13 16  1  0  0  0
 14 20  2  0  0  0
 14 32  1  0  0  0
 15 19  1  0  0  0
 15 33  1  0  0  0
 16 34  1  0  0  0
 18 19  2  0  0  0
 18 20  1  0  0  0
 18 35  1  0  0  0
 19 26  1  0  0  0
 20 25  1  0  0  0
 21 36  1  0  0  0
 21 37  1  0  0  0
 25 27  1  0  0  0
 26 28  1  0  0  0
 27 38  1  0  0  0
 27 39  1  0  0  0
 27 40  1  0  0  0
 28 41  1  0  0  0
 28 42  1  0  0  0
 28 43  1  0  0  0
M  END
> <s_m_entry_id>
49448

> <s_m_entry_name>
dock_pv.38

> <s_m_Source_Path>
/home/csk/Desktop/cluster/DUD-E-result/fgfr1

> <s_m_Source_File>
dock_pv.maegz

> <i_m_Source_File_Index>
38

> <chembl_id>
CHEMBL134334

> <chembl_pref_name>
None

> <i_lp_mmshare_version>
53161

> <i_f3d_flags>
0

> <r_lp_tautomer_probability>
1

> <s_lp_Force_Field>
OPLS_2005

> <r_lp_Energy>
24.413997

> <b_lp_Chiralities_Consistent>
1

> <s_lp_Variant>
CHEMBL3650_lig180-1

> <s_i_glide_gridfile>
glide-grid_3c4f

> <i_i_glide_lignum>
202

> <i_i_glide_rotatable_bonds>
6

> <r_i_docking_score>
-8.60490838953973

> <r_i_glide_ligand_efficiency>
-0.307318156769276

> <r_i_glide_ligand_efficiency_sa>
-0.933198924666203

> <r_i_glide_ligand_efficiency_ln>
-1.98626550739446

> <r_i_glide_gscore>
-8.60490838953973

> <r_i_glide_lipo>
-3.41804272694563

> <r_i_glide_hbond>
-0.944953578658093

> <r_i_glide_metal>
0

> <r_i_glide_rewards>
-1.08391585046301

> <r_i_glide_evdw>
-39.9116554260254

> <r_i_glide_ecoul>
-10.0228281021118

> <r_i_glide_erotb>
0.380518453890588

> <r_i_glide_esite>
-0.0395077007455401

> <r_i_glide_emodel>
-60.4529662108074

> <r_i_glide_energy>
-49.9344835281372

> <r_i_glide_einternal>
12.4299306869507

> <i_i_glide_confnum>
2

> <i_i_glide_posenum>
230

> <r_i_glide_eff_state_penalty>
0

> <s_user_duplicate_titles>
CHEMBL3650_lig180,221991

> <s_m_subgroup_title>
dock_pv

> <s_m_subgroupid>
dock_pv

> <b_m_subgroup_collapsed>
1

$$$$
CHEMBL3650_lig229
                    3D
 Schrodinger Suite 2021-1.
 38 40  0  0  1  0            999 V2000
    6.8968    4.7962   19.2926 N   0  0  0  0  0  0
    6.4150    4.6954   18.0349 C   0  0  0  0  0  0
    5.9071    3.5364   17.4506 C   0  0  0  0  0  0
    5.4826    3.5370   16.0083 C   0  0  0  0  0  0
    6.7919    3.7202   20.1045 C   0  0  0  0  0  0
    5.7379    2.4434   18.3113 C   0  0  0  0  0  0
    6.1523    2.5280   19.6666 C   0  0  0  0  0  0
    7.3466    3.7731   21.4077 C   0  0  0  0  0  0
    6.5529    1.5372   21.8625 N   0  0  0  0  0  0
    7.2352    2.6473   22.2219 C   0  0  0  0  0  0
    6.0884    2.7371   15.0322 C   0  0  0  0  0  0
    4.4483    4.3910   15.6048 C   0  0  0  0  0  0
    6.0237    1.4940   20.6175 C   0  0  0  0  0  0
    4.5931    3.6122   13.3547 C   0  0  0  0  0  0
    3.9710    4.4095   14.2952 C   0  0  0  0  0  0
    5.6466    2.7642   13.7049 C   0  0  0  0  0  0
    6.3702    5.8698   17.3247 N   0  0  0  0  0  0
    7.8836    2.6120   23.4493 N   0  0  0  0  0  0
    2.8908    5.1375   13.8532 O   0  0  0  0  0  0
    6.2674    1.9368   12.7989 O   0  0  0  0  0  0
    2.0594    5.8089   14.7727 C   0  0  0  0  0  0
    5.9389    2.0650   11.4177 C   0  0  0  0  0  0
    5.2681    1.5369   17.9859 H   0  0  0  0  0  0
    7.8762    4.6571   21.7295 H   0  0  0  0  0  0
    6.8975    2.0785   15.3078 H   0  0  0  0  0  0
    3.9766    4.9920   16.3655 H   0  0  0  0  0  0
    5.5710    0.5592   20.3303 H   0  0  0  0  0  0
    4.2098    3.6518   12.3475 H   0  0  0  0  0  0
    6.1798    5.8240   16.3329 H   0  0  0  0  0  0
    6.7768    6.6880   17.7460 H   0  0  0  0  0  0
    8.5024    3.3684   23.6939 H   0  0  0  0  0  0
    7.9694    1.7099   23.9026 H   0  0  0  0  0  0
    1.4159    6.5140   14.2474 H   0  0  0  0  0  0
    1.4332    5.1370   15.3498 H   0  0  0  0  0  0
    2.6825    6.3561   15.4532 H   0  0  0  0  0  0
    6.6801    1.5370   10.8285 H   0  0  0  0  0  0
    5.9700    3.1008   11.0750 H   0  0  0  0  0  0
    4.9585    1.6398   11.1998 H   0  0  0  0  0  0
  1  2  2  0  0  0
  1  5  1  0  0  0
  2  3  1  0  0  0
  2 17  1  0  0  0
  3  4  1  0  0  0
  3  6  2  0  0  0
  4 11  2  0  0  0
  4 12  1  0  0  0
  5  7  1  0  0  0
  5  8  2  0  0  0
  6  7  1  0  0  0
  6 23  1  0  0  0
  7 13  2  0  0  0
  8 10  1  0  0  0
  8 24  1  0  0  0
  9 10  2  0  0  0
  9 13  1  0  0  0
 10 18  1  0  0  0
 11 16  1  0  0  0
 11 25  1  0  0  0
 12 15  2  0  0  0
 12 26  1  0  0  0
 13 27  1  0  0  0
 14 15  1  0  0  0
 14 16  2  0  0  0
 14 28  1  0  0  0
 15 19  1  0  0  0
 16 20  1  0  0  0
 17 29  1  0  0  0
 17 30  1  0  0  0
 18 31  1  0  0  0
 18 32  1  0  0  0
 19 21  1  0  0  0
 20 22  1  0  0  0
 21 33  1  0  0  0
 21 34  1  0  0  0
 21 35  1  0  0  0
 22 36  1  0  0  0
 22 37  1  0  0  0
 22 38  1  0  0  0
M  END
> <s_m_entry_id>
49449

> <s_m_entry_name>
dock_pv.39

> <s_m_Source_Path>
/home/csk/Desktop/cluster/DUD-E-result/fgfr1

> <s_m_Source_File>
dock_pv.maegz

> <i_m_Source_File_Index>
39

> <chembl_id>
CHEMBL133604

> <chembl_pref_name>
None

> <i_lp_mmshare_version>
53161

> <i_f3d_flags>
0

> <r_lp_tautomer_probability>
1

> <s_lp_Force_Field>
OPLS_2005

> <r_lp_Energy>
18.757975

> <b_lp_Chiralities_Consistent>
1

> <s_lp_Variant>
CHEMBL3650_lig229-1

> <s_i_glide_gridfile>
glide-grid_3c4f

> <i_i_glide_lignum>
252

> <i_i_glide_rotatable_bonds>
3

> <r_i_docking_score>
-8.60235070245228

> <r_i_glide_ligand_efficiency>
-0.391015941020558

> <r_i_glide_ligand_efficiency_sa>
-1.09564204452394

> <r_i_glide_ligand_efficiency_ln>
-2.10272829004516

> <r_i_glide_gscore>
-8.60235070245228

> <r_i_glide_lipo>
-3.34720028381328

> <r_i_glide_hbond>
-0.687265613722788

> <r_i_glide_metal>
0

> <r_i_glide_rewards>
-2.93364742393136

> <r_i_glide_evdw>
-22.2620983123779

> <r_i_glide_ecoul>
-4.44776153564453

> <r_i_glide_erotb>
0.146031764980723

> <r_i_glide_esite>
0

> <r_i_glide_emodel>
-26.3178027329332

> <r_i_glide_energy>
-26.7098598480225

> <r_i_glide_einternal>
4.34740591049194

> <i_i_glide_confnum>
3

> <i_i_glide_posenum>
94

> <r_i_glide_eff_state_penalty>
0

> <s_user_duplicate_titles>
CHEMBL3650_lig229,221500

> <s_m_subgroup_title>
dock_pv

> <s_m_subgroupid>
dock_pv

> <b_m_subgroup_collapsed>
1

$$$$
CHEMBL3650_lig1641
                    3D
 Schrodinger Suite 2021-1.
 37 40  0  0  1  0            999 V2000
    5.5707    2.9119   11.5172 C   0  0  0  0  0  0
    5.5104    3.3029   12.9750 C   0  0  0  0  0  0
    6.2147    2.7365   13.9238 N   0  0  0  0  0  0
    5.9132    3.4554   15.0532 C   0  0  0  0  0  0
    6.4238    3.3304   16.3542 C   0  0  0  0  0  0
    5.9479    4.2046   17.3383 C   0  0  0  0  0  0
    4.9461    5.1399   17.0524 C   0  0  0  0  0  0
    4.3945    5.2575   15.7731 C   0  0  0  0  0  0
    4.9271    4.4348   14.7811 C   0  0  0  0  0  0
    4.7135    4.3261   13.4279 N   0  0  0  0  0  0
    6.4512    4.1065   18.6502 N   0  0  0  0  0  0
    7.1693    5.1202   19.1681 N   0  0  0  0  0  0
    7.4655    4.7321   20.3855 C   0  0  0  0  0  0
    7.0064    3.4345   20.6800 C   0  0  0  0  0  0
    7.1886    2.6619   21.9110 C   0  0  0  0  0  0
    6.3709    1.7980   22.2413 O   0  0  0  0  0  0
    8.3670    2.9413   22.7388 C   0  0  0  0  0  0
    9.5439    3.6632   22.5559 C   0  0  0  0  0  0
   10.3069    3.5370   23.7228 C   0  0  0  0  0  0
    9.5951    2.7367   24.6022 C   0  0  0  0  0  0
    8.4362    2.3523   23.9769 N   0  0  0  0  0  0
    6.3032    3.0592   19.5394 C   0  0  0  0  0  0
    5.5739    1.9373   19.2355 N   0  0  0  0  0  0
    6.2013    2.0398   11.3469 H   0  0  0  0  0  0
    4.5933    2.6728   11.1106 H   0  0  0  0  0  0
    5.9668    3.7225   10.9064 H   0  0  0  0  0  0
    7.1724    2.5881   16.5830 H   0  0  0  0  0  0
    4.5671    5.7726   17.8427 H   0  0  0  0  0  0
    3.5910    5.9373   15.5534 H   0  0  0  0  0  0
    4.1588    4.9174   12.8223 H   0  0  0  0  0  0
    8.0091    5.3886   21.0487 H   0  0  0  0  0  0
    9.8363    4.2089   21.6727 H   0  0  0  0  0  0
   11.2849    3.9609   23.9001 H   0  0  0  0  0  0
    9.8256    2.3673   25.5911 H   0  0  0  0  0  0
    7.7532    1.7076   24.3506 H   0  0  0  0  0  0
    5.4270    1.1990   19.9120 H   0  0  0  0  0  0
    5.1117    1.8249   18.3453 H   0  0  0  0  0  0
  1  2  1  0  0  0
  1 24  1  0  0  0
  1 25  1  0  0  0
  1 26  1  0  0  0
  2  3  2  0  0  0
  2 10  1  0  0  0
  3  4  1  0  0  0
  4  5  2  0  0  0
  4  9  1  0  0  0
  5  6  1  0  0  0
  5 27  1  0  0  0
  6  7  2  0  0  0
  6 11  1  0  0  0
  7  8  1  0  0  0
  7 28  1  0  0  0
  8  9  2  0  0  0
  8 29  1  0  0  0
  9 10  1  0  0  0
 10 30  1  0  0  0
 11 12  1  0  0  0
 11 22  1  0  0  0
 12 13  2  0  0  0
 13 14  1  0  0  0
 13 31  1  0  0  0
 14 15  1  0  0  0
 14 22  2  0  0  0
 15 16  2  0  0  0
 15 17  1  0  0  0
 17 18  2  0  0  0
 17 21  1  0  0  0
 18 19  1  0  0  0
 18 32  1  0  0  0
 19 20  2  0  0  0
 19 33  1  0  0  0
 20 21  1  0  0  0
 20 34  1  0  0  0
 21 35  1  0  0  0
 22 23  1  0  0  0
 23 36  1  0  0  0
 23 37  1  0  0  0
M  END
> <s_m_entry_id>
49450

> <s_m_entry_name>
dock_pv.40

> <s_m_Source_Path>
/home/csk/Desktop/cluster/DUD-E-result/fgfr1

> <s_m_Source_File>
dock_pv.maegz

> <i_m_Source_File_Index>
40

> <chembl_id>
CHEMBL3681276

> <chembl_pref_name>
None

> <i_lp_mmshare_version>
53161

> <i_f3d_flags>
0

> <r_lp_tautomer_probability>
1

> <s_lp_Force_Field>
OPLS_2005

> <r_lp_Energy>
15.644244

> <b_lp_Chiralities_Consistent>
1

> <s_lp_Variant>
CHEMBL3650_lig1641-1

> <s_i_glide_gridfile>
glide-grid_3c4f

> <i_i_glide_lignum>
2015

> <i_i_glide_rotatable_bonds>
3

> <r_i_docking_score>
-8.56977236867169

> <r_i_glide_ligand_efficiency>
-0.3725987986379

> <r_i_glide_ligand_efficiency_sa>
-1.05962141907121

> <r_i_glide_ligand_efficiency_ln>
-2.07224866514443

> <r_i_glide_gscore>
-8.56977236867169

> <r_i_glide_lipo>
-2.63376058050348

> <r_i_glide_hbond>
-0.624942749692637

> <r_i_glide_metal>
0

> <r_i_glide_rewards>
-2.25987611951833

> <r_i_glide_evdw>
-50.5568084716797

> <r_i_glide_ecoul>
-6.97522163391113

> <r_i_glide_erotb>
0.590525848282498

> <r_i_glide_esite>
-0.0675950985690873

> <r_i_glide_emodel>
-85.1961147844415

> <r_i_glide_energy>
-57.5320301055908

> <r_i_glide_einternal>
2.75285220146179

> <i_i_glide_confnum>
11

> <i_i_glide_posenum>
72

> <r_i_glide_eff_state_penalty>
0

> <s_user_duplicate_titles>
CHEMBL3650_lig1641

> <s_m_subgroup_title>
dock_pv

> <s_m_subgroupid>
dock_pv

> <b_m_subgroup_collapsed>
1

$$$$
CHEMBL3650_lig2578
                    3D
 Schrodinger Suite 2021-1.
 27 29  0  0  1  0            999 V2000
    9.9715    3.9380   23.7515 O   0  0  0  0  0  0
    7.1714    1.8983   22.6517 N   0  0  0  0  0  0
    5.1168    4.9117   15.0129 N   0  0  0  0  0  0
    7.5526    3.6355   20.9796 C   0  0  0  0  0  0
    6.8970    2.4549   21.4440 C   0  0  0  0  0  0
    6.2419    3.5274   18.9156 C   0  0  0  0  0  0
    7.1759    4.1827   19.7249 C   0  0  0  0  0  0
    5.8906    4.0442   17.5749 C   0  0  0  0  0  0
    8.5882    4.1735   21.7891 C   0  0  0  0  0  0
    5.9709    1.8064   20.6053 C   0  0  0  0  0  0
    5.6621    2.3377   19.3584 C   0  0  0  0  0  0
    8.9153    3.5334   22.9853 C   0  0  0  0  0  0
    8.1667    2.4372   23.3900 C   0  0  0  0  0  0
    5.0262    5.1349   17.4185 C   0  0  0  0  0  0
    6.3785    3.4112   16.4248 C   0  0  0  0  0  0
    4.6617    5.5268   16.1302 C   0  0  0  0  0  0
    5.9716    3.8720   15.1716 C   0  0  0  0  0  0
   10.5161    4.5976   23.3198 H   0  0  0  0  0  0
    7.6619    5.0798   19.3708 H   0  0  0  0  0  0
    9.1339    5.0412   21.4500 H   0  0  0  0  0  0
    5.5095    0.8844   20.9254 H   0  0  0  0  0  0
    4.9577    1.8142   18.7282 H   0  0  0  0  0  0
    8.3907    1.9373   24.3205 H   0  0  0  0  0  0
    4.6121    5.6492   18.2692 H   0  0  0  0  0  0
    7.0564    2.5737   16.5015 H   0  0  0  0  0  0
    3.9705    6.3368   15.9737 H   0  0  0  0  0  0
    6.3434    3.4190   14.2649 H   0  0  0  0  0  0
  1 12  1  0  0  0
  1 18  1  0  0  0
  2  5  2  0  0  0
  2 13  1  0  0  0
  3 16  2  0  0  0
  3 17  1  0  0  0
  4  5  1  0  0  0
  4  7  1  0  0  0
  4  9  2  0  0  0
  5 10  1  0  0  0
  6  7  2  0  0  0
  6  8  1  0  0  0
  6 11  1  0  0  0
  7 19  1  0  0  0
  8 14  2  0  0  0
  8 15  1  0  0  0
  9 12  1  0  0  0
  9 20  1  0  0  0
 10 11  2  0  0  0
 10 21  1  0  0  0
 11 22  1  0  0  0
 12 13  2  0  0  0
 13 23  1  0  0  0
 14 16  1  0  0  0
 14 24  1  0  0  0
 15 17  2  0  0  0
 15 25  1  0  0  0
 16 26  1  0  0  0
 17 27  1  0  0  0
M  END
> <s_m_entry_id>
49451

> <s_m_entry_name>
dock_pv.41

> <s_m_Source_Path>
/home/csk/Desktop/cluster/DUD-E-result/fgfr1

> <s_m_Source_File>
dock_pv.maegz

> <i_m_Source_File_Index>
41

> <chembl_id>
CHEMBL1973868

> <chembl_pref_name>
None

> <i_lp_mmshare_version>
53161

> <i_f3d_flags>
0

> <r_lp_tautomer_probability>
1

> <s_lp_Force_Field>
OPLS_2005

> <r_lp_Energy>
14.981447

> <b_lp_Chiralities_Consistent>
1

> <s_lp_Variant>
CHEMBL3650_lig2578-1

> <s_i_glide_gridfile>
glide-grid_3c4f

> <i_i_glide_lignum>
3163

> <i_i_glide_rotatable_bonds>
2

> <r_i_docking_score>
-8.56441970173263

> <r_i_glide_ligand_efficiency>
-0.503789394219567

> <r_i_glide_ligand_efficiency_sa>
-1.29538439370227

> <r_i_glide_ligand_efficiency_ln>
-2.23426637993229

> <r_i_glide_gscore>
-8.56441970173263

> <r_i_glide_lipo>
-3.63402415762534

> <r_i_glide_hbond>
-0.0251517184884617

> <r_i_glide_metal>
0

> <r_i_glide_rewards>
-3.53547121212121

> <r_i_glide_evdw>
-36.2343559265137

> <r_i_glide_ecoul>
0.66560971736908

> <r_i_glide_erotb>
0.342103725222698

> <r_i_glide_esite>
0

> <r_i_glide_emodel>
-51.3623541574164

> <r_i_glide_energy>
-35.5687462091446

> <r_i_glide_einternal>
3.35611438751221

> <i_i_glide_confnum>
3

> <i_i_glide_posenum>
145

> <r_i_glide_eff_state_penalty>
0

> <s_user_duplicate_titles>
CHEMBL3650_lig2578

> <s_m_subgroup_title>
dock_pv

> <s_m_subgroupid>
dock_pv

> <b_m_subgroup_collapsed>
1

$$$$
CHEMBL3650_lig1691
                    3D
 Schrodinger Suite 2021-1.
 39 42  0  0  1  0            999 V2000
    5.5710    2.7267   11.3744 C   0  0  0  0  0  0
    5.5315    3.1728   12.8173 C   0  0  0  0  0  0
    6.0891    2.5375   13.8188 N   0  0  0  0  0  0
    5.9118    3.3645   14.8999 C   0  0  0  0  0  0
    6.3708    3.2262   16.2187 C   0  0  0  0  0  0
    6.0377    4.2230   17.1474 C   0  0  0  0  0  0
    5.2627    5.3257   16.7676 C   0  0  0  0  0  0
    4.7930    5.4876   15.4626 C   0  0  0  0  0  0
    5.1447    4.4986   14.5436 C   0  0  0  0  0  0
    4.9173    4.3370   13.1996 N   0  0  0  0  0  0
    6.4709    4.1021   18.4871 N   0  0  0  0  0  0
    7.1696    5.0980   19.0558 N   0  0  0  0  0  0
    7.4279    4.6845   20.2728 C   0  0  0  0  0  0
    6.9438    3.3909   20.5327 C   0  0  0  0  0  0
    7.0771    2.5758   21.7460 C   0  0  0  0  0  0
    6.2022    1.7457   22.0094 O   0  0  0  0  0  0
    8.2282    2.7941   22.6810 C   0  0  0  0  0  0
    9.4405    3.3701   22.2693 C   0  0  0  0  0  0
   10.4922    3.5375   23.1696 C   0  0  0  0  0  0
   10.3482    3.1378   24.4966 C   0  0  0  0  0  0
    9.1721    2.5152   24.9070 C   0  0  0  0  0  0
    9.0125    1.9389   26.5270 Cl  0  0  0  0  0  0
    8.1250    2.3391   24.0020 C   0  0  0  0  0  0
    6.2818    3.0479   19.3592 C   0  0  0  0  0  0
    5.5710    1.9339   19.0172 N   0  0  0  0  0  0
    6.1897    1.8400   11.2374 H   0  0  0  0  0  0
    4.5893    2.4861   10.9815 H   0  0  0  0  0  0
    5.9710    3.5084   10.7291 H   0  0  0  0  0  0
    6.9717    2.3758   16.5046 H   0  0  0  0  0  0
    5.0091    6.0757   17.5021 H   0  0  0  0  0  0
    4.1979    6.3370   15.1723 H   0  0  0  0  0  0
    4.4782    4.9901   12.5587 H   0  0  0  0  0  0
    7.9729    5.3156   20.9599 H   0  0  0  0  0  0
    9.5981    3.6704   21.2445 H   0  0  0  0  0  0
   11.4218    3.9766   22.8383 H   0  0  0  0  0  0
   11.1637    3.2693   25.1932 H   0  0  0  0  0  0
    7.2253    1.8482   24.3465 H   0  0  0  0  0  0
    5.3875    1.1937   19.6840 H   0  0  0  0  0  0
    5.1194    1.8470   18.1188 H   0  0  0  0  0  0
  1  2  1  0  0  0
  1 26  1  0  0  0
  1 27  1  0  0  0
  1 28  1  0  0  0
  2  3  2  0  0  0
  2 10  1  0  0  0
  3  4  1  0  0  0
  4  5  2  0  0  0
  4  9  1  0  0  0
  5  6  1  0  0  0
  5 29  1  0  0  0
  6  7  2  0  0  0
  6 11  1  0  0  0
  7  8  1  0  0  0
  7 30  1  0  0  0
  8  9  2  0  0  0
  8 31  1  0  0  0
  9 10  1  0  0  0
 10 32  1  0  0  0
 11 12  1  0  0  0
 11 24  1  0  0  0
 12 13  2  0  0  0
 13 14  1  0  0  0
 13 33  1  0  0  0
 14 15  1  0  0  0
 14 24  2  0  0  0
 15 16  2  0  0  0
 15 17  1  0  0  0
 17 18  2  0  0  0
 17 23  1  0  0  0
 18 19  1  0  0  0
 18 34  1  0  0  0
 19 20  2  0  0  0
 19 35  1  0  0  0
 20 21  1  0  0  0
 20 36  1  0  0  0
 21 22  1  0  0  0
 21 23  2  0  0  0
 23 37  1  0  0  0
 24 25  1  0  0  0
 25 38  1  0  0  0
 25 39  1  0  0  0
M  END
> <s_m_entry_id>
49452

> <s_m_entry_name>
dock_pv.42

> <s_m_Source_Path>
/home/csk/Desktop/cluster/DUD-E-result/fgfr1

> <s_m_Source_File>
dock_pv.maegz

> <i_m_Source_File_Index>
42

> <chembl_id>
CHEMBL3681312

> <chembl_pref_name>
None

> <i_lp_mmshare_version>
53161

> <i_f3d_flags>
0

> <r_lp_tautomer_probability>
1

> <s_lp_Force_Field>
OPLS_2005

> <r_lp_Energy>
20.530894

> <b_lp_Chiralities_Consistent>
1

> <s_lp_Variant>
CHEMBL3650_lig1691-1

> <s_i_glide_gridfile>
glide-grid_3c4f

> <i_i_glide_lignum>
2073

> <i_i_glide_rotatable_bonds>
3

> <r_i_docking_score>
-8.54788739977452

> <r_i_glide_ligand_efficiency>
-0.341915495990981

> <r_i_glide_ligand_efficiency_sa>
-0.99976697417477

> <r_i_glide_ligand_efficiency_ln>
-2.02610547326113

> <r_i_glide_gscore>
-8.54788739977452

> <r_i_glide_lipo>
-2.75769460987476

> <r_i_glide_hbond>
-0.610622497490081

> <r_i_glide_metal>
0

> <r_i_glide_rewards>
-2.33460597070918

> <r_i_glide_evdw>
-49.1461296081543

> <r_i_glide_ecoul>
-5.12656402587891

> <r_i_glide_erotb>
0.462454106704029

> <r_i_glide_esite>
-0.0811273441149792

> <r_i_glide_emodel>
-81.8312230072299

> <r_i_glide_energy>
-54.2726936340332

> <r_i_glide_einternal>
1.54228341579437

> <i_i_glide_confnum>
8

> <i_i_glide_posenum>
105

> <r_i_glide_eff_state_penalty>
0

> <s_user_duplicate_titles>
CHEMBL3650_lig1691

> <s_m_subgroup_title>
dock_pv

> <s_m_subgroupid>
dock_pv

> <b_m_subgroup_collapsed>
1

$$$$
CHEMBL3650_lig2905
                    3D
 Schrodinger Suite 2021-1.
 30 32  0  0  1  0            999 V2000
    5.9709    1.9649   13.8521 O   0  0  0  0  0  0
    6.1174    1.6406   20.7534 N   0  0  0  0  0  0
    7.5713    2.0015   22.6727 N   0  0  0  0  0  0
    6.3402    3.3500   19.0058 C   0  0  0  0  0  0
    7.6376    3.5497   21.0347 C   0  0  0  0  0  0
    7.0224    2.3370   21.4526 C   0  0  0  0  0  0
    5.8842    3.9141   17.7077 C   0  0  0  0  0  0
    7.2561    4.0666   19.7878 C   0  0  0  0  0  0
    5.8168    2.1588   19.5278 C   0  0  0  0  0  0
    6.0546    3.2837   16.4659 C   0  0  0  0  0  0
    8.5509    3.9351   22.0693 C   0  0  0  0  0  0
    5.5652    3.8660   15.2759 C   0  0  0  0  0  0
    5.2514    5.1490   17.7269 C   0  0  0  0  0  0
    8.4847    2.9586   23.0453 C   0  0  0  0  0  0
    4.9615    5.1296   15.3450 C   0  0  0  0  0  0
    4.8175    5.7644   16.5702 C   0  0  0  0  0  0
    5.6448    3.1438   13.9654 C   0  0  0  0  0  0
    5.3501    3.9257   12.6845 C   0  0  0  0  0  0
    7.4040    1.1773   23.2320 H   0  0  0  0  0  0
    7.6820    4.9908   19.4248 H   0  0  0  0  0  0
    5.0877    1.5953   18.9620 H   0  0  0  0  0  0
    6.5692    2.3370   16.4344 H   0  0  0  0  0  0
    9.1915    4.8043   22.0923 H   0  0  0  0  0  0
    5.0909    5.6548   18.6530 H   0  0  0  0  0  0
    9.0224    2.8513   23.9778 H   0  0  0  0  0  0
    4.5903    5.6353   14.4639 H   0  0  0  0  0  0
    4.3709    6.7369   16.6530 H   0  0  0  0  0  0
    5.9689    4.8227   12.6442 H   0  0  0  0  0  0
    4.3073    4.2396   12.6585 H   0  0  0  0  0  0
    5.5594    3.3245   11.8006 H   0  0  0  0  0  0
  1 17  2  0  0  0
  2  6  2  0  0  0
  2  9  1  0  0  0
  3  6  1  0  0  0
  3 14  1  0  0  0
  3 19  1  0  0  0
  4  7  1  0  0  0
  4  8  1  0  0  0
  4  9  2  0  0  0
  5  6  1  0  0  0
  5  8  2  0  0  0
  5 11  1  0  0  0
  7 10  2  0  0  0
  7 13  1  0  0  0
  8 20  1  0  0  0
  9 21  1  0  0  0
 10 12  1  0  0  0
 10 22  1  0  0  0
 11 14  2  0  0  0
 11 23  1  0  0  0
 12 15  2  0  0  0
 12 17  1  0  0  0
 13 16  2  0  0  0
 13 24  1  0  0  0
 14 25  1  0  0  0
 15 16  1  0  0  0
 15 26  1  0  0  0
 16 27  1  0  0  0
 17 18  1  0  0  0
 18 28  1  0  0  0
 18 29  1  0  0  0
 18 30  1  0  0  0
M  END
> <s_m_entry_id>
49453

> <s_m_entry_name>
dock_pv.43

> <s_m_Source_Path>
/home/csk/Desktop/cluster/DUD-E-result/fgfr1

> <s_m_Source_File>
dock_pv.maegz

> <i_m_Source_File_Index>
43

> <chembl_id>
CHEMBL2000568

> <chembl_pref_name>
None

> <i_lp_mmshare_version>
53161

> <i_f3d_flags>
0

> <r_lp_tautomer_probability>
0.999948432606831

> <s_lp_Force_Field>
OPLS_2005

> <r_lp_Energy>
16.517045

> <b_lp_Chiralities_Consistent>
1

> <s_lp_Variant>
CHEMBL3650_lig2905-1

> <s_i_glide_gridfile>
glide-grid_3c4f

> <i_i_glide_lignum>
3659

> <i_i_glide_rotatable_bonds>
2

> <r_i_docking_score>
-8.5395314575925

> <r_i_glide_ligand_efficiency>
-0.474418414310695

> <r_i_glide_ligand_efficiency_sa>
-1.24332797536109

> <r_i_glide_ligand_efficiency_ln>
-2.19504252781501

> <r_i_glide_gscore>
-8.5395314575925

> <r_i_glide_lipo>
-2.70946397852552

> <r_i_glide_hbond>
-0.264957569332797

> <r_i_glide_metal>
0

> <r_i_glide_rewards>
-3.83444061270494

> <r_i_glide_evdw>
-35.6614379882812

> <r_i_glide_ecoul>
-1.7064573764801

> <r_i_glide_erotb>
0.308371208856827

> <r_i_glide_esite>
0

> <r_i_glide_emodel>
-56.6153021394852

> <r_i_glide_energy>
-37.3678953647614

> <r_i_glide_einternal>
2.19201445579529

> <i_i_glide_confnum>
2

> <i_i_glide_posenum>
306

> <r_i_glide_eff_state_penalty>
0

> <s_user_duplicate_titles>
CHEMBL3650_lig2905

> <s_m_subgroup_title>
dock_pv

> <s_m_subgroupid>
dock_pv

> <b_m_subgroup_collapsed>
1

$$$$
CHEMBL3650_lig2632
                    3D
 Schrodinger Suite 2021-1.
 35 37  0  0  1  0            999 V2000
    7.1708    1.9369   23.3996 O   0  0  0  0  0  0
    6.6461    2.9125   16.1969 N   0  0  0  0  0  0
    4.2968    4.7740   14.3637 N   0  0  0  0  0  0
    6.0505    2.5693   13.8522 N   0  0  0  0  0  0
    6.1547    3.6996   17.2136 C   0  0  0  0  0  0
    5.2598    4.6288   16.6962 C   0  0  0  0  0  0
    5.0976    4.2801   15.3159 C   0  0  0  0  0  0
    5.9696    3.1926   15.0334 C   0  0  0  0  0  0
    6.5456    3.4899   18.6258 C   0  0  0  0  0  0
    4.5763    5.7320   17.4557 C   0  0  0  0  0  0
    7.4680    4.3373   19.2335 C   0  0  0  0  0  0
    5.9710    2.4453   19.3494 C   0  0  0  0  0  0
    7.3228    3.0440   21.2743 C   0  0  0  0  0  0
    4.3732    4.1670   13.1494 C   0  0  0  0  0  0
    5.2264    3.0881   12.9024 C   0  0  0  0  0  0
    7.8548    4.1217   20.5538 C   0  0  0  0  0  0
    6.3674    2.2207   20.6652 C   0  0  0  0  0  0
    7.7463    2.7474   22.6760 C   0  0  0  0  0  0
    3.2111    5.3377   18.0248 C   0  0  0  0  0  0
    8.9860    3.4538   23.2193 C   0  0  0  0  0  0
    7.3318    2.1899   16.3529 H   0  0  0  0  0  0
    5.2378    5.9371   18.2825 H   0  0  0  0  0  0
    4.5103    6.6478   16.8733 H   0  0  0  0  0  0
    7.9009    5.1469   18.6674 H   0  0  0  0  0  0
    5.2378    1.7955   18.8898 H   0  0  0  0  0  0
    3.7477    4.5776   12.3677 H   0  0  0  0  0  0
    5.2545    2.6231   11.9279 H   0  0  0  0  0  0
    8.5834    4.7893   20.9898 H   0  0  0  0  0  0
    5.9268    1.3888   21.1966 H   0  0  0  0  0  0
    2.7818    6.1180   18.6529 H   0  0  0  0  0  0
    2.4964    5.1369   17.2267 H   0  0  0  0  0  0
    3.3112    4.4529   18.6530 H   0  0  0  0  0  0
    9.8216    3.3246   22.5320 H   0  0  0  0  0  0
    9.2741    3.0432   24.1875 H   0  0  0  0  0  0
    8.7886    4.5191   23.3225 H   0  0  0  0  0  0
  1 18  2  0  0  0
  2  5  1  0  0  0
  2  8  1  0  0  0
  2 21  1  0  0  0
  3  7  2  0  0  0
  3 14  1  0  0  0
  4  8  2  0  0  0
  4 15  1  0  0  0
  5  6  2  0  0  0
  5  9  1  0  0  0
  6  7  1  0  0  0
  6 10  1  0  0  0
  7  8  1  0  0  0
  9 11  2  0  0  0
  9 12  1  0  0  0
 10 19  1  0  0  0
 10 22  1  0  0  0
 10 23  1  0  0  0
 11 16  1  0  0  0
 11 24  1  0  0  0
 12 17  2  0  0  0
 12 25  1  0  0  0
 13 16  2  0  0  0
 13 17  1  0  0  0
 13 18  1  0  0  0
 14 15  2  0  0  0
 14 26  1  0  0  0
 15 27  1  0  0  0
 16 28  1  0  0  0
 17 29  1  0  0  0
 18 20  1  0  0  0
 19 30  1  0  0  0
 19 31  1  0  0  0
 19 32  1  0  0  0
 20 33  1  0  0  0
 20 34  1  0  0  0
 20 35  1  0  0  0
M  END
> <s_m_entry_id>
49454

> <s_m_entry_name>
dock_pv.44

> <s_m_Source_Path>
/home/csk/Desktop/cluster/DUD-E-result/fgfr1

> <s_m_Source_File>
dock_pv.maegz

> <i_m_Source_File_Index>
44

> <chembl_id>
CHEMBL1994555

> <chembl_pref_name>
None

> <i_lp_mmshare_version>
53161

> <i_f3d_flags>
0

> <r_lp_tautomer_probability>
0.999949572948536

> <s_lp_Force_Field>
OPLS_2005

> <r_lp_Energy>
21.778676

> <b_lp_Chiralities_Consistent>
1

> <s_lp_Variant>
CHEMBL3650_lig2632-1

> <s_i_glide_gridfile>
glide-grid_3c4f

> <i_i_glide_lignum>
3244

> <i_i_glide_rotatable_bonds>
3

> <r_i_docking_score>
-8.52455659755192

> <r_i_glide_ligand_efficiency>
-0.426227829877596

> <r_i_glide_ligand_efficiency_sa>
-1.15696032894745

> <r_i_glide_ligand_efficiency_ln>
-2.13341535767355

> <r_i_glide_gscore>
-8.52455659755192

> <r_i_glide_lipo>
-3.08196558156869

> <r_i_glide_hbond>
-0.24154314693491

> <r_i_glide_metal>
0

> <r_i_glide_rewards>
-3.49090359267447

> <r_i_glide_evdw>
-37.141658782959

> <r_i_glide_ecoul>
-0.430432915687561

> <r_i_glide_erotb>
0.252785098576972

> <r_i_glide_esite>
-0.0412814984497358

> <r_i_glide_emodel>
-51.9322323097665

> <r_i_glide_energy>
-37.5720916986465

> <r_i_glide_einternal>
3.41071343421936

> <i_i_glide_confnum>
3

> <i_i_glide_posenum>
47

> <r_i_glide_eff_state_penalty>
0

> <s_user_duplicate_titles>
CHEMBL3650_lig2632

> <s_m_subgroup_title>
dock_pv

> <s_m_subgroupid>
dock_pv

> <b_m_subgroup_collapsed>
1

$$$$
CHEMBL3650_lig209
                    3D
 Schrodinger Suite 2021-1.
 30 32  0  0  1  0            999 V2000
    6.0577    3.7844   18.7919 C   0  0  0  0  0  0
    5.8251    2.5162   19.3533 C   0  0  0  0  0  0
    6.2768    2.0858   20.5487 N   0  0  0  0  0  0
    5.5432    4.2080   17.4339 C   0  0  0  0  0  0
    7.1560    2.8658   21.2069 C   0  0  0  0  0  0
    6.9201    4.6203   19.5125 C   0  0  0  0  0  0
    7.5199    4.1498   20.7148 C   0  0  0  0  0  0
    7.7727    2.3564   22.3742 C   0  0  0  0  0  0
    9.1389    4.3370   22.5379 N   0  0  0  0  0  0
    8.7603    3.1203   22.9853 C   0  0  0  0  0  0
    4.4702    5.1094   17.2570 C   0  0  0  0  0  0
    6.0958    3.6627   16.2616 C   0  0  0  0  0  0
    8.4958    4.8396   21.4532 C   0  0  0  0  0  0
    5.1710    1.5370   18.6530 N   0  0  0  0  0  0
    9.4019    2.6289   24.1123 N   0  0  0  0  0  0
    3.4270    5.5370   18.5528 Cl  0  0  0  0  0  0
    7.1710    2.3370   16.3328 Cl  0  0  0  0  0  0
    4.7430    5.0706   14.8508 C   0  0  0  0  0  0
    5.7271    4.1063   14.9937 C   0  0  0  0  0  0
    4.0914    5.5370   15.9823 C   0  0  0  0  0  0
    7.1941    5.5908   19.1237 H   0  0  0  0  0  0
    7.5090    1.3776   22.7450 H   0  0  0  0  0  0
    8.7710    5.8342   21.1489 H   0  0  0  0  0  0
    4.7762    1.7733   17.7569 H   0  0  0  0  0  0
    4.8841    0.6865   19.1361 H   0  0  0  0  0  0
    9.1710    1.6958   24.4321 H   0  0  0  0  0  0
   10.1491    3.1649   24.5254 H   0  0  0  0  0  0
    4.4531    5.4140   13.8665 H   0  0  0  0  0  0
    6.2004    3.6960   14.1136 H   0  0  0  0  0  0
    3.2570    6.2050   15.8530 H   0  0  0  0  0  0
  1  2  1  0  0  0
  1  4  1  0  0  0
  1  6  2  0  0  0
  2  3  2  0  0  0
  2 14  1  0  0  0
  3  5  1  0  0  0
  4 11  2  0  0  0
  4 12  1  0  0  0
  5  7  1  0  0  0
  5  8  2  0  0  0
  6  7  1  0  0  0
  6 21  1  0  0  0
  7 13  2  0  0  0
  8 10  1  0  0  0
  8 22  1  0  0  0
  9 13  1  0  0  0
  9 10  2  0  0  0
 10 15  1  0  0  0
 11 16  1  0  0  0
 11 20  1  0  0  0
 12 17  1  0  0  0
 12 19  2  0  0  0
 13 23  1  0  0  0
 14 24  1  0  0  0
 14 25  1  0  0  0
 15 26  1  0  0  0
 15 27  1  0  0  0
 18 19  1  0  0  0
 18 20  2  0  0  0
 18 28  1  0  0  0
 19 29  1  0  0  0
 20 30  1  0  0  0
M  END
> <s_m_entry_id>
49455

> <s_m_entry_name>
dock_pv.45

> <s_m_Source_Path>
/home/csk/Desktop/cluster/DUD-E-result/fgfr1

> <s_m_Source_File>
dock_pv.maegz

> <i_m_Source_File_Index>
45

> <chembl_id>
CHEMBL132089

> <chembl_pref_name>
None

> <i_lp_mmshare_version>
53161

> <i_f3d_flags>
0

> <r_lp_tautomer_probability>
1

> <s_lp_Force_Field>
OPLS_2005

> <r_lp_Energy>
7.156726

> <b_lp_Chiralities_Consistent>
1

> <s_lp_Variant>
CHEMBL3650_lig209-1

> <s_i_glide_gridfile>
glide-grid_3c4f

> <i_i_glide_lignum>
231

> <i_i_glide_rotatable_bonds>
1

> <r_i_docking_score>
-8.5224818838681

> <r_i_glide_ligand_efficiency>
-0.426124094193405

> <r_i_glide_ligand_efficiency_sa>
-1.15667874697909

> <r_i_glide_ligand_efficiency_ln>
-2.13289612526712

> <r_i_glide_gscore>
-8.5224818838681

> <r_i_glide_lipo>
-3.6452355477185

> <r_i_glide_hbond>
-0.568821668935704

> <r_i_glide_metal>
0

> <r_i_glide_rewards>
-2.13677833333333

> <r_i_glide_evdw>
-27.318187713623

> <r_i_glide_ecoul>
-6.55741930007935

> <r_i_glide_erotb>
0.198156545532088

> <r_i_glide_esite>
-0.0202805987196028

> <r_i_glide_emodel>
-38.652630663714

> <r_i_glide_energy>
-33.8756070137024

> <r_i_glide_einternal>
0.137974411249161

> <i_i_glide_confnum>
4

> <i_i_glide_posenum>
211

> <r_i_glide_eff_state_penalty>
0

> <s_user_duplicate_titles>
CHEMBL3650_lig209

> <s_m_subgroup_title>
dock_pv

> <s_m_subgroupid>
dock_pv

> <b_m_subgroup_collapsed>
1

$$$$
CHEMBL3650_lig3118
                    3D
 Schrodinger Suite 2021-1.
 38 41  0  0  1  0            999 V2000
    4.8368    4.8790   14.7192 C   0  0  0  0  0  0
    4.7451    3.7584   13.6183 C   0  0  0  0  0  0
    4.7566    4.3353   12.1787 C   0  0  0  0  0  0
    5.1397    3.4064   11.0050 C   0  0  0  0  0  0
    5.9710    2.3247   11.3752 O   0  0  0  0  0  0
    5.5345    1.5822   12.5038 C   0  0  0  0  0  0
    5.6057    2.4806   13.7430 C   0  0  0  0  0  0
    5.5722    4.5210   15.9355 N   0  0  0  0  0  0
    5.1710    4.4857   17.2510 C   0  0  0  0  0  0
    6.2932    4.0387   17.9458 C   0  0  0  0  0  0
    7.3096    3.9373   17.1140 N   0  0  0  0  0  0
    6.8686    4.2452   15.8530 N   0  0  0  0  0  0
    6.4919    3.6364   19.3560 C   0  0  0  0  0  0
    5.8223    2.5232   19.8560 C   0  0  0  0  0  0
    6.1152    1.9926   21.1130 C   0  0  0  0  0  0
    7.1537    2.5891   21.8344 C   0  0  0  0  0  0
    7.7533    2.2944   23.0449 N   0  0  0  0  0  0
    8.7677    3.1309   23.3232 N   0  0  0  0  0  0
    8.8398    3.9753   22.3297 C   0  0  0  0  0  0
    7.8435    3.7211   21.3464 C   0  0  0  0  0  0
    7.4690    4.2773   20.1173 C   0  0  0  0  0  0
    5.3289    5.7676   14.3172 H   0  0  0  0  0  0
    3.8372    5.2035   15.0086 H   0  0  0  0  0  0
    3.7377    3.3444   13.6994 H   0  0  0  0  0  0
    5.5699    5.0663   12.1665 H   0  0  0  0  0  0
    3.8229    4.8533   11.9703 H   0  0  0  0  0  0
    5.6706    3.9854   10.2477 H   0  0  0  0  0  0
    4.2736    3.0255   10.4788 H   0  0  0  0  0  0
    6.2064    0.7373   12.6404 H   0  0  0  0  0  0
    4.5349    1.1713   12.3544 H   0  0  0  0  0  0
    5.3681    1.9372   14.6529 H   0  0  0  0  0  0
    6.6508    2.7697   13.8430 H   0  0  0  0  0  0
    4.1656    4.7370   17.5514 H   0  0  0  0  0  0
    5.0851    2.0287   19.2391 H   0  0  0  0  0  0
    5.5825    1.1362   21.4684 H   0  0  0  0  0  0
    7.5677    1.5151   23.6622 H   0  0  0  0  0  0
    9.5990    4.7371   22.3084 H   0  0  0  0  0  0
    7.9710    5.1370   19.7154 H   0  0  0  0  0  0
  1  2  1  0  0  0
  1  8  1  0  0  0
  1 22  1  0  0  0
  1 23  1  0  0  0
  2  3  1  0  0  0
  2  7  1  0  0  0
  2 24  1  0  0  0
  3  4  1  0  0  0
  3 25  1  0  0  0
  3 26  1  0  0  0
  4  5  1  0  0  0
  4 27  1  0  0  0
  4 28  1  0  0  0
  5  6  1  0  0  0
  6  7  1  0  0  0
  6 29  1  0  0  0
  6 30  1  0  0  0
  7 31  1  0  0  0
  7 32  1  0  0  0
  8  9  1  0  0  0
  8 12  1  0  0  0
  9 10  2  0  0  0
  9 33  1  0  0  0
 10 11  1  0  0  0
 10 13  1  0  0  0
 11 12  2  0  0  0
 13 14  2  0  0  0
 13 21  1  0  0  0
 14 15  1  0  0  0
 14 34  1  0  0  0
 15 16  2  0  0  0
 15 35  1  0  0  0
 16 17  1  0  0  0
 16 20  1  0  0  0
 17 18  1  0  0  0
 17 36  1  0  0  0
 18 19  2  0  0  0
 19 20  1  0  0  0
 19 37  1  0  0  0
 20 21  2  0  0  0
 21 38  1  0  0  0
M  END
> <s_m_entry_id>
49456

> <s_m_entry_name>
dock_pv.46

> <s_m_Source_Path>
/home/csk/Desktop/cluster/DUD-E-result/fgfr1

> <s_m_Source_File>
dock_pv.maegz

> <i_m_Source_File_Index>
46

> <chembl_id>
CHEMBL1969843

> <chembl_pref_name>
None

> <i_lp_mmshare_version>
53161

> <i_f3d_flags>
0

> <r_lp_tautomer_probability>
0.980392156862745

> <s_lp_Force_Field>
OPLS_2005

> <r_lp_Energy>
13.624637

> <b_lp_Chiralities_Consistent>
1

> <s_lp_Variant>
CHEMBL3650_lig3118-1

> <s_i_glide_gridfile>
glide-grid_3c4f

> <i_i_glide_lignum>
3979

> <i_i_glide_rotatable_bonds>
3

> <r_i_docking_score>
-8.52182690935701

> <r_i_glide_ligand_efficiency>
-0.405801281397953

> <r_i_glide_ligand_efficiency_sa>
-1.11957496491906

> <r_i_glide_ligand_efficiency_ln>
-2.10700448336585

> <r_i_glide_gscore>
-8.52182690935701

> <r_i_glide_lipo>
-3.55730816653249

> <r_i_glide_hbond>
-0.257268423116973

> <r_i_glide_metal>
0

> <r_i_glide_rewards>
-2.9085736825496

> <r_i_glide_evdw>
-41.597541809082

> <r_i_glide_ecoul>
-1.993288397789

> <r_i_glide_erotb>
0.676746918433735

> <r_i_glide_esite>
-0.0965532054692341

> <r_i_glide_emodel>
-52.8004185503853

> <r_i_glide_energy>
-43.590830206871

> <r_i_glide_einternal>
13.9320850372314

> <i_i_glide_confnum>
10

> <i_i_glide_posenum>
135

> <r_i_glide_eff_state_penalty>
0

> <s_user_duplicate_titles>
CHEMBL3650_lig3118

> <s_m_subgroup_title>
dock_pv

> <s_m_subgroupid>
dock_pv

> <b_m_subgroup_collapsed>
1

$$$$
CHEMBL3650_lig2610
                    3D
 Schrodinger Suite 2021-1.
 28 31  0  0  1  0            999 V2000
    4.7151    5.5367   16.1405 N   0  0  0  0  0  0
    6.6041    1.5614   21.9841 N   0  0  0  0  0  0
    4.8058    4.7354   13.8523 N   0  0  0  0  0  0
    7.3703    1.9248   23.0289 N   0  0  0  0  0  0
    6.4079    3.9384   19.1282 C   0  0  0  0  0  0
    5.9102    4.1184   17.7421 C   0  0  0  0  0  0
    6.7191    2.6260   21.1334 C   0  0  0  0  0  0
    5.8090    3.4622   15.4229 C   0  0  0  0  0  0
    7.5447    3.6581   21.6776 C   0  0  0  0  0  0
    5.0705    4.6565   15.2041 C   0  0  0  0  0  0
    6.1563    2.7650   19.8511 C   0  0  0  0  0  0
    6.2489    3.2078   16.7344 C   0  0  0  0  0  0
    7.1710    4.9562   19.7034 C   0  0  0  0  0  0
    5.1394    5.2344   17.3954 C   0  0  0  0  0  0
    7.7465    4.8411   20.9644 C   0  0  0  0  0  0
    5.9021    2.7925   14.1579 C   0  0  0  0  0  0
    7.9831    3.1370   22.9181 C   0  0  0  0  0  0
    5.2840    3.6080   13.2269 C   0  0  0  0  0  0
    7.5297    1.2918   23.8038 H   0  0  0  0  0  0
    4.3705    5.4994   13.3451 H   0  0  0  0  0  0
    5.5571    1.9730   19.4244 H   0  0  0  0  0  0
    6.8474    2.3353   16.9548 H   0  0  0  0  0  0
    7.3561    5.8555   19.1382 H   0  0  0  0  0  0
    4.8459    5.9379   18.1605 H   0  0  0  0  0  0
    8.3577    5.6373   21.3662 H   0  0  0  0  0  0
    6.3685    1.8419   13.9479 H   0  0  0  0  0  0
    8.6321    3.4986   23.7013 H   0  0  0  0  0  0
    5.1537    3.4951   12.1588 H   0  0  0  0  0  0
  1 10  2  0  0  0
  1 14  1  0  0  0
  2  4  1  0  0  0
  2  7  2  0  0  0
  3 10  1  0  0  0
  3 18  1  0  0  0
  3 20  1  0  0  0
  4 19  1  0  0  0
  4 17  1  0  0  0
  5 11  2  0  0  0
  5  6  1  0  0  0
  5 13  1  0  0  0
  6 12  1  0  0  0
  6 14  2  0  0  0
  7 11  1  0  0  0
  7  9  1  0  0  0
  8 10  1  0  0  0
  8 12  2  0  0  0
  8 16  1  0  0  0
  9 15  1  0  0  0
  9 17  2  0  0  0
 11 21  1  0  0  0
 12 22  1  0  0  0
 13 23  1  0  0  0
 13 15  2  0  0  0
 14 24  1  0  0  0
 15 25  1  0  0  0
 16 18  2  0  0  0
 16 26  1  0  0  0
 17 27  1  0  0  0
 18 28  1  0  0  0
M  END
> <s_m_entry_id>
49457

> <s_m_entry_name>
dock_pv.47

> <s_m_Source_Path>
/home/csk/Desktop/cluster/DUD-E-result/fgfr1

> <s_m_Source_File>
dock_pv.maegz

> <i_m_Source_File_Index>
47

> <chembl_id>
CHEMBL1976134

> <chembl_pref_name>
None

> <i_lp_mmshare_version>
53161

> <i_f3d_flags>
0

> <r_lp_tautomer_probability>
0.0196078130051597

> <s_lp_Force_Field>
OPLS_2005

> <r_lp_Energy>
26.236096

> <b_lp_Chiralities_Consistent>
1

> <s_lp_Variant>
CHEMBL3650_lig2610-2

> <s_i_glide_gridfile>
glide-grid_3c4f

> <i_i_glide_lignum>
3215

> <i_i_glide_rotatable_bonds>
1

> <r_i_docking_score>
-8.50196700426007

> <r_i_glide_ligand_efficiency>
-0.47233150023667

> <r_i_glide_ligand_efficiency_sa>
-1.23785871326641

> <r_i_glide_ligand_efficiency_ln>
-2.18538677878377

> <r_i_glide_gscore>
-8.50196700426007

> <r_i_glide_lipo>
-2.97426757723963

> <r_i_glide_hbond>
-0.600784669102613

> <r_i_glide_metal>
0

> <r_i_glide_rewards>
-2.60689090909091

> <r_i_glide_evdw>
-36.8135185241699

> <r_i_glide_ecoul>
-3.82454228401184

> <r_i_glide_erotb>
0.219025252342347

> <r_i_glide_esite>
-0.124691832358988

> <r_i_glide_emodel>
-60.2224671417594

> <r_i_glide_energy>
-40.6380608081818

> <r_i_glide_einternal>
1.42081880569458

> <i_i_glide_confnum>
3

> <i_i_glide_posenum>
39

> <r_i_glide_eff_state_penalty>
0

> <s_user_duplicate_titles>
CHEMBL3650_lig2610,CHEMBL3650_lig2610

> <s_m_subgroup_title>
dock_pv

> <s_m_subgroupid>
dock_pv

> <b_m_subgroup_collapsed>
1

$$$$
CHEMBL3650_lig770
                    3D
 Schrodinger Suite 2021-1.
 42 46  0  0  1  0            999 V2000
    7.9686    2.3370   23.2170 C   0  0  0  0  0  0
    8.8690    3.9493   21.1041 C   0  0  0  0  0  0
    7.6765    3.2287   20.9350 C   0  0  0  0  0  0
    7.2532    2.3750   21.9993 C   0  0  0  0  0  0
    6.1865    1.5603   21.8603 N   0  0  0  0  0  0
    5.5710    1.6018   20.6630 C   0  0  0  0  0  0
    5.8033    2.4169   19.6199 N   0  0  0  0  0  0
    6.8767    3.2192   19.7403 C   0  0  0  0  0  0
    7.2312    3.9370   18.5813 N   0  0  0  0  0  0
    6.4141    4.3122   17.5077 C   0  0  0  0  0  0
    6.4295    3.7004   16.2452 C   0  0  0  0  0  0
    5.6118    4.2023   15.2111 C   0  0  0  0  0  0
    4.7807    5.2932   15.4604 C   0  0  0  0  0  0
    4.7832    5.8854   16.7093 C   0  0  0  0  0  0
    5.5958    5.4057   17.7145 C   0  0  0  0  0  0
    9.1749    3.0120   23.3228 C   0  0  0  0  0  0
    9.6517    3.7592   22.2427 C   0  0  0  0  0  0
   10.8996    4.3370   22.2530 O   0  0  0  0  0  0
   11.7628    3.9370   23.3232 C   0  0  0  0  0  0
   10.9723    3.7744   24.6451 C   0  0  0  0  0  0
    9.9120    2.8277   24.4754 O   0  0  0  0  0  0
    5.5710    3.6252   13.8439 C   0  0  0  0  0  0
    5.7951    2.3319   13.4271 C   0  0  0  0  0  0
    5.5710    2.2481   12.0506 C   0  0  0  0  0  0
    5.2375    3.5159   11.6130 C   0  0  0  0  0  0
    5.2478    4.3370   12.7078 N   0  0  0  0  0  0
    7.6186    1.7111   24.0248 H   0  0  0  0  0  0
    9.1710    4.5866   20.2989 H   0  0  0  0  0  0
    4.6079    1.1370   20.6530 H   0  0  0  0  0  0
    8.1032    4.4419   18.6324 H   0  0  0  0  0  0
    7.0831    2.8610   16.0642 H   0  0  0  0  0  0
    4.1400    5.6975   14.6897 H   0  0  0  0  0  0
    4.1822    6.7370   16.9075 H   0  0  0  0  0  0
    5.6164    5.9167   18.6530 H   0  0  0  0  0  0
   12.2369    2.9965   23.0490 H   0  0  0  0  0  0
   12.5614    4.6703   23.4423 H   0  0  0  0  0  0
   11.6307    3.4422   25.4483 H   0  0  0  0  0  0
   10.5523    4.7370   24.9375 H   0  0  0  0  0  0
    6.0713    1.5370   14.0925 H   0  0  0  0  0  0
    5.6376    1.3587   11.4458 H   0  0  0  0  0  0
    4.9828    3.9079   10.6394 H   0  0  0  0  0  0
    5.0422    5.3329   12.6762 H   0  0  0  0  0  0
  1 16  1  0  0  0
  1  4  2  0  0  0
  1 27  1  0  0  0
  2  3  2  0  0  0
  2 17  1  0  0  0
  2 28  1  0  0  0
  3  4  1  0  0  0
  3  8  1  0  0  0
  4  5  1  0  0  0
  5  6  2  0  0  0
  6  7  1  0  0  0
  6 29  1  0  0  0
  7  8  2  0  0  0
  8  9  1  0  0  0
  9 10  1  0  0  0
  9 30  1  0  0  0
 10 11  2  0  0  0
 10 15  1  0  0  0
 11 12  1  0  0  0
 11 31  1  0  0  0
 12 13  2  0  0  0
 12 22  1  0  0  0
 13 14  1  0  0  0
 13 32  1  0  0  0
 14 15  2  0  0  0
 14 33  1  0  0  0
 15 34  1  0  0  0
 16 17  2  0  0  0
 16 21  1  0  0  0
 17 18  1  0  0  0
 18 19  1  0  0  0
 19 20  1  0  0  0
 19 35  1  0  0  0
 19 36  1  0  0  0
 20 21  1  0  0  0
 20 37  1  0  0  0
 20 38  1  0  0  0
 22 23  2  0  0  0
 22 26  1  0  0  0
 23 24  1  0  0  0
 23 39  1  0  0  0
 24 25  2  0  0  0
 24 40  1  0  0  0
 25 26  1  0  0  0
 25 41  1  0  0  0
 26 42  1  0  0  0
M  END
> <s_m_entry_id>
49458

> <s_m_entry_name>
dock_pv.48

> <s_m_Source_Path>
/home/csk/Desktop/cluster/DUD-E-result/fgfr1

> <s_m_Source_File>
dock_pv.maegz

> <i_m_Source_File_Index>
48

> <chembl_id>
CHEMBL3297959

> <chembl_pref_name>
None

> <i_lp_mmshare_version>
53161

> <i_f3d_flags>
0

> <r_lp_tautomer_probability>
0.999978000241998

> <s_lp_Force_Field>
OPLS_2005

> <r_lp_Energy>
18.432626

> <b_lp_Chiralities_Consistent>
1

> <s_lp_Variant>
CHEMBL3650_lig770-1

> <s_i_glide_gridfile>
glide-grid_3c4f

> <i_i_glide_lignum>
938

> <i_i_glide_rotatable_bonds>
3

> <r_i_docking_score>
-8.49939833901436

> <r_i_glide_ligand_efficiency>
-0.326899936115937

> <r_i_glide_ligand_efficiency_sa>
-0.968439774454326

> <r_i_glide_ligand_efficiency_ln>
-1.99605581111686

> <r_i_glide_gscore>
-8.49939833901436

> <r_i_glide_lipo>
-3.13043339411593

> <r_i_glide_hbond>
-0.366884511475518

> <r_i_glide_metal>
0

> <r_i_glide_rewards>
-2.70463072464816

> <r_i_glide_evdw>
-33.595157623291

> <r_i_glide_ecoul>
-6.7330641746521

> <r_i_glide_erotb>
0.480313527513786

> <r_i_glide_esite>
-0.088045728926169

> <r_i_glide_emodel>
-46.863327344246

> <r_i_glide_energy>
-40.3282217979431

> <r_i_glide_einternal>
5.89334583282471

> <i_i_glide_confnum>
13

> <i_i_glide_posenum>
205

> <r_i_glide_eff_state_penalty>
0

> <s_user_duplicate_titles>
CHEMBL3650_lig770

> <s_m_subgroup_title>
dock_pv

> <s_m_subgroupid>
dock_pv

> <b_m_subgroup_collapsed>
1

$$$$
CHEMBL3650_lig2903
                    3D
 Schrodinger Suite 2021-1.
 36 38  0  0  1  0            999 V2000
    6.1431    2.7705   14.0389 O   0  0  0  0  0  0
    7.0881    1.7087   22.6528 N   0  0  0  0  0  0
    7.9712    2.6265   23.0601 N   0  0  0  0  0  0
    4.9300    5.5372   16.2007 N   0  0  0  0  0  0
    5.1819    3.5405   10.5764 N   0  0  0  0  0  0
    7.4071    3.3666   21.0521 C   0  0  0  0  0  0
    6.7717    2.1382   21.3999 C   0  0  0  0  0  0
    6.3339    3.2949   18.8848 C   0  0  0  0  0  0
    7.1582    3.9613   19.8008 C   0  0  0  0  0  0
    8.2255    3.6451   22.1752 C   0  0  0  0  0  0
    6.0456    3.8572   17.5443 C   0  0  0  0  0  0
    5.9709    1.4796   20.4703 C   0  0  0  0  0  0
    5.7650    2.0662   19.2271 C   0  0  0  0  0  0
    6.3558    3.1439   16.3779 C   0  0  0  0  0  0
    5.8887    3.5762   15.1326 C   0  0  0  0  0  0
    5.3565    5.0642   17.3960 C   0  0  0  0  0  0
    5.1820    4.7894   15.0982 C   0  0  0  0  0  0
    9.2115    4.7365   22.4608 C   0  0  0  0  0  0
    5.2269    2.7575   12.9400 C   0  0  0  0  0  0
    5.3874    3.9427   11.9612 C   0  0  0  0  0  0
    8.4195    2.5447   23.9615 H   0  0  0  0  0  0
    4.2564    3.1404   10.4936 H   0  0  0  0  0  0
    5.1669    4.3802   10.0132 H   0  0  0  0  0  0
    7.6293    4.8955   19.5316 H   0  0  0  0  0  0
    5.5708    0.5045   20.6902 H   0  0  0  0  0  0
    5.1488    1.5413   18.5115 H   0  0  0  0  0  0
    6.9010    2.2145   16.4421 H   0  0  0  0  0  0
    5.0788    5.6553   18.2532 H   0  0  0  0  0  0
    4.8129    5.2164   14.1822 H   0  0  0  0  0  0
    8.7672    5.7038   22.2440 H   0  0  0  0  0  0
    9.5362    4.7334   23.5011 H   0  0  0  0  0  0
   10.1048    4.6408   21.8455 H   0  0  0  0  0  0
    4.1956    2.6750   13.2871 H   0  0  0  0  0  0
    5.4279    1.8190   12.4197 H   0  0  0  0  0  0
    6.3699    4.3948   12.0831 H   0  0  0  0  0  0
    4.6735    4.7347   12.1872 H   0  0  0  0  0  0
  1 15  1  0  0  0
  1 19  1  0  0  0
  2  3  1  0  0  0
  2  7  2  0  0  0
  3 21  1  0  0  0
  3 10  1  0  0  0
  4 16  1  0  0  0
  4 17  2  0  0  0
  5 20  1  0  0  0
  5 22  1  0  0  0
  5 23  1  0  0  0
  6  9  1  0  0  0
  6  7  1  0  0  0
  6 10  2  0  0  0
  7 12  1  0  0  0
  8 13  1  0  0  0
  8 11  1  0  0  0
  8  9  2  0  0  0
  9 24  1  0  0  0
 10 18  1  0  0  0
 11 14  1  0  0  0
 11 16  2  0  0  0
 12 25  1  0  0  0
 12 13  2  0  0  0
 13 26  1  0  0  0
 14 15  2  0  0  0
 14 27  1  0  0  0
 15 17  1  0  0  0
 16 28  1  0  0  0
 17 29  1  0  0  0
 18 30  1  0  0  0
 18 31  1  0  0  0
 18 32  1  0  0  0
 19 20  1  0  0  0
 19 33  1  0  0  0
 19 34  1  0  0  0
 20 35  1  0  0  0
 20 36  1  0  0  0
M  END
> <s_m_entry_id>
49459

> <s_m_entry_name>
dock_pv.49

> <s_m_Source_Path>
/home/csk/Desktop/cluster/DUD-E-result/fgfr1

> <s_m_Source_File>
dock_pv.maegz

> <i_m_Source_File_Index>
49

> <chembl_id>
CHEMBL1967887

> <chembl_pref_name>
None

> <i_lp_mmshare_version>
53161

> <i_f3d_flags>
0

> <r_lp_tautomer_probability>
0.0196078431372549

> <s_lp_Force_Field>
OPLS_2005

> <r_lp_Energy>
34.252731

> <b_lp_Chiralities_Consistent>
1

> <s_lp_Variant>
CHEMBL3650_lig2903-2

> <s_i_glide_gridfile>
glide-grid_3c4f

> <i_i_glide_lignum>
3657

> <i_i_glide_rotatable_bonds>
4

> <r_i_docking_score>
-8.48751266254548

> <r_i_glide_ligand_efficiency>
-0.424375633127274

> <r_i_glide_ligand_efficiency_sa>
-1.151932693464

> <r_i_glide_ligand_efficiency_ln>
-2.12414448253218

> <r_i_glide_gscore>
-8.48751266254548

> <r_i_glide_lipo>
-3.0995293364725

> <r_i_glide_hbond>
-0.394145165506808

> <r_i_glide_metal>
0

> <r_i_glide_rewards>
-2.92101759284416

> <r_i_glide_evdw>
-41.4550514221191

> <r_i_glide_ecoul>
-4.95878124237061

> <r_i_glide_erotb>
0.743749189739538

> <r_i_glide_esite>
0

> <r_i_glide_emodel>
-62.7524676041931

> <r_i_glide_energy>
-46.4138326644897

> <r_i_glide_einternal>
11.3870573043823

> <i_i_glide_confnum>
16

> <i_i_glide_posenum>
226

> <r_i_glide_eff_state_penalty>
0

> <s_user_duplicate_titles>
CHEMBL3650_lig2903,CHEMBL3650_lig2903

> <s_m_subgroup_title>
dock_pv

> <s_m_subgroupid>
dock_pv

> <b_m_subgroup_collapsed>
1

$$$$
CHEMBL3650_lig305
                    3D
 Schrodinger Suite 2021-1.
 26 28  0  0  1  0            999 V2000
    6.2943    3.1903   19.8646 N   0  0  0  0  0  0
    5.6132    2.0470   20.2348 C   0  0  0  0  0  0
    5.9715    1.5462   21.3909 N   0  0  0  0  0  0
    7.2164    3.4096   20.8703 C   0  0  0  0  0  0
    6.9746    2.3756   21.8116 C   0  0  0  0  0  0
    6.1446    3.8959   18.6566 C   0  0  0  0  0  0
    7.2658    4.1691   17.8715 C   0  0  0  0  0  0
    4.8847    4.3375   18.2483 C   0  0  0  0  0  0
    5.8609    5.1650   16.2004 C   0  0  0  0  0  0
    4.7524    5.0004   17.0258 C   0  0  0  0  0  0
    7.1122    4.7387   16.6176 C   0  0  0  0  0  0
    5.7352    5.7583   14.9761 O   0  0  0  0  0  0
    8.2131    4.3697   21.0640 C   0  0  0  0  0  0
    7.7432    2.3089   22.9804 C   0  0  0  0  0  0
    9.0007    4.2345   22.2082 C   0  0  0  0  0  0
    8.7713    3.2345   23.1509 C   0  0  0  0  0  0
    4.8569    1.6378   19.5787 H   0  0  0  0  0  0
    8.2660    3.9371   18.1978 H   0  0  0  0  0  0
    4.0100    4.1699   18.8577 H   0  0  0  0  0  0
    3.7822    5.3429   16.6964 H   0  0  0  0  0  0
    7.9704    4.8891   15.9802 H   0  0  0  0  0  0
    6.5414    5.6891   14.4444 H   0  0  0  0  0  0
    8.3712    5.1663   20.3531 H   0  0  0  0  0  0
    7.5711    1.5372   23.7151 H   0  0  0  0  0  0
    9.8064    4.9304   22.3720 H   0  0  0  0  0  0
    9.3983    3.1762   24.0294 H   0  0  0  0  0  0
  1  2  1  0  0  0
  1  4  1  0  0  0
  1  6  1  0  0  0
  2  3  2  0  0  0
  2 17  1  0  0  0
  3  5  1  0  0  0
  4  5  1  0  0  0
  4 13  2  0  0  0
  5 14  2  0  0  0
  6  7  2  0  0  0
  6  8  1  0  0  0
  7 11  1  0  0  0
  7 18  1  0  0  0
  8 10  2  0  0  0
  8 19  1  0  0  0
  9 10  1  0  0  0
  9 12  1  0  0  0
  9 11  2  0  0  0
 10 20  1  0  0  0
 11 21  1  0  0  0
 12 22  1  0  0  0
 13 15  1  0  0  0
 13 23  1  0  0  0
 14 16  1  0  0  0
 14 24  1  0  0  0
 15 16  2  0  0  0
 15 25  1  0  0  0
 16 26  1  0  0  0
M  END
> <s_m_entry_id>
49460

> <s_m_entry_name>
dock_pv.50

> <s_m_Source_Path>
/home/csk/Desktop/cluster/DUD-E-result/fgfr1

> <s_m_Source_File>
dock_pv.maegz

> <i_m_Source_File_Index>
50

> <chembl_id>
CHEMBL348242

> <chembl_pref_name>
None

> <i_lp_mmshare_version>
53161

> <i_f3d_flags>
0

> <r_lp_tautomer_probability>
1

> <s_lp_Force_Field>
OPLS_2005

> <r_lp_Energy>
12.833221

> <b_lp_Chiralities_Consistent>
1

> <s_lp_Variant>
CHEMBL3650_lig305-1

> <s_i_glide_gridfile>
glide-grid_3c4f

> <i_i_glide_lignum>
329

> <i_i_glide_rotatable_bonds>
2

> <r_i_docking_score>
-8.48730005283166

> <r_i_glide_ligand_efficiency>
-0.530456253301979

> <r_i_glide_ligand_efficiency_sa>
-1.33666599793172

> <r_i_glide_ligand_efficiency_ln>
-2.24972841667002

> <r_i_glide_gscore>
-8.48730005283166

> <r_i_glide_lipo>
-2.67957494086572

> <r_i_glide_hbond>
-0.170873635411686

> <r_i_glide_metal>
0

> <r_i_glide_rewards>
-3.68563790660403

> <r_i_glide_evdw>
-28.5977668762207

> <r_i_glide_ecoul>
-5.97983312606812

> <r_i_glide_erotb>
0.375649742771025

> <r_i_glide_esite>
0

> <r_i_glide_emodel>
-51.2803797044777

> <r_i_glide_energy>
-34.5776000022888

> <r_i_glide_einternal>
1.89380478858948

> <i_i_glide_confnum>
4

> <i_i_glide_posenum>
7

> <r_i_glide_eff_state_penalty>
0

> <s_user_duplicate_titles>
CHEMBL3650_lig305

> <s_m_subgroup_title>
dock_pv

> <s_m_subgroupid>
dock_pv

> <b_m_subgroup_collapsed>
1

$$$$
CHEMBL3650_lig861
                    3D
 Schrodinger Suite 2021-1.
 39 42  0  0  1  0            999 V2000
    6.2236    3.8988   19.9102 N   0  0  0  0  0  0
    5.8424    2.5135   20.1146 C   0  0  0  0  0  0
    6.5121    2.1544   21.4191 C   0  0  0  0  0  0
    7.4191    3.2331   21.7193 C   0  0  0  0  0  0
    7.1645    4.2368   20.8665 C   0  0  0  0  0  0
    6.3711    1.1371   22.0784 O   0  0  0  0  0  0
    8.3650    3.1812   22.8398 C   0  0  0  0  0  0
    9.4295    3.9427   22.9567 N   0  0  0  0  0  0
   10.0247    3.5581   24.1350 C   0  0  0  0  0  0
    9.2663    2.5615   24.7847 C   0  0  0  0  0  0
    8.2308    2.3371   23.9155 N   0  0  0  0  0  0
   11.2117    4.0056   24.7324 C   0  0  0  0  0  0
   11.5788    3.4717   25.9689 C   0  0  0  0  0  0
   10.8061    2.4909   26.5983 C   0  0  0  0  0  0
    9.6274    2.0107   26.0179 C   0  0  0  0  0  0
   11.2729    1.9209   27.9245 C   0  0  0  0  0  0
    6.1166    4.3418   18.5829 C   0  0  0  0  0  0
    4.8845    4.7328   18.0404 C   0  0  0  0  0  0
    4.7966    5.1136   16.6970 C   0  0  0  0  0  0
    5.9384    5.1103   15.8986 C   0  0  0  0  0  0
    7.1579    4.7178   16.4432 C   0  0  0  0  0  0
    7.2477    4.3372   17.7731 C   0  0  0  0  0  0
    3.2767    5.5365   15.9996 Cl  0  0  0  0  0  0
    7.6715    5.5037   20.8293 N   0  0  0  0  0  0
    6.1549    1.8380   19.3168 H   0  0  0  0  0  0
    4.7712    2.3965   20.2056 H   0  0  0  0  0  0
    7.4981    1.6459   23.9751 H   0  0  0  0  0  0
   11.8399    4.7373   24.2525 H   0  0  0  0  0  0
   12.4951    3.8095   26.4337 H   0  0  0  0  0  0
    9.0375    1.2366   26.4870 H   0  0  0  0  0  0
   10.5473    1.2322   28.3583 H   0  0  0  0  0  0
   12.2167    1.3905   27.7928 H   0  0  0  0  0  0
   11.4446    2.7249   28.6411 H   0  0  0  0  0  0
    3.9953    4.7210   18.6535 H   0  0  0  0  0  0
    5.8857    5.4020   14.8580 H   0  0  0  0  0  0
    8.0551    4.7188   15.8522 H   0  0  0  0  0  0
    8.2072    4.0416   18.1700 H   0  0  0  0  0  0
    8.3599    5.7910   21.5100 H   0  0  0  0  0  0
    7.3775    6.1655   20.1281 H   0  0  0  0  0  0
  1  2  1  0  0  0
  1  5  1  0  0  0
  1 17  1  0  0  0
  2  3  1  0  0  0
  2 25  1  0  0  0
  2 26  1  0  0  0
  3  4  1  0  0  0
  3  6  2  0  0  0
  4  5  2  0  0  0
  4  7  1  0  0  0
  5 24  1  0  0  0
  7  8  2  0  0  0
  7 11  1  0  0  0
  8  9  1  0  0  0
  9 10  1  0  0  0
  9 12  2  0  0  0
 10 11  1  0  0  0
 10 15  2  0  0  0
 11 27  1  0  0  0
 12 13  1  0  0  0
 12 28  1  0  0  0
 13 14  2  0  0  0
 13 29  1  0  0  0
 14 15  1  0  0  0
 14 16  1  0  0  0
 15 30  1  0  0  0
 16 31  1  0  0  0
 16 32  1  0  0  0
 16 33  1  0  0  0
 17 18  1  0  0  0
 17 22  2  0  0  0
 18 19  2  0  0  0
 18 34  1  0  0  0
 19 20  1  0  0  0
 19 23  1  0  0  0
 20 21  2  0  0  0
 20 35  1  0  0  0
 21 22  1  0  0  0
 21 36  1  0  0  0
 22 37  1  0  0  0
 24 38  1  0  0  0
 24 39  1  0  0  0
M  END
> <s_m_entry_id>
49461

> <s_m_entry_name>
dock_pv.51

> <s_m_Source_Path>
/home/csk/Desktop/cluster/DUD-E-result/fgfr1

> <s_m_Source_File>
dock_pv.maegz

> <i_m_Source_File_Index>
51

> <chembl_id>
CHEMBL3779986

> <chembl_pref_name>
None

> <i_lp_mmshare_version>
53161

> <i_f3d_flags>
0

> <r_lp_tautomer_probability>
0.999998894702016

> <s_lp_Force_Field>
OPLS_2005

> <r_lp_Energy>
37.683143

> <b_lp_Chiralities_Consistent>
1

> <s_lp_Variant>
CHEMBL3650_lig861-1

> <s_i_glide_gridfile>
glide-grid_3c4f

> <i_i_glide_lignum>
1054

> <i_i_glide_rotatable_bonds>
2

> <r_i_docking_score>
-8.45483585307392

> <r_i_glide_ligand_efficiency>
-0.352284827211413

> <r_i_glide_ligand_efficiency_sa>
-1.01616528026649

> <r_i_glide_ligand_efficiency_ln>
-2.02363018677761

> <r_i_glide_gscore>
-8.45483585307392

> <r_i_glide_lipo>
-2.74426206363228

> <r_i_glide_hbond>
-0.269094037845249

> <r_i_glide_metal>
0

> <r_i_glide_rewards>
-2.89163592320341

> <r_i_glide_evdw>
-35.8640670776367

> <r_i_glide_ecoul>
-7.24170541763306

> <r_i_glide_erotb>
0.329615338133814

> <r_i_glide_esite>
0

> <r_i_glide_emodel>
-59.8155493132245

> <r_i_glide_energy>
-43.1057724952698

> <r_i_glide_einternal>
3.36442399024963

> <i_i_glide_confnum>
3

> <i_i_glide_posenum>
173

> <r_i_glide_eff_state_penalty>
0

> <s_user_duplicate_titles>
CHEMBL3650_lig861

> <s_m_subgroup_title>
dock_pv

> <s_m_subgroupid>
dock_pv

> <b_m_subgroup_collapsed>
1

$$$$
CHEMBL3650_lig124
                    3D
 Schrodinger Suite 2021-1.
 35 37  0  0  1  0            999 V2000
    6.1205    4.1310   18.7941 C   0  0  0  0  0  0
    5.8167    2.7345   19.1013 C   0  0  0  0  0  0
    6.3304    2.2572   20.2793 N   0  0  0  0  0  0
    7.2297    2.9474   21.1294 C   0  0  0  0  0  0
    6.9792    4.8365   19.5677 C   0  0  0  0  0  0
    7.5765    4.2574   20.7855 C   0  0  0  0  0  0
    5.5826    4.6658   17.5038 C   0  0  0  0  0  0
    7.8428    2.3555   22.2501 C   0  0  0  0  0  0
    9.1543    4.3370   22.6167 N   0  0  0  0  0  0
    8.8101    3.0668   22.9553 C   0  0  0  0  0  0
    5.1710    2.0420   18.3232 O   0  0  0  0  0  0
    8.5184    4.9153   21.5647 C   0  0  0  0  0  0
    4.2657    5.1370   17.3506 C   0  0  0  0  0  0
    6.3619    4.5396   16.3470 C   0  0  0  0  0  0
    9.4340    2.4282   24.0363 N   0  0  0  0  0  0
    6.1025    0.8442   20.5826 C   0  0  0  0  0  0
    3.1539    5.1370   18.6530 Cl  0  0  0  0  0  0
    7.9710    3.9370   16.4750 Cl  0  0  0  0  0  0
    4.5366    5.3266   14.9628 C   0  0  0  0  0  0
    5.8260    4.8407   15.0907 C   0  0  0  0  0  0
    3.7607    5.4856   16.0967 C   0  0  0  0  0  0
   10.3627    3.1370   24.9086 C   0  0  0  0  0  0
    7.2343    5.8458   19.2766 H   0  0  0  0  0  0
    7.6138    1.3479   22.5605 H   0  0  0  0  0  0
    8.7710    5.9370   21.3541 H   0  0  0  0  0  0
    9.1710    1.4707   24.2540 H   0  0  0  0  0  0
    5.5710    0.3221   19.8008 H   0  0  0  0  0  0
    7.0558    0.3370   20.6530 H   0  0  0  0  0  0
    5.5710    0.7370   21.5208 H   0  0  0  0  0  0
    4.1377    5.5522   13.9832 H   0  0  0  0  0  0
    6.3710    4.6857   14.1794 H   0  0  0  0  0  0
    2.7355    5.8060   15.9837 H   0  0  0  0  0  0
   10.7548    2.4623   25.6702 H   0  0  0  0  0  0
    9.8614    3.9632   25.4138 H   0  0  0  0  0  0
   11.2049    3.5370   24.3418 H   0  0  0  0  0  0
  1  2  1  0  0  0
  1  5  2  0  0  0
  1  7  1  0  0  0
  2  3  1  0  0  0
  2 11  2  0  0  0
  3 16  1  0  0  0
  3  4  1  0  0  0
  4  6  1  0  0  0
  4  8  2  0  0  0
  5  6  1  0  0  0
  5 23  1  0  0  0
  6 12  2  0  0  0
  7 13  1  0  0  0
  7 14  2  0  0  0
  8 10  1  0  0  0
  8 24  1  0  0  0
  9 12  1  0  0  0
  9 10  2  0  0  0
 10 15  1  0  0  0
 12 25  1  0  0  0
 13 17  1  0  0  0
 13 21  2  0  0  0
 14 18  1  0  0  0
 14 20  1  0  0  0
 15 22  1  0  0  0
 15 26  1  0  0  0
 16 27  1  0  0  0
 16 28  1  0  0  0
 16 29  1  0  0  0
 19 20  2  0  0  0
 19 21  1  0  0  0
 19 30  1  0  0  0
 20 31  1  0  0  0
 21 32  1  0  0  0
 22 33  1  0  0  0
 22 34  1  0  0  0
 22 35  1  0  0  0
M  END
> <s_m_entry_id>
49462

> <s_m_entry_name>
dock_pv.52

> <s_m_Source_Path>
/home/csk/Desktop/cluster/DUD-E-result/fgfr1

> <s_m_Source_File>
dock_pv.maegz

> <i_m_Source_File_Index>
52

> <chembl_id>
CHEMBL107071

> <chembl_pref_name>
None

> <i_lp_mmshare_version>
53161

> <i_f3d_flags>
0

> <r_lp_tautomer_probability>
1

> <s_lp_Force_Field>
OPLS_2005

> <r_lp_Energy>
30.901954

> <b_lp_Chiralities_Consistent>
1

> <s_lp_Variant>
CHEMBL3650_lig124-1

> <s_i_glide_gridfile>
glide-grid_3c4f

> <i_i_glide_lignum>
146

> <i_i_glide_rotatable_bonds>
2

> <r_i_docking_score>
-8.38205830526104

> <r_i_glide_ligand_efficiency>
-0.381002650239138

> <r_i_glide_ligand_efficiency_sa>
-1.06758440995402

> <r_i_glide_ligand_efficiency_ln>
-2.04888079281119

> <r_i_glide_gscore>
-8.38205830526104

> <r_i_glide_lipo>
-3.35851178656806

> <r_i_glide_hbond>
-0.32

> <r_i_glide_metal>
0

> <r_i_glide_rewards>
-3.08534405229117

> <r_i_glide_evdw>
-28.6065292358398

> <r_i_glide_ecoul>
-2.35812497138977

> <r_i_glide_erotb>
0.168838460491278

> <r_i_glide_esite>
-0.00299571939261948

> <r_i_glide_emodel>
-34.7448447630643

> <r_i_glide_energy>
-30.9646542072296

> <r_i_glide_einternal>
0.120529837906361

> <i_i_glide_confnum>
2

> <i_i_glide_posenum>
306

> <r_i_glide_eff_state_penalty>
0

> <s_user_duplicate_titles>
CHEMBL3650_lig124,175018

> <s_m_subgroup_title>
dock_pv

> <s_m_subgroupid>
dock_pv

> <b_m_subgroup_collapsed>
1

$$$$
CHEMBL3650_lig2588
                    3D
 Schrodinger Suite 2021-1.
 25 27  0  0  1  0            999 V2000
    9.9719    3.2242   24.1196 O   0  0  0  0  0  0
    9.0757    4.1297   22.1908 N   0  0  0  0  0  0
    8.1827    2.3372   22.9447 N   0  0  0  0  0  0
    6.4340    2.0396   21.2339 N   0  0  0  0  0  0
    8.0524    3.8178   21.3301 C   0  0  0  0  0  0
    7.4796    2.6785   21.8125 C   0  0  0  0  0  0
    6.4891    3.7804   19.5046 C   0  0  0  0  0  0
    7.5603    4.4038   20.1649 C   0  0  0  0  0  0
    9.1696    3.2271   23.1911 C   0  0  0  0  0  0
    5.9708    2.5994   20.0769 C   0  0  0  0  0  0
    5.9214    4.3685   18.2601 C   0  0  0  0  0  0
    6.7228    4.5767   17.1314 C   0  0  0  0  0  0
    4.5742    4.7370   18.2086 C   0  0  0  0  0  0
    6.1735    5.1335   15.9754 C   0  0  0  0  0  0
    4.0308    5.2953   17.0580 C   0  0  0  0  0  0
    4.8329    5.4950   15.9415 C   0  0  0  0  0  0
    9.6816    4.9298   22.1065 H   0  0  0  0  0  0
    8.0294    1.5124   23.5072 H   0  0  0  0  0  0
    7.9712    5.3191   19.7692 H   0  0  0  0  0  0
    5.1449    2.0826   19.6070 H   0  0  0  0  0  0
    7.7685    4.3025   17.1422 H   0  0  0  0  0  0
    3.9276    4.5820   19.0530 H   0  0  0  0  0  0
    6.7709    5.2873   15.0907 H   0  0  0  0  0  0
    2.9789    5.5369   17.0211 H   0  0  0  0  0  0
    4.4156    5.9232   15.0404 H   0  0  0  0  0  0
  1  9  2  0  0  0
  2  5  1  0  0  0
  2  9  1  0  0  0
  2 17  1  0  0  0
  3  6  1  0  0  0
  3  9  1  0  0  0
  3 18  1  0  0  0
  4  6  2  0  0  0
  4 10  1  0  0  0
  5  6  1  0  0  0
  5  8  2  0  0  0
  7  8  1  0  0  0
  7 10  2  0  0  0
  7 11  1  0  0  0
  8 19  1  0  0  0
 10 20  1  0  0  0
 11 12  2  0  0  0
 11 13  1  0  0  0
 12 14  1  0  0  0
 12 21  1  0  0  0
 13 15  2  0  0  0
 13 22  1  0  0  0
 14 16  2  0  0  0
 14 23  1  0  0  0
 15 16  1  0  0  0
 15 24  1  0  0  0
 16 25  1  0  0  0
M  END
> <s_m_entry_id>
49463

> <s_m_entry_name>
dock_pv.53

> <s_m_Source_Path>
/home/csk/Desktop/cluster/DUD-E-result/fgfr1

> <s_m_Source_File>
dock_pv.maegz

> <i_m_Source_File_Index>
53

> <chembl_id>
CHEMBL2003456

> <chembl_pref_name>
None

> <i_lp_mmshare_version>
53161

> <i_f3d_flags>
0

> <r_lp_tautomer_probability>
1

> <s_lp_Force_Field>
OPLS_2005

> <r_lp_Energy>
33.156562

> <b_lp_Chiralities_Consistent>
1

> <s_lp_Variant>
CHEMBL3650_lig2588-1

> <s_i_glide_gridfile>
glide-grid_3c4f

> <i_i_glide_lignum>
3180

> <i_i_glide_rotatable_bonds>
1

> <r_i_docking_score>
-8.37384952188389

> <r_i_glide_ligand_efficiency>
-0.523365595117743

> <r_i_glide_ligand_efficiency_sa>
-1.31879865894037

> <r_i_glide_ligand_efficiency_ln>
-2.21965608721651

> <r_i_glide_gscore>
-8.37384952188389

> <r_i_glide_lipo>
-2.32555482212914

> <r_i_glide_hbond>
-0.298111967004679

> <r_i_glide_metal>
0

> <r_i_glide_rewards>
-4.03663033112938

> <r_i_glide_evdw>
-32.2568092346191

> <r_i_glide_ecoul>
-3.15611600875854

> <r_i_glide_erotb>
0.372705461424048

> <r_i_glide_esite>
0

> <r_i_glide_emodel>
-53.6473876731057

> <r_i_glide_energy>
-35.4129252433777

> <r_i_glide_einternal>
1.43267488479614

> <i_i_glide_confnum>
2

> <i_i_glide_posenum>
33

> <r_i_glide_eff_state_penalty>
0

> <s_user_duplicate_titles>
CHEMBL3650_lig2588

> <s_m_subgroup_title>
dock_pv

> <s_m_subgroupid>
dock_pv

> <b_m_subgroup_collapsed>
1

$$$$
CHEMBL3650_lig431
                    3D
 Schrodinger Suite 2021-1.
 33 36  0  0  1  0            999 V2000
    6.4505    4.5940   17.8853 C   0  0  0  0  0  0
    5.6972    3.4285   17.7655 C   0  0  0  0  0  0
    5.6400    2.5171   18.8202 C   0  0  0  0  0  0
    7.1710    4.8436   19.0525 C   0  0  0  0  0  0
    7.1472    3.9257   20.1110 C   0  0  0  0  0  0
    6.3710    2.7660   19.9799 C   0  0  0  0  0  0
    6.3552    1.8461   21.0240 N   0  0  0  0  0  0
    7.0430    1.9370   22.1774 C   0  0  0  0  0  0
    7.9838    3.0508   22.3018 C   0  0  0  0  0  0
    7.9653    4.0237   21.3540 C   0  0  0  0  0  0
    6.7710    1.1413   23.0530 O   0  0  0  0  0  0
    8.9032    3.0866   23.4825 C   0  0  0  0  0  0
    8.7471    2.3370   24.6253 N   0  0  0  0  0  0
    9.9903    3.8284   23.5727 N   0  0  0  0  0  0
   10.5589    3.5370   24.7837 C   0  0  0  0  0  0
    9.7900    2.5817   25.4806 C   0  0  0  0  0  0
   10.1564    2.0833   26.7333 C   0  0  0  0  0  0
   11.3420    2.5867   27.2768 C   0  0  0  0  0  0
   12.1170    3.5370   26.6079 C   0  0  0  0  0  0
   11.7409    4.0288   25.3561 C   0  0  0  0  0  0
    8.7304    5.1370   21.4530 N   0  0  0  0  0  0
    6.4934    5.2944   17.0628 H   0  0  0  0  0  0
    5.1710    3.2301   16.8442 H   0  0  0  0  0  0
    5.0579    1.6117   18.7210 H   0  0  0  0  0  0
    7.7525    5.7470   19.1123 H   0  0  0  0  0  0
    5.7401    1.0513   20.9678 H   0  0  0  0  0  0
    8.0075    1.6497   24.7093 H   0  0  0  0  0  0
    9.5702    1.3379   27.2519 H   0  0  0  0  0  0
   11.6742    2.2244   28.2393 H   0  0  0  0  0  0
   13.0324    3.8900   27.0625 H   0  0  0  0  0  0
   12.3571    4.7496   24.8387 H   0  0  0  0  0  0
    9.3595    5.2362   22.2384 H   0  0  0  0  0  0
    8.7101    5.8607   20.7527 H   0  0  0  0  0  0
  1  2  2  0  0  0
  1  4  1  0  0  0
  1 22  1  0  0  0
  2  3  1  0  0  0
  2 23  1  0  0  0
  3  6  2  0  0  0
  3 24  1  0  0  0
  4  5  2  0  0  0
  4 25  1  0  0  0
  5  6  1  0  0  0
  5 10  1  0  0  0
  6  7  1  0  0  0
  7  8  1  0  0  0
  7 26  1  0  0  0
  8 11  2  0  0  0
  8  9  1  0  0  0
  9 10  2  0  0  0
  9 12  1  0  0  0
 10 21  1  0  0  0
 12 13  1  0  0  0
 12 14  2  0  0  0
 13 16  1  0  0  0
 13 27  1  0  0  0
 14 15  1  0  0  0
 15 16  2  0  0  0
 15 20  1  0  0  0
 16 17  1  0  0  0
 17 18  2  0  0  0
 17 28  1  0  0  0
 18 19  1  0  0  0
 18 29  1  0  0  0
 19 20  2  0  0  0
 19 30  1  0  0  0
 20 31  1  0  0  0
 21 32  1  0  0  0
 21 33  1  0  0  0
M  END
> <s_m_entry_id>
49464

> <s_m_entry_name>
dock_pv.54

> <s_m_Source_Path>
/home/csk/Desktop/cluster/DUD-E-result/fgfr1

> <s_m_Source_File>
dock_pv.maegz

> <i_m_Source_File_Index>
54

> <chembl_id>
CHEMBL383417

> <chembl_pref_name>
None

> <i_lp_mmshare_version>
53161

> <i_f3d_flags>
0

> <r_lp_tautomer_probability>
1

> <s_lp_Force_Field>
OPLS_2005

> <r_lp_Energy>
34.046965

> <b_lp_Chiralities_Consistent>
1

> <s_lp_Variant>
CHEMBL3650_lig431-1

> <s_i_glide_gridfile>
glide-grid_3c4f

> <i_i_glide_lignum>
466

> <i_i_glide_rotatable_bonds>
1

> <r_i_docking_score>
-8.36516877605949

> <r_i_glide_ligand_efficiency>
-0.398341370288547

> <r_i_glide_ligand_efficiency_sa>
-1.09899363582655

> <r_i_glide_ligand_efficiency_ln>
-2.0682710764656

> <r_i_glide_gscore>
-8.36516877605949

> <r_i_glide_lipo>
-2.97674166722238

> <r_i_glide_hbond>
-0.412860754672436

> <r_i_glide_metal>
0

> <r_i_glide_rewards>
-2.70180030923987

> <r_i_glide_evdw>
-27.9465789794922

> <r_i_glide_ecoul>
-7.24942398071289

> <r_i_glide_erotb>
0.235651894318667

> <r_i_glide_esite>
-0.0246753931619267

> <r_i_glide_emodel>
-47.7002385739543

> <r_i_glide_energy>
-35.1960029602051

> <r_i_glide_einternal>
0.416252791881561

> <i_i_glide_confnum>
4

> <i_i_glide_posenum>
24

> <r_i_glide_eff_state_penalty>
0

> <s_user_duplicate_titles>
CHEMBL3650_lig431,344354

> <s_m_subgroup_title>
dock_pv

> <s_m_subgroupid>
dock_pv

> <b_m_subgroup_collapsed>
1

$$$$
CHEMBL3650_lig2240
                    3D
 Schrodinger Suite 2021-1.
 32 34  0  0  1  0            999 V2000
    5.5693    3.7097   15.1456 C   0  0  0  0  0  0
    4.6877    4.7923   15.0077 C   0  0  0  0  0  0
    4.3052    5.5368   16.1118 C   0  0  0  0  0  0
    4.8251    5.2505   17.3681 C   0  0  0  0  0  0
    5.7279    4.1980   17.5365 C   0  0  0  0  0  0
    6.0908    3.4363   16.4171 C   0  0  0  0  0  0
    6.3075    3.9391   18.8758 C   0  0  0  0  0  0
    5.9801    2.7858   19.6020 C   0  0  0  0  0  0
    7.7426    4.7383   20.6806 C   0  0  0  0  0  0
    7.1712    4.8883   19.4226 C   0  0  0  0  0  0
    7.4496    3.5840   21.4093 C   0  0  0  0  0  0
    6.5490    2.6071   20.8774 C   0  0  0  0  0  0
    6.3707    1.5527   21.7326 N   0  0  0  0  0  0
    7.1718    1.8687   22.7662 N   0  0  0  0  0  0
    7.8490    3.0524   22.6565 C   0  0  0  0  0  0
    5.9436    2.8860   14.0977 O   0  0  0  0  0  0
    5.4344    3.1700   12.7931 C   0  0  0  0  0  0
    5.5716    1.9369   11.9113 C   0  0  0  0  0  0
    4.2756    5.0862   14.0538 H   0  0  0  0  0  0
    3.6027    6.3366   15.9648 H   0  0  0  0  0  0
    4.5239    5.8515   18.2127 H   0  0  0  0  0  0
    6.7878    2.6186   16.5301 H   0  0  0  0  0  0
    5.3036    2.0488   19.1932 H   0  0  0  0  0  0
    8.4079    5.4904   21.0746 H   0  0  0  0  0  0
    7.4049    5.7747   18.8524 H   0  0  0  0  0  0
    7.2922    1.2391   23.5498 H   0  0  0  0  0  0
    8.5229    3.3758   23.4357 H   0  0  0  0  0  0
    5.9713    4.0174   12.3662 H   0  0  0  0  0  0
    4.3715    3.4131   12.8012 H   0  0  0  0  0  0
    5.2781    2.1557   10.8846 H   0  0  0  0  0  0
    4.9227    1.1386   12.2738 H   0  0  0  0  0  0
    6.5859    1.5390   11.8956 H   0  0  0  0  0  0
  1  2  2  0  0  0
  1  6  1  0  0  0
  1 16  1  0  0  0
  2  3  1  0  0  0
  2 19  1  0  0  0
  3  4  2  0  0  0
  3 20  1  0  0  0
  4  5  1  0  0  0
  4 21  1  0  0  0
  5  6  2  0  0  0
  5  7  1  0  0  0
  6 22  1  0  0  0
  7  8  2  0  0  0
  7 10  1  0  0  0
  8 12  1  0  0  0
  8 23  1  0  0  0
  9 10  2  0  0  0
  9 24  1  0  0  0
  9 11  1  0  0  0
 10 25  1  0  0  0
 11 12  1  0  0  0
 11 15  2  0  0  0
 12 13  2  0  0  0
 13 14  1  0  0  0
 14 26  1  0  0  0
 14 15  1  0  0  0
 15 27  1  0  0  0
 16 17  1  0  0  0
 17 18  1  0  0  0
 17 28  1  0  0  0
 17 29  1  0  0  0
 18 30  1  0  0  0
 18 31  1  0  0  0
 18 32  1  0  0  0
M  END
> <s_m_entry_id>
49465

> <s_m_entry_name>
dock_pv.55

> <s_m_Source_Path>
/home/csk/Desktop/cluster/DUD-E-result/fgfr1

> <s_m_Source_File>
dock_pv.maegz

> <i_m_Source_File_Index>
55

> <chembl_id>
CHEMBL4172184

> <chembl_pref_name>
None

> <i_lp_mmshare_version>
53161

> <i_f3d_flags>
0

> <r_lp_tautomer_probability>
0.0196078431372549

> <s_lp_Force_Field>
OPLS_2005

> <r_lp_Energy>
30.1615

> <b_lp_Chiralities_Consistent>
1

> <s_lp_Variant>
CHEMBL3650_lig2240-2

> <s_i_glide_gridfile>
glide-grid_3c4f

> <i_i_glide_lignum>
2696

> <i_i_glide_rotatable_bonds>
3

> <r_i_docking_score>
-8.36475869674173

> <r_i_glide_ligand_efficiency>
-0.464708816485652

> <r_i_glide_ligand_efficiency_sa>
-1.2178816304444

> <r_i_glide_ligand_efficiency_ln>
-2.15011809083902

> <r_i_glide_gscore>
-8.36475869674173

> <r_i_glide_lipo>
-3.09000939069621

> <r_i_glide_hbond>
-0.425174919011168

> <r_i_glide_metal>
0

> <r_i_glide_rewards>
-3.11275653592074

> <r_i_glide_evdw>
-38.832462310791

> <r_i_glide_ecoul>
-1.47140789031982

> <r_i_glide_erotb>
0.425516447973907

> <r_i_glide_esite>
0

> <r_i_glide_emodel>
-56.6228235875962

> <r_i_glide_energy>
-40.3038702011108

> <r_i_glide_einternal>
7.38849210739136

> <i_i_glide_confnum>
7

> <i_i_glide_posenum>
291

> <r_i_glide_eff_state_penalty>
0

> <s_user_duplicate_titles>
CHEMBL3650_lig2240,CHEMBL3650_lig2240

> <s_m_subgroup_title>
dock_pv

> <s_m_subgroupid>
dock_pv

> <b_m_subgroup_collapsed>
1

$$$$
CHEMBL3650_lig2956
                    3D
 Schrodinger Suite 2021-1.
 48 51  0  0  1  0            999 V2000
    5.3085    3.3486   12.1512 O   0  0  0  0  0  0
    6.3709    2.3896   13.9209 O   0  0  0  0  0  0
    5.9167    3.9581   16.5485 N   0  0  0  0  0  0
    4.4016    5.1371   17.7023 N   0  0  0  0  0  0
    8.3573    3.3984   22.5581 N   0  0  0  0  0  0
    9.1485    1.9370   25.8530 N   0  0  0  0  0  0
    4.9375    4.3973   15.6863 C   0  0  0  0  0  0
    3.9530    5.1370   16.4066 C   0  0  0  0  0  0
    5.5460    4.3826   17.7312 C   0  0  0  0  0  0
    4.7549    4.1411   14.3070 C   0  0  0  0  0  0
    6.2498    4.0848   18.9948 C   0  0  0  0  0  0
    2.7552    5.5370   15.8249 C   0  0  0  0  0  0
    5.5710    3.2086   13.4662 C   0  0  0  0  0  0
    3.6211    4.7370   13.7232 C   0  0  0  0  0  0
    7.6134    3.6241   21.3917 C   0  0  0  0  0  0
    5.9710    2.9381   19.7411 C   0  0  0  0  0  0
    7.1710    5.0137   19.4590 C   0  0  0  0  0  0
    2.6545    5.4101   14.4527 C   0  0  0  0  0  0
    6.6413    2.7192   20.9457 C   0  0  0  0  0  0
    7.8393    4.7859   20.6528 C   0  0  0  0  0  0
    8.1312    2.3710   23.5706 C   0  0  0  0  0  0
    9.6484    4.0068   22.8718 C   0  0  0  0  0  0
    9.3715    2.3370   24.4779 C   0  0  1  0  0  0
    9.9858    3.7000   24.3219 C   0  0  0  0  0  0
    5.5710    2.3371   11.2044 C   0  0  0  0  0  0
    5.1710    2.9250    9.8530 C   0  0  0  0  0  0
    3.9665    5.5189   18.5279 H   0  0  0  0  0  0
    8.4485    2.5214   26.2834 H   0  0  0  0  0  0
    8.7702    0.9971   25.8123 H   0  0  0  0  0  0
    1.9339    5.9370   16.3954 H   0  0  0  0  0  0
    3.4327    4.6523   12.6623 H   0  0  0  0  0  0
    5.2412    2.2210   19.3910 H   0  0  0  0  0  0
    7.3671    5.9154   18.8983 H   0  0  0  0  0  0
    1.7772    5.7842   13.9447 H   0  0  0  0  0  0
    6.4271    1.8210   21.5037 H   0  0  0  0  0  0
    8.5404    5.5304   20.9909 H   0  0  0  0  0  0
    7.2175    2.5600   24.1347 H   0  0  0  0  0  0
    8.0486    1.4154   23.0530 H   0  0  0  0  0  0
   10.4199    3.6580   22.1831 H   0  0  0  0  0  0
    9.5710    5.0847   22.7496 H   0  0  0  0  0  0
   10.0594    1.6002   24.0664 H   0  0  0  0  0  0
   11.0643    3.6892   24.4838 H   0  0  0  0  0  0
    9.5447    4.4425   24.9878 H   0  0  0  0  0  0
    4.9641    1.4597   11.4322 H   0  0  0  0  0  0
    6.6168    2.0315   11.2029 H   0  0  0  0  0  0
    5.1725    2.1612    9.0756 H   0  0  0  0  0  0
    5.8443    3.7324    9.5643 H   0  0  0  0  0  0
    4.1677    3.3500    9.8858 H   0  0  0  0  0  0
  1 13  1  0  0  0
  1 25  1  0  0  0
  2 13  2  0  0  0
  3  7  1  0  0  0
  3  9  2  0  0  0
  4  8  1  0  0  0
  4  9  1  0  0  0
  4 27  1  0  0  0
  5 15  1  0  0  0
  5 21  1  0  0  0
  5 22  1  0  0  0
  6 23  1  0  0  0
  6 28  1  0  0  0
  6 29  1  0  0  0
  7  8  2  0  0  0
  7 10  1  0  0  0
  8 12  1  0  0  0
  9 11  1  0  0  0
 10 13  1  0  0  0
 10 14  2  0  0  0
 11 16  2  0  0  0
 11 17  1  0  0  0
 12 18  2  0  0  0
 12 30  1  0  0  0
 14 18  1  0  0  0
 14 31  1  0  0  0
 15 19  2  0  0  0
 15 20  1  0  0  0
 16 19  1  0  0  0
 16 32  1  0  0  0
 17 20  2  0  0  0
 17 33  1  0  0  0
 18 34  1  0  0  0
 19 35  1  0  0  0
 20 36  1  0  0  0
 21 23  1  0  0  0
 21 37  1  0  0  0
 21 38  1  0  0  0
 22 24  1  0  0  0
 22 39  1  0  0  0
 22 40  1  0  0  0
 23 24  1  0  0  0
 23 41  1  0  0  0
 24 42  1  0  0  0
 24 43  1  0  0  0
 25 26  1  0  0  0
 25 44  1  0  0  0
 25 45  1  0  0  0
 26 46  1  0  0  0
 26 47  1  0  0  0
 26 48  1  0  0  0
M  END
> <s_m_entry_id>
49466

> <s_m_entry_name>
dock_pv.56

> <s_m_Source_Path>
/home/csk/Desktop/cluster/DUD-E-result/fgfr1

> <s_m_Source_File>
dock_pv.maegz

> <i_m_Source_File_Index>
56

> <chembl_id>
CHEMBL1995736

> <chembl_pref_name>
None

> <i_lp_mmshare_version>
53161

> <i_f3d_flags>
0

> <r_lp_tautomer_probability>
1

> <s_lp_Force_Field>
OPLS_2005

> <r_lp_Energy>
44.620051

> <b_lp_Chiralities_Consistent>
1

> <s_lp_Variant>
CHEMBL3650_lig2956-2

> <s_i_glide_gridfile>
glide-grid_3c4f

> <i_i_glide_lignum>
3742

> <i_i_glide_rotatable_bonds>
5

> <r_i_docking_score>
-8.35049286054995

> <r_i_glide_ligand_efficiency>
-0.321172802328844

> <r_i_glide_ligand_efficiency_sa>
-0.951473163145248

> <r_i_glide_ligand_efficiency_ln>
-1.96108584809822

> <r_i_glide_gscore>
-8.35049286054995

> <r_i_glide_lipo>
-3.27633736688373

> <r_i_glide_hbond>
-0.522909411720339

> <r_i_glide_metal>
0

> <r_i_glide_rewards>
-2.93996588027015

> <r_i_glide_evdw>
-42.8627738952637

> <r_i_glide_ecoul>
-0.593709826469421

> <r_i_glide_erotb>
0.62091496705787

> <r_i_glide_esite>
0

> <r_i_glide_emodel>
-49.1370824455002

> <r_i_glide_energy>
-43.4564837217331

> <r_i_glide_einternal>
13.3074235916138

> <i_i_glide_confnum>
5

> <i_i_glide_posenum>
185

> <r_i_glide_eff_state_penalty>
0

> <s_user_duplicate_titles>
CHEMBL3650_lig2956

> <s_m_subgroup_title>
dock_pv

> <s_m_subgroupid>
dock_pv

> <b_m_subgroup_collapsed>
1

$$$$
CHEMBL3650_lig765
                    3D
 Schrodinger Suite 2021-1.
 41 45  0  0  1  0            999 V2000
    7.9980    2.3370   23.2762 C   0  0  0  0  0  0
    8.8815    3.9385   21.1498 C   0  0  0  0  0  0
    7.6914    3.2141   21.0013 C   0  0  0  0  0  0
    7.2665    2.3648   22.0654 C   0  0  0  0  0  0
    6.1876    1.5575   21.9235 N   0  0  0  0  0  0
    5.5710    1.6038   20.7205 C   0  0  0  0  0  0
    5.8209    2.4131   19.6809 N   0  0  0  0  0  0
    6.8960    3.2070   19.8152 C   0  0  0  0  0  0
    7.2624    3.9371   18.6766 N   0  0  0  0  0  0
    6.4742    4.2702   17.5770 C   0  0  0  0  0  0
    6.5008    3.5756   16.3611 C   0  0  0  0  0  0
    5.7336    4.0441   15.2808 C   0  0  0  0  0  0
    4.9451    5.1851   15.4369 C   0  0  0  0  0  0
    4.9255    5.8496   16.6530 C   0  0  0  0  0  0
    5.6834    5.3951   17.7139 C   0  0  0  0  0  0
    9.2131    3.0075   23.3604 C   0  0  0  0  0  0
    9.6786    3.7505   22.2708 C   0  0  0  0  0  0
   10.9225    4.3370   22.2530 O   0  0  0  0  0  0
   11.8024    3.9369   23.3103 C   0  0  0  0  0  0
   11.0346    3.7749   24.6474 C   0  0  0  0  0  0
    9.9690    2.8287   24.5017 O   0  0  0  0  0  0
    5.7239    3.4210   13.9368 C   0  0  0  0  0  0
    5.4922    3.9347   12.6664 C   0  0  0  0  0  0
    5.5710    2.8786   11.7675 C   0  0  0  0  0  0
    5.8427    1.7665   12.5352 C   0  0  0  0  0  0
    5.9708    2.0926   13.8447 O   0  0  0  0  0  0
    7.6543    1.7204   24.0933 H   0  0  0  0  0  0
    9.1711    4.5792   20.3424 H   0  0  0  0  0  0
    4.6119    1.1370   20.6530 H   0  0  0  0  0  0
    8.1311    4.4460   18.7388 H   0  0  0  0  0  0
    7.1308    2.7059   16.2487 H   0  0  0  0  0  0
    4.3588    5.5713   14.6143 H   0  0  0  0  0  0
    4.3535    6.7370   16.7853 H   0  0  0  0  0  0
    5.6884    5.9370   18.6428 H   0  0  0  0  0  0
   12.2715    2.9957   23.0295 H   0  0  0  0  0  0
   12.6032    4.6700   23.4156 H   0  0  0  0  0  0
   11.7078    3.4439   25.4389 H   0  0  0  0  0  0
   10.6200    4.7370   24.9472 H   0  0  0  0  0  0
    5.2954    4.9684   12.4290 H   0  0  0  0  0  0
    5.4340    2.9199   10.6972 H   0  0  0  0  0  0
    6.0044    0.7370   12.2906 H   0  0  0  0  0  0
  1 16  1  0  0  0
  1  4  2  0  0  0
  1 27  1  0  0  0
  2  3  2  0  0  0
  2 17  1  0  0  0
  2 28  1  0  0  0
  3  4  1  0  0  0
  3  8  1  0  0  0
  4  5  1  0  0  0
  5  6  2  0  0  0
  6  7  1  0  0  0
  6 29  1  0  0  0
  7  8  2  0  0  0
  8  9  1  0  0  0
  9 10  1  0  0  0
  9 30  1  0  0  0
 10 11  2  0  0  0
 10 15  1  0  0  0
 11 12  1  0  0  0
 11 31  1  0  0  0
 12 13  2  0  0  0
 12 22  1  0  0  0
 13 14  1  0  0  0
 13 32  1  0  0  0
 14 15  2  0  0  0
 14 33  1  0  0  0
 15 34  1  0  0  0
 16 17  2  0  0  0
 16 21  1  0  0  0
 17 18  1  0  0  0
 18 19  1  0  0  0
 19 20  1  0  0  0
 19 35  1  0  0  0
 19 36  1  0  0  0
 20 21  1  0  0  0
 20 37  1  0  0  0
 20 38  1  0  0  0
 22 23  2  0  0  0
 22 26  1  0  0  0
 23 24  1  0  0  0
 23 39  1  0  0  0
 24 25  2  0  0  0
 24 40  1  0  0  0
 25 26  1  0  0  0
 25 41  1  0  0  0
M  END
> <s_m_entry_id>
49467

> <s_m_entry_name>
dock_pv.57

> <s_m_Source_Path>
/home/csk/Desktop/cluster/DUD-E-result/fgfr1

> <s_m_Source_File>
dock_pv.maegz

> <i_m_Source_File_Index>
57

> <chembl_id>
CHEMBL3297954

> <chembl_pref_name>
None

> <i_lp_mmshare_version>
53161

> <i_f3d_flags>
0

> <r_lp_tautomer_probability>
0.999978000241998

> <s_lp_Force_Field>
OPLS_2005

> <r_lp_Energy>
15.895269

> <b_lp_Chiralities_Consistent>
1

> <s_lp_Variant>
CHEMBL3650_lig765-1

> <s_i_glide_gridfile>
glide-grid_3c4f

> <i_i_glide_lignum>
933

> <i_i_glide_rotatable_bonds>
3

> <r_i_docking_score>
-8.32951790843469

> <r_i_glide_ligand_efficiency>
-0.320366073401334

> <r_i_glide_ligand_efficiency_sa>
-0.949083231871825

> <r_i_glide_ligand_efficiency_ln>
-1.95615994941838

> <r_i_glide_gscore>
-8.32951790843469

> <r_i_glide_lipo>
-3.09809200193272

> <r_i_glide_hbond>
-0.376736464311635

> <r_i_glide_metal>
0

> <r_i_glide_rewards>
-2.88557134610502

> <r_i_glide_evdw>
-33.6922149658203

> <r_i_glide_ecoul>
-5.08261489868164

> <r_i_glide_erotb>
0.477884887007945

> <r_i_glide_esite>
0

> <r_i_glide_emodel>
-43.6790104477199

> <r_i_glide_energy>
-38.774829864502

> <r_i_glide_einternal>
5.95408058166504

> <i_i_glide_confnum>
17

> <i_i_glide_posenum>
37

> <r_i_glide_eff_state_penalty>
0

> <s_user_duplicate_titles>
CHEMBL3650_lig765

> <s_m_subgroup_title>
dock_pv

> <s_m_subgroupid>
dock_pv

> <b_m_subgroup_collapsed>
1

$$$$
CHEMBL3650_lig2242
                    3D
 Schrodinger Suite 2021-1.
 26 28  0  0  1  0            999 V2000
    6.0832    3.8908   17.9667 C   0  0  0  0  0  0
    5.7201    2.7073   18.6181 C   0  0  0  0  0  0
    7.1710    4.7370   19.9813 C   0  0  0  0  0  0
    6.7710    4.8936   18.6530 C   0  0  0  0  0  0
    6.8571    3.5393   20.6341 C   0  0  0  0  0  0
    6.1236    2.5509   19.9423 C   0  0  0  0  0  0
    5.9710    1.5147   20.8354 N   0  0  0  0  0  0
    6.5512    1.7793   22.0198 N   0  0  0  0  0  0
    7.0919    2.9660   21.9178 C   0  0  0  0  0  0
    5.7703    4.0461   16.5264 C   0  0  0  0  0  0
    6.3052    3.1370   15.6113 C   0  0  0  0  0  0
    5.9710    3.1885   14.2612 C   0  0  0  0  0  0
    5.1667    4.2190   13.7943 C   0  0  0  0  0  0
    4.6384    5.1489   14.6870 C   0  0  0  0  0  0
    4.9299    5.0589   16.0495 C   0  0  0  0  0  0
    4.3710    5.9370   16.9112 F   0  0  0  0  0  0
    4.9264    4.3370   12.4556 O   0  0  0  0  0  0
    5.1710    1.9348   18.1059 H   0  0  0  0  0  0
    7.7247    5.5157   20.4841 H   0  0  0  0  0  0
    7.0328    5.8024   18.1331 H   0  0  0  0  0  0
    5.4858    0.6414   20.6700 H   0  0  0  0  0  0
    7.6297    3.4008   22.7466 H   0  0  0  0  0  0
    6.9584    2.3490   15.9575 H   0  0  0  0  0  0
    6.3710    2.4603   13.5738 H   0  0  0  0  0  0
    3.9991    5.9370   14.3218 H   0  0  0  0  0  0
    4.7633    5.2745   12.2422 H   0  0  0  0  0  0
  1  2  2  0  0  0
  1  4  1  0  0  0
  1 10  1  0  0  0
  2  6  1  0  0  0
  2 18  1  0  0  0
  3  5  1  0  0  0
  3  4  2  0  0  0
  3 19  1  0  0  0
  4 20  1  0  0  0
  5  6  2  0  0  0
  5  9  1  0  0  0
  6  7  1  0  0  0
  7  8  1  0  0  0
  7 21  1  0  0  0
  8  9  2  0  0  0
  9 22  1  0  0  0
 10 11  2  0  0  0
 10 15  1  0  0  0
 11 12  1  0  0  0
 11 23  1  0  0  0
 12 13  2  0  0  0
 12 24  1  0  0  0
 13 14  1  0  0  0
 13 17  1  0  0  0
 14 15  2  0  0  0
 14 25  1  0  0  0
 15 16  1  0  0  0
 17 26  1  0  0  0
M  END
> <s_m_entry_id>
49468

> <s_m_entry_name>
dock_pv.58

> <s_m_Source_Path>
/home/csk/Desktop/cluster/DUD-E-result/fgfr1

> <s_m_Source_File>
dock_pv.maegz

> <i_m_Source_File_Index>
58

> <chembl_id>
CHEMBL4162722

> <chembl_pref_name>
None

> <i_lp_mmshare_version>
53161

> <i_f3d_flags>
0

> <r_lp_tautomer_probability>
0.980392156860212

> <s_lp_Force_Field>
OPLS_2005

> <r_lp_Energy>
14.014751

> <b_lp_Chiralities_Consistent>
1

> <s_lp_Variant>
CHEMBL3650_lig2242-1

> <s_i_glide_gridfile>
glide-grid_3c4f

> <i_i_glide_lignum>
2699

> <i_i_glide_rotatable_bonds>
2

> <r_i_docking_score>
-8.31453909760619

> <r_i_glide_ligand_efficiency>
-0.489090535153305

> <r_i_glide_ligand_efficiency_sa>
-1.2575894880172

> <r_i_glide_ligand_efficiency_ln>
-2.16907809488317

> <r_i_glide_gscore>
-8.31453909760619

> <r_i_glide_lipo>
-2.37289797377853

> <r_i_glide_hbond>
-0.44485450286614

> <r_i_glide_metal>
0

> <r_i_glide_rewards>
-3.15093121630803

> <r_i_glide_evdw>
-33.6955184936523

> <r_i_glide_ecoul>
-5.93352651596069

> <r_i_glide_erotb>
0.228949497423235

> <r_i_glide_esite>
0

> <r_i_glide_emodel>
-59.0637278481905

> <r_i_glide_energy>
-39.629045009613

> <r_i_glide_einternal>
1.53749024868011

> <i_i_glide_confnum>
4

> <i_i_glide_posenum>
198

> <r_i_glide_eff_state_penalty>
0

> <s_user_duplicate_titles>
CHEMBL3650_lig2242,CHEMBL3650_lig2242

> <s_m_subgroup_title>
dock_pv

> <s_m_subgroupid>
dock_pv

> <b_m_subgroup_collapsed>
1

$$$$
CHEMBL3650_lig331
                    3D
 Schrodinger Suite 2021-1.
 44 46  0  0  1  0            999 V2000
    7.6587    3.3441   21.0158 C   0  0  0  0  0  0
    6.8362    3.4132   19.8484 C   0  0  0  0  0  0
    7.2613    2.4207   22.0235 C   0  0  0  0  0  0
    8.8566    4.0449   21.2024 C   0  0  0  0  0  0
    5.7904    2.5764   19.6740 N   0  0  0  0  0  0
    7.9897    2.3370   23.2251 C   0  0  0  0  0  0
    7.0980    4.3089   18.7968 N   0  0  0  0  0  0
    9.6746    3.7829   22.2974 C   0  0  0  0  0  0
    9.2050    3.0150   23.3737 C   0  0  0  0  0  0
    6.2016    1.5973   21.8529 N   0  0  0  0  0  0
    5.5710    1.6917   20.6632 C   0  0  0  0  0  0
    6.4215    4.3798   17.5717 C   0  0  0  0  0  0
    6.7627    3.5217   16.5238 C   0  0  0  0  0  0
    6.0631    3.5823   15.3168 C   0  0  0  0  0  0
   10.9272    4.3370   22.2558 O   0  0  0  0  0  0
    9.9710    2.9739   24.5256 O   0  0  0  0  0  0
    6.3710    2.7370   14.2874 O   0  0  0  0  0  0
    4.6929    5.3628   16.1949 C   0  0  0  0  0  0
    9.2889    2.8565   28.0979 O   0  0  0  0  0  0
    5.3793    5.2927   17.4065 C   0  0  0  0  0  0
    5.0356    4.5092   15.1487 C   0  0  0  0  0  0
    9.4975    2.3076   25.6979 C   0  0  0  0  0  0
   10.1123    2.9814   26.9395 C   0  0  0  0  0  0
   12.0492    3.4862   22.4405 C   0  0  0  0  0  0
    9.1773    1.5373   28.6152 C   0  0  0  0  0  0
    9.1710    4.7183   20.4305 H   0  0  0  0  0  0
    7.6124    1.6681   23.9822 H   0  0  0  0  0  0
    7.9142    4.8942   18.8866 H   0  0  0  0  0  0
    4.6615    1.1370   20.5887 H   0  0  0  0  0  0
    7.5581    2.8034   16.6524 H   0  0  0  0  0  0
    5.8094    2.9213   13.5312 H   0  0  0  0  0  0
    3.8895    6.0699   16.0641 H   0  0  0  0  0  0
    5.0909    5.9370   18.2214 H   0  0  0  0  0  0
    4.4992    4.5736   14.2128 H   0  0  0  0  0  0
    9.7897    1.2579   25.6575 H   0  0  0  0  0  0
    8.4142    2.3368   25.8038 H   0  0  0  0  0  0
   10.2376    4.0482   26.7500 H   0  0  0  0  0  0
   11.1127    2.5917   27.1367 H   0  0  0  0  0  0
   12.9460    4.0059   22.1040 H   0  0  0  0  0  0
   12.2028    3.2365   23.4885 H   0  0  0  0  0  0
   11.9710    2.5701   21.8606 H   0  0  0  0  0  0
    8.5521    1.5488   29.5074 H   0  0  0  0  0  0
   10.1527    1.1370   28.8955 H   0  0  0  0  0  0
    8.7109    0.8607   27.8996 H   0  0  0  0  0  0
  1  2  1  0  0  0
  1  3  1  0  0  0
  1  4  2  0  0  0
  2  5  2  0  0  0
  2  7  1  0  0  0
  3  6  2  0  0  0
  3 10  1  0  0  0
  4  8  1  0  0  0
  4 26  1  0  0  0
  5 11  1  0  0  0
  6  9  1  0  0  0
  6 27  1  0  0  0
  7 12  1  0  0  0
  7 28  1  0  0  0
  8  9  2  0  0  0
  8 15  1  0  0  0
  9 16  1  0  0  0
 10 11  2  0  0  0
 11 29  1  0  0  0
 12 13  1  0  0  0
 12 20  2  0  0  0
 13 14  2  0  0  0
 13 30  1  0  0  0
 14 17  1  0  0  0
 14 21  1  0  0  0
 15 24  1  0  0  0
 16 22  1  0  0  0
 17 31  1  0  0  0
 18 20  1  0  0  0
 18 21  2  0  0  0
 18 32  1  0  0  0
 19 23  1  0  0  0
 19 25  1  0  0  0
 20 33  1  0  0  0
 21 34  1  0  0  0
 22 23  1  0  0  0
 22 35  1  0  0  0
 22 36  1  0  0  0
 23 37  1  0  0  0
 23 38  1  0  0  0
 24 39  1  0  0  0
 24 40  1  0  0  0
 24 41  1  0  0  0
 25 42  1  0  0  0
 25 43  1  0  0  0
 25 44  1  0  0  0
M  END
> <s_m_entry_id>
49469

> <s_m_entry_name>
dock_pv.59

> <s_m_Source_Path>
/home/csk/Desktop/cluster/DUD-E-result/fgfr1

> <s_m_Source_File>
dock_pv.maegz

> <i_m_Source_File_Index>
59

> <chembl_id>
CHEMBL421961

> <chembl_pref_name>
None

> <i_lp_mmshare_version>
53161

> <i_f3d_flags>
0

> <r_lp_tautomer_probability>
0.999978000241998

> <s_lp_Force_Field>
OPLS_2005

> <r_lp_Energy>
20.822681

> <b_lp_Chiralities_Consistent>
1

> <s_lp_Variant>
CHEMBL3650_lig331-1

> <s_i_glide_gridfile>
glide-grid_3c4f

> <i_i_glide_lignum>
355

> <i_i_glide_rotatable_bonds>
8

> <r_i_docking_score>
-8.29141789025427

> <r_i_glide_ligand_efficiency>
-0.331656715610171

> <r_i_glide_ligand_efficiency_sa>
-0.969770118401037

> <r_i_glide_ligand_efficiency_ln>
-1.96531451373383

> <r_i_glide_gscore>
-8.29141789025427

> <r_i_glide_lipo>
-3.23405992502681

> <r_i_glide_hbond>
-0.389256184815078

> <r_i_glide_metal>
0

> <r_i_glide_rewards>
-2.63838579690472

> <r_i_glide_evdw>
-38.403751373291

> <r_i_glide_ecoul>
-6.1506552696228

> <r_i_glide_erotb>
0.813069875600305

> <r_i_glide_esite>
0

> <r_i_glide_emodel>
-49.1977177371711

> <r_i_glide_energy>
-44.5544066429138

> <r_i_glide_einternal>
16.4041557312012

> <i_i_glide_confnum>
2

> <i_i_glide_posenum>
112

> <r_i_glide_eff_state_penalty>
0

> <s_user_duplicate_titles>
CHEMBL3650_lig331

> <s_m_subgroup_title>
dock_pv

> <s_m_subgroupid>
dock_pv

> <b_m_subgroup_collapsed>
1

$$$$
CHEMBL3650_lig3228
                    3D
 Schrodinger Suite 2021-1.
 28 30  0  0  1  0            999 V2000
    5.8636    3.2951   15.9205 O   0  0  0  0  0  0
    5.9710    1.9805   13.5957 O   0  5  0  0  0  0
    5.2297    3.6965   12.5001 O   0  0  0  0  0  0
    9.5710    4.3370   23.6230 O   0  0  0  0  0  0
    7.1777    3.8589   20.1983 N   0  0  0  0  0  0
    5.7396    2.7369   18.8361 N   0  0  0  0  0  0
    5.5709    3.1381   13.5367 N   0  3  0  0  0  0
    9.0703    2.3370   24.4020 N   0  0  0  0  0  0
    6.1420    3.8511   18.2529 C   0  0  0  0  0  0
    5.7442    4.2244   16.9090 C   0  0  0  0  0  0
    6.3710    2.7234   20.0407 C   0  0  0  0  0  0
    6.9885    4.6005   19.0663 C   0  0  0  0  0  0
    5.5070    3.8926   14.7474 C   0  0  0  0  0  0
    7.9709    4.0540   21.2960 C   0  0  0  0  0  0
    5.3093    5.4201   16.3605 C   0  0  0  0  0  0
    8.0109    3.0902   22.3110 C   0  0  0  0  0  0
    6.3616    1.7703   21.0747 C   0  0  0  0  0  0
    5.1523    5.2116   14.9911 C   0  0  0  0  0  0
    7.1780    1.9673   22.1949 C   0  0  0  0  0  0
    8.9436    3.2946   23.4866 C   0  0  0  0  0  0
    8.7464    1.3849   24.2530 H   0  0  0  0  0  0
    9.6629    2.5241   25.1955 H   0  0  0  0  0  0
    7.4900    5.5370   18.8930 H   0  0  0  0  0  0
    8.5660    4.9558   21.3037 H   0  0  0  0  0  0
    5.1386    6.3370   16.8995 H   0  0  0  0  0  0
    5.7555    0.8830   20.9761 H   0  0  0  0  0  0
    4.8415    5.9370   14.2530 H   0  0  0  0  0  0
    7.1710    1.2193   22.9712 H   0  0  0  0  0  0
  1 10  1  0  0  0
  1 13  1  0  0  0
  2  7  1  0  0  0
  3  7  2  0  0  0
  4 20  2  0  0  0
  5 11  1  0  0  0
  5 12  1  0  0  0
  5 14  1  0  0  0
  6  9  1  0  0  0
  6 11  2  0  0  0
  7 13  1  0  0  0
  8 20  1  0  0  0
  8 21  1  0  0  0
  8 22  1  0  0  0
  9 10  1  0  0  0
  9 12  2  0  0  0
 10 15  2  0  0  0
 11 17  1  0  0  0
 12 23  1  0  0  0
 13 18  2  0  0  0
 14 16  2  0  0  0
 14 24  1  0  0  0
 15 18  1  0  0  0
 15 25  1  0  0  0
 16 19  1  0  0  0
 16 20  1  0  0  0
 17 19  2  0  0  0
 17 26  1  0  0  0
 18 27  1  0  0  0
 19 28  1  0  0  0
M  CHG  2   2  -1   7   1
M  END
> <s_m_entry_id>
49470

> <s_m_entry_name>
dock_pv.60

> <s_m_Source_Path>
/home/csk/Desktop/cluster/DUD-E-result/fgfr1

> <s_m_Source_File>
dock_pv.maegz

> <i_m_Source_File_Index>
60

> <chembl_id>
CHEMBL1973359

> <chembl_pref_name>
None

> <i_lp_mmshare_version>
53161

> <i_f3d_flags>
0

> <r_lp_tautomer_probability>
1

> <s_lp_Force_Field>
OPLS_2005

> <r_lp_Energy>
7.826527

> <b_lp_Chiralities_Consistent>
1

> <s_lp_Variant>
CHEMBL3650_lig3228-1

> <s_i_glide_gridfile>
glide-grid_3c4f

> <i_i_glide_lignum>
4169

> <i_i_glide_rotatable_bonds>
3

> <r_i_docking_score>
-8.28783011338391

> <r_i_glide_ligand_efficiency>
-0.414391505669196

> <r_i_glide_ligand_efficiency_sa>
-1.12483160203252

> <r_i_glide_ligand_efficiency_ln>
-2.07417052644829

> <r_i_glide_gscore>
-8.28783011338391

> <r_i_glide_lipo>
-2.1652727635355

> <r_i_glide_hbond>
-0.320264016718964

> <r_i_glide_metal>
0

> <r_i_glide_rewards>
-3.09283613769221

> <r_i_glide_evdw>
-41.0163650512695

> <r_i_glide_ecoul>
-5.80154275894165

> <r_i_glide_erotb>
0.241800121470354

> <r_i_glide_esite>
-0.0302076505028599

> <r_i_glide_emodel>
-67.0013170226537

> <r_i_glide_energy>
-46.8179078102112

> <r_i_glide_einternal>
4.17792129516602

> <i_i_glide_confnum>
2

> <i_i_glide_posenum>
359

> <r_i_glide_eff_state_penalty>
0

> <s_user_duplicate_titles>
CHEMBL3650_lig3228

> <s_m_subgroup_title>
dock_pv

> <s_m_subgroupid>
dock_pv

> <b_m_subgroup_collapsed>
1

$$$$
CHEMBL3650_lig208
                    3D
 Schrodinger Suite 2021-1.
 29 31  0  0  1  0            999 V2000
    6.1524    4.0915   19.0020 C   0  0  0  0  0  0
    6.2723    2.2482   20.6116 N   0  0  0  0  0  0
    7.6158    2.3171   22.4666 N   0  0  0  0  0  0
    7.1710    2.9377   21.3406 C   0  0  0  0  0  0
    5.8543    2.7969   19.4530 C   0  0  0  0  0  0
    5.5976    4.6373   17.7031 C   0  0  0  0  0  0
    7.6620    4.2010   20.9149 C   0  0  0  0  0  0
    7.1208    4.7885   19.7409 C   0  0  0  0  0  0
    8.5928    2.9555   23.1451 C   0  0  0  0  0  0
    9.1710    4.1309   22.8229 N   0  0  0  0  0  0
    8.6839    4.7370   21.7169 C   0  0  0  0  0  0
    6.3694    4.5384   16.5391 C   0  0  0  0  0  0
    4.2848    5.1370   17.5481 C   0  0  0  0  0  0
    5.1710    1.9158   18.6530 N   0  0  0  0  0  0
    9.0481    2.3370   24.2911 N   0  0  0  0  0  0
    3.1401    5.1370   18.8215 Cl  0  0  0  0  0  0
    7.9710    3.9370   16.6530 Cl  0  0  0  0  0  0
    4.5644    5.3825   15.1644 C   0  0  0  0  0  0
    3.7913    5.5203   16.2994 C   0  0  0  0  0  0
    5.8428    4.8750   15.2867 C   0  0  0  0  0  0
    7.4747    5.7549   19.4103 H   0  0  0  0  0  0
    9.1256    5.6774   21.4530 H   0  0  0  0  0  0
    4.7868    2.2482   17.7831 H   0  0  0  0  0  0
    4.8981    1.0229   19.0517 H   0  0  0  0  0  0
    8.7710    1.3628   24.4088 H   0  0  0  0  0  0
    9.8731    2.7081   24.7320 H   0  0  0  0  0  0
    4.1704    5.6382   14.1901 H   0  0  0  0  0  0
    2.7675    5.8445   16.1869 H   0  0  0  0  0  0
    6.3710    4.7346   14.3642 H   0  0  0  0  0  0
  1  5  1  0  0  0
  1  6  1  0  0  0
  1  8  2  0  0  0
  2  5  2  0  0  0
  2  4  1  0  0  0
  3  4  2  0  0  0
  3  9  1  0  0  0
  4  7  1  0  0  0
  5 14  1  0  0  0
  6 12  2  0  0  0
  6 13  1  0  0  0
  7  8  1  0  0  0
  7 11  2  0  0  0
  8 21  1  0  0  0
  9 10  2  0  0  0
  9 15  1  0  0  0
 10 11  1  0  0  0
 11 22  1  0  0  0
 12 17  1  0  0  0
 12 20  1  0  0  0
 13 16  1  0  0  0
 13 19  2  0  0  0
 14 23  1  0  0  0
 14 24  1  0  0  0
 15 25  1  0  0  0
 15 26  1  0  0  0
 18 19  1  0  0  0
 18 20  2  0  0  0
 18 27  1  0  0  0
 19 28  1  0  0  0
 20 29  1  0  0  0
M  END
> <s_m_entry_id>
49471

> <s_m_entry_name>
dock_pv.61

> <s_m_Source_Path>
/home/csk/Desktop/cluster/DUD-E-result/fgfr1

> <s_m_Source_File>
dock_pv.maegz

> <i_m_Source_File_Index>
61

> <chembl_id>
CHEMBL58627

> <chembl_pref_name>
None

> <i_lp_mmshare_version>
53161

> <i_f3d_flags>
0

> <r_lp_tautomer_probability>
1

> <s_lp_Force_Field>
OPLS_2005

> <r_lp_Energy>
10.419989

> <b_lp_Chiralities_Consistent>
1

> <s_lp_Variant>
CHEMBL3650_lig208-1

> <s_i_glide_gridfile>
glide-grid_3c4f

> <i_i_glide_lignum>
230

> <i_i_glide_rotatable_bonds>
1

> <r_i_docking_score>
-8.2840076122477

> <r_i_glide_ligand_efficiency>
-0.414200380612385

> <r_i_glide_ligand_efficiency_sa>
-1.12431280881186

> <r_i_glide_ligand_efficiency_ln>
-2.07321388048842

> <r_i_glide_gscore>
-8.2840076122477

> <r_i_glide_lipo>
-2.26824658021471

> <r_i_glide_hbond>
-0.608

> <r_i_glide_metal>
0

> <r_i_glide_rewards>
-2.93121317108211

> <r_i_glide_evdw>
-28.4815425872803

> <r_i_glide_ecoul>
-8.11708354949951

> <r_i_glide_erotb>
0.197036509996062

> <r_i_glide_esite>
-0.0319447091579944

> <r_i_glide_emodel>
-42.9821669417161

> <r_i_glide_energy>
-36.5986261367798

> <r_i_glide_einternal>
6.68245484121144e-05

> <i_i_glide_confnum>
1

> <i_i_glide_posenum>
46

> <r_i_glide_eff_state_penalty>
0

> <s_user_duplicate_titles>
CHEMBL3650_lig208

> <s_m_subgroup_title>
dock_pv

> <s_m_subgroupid>
dock_pv

> <b_m_subgroup_collapsed>
1

$$$$
CHEMBL3650_lig198
                    3D
 Schrodinger Suite 2021-1.
 52 54  0  0  1  0            999 V2000
    5.7263    3.8419   18.3512 C   0  0  0  0  0  0
    7.2827    4.6918   20.0360 N   0  0  0  0  0  0
    7.8006    3.5703   21.9192 N   0  0  0  0  0  0
    7.0807    3.5995   20.7713 C   0  0  0  0  0  0
    6.5925    4.7696   18.8975 C   0  0  0  0  0  0
    5.1705    4.1390   16.9860 C   0  0  0  0  0  0
    6.1804    2.5722   20.3643 C   0  0  0  0  0  0
    5.5229    2.6773   19.1010 C   0  0  0  0  0  0
    7.5811    2.5109   22.7224 C   0  0  0  0  0  0
    6.6840    1.5359   22.4828 N   0  0  0  0  0  0
    6.0359    1.5414   21.2932 C   0  0  0  0  0  0
    5.7769    3.5842   15.8594 C   0  0  0  0  0  0
    4.1362    5.0790   16.7875 C   0  0  0  0  0  0
    6.7713    5.9364   18.2539 N   0  0  0  0  0  0
    8.3372    2.3439   23.8854 N   0  0  0  0  0  0
    3.0252    5.5378   18.2540 Br  0  0  0  0  0  0
    7.1710    2.3370   16.1023 Br  0  0  0  0  0  0
   11.1773    5.1573   25.9138 N   0  0  0  0  0  0
   10.1339    2.8687   25.5296 C   0  0  0  0  0  0
    4.3560    4.8616   14.3919 C   0  0  0  0  0  0
    3.7241    5.4203   15.4993 C   0  0  0  0  0  0
    5.3818    3.9395   14.5710 C   0  0  0  0  0  0
    9.5001    3.1806   24.1645 C   0  0  0  0  0  0
   11.3964    3.7003   25.8610 C   0  0  0  0  0  0
   10.1009    5.5719   26.8276 C   0  0  0  0  0  0
   12.4120    5.9085   26.1969 C   0  0  0  0  0  0
   10.2937    5.1805   28.3072 C   0  0  0  0  0  0
   13.5124    5.7474   25.1336 C   0  0  0  0  0  0
    4.8678    1.8883   18.7573 H   0  0  0  0  0  0
    5.3984    0.7063   21.0543 H   0  0  0  0  0  0
    6.4372    5.9587   17.3019 H   0  0  0  0  0  0
    7.6535    6.3612   18.4870 H   0  0  0  0  0  0
    8.3422    1.3950   24.2526 H   0  0  0  0  0  0
   10.4032    1.8118   25.5460 H   0  0  0  0  0  0
    9.3979    2.9536   26.3291 H   0  0  0  0  0  0
    4.0401    5.1299   13.3941 H   0  0  0  0  0  0
    2.8745    6.0690   15.3571 H   0  0  0  0  0  0
    5.8756    3.5107   13.7117 H   0  0  0  0  0  0
    9.2395    4.2374   24.0937 H   0  0  0  0  0  0
   10.2386    3.0523   23.3714 H   0  0  0  0  0  0
   12.1223    3.4973   25.0741 H   0  0  0  0  0  0
   11.8445    3.3471   26.7914 H   0  0  0  0  0  0
    9.1635    5.1606   26.4621 H   0  0  0  0  0  0
    9.9723    6.6546   26.7563 H   0  0  0  0  0  0
   12.1700    6.9707   26.2609 H   0  0  0  0  0  0
   12.8156    5.6238   27.1699 H   0  0  0  0  0  0
    9.4432    5.5175   28.8988 H   0  0  0  0  0  0
   11.1867    5.6346   28.7368 H   0  0  0  0  0  0
   10.3698    4.1011   28.4367 H   0  0  0  0  0  0
   14.3525    6.4073   25.3530 H   0  0  0  0  0  0
   13.9111    4.7346   25.1129 H   0  0  0  0  0  0
   13.1635    5.9940   24.1315 H   0  0  0  0  0  0
  1  5  1  0  0  0
  1  6  1  0  0  0
  1  8  2  0  0  0
  2  5  2  0  0  0
  2  4  1  0  0  0
  3  4  2  0  0  0
  3  9  1  0  0  0
  4  7  1  0  0  0
  5 14  1  0  0  0
  6 12  2  0  0  0
  6 13  1  0  0  0
  7  8  1  0  0  0
  7 11  2  0  0  0
  8 29  1  0  0  0
  9 10  2  0  0  0
  9 15  1  0  0  0
 10 11  1  0  0  0
 11 30  1  0  0  0
 12 17  1  0  0  0
 12 22  1  0  0  0
 13 16  1  0  0  0
 13 21  2  0  0  0
 14 31  1  0  0  0
 14 32  1  0  0  0
 15 23  1  0  0  0
 15 33  1  0  0  0
 18 24  1  0  0  0
 18 25  1  0  0  0
 18 26  1  0  0  0
 19 23  1  0  0  0
 19 24  1  0  0  0
 19 34  1  0  0  0
 19 35  1  0  0  0
 20 21  1  0  0  0
 20 22  2  0  0  0
 20 36  1  0  0  0
 21 37  1  0  0  0
 22 38  1  0  0  0
 23 39  1  0  0  0
 23 40  1  0  0  0
 24 41  1  0  0  0
 24 42  1  0  0  0
 25 27  1  0  0  0
 25 43  1  0  0  0
 25 44  1  0  0  0
 26 28  1  0  0  0
 26 45  1  0  0  0
 26 46  1  0  0  0
 27 47  1  0  0  0
 27 48  1  0  0  0
 27 49  1  0  0  0
 28 50  1  0  0  0
 28 51  1  0  0  0
 28 52  1  0  0  0
M  END
> <s_m_entry_id>
49472

> <s_m_entry_name>
dock_pv.62

> <s_m_Source_Path>
/home/csk/Desktop/cluster/DUD-E-result/fgfr1

> <s_m_Source_File>
dock_pv.maegz

> <i_m_Source_File_Index>
62

> <chembl_id>
CHEMBL56958

> <chembl_pref_name>
None

> <i_lp_mmshare_version>
53161

> <i_f3d_flags>
0

> <r_lp_tautomer_probability>
1

> <s_lp_Force_Field>
OPLS_2005

> <r_lp_Energy>
18.160439

> <b_lp_Chiralities_Consistent>
1

> <s_lp_Variant>
CHEMBL3650_lig198-1

> <s_i_glide_gridfile>
glide-grid_3c4f

> <i_i_glide_lignum>
220

> <i_i_glide_rotatable_bonds>
8

> <r_i_docking_score>
-8.2821872528788

> <r_i_glide_ligand_efficiency>
-0.295792401888529

> <r_i_glide_ligand_efficiency_sa>
-0.898199944541658

> <r_i_glide_ligand_efficiency_ln>
-1.91177199354881

> <r_i_glide_gscore>
-8.2821872528788

> <r_i_glide_lipo>
-2.90657949670949

> <r_i_glide_hbond>
-0.759340387446154

> <r_i_glide_metal>
0

> <r_i_glide_rewards>
-2.51779893733254

> <r_i_glide_evdw>
-22.0061779022217

> <r_i_glide_ecoul>
-8.87341213226318

> <r_i_glide_erotb>
0.332852283559941

> <r_i_glide_esite>
0

> <r_i_glide_emodel>
-37.650747020309

> <r_i_glide_energy>
-30.8795900344849

> <r_i_glide_einternal>
5.04810762405396

> <i_i_glide_confnum>
2

> <i_i_glide_posenum>
10

> <r_i_glide_eff_state_penalty>
0

> <s_user_duplicate_titles>
CHEMBL3650_lig198

> <s_m_subgroup_title>
dock_pv

> <s_m_subgroupid>
dock_pv

> <b_m_subgroup_collapsed>
1

$$$$
CHEMBL3650_lig549
                    3D
 Schrodinger Suite 2021-1.
 27 29  0  0  1  0            999 V2000
    9.2554    4.3375   21.4939 C   0  0  0  0  0  0
    9.1299    3.7986   22.9353 C   0  0  0  0  0  0
    8.2482    2.6212   23.0163 N   0  0  0  0  0  0
    7.1340    2.3995   22.2811 C   0  0  0  0  0  0
    7.9937    4.0972   20.7096 C   0  0  0  0  0  0
    7.0257    3.2098   21.1004 C   0  0  0  0  0  0
    6.0455    3.2436   20.0868 C   0  0  0  0  0  0
    6.3940    4.2009   19.1358 C   0  0  0  0  0  0
    7.5711    4.7370   19.5758 N   0  0  0  0  0  0
    5.7459    4.6621   17.8839 C   0  0  0  0  0  0
    4.3748    4.9256   17.8532 C   0  0  0  0  0  0
    3.8022    5.3551   16.6564 C   0  0  0  0  0  0
    4.5065    5.5368   15.5184 N   0  0  0  0  0  0
    5.8362    5.2998   15.5673 C   0  0  0  0  0  0
    6.4929    4.8541   16.7151 C   0  0  0  0  0  0
    6.3696    1.5368   22.6529 O   0  0  0  0  0  0
    9.5788    5.3731   21.4671 H   0  0  0  0  0  0
   10.0440    3.7488   21.0527 H   0  0  0  0  0  0
    8.7712    4.5709   23.6091 H   0  0  0  0  0  0
   10.1149    3.5246   23.3170 H   0  0  0  0  0  0
    8.4304    1.9290   23.7311 H   0  0  0  0  0  0
    5.1715    2.6086   20.0394 H   0  0  0  0  0  0
    8.0973    5.4455   19.0834 H   0  0  0  0  0  0
    3.7531    4.7703   18.7178 H   0  0  0  0  0  0
    2.7405    5.5359   16.5787 H   0  0  0  0  0  0
    6.3678    5.4833   14.6526 H   0  0  0  0  0  0
    7.5560    4.6656   16.6874 H   0  0  0  0  0  0
  1  5  1  0  0  0
  1  2  1  0  0  0
  1 17  1  0  0  0
  1 18  1  0  0  0
  2  3  1  0  0  0
  2 19  1  0  0  0
  2 20  1  0  0  0
  3  4  1  0  0  0
  3 21  1  0  0  0
  4  6  1  0  0  0
  4 16  2  0  0  0
  5  9  1  0  0  0
  5  6  2  0  0  0
  6  7  1  0  0  0
  7  8  2  0  0  0
  7 22  1  0  0  0
  8  9  1  0  0  0
  8 10  1  0  0  0
  9 23  1  0  0  0
 10 11  2  0  0  0
 10 15  1  0  0  0
 11 12  1  0  0  0
 11 24  1  0  0  0
 12 13  2  0  0  0
 12 25  1  0  0  0
 13 14  1  0  0  0
 14 15  2  0  0  0
 14 26  1  0  0  0
 15 27  1  0  0  0
M  END
> <s_m_entry_id>
49473

> <s_m_entry_name>
dock_pv.63

> <s_m_Source_Path>
/home/csk/Desktop/cluster/DUD-E-result/fgfr1

> <s_m_Source_File>
dock_pv.maegz

> <i_m_Source_File_Index>
63

> <chembl_id>
CHEMBL225519

> <chembl_pref_name>
None

> <i_lp_mmshare_version>
53161

> <i_f3d_flags>
0

> <r_lp_tautomer_probability>
1

> <s_lp_Force_Field>
OPLS_2005

> <r_lp_Energy>
13.581071

> <b_lp_Chiralities_Consistent>
1

> <s_lp_Variant>
CHEMBL3650_lig549-1

> <s_i_glide_gridfile>
glide-grid_3c4f

> <i_i_glide_lignum>
613

> <i_i_glide_rotatable_bonds>
1

> <r_i_docking_score>
-8.28032245732226

> <r_i_glide_ligand_efficiency>
-0.517520153582641

> <r_i_glide_ligand_efficiency_sa>
-1.30406906928198

> <r_i_glide_ligand_efficiency_ln>
-2.19486487050893

> <r_i_glide_gscore>
-8.28032245732226

> <r_i_glide_lipo>
-2.47234140200292

> <r_i_glide_hbond>
-0.410799757313712

> <r_i_glide_metal>
0

> <r_i_glide_rewards>
-3.56426769800071

> <r_i_glide_evdw>
-24.3021278381348

> <r_i_glide_ecoul>
-5.8304762840271

> <r_i_glide_erotb>
0.256764234505889

> <r_i_glide_esite>
0

> <r_i_glide_emodel>
-45.6205307881735

> <r_i_glide_energy>
-30.1326041221619

> <r_i_glide_einternal>
1.45856368541718

> <i_i_glide_confnum>
2

> <i_i_glide_posenum>
395

> <r_i_glide_eff_state_penalty>
0

> <s_user_duplicate_titles>
CHEMBL3650_lig549

> <s_m_subgroup_title>
dock_pv

> <s_m_subgroupid>
dock_pv

> <b_m_subgroup_collapsed>
1

$$$$
CHEMBL3650_lig376
                    3D
 Schrodinger Suite 2021-1.
 56 58  0  0  1  0            999 V2000
    5.8885    3.6056   17.2737 C   0  0  0  0  0  0
    6.9828    4.4041   17.5459 C   0  0  0  0  0  0
    7.5710    4.5242   18.7587 N   0  0  0  0  0  0
    5.1710    3.7959   15.9670 C   0  0  0  0  0  0
    7.1708    3.7058   19.7615 C   0  0  0  0  0  0
    5.5196    2.7017   18.2732 C   0  0  0  0  0  0
    6.1575    2.7367   19.5395 C   0  0  0  0  0  0
    7.8241    3.7507   21.0225 C   0  0  0  0  0  0
    6.4983    1.8863   21.8037 N   0  0  0  0  0  0
    7.4709    2.8066   21.9979 C   0  0  0  0  0  0
    5.5593    3.1261   14.8087 C   0  0  0  0  0  0
    4.1630    4.7628   15.8530 C   0  0  0  0  0  0
    5.8756    1.8649   20.6049 C   0  0  0  0  0  0
    7.5710    5.0607   16.4862 N   0  0  0  0  0  0
    8.1248    2.6893   23.2295 N   0  0  0  0  0  0
    6.7710    1.9370   14.9132 Cl  0  0  0  0  0  0
    3.5713    5.5370   17.2793 Cl  0  0  0  0  0  0
   11.7436    6.0413   26.5099 N   0  0  0  0  0  0
    3.9835    4.3587   13.4819 C   0  0  0  0  0  0
    4.9744    3.3911   13.5742 C   0  0  0  0  0  0
    3.5712    5.0464   14.6217 C   0  0  0  0  0  0
   11.3644    6.9180   27.6330 C   0  0  0  0  0  0
   13.1445    5.6000   26.6505 C   0  0  0  0  0  0
   10.8228    4.8953   26.4289 C   0  0  0  0  0  0
    9.3470    3.4173   23.5326 C   0  0  0  0  0  0
   11.1411    3.8851   25.3019 C   0  0  0  0  0  0
    9.9364    3.0179   24.8928 C   0  0  0  0  0  0
   10.0201    7.6395   27.4303 C   0  0  0  0  0  0
   14.1623    6.7373   26.4631 C   0  0  0  0  0  0
    4.7710    1.9557   18.0942 H   0  0  0  0  0  0
    8.6132    4.4697   21.1791 H   0  0  0  0  0  0
    5.0939    1.1369   20.4884 H   0  0  0  0  0  0
    7.2869    4.8744   15.5319 H   0  0  0  0  0  0
    8.4761    5.4800   16.6602 H   0  0  0  0  0  0
    7.9771    1.8168   23.7207 H   0  0  0  0  0  0
    3.5592    4.5971   12.5184 H   0  0  0  0  0  0
    5.2924    2.8615   12.6885 H   0  0  0  0  0  0
    2.7955    5.7941   14.5457 H   0  0  0  0  0  0
   12.1136    7.6940   27.7766 H   0  0  0  0  0  0
   11.3458    6.3508   28.5658 H   0  0  0  0  0  0
   13.3004    5.1037   27.6103 H   0  0  0  0  0  0
   13.3852    4.8626   25.8854 H   0  0  0  0  0  0
   10.8291    4.3646   27.3834 H   0  0  0  0  0  0
    9.7985    5.2408   26.2933 H   0  0  0  0  0  0
    9.1589    4.4906   23.4891 H   0  0  0  0  0  0
   10.0897    3.2458   22.7511 H   0  0  0  0  0  0
   11.6482    4.3484   24.4536 H   0  0  0  0  0  0
   11.8778    3.1911   25.7101 H   0  0  0  0  0  0
   10.2239    1.9664   24.8519 H   0  0  0  0  0  0
    9.1707    3.0545   25.6674 H   0  0  0  0  0  0
    9.8578    8.3689   28.2243 H   0  0  0  0  0  0
    9.1710    6.9578   27.4540 H   0  0  0  0  0  0
    9.9996    8.1833   26.4862 H   0  0  0  0  0  0
   15.1708    6.3348   26.3627 H   0  0  0  0  0  0
   13.9527    7.3109   25.5593 H   0  0  0  0  0  0
   14.1798    7.4247   27.3078 H   0  0  0  0  0  0
  1  2  1  0  0  0
  1  4  1  0  0  0
  1  6  2  0  0  0
  2  3  2  0  0  0
  2 14  1  0  0  0
  3  5  1  0  0  0
  4 11  2  0  0  0
  4 12  1  0  0  0
  5  7  1  0  0  0
  5  8  2  0  0  0
  6  7  1  0  0  0
  6 30  1  0  0  0
  7 13  2  0  0  0
  8 10  1  0  0  0
  8 31  1  0  0  0
  9 13  1  0  0  0
  9 10  2  0  0  0
 10 15  1  0  0  0
 11 16  1  0  0  0
 11 20  1  0  0  0
 12 17  1  0  0  0
 12 21  2  0  0  0
 13 32  1  0  0  0
 14 33  1  0  0  0
 14 34  1  0  0  0
 15 25  1  0  0  0
 15 35  1  0  0  0
 18 24  1  0  0  0
 18 22  1  0  0  0
 18 23  1  0  0  0
 19 21  1  0  0  0
 19 20  2  0  0  0
 19 36  1  0  0  0
 20 37  1  0  0  0
 21 38  1  0  0  0
 22 28  1  0  0  0
 22 39  1  0  0  0
 22 40  1  0  0  0
 23 29  1  0  0  0
 23 41  1  0  0  0
 23 42  1  0  0  0
 24 26  1  0  0  0
 24 43  1  0  0  0
 24 44  1  0  0  0
 25 27  1  0  0  0
 25 45  1  0  0  0
 25 46  1  0  0  0
 26 27  1  0  0  0
 26 47  1  0  0  0
 26 48  1  0  0  0
 27 49  1  0  0  0
 27 50  1  0  0  0
 28 51  1  0  0  0
 28 52  1  0  0  0
 28 53  1  0  0  0
 29 54  1  0  0  0
 29 55  1  0  0  0
 29 56  1  0  0  0
M  END
> <s_m_entry_id>
49474

> <s_m_entry_name>
dock_pv.64

> <s_m_Source_Path>
/home/csk/Desktop/cluster/DUD-E-result/fgfr1

> <s_m_Source_File>
dock_pv.maegz

> <i_m_Source_File_Index>
64

> <chembl_id>
CHEMBL188648

> <chembl_pref_name>
None

> <i_lp_mmshare_version>
53161

> <i_f3d_flags>
0

> <r_lp_tautomer_probability>
1

> <s_lp_Force_Field>
OPLS_2005

> <r_lp_Energy>
18.574199

> <b_lp_Chiralities_Consistent>
1

> <s_lp_Variant>
CHEMBL3650_lig376-1

> <s_i_glide_gridfile>
glide-grid_3c4f

> <i_i_glide_lignum>
405

> <i_i_glide_rotatable_bonds>
9

> <r_i_docking_score>
-8.27892213026113

> <r_i_glide_ligand_efficiency>
-0.28548007345728

> <r_i_glide_ligand_efficiency_sa>
-0.877085232096365

> <r_i_glide_ligand_efficiency_ln>
-1.89566323247829

> <r_i_glide_gscore>
-8.27892213026113

> <r_i_glide_lipo>
-3.54187162103082

> <r_i_glide_hbond>
-0.171935868312871

> <r_i_glide_metal>
0

> <r_i_glide_rewards>
-2.73625584343751

> <r_i_glide_evdw>
-27.7290916442871

> <r_i_glide_ecoul>
-7.63700294494629

> <r_i_glide_erotb>
0.745008102772652

> <r_i_glide_esite>
-0.0418618762962735

> <r_i_glide_emodel>
-34.6430917835716

> <r_i_glide_energy>
-35.3660945892334

> <r_i_glide_einternal>
10.9963626861572

> <i_i_glide_confnum>
5

> <i_i_glide_posenum>
157

> <r_i_glide_eff_state_penalty>
0

> <s_user_duplicate_titles>
CHEMBL3650_lig376,318094

> <s_m_subgroup_title>
dock_pv

> <s_m_subgroupid>
dock_pv

> <b_m_subgroup_collapsed>
1

$$$$
CHEMBL3650_lig453
                    3D
 Schrodinger Suite 2021-1.
 28 31  0  0  1  0            999 V2000
    7.9670    2.4718   23.2152 C   0  0  0  0  0  0
    8.9833    3.4220   23.2838 C   0  0  0  0  0  0
    9.1741    4.3369   22.2530 C   0  0  0  0  0  0
    8.3571    4.3479   21.1281 C   0  0  0  0  0  0
    7.3685    3.3700   21.0115 C   0  0  0  0  0  0
    6.4374    3.0014   20.0103 C   0  0  0  0  0  0
    6.2097    3.5363   18.6941 C   0  0  0  0  0  0
    5.9715    2.7370   17.6074 N   0  0  0  0  0  0
    5.8174    3.5477   16.5101 C   0  0  0  0  0  0
    5.5390    3.3222   15.1558 C   0  0  0  0  0  0
    5.4080    4.4547   14.3510 C   0  0  0  0  0  0
    5.5659    5.7397   14.8648 C   0  0  0  0  0  0
    5.8508    5.9518   16.2114 C   0  0  0  0  0  0
    5.9859    4.8444   17.0470 C   0  0  0  0  0  0
    6.1821    1.5370   21.7671 N   0  0  0  0  0  0
    7.1715    2.4247   22.0613 C   0  0  0  0  0  0
    6.2718    4.8046   18.3854 N   0  0  0  0  0  0
    5.8224    1.8841   20.5211 N   0  0  0  0  0  0
    7.8158    1.7737   24.0235 H   0  0  0  0  0  0
    9.6284    3.4496   24.1494 H   0  0  0  0  0  0
    9.9709    5.0564   22.3137 H   0  0  0  0  0  0
    8.4996    5.0690   20.3391 H   0  0  0  0  0  0
    5.9270    1.7312   17.6576 H   0  0  0  0  0  0
    5.4142    2.3368   14.7389 H   0  0  0  0  0  0
    5.1951    4.3447   13.2970 H   0  0  0  0  0  0
    5.4771    6.5861   14.1993 H   0  0  0  0  0  0
    5.9710    6.9521   16.5961 H   0  0  0  0  0  0
    5.1056    1.3667   20.0291 H   0  0  0  0  0  0
  1 16  1  0  0  0
  1 19  1  0  0  0
  1  2  2  0  0  0
  2 20  1  0  0  0
  2  3  1  0  0  0
  3 21  1  0  0  0
  3  4  2  0  0  0
  4 22  1  0  0  0
  4  5  1  0  0  0
  5 16  1  0  0  0
  5  6  2  0  0  0
  6 18  1  0  0  0
  6  7  1  0  0  0
  7  8  1  0  0  0
  7 17  2  0  0  0
  8  9  1  0  0  0
  8 23  1  0  0  0
  9 10  2  0  0  0
  9 14  1  0  0  0
 10 11  1  0  0  0
 10 24  1  0  0  0
 11 12  2  0  0  0
 11 25  1  0  0  0
 12 13  1  0  0  0
 12 26  1  0  0  0
 13 14  2  0  0  0
 13 27  1  0  0  0
 14 17  1  0  0  0
 15 18  1  0  0  0
 15 16  2  0  0  0
 18 28  1  0  0  0
M  END
> <s_m_entry_id>
49476

> <s_m_entry_name>
dock_pv.66

> <s_m_Source_Path>
/home/csk/Desktop/cluster/DUD-E-result/fgfr1

> <s_m_Source_File>
dock_pv.maegz

> <i_m_Source_File_Index>
66

> <chembl_id>
CHEMBL383990

> <chembl_pref_name>
None

> <i_lp_mmshare_version>
53161

> <i_f3d_flags>
0

> <r_lp_tautomer_probability>
0.0196078431372549

> <s_lp_Force_Field>
OPLS_2005

> <r_lp_Energy>
26.946085

> <b_lp_Chiralities_Consistent>
1

> <s_lp_Variant>
CHEMBL3650_lig453-2

> <s_i_glide_gridfile>
glide-grid_3c4f

> <i_i_glide_lignum>
508

> <i_i_glide_rotatable_bonds>
1

> <r_i_docking_score>
-8.20436074170159

> <r_i_glide_ligand_efficiency>
-0.455797818983421

> <r_i_glide_ligand_efficiency_sa>
-1.19452821044911

> <r_i_glide_ligand_efficiency_ln>
-2.1088886235742

> <r_i_glide_gscore>
-8.20436074170159

> <r_i_glide_lipo>
-2.51921731214602

> <r_i_glide_hbond>
-0.34440329094943

> <r_i_glide_metal>
0

> <r_i_glide_rewards>
-3.60300142009658

> <r_i_glide_evdw>
-30.9022617340088

> <r_i_glide_ecoul>
-2.74433922767639

> <r_i_glide_erotb>
0.219025252342347

> <r_i_glide_esite>
0

> <r_i_glide_emodel>
-48.312640224823

> <r_i_glide_energy>
-33.6466009616852

> <r_i_glide_einternal>
1.89490950107574

> <i_i_glide_confnum>
1

> <i_i_glide_posenum>
258

> <r_i_glide_eff_state_penalty>
0

> <s_user_duplicate_titles>
CHEMBL3650_lig453

> <s_m_subgroup_title>
dock_pv

> <s_m_subgroupid>
dock_pv

> <b_m_subgroup_collapsed>
1

$$$$
CHEMBL3650_lig869
                    3D
 Schrodinger Suite 2021-1.
 40 43  0  0  1  0            999 V2000
    6.3724    3.7964   19.9283 N   0  0  0  0  0  0
    5.8844    2.4569   20.2043 C   0  0  0  0  0  0
    6.5439    2.1199   21.5282 C   0  0  0  0  0  0
    7.5119    3.1599   21.7788 C   0  0  0  0  0  0
    7.3382    4.1217   20.8645 C   0  0  0  0  0  0
    6.3708    1.1384   22.2330 O   0  0  0  0  0  0
    6.2066    4.2570   18.6128 C   0  0  0  0  0  0
    4.9405    4.5520   18.0933 C   0  0  0  0  0  0
    4.7787    4.9232   16.7526 C   0  0  0  0  0  0
    5.9149    5.0196   15.9380 C   0  0  0  0  0  0
    7.1703    4.7339   16.4611 C   0  0  0  0  0  0
    7.3160    4.3441   17.7821 C   0  0  0  0  0  0
    3.4921    5.1371   16.3020 O   0  0  0  0  0  0
    3.2491    5.1292   14.8971 C   0  0  0  0  0  0
    8.4579    3.1421   22.9009 C   0  0  0  0  0  0
    9.5192    3.9153   22.9880 N   0  0  0  0  0  0
   10.1291    3.5636   24.1680 C   0  0  0  0  0  0
    9.3766    2.5881   24.8583 C   0  0  0  0  0  0
    8.3308    2.3371   24.0070 N   0  0  0  0  0  0
   11.3278    4.0256   24.7317 C   0  0  0  0  0  0
   11.7074    3.5364   25.9834 C   0  0  0  0  0  0
   10.9343    2.5868   26.6533 C   0  0  0  0  0  0
    9.7524    2.0798   26.1068 C   0  0  0  0  0  0
    7.9699    5.3263   20.7578 N   0  0  0  0  0  0
    4.7983    2.4162   20.2528 H   0  0  0  0  0  0
    6.1648    1.7294   19.4411 H   0  0  0  0  0  0
    4.0646    4.4621   18.7173 H   0  0  0  0  0  0
    5.8504    5.3074   14.8988 H   0  0  0  0  0  0
    8.0522    4.7972   15.8526 H   0  0  0  0  0  0
    8.3040    4.1145   18.1531 H   0  0  0  0  0  0
    2.1820    5.2471   14.7155 H   0  0  0  0  0  0
    3.7634    5.9379   14.3817 H   0  0  0  0  0  0
    3.5620    4.1857   14.4475 H   0  0  0  0  0  0
    7.6013    1.6451   24.0938 H   0  0  0  0  0  0
   11.9513    4.7372   24.2162 H   0  0  0  0  0  0
   12.6276    3.8843   26.4324 H   0  0  0  0  0  0
   11.2708    2.2183   27.6123 H   0  0  0  0  0  0
    9.1711    1.3260   26.6175 H   0  0  0  0  0  0
    8.6842    5.5771   21.4269 H   0  0  0  0  0  0
    7.7521    5.9693   20.0119 H   0  0  0  0  0  0
  1  2  1  0  0  0
  1  5  1  0  0  0
  1  7  1  0  0  0
  2  3  1  0  0  0
  2 25  1  0  0  0
  2 26  1  0  0  0
  3  4  1  0  0  0
  3  6  2  0  0  0
  4  5  2  0  0  0
  4 15  1  0  0  0
  5 24  1  0  0  0
  7  8  1  0  0  0
  7 12  2  0  0  0
  8  9  2  0  0  0
  8 27  1  0  0  0
  9 10  1  0  0  0
  9 13  1  0  0  0
 10 11  2  0  0  0
 10 28  1  0  0  0
 11 12  1  0  0  0
 11 29  1  0  0  0
 12 30  1  0  0  0
 13 14  1  0  0  0
 14 31  1  0  0  0
 14 32  1  0  0  0
 14 33  1  0  0  0
 15 16  2  0  0  0
 15 19  1  0  0  0
 16 17  1  0  0  0
 17 18  1  0  0  0
 17 20  2  0  0  0
 18 19  1  0  0  0
 18 23  2  0  0  0
 19 34  1  0  0  0
 20 21  1  0  0  0
 20 35  1  0  0  0
 21 22  2  0  0  0
 21 36  1  0  0  0
 22 23  1  0  0  0
 22 37  1  0  0  0
 23 38  1  0  0  0
 24 39  1  0  0  0
 24 40  1  0  0  0
M  END
> <s_m_entry_id>
49477

> <s_m_entry_name>
dock_pv.67

> <s_m_Source_Path>
/home/csk/Desktop/cluster/DUD-E-result/fgfr1

> <s_m_Source_File>
dock_pv.maegz

> <i_m_Source_File_Index>
67

> <chembl_id>
CHEMBL3782011

> <chembl_pref_name>
None

> <i_lp_mmshare_version>
53161

> <i_f3d_flags>
0

> <r_lp_tautomer_probability>
0.999998894702016

> <s_lp_Force_Field>
OPLS_2005

> <r_lp_Energy>
42.50082

> <b_lp_Chiralities_Consistent>
1

> <s_lp_Variant>
CHEMBL3650_lig869-1

> <s_i_glide_gridfile>
glide-grid_3c4f

> <i_i_glide_lignum>
1062

> <i_i_glide_rotatable_bonds>
3

> <r_i_docking_score>
-8.20291875885108

> <r_i_glide_ligand_efficiency>
-0.341788281618795

> <r_i_glide_ligand_efficiency_sa>
-0.985888003557227

> <r_i_glide_ligand_efficiency_ln>
-1.96333486640787

> <r_i_glide_gscore>
-8.20291875885108

> <r_i_glide_lipo>
-2.3357141503735

> <r_i_glide_hbond>
-0.314034584587377

> <r_i_glide_metal>
0

> <r_i_glide_rewards>
-3.03390640587608

> <r_i_glide_evdw>
-32.971363067627

> <r_i_glide_ecoul>
-8.23057842254639

> <r_i_glide_erotb>
0.363891298749192

> <r_i_glide_esite>
0

> <r_i_glide_emodel>
-53.1075801549597

> <r_i_glide_energy>
-41.2019414901733

> <r_i_glide_einternal>
7.12330436706543

> <i_i_glide_confnum>
1

> <i_i_glide_posenum>
37

> <r_i_glide_eff_state_penalty>
0

> <s_user_duplicate_titles>
CHEMBL3650_lig869

> <s_m_subgroup_title>
dock_pv

> <s_m_subgroupid>
dock_pv

> <b_m_subgroup_collapsed>
1

$$$$
CHEMBL3650_lig332
                    3D
 Schrodinger Suite 2021-1.
 45 47  0  0  1  0            999 V2000
    7.6628    3.3615   20.9119 C   0  0  0  0  0  0
    6.3835    4.3012   17.3710 C   0  0  0  0  0  0
    7.0568    4.3218   18.6205 N   0  0  0  0  0  0
    6.8449    3.4490   19.7157 C   0  0  0  0  0  0
    7.2841    2.4396   21.9397 C   0  0  0  0  0  0
    8.8647    4.0565   21.1214 C   0  0  0  0  0  0
    6.7625    3.3784   16.3876 C   0  0  0  0  0  0
    8.0074    2.3370   23.1419 C   0  0  0  0  0  0
    4.6203    5.0866   15.8757 C   0  0  0  0  0  0
    5.2766    5.1268   17.1019 C   0  0  0  0  0  0
    4.9993    4.1615   14.9146 C   0  0  0  0  0  0
    6.0608    3.2950   15.1765 C   0  0  0  0  0  0
    9.6770    3.7928   22.2336 C   0  0  0  0  0  0
    9.2079    3.0223   23.3005 C   0  0  0  0  0  0
    6.2354    1.6126   21.8121 N   0  0  0  0  0  0
    5.7935    2.5474   19.6218 C   0  0  0  0  0  0
    4.7597    5.9370   18.0337 F   0  0  0  0  0  0
    4.1024    4.0688   13.4388 Cl  0  0  0  0  0  0
    5.5710    1.6605   20.6529 C   0  0  0  0  0  0
    6.3710    2.3370   14.2528 O   0  0  0  0  0  0
   10.9338    4.3370   22.2530 O   0  0  0  0  0  0
    9.9724    2.9914   24.4512 O   0  0  0  0  0  0
    9.5974    4.4246   26.8428 O   0  0  0  0  0  0
    9.5186    2.3368   25.6347 C   0  0  0  0  0  0
   10.0959    3.0893   26.8414 C   0  0  0  0  0  0
   12.0545    3.4791   22.4228 C   0  0  0  0  0  0
   10.1285    5.2313   27.8823 C   0  0  0  0  0  0
    7.8825    4.9022   18.6622 H   0  0  0  0  0  0
    9.1710    4.7369   20.3537 H   0  0  0  0  0  0
    7.5709    2.6923   16.5848 H   0  0  0  0  0  0
    7.6343    1.6654   23.8992 H   0  0  0  0  0  0
    3.7773    5.7370   15.6932 H   0  0  0  0  0  0
    5.1193    2.5415   18.7782 H   0  0  0  0  0  0
    4.6425    1.1370   20.6530 H   0  0  0  0  0  0
    5.7355    2.3605   13.5315 H   0  0  0  0  0  0
    9.8639    1.3025   25.6313 H   0  0  0  0  0  0
    8.4350    2.3253   25.7392 H   0  0  0  0  0  0
   11.1864    3.0871   26.7850 H   0  0  0  0  0  0
    9.8114    2.5807   27.7642 H   0  0  0  0  0  0
   12.9483    3.9945   22.0719 H   0  0  0  0  0  0
   12.2225    3.2367   23.4704 H   0  0  0  0  0  0
   11.9711    2.5576   21.8533 H   0  0  0  0  0  0
    9.6948    6.2299   27.8241 H   0  0  0  0  0  0
   11.2115    5.3320   27.7940 H   0  0  0  0  0  0
    9.8927    4.8213   28.8654 H   0  0  0  0  0  0
  1  4  1  0  0  0
  1  5  1  0  0  0
  1  6  2  0  0  0
  2  3  1  0  0  0
  2  7  2  0  0  0
  2 10  1  0  0  0
  3  4  1  0  0  0
  3 28  1  0  0  0
  4 16  2  0  0  0
  5  8  2  0  0  0
  5 15  1  0  0  0
  6 13  1  0  0  0
  6 29  1  0  0  0
  7 12  1  0  0  0
  7 30  1  0  0  0
  8 14  1  0  0  0
  8 31  1  0  0  0
  9 10  2  0  0  0
  9 11  1  0  0  0
  9 32  1  0  0  0
 10 17  1  0  0  0
 11 18  1  0  0  0
 11 12  2  0  0  0
 12 20  1  0  0  0
 13 14  2  0  0  0
 13 21  1  0  0  0
 14 22  1  0  0  0
 15 19  2  0  0  0
 16 19  1  0  0  0
 16 33  1  0  0  0
 19 34  1  0  0  0
 20 35  1  0  0  0
 21 26  1  0  0  0
 22 24  1  0  0  0
 23 25  1  0  0  0
 23 27  1  0  0  0
 24 25  1  0  0  0
 24 36  1  0  0  0
 24 37  1  0  0  0
 25 38  1  0  0  0
 25 39  1  0  0  0
 26 40  1  0  0  0
 26 41  1  0  0  0
 26 42  1  0  0  0
 27 43  1  0  0  0
 27 44  1  0  0  0
 27 45  1  0  0  0
M  END
> <s_m_entry_id>
49478

> <s_m_entry_name>
dock_pv.68

> <s_m_Source_Path>
/home/csk/Desktop/cluster/DUD-E-result/fgfr1

> <s_m_Source_File>
dock_pv.maegz

> <i_m_Source_File_Index>
68

> <chembl_id>
CHEMBL433936

> <chembl_pref_name>
None

> <i_lp_mmshare_version>
53161

> <i_f3d_flags>
0

> <r_lp_tautomer_probability>
1

> <s_lp_Force_Field>
OPLS_2005

> <r_lp_Energy>
25.218721

> <b_lp_Chiralities_Consistent>
1

> <s_lp_Variant>
CHEMBL3650_lig332-1

> <s_i_glide_gridfile>
glide-grid_3c4f

> <i_i_glide_lignum>
356

> <i_i_glide_rotatable_bonds>
8

> <r_i_docking_score>
-8.19172106060496

> <r_i_glide_ligand_efficiency>
-0.303397076318702

> <r_i_glide_ligand_efficiency_sa>
-0.910191227956159

> <r_i_glide_ligand_efficiency_ln>
-1.90689761183234

> <r_i_glide_gscore>
-8.19172106060496

> <r_i_glide_lipo>
-3.63986750403867

> <r_i_glide_hbond>
-0.353847145428852

> <r_i_glide_metal>
0

> <r_i_glide_rewards>
-2.06202213454873

> <r_i_glide_evdw>
-36.3548355102539

> <r_i_glide_ecoul>
-6.34038925170898

> <r_i_glide_erotb>
0.632815886680337

> <r_i_glide_esite>
0

> <r_i_glide_emodel>
-44.0687408898928

> <r_i_glide_energy>
-42.6952247619629

> <r_i_glide_einternal>
13.2914791107178

> <i_i_glide_confnum>
7

> <i_i_glide_posenum>
363

> <r_i_glide_eff_state_penalty>
0

> <s_user_duplicate_titles>
CHEMBL3650_lig332

> <s_m_subgroup_title>
dock_pv

> <s_m_subgroupid>
dock_pv

> <b_m_subgroup_collapsed>
1

$$$$
CHEMBL3650_lig2858
                    3D
 Schrodinger Suite 2021-1.
 33 35  0  0  1  0            999 V2000
    4.5400    5.5287   17.3923 O   0  0  0  0  0  0
    6.5669    2.1112   21.7607 N   0  0  0  0  0  0
    5.2827    1.9370   19.6961 N   0  0  0  0  0  0
    5.2411    2.5791   18.5186 N   0  0  0  0  0  0
    6.4672    4.3033   17.4635 N   0  0  0  0  0  0
    6.8253    3.5296   19.8022 C   0  0  0  0  0  0
    6.2252    2.4864   20.5305 C   0  0  0  0  0  0
    6.1481    3.5226   18.5501 C   0  0  0  0  0  0
    8.3398    3.7861   21.6870 C   0  0  0  0  0  0
    7.6235    2.7404   22.3465 C   0  0  0  0  0  0
    7.8763    4.2072   20.4178 C   0  0  0  0  0  0
    9.4821    4.3364   22.3044 C   0  0  0  0  0  0
    8.0374    2.3370   23.6334 C   0  0  0  0  0  0
    5.6057    5.1621   16.8902 C   0  0  0  0  0  0
    9.8925    3.8823   23.5561 C   0  0  0  0  0  0
    9.1708    2.8964   24.2196 C   0  0  0  0  0  0
    6.0289    5.6947   15.5194 C   0  0  0  0  0  0
    5.4421    4.8952   14.3340 C   0  0  0  0  0  0
    3.9057    4.9101   14.2335 C   0  0  0  0  0  0
    4.7026    1.1161   19.8535 H   0  0  0  0  0  0
    7.3654    4.1554   17.0281 H   0  0  0  0  0  0
    8.3711    5.0107   19.9002 H   0  0  0  0  0  0
   10.0338    5.1106   21.7937 H   0  0  0  0  0  0
    7.4895    1.5588   24.1441 H   0  0  0  0  0  0
   10.7730    4.3035   24.0192 H   0  0  0  0  0  0
    9.4934    2.5540   25.1923 H   0  0  0  0  0  0
    7.1178    5.6917   15.4535 H   0  0  0  0  0  0
    5.7474    6.7370   15.4321 H   0  0  0  0  0  0
    5.7980    3.8641   14.3675 H   0  0  0  0  0  0
    5.8526    5.3096   13.4115 H   0  0  0  0  0  0
    3.5716    4.3992   13.3298 H   0  0  0  0  0  0
    3.5249    5.9314   14.1908 H   0  0  0  0  0  0
    3.4380    4.4132   15.0829 H   0  0  0  0  0  0
  1 14  2  0  0  0
  2  7  2  0  0  0
  2 10  1  0  0  0
  3  4  1  0  0  0
  3  7  1  0  0  0
  3 20  1  0  0  0
  4  8  2  0  0  0
  5  8  1  0  0  0
  5 14  1  0  0  0
  5 21  1  0  0  0
  6  7  1  0  0  0
  6  8  1  0  0  0
  6 11  2  0  0  0
  9 10  1  0  0  0
  9 11  1  0  0  0
  9 12  2  0  0  0
 10 13  2  0  0  0
 11 22  1  0  0  0
 12 15  1  0  0  0
 12 23  1  0  0  0
 13 16  1  0  0  0
 13 24  1  0  0  0
 14 17  1  0  0  0
 15 16  2  0  0  0
 15 25  1  0  0  0
 16 26  1  0  0  0
 17 18  1  0  0  0
 17 27  1  0  0  0
 17 28  1  0  0  0
 18 19  1  0  0  0
 18 29  1  0  0  0
 18 30  1  0  0  0
 19 31  1  0  0  0
 19 32  1  0  0  0
 19 33  1  0  0  0
M  END
> <s_m_entry_id>
49479

> <s_m_entry_name>
dock_pv.69

> <s_m_Source_Path>
/home/csk/Desktop/cluster/DUD-E-result/fgfr1

> <s_m_Source_File>
dock_pv.maegz

> <i_m_Source_File_Index>
69

> <chembl_id>
CHEMBL1967564

> <chembl_pref_name>
None

> <i_lp_mmshare_version>
53161

> <i_f3d_flags>
0

> <r_lp_tautomer_probability>
1

> <s_lp_Force_Field>
OPLS_2005

> <r_lp_Energy>
19.199934

> <b_lp_Chiralities_Consistent>
1

> <s_lp_Variant>
CHEMBL3650_lig2858-1

> <s_i_glide_gridfile>
glide-grid_3c4f

> <i_i_glide_lignum>
3595

> <i_i_glide_rotatable_bonds>
4

> <r_i_docking_score>
-8.18426108027738

> <r_i_glide_ligand_efficiency>
-0.430750583172493

> <r_i_glide_ligand_efficiency_sa>
-1.14941556519729

> <r_i_glide_ligand_efficiency_ln>
-2.07488596566068

> <r_i_glide_gscore>
-8.18426108027738

> <r_i_glide_lipo>
-2.19649881433737

> <r_i_glide_hbond>
-0.32

> <r_i_glide_metal>
0

> <r_i_glide_rewards>
-3.62856074781281

> <r_i_glide_evdw>
-34.1780624389648

> <r_i_glide_ecoul>
-5.82796573638916

> <r_i_glide_erotb>
0.543896464279414

> <r_i_glide_esite>
0

> <r_i_glide_emodel>
-46.3999769566747

> <r_i_glide_energy>
-40.006028175354

> <r_i_glide_einternal>
7.79278516769409

> <i_i_glide_confnum>
1

> <i_i_glide_posenum>
2

> <r_i_glide_eff_state_penalty>
0

> <s_user_duplicate_titles>
CHEMBL3650_lig2858

> <s_m_subgroup_title>
dock_pv

> <s_m_subgroupid>
dock_pv

> <b_m_subgroup_collapsed>
1

$$$$
CHEMBL3650_lig925
                    3D
 Schrodinger Suite 2021-1.
 40 44  0  0  1  0            999 V2000
    8.3970    2.9989   22.6872 C   0  0  0  0  0  0
    7.2012    2.7123   21.8814 C   0  0  0  0  0  0
    7.0135    3.4529   20.6317 C   0  0  0  0  0  0
    6.3710    1.8768   22.2524 O   0  0  0  0  0  0
    7.4797    4.7369   20.3082 C   0  0  0  0  0  0
    7.1695    5.1074   19.0887 N   0  0  0  0  0  0
    6.4659    4.0845   18.5805 N   0  0  0  0  0  0
    6.3042    3.0616   19.4983 C   0  0  0  0  0  0
    8.3899    2.5985   23.9997 N   0  0  0  0  0  0
    9.6306    3.5667   22.4134 C   0  0  0  0  0  0
   10.3974    3.5369   23.6266 C   0  0  0  0  0  0
    9.5707    2.9395   24.6241 C   0  0  0  0  0  0
    9.9928    2.7708   25.9470 C   0  0  0  0  0  0
   11.2698    3.2339   26.2663 C   0  0  0  0  0  0
   12.1060    3.8065   25.3106 C   0  0  0  0  0  0
   11.6953    3.9370   23.9840 C   0  0  0  0  0  0
    6.0094    4.1375   17.2445 C   0  0  0  0  0  0
    6.4257    3.1377   16.3548 C   0  0  0  0  0  0
    4.5815    5.1711   15.5589 C   0  0  0  0  0  0
    5.1214    5.1464   16.8480 C   0  0  0  0  0  0
    5.5717    1.9371   19.2216 N   0  0  0  0  0  0
    4.9504    4.1604   14.6621 C   0  0  0  0  0  0
    5.8670    3.1608   15.0738 C   0  0  0  0  0  0
    5.9710    2.3371   13.9764 N   0  0  0  0  0  0
    5.1711    2.8714   12.9977 C   0  0  0  0  0  0
    4.5346    3.9489   13.3735 N   0  0  0  0  0  0
    8.0359    5.3933   20.9616 H   0  0  0  0  0  0
    7.6037    2.1057   24.3977 H   0  0  0  0  0  0
    9.9450    3.9387   21.4530 H   0  0  0  0  0  0
    9.3645    2.3043   26.6920 H   0  0  0  0  0  0
   11.6318    3.1252   27.2786 H   0  0  0  0  0  0
   13.1014    4.1223   25.5943 H   0  0  0  0  0  0
   12.3722    4.3381   23.2454 H   0  0  0  0  0  0
    7.1221    2.3679   16.6547 H   0  0  0  0  0  0
    3.8834    5.9359   15.2583 H   0  0  0  0  0  0
    4.8198    5.9060   17.5554 H   0  0  0  0  0  0
    5.4251    1.2119   19.9114 H   0  0  0  0  0  0
    5.1018    1.8139   18.3363 H   0  0  0  0  0  0
    6.4994    1.4856   13.8695 H   0  0  0  0  0  0
    5.1030    2.3911   12.0323 H   0  0  0  0  0  0
  1  2  1  0  0  0
  1  9  1  0  0  0
  1 10  2  0  0  0
  2  3  1  0  0  0
  2  4  2  0  0  0
  3  5  1  0  0  0
  3  8  2  0  0  0
  5  6  2  0  0  0
  5 27  1  0  0  0
  6  7  1  0  0  0
  7  8  1  0  0  0
  7 17  1  0  0  0
  8 21  1  0  0  0
  9 12  1  0  0  0
  9 28  1  0  0  0
 10 11  1  0  0  0
 10 29  1  0  0  0
 11 12  2  0  0  0
 11 16  1  0  0  0
 12 13  1  0  0  0
 13 14  2  0  0  0
 13 30  1  0  0  0
 14 15  1  0  0  0
 14 31  1  0  0  0
 15 16  2  0  0  0
 15 32  1  0  0  0
 16 33  1  0  0  0
 17 18  2  0  0  0
 17 20  1  0  0  0
 18 23  1  0  0  0
 18 34  1  0  0  0
 19 22  1  0  0  0
 19 20  2  0  0  0
 19 35  1  0  0  0
 20 36  1  0  0  0
 21 37  1  0  0  0
 21 38  1  0  0  0
 22 23  2  0  0  0
 22 26  1  0  0  0
 23 24  1  0  0  0
 24 25  1  0  0  0
 24 39  1  0  0  0
 25 26  2  0  0  0
 25 40  1  0  0  0
M  END
> <s_m_entry_id>
49480

> <s_m_entry_name>
dock_pv.70

> <s_m_Source_Path>
/home/csk/Desktop/cluster/DUD-E-result/fgfr1

> <s_m_Source_File>
dock_pv.maegz

> <i_m_Source_File_Index>
70

> <chembl_id>
CHEMBL3934547

> <chembl_pref_name>
None

> <i_lp_mmshare_version>
53161

> <i_f3d_flags>
0

> <r_lp_tautomer_probability>
1

> <s_lp_Force_Field>
OPLS_2005

> <r_lp_Energy>
21.572411

> <b_lp_Chiralities_Consistent>
1

> <s_lp_Variant>
CHEMBL3650_lig925-1

> <s_i_glide_gridfile>
glide-grid_3c4f

> <i_i_glide_lignum>
1205

> <i_i_glide_rotatable_bonds>
3

> <r_i_docking_score>
-8.15470340387333

> <r_i_glide_ligand_efficiency>
-0.313642438610513

> <r_i_glide_ligand_efficiency_sa>
-0.929164490260242

> <r_i_glide_ligand_efficiency_ln>
-1.91510533663532

> <r_i_glide_gscore>
-8.15470340387333

> <r_i_glide_lipo>
-2.77089180407401

> <r_i_glide_hbond>
-0.205220865183663

> <r_i_glide_metal>
0

> <r_i_glide_rewards>
-2.71203501330103

> <r_i_glide_evdw>
-53.7902946472168

> <r_i_glide_ecoul>
-1.74917495250702

> <r_i_glide_erotb>
0.485335253922267

> <r_i_glide_esite>
0

> <r_i_glide_emodel>
-79.7321500653017

> <r_i_glide_energy>
-55.5394695997238

> <r_i_glide_einternal>
2.89381957054138

> <i_i_glide_confnum>
5

> <i_i_glide_posenum>
304

> <r_i_glide_eff_state_penalty>
0

> <s_user_duplicate_titles>
CHEMBL3650_lig925

> <s_m_subgroup_title>
dock_pv

> <s_m_subgroupid>
dock_pv

> <b_m_subgroup_collapsed>
1

$$$$
CHEMBL3650_lig74
                    3D
 Schrodinger Suite 2021-1.
 36 38  0  0  1  0            999 V2000
    4.4137    4.9762   16.4494 N   0  0  0  0  0  0
    5.9718    4.0790   18.0836 C   0  0  0  0  0  0
    5.1390    4.3886   15.3825 C   0  0  0  0  0  0
    4.7127    4.7936   17.7865 C   0  0  0  0  0  0
    4.6798    4.5029   14.1016 N   0  0  0  0  0  0
    6.1975    3.5459   15.7068 C   0  0  0  0  0  0
    6.6688    3.4950   17.0840 C   0  0  0  0  0  0
    5.2146    3.6600   13.1850 C   0  0  0  0  0  0
    6.4240    3.7749   19.4842 C   0  0  0  0  0  0
    4.8362    3.9372   11.8725 N   0  0  0  0  0  0
    6.0641    2.6414   13.4827 N   0  0  0  0  0  0
    5.1820    3.2939   10.7403 C   0  0  0  0  0  0
    6.5491    2.6166   14.7471 C   0  0  0  0  0  0
    3.9138    5.1310   18.6530 O   0  0  0  0  0  0
    6.2661    2.4799   20.0068 C   0  0  0  0  0  0
    7.1052    4.6971   20.2928 C   0  0  0  0  0  0
    5.9583    2.3408   10.6561 O   0  0  0  0  0  0
    3.0511    5.4320   16.0961 C   0  0  0  0  0  0
    5.5712    1.2374   19.0533 Cl  0  0  0  0  0  0
    7.2172    6.3371   19.8526 Cl  0  0  0  0  0  0
    7.4642    3.0533   22.0211 C   0  0  0  0  0  0
    4.5602    3.8356    9.4718 C   0  0  0  0  0  0
    6.7447    2.1332   21.2719 C   0  0  0  0  0  0
    7.6527    4.3344   21.5195 C   0  0  0  0  0  0
    7.5684    2.9377   17.3066 H   0  0  0  0  0  0
    4.3681    4.8315   11.7785 H   0  0  0  0  0  0
    7.1712    1.7922   15.0490 H   0  0  0  0  0  0
    2.3740    5.5370   16.9442 H   0  0  0  0  0  0
    3.0933    6.3379   15.5063 H   0  0  0  0  0  0
    2.5655    4.6992   15.4536 H   0  0  0  0  0  0
    7.8713    2.7761   22.9826 H   0  0  0  0  0  0
    5.2565    4.5554    9.0528 H   0  0  0  0  0  0
    3.6052    4.3237    9.6642 H   0  0  0  0  0  0
    4.3834    3.0248    8.7656 H   0  0  0  0  0  0
    6.6147    1.1280   21.6403 H   0  0  0  0  0  0
    8.1973    5.0624   22.1025 H   0  0  0  0  0  0
  1  3  1  0  0  0
  1  4  1  0  0  0
  1 18  1  0  0  0
  2  4  1  0  0  0
  2  7  2  0  0  0
  2  9  1  0  0  0
  3  5  1  0  0  0
  3  6  2  0  0  0
  4 14  2  0  0  0
  5  8  2  0  0  0
  6 13  1  0  0  0
  6  7  1  0  0  0
  7 25  1  0  0  0
  8 10  1  0  0  0
  8 11  1  0  0  0
  9 15  1  0  0  0
  9 16  2  0  0  0
 10 12  1  0  0  0
 10 26  1  0  0  0
 11 13  2  0  0  0
 12 17  2  0  0  0
 12 22  1  0  0  0
 13 27  1  0  0  0
 15 19  1  0  0  0
 15 23  2  0  0  0
 16 20  1  0  0  0
 16 24  1  0  0  0
 18 28  1  0  0  0
 18 29  1  0  0  0
 18 30  1  0  0  0
 21 24  2  0  0  0
 21 23  1  0  0  0
 21 31  1  0  0  0
 22 32  1  0  0  0
 22 33  1  0  0  0
 22 34  1  0  0  0
 23 35  1  0  0  0
 24 36  1  0  0  0
M  END
> <s_m_entry_id>
49481

> <s_m_entry_name>
dock_pv.71

> <s_m_Source_Path>
/home/csk/Desktop/cluster/DUD-E-result/fgfr1

> <s_m_Source_File>
dock_pv.maegz

> <i_m_Source_File_Index>
71

> <chembl_id>
CHEMBL111913

> <chembl_pref_name>
None

> <i_lp_mmshare_version>
53161

> <i_f3d_flags>
0

> <r_lp_tautomer_probability>
1

> <s_lp_Force_Field>
OPLS_2005

> <r_lp_Energy>
25.283587

> <b_lp_Chiralities_Consistent>
1

> <s_lp_Variant>
CHEMBL3650_lig74-1

> <s_i_glide_gridfile>
glide-grid_3c4f

> <i_i_glide_lignum>
96

> <i_i_glide_rotatable_bonds>
3

> <r_i_docking_score>
-8.10653726788861

> <r_i_glide_ligand_efficiency>
-0.337772386162025

> <r_i_glide_ligand_efficiency_sa>
-0.974304156575648

> <r_i_glide_ligand_efficiency_ln>
-1.94026635296212

> <r_i_glide_gscore>
-8.10653726788861

> <r_i_glide_lipo>
-2.86047272723912

> <r_i_glide_hbond>
-0.435838052422052

> <r_i_glide_metal>
0

> <r_i_glide_rewards>
-2.95119829662823

> <r_i_glide_evdw>
-33.5374336242676

> <r_i_glide_ecoul>
-2.96561193466187

> <r_i_glide_erotb>
0.291264171692655

> <r_i_glide_esite>
-0.0285788918791988

> <r_i_glide_emodel>
-41.8094919102046

> <r_i_glide_energy>
-36.5030455589294

> <r_i_glide_einternal>
3.79748487472534

> <i_i_glide_confnum>
3

> <i_i_glide_posenum>
363

> <r_i_glide_eff_state_penalty>
0

> <s_user_duplicate_titles>
CHEMBL3650_lig74

> <s_m_subgroup_title>
dock_pv

> <s_m_subgroupid>
dock_pv

> <b_m_subgroup_collapsed>
1

$$$$
CHEMBL3650_lig741
                    3D
 Schrodinger Suite 2021-1.
 47 51  0  0  1  0            999 V2000
    4.0261    4.9356   14.4953 C   0  0  0  0  0  0
    6.2231    3.4534   15.4253 C   0  0  0  0  0  0
    5.4710    4.2133   16.3444 C   0  0  0  0  0  0
    4.3455    4.9333   15.8548 C   0  0  0  0  0  0
    3.4716    5.5367   16.6809 N   0  0  0  0  0  0
    3.6637    5.3821   18.0016 C   0  0  0  0  0  0
    4.6909    4.7370   18.5793 N   0  0  0  0  0  0
    5.6395    4.2331   17.7598 C   0  0  0  0  0  0
    6.7722    3.7224   18.4048 N   0  0  0  0  0  0
    6.8313    3.2637   19.7292 C   0  0  0  0  0  0
    7.8488    3.6476   20.6150 C   0  0  0  0  0  0
    7.9736    3.0557   21.8923 C   0  0  0  0  0  0
    7.0008    2.1280   22.2716 C   0  0  0  0  0  0
    5.9728    1.7956   21.4064 C   0  0  0  0  0  0
    5.8987    2.3258   20.1358 C   0  0  0  0  0  0
    9.1308    3.3301   22.8018 C   0  0  0  0  0  0
   10.3386    3.7596   22.2599 C   0  0  0  0  0  0
   11.4696    3.9369   23.0518 C   0  0  0  0  0  0
   11.3666    3.7903   24.4319 C   0  0  0  0  0  0
   10.1712    3.3662   25.0036 C   0  0  0  0  0  0
    9.0722    3.1109   24.1871 C   0  0  0  0  0  0
    5.7875    3.3354   14.1042 C   0  0  0  0  0  0
    4.7088    4.1094   13.6267 C   0  0  0  0  0  0
    4.2365    4.0967   12.3345 O   0  0  0  0  0  0
    6.3709    2.3395   13.3731 O   0  0  0  0  0  0
    5.1495    3.9370   11.2674 C   0  0  0  0  0  0
    5.5949    1.6866   12.3927 C   0  0  0  0  0  0
    5.5705    2.4729   11.0771 C   0  0  0  0  0  0
    3.1794    5.5045   14.1378 H   0  0  0  0  0  0
    7.0414    2.8441   15.7773 H   0  0  0  0  0  0
    2.9116    5.8028   18.6523 H   0  0  0  0  0  0
    7.5172    3.4156   17.7979 H   0  0  0  0  0  0
    8.5616    4.3771   20.2653 H   0  0  0  0  0  0
    7.0371    1.6365   23.2320 H   0  0  0  0  0  0
    5.1997    1.1370   21.7043 H   0  0  0  0  0  0
    5.1026    2.0124   19.4747 H   0  0  0  0  0  0
   10.3707    3.9360   21.2042 H   0  0  0  0  0  0
   12.4038    4.2491   22.6080 H   0  0  0  0  0  0
   12.2311    3.9678   25.0556 H   0  0  0  0  0  0
   10.1042    3.2100   26.0703 H   0  0  0  0  0  0
    8.1733    2.7376   24.6513 H   0  0  0  0  0  0
    4.6661    4.2971   10.3592 H   0  0  0  0  0  0
    5.9715    4.6241   11.4282 H   0  0  0  0  0  0
    4.5968    1.4382   12.7605 H   0  0  0  0  0  0
    6.0935    0.7371   12.2531 H   0  0  0  0  0  0
    4.8750    1.9806   10.3965 H   0  0  0  0  0  0
    6.5442    2.4302   10.5959 H   0  0  0  0  0  0
  1 23  1  0  0  0
  1  4  2  0  0  0
  1 29  1  0  0  0
  2  3  2  0  0  0
  2 22  1  0  0  0
  2 30  1  0  0  0
  3  4  1  0  0  0
  3  8  1  0  0  0
  4  5  1  0  0  0
  5  6  2  0  0  0
  6  7  1  0  0  0
  6 31  1  0  0  0
  7  8  2  0  0  0
  8  9  1  0  0  0
  9 10  1  0  0  0
  9 32  1  0  0  0
 10 11  2  0  0  0
 10 15  1  0  0  0
 11 12  1  0  0  0
 11 33  1  0  0  0
 12 13  2  0  0  0
 12 16  1  0  0  0
 13 14  1  0  0  0
 13 34  1  0  0  0
 14 15  2  0  0  0
 14 35  1  0  0  0
 15 36  1  0  0  0
 16 17  2  0  0  0
 16 21  1  0  0  0
 17 18  1  0  0  0
 17 37  1  0  0  0
 18 19  2  0  0  0
 18 38  1  0  0  0
 19 20  1  0  0  0
 19 39  1  0  0  0
 20 21  2  0  0  0
 20 40  1  0  0  0
 21 41  1  0  0  0
 22 23  2  0  0  0
 22 25  1  0  0  0
 23 24  1  0  0  0
 24 26  1  0  0  0
 25 27  1  0  0  0
 26 28  1  0  0  0
 26 42  1  0  0  0
 26 43  1  0  0  0
 27 28  1  0  0  0
 27 44  1  0  0  0
 27 45  1  0  0  0
 28 46  1  0  0  0
 28 47  1  0  0  0
M  END
> <s_m_entry_id>
49483

> <s_m_entry_name>
dock_pv.73

> <s_m_Source_Path>
/home/csk/Desktop/cluster/DUD-E-result/fgfr1

> <s_m_Source_File>
dock_pv.maegz

> <i_m_Source_File_Index>
73

> <chembl_id>
CHEMBL2419762

> <chembl_pref_name>
None

> <i_lp_mmshare_version>
53161

> <i_f3d_flags>
0

> <r_lp_tautomer_probability>
0.999978000241998

> <s_lp_Force_Field>
OPLS_2005

> <r_lp_Energy>
33.526288

> <b_lp_Chiralities_Consistent>
1

> <s_lp_Variant>
CHEMBL3650_lig741-1

> <s_i_glide_gridfile>
glide-grid_3c4f

> <i_i_glide_lignum>
905

> <i_i_glide_rotatable_bonds>
3

> <r_i_docking_score>
-8.05879261961738

> <r_i_glide_ligand_efficiency>
-0.287814022129192

> <r_i_glide_ligand_efficiency_sa>
-0.873972884577931

> <r_i_glide_ligand_efficiency_ln>
-1.86020595304063

> <r_i_glide_gscore>
-8.05879261961738

> <r_i_glide_lipo>
-3.76299426531596

> <r_i_glide_hbond>
-0.32

> <r_i_glide_metal>
0

> <r_i_glide_rewards>
-2.39977597895837

> <r_i_glide_evdw>
-33.252368927002

> <r_i_glide_ecoul>
-2.24837160110474

> <r_i_glide_erotb>
0.423851811172754

> <r_i_glide_esite>
0

> <r_i_glide_emodel>
-44.9278984399262

> <r_i_glide_energy>
-35.5007405281067

> <r_i_glide_einternal>
5.16104173660278

> <i_i_glide_confnum>
24

> <i_i_glide_posenum>
206

> <r_i_glide_eff_state_penalty>
0

> <s_user_duplicate_titles>
CHEMBL3650_lig741,CHEMBL3650_lig764

> <s_m_subgroup_title>
dock_pv

> <s_m_subgroupid>
dock_pv

> <b_m_subgroup_collapsed>
1

$$$$
CHEMBL3650_lig3063
                    3D
 Schrodinger Suite 2021-1.
 28 29  0  0  1  0            999 V2000
    9.4907    4.1224   22.7341 O   0  0  0  0  0  0
    6.7713    1.6142   22.5543 N   0  0  0  0  0  0
    4.3982    4.6318   14.6623 N   0  0  0  0  0  0
    6.7717    2.9744   20.5507 C   0  0  0  0  0  0
    8.4011    3.3938   22.3012 C   0  0  0  0  0  0
    7.8454    3.7195   21.0607 C   0  0  0  0  0  0
    6.1815    3.2039   19.2243 C   0  0  0  0  0  0
    6.2772    1.9315   21.3341 C   0  0  0  0  0  0
    5.6510    4.4621   17.1672 C   0  0  0  0  0  0
    7.8182    2.3372   23.0156 C   0  0  0  0  0  0
    6.2332    4.3408   18.5068 C   0  0  0  0  0  0
    5.9751    3.5580   16.1484 C   0  0  0  0  0  0
    4.7169    5.4665   16.9105 C   0  0  0  0  0  0
    5.3369    3.6829   14.9127 C   0  0  0  0  0  0
    4.1037    5.5042   15.6596 C   0  0  0  0  0  0
   10.0968    3.7626   23.9739 C   0  0  0  0  0  0
    8.2807    4.5215   20.4803 H   0  0  0  0  0  0
    5.6725    2.3559   18.7859 H   0  0  0  0  0  0
    5.4635    1.3123   20.9825 H   0  0  0  0  0  0
    8.1881    2.0222   23.9809 H   0  0  0  0  0  0
    6.7331    5.2155   18.8971 H   0  0  0  0  0  0
    6.7022    2.7753   16.3133 H   0  0  0  0  0  0
    4.4343    6.1709   17.6804 H   0  0  0  0  0  0
    5.5621    3.0089   14.1003 H   0  0  0  0  0  0
    3.3458    6.2407   15.4482 H   0  0  0  0  0  0
   11.0113    4.3361   24.1252 H   0  0  0  0  0  0
    9.4293    3.9727   24.8138 H   0  0  0  0  0  0
   10.3728    2.7062   23.9953 H   0  0  0  0  0  0
  1  5  1  0  0  0
  1 16  1  0  0  0
  2  8  2  0  0  0
  2 10  1  0  0  0
  3 14  2  0  0  0
  3 15  1  0  0  0
  4  6  2  0  0  0
  4  7  1  0  0  0
  4  8  1  0  0  0
  5  6  1  0  0  0
  5 10  2  0  0  0
  6 17  1  0  0  0
  7 11  2  3  0  0
  7 18  1  0  0  0
  8 19  1  0  0  0
  9 11  1  0  0  0
  9 12  2  0  0  0
  9 13  1  0  0  0
 10 20  1  0  0  0
 11 21  1  0  0  0
 12 14  1  0  0  0
 12 22  1  0  0  0
 13 15  2  0  0  0
 13 23  1  0  0  0
 14 24  1  0  0  0
 15 25  1  0  0  0
 16 26  1  0  0  0
 16 27  1  0  0  0
 16 28  1  0  0  0
M  END
> <s_m_entry_id>
49485

> <s_m_entry_name>
dock_pv.75

> <s_m_Source_Path>
/home/csk/Desktop/cluster/DUD-E-result/fgfr1

> <s_m_Source_File>
dock_pv.maegz

> <i_m_Source_File_Index>
75

> <chembl_id>
CHEMBL1972568

> <chembl_pref_name>
None

> <i_lp_mmshare_version>
53161

> <i_f3d_flags>
0

> <r_lp_tautomer_probability>
1

> <s_lp_Force_Field>
OPLS_2005

> <r_lp_Energy>
14.578772

> <b_lp_Chiralities_Consistent>
1

> <s_lp_Variant>
CHEMBL3650_lig3063-1

> <s_i_glide_gridfile>
glide-grid_3c4f

> <i_i_glide_lignum>
3891

> <i_i_glide_rotatable_bonds>
3

> <r_i_docking_score>
-8.00140469472229

> <r_i_glide_ligand_efficiency>
-0.500087793420143

> <r_i_glide_ligand_efficiency_sa>
-1.26014227428642

> <r_i_glide_ligand_efficiency_ln>
-2.12093214602303

> <r_i_glide_gscore>
-8.00140469472229

> <r_i_glide_lipo>
-3.06350154613361

> <r_i_glide_hbond>
-0.32

> <r_i_glide_metal>
0

> <r_i_glide_rewards>
-3.57582099367993

> <r_i_glide_evdw>
-33.4218444824219

> <r_i_glide_ecoul>
-0.735662519931793

> <r_i_glide_erotb>
0.739359447202107

> <r_i_glide_esite>
0

> <r_i_glide_emodel>
-49.2971253026981

> <r_i_glide_energy>
-34.1575070023537

> <r_i_glide_einternal>
6.10401821136475

> <i_i_glide_confnum>
1

> <i_i_glide_posenum>
365

> <r_i_glide_eff_state_penalty>
0

> <s_user_duplicate_titles>
CHEMBL3650_lig3063

> <s_m_subgroup_title>
dock_pv

> <s_m_subgroupid>
dock_pv

> <b_m_subgroup_collapsed>
1

$$$$
CHEMBL3650_lig2775
                    3D
 Schrodinger Suite 2021-1.
 39 42  0  0  1  0            999 V2000
    6.4680    5.0658   18.6366 O   0  0  0  0  0  0
    6.2050    1.7651   21.6055 O   0  0  0  0  0  0
    9.3838    1.9372   25.4258 O   0  0  0  0  0  0
    7.9293    3.1560   22.1891 N   0  0  0  0  0  0
    6.7919    4.7369   19.9490 N   0  0  0  0  0  0
    4.7716    4.0177   12.5561 N   0  0  0  0  0  0
    5.3601    2.8959   12.1157 N   0  0  0  0  0  0
    6.1137    3.9328   17.9939 C   0  0  0  0  0  0
    6.7016    3.4353   20.0862 C   0  0  0  0  0  0
    5.7379    4.0617   16.5623 C   0  0  0  0  0  0
    6.9366    2.7257   21.3388 C   0  0  0  0  0  0
    6.2029    2.8838   18.8947 C   0  0  0  0  0  0
    5.7834    3.1547   14.3259 C   0  0  0  0  0  0
    4.9431    4.2052   13.9118 C   0  0  0  0  0  0
    6.2286    3.1250   15.6548 C   0  0  0  0  0  0
    4.8823    5.0784   16.1294 C   0  0  0  0  0  0
    4.4649    5.1698   14.7989 C   0  0  0  0  0  0
    5.9059    2.3369   13.1599 C   0  0  0  0  0  0
    7.9734    2.5413   23.5439 C   0  0  0  0  0  0
    8.8943    4.2387   21.8443 C   0  0  0  0  0  0
    9.4119    2.3403   24.0715 C   0  0  1  0  0  0
   10.2905    3.9215   22.4067 C   0  0  0  0  0  0
   10.2785    3.5786   23.8905 C   0  0  0  0  0  0
    9.0190    1.0425   25.4270 H   0  0  0  0  0  0
    4.2989    4.6406   11.9144 H   0  0  0  0  0  0
    5.9611    1.8466   18.7086 H   0  0  0  0  0  0
    6.8856    2.3379   15.9906 H   0  0  0  0  0  0
    4.5141    5.8021   16.8427 H   0  0  0  0  0  0
    3.7903    5.9366   14.4657 H   0  0  0  0  0  0
    6.3711    1.3770   13.0506 H   0  0  0  0  0  0
    7.5522    1.5379   23.5408 H   0  0  0  0  0  0
    7.4021    3.1435   24.2464 H   0  0  0  0  0  0
    8.5280    5.1951   22.2160 H   0  0  0  0  0  0
    9.0687    4.2792   20.7678 H   0  0  0  0  0  0
    9.8775    1.5194   23.5236 H   0  0  0  0  0  0
   10.9768    4.7369   22.2173 H   0  0  0  0  0  0
   10.7240    3.0946   21.8529 H   0  0  0  0  0  0
    9.8807    4.4091   24.4753 H   0  0  0  0  0  0
   11.2935    3.4007   24.2485 H   0  0  0  0  0  0
  1  5  1  0  0  0
  1  8  1  0  0  0
  2 11  2  0  0  0
  3 21  1  0  0  0
  3 24  1  0  0  0
  4 11  1  0  0  0
  4 19  1  0  0  0
  4 20  1  0  0  0
  5  9  2  0  0  0
  6  7  1  0  0  0
  6 14  1  0  0  0
  6 25  1  0  0  0
  7 18  2  0  0  0
  8 10  1  0  0  0
  8 12  2  0  0  0
  9 11  1  0  0  0
  9 12  1  0  0  0
 10 15  1  0  0  0
 10 16  2  0  0  0
 12 26  1  0  0  0
 13 14  1  0  0  0
 13 15  2  0  0  0
 13 18  1  0  0  0
 14 17  2  0  0  0
 15 27  1  0  0  0
 16 17  1  0  0  0
 16 28  1  0  0  0
 17 29  1  0  0  0
 18 30  1  0  0  0
 19 21  1  0  0  0
 19 31  1  0  0  0
 19 32  1  0  0  0
 20 22  1  0  0  0
 20 33  1  0  0  0
 20 34  1  0  0  0
 21 23  1  0  0  0
 21 35  1  0  0  0
 22 23  1  0  0  0
 22 36  1  0  0  0
 22 37  1  0  0  0
 23 38  1  0  0  0
 23 39  1  0  0  0
M  END
> <s_m_entry_id>
49486

> <s_m_entry_name>
dock_pv.76

> <s_m_Source_Path>
/home/csk/Desktop/cluster/DUD-E-result/fgfr1

> <s_m_Source_File>
dock_pv.maegz

> <i_m_Source_File_Index>
76

> <chembl_id>
CHEMBL1997340

> <chembl_pref_name>
None

> <i_lp_mmshare_version>
53161

> <i_f3d_flags>
0

> <r_lp_tautomer_probability>
0.980392156862745

> <s_lp_Force_Field>
OPLS_2005

> <r_lp_Energy>
32.990028

> <b_lp_Chiralities_Consistent>
1

> <s_lp_Variant>
CHEMBL3650_lig2775-2

> <s_i_glide_gridfile>
glide-grid_3c4f

> <i_i_glide_lignum>
3464

> <i_i_glide_rotatable_bonds>
4

> <r_i_docking_score>
-7.99123560907397

> <r_i_glide_ligand_efficiency>
-0.347445026481477

> <r_i_glide_ligand_efficiency_sa>
-0.988087437091611

> <r_i_glide_ligand_efficiency_ln>
-1.9323532307924

> <r_i_glide_gscore>
-7.99123560907397

> <r_i_glide_lipo>
-2.33383220728908

> <r_i_glide_hbond>
-0.316522586182328

> <r_i_glide_metal>
0

> <r_i_glide_rewards>
-3.01253138686768

> <r_i_glide_evdw>
-40.7730941772461

> <r_i_glide_ecoul>
-5.53515148162842

> <r_i_glide_erotb>
0.570749084962497

> <r_i_glide_esite>
-0.0301710825908073

> <r_i_glide_emodel>
-61.6352812210796

> <r_i_glide_energy>
-46.3082456588745

> <r_i_glide_einternal>
5.16932582855225

> <i_i_glide_confnum>
8

> <i_i_glide_posenum>
131

> <r_i_glide_eff_state_penalty>
0

> <s_user_duplicate_titles>
CHEMBL3650_lig2775

> <s_m_subgroup_title>
dock_pv

> <s_m_subgroupid>
dock_pv

> <b_m_subgroup_collapsed>
1

$$$$
CHEMBL3650_lig2729
                    3D
 Schrodinger Suite 2021-1.
 35 37  0  0  1  0            999 V2000
    9.4476    2.9779   23.6865 S   0  0  0  0  0  0
    9.1710    4.3370   24.1099 O   0  0  0  0  0  0
   10.5297    2.7370   22.7308 O   0  0  0  0  0  0
    4.4592    4.9437   14.1146 N   0  0  0  0  0  0
    4.8577    3.9370   13.3291 N   0  0  0  0  0  0
    7.9413    2.3370   22.9760 N   0  0  0  0  0  0
    5.9710    1.9370   13.5778 N   0  0  0  0  0  0
    5.5992    3.5609   15.4518 C   0  0  0  0  0  0
    4.8406    4.7544   15.4250 C   0  0  0  0  0  0
    5.9047    3.8763   17.8478 C   0  0  0  0  0  0
    5.5099    3.1052   14.0890 C   0  0  0  0  0  0
    6.1655    3.1371   16.6805 C   0  0  0  0  0  0
    6.4203    3.4757   19.1892 C   0  0  0  0  0  0
    4.5890    5.4990   16.5678 C   0  0  0  0  0  0
    5.1238    5.0273   17.7590 C   0  0  0  0  0  0
    7.4173    2.7579   21.7343 C   0  0  0  0  0  0
    7.3388    4.2931   19.8569 C   0  0  0  0  0  0
    5.9710    2.3139   19.8268 C   0  0  0  0  0  0
    7.8379    3.9382   21.1108 C   0  0  0  0  0  0
    6.4560    1.9658   21.0921 C   0  0  0  0  0  0
    9.7191    2.0278   25.2831 C   0  0  0  0  0  0
    3.9949    5.7428   13.6971 H   0  0  0  0  0  0
    7.6724    1.4234   23.3084 H   0  0  0  0  0  0
    5.8932    1.1089   14.1484 H   0  0  0  0  0  0
    5.8286    1.7705   12.5915 H   0  0  0  0  0  0
    6.7710    2.2443   16.7271 H   0  0  0  0  0  0
    3.9710    6.3710   16.5367 H   0  0  0  0  0  0
    4.8984    5.5728   18.6530 H   0  0  0  0  0  0
    7.6863    5.2018   19.3872 H   0  0  0  0  0  0
    5.2450    1.6760   19.3415 H   0  0  0  0  0  0
    8.5654    4.5842   21.5783 H   0  0  0  0  0  0
    6.1036    1.0547   21.5481 H   0  0  0  0  0  0
   10.4409    2.5747   25.8875 H   0  0  0  0  0  0
   10.1131    1.0494   25.0527 H   0  0  0  0  0  0
    8.7710    1.9450   25.8116 H   0  0  0  0  0  0
  1  2  2  0  0  0
  1  3  2  0  0  0
  1  6  1  0  0  0
  1 21  1  0  0  0
  4  5  1  0  0  0
  4  9  1  0  0  0
  4 22  1  0  0  0
  5 11  2  0  0  0
  6 16  1  0  0  0
  6 23  1  0  0  0
  7 11  1  0  0  0
  7 24  1  0  0  0
  7 25  1  0  0  0
  8  9  1  0  0  0
  8 11  1  0  0  0
  8 12  2  0  0  0
  9 14  2  0  0  0
 10 12  1  0  0  0
 10 13  1  0  0  0
 10 15  2  0  0  0
 12 26  1  0  0  0
 13 17  2  0  0  0
 13 18  1  0  0  0
 14 15  1  0  0  0
 14 27  1  0  0  0
 15 28  1  0  0  0
 16 19  2  0  0  0
 16 20  1  0  0  0
 17 19  1  0  0  0
 17 29  1  0  0  0
 18 20  2  0  0  0
 18 30  1  0  0  0
 19 31  1  0  0  0
 20 32  1  0  0  0
 21 33  1  0  0  0
 21 34  1  0  0  0
 21 35  1  0  0  0
M  END
> <s_m_entry_id>
49487

> <s_m_entry_name>
dock_pv.77

> <s_m_Source_Path>
/home/csk/Desktop/cluster/DUD-E-result/fgfr1

> <s_m_Source_File>
dock_pv.maegz

> <i_m_Source_File_Index>
77

> <chembl_id>
CHEMBL2004892

> <chembl_pref_name>
None

> <i_lp_mmshare_version>
53161

> <i_f3d_flags>
0

> <r_lp_tautomer_probability>
1

> <s_lp_Force_Field>
OPLS_2005

> <r_lp_Energy>
4.65051

> <b_lp_Chiralities_Consistent>
1

> <s_lp_Variant>
CHEMBL3650_lig2729-1

> <s_i_glide_gridfile>
glide-grid_3c4f

> <i_i_glide_lignum>
3391

> <i_i_glide_rotatable_bonds>
3

> <r_i_docking_score>
-7.9813259158957

> <r_i_glide_ligand_efficiency>
-0.380063138852176

> <r_i_glide_ligand_efficiency_sa>
-1.04856538126644

> <r_i_glide_ligand_efficiency_ln>
-1.97336670491763

> <r_i_glide_gscore>
-7.9813259158957

> <r_i_glide_lipo>
-3.01485710282889

> <r_i_glide_hbond>
-0.220548308387897

> <r_i_glide_metal>
0

> <r_i_glide_rewards>
-2.43321842067796

> <r_i_glide_evdw>
-36.6399078369141

> <r_i_glide_ecoul>
-5.3535680770874

> <r_i_glide_erotb>
0.402787200164816

> <r_i_glide_esite>
-0.080458680756951

> <r_i_glide_emodel>
-56.5374269179335

> <r_i_glide_energy>
-41.9934759140015

> <r_i_glide_einternal>
7.39913082122803

> <i_i_glide_confnum>
1

> <i_i_glide_posenum>
171

> <r_i_glide_eff_state_penalty>
0

> <s_user_duplicate_titles>
CHEMBL3650_lig2729

> <s_m_subgroup_title>
dock_pv

> <s_m_subgroupid>
dock_pv

> <b_m_subgroup_collapsed>
1

$$$$
CHEMBL3650_lig304
                    3D
 Schrodinger Suite 2021-1.
 31 33  0  0  1  0            999 V2000
    6.2158    3.1966   19.6511 N   0  0  0  0  0  0
    5.5925    2.0180   20.0029 C   0  0  0  0  0  0
    5.9709    1.5307   21.1545 N   0  0  0  0  0  0
    7.1263    3.4505   20.6626 C   0  0  0  0  0  0
    6.9353    2.3951   21.5856 C   0  0  0  0  0  0
    9.5728    3.2636   24.1857 C   0  0  0  0  0  0
    8.6935    3.3082   22.9684 C   0  0  0  0  0  0
    7.7051    2.3367   22.7527 C   0  0  0  0  0  0
    8.0715    4.4510   20.8803 C   0  0  0  0  0  0
    6.0046    3.9207   18.4702 C   0  0  0  0  0  0
    8.8581    4.3371   22.0296 C   0  0  0  0  0  0
   10.5343    4.0167   24.3559 O   0  0  0  0  0  0
    9.1857    2.3372   25.0977 O   0  0  0  0  0  0
    7.0103    4.0031   17.5062 C   0  0  0  0  0  0
    4.7710    4.5333   18.2523 C   0  0  0  0  0  0
    9.9002    2.1612   26.3130 C   0  0  0  0  0  0
    6.7709    4.6869   16.3204 C   0  0  0  0  0  0
    4.5350    5.2179   17.0636 C   0  0  0  0  0  0
    5.5375    5.2931   16.1015 C   0  0  0  0  0  0
    4.8471    1.5870   19.3481 H   0  0  0  0  0  0
    7.5535    1.5368   23.4585 H   0  0  0  0  0  0
    8.2069    5.2596   20.1798 H   0  0  0  0  0  0
    9.6091    5.0947   22.1967 H   0  0  0  0  0  0
    7.9709    3.5370   17.6543 H   0  0  0  0  0  0
    3.9864    4.4690   18.9900 H   0  0  0  0  0  0
    9.4625    1.3412   26.8841 H   0  0  0  0  0  0
    9.8610    3.0654   26.9220 H   0  0  0  0  0  0
   10.9474    1.9202   26.1234 H   0  0  0  0  0  0
    7.5443    4.7445   15.5715 H   0  0  0  0  0  0
    3.5743    5.6735   16.8826 H   0  0  0  0  0  0
    5.3602    5.8169   15.1720 H   0  0  0  0  0  0
  1  2  1  0  0  0
  1  4  1  0  0  0
  1 10  1  0  0  0
  2  3  2  0  0  0
  2 20  1  0  0  0
  3  5  1  0  0  0
  4  5  1  0  0  0
  4  9  2  0  0  0
  5  8  2  0  0  0
  6  7  1  0  0  0
  6 12  2  0  0  0
  6 13  1  0  0  0
  7 11  2  0  0  0
  7  8  1  0  0  0
  8 21  1  0  0  0
  9 11  1  0  0  0
  9 22  1  0  0  0
 10 14  1  0  0  0
 10 15  2  0  0  0
 11 23  1  0  0  0
 13 16  1  0  0  0
 14 17  2  0  0  0
 14 24  1  0  0  0
 15 18  1  0  0  0
 15 25  1  0  0  0
 16 26  1  0  0  0
 16 27  1  0  0  0
 16 28  1  0  0  0
 17 19  1  0  0  0
 17 29  1  0  0  0
 18 19  2  0  0  0
 18 30  1  0  0  0
 19 31  1  0  0  0
M  END
> <s_m_entry_id>
49488

> <s_m_entry_name>
dock_pv.78

> <s_m_Source_Path>
/home/csk/Desktop/cluster/DUD-E-result/fgfr1

> <s_m_Source_File>
dock_pv.maegz

> <i_m_Source_File_Index>
78

> <chembl_id>
CHEMBL153054

> <chembl_pref_name>
None

> <i_lp_mmshare_version>
53161

> <i_f3d_flags>
0

> <r_lp_tautomer_probability>
1

> <s_lp_Force_Field>
OPLS_2005

> <r_lp_Energy>
16.56832

> <b_lp_Chiralities_Consistent>
1

> <s_lp_Variant>
CHEMBL3650_lig304-1

> <s_i_glide_gridfile>
glide-grid_3c4f

> <i_i_glide_lignum>
328

> <i_i_glide_rotatable_bonds>
3

> <r_i_docking_score>
-7.94891188887473

> <r_i_glide_ligand_efficiency>
-0.418363783624986

> <r_i_glide_ligand_efficiency_sa>
-1.11636260889478

> <r_i_glide_ligand_efficiency_ln>
-2.01521989080296

> <r_i_glide_gscore>
-7.94891188887473

> <r_i_glide_lipo>
-2.83658520303538

> <r_i_glide_hbond>
0

> <r_i_glide_metal>
0

> <r_i_glide_rewards>
-3.29634517336685

> <r_i_glide_evdw>
-35.8454666137695

> <r_i_glide_ecoul>
-3.83400392532349

> <r_i_glide_erotb>
0.551392407014503

> <r_i_glide_esite>
0

> <r_i_glide_emodel>
-57.118192785795

> <r_i_glide_energy>
-39.679470539093

> <r_i_glide_einternal>
3.01807236671448

> <i_i_glide_confnum>
5

> <i_i_glide_posenum>
287

> <r_i_glide_eff_state_penalty>
0

> <s_user_duplicate_titles>
CHEMBL3650_lig304

> <s_m_subgroup_title>
dock_pv

> <s_m_subgroupid>
dock_pv

> <b_m_subgroup_collapsed>
1

$$$$
CHEMBL3650_lig2659
                    3D
 Schrodinger Suite 2021-1.
 16 17  0  0  1  0            999 V2000
    8.7709    4.3353   22.3831 Br  0  0  0  0  0  0
    6.8733    1.5371   22.9151 O   0  0  0  0  0  0
    5.9708    2.6699   19.8116 N   0  0  0  0  0  0
    5.9711    1.7618   20.8244 N   0  0  0  0  0  0
    6.8460    3.6743   20.1942 C   0  0  0  0  0  0
    7.3546    3.3693   21.3983 C   0  0  0  0  0  0
    6.7430    2.1349   21.8526 C   0  0  0  0  0  0
    7.0833    4.7369   19.2201 C   0  0  0  0  0  0
    5.6061    2.4461   18.4764 C   0  0  0  0  0  0
    6.6331    4.6083   17.9527 C   0  0  0  0  0  0
    5.9294    3.3917   17.5619 C   0  0  0  0  0  0
    5.3697    0.9602   20.6938 H   0  0  0  0  0  0
    7.5707    5.6525   19.5066 H   0  0  0  0  0  0
    5.0980    1.5235   18.2602 H   0  0  0  0  0  0
    6.7716    5.4019   17.2329 H   0  0  0  0  0  0
    5.6893    3.2282   16.5204 H   0  0  0  0  0  0
  1  6  1  0  0  0
  2  7  2  0  0  0
  3  4  1  0  0  0
  3  5  1  0  0  0
  3  9  1  0  0  0
  4  7  1  0  0  0
  4 12  1  0  0  0
  5  6  2  0  0  0
  5  8  1  0  0  0
  6  7  1  0  0  0
  8 10  2  0  0  0
  8 13  1  0  0  0
  9 11  2  0  0  0
  9 14  1  0  0  0
 10 11  1  0  0  0
 10 15  1  0  0  0
 11 16  1  0  0  0
M  END
> <s_m_entry_id>
49491

> <s_m_entry_name>
dock_pv.81

> <s_m_Source_Path>
/home/csk/Desktop/cluster/DUD-E-result/fgfr1

> <s_m_Source_File>
dock_pv.maegz

> <i_m_Source_File_Index>
81

> <chembl_id>
CHEMBL2004033

> <chembl_pref_name>
None

> <i_lp_mmshare_version>
53161

> <i_f3d_flags>
0

> <r_lp_tautomer_probability>
1

> <s_lp_Force_Field>
OPLS_2005

> <r_lp_Energy>
27.698775

> <b_lp_Chiralities_Consistent>
1

> <s_lp_Variant>
CHEMBL3650_lig2659-1

> <s_i_glide_gridfile>
glide-grid_3c4f

> <i_i_glide_lignum>
3279

> <i_i_glide_rotatable_bonds>
0

> <r_i_docking_score>
-7.91195599916778

> <r_i_glide_ligand_efficiency>
-0.719268727197071

> <r_i_glide_ligand_efficiency_sa>
-1.59963932777683

> <r_i_glide_ligand_efficiency_ln>
-2.32848730286258

> <r_i_glide_gscore>
-7.91195599916778

> <r_i_glide_lipo>
-2.33214007911886

> <r_i_glide_hbond>
-0.423624979622174

> <r_i_glide_metal>
0

> <r_i_glide_rewards>
-3.4296930995454

> <r_i_glide_evdw>
-24.9316368103027

> <r_i_glide_ecoul>
-3.19944000244141

> <r_i_glide_erotb>
0

> <r_i_glide_esite>
0

> <r_i_glide_emodel>
-39.781673475254

> <r_i_glide_energy>
-28.1310768127441

> <r_i_glide_einternal>
0

> <i_i_glide_confnum>
1

> <i_i_glide_posenum>
165

> <r_i_glide_eff_state_penalty>
0

> <s_user_duplicate_titles>
CHEMBL3650_lig2659

> <s_m_subgroup_title>
dock_pv

> <s_m_subgroupid>
dock_pv

> <b_m_subgroup_collapsed>
1

$$$$
CHEMBL3650_lig335
                    3D
 Schrodinger Suite 2021-1.
 40 42  0  0  1  0            999 V2000
    5.2592    3.9611   16.0806 C   0  0  0  0  0  0
    5.3822    4.0161   17.5049 C   0  0  0  0  0  0
    6.2478    3.1909   18.2358 N   0  0  0  0  0  0
    6.6517    3.3720   19.5713 C   0  0  0  0  0  0
    4.2342    4.7746   15.5123 C   0  0  0  0  0  0
    6.0036    3.1367   15.2161 C   0  0  0  0  0  0
    4.5925    4.8112   18.2530 N   0  0  0  0  0  0
    6.3813    2.4034   20.5415 C   0  0  0  0  0  0
    3.9947    4.7634   14.1294 C   0  0  0  0  0  0
    7.4212    4.4862   19.9193 C   0  0  0  0  0  0
    5.6840    3.0692   13.8627 C   0  0  0  0  0  0
    7.0061    2.4900   21.7904 C   0  0  0  0  0  0
    4.7352    3.9370   13.3027 C   0  0  0  0  0  0
    3.4292    5.5370   16.2822 N   0  0  0  0  0  0
    8.0541    4.5580   21.1557 C   0  0  0  0  0  0
    7.9008    3.5261   22.0773 C   0  0  0  0  0  0
    3.6652    5.5359   17.6144 C   0  0  0  0  0  0
    7.5692    5.5045   19.0530 F   0  0  0  0  0  0
    6.7710    1.5369   22.7320 O   0  0  0  0  0  0
    6.3710    2.1458   13.1338 O   0  0  0  0  0  0
    4.4649    3.9931   11.9575 O   0  0  0  0  0  0
    8.7021    3.5444   23.3715 C   0  0  0  0  0  0
    5.6575    1.3036   12.2510 C   0  0  0  0  0  0
    5.5525    4.3725   11.1276 C   0  0  0  0  0  0
    6.8372    2.5905   17.6810 H   0  0  0  0  0  0
    6.7707    2.4907   15.6161 H   0  0  0  0  0  0
    5.7519    1.5567   20.3060 H   0  0  0  0  0  0
    3.2387    5.4099   13.7067 H   0  0  0  0  0  0
    8.6881    5.4035   21.3784 H   0  0  0  0  0  0
    3.0067    6.1055   18.2530 H   0  0  0  0  0  0
    7.4729    1.5002   23.3900 H   0  0  0  0  0  0
    9.1710    4.5121   23.5519 H   0  0  0  0  0  0
    9.4773    2.7775   23.3473 H   0  0  0  0  0  0
    8.0546    3.3319   24.2190 H   0  0  0  0  0  0
    6.3686    1.1386   11.4530 H   0  0  0  0  0  0
    5.3849    0.3372   12.6550 H   0  0  0  0  0  0
    4.7710    1.7120   11.7842 H   0  0  0  0  0  0
    5.1710    4.7370   10.1786 H   0  0  0  0  0  0
    6.1573    5.1605   11.5776 H   0  0  0  0  0  0
    6.1805    3.5202   10.8877 H   0  0  0  0  0  0
  1  2  1  0  0  0
  1  5  1  0  0  0
  1  6  2  0  0  0
  2  3  1  0  0  0
  2  7  2  0  0  0
  3  4  1  0  0  0
  3 25  1  0  0  0
  4  8  2  0  0  0
  4 10  1  0  0  0
  5  9  2  0  0  0
  5 14  1  0  0  0
  6 11  1  0  0  0
  6 26  1  0  0  0
  7 17  1  0  0  0
  8 12  1  0  0  0
  8 27  1  0  0  0
  9 13  1  0  0  0
  9 28  1  0  0  0
 10 15  2  0  0  0
 10 18  1  0  0  0
 11 13  2  0  0  0
 11 20  1  0  0  0
 12 19  1  0  0  0
 12 16  2  0  0  0
 13 21  1  0  0  0
 14 17  2  0  0  0
 15 16  1  0  0  0
 15 29  1  0  0  0
 16 22  1  0  0  0
 17 30  1  0  0  0
 19 31  1  0  0  0
 20 23  1  0  0  0
 21 24  1  0  0  0
 22 32  1  0  0  0
 22 33  1  0  0  0
 22 34  1  0  0  0
 23 35  1  0  0  0
 23 36  1  0  0  0
 23 37  1  0  0  0
 24 38  1  0  0  0
 24 39  1  0  0  0
 24 40  1  0  0  0
M  END
> <s_m_entry_id>
49492

> <s_m_entry_name>
dock_pv.82

> <s_m_Source_Path>
/home/csk/Desktop/cluster/DUD-E-result/fgfr1

> <s_m_Source_File>
dock_pv.maegz

> <i_m_Source_File_Index>
82

> <chembl_id>
CHEMBL440727

> <chembl_pref_name>
None

> <i_lp_mmshare_version>
53161

> <i_f3d_flags>
0

> <r_lp_tautomer_probability>
0.999978000241998

> <s_lp_Force_Field>
OPLS_2005

> <r_lp_Energy>
20.284679

> <b_lp_Chiralities_Consistent>
1

> <s_lp_Variant>
CHEMBL3650_lig335-1

> <s_i_glide_gridfile>
glide-grid_3c4f

> <i_i_glide_lignum>
359

> <i_i_glide_rotatable_bonds>
5

> <r_i_docking_score>
-7.90408017895979

> <r_i_glide_ligand_efficiency>
-0.329336674123325

> <r_i_glide_ligand_efficiency_sa>
-0.949971352475319

> <r_i_glide_ligand_efficiency_ln>
-1.89180908143099

> <r_i_glide_gscore>
-7.90408017895979

> <r_i_glide_lipo>
-2.66419986089416

> <r_i_glide_hbond>
-0.663843101577977

> <r_i_glide_metal>
0

> <r_i_glide_rewards>
-2.75218368201359

> <r_i_glide_evdw>
-26.8553886413574

> <r_i_glide_ecoul>
-5.51765537261963

> <r_i_glide_erotb>
0.346564203486753

> <r_i_glide_esite>
0

> <r_i_glide_emodel>
-26.1442181914718

> <r_i_glide_energy>
-32.3730440139771

> <r_i_glide_einternal>
25.8268356323242

> <i_i_glide_confnum>
3

> <i_i_glide_posenum>
12

> <r_i_glide_eff_state_penalty>
0

> <s_user_duplicate_titles>
CHEMBL3650_lig335

> <s_m_subgroup_title>
dock_pv

> <s_m_subgroupid>
dock_pv

> <b_m_subgroup_collapsed>
1

$$$$
CHEMBL3650_lig1132
                    3D
 Schrodinger Suite 2021-1.
 49 52  0  0  1  0            999 V2000
   11.5172    3.9369   23.9903 N   0  0  0  0  0  0
   10.8040    3.9358   22.8196 C   0  0  0  0  0  0
    9.5199    3.5381   23.1476 C   0  0  0  0  0  0
    9.5937    3.3294   24.5363 C   0  0  0  0  0  0
   10.7693    3.6091   25.0480 N   0  0  0  0  0  0
    8.3554    3.3135   22.2529 C   0  0  0  0  0  0
    8.2832    4.0128   21.0834 N   0  0  0  0  0  0
    6.4759    1.9249   21.7029 N   0  0  0  0  0  0
    7.4342    2.3184   22.5709 C   0  0  0  0  0  0
    6.4417    2.5570   20.4974 C   0  0  0  0  0  0
    7.3103    3.6445   20.1929 C   0  0  0  0  0  0
    7.2069    4.2618   18.9147 C   0  0  0  0  0  0
    6.2942    3.7945   17.9400 C   0  0  0  0  0  0
    5.5236    2.6909   18.2598 C   0  0  0  0  0  0
    5.6107    2.0581   19.4921 C   0  0  0  0  0  0
    6.1276    4.3875   16.6565 N   0  0  0  0  0  0
    5.2726    4.1023   15.5834 C   0  0  0  0  0  0
    4.0231    4.7375   15.4852 C   0  0  0  0  0  0
    3.3911    4.8122   14.2535 C   0  0  0  0  0  0
    3.9996    4.2565   13.1290 C   0  0  0  0  0  0
    5.1991    3.5381   13.2312 C   0  0  0  0  0  0
    5.8174    3.4556   14.4745 C   0  0  0  0  0  0
    5.8527    2.9436   12.1701 O   0  0  0  0  0  0
    5.4368    3.2554   10.8444 C   0  0  0  0  0  0
    6.7709    5.6739   16.4629 C   0  0  0  0  0  0
   12.8987    4.3283   24.1930 C   0  0  0  0  0  0
    6.3047    6.7433   15.4001 C   0  0  0  0  0  0
    7.2028    7.5381   14.6528 O   0  0  0  0  0  0
    3.3246    5.5337   16.8504 Cl  0  0  0  0  0  0
   11.2654    4.1939   21.8798 H   0  0  0  0  0  0
    8.7874    2.9758   25.1614 H   0  0  0  0  0  0
    7.5033    1.7663   23.4963 H   0  0  0  0  0  0
    7.8913    5.0682   18.7065 H   0  0  0  0  0  0
    4.8191    2.3343   17.5336 H   0  0  0  0  0  0
    5.1142    1.1372   19.6890 H   0  0  0  0  0  0
    2.4629    5.3544   14.1509 H   0  0  0  0  0  0
    3.5412    4.3988   12.1663 H   0  0  0  0  0  0
    6.7957    3.0036   14.5466 H   0  0  0  0  0  0
    6.0944    2.7506   10.1380 H   0  0  0  0  0  0
    5.4993    4.3287   10.6510 H   0  0  0  0  0  0
    4.4210    2.9188   10.6383 H   0  0  0  0  0  0
    6.6305    6.1715   17.4268 H   0  0  0  0  0  0
    7.8513    5.5367   16.4623 H   0  0  0  0  0  0
   13.4514    4.2502   23.2571 H   0  0  0  0  0  0
   12.9397    5.3565   24.5515 H   0  0  0  0  0  0
   13.3647    3.6701   24.9268 H   0  0  0  0  0  0
    5.3181    6.7097   14.9606 H   0  0  0  0  0  0
    6.1088    7.5444   16.1048 H   0  0  0  0  0  0
    7.7438    6.9383   14.1112 H   0  0  0  0  0  0
  1  2  1  0  0  0
  1  5  1  0  0  0
  1 26  1  0  0  0
  2  3  2  0  0  0
  2 30  1  0  0  0
  3  4  1  0  0  0
  3  6  1  0  0  0
  4  5  2  0  0  0
  4 31  1  0  0  0
  6  7  2  0  0  0
  6  9  1  0  0  0
  7 11  1  0  0  0
  8 10  1  0  0  0
  8  9  2  0  0  0
  9 32  1  0  0  0
 10 11  1  0  0  0
 10 15  2  0  0  0
 11 12  2  0  0  0
 12 13  1  0  0  0
 12 33  1  0  0  0
 13 14  2  0  0  0
 13 16  1  0  0  0
 14 15  1  0  0  0
 14 34  1  0  0  0
 15 35  1  0  0  0
 16 17  1  0  0  0
 16 25  1  0  0  0
 17 18  2  0  0  0
 17 22  1  0  0  0
 18 19  1  0  0  0
 18 29  1  0  0  0
 19 20  2  0  0  0
 19 36  1  0  0  0
 20 21  1  0  0  0
 20 37  1  0  0  0
 21 22  2  0  0  0
 21 23  1  0  0  0
 22 38  1  0  0  0
 23 24  1  0  0  0
 24 39  1  0  0  0
 24 40  1  0  0  0
 24 41  1  0  0  0
 25 27  1  0  0  0
 25 42  1  0  0  0
 25 43  1  0  0  0
 26 44  1  0  0  0
 26 45  1  0  0  0
 26 46  1  0  0  0
 27 28  1  0  0  0
 27 47  1  0  0  0
 27 48  1  0  0  0
 28 49  1  0  0  0
M  END
> <s_m_entry_id>
49493

> <s_m_entry_name>
dock_pv.83

> <s_m_Source_Path>
/home/csk/Desktop/cluster/DUD-E-result/fgfr1

> <s_m_Source_File>
dock_pv.maegz

> <i_m_Source_File_Index>
83

> <chembl_id>
CHEMBL3956571

> <chembl_pref_name>
None

> <i_lp_mmshare_version>
53161

> <i_f3d_flags>
0

> <r_lp_tautomer_probability>
1

> <s_lp_Force_Field>
OPLS_2005

> <r_lp_Energy>
38.897784

> <b_lp_Chiralities_Consistent>
1

> <s_lp_Variant>
CHEMBL3650_lig1132-1

> <s_i_glide_gridfile>
glide-grid_3c4f

> <i_i_glide_lignum>
1437

> <i_i_glide_rotatable_bonds>
7

> <r_i_docking_score>
-7.89122033253701

> <r_i_glide_ligand_efficiency>
-0.272111045949552

> <r_i_glide_ligand_efficiency_sa>
-0.836011343987417

> <r_i_glide_ligand_efficiency_ln>
-1.80688935206879

> <r_i_glide_gscore>
-7.89122033253701

> <r_i_glide_lipo>
-3.29363244474664

> <r_i_glide_hbond>
-0.447059397570874

> <r_i_glide_metal>
0

> <r_i_glide_rewards>
-2.14130284138186

> <r_i_glide_evdw>
-33.3497581481934

> <r_i_glide_ecoul>
-6.18613958358765

> <r_i_glide_erotb>
0.586183196110181

> <r_i_glide_esite>
0

> <r_i_glide_emodel>
-38.1290291146636

> <r_i_glide_energy>
-39.535897731781

> <r_i_glide_einternal>
9.86330223083496

> <i_i_glide_confnum>
68

> <i_i_glide_posenum>
160

> <r_i_glide_eff_state_penalty>
0

> <s_user_duplicate_titles>
CHEMBL3650_lig1132

> <s_m_subgroup_title>
dock_pv

> <s_m_subgroupid>
dock_pv

> <b_m_subgroup_collapsed>
1

$$$$
CHEMBL3650_lig103
                    3D
 Schrodinger Suite 2021-1.
 38 40  0  0  1  0            999 V2000
    6.3102    2.2514   20.2523 N   0  0  0  0  0  0
    6.0901    4.1010   18.7321 C   0  0  0  0  0  0
    7.1830    2.9847   21.0921 C   0  0  0  0  0  0
    5.7975    2.7046   19.0629 C   0  0  0  0  0  0
    7.6795    2.4079   22.2297 N   0  0  0  0  0  0
    7.5440    4.2741   20.6953 C   0  0  0  0  0  0
    6.9520    4.8277   19.4750 C   0  0  0  0  0  0
    5.5489    4.6386   17.4531 C   0  0  0  0  0  0
    8.5794    3.1369   22.9354 C   0  0  0  0  0  0
    9.0450    4.3554   22.5640 N   0  0  0  0  0  0
    8.4869    4.9262   21.4673 C   0  0  0  0  0  0
    5.1710    1.9901   18.2909 O   0  0  0  0  0  0
    4.2406    5.1370   17.3237 C   0  0  0  0  0  0
    6.3311    4.5379   16.2977 C   0  0  0  0  0  0
    8.9482    2.6328   24.1878 N   0  0  0  0  0  0
    6.1005    0.8383   20.5868 C   0  0  0  0  0  0
    3.1533    5.1370   18.6530 Cl  0  0  0  0  0  0
    7.9427    3.9370   16.4093 Cl  0  0  0  0  0  0
   10.3777    1.5370   26.6217 O   0  0  0  0  0  0
    4.5129    5.3744   14.9381 C   0  0  0  0  0  0
    3.7360    5.5128   16.0767 C   0  0  0  0  0  0
    5.8025    4.8816   15.0530 C   0  0  0  0  0  0
    9.8596    3.3599   25.0744 C   0  0  0  0  0  0
    9.8823    2.8512   26.5254 C   0  0  0  0  0  0
    7.1991    5.8339   19.1644 H   0  0  0  0  0  0
    8.7710    5.9370   21.2397 H   0  0  0  0  0  0
    8.7446    1.6599   24.3869 H   0  0  0  0  0  0
    5.5710    0.2973   19.8171 H   0  0  0  0  0  0
    7.0580    0.3370   20.6601 H   0  0  0  0  0  0
    5.5710    0.7371   21.5278 H   0  0  0  0  0  0
   10.2496    1.2063   27.5163 H   0  0  0  0  0  0
    4.1168    5.6307   13.9650 H   0  0  0  0  0  0
    2.7151    5.8492   15.9713 H   0  0  0  0  0  0
    6.3710    4.7585   14.1488 H   0  0  0  0  0  0
    9.6514    4.4298   25.0740 H   0  0  0  0  0  0
   10.8636    3.2907   24.6534 H   0  0  0  0  0  0
    8.8434    2.7321   26.8381 H   0  0  0  0  0  0
   10.2839    3.5748   27.2357 H   0  0  0  0  0  0
  1  3  1  0  0  0
  1  4  1  0  0  0
  1 16  1  0  0  0
  2  4  1  0  0  0
  2  7  2  0  0  0
  2  8  1  0  0  0
  3  5  1  0  0  0
  3  6  2  0  0  0
  4 12  2  0  0  0
  5  9  2  0  0  0
  6 11  1  0  0  0
  6  7  1  0  0  0
  7 25  1  0  0  0
  8 13  1  0  0  0
  8 14  2  0  0  0
  9 15  1  0  0  0
  9 10  1  0  0  0
 10 11  2  0  0  0
 11 26  1  0  0  0
 13 17  1  0  0  0
 13 21  2  0  0  0
 14 18  1  0  0  0
 14 22  1  0  0  0
 15 23  1  0  0  0
 15 27  1  0  0  0
 16 28  1  0  0  0
 16 29  1  0  0  0
 16 30  1  0  0  0
 19 24  1  0  0  0
 19 31  1  0  0  0
 20 22  2  0  0  0
 20 21  1  0  0  0
 20 32  1  0  0  0
 21 33  1  0  0  0
 22 34  1  0  0  0
 23 24  1  0  0  0
 23 35  1  0  0  0
 23 36  1  0  0  0
 24 37  1  0  0  0
 24 38  1  0  0  0
M  END
> <s_m_entry_id>
49494

> <s_m_entry_name>
dock_pv.84

> <s_m_Source_Path>
/home/csk/Desktop/cluster/DUD-E-result/fgfr1

> <s_m_Source_File>
dock_pv.maegz

> <i_m_Source_File_Index>
84

> <chembl_id>
CHEMBL111618

> <chembl_pref_name>
None

> <i_lp_mmshare_version>
53161

> <i_f3d_flags>
0

> <r_lp_tautomer_probability>
1

> <s_lp_Force_Field>
OPLS_2005

> <r_lp_Energy>
23.031875

> <b_lp_Chiralities_Consistent>
1

> <s_lp_Variant>
CHEMBL3650_lig103-1

> <s_i_glide_gridfile>
glide-grid_3c4f

> <i_i_glide_lignum>
125

> <i_i_glide_rotatable_bonds>
5

> <r_i_docking_score>
-7.88112713747983

> <r_i_glide_ligand_efficiency>
-0.328380297394993

> <r_i_glide_ligand_efficiency_sa>
-0.947212684627263

> <r_i_glide_ligand_efficiency_ln>
-1.8863153653584

> <r_i_glide_gscore>
-7.88112713747983

> <r_i_glide_lipo>
-2.46871113909436

> <r_i_glide_hbond>
-0.336283088628124

> <r_i_glide_metal>
0

> <r_i_glide_rewards>
-3.66379060846365

> <r_i_glide_evdw>
-30.2637748718262

> <r_i_glide_ecoul>
-2.95385479927063

> <r_i_glide_erotb>
0.57680264224337

> <r_i_glide_esite>
-0.0328779800551616

> <r_i_glide_emodel>
-38.804164935999

> <r_i_glide_energy>
-33.2176296710968

> <r_i_glide_einternal>
3.2803008556366

> <i_i_glide_confnum>
36

> <i_i_glide_posenum>
155

> <r_i_glide_eff_state_penalty>
0

> <s_user_duplicate_titles>
CHEMBL3650_lig103

> <s_m_subgroup_title>
dock_pv

> <s_m_subgroupid>
dock_pv

> <b_m_subgroup_collapsed>
1

$$$$
CHEMBL3650_lig2853
                    3D
 Schrodinger Suite 2021-1.
 28 30  0  0  1  0            999 V2000
    8.0677    4.6236   21.0532 N   0  0  0  0  0  0
    7.5672    4.7337   19.7938 C   0  0  0  0  0  0
    6.6808    3.8205   19.2135 C   0  0  0  0  0  0
    6.2523    2.7431   19.9894 C   0  0  0  0  0  0
    6.2303    3.9628   17.8184 C   0  0  0  0  0  0
    6.7713    3.1436   16.8262 C   0  0  0  0  0  0
    6.3107    3.2312   15.5198 C   0  0  0  0  0  0
    5.2895    4.1176   15.1949 C   0  0  0  0  0  0
    4.7741    4.9725   16.1827 C   0  0  0  0  0  0
    5.2472    4.8949   17.4889 C   0  0  0  0  0  0
    7.6713    3.5638   21.7668 C   0  0  0  0  0  0
    6.7509    2.6327   21.2578 N   0  0  0  0  0  0
    6.4603    1.6531   22.1434 N   0  0  0  0  0  0
    7.1954    1.9374   23.2002 C   0  0  0  0  0  0
    7.9737    3.0841   23.0569 C   0  0  0  0  0  0
    4.8484    4.0653   13.8920 O   0  0  0  0  0  0
    3.6778    4.7828   13.5380 C   0  0  0  0  0  0
    9.1869    3.9356   24.2528 Br  0  0  0  0  0  0
    7.9184    5.5762   19.2197 H   0  0  0  0  0  0
    5.5626    1.9820   19.6489 H   0  0  0  0  0  0
    7.5444    2.4263   17.0542 H   0  0  0  0  0  0
    6.7216    2.5874   14.7569 H   0  0  0  0  0  0
    3.9928    5.6829   15.9673 H   0  0  0  0  0  0
    4.8254    5.5330   18.2521 H   0  0  0  0  0  0
    7.1689    1.3294   24.0910 H   0  0  0  0  0  0
    3.5664    4.7371   12.4557 H   0  0  0  0  0  0
    3.7195    5.8301   13.8417 H   0  0  0  0  0  0
    2.7976    4.3375   13.9942 H   0  0  0  0  0  0
  1 11  1  0  0  0
  1  2  2  0  0  0
  2  3  1  0  0  0
  2 19  1  0  0  0
  3  4  2  0  0  0
  3  5  1  0  0  0
  4 12  1  0  0  0
  4 20  1  0  0  0
  5 10  1  0  0  0
  5  6  2  0  0  0
  6  7  1  0  0  0
  6 21  1  0  0  0
  7  8  2  0  0  0
  7 22  1  0  0  0
  8  9  1  0  0  0
  8 16  1  0  0  0
  9 10  2  0  0  0
  9 23  1  0  0  0
 10 24  1  0  0  0
 11 12  1  0  0  0
 11 15  2  0  0  0
 12 13  1  0  0  0
 13 14  2  0  0  0
 14 15  1  0  0  0
 14 25  1  0  0  0
 15 18  1  0  0  0
 16 17  1  0  0  0
 17 26  1  0  0  0
 17 27  1  0  0  0
 17 28  1  0  0  0
M  END
> <s_m_entry_id>
49495

> <s_m_entry_name>
dock_pv.85

> <s_m_Source_Path>
/home/csk/Desktop/cluster/DUD-E-result/fgfr1

> <s_m_Source_File>
dock_pv.maegz

> <i_m_Source_File_Index>
85

> <chembl_id>
CHEMBL443962

> <chembl_pref_name>
None

> <i_lp_mmshare_version>
53161

> <i_f3d_flags>
0

> <r_lp_tautomer_probability>
1

> <s_lp_Force_Field>
OPLS_2005

> <r_lp_Energy>
18.229438

> <b_lp_Chiralities_Consistent>
1

> <s_lp_Variant>
CHEMBL3650_lig2853-1

> <s_i_glide_gridfile>
glide-grid_3c4f

> <i_i_glide_lignum>
3587

> <i_i_glide_rotatable_bonds>
2

> <r_i_docking_score>
-7.88071930406563

> <r_i_glide_ligand_efficiency>
-0.437817739114757

> <r_i_glide_ligand_efficiency_sa>
-1.14740707091152

> <r_i_glide_ligand_efficiency_ln>
-2.0256982608591

> <r_i_glide_gscore>
-7.88071930406563

> <r_i_glide_lipo>
-2.03992351031537

> <r_i_glide_hbond>
-0.267077724983294

> <r_i_glide_metal>
0

> <r_i_glide_rewards>
-3.63378252896153

> <r_i_glide_evdw>
-34.5732917785645

> <r_i_glide_ecoul>
-2.73728775978088

> <r_i_glide_erotb>
0.199322213089921

> <r_i_glide_esite>
0

> <r_i_glide_emodel>
-52.3534782932196

> <r_i_glide_energy>
-37.3105795383453

> <r_i_glide_einternal>
3.42932486534119

> <i_i_glide_confnum>
3

> <i_i_glide_posenum>
86

> <r_i_glide_eff_state_penalty>
0

> <s_user_duplicate_titles>
CHEMBL3650_lig2853

> <s_m_subgroup_title>
dock_pv

> <s_m_subgroupid>
dock_pv

> <b_m_subgroup_collapsed>
1

$$$$
CHEMBL3650_lig1166
                    3D
 Schrodinger Suite 2021-1.
 51 54  0  0  1  0            999 V2000
   10.8484    3.5365   25.0253 N   0  0  0  0  0  0
    9.5763    3.1817   24.6706 C   0  0  0  0  0  0
    9.4774    3.4138   23.3068 C   0  0  0  0  0  0
   10.7551    3.8827   22.9674 C   0  0  0  0  0  0
   11.5823    3.9370   23.9870 N   0  0  0  0  0  0
    8.3192    3.1578   22.4116 C   0  0  0  0  0  0
    8.2675    3.8302   21.2266 N   0  0  0  0  0  0
    6.4086    1.8001   21.8819 N   0  0  0  0  0  0
    7.3785    2.1838   22.7410 C   0  0  0  0  0  0
    6.3921    2.4066   20.6648 C   0  0  0  0  0  0
    7.2935    3.4615   20.3407 C   0  0  0  0  0  0
    7.2103    4.0604   19.0565 C   0  0  0  0  0  0
    6.2820    3.6189   18.0870 C   0  0  0  0  0  0
    5.4841    2.5375   18.4285 C   0  0  0  0  0  0
    5.5187    1.9393   19.6819 C   0  0  0  0  0  0
    6.0858    4.2594   16.8264 N   0  0  0  0  0  0
    5.3407    3.8978   15.6795 C   0  0  0  0  0  0
    4.0898    4.5010   15.4525 C   0  0  0  0  0  0
    3.5742    4.5399   14.1580 C   0  0  0  0  0  0
    4.2393    3.8881   13.1294 C   0  0  0  0  0  0
    5.3672    3.1034   13.3878 C   0  0  0  0  0  0
    5.9316    3.1394   14.6647 C   0  0  0  0  0  0
    5.9712    2.3063   12.4412 O   0  0  0  0  0  0
    5.6254    2.4467   11.0662 C   0  0  0  0  0  0
    6.7711    5.5371   16.6296 C   0  0  0  0  0  0
    6.0832    6.7007   15.8504 C   0  0  0  0  0  0
    6.7711    7.1372   14.6531 N   0  0  0  0  0  0
    3.5015    5.1459   16.5292 O   0  0  0  0  0  0
    2.1040    5.3972   16.5400 C   0  0  0  0  0  0
   11.2359    3.4663   25.9562 H   0  0  0  0  0  0
    8.8803    2.7871   25.3955 H   0  0  0  0  0  0
   11.0774    4.1474   21.9717 H   0  0  0  0  0  0
    7.4304    1.6479   23.6764 H   0  0  0  0  0  0
    7.9291    4.8352   18.8453 H   0  0  0  0  0  0
    4.7709    2.1853   17.7181 H   0  0  0  0  0  0
    4.8509    1.1378   19.9357 H   0  0  0  0  0  0
    2.6806    5.0946   13.9247 H   0  0  0  0  0  0
    3.8220    3.9520   12.1381 H   0  0  0  0  0  0
    6.8719    2.6419   14.8458 H   0  0  0  0  0  0
    6.3706    1.9399   10.4570 H   0  0  0  0  0  0
    5.6035    3.4890   10.7454 H   0  0  0  0  0  0
    4.6734    1.9764   10.8438 H   0  0  0  0  0  0
    6.8083    5.9582   17.6269 H   0  0  0  0  0  0
    7.7905    5.3685   16.2825 H   0  0  0  0  0  0
    5.0845    6.5104   15.5332 H   0  0  0  0  0  0
    5.9712    7.5462   16.5286 H   0  0  0  0  0  0
    7.4368    6.4233   14.3293 H   0  0  0  0  0  0
    6.1093    7.2012   13.8879 H   0  0  0  0  0  0
    1.8292    5.9370   17.4447 H   0  0  0  0  0  0
    1.7334    5.9373   15.6702 H   0  0  0  0  0  0
    1.5710    4.4783   16.6529 H   0  0  0  0  0  0
  1  2  1  0  0  0
  1  5  1  0  0  0
  1 30  1  0  0  0
  2  3  2  0  0  0
  2 31  1  0  0  0
  3  4  1  0  0  0
  3  6  1  0  0  0
  4  5  2  0  0  0
  4 32  1  0  0  0
  6  7  2  0  0  0
  6  9  1  0  0  0
  7 11  1  0  0  0
  8 10  1  0  0  0
  8  9  2  0  0  0
  9 33  1  0  0  0
 10 11  1  0  0  0
 10 15  2  0  0  0
 11 12  2  0  0  0
 12 13  1  0  0  0
 12 34  1  0  0  0
 13 14  2  0  0  0
 13 16  1  0  0  0
 14 15  1  0  0  0
 14 35  1  0  0  0
 15 36  1  0  0  0
 16 17  1  0  0  0
 16 25  1  0  0  0
 17 18  2  0  0  0
 17 22  1  0  0  0
 18 19  1  0  0  0
 18 28  1  0  0  0
 19 20  2  0  0  0
 19 37  1  0  0  0
 20 21  1  0  0  0
 20 38  1  0  0  0
 21 22  2  0  0  0
 21 23  1  0  0  0
 22 39  1  0  0  0
 23 24  1  0  0  0
 24 40  1  0  0  0
 24 41  1  0  0  0
 24 42  1  0  0  0
 25 26  1  0  0  0
 25 43  1  0  0  0
 25 44  1  0  0  0
 26 27  1  0  0  0
 26 45  1  0  0  0
 26 46  1  0  0  0
 27 47  1  0  0  0
 27 48  1  0  0  0
 28 29  1  0  0  0
 29 49  1  0  0  0
 29 50  1  0  0  0
 29 51  1  0  0  0
M  END
> <s_m_entry_id>
49496

> <s_m_entry_name>
dock_pv.86

> <s_m_Source_Path>
/home/csk/Desktop/cluster/DUD-E-result/fgfr1

> <s_m_Source_File>
dock_pv.maegz

> <i_m_Source_File_Index>
86

> <chembl_id>
CHEMBL3979662

> <chembl_pref_name>
None

> <i_lp_mmshare_version>
53161

> <i_f3d_flags>
0

> <r_lp_tautomer_probability>
0.5

> <s_lp_Force_Field>
OPLS_2005

> <r_lp_Energy>
37.667144

> <b_lp_Chiralities_Consistent>
1

> <s_lp_Variant>
CHEMBL3650_lig1166-1

> <s_i_glide_gridfile>
glide-grid_3c4f

> <i_i_glide_lignum>
1480

> <i_i_glide_rotatable_bonds>
7

> <r_i_docking_score>
-7.87284938148934

> <r_i_glide_ligand_efficiency>
-0.271477564878943

> <r_i_glide_ligand_efficiency_sa>
-0.834065089437616

> <r_i_glide_ligand_efficiency_ln>
-1.802682870126

> <r_i_glide_gscore>
-7.87284938148934

> <r_i_glide_lipo>
-3.24697199652484

> <r_i_glide_hbond>
-0.507682723510867

> <r_i_glide_metal>
0

> <r_i_glide_rewards>
-2.04981817746216

> <r_i_glide_evdw>
-26.3862190246582

> <r_i_glide_ecoul>
-8.40568256378174

> <r_i_glide_erotb>
0.511786851808693

> <r_i_glide_esite>
0

> <r_i_glide_emodel>
-47.7653492795218

> <r_i_glide_energy>
-34.7919015884399

> <r_i_glide_einternal>
10.0591688156128

> <i_i_glide_confnum>
13

> <i_i_glide_posenum>
299

> <r_i_glide_eff_state_penalty>
0

> <s_user_duplicate_titles>
CHEMBL3650_lig1166

> <s_m_subgroup_title>
dock_pv

> <s_m_subgroupid>
dock_pv

> <b_m_subgroup_collapsed>
1

$$$$
CHEMBL3650_lig270
                    3D
 Schrodinger Suite 2021-1.
 38 40  0  0  1  0            999 V2000
    9.1707    3.9311   22.9838 C   0  0  0  0  0  0
    8.6286    2.8408   23.6721 C   0  0  0  0  0  0
    7.5711    2.1155   23.1172 C   0  0  0  0  0  0
    8.6480    4.3012   21.7414 C   0  0  0  0  0  0
    7.6049    3.5542   21.1882 C   0  0  0  0  0  0
    7.0923    2.4740   21.8653 C   0  0  0  0  0  0
    6.1330    1.8779   21.0846 N   0  0  0  0  0  0
    5.9709    2.4986   19.9087 C   0  0  0  0  0  0
    6.8900    3.6261   19.9238 C   0  0  0  0  0  0
    7.0349    4.4943   18.9036 C   0  0  0  0  0  0
    6.4293    4.4517   17.5932 C   0  0  0  0  0  0
    5.1737    2.1497   19.0431 O   0  0  0  0  0  0
    7.1762    3.8913   16.6088 N   0  0  0  0  0  0
    6.4737    3.9120   15.4539 C   0  0  0  0  0  0
    5.2640    4.5508   15.6514 C   0  0  0  0  0  0
    5.1941    4.8126   17.0466 C   0  0  0  0  0  0
    4.0269    5.3885   17.8113 C   0  0  0  0  0  0
    4.2537    4.9184   14.5754 C   0  0  0  0  0  0
    3.9745    3.8532   13.4827 C   0  0  0  0  0  0
    5.1672    3.3982   12.6223 C   0  0  0  0  0  0
    5.5463    4.3405   11.7180 O   0  0  0  0  0  0
    5.6848    2.2872   12.7249 O   0  0  0  0  0  0
    9.9899    4.4828   23.4184 H   0  0  0  0  0  0
    9.0287    2.5528   24.6333 H   0  0  0  0  0  0
    7.1661    1.2706   23.6511 H   0  0  0  0  0  0
    9.0737    5.1387   21.2124 H   0  0  0  0  0  0
    5.6189    1.0433   21.3144 H   0  0  0  0  0  0
    7.7312    5.3103   19.0218 H   0  0  0  0  0  0
    8.1168    3.5385   16.7177 H   0  0  0  0  0  0
    6.9566    3.5373   14.5653 H   0  0  0  0  0  0
    3.7573    4.7434   18.6475 H   0  0  0  0  0  0
    4.3016    6.3382   18.2529 H   0  0  0  0  0  0
    3.1271    5.5356   17.2159 H   0  0  0  0  0  0
    4.5508    5.8565   14.1058 H   0  0  0  0  0  0
    3.2940    5.1482   15.0378 H   0  0  0  0  0  0
    3.1858    4.2254   12.8301 H   0  0  0  0  0  0
    3.5734    2.9575   13.9573 H   0  0  0  0  0  0
    5.1380    5.2125   11.8546 H   0  0  0  0  0  0
  1  2  2  0  0  0
  1  4  1  0  0  0
  1 23  1  0  0  0
  2  3  1  0  0  0
  2 24  1  0  0  0
  3  6  2  0  0  0
  3 25  1  0  0  0
  4  5  2  0  0  0
  4 26  1  0  0  0
  5  6  1  0  0  0
  5  9  1  0  0  0
  6  7  1  0  0  0
  7  8  1  0  0  0
  7 27  1  0  0  0
  8 12  2  0  0  0
  8  9  1  0  0  0
  9 10  2  0  0  0
 10 11  1  0  0  0
 10 28  1  0  0  0
 11 13  1  0  0  0
 11 16  2  0  0  0
 13 14  1  0  0  0
 13 29  1  0  0  0
 14 15  2  0  0  0
 14 30  1  0  0  0
 15 16  1  0  0  0
 15 18  1  0  0  0
 16 17  1  0  0  0
 17 31  1  0  0  0
 17 32  1  0  0  0
 17 33  1  0  0  0
 18 19  1  0  0  0
 18 34  1  0  0  0
 18 35  1  0  0  0
 19 20  1  0  0  0
 19 36  1  0  0  0
 19 37  1  0  0  0
 20 21  1  0  0  0
 20 22  2  0  0  0
 21 38  1  0  0  0
M  END
> <s_m_entry_id>
49497

> <s_m_entry_name>
dock_pv.87

> <s_m_Source_Path>
/home/csk/Desktop/cluster/DUD-E-result/fgfr1

> <s_m_Source_File>
dock_pv.maegz

> <i_m_Source_File_Index>
87

> <chembl_id>
CHEMBL344319

> <chembl_pref_name>
None

> <i_lp_mmshare_version>
53161

> <i_f3d_flags>
0

> <r_lp_tautomer_probability>
1

> <s_lp_Force_Field>
OPLS_2005

> <r_lp_Energy>
28.146975

> <b_lp_Chiralities_Consistent>
1

> <s_lp_Variant>
CHEMBL3650_lig270-1

> <s_i_glide_gridfile>
glide-grid_3c4f

> <i_i_glide_lignum>
293

> <i_i_glide_rotatable_bonds>
5

> <r_i_docking_score>
-7.8519199604456

> <r_i_glide_ligand_efficiency>
-0.356905452747527

> <r_i_glide_ligand_efficiency_sa>
-1.00006311489353

> <r_i_glide_ligand_efficiency_ln>
-1.91929564407233

> <r_i_glide_gscore>
-7.8519199604456

> <r_i_glide_lipo>
-2.77835601357267

> <r_i_glide_hbond>
-0.247697017643322

> <r_i_glide_metal>
0

> <r_i_glide_rewards>
-2.75290761484658

> <r_i_glide_evdw>
-43.2476997375488

> <r_i_glide_ecoul>
-4.96705198287964

> <r_i_glide_erotb>
0.83448346992636

> <r_i_glide_esite>
0

> <r_i_glide_emodel>
-63.2746722401195

> <r_i_glide_energy>
-48.2147517204285

> <r_i_glide_einternal>
9.75609302520752

> <i_i_glide_confnum>
73

> <i_i_glide_posenum>
164

> <r_i_glide_eff_state_penalty>
0

> <s_user_duplicate_titles>
CHEMBL3650_lig270

> <s_m_subgroup_title>
dock_pv

> <s_m_subgroupid>
dock_pv

> <b_m_subgroup_collapsed>
1

$$$$
CHEMBL3650_lig3257
                    3D
 Schrodinger Suite 2021-1.
 32 35  0  0  1  0            999 V2000
   13.0280    3.9391   26.3357 Cl  0  0  0  0  0  0
    5.5710    2.5406   18.6753 S   0  0  0  0  0  0
    5.9132    3.8034   15.9521 O   0  0  0  0  0  0
    9.2310    4.0792   21.8080 O   0  0  0  0  0  0
    5.9710    5.8591   16.7919 N   0  0  0  0  0  0
    6.6106    1.5370   22.4113 N   0  0  0  0  0  0
    5.5710    5.9370   15.4635 N   0  0  0  0  0  0
    5.1710    4.2809   13.7865 N   0  0  0  0  0  0
    7.3086    3.4403   20.4635 C   0  0  0  0  0  0
    6.4733    3.9734   18.3122 C   0  0  0  0  0  0
    6.2858    2.4722   20.2523 C   0  0  0  0  0  0
    8.0821    3.3143   21.6587 C   0  0  0  0  0  0
    7.3360    4.3370   19.3467 C   0  0  0  0  0  0
    6.1741    4.5907   17.0347 C   0  0  0  0  0  0
    5.9710    1.5447   21.2302 C   0  0  0  0  0  0
    7.6731    2.3370   22.5784 C   0  0  0  0  0  0
    5.5483    4.7141   15.0189 C   0  0  0  0  0  0
   10.0944    3.9370   22.8893 C   0  0  0  0  0  0
   11.4728    3.9016   22.6530 C   0  0  0  0  0  0
    9.6450    3.9552   24.2174 C   0  0  0  0  0  0
   11.9102    3.9376   25.0222 C   0  0  0  0  0  0
   12.3792    3.9370   23.7113 C   0  0  0  0  0  0
   10.5433    3.9370   25.2799 C   0  0  0  0  0  0
    4.9619    4.9589   13.0614 H   0  0  0  0  0  0
    5.1368    3.3041   13.5462 H   0  0  0  0  0  0
    7.9710    5.2023   19.2959 H   0  0  0  0  0  0
    5.2023    0.8068   21.0530 H   0  0  0  0  0  0
    8.2145    2.1053   23.4801 H   0  0  0  0  0  0
   11.8568    3.8743   21.6489 H   0  0  0  0  0  0
    8.5927    4.0255   24.4287 H   0  0  0  0  0  0
   13.4442    3.9370   23.5215 H   0  0  0  0  0  0
   10.1822    3.9474   26.2979 H   0  0  0  0  0  0
  1 21  1  0  0  0
  2 10  1  0  0  0
  2 11  1  0  0  0
  3 14  1  0  0  0
  3 17  1  0  0  0
  4 12  1  0  0  0
  4 18  1  0  0  0
  5  7  1  0  0  0
  5 14  2  0  0  0
  6 15  1  0  0  0
  6 16  2  0  0  0
  7 17  2  0  0  0
  8 17  1  0  0  0
  8 24  1  0  0  0
  8 25  1  0  0  0
  9 11  1  0  0  0
  9 12  2  0  0  0
  9 13  1  0  0  0
 10 13  2  0  0  0
 10 14  1  0  0  0
 11 15  2  0  0  0
 12 16  1  0  0  0
 13 26  1  0  0  0
 15 27  1  0  0  0
 16 28  1  0  0  0
 18 19  2  0  0  0
 18 20  1  0  0  0
 19 22  1  0  0  0
 19 29  1  0  0  0
 20 23  2  0  0  0
 20 30  1  0  0  0
 21 22  2  0  0  0
 21 23  1  0  0  0
 22 31  1  0  0  0
 23 32  1  0  0  0
M  END
> <s_m_entry_id>
49498

> <s_m_entry_name>
dock_pv.88

> <s_m_Source_Path>
/home/csk/Desktop/cluster/DUD-E-result/fgfr1

> <s_m_Source_File>
dock_pv.maegz

> <i_m_Source_File_Index>
88

> <chembl_id>
CHEMBL1994830

> <chembl_pref_name>
None

> <i_lp_mmshare_version>
53161

> <i_f3d_flags>
0

> <r_lp_tautomer_probability>
0.999975740588055

> <s_lp_Force_Field>
OPLS_2005

> <r_lp_Energy>
7.434485

> <b_lp_Chiralities_Consistent>
1

> <s_lp_Variant>
CHEMBL3650_lig3257-1

> <s_i_glide_gridfile>
glide-grid_3c4f

> <i_i_glide_lignum>
4218

> <i_i_glide_rotatable_bonds>
3

> <r_i_docking_score>
-7.83815219670304

> <r_i_glide_ligand_efficiency>
-0.340789225943611

> <r_i_glide_ligand_efficiency_sa>
-0.969159225737278

> <r_i_glide_ligand_efficiency_ln>
-1.89533627359747

> <r_i_glide_gscore>
-7.83815219670304

> <r_i_glide_lipo>
-3.08536614563497

> <r_i_glide_hbond>
-0.345384763308524

> <r_i_glide_metal>
0

> <r_i_glide_rewards>
-2.49167701515151

> <r_i_glide_evdw>
-38.2998313903809

> <r_i_glide_ecoul>
-2.50421690940857

> <r_i_glide_erotb>
0.479301056328792

> <r_i_glide_esite>
-0.104401223006493

> <r_i_glide_emodel>
-50.5930185937286

> <r_i_glide_energy>
-40.8040482997894

> <r_i_glide_einternal>
6.71211242675781

> <i_i_glide_confnum>
3

> <i_i_glide_posenum>
183

> <r_i_glide_eff_state_penalty>
0

> <s_user_duplicate_titles>
CHEMBL3650_lig3257

> <s_m_subgroup_title>
dock_pv

> <s_m_subgroupid>
dock_pv

> <b_m_subgroup_collapsed>
1

$$$$
CHEMBL3650_lig3224
                    3D
 Schrodinger Suite 2021-1.
 39 41  0  0  1  0            999 V2000
    6.0591    4.5767   17.7195 C   0  0  0  0  0  0
    6.8372    3.9695   16.7379 C   0  0  0  0  0  0
    6.3642    3.8327   15.4355 C   0  0  0  0  0  0
    5.1439    4.3922   15.0688 C   0  0  0  0  0  0
    4.3720    5.0409   16.0276 C   0  0  0  0  0  0
    4.8047    5.0998   17.3535 C   0  0  0  0  0  0
    6.6532    4.7370   19.0971 C   0  0  0  0  0  0
    6.6800    3.6524   20.0380 N   0  0  0  0  0  0
    7.4237    3.7109   21.1591 N   0  0  0  0  0  0
    7.2337    2.5428   21.7308 C   0  0  0  0  0  0
    6.3710    1.7491   21.1182 N   0  0  0  0  0  0
    6.0560    2.4195   20.0365 C   0  0  0  0  0  0
    7.8628    2.1389   22.8871 N   0  0  0  0  0  0
    8.9842    2.6886   23.5360 C   0  0  0  0  0  0
   10.0053    3.3580   22.8575 C   0  0  0  0  0  0
   11.0838    3.8874   23.5642 C   0  0  0  0  0  0
   11.0884    3.8430   24.9603 C   0  0  0  0  0  0
   10.1158    3.1091   25.6343 C   0  0  0  0  0  0
    9.0962    2.5012   24.9145 C   0  0  0  0  0  0
   12.2847    4.7700   25.9145 S   0  0  0  0  0  0
   12.8210    5.8264   25.0530 O   0  0  0  0  0  0
   13.5710    3.6560   26.2530 N   0  0  0  0  0  0
   11.6368    5.0881   27.1909 O   0  0  0  0  0  0
    7.1710    5.8093   19.4055 O   0  0  0  0  0  0
    5.2315    1.9370   19.0615 N   0  0  0  0  0  0
    8.0712    3.5370   17.0530 F   0  0  0  0  0  0
    3.9710    5.6523   18.2530 F   0  0  0  0  0  0
    6.9626    3.3396   14.6873 H   0  0  0  0  0  0
    4.8028    4.3298   14.0449 H   0  0  0  0  0  0
    3.4181    5.4653   15.7504 H   0  0  0  0  0  0
    7.4443    1.4110   23.4452 H   0  0  0  0  0  0
    9.9710    3.4599   21.7850 H   0  0  0  0  0  0
   11.9003    4.3370   23.0218 H   0  0  0  0  0  0
   10.1318    3.0263   26.7119 H   0  0  0  0  0  0
    8.3497    1.9370   25.4530 H   0  0  0  0  0  0
   13.3123    2.8109   26.7631 H   0  0  0  0  0  0
   14.2655    3.5370   25.4976 H   0  0  0  0  0  0
    4.7840    1.0288   19.1638 H   0  0  0  0  0  0
    5.1157    2.4075   18.1761 H   0  0  0  0  0  0
  1  2  2  0  0  0
  1  7  1  0  0  0
  1  6  1  0  0  0
  2  3  1  0  0  0
  2 26  1  0  0  0
  3  4  2  0  0  0
  3 28  1  0  0  0
  4  5  1  0  0  0
  4 29  1  0  0  0
  5  6  2  0  0  0
  5 30  1  0  0  0
  6 27  1  0  0  0
  7  8  1  0  0  0
  7 24  2  0  0  0
  8  9  1  0  0  0
  8 12  1  0  0  0
  9 10  2  0  0  0
 10 13  1  0  0  0
 10 11  1  0  0  0
 11 12  2  0  0  0
 12 25  1  0  0  0
 13 14  1  0  0  0
 13 31  1  0  0  0
 14 15  2  0  0  0
 14 19  1  0  0  0
 15 16  1  0  0  0
 15 32  1  0  0  0
 16 17  2  0  0  0
 16 33  1  0  0  0
 17 18  1  0  0  0
 17 20  1  0  0  0
 18 19  2  0  0  0
 18 34  1  0  0  0
 19 35  1  0  0  0
 20 21  2  0  0  0
 20 22  1  0  0  0
 20 23  2  0  0  0
 22 36  1  0  0  0
 22 37  1  0  0  0
 25 38  1  0  0  0
 25 39  1  0  0  0
M  END
> <s_m_entry_id>
49499

> <s_m_entry_name>
dock_pv.89

> <s_m_Source_Path>
/home/csk/Desktop/cluster/DUD-E-result/fgfr1

> <s_m_Source_File>
dock_pv.maegz

> <i_m_Source_File_Index>
89

> <chembl_id>
CHEMBL191003

> <chembl_pref_name>
JNJ-7706621

> <i_lp_mmshare_version>
53161

> <i_f3d_flags>
0

> <r_lp_tautomer_probability>
1

> <s_lp_Force_Field>
OPLS_2005

> <r_lp_Energy>
31.898483

> <b_lp_Chiralities_Consistent>
1

> <s_lp_Variant>
CHEMBL3650_lig3224-1

> <s_i_glide_gridfile>
glide-grid_3c4f

> <i_i_glide_lignum>
4165

> <i_i_glide_rotatable_bonds>
5

> <r_i_docking_score>
-7.8316806619913

> <r_i_glide_ligand_efficiency>
-0.290062246740418

> <r_i_glide_ligand_efficiency_sa>
-0.870186739265257

> <r_i_glide_ligand_efficiency_ln>
-1.82308614276495

> <r_i_glide_gscore>
-7.8316806619913

> <r_i_glide_lipo>
-1.65071767437106

> <r_i_glide_hbond>
-0.533535343566053

> <r_i_glide_metal>
0

> <r_i_glide_rewards>
-3.07664211905618

> <r_i_glide_evdw>
-37.6448593139648

> <r_i_glide_ecoul>
-7.18195152282715

> <r_i_glide_erotb>
0.502684924801126

> <r_i_glide_esite>
-0.113934755676818

> <r_i_glide_emodel>
-46.8714502649382

> <r_i_glide_energy>
-44.826810836792

> <r_i_glide_einternal>
25.3952865600586

> <i_i_glide_confnum>
13

> <i_i_glide_posenum>
87

> <r_i_glide_eff_state_penalty>
0

> <s_user_duplicate_titles>
CHEMBL3650_lig3224,317507

> <s_m_subgroup_title>
dock_pv

> <s_m_subgroupid>
dock_pv

> <b_m_subgroup_collapsed>
1

$$$$
CHEMBL3650_lig743
                    3D
 Schrodinger Suite 2021-1.
 41 45  0  0  1  0            999 V2000
    4.2137    4.6936   14.1321 C   0  0  0  0  0  0
    6.3169    3.1370   15.2974 C   0  0  0  0  0  0
    5.5710    4.0435   16.1055 C   0  0  0  0  0  0
    4.4814    4.7827   15.5197 C   0  0  0  0  0  0
    3.6430    5.5357   16.2769 N   0  0  0  0  0  0
    3.8678    5.5368   17.6115 C   0  0  0  0  0  0
    4.8744    4.9287   18.2530 N   0  0  0  0  0  0
    5.7472    4.2289   17.5068 C   0  0  0  0  0  0
    4.9526    3.7781   13.4064 C   0  0  0  0  0  0
    5.9195    3.0027   13.9746 C   0  0  0  0  0  0
    6.3675    2.1196   13.0530 O   0  0  0  0  0  0
    5.5469    2.2745   11.9339 C   0  0  0  0  0  0
    4.8558    3.4810   12.0865 O   0  0  0  0  0  0
    6.8226    3.6872   18.2162 N   0  0  0  0  0  0
    6.7709    3.1472   19.5088 C   0  0  0  0  0  0
    7.6671    3.5370   20.5169 C   0  0  0  0  0  0
    7.7468    2.8292   21.7350 C   0  0  0  0  0  0
    6.8614    1.7610   21.9184 C   0  0  0  0  0  0
    5.9709    1.3837   20.9247 C   0  0  0  0  0  0
    5.9127    2.0764   19.7285 C   0  0  0  0  0  0
    8.7902    3.1075   22.7756 C   0  0  0  0  0  0
   10.0191    3.6820   22.4345 C   0  0  0  0  0  0
   11.0081    3.8934   23.3919 C   0  0  0  0  0  0
   10.7741    3.5376   24.7156 C   0  0  0  0  0  0
    9.5710    2.9487   25.0796 C   0  0  0  0  0  0
    8.5917    2.7370   24.1145 C   0  0  0  0  0  0
    3.4297    5.2837   13.6806 H   0  0  0  0  0  0
    7.0988    2.5291   15.7250 H   0  0  0  0  0  0
    3.1707    6.0606   18.2529 H   0  0  0  0  0  0
    6.1034    2.2660   10.9980 H   0  0  0  0  0  0
    4.8281    1.4525   11.9193 H   0  0  0  0  0  0
    7.5350    3.2804   17.6305 H   0  0  0  0  0  0
    8.3476    4.3496   20.3105 H   0  0  0  0  0  0
    6.9072    1.1555   22.8099 H   0  0  0  0  0  0
    5.3427    0.5213   21.0530 H   0  0  0  0  0  0
    5.2370    1.7385   18.9546 H   0  0  0  0  0  0
   10.2327    3.9381   21.4128 H   0  0  0  0  0  0
   11.9536    4.3356   23.1105 H   0  0  0  0  0  0
   11.5403    3.7007   25.4601 H   0  0  0  0  0  0
    9.3963    2.6520   26.1034 H   0  0  0  0  0  0
    7.6672    2.2829   24.4355 H   0  0  0  0  0  0
  1  9  1  0  0  0
  1  4  2  0  0  0
  1 27  1  0  0  0
  2  3  2  0  0  0
  2 10  1  0  0  0
  2 28  1  0  0  0
  3  4  1  0  0  0
  3  8  1  0  0  0
  4  5  1  0  0  0
  5  6  2  0  0  0
  6  7  1  0  0  0
  6 29  1  0  0  0
  7  8  2  0  0  0
  8 14  1  0  0  0
  9 10  2  0  0  0
  9 13  1  0  0  0
 10 11  1  0  0  0
 11 12  1  0  0  0
 12 13  1  0  0  0
 12 30  1  0  0  0
 12 31  1  0  0  0
 14 15  1  0  0  0
 14 32  1  0  0  0
 15 16  2  0  0  0
 15 20  1  0  0  0
 16 17  1  0  0  0
 16 33  1  0  0  0
 17 18  2  0  0  0
 17 21  1  0  0  0
 18 19  1  0  0  0
 18 34  1  0  0  0
 19 20  2  0  0  0
 19 35  1  0  0  0
 20 36  1  0  0  0
 21 22  2  0  0  0
 21 26  1  0  0  0
 22 23  1  0  0  0
 22 37  1  0  0  0
 23 24  2  0  0  0
 23 38  1  0  0  0
 24 25  1  0  0  0
 24 39  1  0  0  0
 25 26  2  0  0  0
 25 40  1  0  0  0
 26 41  1  0  0  0
M  END
> <s_m_entry_id>
49500

> <s_m_entry_name>
dock_pv.90

> <s_m_Source_Path>
/home/csk/Desktop/cluster/DUD-E-result/fgfr1

> <s_m_Source_File>
dock_pv.maegz

> <i_m_Source_File_Index>
90

> <chembl_id>
CHEMBL2419760

> <chembl_pref_name>
None

> <i_lp_mmshare_version>
53161

> <i_f3d_flags>
0

> <r_lp_tautomer_probability>
0.999978000241998

> <s_lp_Force_Field>
OPLS_2005

> <r_lp_Energy>
32.282474

> <b_lp_Chiralities_Consistent>
1

> <s_lp_Variant>
CHEMBL3650_lig743-1

> <s_i_glide_gridfile>
glide-grid_3c4f

> <i_i_glide_lignum>
907

> <i_i_glide_rotatable_bonds>
3

> <r_i_docking_score>
-7.82429015334021

> <r_i_glide_ligand_efficiency>
-0.300934236666931

> <r_i_glide_ligand_efficiency_sa>
-0.891516492006741

> <r_i_glide_ligand_efficiency_ln>
-1.83750886892192

> <r_i_glide_gscore>
-7.82429015334021

> <r_i_glide_lipo>
-3.4171033192544

> <r_i_glide_hbond>
-0.32

> <r_i_glide_metal>
0

> <r_i_glide_rewards>
-2.32790597569097

> <r_i_glide_evdw>
-37.6300354003906

> <r_i_glide_ecoul>
-2.31476187705994

> <r_i_glide_erotb>
0.487838022376623

> <r_i_glide_esite>
-0.018402829192941

> <r_i_glide_emodel>
-40.6552361524914

> <r_i_glide_energy>
-39.9447972774506

> <r_i_glide_einternal>
9.34000301361084

> <i_i_glide_confnum>
19

> <i_i_glide_posenum>
104

> <r_i_glide_eff_state_penalty>
0

> <s_user_duplicate_titles>
CHEMBL3650_lig743,CHEMBL3650_lig762

> <s_m_subgroup_title>
dock_pv

> <s_m_subgroupid>
dock_pv

> <b_m_subgroup_collapsed>
1

$$$$
CHEMBL3650_lig2721
                    3D
 Schrodinger Suite 2021-1.
 38 40  0  0  1  0            999 V2000
    9.3325    2.9177   23.5835 S   0  0  0  0  0  0
    9.1712    4.3370   23.8334 O   0  0  0  0  0  0
   10.3701    2.4740   22.6534 O   0  0  0  0  0  0
    4.4644    4.9474   14.0396 N   0  0  0  0  0  0
    4.8586    3.9377   13.2550 N   0  0  0  0  0  0
    7.7714    2.3363   22.9532 N   0  0  0  0  0  0
    5.9710    1.9369   13.5056 N   0  0  0  0  0  0
    5.5944    3.5635   15.3773 C   0  0  0  0  0  0
    4.8387    4.7593   15.3525 C   0  0  0  0  0  0
    5.8790    3.8622   17.7745 C   0  0  0  0  0  0
    5.5104    3.1069   14.0148 C   0  0  0  0  0  0
    6.1579    3.1369   16.6038 C   0  0  0  0  0  0
    6.3705    3.4453   19.1172 C   0  0  0  0  0  0
    4.5856    5.5044   16.4980 C   0  0  0  0  0  0
    5.1015    5.0173   17.6934 C   0  0  0  0  0  0
    7.2733    2.7420   21.6964 C   0  0  0  0  0  0
    5.9471    2.2553   19.7199 C   0  0  0  0  0  0
    7.2217    4.2918   19.8303 C   0  0  0  0  0  0
    6.3719    1.9185   21.0094 C   0  0  0  0  0  0
    7.6738    3.9439   21.0996 C   0  0  0  0  0  0
    9.5709    2.1232   25.2783 C   0  0  0  0  0  0
   10.5227    2.9547   26.1530 C   0  0  0  0  0  0
    4.0095    5.7510   13.6198 H   0  0  0  0  0  0
    7.5510    1.3938   23.2330 H   0  0  0  0  0  0
    5.8855    1.1086   14.0763 H   0  0  0  0  0  0
    5.8337    1.7598   12.5204 H   0  0  0  0  0  0
    6.7705    2.2485   16.6475 H   0  0  0  0  0  0
    3.9711    6.3791   16.4682 H   0  0  0  0  0  0
    4.8689    5.5449   18.6015 H   0  0  0  0  0  0
    5.2685    1.5957   19.1960 H   0  0  0  0  0  0
    7.5497    5.2220   19.3890 H   0  0  0  0  0  0
    6.0344    0.9907   21.4443 H   0  0  0  0  0  0
    8.3515    4.6218   21.5922 H   0  0  0  0  0  0
    9.9713    1.1368   25.1010 H   0  0  0  0  0  0
    8.5889    2.0174   25.7377 H   0  0  0  0  0  0
   10.7105    2.4588   27.1063 H   0  0  0  0  0  0
   10.1041    3.9383   26.3693 H   0  0  0  0  0  0
   11.4857    3.1054   25.6623 H   0  0  0  0  0  0
  1  2  2  0  0  0
  1  3  2  0  0  0
  1  6  1  0  0  0
  1 21  1  0  0  0
  4  5  1  0  0  0
  4  9  1  0  0  0
  4 23  1  0  0  0
  5 11  2  0  0  0
  6 16  1  0  0  0
  6 24  1  0  0  0
  7 11  1  0  0  0
  7 25  1  0  0  0
  7 26  1  0  0  0
  8  9  1  0  0  0
  8 11  1  0  0  0
  8 12  2  0  0  0
  9 14  2  0  0  0
 10 12  1  0  0  0
 10 13  1  0  0  0
 10 15  2  0  0  0
 12 27  1  0  0  0
 13 17  2  0  0  0
 13 18  1  0  0  0
 14 15  1  0  0  0
 14 28  1  0  0  0
 15 29  1  0  0  0
 16 19  2  0  0  0
 16 20  1  0  0  0
 17 19  1  0  0  0
 17 30  1  0  0  0
 18 20  2  0  0  0
 18 31  1  0  0  0
 19 32  1  0  0  0
 20 33  1  0  0  0
 21 22  1  0  0  0
 21 34  1  0  0  0
 21 35  1  0  0  0
 22 36  1  0  0  0
 22 37  1  0  0  0
 22 38  1  0  0  0
M  END
> <s_m_entry_id>
49502

> <s_m_entry_name>
dock_pv.92

> <s_m_Source_Path>
/home/csk/Desktop/cluster/DUD-E-result/fgfr1

> <s_m_Source_File>
dock_pv.maegz

> <i_m_Source_File_Index>
92

> <chembl_id>
CHEMBL1997597

> <chembl_pref_name>
None

> <i_lp_mmshare_version>
53161

> <i_f3d_flags>
0

> <r_lp_tautomer_probability>
1

> <s_lp_Force_Field>
OPLS_2005

> <r_lp_Energy>
5.559562

> <b_lp_Chiralities_Consistent>
1

> <s_lp_Variant>
CHEMBL3650_lig2721-1

> <s_i_glide_gridfile>
glide-grid_3c4f

> <i_i_glide_lignum>
3381

> <i_i_glide_rotatable_bonds>
4

> <r_i_docking_score>
-7.81915210538092

> <r_i_glide_ligand_efficiency>
-0.355416004790042

> <r_i_glide_ligand_efficiency_sa>
-0.995889623139988

> <r_i_glide_ligand_efficiency_ln>
-1.91128598505797

> <r_i_glide_gscore>
-7.81915210538092

> <r_i_glide_lipo>
-3.00595637169975

> <r_i_glide_hbond>
-0.195539267680307

> <r_i_glide_metal>
0

> <r_i_glide_rewards>
-2.34937566581111

> <r_i_glide_evdw>
-38.3377075195312

> <r_i_glide_ecoul>
-5.49804592132568

> <r_i_glide_erotb>
0.557943900306529

> <r_i_glide_esite>
-0.0846324363208698

> <r_i_glide_emodel>
-54.495359848506

> <r_i_glide_energy>
-43.8357534408569

> <r_i_glide_einternal>
8.97646999359131

> <i_i_glide_confnum>
19

> <i_i_glide_posenum>
54

> <r_i_glide_eff_state_penalty>
0

> <s_user_duplicate_titles>
CHEMBL3650_lig2721

> <s_m_subgroup_title>
dock_pv

> <s_m_subgroupid>
dock_pv

> <b_m_subgroup_collapsed>
1

$$$$
CHEMBL3650_lig3140
                    3D
 Schrodinger Suite 2021-1.
 25 27  0  0  1  0            999 V2000
   10.3758    4.3231   22.2541 Br  0  0  0  0  0  0
    5.5710    1.4494   20.5169 N   0  0  0  0  0  0
    7.0089    1.9366   22.3768 N   0  0  0  0  0  0
    6.9283    3.2145   20.2605 C   0  0  0  0  0  0
    6.0991    3.1060   19.0899 C   0  0  0  0  0  0
    6.5034    2.1983   21.1695 C   0  0  0  0  0  0
    6.0685    3.8762   17.8344 C   0  0  0  0  0  0
    5.4015    1.9370   19.2549 C   0  0  0  0  0  0
    8.0231    3.9917   20.6567 C   0  0  0  0  0  0
    8.6666    3.6300   21.8437 C   0  0  0  0  0  0
    8.1155    2.6586   22.6756 C   0  0  0  0  0  0
    6.5800    3.3146   16.6670 C   0  0  0  0  0  0
    5.3676    5.0787   17.7830 C   0  0  0  0  0  0
    6.3710    3.9575   15.4525 C   0  0  0  0  0  0
    5.1774    5.7285   16.5764 C   0  0  0  0  0  0
    5.6782    5.1657   15.4092 C   0  0  0  0  0  0
    5.1100    0.6016   20.8191 H   0  0  0  0  0  0
    4.7706    1.4079   18.5647 H   0  0  0  0  0  0
    8.4290    4.7372   19.9924 H   0  0  0  0  0  0
    8.6117    2.3867   23.5963 H   0  0  0  0  0  0
    7.1029    2.3698   16.6932 H   0  0  0  0  0  0
    4.9057    5.5042   18.6536 H   0  0  0  0  0  0
    6.7665    3.5348   14.5408 H   0  0  0  0  0  0
    4.6218    6.6499   16.5786 H   0  0  0  0  0  0
    5.5371    5.6676   14.4618 H   0  0  0  0  0  0
  1 10  1  0  0  0
  2  6  1  0  0  0
  2  8  1  0  0  0
  2 17  1  0  0  0
  3  6  2  0  0  0
  3 11  1  0  0  0
  4  5  1  0  0  0
  4  6  1  0  0  0
  4  9  2  0  0  0
  5  7  1  0  0  0
  5  8  2  0  0  0
  7 12  2  0  0  0
  7 13  1  0  0  0
  8 18  1  0  0  0
  9 10  1  0  0  0
  9 19  1  0  0  0
 10 11  2  0  0  0
 11 20  1  0  0  0
 12 14  1  0  0  0
 12 21  1  0  0  0
 13 15  2  0  0  0
 13 22  1  0  0  0
 14 16  2  0  0  0
 14 23  1  0  0  0
 15 16  1  0  0  0
 15 24  1  0  0  0
 16 25  1  0  0  0
M  END
> <s_m_entry_id>
49503

> <s_m_entry_name>
dock_pv.93

> <s_m_Source_Path>
/home/csk/Desktop/cluster/DUD-E-result/fgfr1

> <s_m_Source_File>
dock_pv.maegz

> <i_m_Source_File_Index>
93

> <chembl_id>
CHEMBL1992634

> <chembl_pref_name>
None

> <i_lp_mmshare_version>
53161

> <i_f3d_flags>
0

> <r_lp_tautomer_probability>
0.999998432528457

> <s_lp_Force_Field>
OPLS_2005

> <r_lp_Energy>
9.652335

> <b_lp_Chiralities_Consistent>
1

> <s_lp_Variant>
CHEMBL3650_lig3140-1

> <s_i_glide_gridfile>
glide-grid_3c4f

> <i_i_glide_lignum>
4024

> <i_i_glide_rotatable_bonds>
1

> <r_i_docking_score>
-7.81729560870208

> <r_i_glide_ligand_efficiency>
-0.48858097554388

> <r_i_glide_ligand_efficiency_sa>
-1.23114691019399

> <r_i_glide_ligand_efficiency_ln>
-2.0721303551109

> <r_i_glide_gscore>
-7.81729560870208

> <r_i_glide_lipo>
-2.67020981392874

> <r_i_glide_hbond>
-0.171327051279771

> <r_i_glide_metal>
0

> <r_i_glide_rewards>
-3.39910265964299

> <r_i_glide_evdw>
-27.8119049072266

> <r_i_glide_ecoul>
-2.84310054779053

> <r_i_glide_erotb>
0.24040424367933

> <r_i_glide_esite>
0

> <r_i_glide_emodel>
-36.7759417573975

> <r_i_glide_energy>
-30.6550054550171

> <r_i_glide_einternal>
2.57598233222961

> <i_i_glide_confnum>
2

> <i_i_glide_posenum>
156

> <r_i_glide_eff_state_penalty>
0

> <s_user_duplicate_titles>
CHEMBL3650_lig3140

> <s_m_subgroup_title>
dock_pv

> <s_m_subgroupid>
dock_pv

> <b_m_subgroup_collapsed>
1

$$$$
CHEMBL3650_lig306
                    3D
 Schrodinger Suite 2021-1.
 26 28  0  0  1  0            999 V2000
    6.1572    3.1998   19.5597 N   0  0  0  0  0  0
    5.5718    1.9988   19.9008 C   0  0  0  0  0  0
    5.9719    1.5095   21.0501 N   0  0  0  0  0  0
    7.0578    3.4665   20.5695 C   0  0  0  0  0  0
    6.9219    2.3917   21.4820 C   0  0  0  0  0  0
    5.9278    3.9113   18.4097 C   0  0  0  0  0  0
    7.7259    2.3425   22.6318 C   0  0  0  0  0  0
    6.8674    4.0169   17.3778 C   0  0  0  0  0  0
    7.9709    4.4968   20.7714 C   0  0  0  0  0  0
    4.8405    5.4825   16.6571 S   0  0  0  0  0  0
    4.7711    4.6418   18.1734 C   0  0  0  0  0  0
    6.4222    4.8381   16.3520 C   0  0  0  0  0  0
    8.6760    3.3584   22.8266 C   0  0  0  0  0  0
    8.7868    4.3895   21.8960 C   0  0  0  0  0  0
    9.5281    3.4442   23.9094 O   0  0  0  0  0  0
    9.5697    2.3831   24.8535 C   0  0  0  0  0  0
    4.8358    1.5516   19.2462 H   0  0  0  0  0  0
    7.6147    1.5369   23.3365 H   0  0  0  0  0  0
    7.8359    3.5387   17.3820 H   0  0  0  0  0  0
    8.0615    5.3138   20.0720 H   0  0  0  0  0  0
    3.9011    4.7359   18.8054 H   0  0  0  0  0  0
    6.9567    5.1082   15.4528 H   0  0  0  0  0  0
    9.5411    5.1370   22.0668 H   0  0  0  0  0  0
   10.2390    2.6547   25.6695 H   0  0  0  0  0  0
    9.9710    1.4842   24.3898 H   0  0  0  0  0  0
    8.5924    2.1692   25.2881 H   0  0  0  0  0  0
  1  2  1  0  0  0
  1  4  1  0  0  0
  1  6  1  0  0  0
  2  3  2  0  0  0
  2 17  1  0  0  0
  3  5  1  0  0  0
  4  5  1  0  0  0
  4  9  2  0  0  0
  5  7  2  0  0  0
  6  8  1  0  0  0
  6 11  2  0  0  0
  7 13  1  0  0  0
  7 18  1  0  0  0
  8 12  2  0  0  0
  8 19  1  0  0  0
  9 14  1  0  0  0
  9 20  1  0  0  0
 10 11  1  0  0  0
 10 12  1  0  0  0
 11 21  1  0  0  0
 12 22  1  0  0  0
 13 14  2  0  0  0
 13 15  1  0  0  0
 14 23  1  0  0  0
 15 16  1  0  0  0
 16 24  1  0  0  0
 16 25  1  0  0  0
 16 26  1  0  0  0
M  END
> <s_m_entry_id>
49504

> <s_m_entry_name>
dock_pv.94

> <s_m_Source_Path>
/home/csk/Desktop/cluster/DUD-E-result/fgfr1

> <s_m_Source_File>
dock_pv.maegz

> <i_m_Source_File_Index>
94

> <chembl_id>
CHEMBL358469

> <chembl_pref_name>
None

> <i_lp_mmshare_version>
53161

> <i_f3d_flags>
0

> <r_lp_tautomer_probability>
1

> <s_lp_Force_Field>
OPLS_2005

> <r_lp_Energy>
11.692095

> <b_lp_Chiralities_Consistent>
1

> <s_lp_Variant>
CHEMBL3650_lig306-1

> <s_i_glide_gridfile>
glide-grid_3c4f

> <i_i_glide_lignum>
330

> <i_i_glide_rotatable_bonds>
2

> <r_i_docking_score>
-7.80188070896867

> <r_i_glide_ligand_efficiency>
-0.487617544310542

> <r_i_glide_ligand_efficiency_sa>
-1.22871921561422

> <r_i_glide_ligand_efficiency_ln>
-2.06804432801694

> <r_i_glide_gscore>
-7.80188070896867

> <r_i_glide_lipo>
-2.94718551190723

> <r_i_glide_hbond>
0

> <r_i_glide_metal>
0

> <r_i_glide_rewards>
-2.83614574867536

> <r_i_glide_evdw>
-34.4281272888184

> <r_i_glide_ecoul>
-4.12836503982544

> <r_i_glide_erotb>
0.322111672028657

> <r_i_glide_esite>
0

> <r_i_glide_emodel>
-55.8801765765053

> <r_i_glide_energy>
-38.5564923286438

> <r_i_glide_einternal>
1.12465226650238

> <i_i_glide_confnum>
3

> <i_i_glide_posenum>
251

> <r_i_glide_eff_state_penalty>
0

> <s_user_duplicate_titles>
CHEMBL3650_lig306

> <s_m_subgroup_title>
dock_pv

> <s_m_subgroupid>
dock_pv

> <b_m_subgroup_collapsed>
1

$$$$
CHEMBL3650_lig451
                    3D
 Schrodinger Suite 2021-1.
 41 45  0  0  1  0            999 V2000
   12.7710    4.3369   24.3035 C   0  0  0  0  0  0
   12.9132    4.1526   25.6765 C   0  0  0  0  0  0
   11.9178    3.5370   26.4310 C   0  0  0  0  0  0
   11.6148    3.9370   23.6347 C   0  0  0  0  0  0
   10.5654    3.3881   24.3794 C   0  0  0  0  0  0
   10.7424    3.1380   25.7795 C   0  0  0  0  0  0
    9.6866    2.4710   26.3229 N   0  0  0  0  0  0
    8.8637    2.3370   25.2746 N   0  0  0  0  0  0
    9.2531    2.9322   24.0978 C   0  0  0  0  0  0
    8.4308    2.9385   22.9006 C   0  0  0  0  0  0
    7.5290    1.9370   22.6541 N   0  0  0  0  0  0
    8.4485    3.8542   21.9582 N   0  0  0  0  0  0
    7.5057    3.4370   21.0480 C   0  0  0  0  0  0
    6.9140    2.2169   21.4619 C   0  0  0  0  0  0
    5.9710    1.5370   20.6953 C   0  0  0  0  0  0
    5.6364    2.1116   19.4704 C   0  0  0  0  0  0
    6.1741    3.3257   19.0352 C   0  0  0  0  0  0
    7.1170    4.0068   19.8227 C   0  0  0  0  0  0
    5.8262    3.7523   17.7672 N   0  0  0  0  0  0
    6.6994    3.3530   16.6530 C   0  0  0  0  0  0
    5.9997    3.5387   15.2874 C   0  0  0  0  0  0
    5.5710    4.8861   15.1403 O   0  0  0  0  0  0
    4.6981    5.2962   16.1810 C   0  0  0  0  0  0
    5.3935    5.1371   17.5491 C   0  0  0  0  0  0
   13.5848    4.7843   23.7512 H   0  0  0  0  0  0
   13.8350    4.4587   26.1514 H   0  0  0  0  0  0
   12.0595    3.3592   27.4869 H   0  0  0  0  0  0
   11.5153    4.0888   22.5698 H   0  0  0  0  0  0
    7.9887    1.8447   25.3757 H   0  0  0  0  0  0
    7.4452    1.1273   23.2510 H   0  0  0  0  0  0
    5.5693    0.5816   20.9921 H   0  0  0  0  0  0
    4.9400    1.5844   18.8327 H   0  0  0  0  0  0
    7.5720    4.9202   19.4703 H   0  0  0  0  0  0
    7.6334    3.9178   16.6865 H   0  0  0  0  0  0
    6.9684    2.3020   16.7632 H   0  0  0  0  0  0
    5.1552    2.8560   15.1757 H   0  0  0  0  0  0
    6.6965    3.3091   14.4811 H   0  0  0  0  0  0
    3.7628    4.7370   16.1392 H   0  0  0  0  0  0
    4.4337    6.3370   16.0200 H   0  0  0  0  0  0
    4.6783    5.4119   18.3238 H   0  0  0  0  0  0
    6.2399    5.8201   17.6355 H   0  0  0  0  0  0
  1  2  1  0  0  0
  1  4  2  0  0  0
  1 25  1  0  0  0
  2  3  2  0  0  0
  2 26  1  0  0  0
  3  6  1  0  0  0
  3 27  1  0  0  0
  4  5  1  0  0  0
  4 28  1  0  0  0
  5  9  2  0  0  0
  5  6  1  0  0  0
  6  7  2  0  0  0
  7  8  1  0  0  0
  8  9  1  0  0  0
  8 29  1  0  0  0
  9 10  1  0  0  0
 10 12  2  0  0  0
 10 11  1  0  0  0
 11 14  1  0  0  0
 11 30  1  0  0  0
 12 13  1  0  0  0
 13 14  2  0  0  0
 13 18  1  0  0  0
 14 15  1  0  0  0
 15 16  2  0  0  0
 15 31  1  0  0  0
 16 17  1  0  0  0
 16 32  1  0  0  0
 17 18  2  0  0  0
 17 19  1  0  0  0
 18 33  1  0  0  0
 19 20  1  0  0  0
 19 24  1  0  0  0
 20 21  1  0  0  0
 20 34  1  0  0  0
 20 35  1  0  0  0
 21 22  1  0  0  0
 21 36  1  0  0  0
 21 37  1  0  0  0
 22 23  1  0  0  0
 23 24  1  0  0  0
 23 38  1  0  0  0
 23 39  1  0  0  0
 24 40  1  0  0  0
 24 41  1  0  0  0
M  END
> <s_m_entry_id>
49505

> <s_m_entry_name>
dock_pv.95

> <s_m_Source_Path>
/home/csk/Desktop/cluster/DUD-E-result/fgfr1

> <s_m_Source_File>
dock_pv.maegz

> <i_m_Source_File_Index>
95

> <chembl_id>
CHEMBL209783

> <chembl_pref_name>
None

> <i_lp_mmshare_version>
53161

> <i_f3d_flags>
0

> <r_lp_tautomer_probability>
0.0196078431372549

> <s_lp_Force_Field>
OPLS_2005

> <r_lp_Energy>
44.257713

> <b_lp_Chiralities_Consistent>
1

> <s_lp_Variant>
CHEMBL3650_lig451-2

> <s_i_glide_gridfile>
glide-grid_3c4f

> <i_i_glide_lignum>
504

> <i_i_glide_rotatable_bonds>
2

> <r_i_docking_score>
-7.79996960568738

> <r_i_glide_ligand_efficiency>
-0.324998733570308

> <r_i_glide_ligand_efficiency_sa>
-0.937458566691358

> <r_i_glide_ligand_efficiency_ln>
-1.86689064392399

> <r_i_glide_gscore>
-7.79996960568738

> <r_i_glide_lipo>
-2.94263582055354

> <r_i_glide_hbond>
-0.242468710192619

> <r_i_glide_metal>
0

> <r_i_glide_rewards>
-2.63685189581051

> <r_i_glide_evdw>
-42.3317489624023

> <r_i_glide_ecoul>
-1.34895002841949

> <r_i_glide_erotb>
0.365870511019035

> <r_i_glide_esite>
-0.0249537377666971

> <r_i_glide_emodel>
-56.633084973845

> <r_i_glide_energy>
-43.6806989908218

> <r_i_glide_einternal>
5.88833665847778

> <i_i_glide_confnum>
5

> <i_i_glide_posenum>
208

> <r_i_glide_eff_state_penalty>
0

> <s_user_duplicate_titles>
CHEMBL3650_lig451,352225

> <s_m_subgroup_title>
dock_pv

> <s_m_subgroupid>
dock_pv

> <b_m_subgroup_collapsed>
1

$$$$
CHEMBL3650_lig870
                    3D
 Schrodinger Suite 2021-1.
 40 43  0  0  1  0            999 V2000
    6.1788    3.9073   19.6999 N   0  0  0  0  0  0
    5.8375    2.5118   19.8928 C   0  0  0  0  0  0
    6.4778    2.1727   21.2170 C   0  0  0  0  0  0
    7.3352    3.2881   21.5400 C   0  0  0  0  0  0
    7.0836    4.2804   20.6760 C   0  0  0  0  0  0
    6.3710    1.1370   21.8530 O   0  0  0  0  0  0
    6.0568    4.3726   18.3803 C   0  0  0  0  0  0
    4.8304    4.8133   17.8480 C   0  0  0  0  0  0
    4.7816    5.2600   16.5164 C   0  0  0  0  0  0
    5.9216    5.2166   15.7200 C   0  0  0  0  0  0
    7.1111    4.7337   16.2530 C   0  0  0  0  0  0
    7.1870    4.3369   17.5740 C   0  0  0  0  0  0
    3.7174    4.7370   18.6530 O   0  0  0  0  0  0
    2.5737    5.5370   18.3856 C   0  0  0  0  0  0
    8.3074    3.2597   22.6310 C   0  0  0  0  0  0
    8.1007    2.6798   23.7885 N   0  0  0  0  0  0
    9.2539    2.8621   24.5025 C   0  0  0  0  0  0
   10.1988    3.6042   23.7560 C   0  0  0  0  0  0
    9.5515    3.8468   22.5653 N   0  0  0  0  0  0
    9.5710    2.4371   25.8009 C   0  0  0  0  0  0
   10.8125    2.7974   26.3270 C   0  0  0  0  0  0
   11.7290    3.5370   25.5773 C   0  0  0  0  0  0
   11.4591    3.9370   24.2655 C   0  0  0  0  0  0
    7.5710    5.5574   20.6343 N   0  0  0  0  0  0
    4.7695    2.3627   19.9464 H   0  0  0  0  0  0
    6.1954    1.8499   19.1033 H   0  0  0  0  0  0
    3.8669    5.6068   16.0634 H   0  0  0  0  0  0
    5.8853    5.5365   14.6870 H   0  0  0  0  0  0
    8.0007    4.6608   15.6598 H   0  0  0  0  0  0
    8.1301    3.9800   17.9606 H   0  0  0  0  0  0
    1.7713    5.1983   19.0358 H   0  0  0  0  0  0
    2.7710    6.5696   18.6530 H   0  0  0  0  0  0
    2.1962    5.4678   17.3659 H   0  0  0  0  0  0
    9.8892    4.3192   21.7427 H   0  0  0  0  0  0
    8.8666    1.8563   26.3780 H   0  0  0  0  0  0
   11.0754    2.4888   27.3290 H   0  0  0  0  0  0
   12.6877    3.7822   26.0142 H   0  0  0  0  0  0
   12.1955    4.4812   23.6929 H   0  0  0  0  0  0
    8.1922    5.9044   21.3482 H   0  0  0  0  0  0
    7.2655    6.1970   19.9162 H   0  0  0  0  0  0
  1  2  1  0  0  0
  1  5  1  0  0  0
  1  7  1  0  0  0
  2  3  1  0  0  0
  2 25  1  0  0  0
  2 26  1  0  0  0
  3  4  1  0  0  0
  3  6  2  0  0  0
  4  5  2  0  0  0
  4 15  1  0  0  0
  5 24  1  0  0  0
  7  8  1  0  0  0
  7 12  2  0  0  0
  8  9  2  0  0  0
  8 13  1  0  0  0
  9 10  1  0  0  0
  9 27  1  0  0  0
 10 11  2  0  0  0
 10 28  1  0  0  0
 11 12  1  0  0  0
 11 29  1  0  0  0
 12 30  1  0  0  0
 13 14  1  0  0  0
 14 31  1  0  0  0
 14 32  1  0  0  0
 14 33  1  0  0  0
 15 16  2  0  0  0
 15 19  1  0  0  0
 16 17  1  0  0  0
 17 18  1  0  0  0
 17 20  2  0  0  0
 18 19  1  0  0  0
 18 23  2  0  0  0
 19 34  1  0  0  0
 20 21  1  0  0  0
 20 35  1  0  0  0
 21 22  2  0  0  0
 21 36  1  0  0  0
 22 23  1  0  0  0
 22 37  1  0  0  0
 23 38  1  0  0  0
 24 39  1  0  0  0
 24 40  1  0  0  0
M  END
> <s_m_entry_id>
49506

> <s_m_entry_name>
dock_pv.96

> <s_m_Source_Path>
/home/csk/Desktop/cluster/DUD-E-result/fgfr1

> <s_m_Source_File>
dock_pv.maegz

> <i_m_Source_File_Index>
96

> <chembl_id>
CHEMBL3781175

> <chembl_pref_name>
None

> <i_lp_mmshare_version>
53161

> <i_f3d_flags>
0

> <r_lp_tautomer_probability>
0.999998894702016

> <s_lp_Force_Field>
OPLS_2005

> <r_lp_Energy>
44.182884

> <b_lp_Chiralities_Consistent>
1

> <s_lp_Variant>
CHEMBL3650_lig870-1

> <s_i_glide_gridfile>
glide-grid_3c4f

> <i_i_glide_lignum>
1063

> <i_i_glide_rotatable_bonds>
3

> <r_i_docking_score>
-7.7964159645972

> <r_i_glide_ligand_efficiency>
-0.32485066519155

> <r_i_glide_ligand_efficiency_sa>
-0.937031463580532

> <r_i_glide_ligand_efficiency_ln>
-1.86604009454515

> <r_i_glide_gscore>
-7.7964159645972

> <r_i_glide_lipo>
-2.65284504640526

> <r_i_glide_hbond>
-0.213121480290141

> <r_i_glide_metal>
0

> <r_i_glide_rewards>
-2.76043732860045

> <r_i_glide_evdw>
-35.0777282714844

> <r_i_glide_ecoul>
-5.20011329650879

> <r_i_glide_erotb>
0.363891298749192

> <r_i_glide_esite>
0

> <r_i_glide_emodel>
-51.2435442076147

> <r_i_glide_energy>
-40.2778415679932

> <r_i_glide_einternal>
5.1004638671875

> <i_i_glide_confnum>
8

> <i_i_glide_posenum>
217

> <r_i_glide_eff_state_penalty>
0

> <s_user_duplicate_titles>
CHEMBL3650_lig870

> <s_m_subgroup_title>
dock_pv

> <s_m_subgroupid>
dock_pv

> <b_m_subgroup_collapsed>
1

$$$$
CHEMBL3650_lig864
                    3D
 Schrodinger Suite 2021-1.
 37 40  0  0  1  0            999 V2000
    6.0676    3.5824   19.0041 N   0  0  0  0  0  0
    5.5711    2.2735   19.3947 C   0  0  0  0  0  0
    6.1714    2.0591   20.7668 C   0  0  0  0  0  0
    7.1081    3.1363   20.9704 C   0  0  0  0  0  0
    6.9596    4.0129   19.9662 C   0  0  0  0  0  0
    5.9715    1.1370   21.5439 O   0  0  0  0  0  0
    5.9418    3.9617   17.6526 C   0  0  0  0  0  0
    6.4646    3.1373   16.6520 C   0  0  0  0  0  0
    6.2141    3.4169   15.3130 C   0  0  0  0  0  0
    5.4573    4.5305   14.9632 C   0  0  0  0  0  0
    4.9816    5.3929   15.9515 C   0  0  0  0  0  0
    5.2263    5.1109   17.2980 C   0  0  0  0  0  0
    5.1714    4.7369   13.6370 O   0  0  0  0  0  0
    8.0227    3.1771   22.1192 C   0  0  0  0  0  0
    9.1587    3.8398   22.1423 N   0  0  0  0  0  0
    9.7263    3.5370   23.3576 C   0  0  0  0  0  0
    8.8629    2.7370   24.1397 C   0  0  0  0  0  0
    7.8038    2.5042   23.3006 N   0  0  0  0  0  0
   10.9779    3.8952   23.8797 C   0  0  0  0  0  0
   11.2781    3.5400   25.1968 C   0  0  0  0  0  0
   10.3899    2.7828   25.9608 C   0  0  0  0  0  0
    9.1725    2.3370   25.4445 C   0  0  0  0  0  0
    7.5706    5.2087   19.7690 N   0  0  0  0  0  0
    5.8472    1.4633   18.7203 H   0  0  0  0  0  0
    4.4844    2.2597   19.4525 H   0  0  0  0  0  0
    7.0370    2.2589   16.9098 H   0  0  0  0  0  0
    6.5951    2.7633   14.5437 H   0  0  0  0  0  0
    4.3926    6.2542   15.6786 H   0  0  0  0  0  0
    4.8140    5.7526   18.0624 H   0  0  0  0  0  0
    4.9801    5.6442   13.3563 H   0  0  0  0  0  0
    6.9905    1.9278   23.4475 H   0  0  0  0  0  0
   11.7108    4.3965   23.2714 H   0  0  0  0  0  0
   12.2341    3.8198   25.6182 H   0  0  0  0  0  0
   10.6707    2.5026   26.9663 H   0  0  0  0  0  0
    8.5087    1.7118   26.0240 H   0  0  0  0  0  0
    8.2580    5.5356   20.4320 H   0  0  0  0  0  0
    7.4114    5.7466   18.9311 H   0  0  0  0  0  0
  1  2  1  0  0  0
  1  5  1  0  0  0
  1  7  1  0  0  0
  2  3  1  0  0  0
  2 24  1  0  0  0
  2 25  1  0  0  0
  3  4  1  0  0  0
  3  6  2  0  0  0
  4  5  2  0  0  0
  4 14  1  0  0  0
  5 23  1  0  0  0
  7  8  1  0  0  0
  7 12  2  0  0  0
  8  9  2  0  0  0
  8 26  1  0  0  0
  9 10  1  0  0  0
  9 27  1  0  0  0
 10 11  2  0  0  0
 10 13  1  0  0  0
 11 12  1  0  0  0
 11 28  1  0  0  0
 12 29  1  0  0  0
 13 30  1  0  0  0
 14 15  2  0  0  0
 14 18  1  0  0  0
 15 16  1  0  0  0
 16 17  1  0  0  0
 16 19  2  0  0  0
 17 18  1  0  0  0
 17 22  2  0  0  0
 18 31  1  0  0  0
 19 20  1  0  0  0
 19 32  1  0  0  0
 20 21  2  0  0  0
 20 33  1  0  0  0
 21 22  1  0  0  0
 21 34  1  0  0  0
 22 35  1  0  0  0
 23 36  1  0  0  0
 23 37  1  0  0  0
M  END
> <s_m_entry_id>
49507

> <s_m_entry_name>
dock_pv.97

> <s_m_Source_Path>
/home/csk/Desktop/cluster/DUD-E-result/fgfr1

> <s_m_Source_File>
dock_pv.maegz

> <i_m_Source_File_Index>
97

> <chembl_id>
CHEMBL3780362

> <chembl_pref_name>
None

> <i_lp_mmshare_version>
53161

> <i_f3d_flags>
0

> <r_lp_tautomer_probability>
0.999998894699381

> <s_lp_Force_Field>
OPLS_2005

> <r_lp_Energy>
36.656248

> <b_lp_Chiralities_Consistent>
1

> <s_lp_Variant>
CHEMBL3650_lig864-1

> <s_i_glide_gridfile>
glide-grid_3c4f

> <i_i_glide_lignum>
1057

> <i_i_glide_rotatable_bonds>
3

> <r_i_docking_score>
-7.78214853799614

> <r_i_glide_ligand_efficiency>
-0.338354284260702

> <r_i_glide_ligand_efficiency_sa>
-0.962234575494627

> <r_i_glide_ligand_efficiency_ln>
-1.88179408110904

> <r_i_glide_gscore>
-7.78214853799614

> <r_i_glide_lipo>
-2.50027445280547

> <r_i_glide_hbond>
-0.324581849404912

> <r_i_glide_metal>
0

> <r_i_glide_rewards>
-2.65074484473016

> <r_i_glide_evdw>
-38.688907623291

> <r_i_glide_ecoul>
-5.10528898239136

> <r_i_glide_erotb>
0.393691337467662

> <r_i_glide_esite>
0

> <r_i_glide_emodel>
-56.3035955457699

> <r_i_glide_energy>
-43.7941966056824

> <r_i_glide_einternal>
7.71398687362671

> <i_i_glide_confnum>
6

> <i_i_glide_posenum>
45

> <r_i_glide_eff_state_penalty>
0

> <s_user_duplicate_titles>
CHEMBL3650_lig864

> <s_m_subgroup_title>
dock_pv

> <s_m_subgroupid>
dock_pv

> <b_m_subgroup_collapsed>
1

$$$$
CHEMBL3650_lig787
                    3D
 Schrodinger Suite 2021-1.
 30 33  0  0  1  0            999 V2000
    6.3089    2.9770   20.5233 N   0  0  0  0  0  0
    6.9415    4.0274   19.8869 C   0  0  0  0  0  0
    7.9710    4.5825   20.4322 N   0  0  0  0  0  0
    6.6504    2.3849   21.7116 C   0  0  0  0  0  0
    7.8819    2.9370   22.1919 C   0  0  0  0  0  0
    8.4858    4.0111   21.5662 C   0  0  0  0  0  0
    9.6033    4.3368   22.1959 N   0  0  0  0  0  0
    9.6902    3.5207   23.2330 C   0  0  0  0  0  0
    8.6557    2.6213   23.2672 N   0  0  0  0  0  0
    5.9709    1.5369   22.2529 O   0  0  0  0  0  0
    6.4357    4.4888   18.6556 N   0  0  0  0  0  0
   10.7549    3.5443   24.2196 C   0  0  0  0  0  0
   12.0561    3.9382   23.9752 C   0  0  0  0  0  0
   12.7749    3.9296   25.1398 N   0  0  0  0  0  0
   10.7174    3.1517   25.6095 C   0  0  0  0  0  0
   12.0032    3.4371   26.1670 C   0  0  0  0  0  0
   12.3142    3.1920   27.5080 C   0  0  0  0  0  0
   11.3093    2.6328   28.2976 C   0  0  0  0  0  0
   10.0515    2.3338   27.7819 C   0  0  0  0  0  0
    9.7416    2.5890   26.4480 C   0  0  0  0  0  0
    7.0177    5.1003   18.1015 H   0  0  0  0  0  0
    8.5145    1.8642   23.9241 H   0  0  0  0  0  0
    5.8598    3.8864   18.0883 H   0  0  0  0  0  0
    5.4770    2.5985   20.1013 H   0  0  0  0  0  0
   12.5309    4.2713   23.0624 H   0  0  0  0  0  0
   13.7599    4.1744   25.1710 H   0  0  0  0  0  0
   13.2916    3.4073   27.9149 H   0  0  0  0  0  0
   11.5161    2.4130   29.3352 H   0  0  0  0  0  0
    9.3091    1.8819   28.4247 H   0  0  0  0  0  0
    8.7706    2.3319   26.0643 H   0  0  0  0  0  0
  1  2  1  0  0  0
  1 24  1  0  0  0
  1  4  1  0  0  0
  2  3  2  0  0  0
  2 11  1  0  0  0
  3  6  1  0  0  0
  4 10  2  0  0  0
  4  5  1  0  0  0
  5  6  2  0  0  0
  5  9  1  0  0  0
  6  7  1  0  0  0
  7  8  2  0  0  0
  8 12  1  0  0  0
  8  9  1  0  0  0
  9 22  1  0  0  0
 11 23  1  0  0  0
 11 21  1  0  0  0
 12 13  2  0  0  0
 12 15  1  0  0  0
 13 14  1  0  0  0
 13 25  1  0  0  0
 14 16  1  0  0  0
 14 26  1  0  0  0
 15 16  2  0  0  0
 15 20  1  0  0  0
 16 17  1  0  0  0
 17 18  2  0  0  0
 17 27  1  0  0  0
 18 19  1  0  0  0
 18 28  1  0  0  0
 19 20  2  0  0  0
 19 29  1  0  0  0
 20 30  1  0  0  0
M  END
> <s_m_entry_id>
49508

> <s_m_entry_name>
dock_pv.98

> <s_m_Source_Path>
/home/csk/Desktop/cluster/DUD-E-result/fgfr1

> <s_m_Source_File>
dock_pv.maegz

> <i_m_Source_File_Index>
98

> <chembl_id>
CHEMBL3401363

> <chembl_pref_name>
None

> <i_lp_mmshare_version>
53161

> <i_f3d_flags>
0

> <r_lp_tautomer_probability>
0.116206038698038

> <s_lp_Force_Field>
OPLS_2005

> <r_lp_Energy>
21.729834

> <b_lp_Chiralities_Consistent>
1

> <s_lp_Variant>
CHEMBL3650_lig787-2

> <s_i_glide_gridfile>
glide-grid_3c4f

> <i_i_glide_lignum>
969

> <i_i_glide_rotatable_bonds>
1

> <r_i_docking_score>
-7.77136900992767

> <r_i_glide_ligand_efficiency>
-0.388568450496383

> <r_i_glide_ligand_efficiency_sa>
-1.05473704622713

> <r_i_glide_ligand_efficiency_ln>
-1.94491734628042

> <r_i_glide_gscore>
-7.77136900992767

> <r_i_glide_lipo>
-1.03182816466433

> <r_i_glide_hbond>
-0.528103344360383

> <r_i_glide_metal>
0

> <r_i_glide_rewards>
-3.40013711323274

> <r_i_glide_evdw>
-34.9117660522461

> <r_i_glide_ecoul>
-8.26567554473877

> <r_i_glide_erotb>
0.251232614332166

> <r_i_glide_esite>
-0.0770933676792695

> <r_i_glide_emodel>
-62.2784734824574

> <r_i_glide_energy>
-43.1774415969849

> <r_i_glide_einternal>
0.257080852985382

> <i_i_glide_confnum>
2

> <i_i_glide_posenum>
34

> <r_i_glide_eff_state_penalty>
0

> <s_user_duplicate_titles>
CHEMBL3650_lig787,CHEMBL3650_lig787

> <s_m_subgroup_title>
dock_pv

> <s_m_subgroupid>
dock_pv

> <b_m_subgroup_collapsed>
1

$$$$
CHEMBL3650_lig3311
                    3D
 Schrodinger Suite 2021-1.
 50 54  0  0  1  0            999 V2000
    7.6157    3.1383   22.2922 C   0  0  0  0  0  0
    7.0526    1.8593   22.2079 C   0  0  0  0  0  0
    6.3681    1.4681   21.0530 C   0  0  0  0  0  0
    7.4118    4.0504   21.2558 C   0  0  0  0  0  0
    8.3724    3.5765   23.3486 O   0  0  0  0  0  0
    9.0181    2.6835   24.2455 C   0  0  0  0  0  0
    6.7694    3.6405   20.0930 C   0  0  0  0  0  0
    6.2886    2.3373   19.9659 C   0  0  0  0  0  0
    5.7835    2.0680   18.5591 C   0  0  0  0  0  0
    6.4938    4.3044   18.8150 C   0  0  0  0  0  0
    5.9495    3.4133   17.9089 C   0  0  0  0  0  0
    5.8113    4.1106   16.7155 C   0  0  0  0  0  0
    6.2092    5.3772   17.0568 N   0  0  0  0  0  0
    6.6397    5.5013   18.3142 N   0  0  0  0  0  0
    5.4527    3.7724   15.3219 C   0  0  0  0  0  0
    4.5519    4.5580   14.5974 C   0  0  0  0  0  0
    4.3931    4.3316   13.2313 C   0  0  0  0  0  0
    5.1647    3.3433   12.6199 C   0  0  0  0  0  0
    5.9686    2.5068   13.3204 N   0  0  0  0  0  0
    6.1057    2.7372   14.6519 C   0  0  0  0  0  0
    9.8378    3.6383   25.1377 C   0  0  0  0  0  0
    5.1714    3.1945   11.1719 C   0  0  0  0  0  0
    5.1738    3.0802   10.0184 N   0  0  0  0  0  0
   10.9180    2.9841   25.8700 N   0  0  0  0  0  0
   10.4343    2.0859   26.9290 C   0  0  0  0  0  0
   11.6018    1.4731   27.7359 C   0  0  0  0  0  0
   12.4694    2.4974   28.2197 O   0  0  0  0  0  0
   13.0340    3.2694   27.1613 C   0  0  0  0  0  0
   11.9087    3.9554   26.3598 C   0  0  0  0  0  0
    7.1743    1.1642   23.0202 H   0  0  0  0  0  0
    5.9765    0.4634   20.9845 H   0  0  0  0  0  0
    7.8236    5.0445   21.3353 H   0  0  0  0  0  0
    8.3067    2.0856   24.8228 H   0  0  0  0  0  0
    9.6725    2.0066   23.6901 H   0  0  0  0  0  0
    4.7708    1.6970   18.5671 H   0  0  0  0  0  0
    6.3738    1.3012   18.0656 H   0  0  0  0  0  0
    6.2652    6.1424   16.4007 H   0  0  0  0  0  0
    4.0188    5.3715   15.0671 H   0  0  0  0  0  0
    3.7337    4.9657   12.6565 H   0  0  0  0  0  0
    6.8051    2.1067   15.1813 H   0  0  0  0  0  0
   10.2740    4.4017   24.4946 H   0  0  0  0  0  0
    9.1756    4.1634   25.8262 H   0  0  0  0  0  0
    9.7743    2.6357   27.6044 H   0  0  0  0  0  0
    9.8225    1.2910   26.4981 H   0  0  0  0  0  0
   12.1606    0.7528   27.1309 H   0  0  0  0  0  0
   11.2109    0.9235   28.5938 H   0  0  0  0  0  0
   13.6556    2.6447   26.5116 H   0  0  0  0  0  0
   13.6991    4.0230   27.5876 H   0  0  0  0  0  0
   12.3395    4.4930   25.5121 H   0  0  0  0  0  0
   11.4157    4.7069   26.9843 H   0  0  0  0  0  0
  1  2  2  0  0  0
  1  4  1  0  0  0
  1  5  1  0  0  0
  2  3  1  0  0  0
  2 30  1  0  0  0
  3  8  2  0  0  0
  3 31  1  0  0  0
  4  7  2  0  0  0
  4 32  1  0  0  0
  5  6  1  0  0  0
  6 21  1  0  0  0
  6 33  1  0  0  0
  6 34  1  0  0  0
  7  8  1  0  0  0
  7 10  1  0  0  0
  8  9  1  0  0  0
  9 35  1  0  0  0
  9 36  1  0  0  0
  9 11  1  0  0  0
 10 14  2  0  0  0
 10 11  1  0  0  0
 11 12  2  0  0  0
 12 13  1  0  0  0
 12 15  1  0  0  0
 13 14  1  0  0  0
 13 37  1  0  0  0
 15 16  2  0  0  0
 15 20  1  0  0  0
 16 17  1  0  0  0
 16 38  1  0  0  0
 17 18  2  0  0  0
 17 39  1  0  0  0
 18 19  1  0  0  0
 18 22  1  0  0  0
 19 20  2  0  0  0
 20 40  1  0  0  0
 21 24  1  0  0  0
 21 41  1  0  0  0
 21 42  1  0  0  0
 22 23  3  0  0  0
 24 25  1  0  0  0
 24 29  1  0  0  0
 25 26  1  0  0  0
 25 43  1  0  0  0
 25 44  1  0  0  0
 26 27  1  0  0  0
 26 45  1  0  0  0
 26 46  1  0  0  0
 27 28  1  0  0  0
 28 29  1  0  0  0
 28 47  1  0  0  0
 28 48  1  0  0  0
 29 49  1  0  0  0
 29 50  1  0  0  0
M  END
> <s_m_entry_id>
49509

> <s_m_entry_name>
dock_pv.99

> <s_m_Source_Path>
/home/csk/Desktop/cluster/DUD-E-result/fgfr1

> <s_m_Source_File>
dock_pv.maegz

> <i_m_Source_File_Index>
99

> <chembl_id>
CHEMBL249282

> <chembl_pref_name>
None

> <i_lp_mmshare_version>
53161

> <i_f3d_flags>
0

> <r_lp_tautomer_probability>
0.5

> <s_lp_Force_Field>
OPLS_2005

> <r_lp_Energy>
63.631531

> <b_lp_Chiralities_Consistent>
1

> <s_lp_Variant>
CHEMBL3650_lig3311-2

> <s_i_glide_gridfile>
glide-grid_3c4f

> <i_i_glide_lignum>
4299

> <i_i_glide_rotatable_bonds>
5

> <r_i_docking_score>
-7.77124583875083

> <r_i_glide_ligand_efficiency>
-0.267973994439684

> <r_i_glide_ligand_efficiency_sa>
-0.823301011039187

> <r_i_glide_ligand_efficiency_ln>
-1.77941823528243

> <r_i_glide_gscore>
-7.77124583875083

> <r_i_glide_lipo>
-3.05385958234983

> <r_i_glide_hbond>
-0.506337975952487

> <r_i_glide_metal>
0

> <r_i_glide_rewards>
-1.70960196647978

> <r_i_glide_evdw>
-46.9954681396484

> <r_i_glide_ecoul>
-4.4707088470459

> <r_i_glide_erotb>
0.518933420070577

> <r_i_glide_esite>
0

> <r_i_glide_emodel>
-53.321405338489

> <r_i_glide_energy>
-51.4661769866943

> <r_i_glide_einternal>
9.90751934051514

> <i_i_glide_confnum>
6

> <i_i_glide_posenum>
19

> <r_i_glide_eff_state_penalty>
0

> <s_user_duplicate_titles>
CHEMBL3650_lig3311

> <s_m_subgroup_title>
dock_pv

> <s_m_subgroupid>
dock_pv

> <b_m_subgroup_collapsed>
1

$$$$
CHEMBL3650_lig2587
                    3D
 Schrodinger Suite 2021-1.
 38 40  0  0  1  0            999 V2000
    8.0807    2.5495   22.9209 C   0  0  0  0  0  0
    8.9691    3.4275   22.4017 C   0  0  0  0  0  0
    8.6960    4.1308   21.2444 N   0  0  0  0  0  0
    7.5637    3.9383   20.6313 C   0  0  0  0  0  0
    6.6759    3.0560   21.1649 N   0  0  0  0  0  0
    6.8408    2.3096   22.2530 C   0  0  0  0  0  0
    5.9761    1.5370   22.6073 O   0  0  0  0  0  0
    7.1710    4.5662   19.4062 N   0  0  0  0  0  0
    5.9607    4.0794   18.7049 C   0  0  0  0  0  0
    5.3334    5.0574   17.6814 C   0  0  0  0  0  0
    6.0867    5.1774   16.3451 C   0  0  0  0  0  0
    6.2314    3.8099   15.6855 C   0  0  0  0  0  0
    6.9780    2.8902   16.6530 C   0  0  0  0  0  0
    6.2120    2.7370   17.9787 C   0  0  0  0  0  0
   10.2089    3.7230   23.1632 C   0  0  0  0  0  0
   10.1415    3.9370   24.5519 C   0  0  0  0  0  0
   11.3152    4.1557   25.2727 C   0  0  0  0  0  0
   12.5380    4.1630   24.6919 N   0  0  0  0  0  0
   12.6072    3.9370   23.3568 C   0  0  0  0  0  0
   11.4771    3.7180   22.5655 C   0  0  0  0  0  0
    8.2724    2.0024   23.8307 H   0  0  0  0  0  0
    5.8104    2.8822   20.6897 H   0  0  0  0  0  0
    7.8892    4.9934   18.8401 H   0  0  0  0  0  0
    5.1221    3.8960   19.3789 H   0  0  0  0  0  0
    4.2994    4.7617   17.4952 H   0  0  0  0  0  0
    5.2187    6.0248   18.1433 H   0  0  0  0  0  0
    5.5954    5.8841   15.6747 H   0  0  0  0  0  0
    7.0975    5.5370   16.5217 H   0  0  0  0  0  0
    5.2518    3.3961   15.4401 H   0  0  0  0  0  0
    6.7710    3.8985   14.7430 H   0  0  0  0  0  0
    7.1481    1.9370   16.1718 H   0  0  0  0  0  0
    7.9710    3.2962   16.8517 H   0  0  0  0  0  0
    6.7599    2.0511   18.6236 H   0  0  0  0  0  0
    5.2567    2.2279   17.8530 H   0  0  0  0  0  0
    9.1911    3.9314   25.0656 H   0  0  0  0  0  0
   11.2917    4.3225   26.3399 H   0  0  0  0  0  0
   13.6010    3.9370   22.9337 H   0  0  0  0  0  0
   11.5885    3.5370   21.5086 H   0  0  0  0  0  0
  1  2  2  0  0  0
  1  6  1  0  0  0
  1 21  1  0  0  0
  2  3  1  0  0  0
  2 15  1  0  0  0
  3  4  2  0  0  0
  4  5  1  0  0  0
  4  8  1  0  0  0
  5  6  1  0  0  0
  5 22  1  0  0  0
  6  7  2  0  0  0
  8  9  1  0  0  0
  8 23  1  0  0  0
  9 14  1  0  0  0
  9 10  1  0  0  0
  9 24  1  0  0  0
 10 11  1  0  0  0
 10 25  1  0  0  0
 10 26  1  0  0  0
 11 12  1  0  0  0
 11 27  1  0  0  0
 11 28  1  0  0  0
 12 13  1  0  0  0
 12 29  1  0  0  0
 12 30  1  0  0  0
 13 14  1  0  0  0
 13 31  1  0  0  0
 13 32  1  0  0  0
 14 33  1  0  0  0
 14 34  1  0  0  0
 15 16  2  0  0  0
 15 20  1  0  0  0
 16 17  1  0  0  0
 16 35  1  0  0  0
 17 18  2  0  0  0
 17 36  1  0  0  0
 18 19  1  0  0  0
 19 20  2  0  0  0
 19 37  1  0  0  0
 20 38  1  0  0  0
M  END
> <s_m_entry_id>
49510

> <s_m_entry_name>
dock_pv.100

> <s_m_Source_Path>
/home/csk/Desktop/cluster/DUD-E-result/fgfr1

> <s_m_Source_File>
dock_pv.maegz

> <i_m_Source_File_Index>
100

> <chembl_id>
CHEMBL1958401

> <chembl_pref_name>
None

> <i_lp_mmshare_version>
53161

> <i_f3d_flags>
0

> <r_lp_tautomer_probability>
0.878315377147829

> <s_lp_Force_Field>
OPLS_2005

> <r_lp_Energy>
15.796325

> <b_lp_Chiralities_Consistent>
1

> <s_lp_Variant>
CHEMBL3650_lig2587-1

> <s_i_glide_gridfile>
glide-grid_3c4f

> <i_i_glide_lignum>
3177

> <i_i_glide_rotatable_bonds>
3

> <r_i_docking_score>
-7.76419405553156

> <r_i_glide_ligand_efficiency>
-0.388209702776578

> <r_i_glide_ligand_efficiency_sa>
-1.05376325509755

> <r_i_glide_ligand_efficiency_ln>
-1.94312169184091

> <r_i_glide_gscore>
-7.76419405553156

> <r_i_glide_lipo>
-2.6573675212387

> <r_i_glide_hbond>
-0.32

> <r_i_glide_metal>
0

> <r_i_glide_rewards>
-2.9291827149599

> <r_i_glide_evdw>
-34.8926544189453

> <r_i_glide_ecoul>
-5.64797115325928

> <r_i_glide_erotb>
0.734184574603199

> <r_i_glide_esite>
0

> <r_i_glide_emodel>
-47.5898028768596

> <r_i_glide_energy>
-40.5406255722046

> <r_i_glide_einternal>
6.17328500747681

> <i_i_glide_confnum>
24

> <i_i_glide_posenum>
156

> <r_i_glide_eff_state_penalty>
0

> <s_user_duplicate_titles>
CHEMBL3650_lig2587,CHEMBL3650_lig2587,CHEMBL3650_lig2587

> <s_m_subgroup_title>
dock_pv

> <s_m_subgroupid>
dock_pv

> <b_m_subgroup_collapsed>
1

$$$$
CHEMBL3650_lig517
                    3D
 Schrodinger Suite 2021-1.
 44 47  0  0  1  0            999 V2000
    2.5516    5.5366   15.0579 C   0  0  0  0  0  0
    3.1927    5.2624   13.8529 C   0  0  0  0  0  0
    4.4823    4.7367   13.8319 C   0  0  0  0  0  0
    3.2135    5.2747   16.2568 C   0  0  0  0  0  0
    4.5060    4.7532   16.2369 C   0  0  0  0  0  0
    5.1156    4.4956   15.0386 C   0  0  0  0  0  0
    6.3712    4.0347   15.2855 N   0  0  0  0  0  0
    6.6353    3.9193   16.5915 C   0  0  0  0  0  0
    5.4294    4.3443   17.2806 C   0  0  0  0  0  0
    5.2588    4.3216   18.6195 C   0  0  0  0  0  0
    6.2255    3.9259   19.6549 C   0  0  0  0  0  0
    7.3640    4.6918   19.9027 C   0  0  0  0  0  0
    8.2387    4.3283   20.9212 C   0  0  0  0  0  0
    7.9778    3.2063   21.7128 C   0  0  0  0  0  0
    6.8305    2.4455   21.4547 C   0  0  0  0  0  0
    5.9710    2.7922   20.4214 C   0  0  0  0  0  0
    8.8062    2.8727   22.7751 N   0  0  0  0  0  0
    8.2150    2.4545   24.0491 C   0  0  0  0  0  0
    9.1713    2.3370   25.2662 C   0  0  0  0  0  0
    9.9708    3.5507   25.2970 N   0  0  0  0  0  0
   10.7016    3.9370   24.0887 C   0  0  0  0  0  0
   10.2497    3.1376   22.8447 C   0  0  0  0  0  0
    9.9744    4.3382   26.3916 C   0  0  0  0  0  0
   10.5020    5.4494   26.4457 O   0  0  0  0  0  0
    7.7017    3.5371   17.0531 O   0  0  0  0  0  0
    1.5542    5.9497   15.0606 H   0  0  0  0  0  0
    2.7148    5.5372   12.9234 H   0  0  0  0  0  0
    4.9793    4.5717   12.8869 H   0  0  0  0  0  0
    2.7143    5.4980   17.1890 H   0  0  0  0  0  0
    7.1082    4.0054   14.5909 H   0  0  0  0  0  0
    4.3003    4.6438   18.9985 H   0  0  0  0  0  0
    7.5710    5.5689   19.3073 H   0  0  0  0  0  0
    9.1021    4.9470   21.1081 H   0  0  0  0  0  0
    6.6081    1.5640   22.0346 H   0  0  0  0  0  0
    5.1069    2.1754   20.2230 H   0  0  0  0  0  0
    7.5033    3.2479   24.2530 H   0  0  0  0  0  0
    7.6557    1.5370   23.9299 H   0  0  0  0  0  0
    8.5968    2.1651   26.1784 H   0  0  0  0  0  0
    9.8330    1.4815   25.1330 H   0  0  0  0  0  0
   11.7846    3.8993   24.2147 H   0  0  0  0  0  0
   10.3700    4.9458   23.8938 H   0  0  0  0  0  0
   10.7103    2.1512   22.8623 H   0  0  0  0  0  0
   10.6076    3.6245   21.9384 H   0  0  0  0  0  0
    9.4184    3.8853   27.2279 H   0  0  0  0  0  0
  1  2  2  0  0  0
  1  4  1  0  0  0
  1 26  1  0  0  0
  2  3  1  0  0  0
  2 27  1  0  0  0
  3  6  2  0  0  0
  3 28  1  0  0  0
  4  5  2  0  0  0
  4 29  1  0  0  0
  5  9  1  0  0  0
  5  6  1  0  0  0
  6  7  1  0  0  0
  7  8  1  0  0  0
  7 30  1  0  0  0
  8  9  1  0  0  0
  8 25  2  0  0  0
  9 10  2  0  0  0
 10 11  1  0  0  0
 10 31  1  0  0  0
 11 12  2  0  0  0
 11 16  1  0  0  0
 12 13  1  0  0  0
 12 32  1  0  0  0
 13 14  2  0  0  0
 13 33  1  0  0  0
 14 15  1  0  0  0
 14 17  1  0  0  0
 15 16  2  0  0  0
 15 34  1  0  0  0
 16 35  1  0  0  0
 17 18  1  0  0  0
 17 22  1  0  0  0
 18 19  1  0  0  0
 18 36  1  0  0  0
 18 37  1  0  0  0
 19 20  1  0  0  0
 19 38  1  0  0  0
 19 39  1  0  0  0
 20 21  1  0  0  0
 20 23  1  0  0  0
 21 22  1  0  0  0
 21 40  1  0  0  0
 21 41  1  0  0  0
 22 42  1  0  0  0
 22 43  1  0  0  0
 23 24  2  0  0  0
 23 44  1  0  0  0
M  END
> <s_m_entry_id>
49511

> <s_m_entry_name>
dock_pv.101

> <s_m_Source_Path>
/home/csk/Desktop/cluster/DUD-E-result/fgfr1

> <s_m_Source_File>
dock_pv.maegz

> <i_m_Source_File_Index>
101

> <chembl_id>
CHEMBL315546

> <chembl_pref_name>
None

> <i_lp_mmshare_version>
53161

> <i_f3d_flags>
0

> <r_lp_tautomer_probability>
1

> <s_lp_Force_Field>
OPLS_2005

> <r_lp_Energy>
64.519103

> <b_lp_Chiralities_Consistent>
1

> <s_lp_Variant>
CHEMBL3650_lig517-1

> <s_i_glide_gridfile>
glide-grid_3c4f

> <i_i_glide_lignum>
577

> <i_i_glide_rotatable_bonds>
3

> <r_i_docking_score>
-7.72995608574615

> <r_i_glide_ligand_efficiency>
-0.309198243429846

> <r_i_glide_ligand_efficiency_sa>
-0.904101147443067

> <r_i_glide_ligand_efficiency_ln>
-1.83223124041287

> <r_i_glide_gscore>
-7.72995608574615

> <r_i_glide_lipo>
-3.31818112740949

> <r_i_glide_hbond>
-0.435868537332393

> <r_i_glide_metal>
0

> <r_i_glide_rewards>
-2.37345060330822

> <r_i_glide_evdw>
-29.6890621185303

> <r_i_glide_ecoul>
-2.58137369155884

> <r_i_glide_erotb>
0.339139992702264

> <r_i_glide_esite>
-0.0699366507379792

> <r_i_glide_emodel>
-37.4303672676613

> <r_i_glide_energy>
-32.2704358100891

> <r_i_glide_einternal>
6.26078319549561

> <i_i_glide_confnum>
15

> <i_i_glide_posenum>
81

> <r_i_glide_eff_state_penalty>
0

> <s_user_duplicate_titles>
CHEMBL3650_lig517

> <s_m_subgroup_title>
dock_pv

> <s_m_subgroupid>
dock_pv

> <b_m_subgroup_collapsed>
1

$$$$
CHEMBL3650_lig2880
                    3D
 Schrodinger Suite 2021-1.
 34 36  0  0  1  0            999 V2000
    4.6072    5.4691   15.7620 C   0  0  0  0  0  0
    4.0741    5.2753   17.0312 C   0  0  0  0  0  0
    4.9011    4.8720   18.0749 C   0  0  0  0  0  0
    6.2701    4.6842   17.8624 C   0  0  0  0  0  0
    6.7908    4.8748   16.5837 C   0  0  0  0  0  0
    5.9635    5.2689   15.5348 C   0  0  0  0  0  0
    7.1414    4.3440   18.9134 N   0  0  0  0  0  0
    7.6365    2.7785   22.1218 C   0  0  0  0  0  0
    7.7707    3.6617   21.0873 N   0  0  0  0  0  0
    6.9318    3.5024   20.0184 C   0  0  0  0  0  0
    6.0256    2.4279   19.9608 C   0  0  0  0  0  0
    5.9709    1.5826   21.0610 C   0  0  0  0  0  0
    6.7438    1.7595   22.1593 N   0  0  0  0  0  0
    8.4418    2.8566   23.2679 N   0  0  0  0  0  0
    9.7307    3.3589   23.5077 C   0  0  0  0  0  0
   10.1315    3.5430   24.8334 C   0  0  0  0  0  0
   11.4380    3.9344   25.1273 C   0  0  0  0  0  0
   12.3577    4.1059   24.0943 C   0  0  0  0  0  0
   11.9644    3.9369   22.7678 C   0  0  0  0  0  0
   10.6468    3.5812   22.4790 C   0  0  0  0  0  0
    5.2659    2.1558   18.8752 F   0  0  0  0  0  0
    3.9700    5.7777   14.9454 H   0  0  0  0  0  0
    3.0189    5.4245   17.2053 H   0  0  0  0  0  0
    4.4735    4.7234   19.0530 H   0  0  0  0  0  0
    7.8455    4.7345   16.3918 H   0  0  0  0  0  0
    6.3708    5.4269   14.5474 H   0  0  0  0  0  0
    8.0770    4.7175   18.8366 H   0  0  0  0  0  0
    5.3042    0.7367   21.0525 H   0  0  0  0  0  0
    8.1842    2.1472   23.9387 H   0  0  0  0  0  0
    9.4381    3.3646   25.6423 H   0  0  0  0  0  0
   11.7491    4.0685   26.1530 H   0  0  0  0  0  0
   13.3792    4.3793   24.3222 H   0  0  0  0  0  0
   12.6755    4.0825   21.9687 H   0  0  0  0  0  0
   10.3462    3.4600   21.4530 H   0  0  0  0  0  0
  1  2  1  0  0  0
  1  6  2  0  0  0
  1 22  1  0  0  0
  2  3  2  0  0  0
  2 23  1  0  0  0
  3  4  1  0  0  0
  3 24  1  0  0  0
  4  5  2  0  0  0
  4  7  1  0  0  0
  5  6  1  0  0  0
  5 25  1  0  0  0
  6 26  1  0  0  0
  7 10  1  0  0  0
  7 27  1  0  0  0
  8  9  1  0  0  0
  8 13  2  0  0  0
  8 14  1  0  0  0
  9 10  2  0  0  0
 10 11  1  0  0  0
 11 12  2  0  0  0
 11 21  1  0  0  0
 12 13  1  0  0  0
 12 28  1  0  0  0
 14 15  1  0  0  0
 14 29  1  0  0  0
 15 16  1  0  0  0
 15 20  2  0  0  0
 16 17  2  0  0  0
 16 30  1  0  0  0
 17 18  1  0  0  0
 17 31  1  0  0  0
 18 19  2  0  0  0
 18 32  1  0  0  0
 19 20  1  0  0  0
 19 33  1  0  0  0
 20 34  1  0  0  0
M  END
> <s_m_entry_id>
49512

> <s_m_entry_name>
dock_pv.102

> <s_m_Source_Path>
/home/csk/Desktop/cluster/DUD-E-result/fgfr1

> <s_m_Source_File>
dock_pv.maegz

> <i_m_Source_File_Index>
102

> <chembl_id>
CHEMBL491758

> <chembl_pref_name>
None

> <i_lp_mmshare_version>
53161

> <i_f3d_flags>
0

> <r_lp_tautomer_probability>
0.999999624730965

> <s_lp_Force_Field>
OPLS_2005

> <r_lp_Energy>
12.367817

> <b_lp_Chiralities_Consistent>
1

> <s_lp_Variant>
CHEMBL3650_lig2880-1

> <s_i_glide_gridfile>
glide-grid_3c4f

> <i_i_glide_lignum>
3624

> <i_i_glide_rotatable_bonds>
4

> <r_i_docking_score>
-7.70098235781593

> <r_i_glide_ligand_efficiency>
-0.366713445610283

> <r_i_glide_ligand_efficiency_sa>
-1.01173458987148

> <r_i_glide_ligand_efficiency_ln>
-1.90405232666991

> <r_i_glide_gscore>
-7.70098235781593

> <r_i_glide_lipo>
-2.9078453820879

> <r_i_glide_hbond>
-0.143349599407059

> <r_i_glide_metal>
0

> <r_i_glide_rewards>
-3.18099851472347

> <r_i_glide_evdw>
-36.6158676147461

> <r_i_glide_ecoul>
-3.71559119224548

> <r_i_glide_erotb>
0.919343197976617

> <r_i_glide_esite>
0

> <r_i_glide_emodel>
-48.4074855055109

> <r_i_glide_energy>
-40.3314588069916

> <r_i_glide_einternal>
18.9048004150391

> <i_i_glide_confnum>
96

> <i_i_glide_posenum>
253

> <r_i_glide_eff_state_penalty>
0

> <s_user_duplicate_titles>
CHEMBL3650_lig2880

> <s_m_subgroup_title>
dock_pv

> <s_m_subgroupid>
dock_pv

> <b_m_subgroup_collapsed>
1

$$$$
CHEMBL3650_lig3135
                    3D
 Schrodinger Suite 2021-1.
 36 38  0  0  1  0            999 V2000
    6.3732    1.9369   21.4972 S   0  0  0  0  0  0
    8.7684    4.9168   21.6038 O   0  0  0  0  0  0
   12.9045    4.3755   22.7914 O   0  0  0  0  0  0
    7.2203    3.9742   20.2884 N   0  0  0  0  0  0
    5.5277    2.7577   19.1143 N   0  0  0  0  0  0
    7.7431    2.8156   22.1710 C   0  0  0  0  0  0
    6.3182    3.0012   20.0770 C   0  0  0  0  0  0
    7.9875    3.9990   21.3785 C   0  0  0  0  0  0
    8.4550    2.4259   23.2531 C   0  0  0  0  0  0
    9.6855    2.9827   23.8552 C   0  0  0  0  0  0
    5.5709    3.5465   17.9638 C   0  0  0  0  0  0
   10.7712    3.3972   23.0725 C   0  0  0  0  0  0
   11.9195    3.9358   23.6515 C   0  0  0  0  0  0
    9.7924    3.0586   25.2469 C   0  0  0  0  0  0
    4.8393    4.7370   17.8628 C   0  0  0  0  0  0
    6.4263    3.1889   16.9193 C   0  0  0  0  0  0
   11.9970    4.0236   25.0504 C   0  0  0  0  0  0
   10.9405    3.5779   25.8430 C   0  0  0  0  0  0
    4.9376    5.5363   16.7286 C   0  0  0  0  0  0
    6.5132    3.9757   15.7800 C   0  0  0  0  0  0
    5.7716    5.1489   15.6862 C   0  0  0  0  0  0
   13.7474    5.4345   23.2412 C   0  0  0  0  0  0
    7.3289    4.7092   19.6074 H   0  0  0  0  0  0
    8.0890    1.5373   23.7417 H   0  0  0  0  0  0
   10.7269    3.3198   21.9967 H   0  0  0  0  0  0
    8.9856    2.7115   25.8762 H   0  0  0  0  0  0
    4.1795    5.0361   18.6619 H   0  0  0  0  0  0
    7.0210    2.2902   16.9899 H   0  0  0  0  0  0
   12.8778    4.4178   25.5345 H   0  0  0  0  0  0
   11.0144    3.6325   26.9194 H   0  0  0  0  0  0
    4.3710    6.4487   16.6581 H   0  0  0  0  0  0
    7.1713    3.6869   14.9748 H   0  0  0  0  0  0
    5.8560    5.7621   14.7989 H   0  0  0  0  0  0
   14.4032    5.7503   22.4317 H   0  0  0  0  0  0
   13.1710    6.3073   23.5503 H   0  0  0  0  0  0
   14.3708    5.1372   24.0794 H   0  0  0  0  0  0
  1  6  1  0  0  0
  1  7  1  0  0  0
  2  8  2  0  0  0
  3 13  1  0  0  0
  3 22  1  0  0  0
  4  7  1  0  0  0
  4  8  1  0  0  0
  4 23  1  0  0  0
  5  7  2  3  0  0
  5 11  1  0  0  0
  6  8  1  0  0  0
  6  9  2  3  0  0
  9 10  1  0  0  0
  9 24  1  0  0  0
 10 12  2  0  0  0
 10 14  1  0  0  0
 11 15  2  0  0  0
 11 16  1  0  0  0
 12 13  1  0  0  0
 12 25  1  0  0  0
 13 17  2  0  0  0
 14 18  2  0  0  0
 14 26  1  0  0  0
 15 19  1  0  0  0
 15 27  1  0  0  0
 16 20  2  0  0  0
 16 28  1  0  0  0
 17 18  1  0  0  0
 17 29  1  0  0  0
 18 30  1  0  0  0
 19 21  2  0  0  0
 19 31  1  0  0  0
 20 21  1  0  0  0
 20 32  1  0  0  0
 21 33  1  0  0  0
 22 34  1  0  0  0
 22 35  1  0  0  0
 22 36  1  0  0  0
M  END
> <s_m_entry_id>
49513

> <s_m_entry_name>
dock_pv.103

> <s_m_Source_Path>
/home/csk/Desktop/cluster/DUD-E-result/fgfr1

> <s_m_Source_File>
dock_pv.maegz

> <i_m_Source_File_Index>
103

> <chembl_id>
CHEMBL1972937

> <chembl_pref_name>
None

> <i_lp_mmshare_version>
53161

> <i_f3d_flags>
0

> <r_lp_tautomer_probability>
1

> <s_lp_Force_Field>
OPLS_2005

> <r_lp_Energy>
26.720382

> <b_lp_Chiralities_Consistent>
1

> <s_lp_Variant>
CHEMBL3650_lig3135-2

> <s_i_glide_gridfile>
glide-grid_3c4f

> <i_i_glide_lignum>
4015

> <i_i_glide_rotatable_bonds>
3

> <r_i_docking_score>
-7.69436668290536

> <r_i_glide_ligand_efficiency>
-0.349743940132062

> <r_i_glide_ligand_efficiency_sa>
-0.979996274898684

> <r_i_glide_ligand_efficiency_ln>
-1.88078387614606

> <r_i_glide_gscore>
-7.69436668290536

> <r_i_glide_lipo>
-2.68051454600898

> <r_i_glide_hbond>
0

> <r_i_glide_metal>
0

> <r_i_glide_rewards>
-2.49230013167261

> <r_i_glide_evdw>
-42.5423316955566

> <r_i_glide_ecoul>
-3.91194844245911

> <r_i_glide_erotb>
0.19235684592293

> <r_i_glide_esite>
0

> <r_i_glide_emodel>
-65.1868322363446

> <r_i_glide_energy>
-46.4542801380157

> <r_i_glide_einternal>
5.34175872802734

> <i_i_glide_confnum>
3

> <i_i_glide_posenum>
171

> <r_i_glide_eff_state_penalty>
0

> <s_user_duplicate_titles>
CHEMBL3650_lig3135

> <s_m_subgroup_title>
dock_pv

> <s_m_subgroupid>
dock_pv

> <b_m_subgroup_collapsed>
1

$$$$
CHEMBL3650_lig151
                    3D
 Schrodinger Suite 2021-1.
 26 28  0  0  1  0            999 V2000
    6.2235    3.1722   19.6507 N   0  0  0  0  0  0
    5.5715    2.0210   20.0379 C   0  0  0  0  0  0
    5.9712    1.5356   21.1853 N   0  0  0  0  0  0
    7.1721    3.4072   20.6309 C   0  0  0  0  0  0
    6.9654    2.3786   21.5821 C   0  0  0  0  0  0
    7.7580    2.3183   22.7350 C   0  0  0  0  0  0
    8.1694    4.3678   20.7969 C   0  0  0  0  0  0
    6.0039    3.8938   18.4652 C   0  0  0  0  0  0
    8.7635    3.2676   22.8929 C   0  0  0  0  0  0
    8.9628    4.2657   21.9418 C   0  0  0  0  0  0
    9.5677    3.2177   23.9968 O   0  0  0  0  0  0
    7.0101    3.9974   17.5051 C   0  0  0  0  0  0
    4.7689    4.5070   18.2529 C   0  0  0  0  0  0
    4.5351    5.2149   17.0766 C   0  0  0  0  0  0
    6.7708    4.6985   16.3283 C   0  0  0  0  0  0
    5.5383    5.3076   16.1167 C   0  0  0  0  0  0
    4.7945    1.6045   19.4112 H   0  0  0  0  0  0
    7.6069    1.5409   23.4660 H   0  0  0  0  0  0
    8.3367    5.1371   20.0612 H   0  0  0  0  0  0
    9.7548    4.9814   22.0947 H   0  0  0  0  0  0
    9.3879    2.4483   24.5413 H   0  0  0  0  0  0
    7.9710    3.5371   17.6484 H   0  0  0  0  0  0
    3.9846    4.4377   18.9905 H   0  0  0  0  0  0
    3.5743    5.6741   16.9033 H   0  0  0  0  0  0
    7.5460    4.7690   15.5836 H   0  0  0  0  0  0
    5.3616    5.8508   15.1980 H   0  0  0  0  0  0
  1  2  1  0  0  0
  1  4  1  0  0  0
  1  8  1  0  0  0
  2  3  2  0  0  0
  2 17  1  0  0  0
  3  5  1  0  0  0
  4  5  1  0  0  0
  4  7  2  0  0  0
  5  6  2  0  0  0
  6  9  1  0  0  0
  6 18  1  0  0  0
  7 10  1  0  0  0
  7 19  1  0  0  0
  8 12  1  0  0  0
  8 13  2  0  0  0
  9 10  2  0  0  0
  9 11  1  0  0  0
 10 20  1  0  0  0
 11 21  1  0  0  0
 12 15  2  0  0  0
 12 22  1  0  0  0
 13 14  1  0  0  0
 13 23  1  0  0  0
 14 16  2  0  0  0
 14 24  1  0  0  0
 15 16  1  0  0  0
 15 25  1  0  0  0
 16 26  1  0  0  0
M  END
> <s_m_entry_id>
49514

> <s_m_entry_name>
dock_pv.104

> <s_m_Source_Path>
/home/csk/Desktop/cluster/DUD-E-result/fgfr1

> <s_m_Source_File>
dock_pv.maegz

> <i_m_Source_File_Index>
104

> <chembl_id>
CHEMBL80873

> <chembl_pref_name>
None

> <i_lp_mmshare_version>
53161

> <i_f3d_flags>
0

> <r_lp_tautomer_probability>
1

> <s_lp_Force_Field>
OPLS_2005

> <r_lp_Energy>
12.871435

> <b_lp_Chiralities_Consistent>
1

> <s_lp_Variant>
CHEMBL3650_lig151-1

> <s_i_glide_gridfile>
glide-grid_3c4f

> <i_i_glide_lignum>
173

> <i_i_glide_rotatable_bonds>
2

> <r_i_docking_score>
-7.68829461889215

> <r_i_glide_ligand_efficiency>
-0.480518413680759

> <r_i_glide_ligand_efficiency_sa>
-1.21083052739792

> <r_i_glide_ligand_efficiency_ln>
-2.03793606590851

> <r_i_glide_gscore>
-7.68829461889215

> <r_i_glide_lipo>
-2.81610050364521

> <r_i_glide_hbond>
0

> <r_i_glide_metal>
0

> <r_i_glide_rewards>
-3.0482742273951

> <r_i_glide_evdw>
-30.1332168579102

> <r_i_glide_ecoul>
-4.61939191818237

> <r_i_glide_erotb>
0.375649742771025

> <r_i_glide_esite>
0

> <r_i_glide_emodel>
-49.4312276839068

> <r_i_glide_energy>
-34.7526087760925

> <r_i_glide_einternal>
2.93971633911133

> <i_i_glide_confnum>
4

> <i_i_glide_posenum>
288

> <r_i_glide_eff_state_penalty>
0

> <s_user_duplicate_titles>
CHEMBL3650_lig151

> <s_m_subgroup_title>
dock_pv

> <s_m_subgroupid>
dock_pv

> <b_m_subgroup_collapsed>
1

$$$$
CHEMBL3650_lig2518
                    3D
 Schrodinger Suite 2021-1.
 20 22  0  0  1  0            999 V2000
    9.5863    2.3328   25.9615 Br  0  0  0  0  0  0
    5.9710    1.3801   21.0531 N   0  0  0  0  0  0
    5.5453    1.5371   19.7966 N   0  0  0  0  0  0
    6.7947    2.3770   21.2233 C   0  0  0  0  0  0
    7.7752    2.7912   22.2290 C   0  0  0  0  0  0
    6.8635    3.2001   20.1127 C   0  0  0  0  0  0
    8.4944    3.8345   21.6429 C   0  0  0  0  0  0
    7.9215    4.2411   20.2952 C   0  0  0  0  0  0
    8.0867    2.3370   23.5084 C   0  0  0  0  0  0
    5.9885    2.6790   19.1850 C   0  0  0  0  0  0
    9.6044    4.3370   22.3087 C   0  0  0  0  0  0
    9.1708    2.8921   24.1912 C   0  0  0  0  0  0
    9.9461    3.8734   23.5793 C   0  0  0  0  0  0
    4.8862    0.8759   19.3950 H   0  0  0  0  0  0
    8.6698    4.2027   19.5050 H   0  0  0  0  0  0
    7.5127    5.2517   20.3128 H   0  0  0  0  0  0
    7.5116    1.5489   23.9702 H   0  0  0  0  0  0
    5.7188    2.9415   18.1722 H   0  0  0  0  0  0
   10.1976    5.1132   21.8530 H   0  0  0  0  0  0
   10.7981    4.2887   24.0974 H   0  0  0  0  0  0
  1 12  1  0  0  0
  2  4  2  0  0  0
  2  3  1  0  0  0
  3 14  1  0  0  0
  3 10  1  0  0  0
  4  5  1  0  0  0
  4  6  1  0  0  0
  5  7  1  0  0  0
  5  9  2  0  0  0
  6 10  2  0  0  0
  6  8  1  0  0  0
  7  8  1  0  0  0
  7 11  2  0  0  0
  8 15  1  0  0  0
  8 16  1  0  0  0
  9 12  1  0  0  0
  9 17  1  0  0  0
 10 18  1  0  0  0
 11 13  1  0  0  0
 11 19  1  0  0  0
 12 13  2  0  0  0
 13 20  1  0  0  0
M  END
> <s_m_entry_id>
49515

> <s_m_entry_name>
dock_pv.105

> <s_m_Source_Path>
/home/csk/Desktop/cluster/DUD-E-result/fgfr1

> <s_m_Source_File>
dock_pv.maegz

> <i_m_Source_File_Index>
105

> <chembl_id>
CHEMBL1995172

> <chembl_pref_name>
None

> <i_lp_mmshare_version>
53161

> <i_f3d_flags>
0

> <r_lp_tautomer_probability>
0.5

> <s_lp_Force_Field>
OPLS_2005

> <r_lp_Energy>
35.373785

> <b_lp_Chiralities_Consistent>
1

> <s_lp_Variant>
CHEMBL3650_lig2518-2

> <s_i_glide_gridfile>
glide-grid_3c4f

> <i_i_glide_lignum>
3079

> <i_i_glide_rotatable_bonds>
0

> <r_i_docking_score>
-7.68600703365747

> <r_i_glide_ligand_efficiency>
-0.591231310281344

> <r_i_glide_ligand_efficiency_sa>
-1.39018268714254

> <r_i_glide_ligand_efficiency_ln>
-2.1559933292097

> <r_i_glide_gscore>
-7.68600703365747

> <r_i_glide_lipo>
-2.58990644597231

> <r_i_glide_hbond>
-0.295961408745481

> <r_i_glide_metal>
0

> <r_i_glide_rewards>
-3.02257753820024

> <r_i_glide_evdw>
-23.2989463806152

> <r_i_glide_ecoul>
-4.08409547805786

> <r_i_glide_erotb>
0

> <r_i_glide_esite>
0

> <r_i_glide_emodel>
-39.3700392571075

> <r_i_glide_energy>
-27.3830418586731

> <r_i_glide_einternal>
0

> <i_i_glide_confnum>
1

> <i_i_glide_posenum>
290

> <r_i_glide_eff_state_penalty>
0

> <s_user_duplicate_titles>
CHEMBL3650_lig2518

> <s_m_subgroup_title>
dock_pv

> <s_m_subgroupid>
dock_pv

> <b_m_subgroup_collapsed>
1

$$$$
CHEMBL3650_lig2614
                    3D
 Schrodinger Suite 2021-1.
 27 29  0  0  1  0            999 V2000
    5.7798    2.8574   19.0280 S   0  0  0  0  0  0
   11.0409    3.9846   26.1727 F   0  0  0  0  0  0
    7.5709    4.3370   16.6530 O   0  0  0  0  0  0
    5.8453    5.6243   17.4005 O   0  0  0  0  0  0
    6.3711    1.5370   22.6941 N   0  0  0  0  0  0
    7.4396    3.5047   21.0531 C   0  0  0  0  0  0
    6.4031    2.6145   20.6206 C   0  0  0  0  0  0
    8.0246    3.2654   22.3540 C   0  0  0  0  0  0
    6.8802    4.1624   18.8574 C   0  0  0  0  0  0
    7.6587    4.4348   19.9909 C   0  0  0  0  0  0
    9.3253    3.7574   22.9268 C   0  0  0  0  0  0
    5.9710    1.6009   21.4264 C   0  0  0  0  0  0
    7.3814    2.2997   23.1213 C   0  0  0  0  0  0
    6.8597    4.7370   17.5629 C   0  0  0  0  0  0
    9.5668    3.8512   24.3117 C   0  0  0  0  0  0
   10.4315    3.8682   22.1054 C   0  0  0  0  0  0
   10.8573    3.9370   24.8348 C   0  0  0  0  0  0
   11.7370    3.9368   22.6040 C   0  0  0  0  0  0
   11.9530    3.9370   23.9785 C   0  0  0  0  0  0
    5.8177    5.8899   16.4782 H   0  0  0  0  0  0
    8.3710    5.2328   20.0525 H   0  0  0  0  0  0
    5.2230    0.9083   21.0606 H   0  0  0  0  0  0
    7.7277    2.0248   24.1075 H   0  0  0  0  0  0
    8.7710    3.7650   25.0234 H   0  0  0  0  0  0
   10.2615    3.7948   21.0530 H   0  0  0  0  0  0
   12.5768    3.9615   21.9257 H   0  0  0  0  0  0
   12.9582    3.9771   24.3763 H   0  0  0  0  0  0
  1  7  1  0  0  0
  1  9  1  0  0  0
  2 17  1  0  0  0
  3 14  2  0  0  0
  4 14  1  0  0  0
  4 20  1  0  0  0
  5 12  1  0  0  0
  5 13  2  0  0  0
  6  7  1  0  0  0
  6  8  2  0  0  0
  6 10  1  0  0  0
  7 12  2  0  0  0
  8 11  1  0  0  0
  8 13  1  0  0  0
  9 10  2  0  0  0
  9 14  1  0  0  0
 10 21  1  0  0  0
 11 15  1  0  0  0
 11 16  2  0  0  0
 12 22  1  0  0  0
 13 23  1  0  0  0
 15 17  2  0  0  0
 15 24  1  0  0  0
 16 18  1  0  0  0
 16 25  1  0  0  0
 17 19  1  0  0  0
 18 19  2  0  0  0
 18 26  1  0  0  0
 19 27  1  0  0  0
M  END
> <s_m_entry_id>
49516

> <s_m_entry_name>
dock_pv.106

> <s_m_Source_Path>
/home/csk/Desktop/cluster/DUD-E-result/fgfr1

> <s_m_Source_File>
dock_pv.maegz

> <i_m_Source_File_Index>
106

> <chembl_id>
CHEMBL1974457

> <chembl_pref_name>
None

> <i_lp_mmshare_version>
53161

> <i_f3d_flags>
0

> <r_lp_tautomer_probability>
1

> <s_lp_Force_Field>
OPLS_2005

> <r_lp_Energy>
11.723625

> <b_lp_Chiralities_Consistent>
1

> <s_lp_Variant>
CHEMBL3650_lig2614-1

> <s_i_glide_gridfile>
glide-grid_3c4f

> <i_i_glide_lignum>
3219

> <i_i_glide_rotatable_bonds>
3

> <r_i_docking_score>
-7.67666659017218

> <r_i_glide_ligand_efficiency>
-0.404035083693273

> <r_i_glide_ligand_efficiency_sa>
-1.07812788241048

> <r_i_glide_ligand_efficiency_ln>
-1.94619986028899

> <r_i_glide_gscore>
-7.67666659017218

> <r_i_glide_lipo>
-3.20379671064498

> <r_i_glide_hbond>
-0.32

> <r_i_glide_metal>
0

> <r_i_glide_rewards>
-3.16273444580313

> <r_i_glide_evdw>
-23.9223575592041

> <r_i_glide_ecoul>
-1.82902002334595

> <r_i_glide_erotb>
0.480335447738021

> <r_i_glide_esite>
0

> <r_i_glide_emodel>
-29.7238057405927

> <r_i_glide_energy>
-25.75137758255

> <r_i_glide_einternal>
9.84746837615967

> <i_i_glide_confnum>
8

> <i_i_glide_posenum>
194

> <r_i_glide_eff_state_penalty>
0

> <s_user_duplicate_titles>
CHEMBL3650_lig2614

> <s_m_subgroup_title>
dock_pv

> <s_m_subgroupid>
dock_pv

> <b_m_subgroup_collapsed>
1

$$$$
CHEMBL3650_lig2881
                    3D
 Schrodinger Suite 2021-1.
 32 35  0  0  1  0            999 V2000
    6.3710    2.3370   13.5744 O   0  0  0  0  0  0
    4.7840    3.9370   13.3452 N   0  0  0  0  0  0
    7.1171    5.1370   19.4380 N   0  0  0  0  0  0
    5.5825    3.6956   15.4196 C   0  0  0  0  0  0
    4.4288    4.5757   15.4525 C   0  0  0  0  0  0
    3.9879    4.6910   14.1589 C   0  0  0  0  0  0
    6.5115    3.7700   17.7467 C   0  0  0  0  0  0
    5.6630    3.2153   14.0501 C   0  0  0  0  0  0
    6.3706    3.0739   18.9956 C   0  0  0  0  0  0
    6.4183    3.2696   16.3880 C   0  0  0  0  0  0
    6.8177    3.9406   20.0394 C   0  0  0  0  0  0
    6.7824    5.0678   18.1100 C   0  0  0  0  0  0
    3.6883    5.1370   16.4896 C   0  0  0  0  0  0
    2.8265    5.3799   13.8530 C   0  0  0  0  0  0
    5.9361    1.7946   19.3449 C   0  0  0  0  0  0
    6.8836    3.5424   21.3786 C   0  0  0  0  0  0
    2.3833    5.5370   16.1958 C   0  0  0  0  0  0
    1.9710    5.7173   14.8813 C   0  0  0  0  0  0
    5.9710    1.3994   20.6801 C   0  0  0  0  0  0
    6.4499    2.2504   21.6722 C   0  0  0  0  0  0
    4.6514    3.8340   12.3517 H   0  0  0  0  0  0
    7.4432    5.9841   19.8793 H   0  0  0  0  0  0
    7.1682    2.5239   16.1596 H   0  0  0  0  0  0
    6.8743    5.9370   17.4818 H   0  0  0  0  0  0
    3.9910    5.0345   17.5209 H   0  0  0  0  0  0
    2.5266    5.5370   12.8286 H   0  0  0  0  0  0
    5.5565    1.1368   18.5827 H   0  0  0  0  0  0
    7.2395    4.2018   22.1552 H   0  0  0  0  0  0
    1.6964    5.7729   16.9964 H   0  0  0  0  0  0
    1.0002    6.1269   14.6610 H   0  0  0  0  0  0
    5.6305    0.4081   20.9403 H   0  0  0  0  0  0
    6.4800    1.9082   22.6964 H   0  0  0  0  0  0
  1  8  2  0  0  0
  2  6  1  0  0  0
  2  8  1  0  0  0
  2 21  1  0  0  0
  3 11  1  0  0  0
  3 12  1  0  0  0
  3 22  1  0  0  0
  4  5  1  0  0  0
  4  8  1  0  0  0
  4 10  2  3  0  0
  5  6  1  0  0  0
  5 13  2  0  0  0
  6 14  2  0  0  0
  7  9  1  0  0  0
  7 10  1  0  0  0
  7 12  2  0  0  0
  9 11  1  0  0  0
  9 15  2  0  0  0
 10 23  1  0  0  0
 11 16  2  0  0  0
 12 24  1  0  0  0
 13 17  1  0  0  0
 13 25  1  0  0  0
 14 18  1  0  0  0
 14 26  1  0  0  0
 15 19  1  0  0  0
 15 27  1  0  0  0
 16 20  1  0  0  0
 16 28  1  0  0  0
 17 18  2  0  0  0
 17 29  1  0  0  0
 18 30  1  0  0  0
 19 20  2  0  0  0
 19 31  1  0  0  0
 20 32  1  0  0  0
M  END
> <s_m_entry_id>
49517

> <s_m_entry_name>
dock_pv.107

> <s_m_Source_Path>
/home/csk/Desktop/cluster/DUD-E-result/fgfr1

> <s_m_Source_File>
dock_pv.maegz

> <i_m_Source_File_Index>
107

> <chembl_id>
CHEMBL1986590

> <chembl_pref_name>
None

> <i_lp_mmshare_version>
53161

> <i_f3d_flags>
0

> <r_lp_tautomer_probability>
1

> <s_lp_Force_Field>
OPLS_2005

> <r_lp_Energy>
36.742984

> <b_lp_Chiralities_Consistent>
1

> <s_lp_Variant>
CHEMBL3650_lig2881-1

> <s_i_glide_gridfile>
glide-grid_3c4f

> <i_i_glide_lignum>
3625

> <i_i_glide_rotatable_bonds>
1

> <r_i_docking_score>
-7.67558224941602

> <r_i_glide_ligand_efficiency>
-0.383779112470801

> <r_i_glide_ligand_efficiency_sa>
-1.04173678273165

> <r_i_glide_ligand_efficiency_ln>
-1.92094507938316

> <r_i_glide_gscore>
-7.67558224941602

> <r_i_glide_lipo>
-3.21154345279776

> <r_i_glide_hbond>
-0.32

> <r_i_glide_metal>
0

> <r_i_glide_rewards>
-2.95290316773768

> <r_i_glide_evdw>
-16.1631755828857

> <r_i_glide_ecoul>
-2.54480743408203

> <r_i_glide_erotb>
0

> <r_i_glide_esite>
-0.00125573462398579

> <r_i_glide_emodel>
-30.8011848442382

> <r_i_glide_energy>
-18.7079830169678

> <r_i_glide_einternal>
2.69786953926086

> <i_i_glide_confnum>
1

> <i_i_glide_posenum>
380

> <r_i_glide_eff_state_penalty>
0

> <s_user_duplicate_titles>
CHEMBL3650_lig2881

> <s_m_subgroup_title>
dock_pv

> <s_m_subgroupid>
dock_pv

> <b_m_subgroup_collapsed>
1

$$$$
CHEMBL3650_lig2983
                    3D
 Schrodinger Suite 2021-1.
 24 26  0  0  1  0            999 V2000
    9.9710    2.3637   25.5704 I   0  0  0  0  0  0
    5.9710    1.1381   22.1029 O   0  0  0  0  0  0
    7.5827    4.6891   20.3383 N   0  0  0  0  0  0
    5.9710    2.1948   20.1866 N   0  0  0  0  0  0
    9.1710    4.6325   22.0465 N   0  0  0  0  0  0
    9.7266    4.1369   23.1628 N   0  0  0  0  0  0
    7.5650    2.8636   21.9896 C   0  0  0  0  0  0
    8.1020    4.0426   21.4530 C   0  0  0  0  0  0
    6.4411    2.0309   21.4253 C   0  0  0  0  0  0
    6.8218    4.3168   19.2342 C   0  0  0  0  0  0
    6.1356    3.0950   19.1429 C   0  0  0  0  0  0
    8.1068    2.3972   23.1983 C   0  0  0  0  0  0
    9.1858    3.0566   23.7608 C   0  0  0  0  0  0
    6.7583    5.1790   18.1441 C   0  0  0  0  0  0
    5.5710    2.7370   17.9217 C   0  0  0  0  0  0
    6.1831    4.8240   16.9309 C   0  0  0  0  0  0
    5.6081    3.5720   16.8100 C   0  0  0  0  0  0
    8.0775    5.5511   20.1692 H   0  0  0  0  0  0
    5.2960    1.4702   19.9853 H   0  0  0  0  0  0
    7.7105    1.5370   23.7142 H   0  0  0  0  0  0
    7.1710    6.1606   18.2530 H   0  0  0  0  0  0
    5.0382    1.8050   17.8530 H   0  0  0  0  0  0
    6.1899    5.5094   16.0945 H   0  0  0  0  0  0
    5.1575    3.2686   15.8762 H   0  0  0  0  0  0
  1 13  1  0  0  0
  2  9  2  0  0  0
  3  8  1  0  0  0
  3 10  1  0  0  0
  3 18  1  0  0  0
  4  9  1  0  0  0
  4 11  1  0  0  0
  4 19  1  0  0  0
  5  6  2  0  0  0
  5  8  1  0  0  0
  6 13  1  0  0  0
  7  8  2  0  0  0
  7  9  1  0  0  0
  7 12  1  0  0  0
 10 11  1  0  0  0
 10 14  2  0  0  0
 11 15  2  0  0  0
 12 13  2  0  0  0
 12 20  1  0  0  0
 14 16  1  0  0  0
 14 21  1  0  0  0
 15 17  1  0  0  0
 15 22  1  0  0  0
 16 17  2  0  0  0
 16 23  1  0  0  0
 17 24  1  0  0  0
M  END
> <s_m_entry_id>
49518

> <s_m_entry_name>
dock_pv.108

> <s_m_Source_Path>
/home/csk/Desktop/cluster/DUD-E-result/fgfr1

> <s_m_Source_File>
dock_pv.maegz

> <i_m_Source_File_Index>
108

> <chembl_id>
CHEMBL1977346

> <chembl_pref_name>
None

> <i_lp_mmshare_version>
53161

> <i_f3d_flags>
0

> <r_lp_tautomer_probability>
0.999989120118012

> <s_lp_Force_Field>
OPLS_2005

> <r_lp_Energy>
29.924697

> <b_lp_Chiralities_Consistent>
1

> <s_lp_Variant>
CHEMBL3650_lig2983-1

> <s_i_glide_gridfile>
glide-grid_3c4f

> <i_i_glide_lignum>
3779

> <i_i_glide_rotatable_bonds>
0

> <r_i_docking_score>
-7.67371332183242

> <r_i_glide_ligand_efficiency>
-0.45139490128426

> <r_i_glide_ligand_efficiency_sa>
-1.16066339869307

> <r_i_glide_ligand_efficiency_ln>
-2.00190092047219

> <r_i_glide_gscore>
-7.67371332183242

> <r_i_glide_lipo>
-2.51851215087416

> <r_i_glide_hbond>
-0.263493790892764

> <r_i_glide_metal>
0

> <r_i_glide_rewards>
-2.74624605918842

> <r_i_glide_evdw>
-22.0954818725586

> <r_i_glide_ecoul>
-6.93791484832764

> <r_i_glide_erotb>
0

> <r_i_glide_esite>
0

> <r_i_glide_emodel>
-29.7505480446133

> <r_i_glide_energy>
-29.0333967208862

> <r_i_glide_einternal>
0

> <i_i_glide_confnum>
1

> <i_i_glide_posenum>
315

> <r_i_glide_eff_state_penalty>
0

> <s_user_duplicate_titles>
CHEMBL3650_lig2983

> <s_m_subgroup_title>
dock_pv

> <s_m_subgroupid>
dock_pv

> <b_m_subgroup_collapsed>
1

$$$$
CHEMBL3650_lig3232
                    3D
 Schrodinger Suite 2021-1.
 43 45  0  0  1  0            999 V2000
    5.7982    2.2694   19.5887 N   0  0  0  0  0  0
    5.9710    1.3958   20.6133 C   0  0  0  0  0  0
    6.7021    1.5370   21.7353 N   0  0  0  0  0  0
    6.4393    3.4686   19.6616 C   0  0  0  0  0  0
    7.2993    3.7132   20.7890 C   0  0  0  0  0  0
    7.3740    2.6713   21.7583 C   0  0  0  0  0  0
    8.3031    3.0000   22.7109 N   0  0  0  0  0  0
    8.8209    4.2282   22.4149 C   0  0  0  0  0  0
    8.1734    4.7383   21.3095 C   0  0  0  0  0  0
    6.2382    4.3942   18.5897 N   0  0  0  0  0  0
    5.5080    4.1334   17.3152 C   0  0  2  0  0  0
    6.9547    5.6460   18.6791 C   0  0  0  0  0  0
    6.5034    4.0378   16.1146 C   0  0  0  0  0  0
    5.7038    4.0075   14.8648 N   0  0  0  0  0  0
    4.9016    5.2056   14.5926 C   0  0  0  0  0  0
    3.7914    5.1889   15.6546 C   0  0  0  0  0  0
    4.4201    5.2435   17.0654 C   0  0  1  0  0  0
    3.4203    5.2963   18.2114 C   0  0  0  0  0  0
    5.6682    2.9232   14.0557 C   0  0  0  0  0  0
    6.3710    1.9401   14.2528 O   0  0  0  0  0  0
    4.6810    2.8438   12.8900 C   0  0  0  0  0  0
    5.1831    3.2046   11.5557 C   0  0  0  0  0  0
    5.5710    3.4781   10.4988 N   0  0  0  0  0  0
    5.5710    0.4107   20.5252 H   0  0  0  0  0  0
    8.5949    2.4405   23.4994 H   0  0  0  0  0  0
    9.5709    4.6584   23.0589 H   0  0  0  0  0  0
    8.3655    5.7253   20.9338 H   0  0  0  0  0  0
    5.0166    3.1666   17.4048 H   0  0  0  0  0  0
    6.7710    6.1853   19.6041 H   0  0  0  0  0  0
    7.9890    5.3770   18.6531 H   0  0  0  0  0  0
    6.7709    6.3184   17.8530 H   0  0  0  0  0  0
    7.1749    3.1828   16.2025 H   0  0  0  0  0  0
    7.1553    4.9114   16.0730 H   0  0  0  0  0  0
    5.5575    6.0674   14.7290 H   0  0  0  0  0  0
    4.5748    5.3109   13.5580 H   0  0  0  0  0  0
    3.1340    6.0437   15.5055 H   0  0  0  0  0  0
    3.1369    4.3370   15.5008 H   0  0  0  0  0  0
    4.9134    6.2141   17.0613 H   0  0  0  0  0  0
    3.1710    4.3371   18.6015 H   0  0  0  0  0  0
    3.9593    5.6424   19.0529 H   0  0  0  0  0  0
    2.5302    5.9030   18.0565 H   0  0  0  0  0  0
    3.7697    3.4067   13.0839 H   0  0  0  0  0  0
    4.3710    1.8015   12.8109 H   0  0  0  0  0  0
  1  2  1  0  0  0
  1  4  2  0  0  0
  2  3  2  0  0  0
  2 24  1  0  0  0
  3  6  1  0  0  0
  4  5  1  0  0  0
  4 10  1  0  0  0
  5  9  1  0  0  0
  5  6  2  0  0  0
  6  7  1  0  0  0
  7  8  1  0  0  0
  7 25  1  0  0  0
  8  9  2  0  0  0
  8 26  1  0  0  0
  9 27  1  0  0  0
 10 11  1  0  0  0
 10 12  1  0  0  0
 11 13  1  0  0  0
 11 17  1  0  0  0
 11 28  1  0  0  0
 12 29  1  0  0  0
 12 30  1  0  0  0
 12 31  1  0  0  0
 13 14  1  0  0  0
 13 32  1  0  0  0
 13 33  1  0  0  0
 14 15  1  0  0  0
 14 19  1  0  0  0
 15 16  1  0  0  0
 15 34  1  0  0  0
 15 35  1  0  0  0
 16 17  1  0  0  0
 16 36  1  0  0  0
 16 37  1  0  0  0
 17 18  1  0  0  0
 17 38  1  0  0  0
 18 39  1  0  0  0
 18 40  1  0  0  0
 18 41  1  0  0  0
 19 20  2  0  0  0
 19 21  1  0  0  0
 21 22  1  0  0  0
 21 42  1  0  0  0
 21 43  1  0  0  0
 22 23  3  0  0  0
M  END
> <s_m_entry_id>
49519

> <s_m_entry_name>
dock_pv.109

> <s_m_Source_Path>
/home/csk/Desktop/cluster/DUD-E-result/fgfr1

> <s_m_Source_File>
dock_pv.maegz

> <i_m_Source_File_Index>
109

> <chembl_id>
CHEMBL234085

> <chembl_pref_name>
None

> <i_lp_mmshare_version>
53161

> <i_f3d_flags>
0

> <r_lp_tautomer_probability>
0.999998369746258

> <s_lp_Force_Field>
OPLS_2005

> <r_lp_Energy>
24.687755

> <b_lp_Chiralities_Consistent>
1

> <s_lp_Variant>
CHEMBL3650_lig3232-3

> <s_i_glide_gridfile>
glide-grid_3c4f

> <i_i_glide_lignum>
4176

> <i_i_glide_rotatable_bonds>
4

> <r_i_docking_score>
-7.65367142139567

> <r_i_glide_ligand_efficiency>
-0.332768322669377

> <r_i_glide_ligand_efficiency_sa>
-0.946348843790941

> <r_i_glide_ligand_efficiency_ln>
-1.85072714934896

> <r_i_glide_gscore>
-7.65367142139567

> <r_i_glide_lipo>
-2.40760092342981

> <r_i_glide_hbond>
-0.25322716618311

> <r_i_glide_metal>
0

> <r_i_glide_rewards>
-3.12732968193564

> <r_i_glide_evdw>
-27.784107208252

> <r_i_glide_ecoul>
-6.63779735565186

> <r_i_glide_erotb>
0.570600221807648

> <r_i_glide_esite>
-0.0512389078943723

> <r_i_glide_emodel>
-43.3787018167453

> <r_i_glide_energy>
-34.4219045639038

> <r_i_glide_einternal>
4.26585865020752

> <i_i_glide_confnum>
9

> <i_i_glide_posenum>
4

> <r_i_glide_eff_state_penalty>
0

> <s_user_duplicate_titles>
CHEMBL3650_lig3232

> <s_m_subgroup_title>
dock_pv

> <s_m_subgroupid>
dock_pv

> <b_m_subgroup_collapsed>
1

$$$$
CHEMBL3650_lig2762
                    3D
 Schrodinger Suite 2021-1.
 37 39  0  0  1  0            999 V2000
    6.5003    2.0485   21.8527 S   0  0  0  0  0  0
    7.5705    5.3363   20.2056 O   0  0  0  0  0  0
    3.5833    5.9371   15.8533 O   0  0  0  0  0  0
    5.9714    6.0641   14.6497 O   0  0  0  0  0  0
    8.1468    3.9546   21.8662 N   0  0  0  0  0  0
    8.4726    2.3570   23.6160 N   0  0  0  0  0  0
    6.4200    3.2529   20.5667 C   0  0  0  0  0  0
    7.4001    4.2863   20.8165 C   0  0  0  0  0  0
    7.9139    2.8476   22.5883 C   0  0  0  0  0  0
    5.6794    4.0415   18.2698 C   0  0  0  0  0  0
    5.6089    3.2090   19.4840 C   0  0  0  0  0  0
    4.6532    5.3671   16.5084 C   0  0  0  0  0  0
    4.5775    4.7372   17.7639 C   0  0  0  0  0  0
    5.8740    5.4022   15.8395 C   0  0  0  0  0  0
    6.8766    4.0569   17.5550 C   0  0  0  0  0  0
    9.5723    2.9301   24.2777 C   0  0  0  0  0  0
    6.9814    4.7409   16.3577 C   0  0  0  0  0  0
    9.6562    2.7286   25.6597 C   0  0  0  0  0  0
   10.6680    3.5361   23.6319 C   0  0  0  0  0  0
   10.7604    3.1581   26.3903 C   0  0  0  0  0  0
   11.7900    3.9383   24.3530 C   0  0  0  0  0  0
   11.8243    3.7665   25.7324 C   0  0  0  0  0  0
    2.2991    5.3939   16.0681 C   0  0  0  0  0  0
    6.8413    5.9318   14.2348 H   0  0  0  0  0  0
    8.8884    4.5796   22.1347 H   0  0  0  0  0  0
    4.8636    2.4254   19.4511 H   0  0  0  0  0  0
    3.6453    4.7227   18.3085 H   0  0  0  0  0  0
    7.7407    3.5380   17.9264 H   0  0  0  0  0  0
    7.9346    4.7553   15.8532 H   0  0  0  0  0  0
    8.8523    2.2203   26.1730 H   0  0  0  0  0  0
   10.6839    3.6428   22.5577 H   0  0  0  0  0  0
   10.8017    2.9956   27.4568 H   0  0  0  0  0  0
   12.6362    4.3778   23.8446 H   0  0  0  0  0  0
   12.6956    4.0810   26.2896 H   0  0  0  0  0  0
    1.5845    5.8385   15.3751 H   0  0  0  0  0  0
    2.3704    4.3405   15.8509 H   0  0  0  0  0  0
    1.9322    5.5365   17.0850 H   0  0  0  0  0  0
  1  7  1  0  0  0
  1  9  1  0  0  0
  2  8  2  0  0  0
  3 12  1  0  0  0
  3 23  1  0  0  0
  4 14  1  0  0  0
  4 24  1  0  0  0
  5  8  1  0  0  0
  5  9  1  0  0  0
  5 25  1  0  0  0
  6  9  2  3  0  0
  6 16  1  0  0  0
  7  8  1  0  0  0
  7 11  2  3  0  0
 10 11  1  0  0  0
 10 13  1  0  0  0
 10 15  2  0  0  0
 11 26  1  0  0  0
 12 13  2  0  0  0
 12 14  1  0  0  0
 13 27  1  0  0  0
 14 17  2  0  0  0
 15 17  1  0  0  0
 15 28  1  0  0  0
 16 18  2  0  0  0
 16 19  1  0  0  0
 17 29  1  0  0  0
 18 20  1  0  0  0
 18 30  1  0  0  0
 19 21  2  0  0  0
 19 31  1  0  0  0
 20 22  2  0  0  0
 20 32  1  0  0  0
 21 22  1  0  0  0
 21 33  1  0  0  0
 22 34  1  0  0  0
 23 35  1  0  0  0
 23 36  1  0  0  0
 23 37  1  0  0  0
M  END
> <s_m_entry_id>
49520

> <s_m_entry_name>
dock_pv.110

> <s_m_Source_Path>
/home/csk/Desktop/cluster/DUD-E-result/fgfr1

> <s_m_Source_File>
dock_pv.maegz

> <i_m_Source_File_Index>
110

> <chembl_id>
CHEMBL1970522

> <chembl_pref_name>
None

> <i_lp_mmshare_version>
53161

> <i_f3d_flags>
0

> <r_lp_tautomer_probability>
1

> <s_lp_Force_Field>
OPLS_2005

> <r_lp_Energy>
25.0102

> <b_lp_Chiralities_Consistent>
1

> <s_lp_Variant>
CHEMBL3650_lig2762-2

> <s_i_glide_gridfile>
glide-grid_3c4f

> <i_i_glide_lignum>
3442

> <i_i_glide_rotatable_bonds>
4

> <r_i_docking_score>
-7.65291488550807

> <r_i_glide_ligand_efficiency>
-0.332735429804699

> <r_i_glide_ligand_efficiency_sa>
-0.946255300859308

> <r_i_glide_ligand_efficiency_ln>
-1.85054421211145

> <r_i_glide_gscore>
-7.65291488550807

> <r_i_glide_lipo>
-2.76081934847412

> <r_i_glide_hbond>
0

> <r_i_glide_metal>
0

> <r_i_glide_rewards>
-2.50058493260299

> <r_i_glide_evdw>
-38.9189147949219

> <r_i_glide_ecoul>
-4.14418458938599

> <r_i_glide_erotb>
0.176062823723035

> <r_i_glide_esite>
0

> <r_i_glide_emodel>
-49.2238910667825

> <r_i_glide_energy>
-43.0630993843079

> <r_i_glide_einternal>
8.31743335723877

> <i_i_glide_confnum>
4

> <i_i_glide_posenum>
348

> <r_i_glide_eff_state_penalty>
0

> <s_user_duplicate_titles>
CHEMBL3650_lig2762

> <s_m_subgroup_title>
dock_pv

> <s_m_subgroupid>
dock_pv

> <b_m_subgroup_collapsed>
1

$$$$
CHEMBL3650_lig543
                    3D
 Schrodinger Suite 2021-1.
 44 47  0  0  1  0            999 V2000
    4.9148    3.6573   13.0628 C   0  0  0  0  0  0
    5.8060    4.5391   13.9213 C   0  0  0  0  0  0
    4.7718    2.4560   13.2822 O   0  0  0  0  0  0
    4.3710    4.3370   12.0130 O   0  0  0  0  0  0
    5.1189    4.8593   15.1264 O   0  0  0  0  0  0
    5.7176    4.6459   16.3552 C   0  0  0  0  0  0
    4.8895    4.7280   17.4754 C   0  0  0  0  0  0
    5.3943    4.3370   18.7336 C   0  0  0  0  0  0
    6.7444    4.0185   18.9288 C   0  0  0  0  0  0
    7.5710    4.0927   17.8054 C   0  0  0  0  0  0
    7.0730    4.3607   16.5413 C   0  0  0  0  0  0
    3.5956    5.1370   17.2136 O   0  0  0  0  0  0
    2.7080    5.4776   18.2580 C   0  0  0  0  0  0
    7.2971    3.6110   20.2576 C   0  0  0  0  0  0
    8.6259    3.9370   20.5499 N   0  0  0  0  0  0
    9.1821    3.6127   21.7652 C   0  0  0  0  0  0
    8.4258    2.9473   22.6989 C   0  0  0  0  0  0
    7.1242    2.4008   22.3217 C   0  0  0  0  0  0
    6.5978    2.9476   21.1242 N   0  0  0  0  0  0
    9.1358    2.8755   23.9504 C   0  0  0  0  0  0
   10.4186    3.4976   23.8851 C   0  0  0  0  0  0
   10.8130    3.9370   22.2530 S   0  0  0  0  0  0
    8.7710    2.3370   25.1900 C   0  0  0  0  0  0
    9.5891    2.4640   26.3116 C   0  0  0  0  0  0
   10.8065    3.1262   26.2185 C   0  0  0  0  0  0
   11.2468    3.6466   25.0080 C   0  0  0  0  0  0
    6.5805    1.5370   22.9937 O   0  0  0  0  0  0
    9.1540    1.8730   27.6382 C   0  0  0  0  0  0
    6.7042    3.9370   14.0429 H   0  0  0  0  0  0
    6.0530    5.4630   13.3976 H   0  0  0  0  0  0
    4.4993    5.3027   12.0516 H   0  0  0  0  0  0
    4.7710    4.3305   19.6019 H   0  0  0  0  0  0
    8.6364    3.9370   17.8739 H   0  0  0  0  0  0
    7.7814    4.3646   15.7314 H   0  0  0  0  0  0
    1.6974    5.5370   17.8535 H   0  0  0  0  0  0
    2.6909    4.7385   19.0530 H   0  0  0  0  0  0
    2.9484    6.4533   18.6530 H   0  0  0  0  0  0
    9.1650    4.4360   19.8574 H   0  0  0  0  0  0
    7.8305    1.8175   25.2749 H   0  0  0  0  0  0
   11.4370    3.2162   27.0918 H   0  0  0  0  0  0
   12.2176    4.1186   24.9332 H   0  0  0  0  0  0
    8.3594    1.1370   27.5144 H   0  0  0  0  0  0
    9.9906    1.3612   28.1151 H   0  0  0  0  0  0
    8.8120    2.6585   28.3114 H   0  0  0  0  0  0
  1  2  1  0  0  0
  1  3  2  0  0  0
  1  4  1  0  0  0
  2  5  1  0  0  0
  2 29  1  0  0  0
  2 30  1  0  0  0
  4 31  1  0  0  0
  5  6  1  0  0  0
  6  7  1  0  0  0
  6 11  2  0  0  0
  7  8  2  0  0  0
  7 12  1  0  0  0
  8  9  1  0  0  0
  8 32  1  0  0  0
  9 10  2  0  0  0
  9 14  1  0  0  0
 10 11  1  0  0  0
 10 33  1  0  0  0
 11 34  1  0  0  0
 12 13  1  0  0  0
 13 35  1  0  0  0
 13 36  1  0  0  0
 13 37  1  0  0  0
 14 15  1  0  0  0
 14 19  2  0  0  0
 15 16  1  0  0  0
 15 38  1  0  0  0
 16 17  2  0  0  0
 16 22  1  0  0  0
 17 18  1  0  0  0
 17 20  1  0  0  0
 18 19  1  0  0  0
 18 27  2  0  0  0
 20 21  1  0  0  0
 20 23  2  0  0  0
 21 22  1  0  0  0
 21 26  2  0  0  0
 23 24  1  0  0  0
 23 39  1  0  0  0
 24 25  2  0  0  0
 24 28  1  0  0  0
 25 26  1  0  0  0
 25 40  1  0  0  0
 26 41  1  0  0  0
 28 42  1  0  0  0
 28 43  1  0  0  0
 28 44  1  0  0  0
M  END
> <s_m_entry_id>
49521

> <s_m_entry_name>
dock_pv.111

> <s_m_Source_Path>
/home/csk/Desktop/cluster/DUD-E-result/fgfr1

> <s_m_Source_File>
dock_pv.maegz

> <i_m_Source_File_Index>
111

> <chembl_id>
CHEMBL599388

> <chembl_pref_name>
None

> <i_lp_mmshare_version>
53161

> <i_f3d_flags>
0

> <r_lp_tautomer_probability>
1

> <s_lp_Force_Field>
OPLS_2005

> <r_lp_Energy>
28.830326

> <b_lp_Chiralities_Consistent>
1

> <s_lp_Variant>
CHEMBL3650_lig543-1

> <s_i_glide_gridfile>
glide-grid_3c4f

> <i_i_glide_lignum>
604

> <i_i_glide_rotatable_bonds>
6

> <r_i_docking_score>
-7.64490470907811

> <r_i_glide_ligand_efficiency>
-0.273032311038504

> <r_i_glide_ligand_efficiency_sa>
-0.829086903744351

> <r_i_glide_ligand_efficiency_ln>
-1.76466847101106

> <r_i_glide_gscore>
-7.64490470907811

> <r_i_glide_lipo>
-2.61020360488431

> <r_i_glide_hbond>
-0.304

> <r_i_glide_metal>
0

> <r_i_glide_rewards>
-2.07834846632982

> <r_i_glide_evdw>
-28.345832824707

> <r_i_glide_ecoul>
-11.5537166595459

> <r_i_glide_erotb>
0.497996502303249

> <r_i_glide_esite>
0

> <r_i_glide_emodel>
-37.4348383011246

> <r_i_glide_energy>
-39.8995494842529

> <r_i_glide_einternal>
7.49014377593994

> <i_i_glide_confnum>
35

> <i_i_glide_posenum>
32

> <r_i_glide_eff_state_penalty>
0

> <s_user_duplicate_titles>
CHEMBL3650_lig543

> <s_m_subgroup_title>
dock_pv

> <s_m_subgroupid>
dock_pv

> <b_m_subgroup_collapsed>
1

$$$$
CHEMBL3650_lig2710
                    3D
 Schrodinger Suite 2021-1.
 38 40  0  0  1  0            999 V2000
    7.1710    2.0570   16.6530 F   0  0  0  0  0  0
    6.3710    3.1270   14.2958 F   0  0  0  0  0  0
   10.3038    3.1376   24.8306 O   0  0  0  0  0  0
    6.9791    1.7318   22.9615 N   0  0  0  0  0  0
    8.0891    2.3370   23.3855 N   0  0  0  0  0  0
    9.9464    3.7687   22.6657 N   0  0  0  0  0  0
    7.8048    3.2253   21.3664 C   0  0  0  0  0  0
    6.8543    2.2052   21.6939 C   0  0  0  0  0  0
    6.7533    3.4270   19.1839 C   0  0  0  0  0  0
    8.6854    3.2010   22.4956 C   0  0  0  0  0  0
    6.5771    4.0388   17.8428 C   0  0  0  0  0  0
    7.6956    3.8911   20.1235 C   0  0  0  0  0  0
    5.9376    1.7559   20.7481 C   0  0  0  0  0  0
    6.6914    3.3107   16.6486 C   0  0  0  0  0  0
    5.9121    2.3629   19.5043 C   0  0  0  0  0  0
    6.3102    3.8665   15.4285 C   0  0  0  0  0  0
    6.1640    5.3591   17.7580 C   0  0  0  0  0  0
   10.7135    3.6356   23.7806 C   0  0  0  0  0  0
    5.8766    5.1874   15.3727 C   0  0  0  0  0  0
    5.8308    5.9370   16.5412 C   0  0  0  0  0  0
   12.1717    4.1469   23.7744 C   0  0  0  0  0  0
   12.7558    4.6204   22.4217 C   0  0  0  0  0  0
   13.9218    5.6043   22.5798 C   0  0  0  0  0  0
    8.5045    2.1034   24.2783 H   0  0  0  0  0  0
   10.3369    4.2415   21.8663 H   0  0  0  0  0  0
    8.3710    4.6901   19.8610 H   0  0  0  0  0  0
    5.2468    0.9589   20.9730 H   0  0  0  0  0  0
    5.1907    2.0099   18.7800 H   0  0  0  0  0  0
    6.0870    5.9370   18.6530 H   0  0  0  0  0  0
    5.6233    5.6326   14.4201 H   0  0  0  0  0  0
    5.5710    6.9791   16.5273 H   0  0  0  0  0  0
   12.8232    3.3760   24.1874 H   0  0  0  0  0  0
   12.2093    4.9625   24.4983 H   0  0  0  0  0  0
   11.9909    5.1370   21.8530 H   0  0  0  0  0  0
   13.0649    3.7605   21.8248 H   0  0  0  0  0  0
   14.2573    5.9777   21.6122 H   0  0  0  0  0  0
   14.7711    5.1371   23.0708 H   0  0  0  0  0  0
   13.6350    6.4686   23.1792 H   0  0  0  0  0  0
  1 14  1  0  0  0
  2 16  1  0  0  0
  3 18  2  0  0  0
  4  5  1  0  0  0
  4  8  2  0  0  0
  5 24  1  0  0  0
  5 10  1  0  0  0
  6 18  1  0  0  0
  6 25  1  0  0  0
  6 10  1  0  0  0
  7 12  1  0  0  0
  7  8  1  0  0  0
  7 10  2  0  0  0
  8 13  1  0  0  0
  9 15  1  0  0  0
  9 11  1  0  0  0
  9 12  2  0  0  0
 11 14  1  0  0  0
 11 17  2  0  0  0
 12 26  1  0  0  0
 13 27  1  0  0  0
 13 15  2  0  0  0
 14 16  2  0  0  0
 15 28  1  0  0  0
 16 19  1  0  0  0
 17 20  1  0  0  0
 17 29  1  0  0  0
 18 21  1  0  0  0
 19 20  2  0  0  0
 19 30  1  0  0  0
 20 31  1  0  0  0
 21 22  1  0  0  0
 21 32  1  0  0  0
 21 33  1  0  0  0
 22 23  1  0  0  0
 22 34  1  0  0  0
 22 35  1  0  0  0
 23 36  1  0  0  0
 23 37  1  0  0  0
 23 38  1  0  0  0
M  END
> <s_m_entry_id>
49522

> <s_m_entry_name>
dock_pv.112

> <s_m_Source_Path>
/home/csk/Desktop/cluster/DUD-E-result/fgfr1

> <s_m_Source_File>
dock_pv.maegz

> <i_m_Source_File_Index>
112

> <chembl_id>
CHEMBL1985406

> <chembl_pref_name>
None

> <i_lp_mmshare_version>
53161

> <i_f3d_flags>
0

> <r_lp_tautomer_probability>
0.0196078431372549

> <s_lp_Force_Field>
OPLS_2005

> <r_lp_Energy>
37.583558

> <b_lp_Chiralities_Consistent>
1

> <s_lp_Variant>
CHEMBL3650_lig2710-2

> <s_i_glide_gridfile>
glide-grid_3c4f

> <i_i_glide_lignum>
3368

> <i_i_glide_rotatable_bonds>
5

> <r_i_docking_score>
-7.64161190094391

> <r_i_glide_ligand_efficiency>
-0.332243995693213

> <r_i_glide_ligand_efficiency_sa>
-0.944857727618344

> <r_i_glide_ligand_efficiency_ln>
-1.84781104795404

> <r_i_glide_gscore>
-7.64161190094391

> <r_i_glide_lipo>
-2.7452207824703

> <r_i_glide_hbond>
-0.234816158311694

> <r_i_glide_metal>
0

> <r_i_glide_rewards>
-3.39986616571072

> <r_i_glide_evdw>
-30.9149131774902

> <r_i_glide_ecoul>
-2.79457139968872

> <r_i_glide_erotb>
0.748338760134179

> <r_i_glide_esite>
-0.0451161857575505

> <r_i_glide_emodel>
-32.4644201031872

> <r_i_glide_energy>
-33.709484577179

> <r_i_glide_einternal>
10.7076234817505

> <i_i_glide_confnum>
30

> <i_i_glide_posenum>
338

> <r_i_glide_eff_state_penalty>
0

> <s_user_duplicate_titles>
CHEMBL3650_lig2710

> <s_m_subgroup_title>
dock_pv

> <s_m_subgroupid>
dock_pv

> <b_m_subgroup_collapsed>
1

$$$$
CHEMBL3650_lig2616
                    3D
 Schrodinger Suite 2021-1.
 26 28  0  0  1  0            999 V2000
    7.5719    6.4911   20.6530 Cl  0  0  0  0  0  0
    8.5541    2.9059   22.8027 S   0  0  0  0  0  0
    4.9827    4.3370   13.1504 O   0  0  0  0  0  0
    6.7021    1.4915   21.4530 N   0  0  0  0  0  0
    6.2383    4.5281   18.5704 N   0  0  0  0  0  0
    5.7811    2.3290   19.3617 N   0  0  0  0  0  0
    7.1706    3.7654   20.7078 C   0  0  0  0  0  0
    7.3337    2.6499   21.5804 C   0  0  0  0  0  0
    6.3710    3.5370   19.5598 C   0  0  0  0  0  0
    7.8698    4.8927   21.2170 C   0  0  0  0  0  0
    8.7710    4.5232   22.2027 C   0  0  0  0  0  0
    5.8945    4.4321   17.2114 C   0  0  0  0  0  0
    5.9710    1.3904   20.3195 C   0  0  0  0  0  0
    5.2012    5.4898   16.6208 C   0  0  0  0  0  0
    6.2919    3.3434   16.4282 C   0  0  0  0  0  0
    5.2762    4.3607   14.4897 C   0  0  0  0  0  0
    4.8953    5.4556   15.2608 C   0  0  0  0  0  0
    5.9710    3.3017   15.0707 C   0  0  0  0  0  0
    4.7918    5.2207   12.7958 H   0  0  0  0  0  0
    6.6676    5.4085   18.8166 H   0  0  0  0  0  0
    9.4876    5.1370   22.7124 H   0  0  0  0  0  0
    5.5710    0.4110   20.1277 H   0  0  0  0  0  0
    4.8990    6.3391   17.2130 H   0  0  0  0  0  0
    6.8533    2.5313   16.8655 H   0  0  0  0  0  0
    4.3710    6.2788   14.8009 H   0  0  0  0  0  0
    6.2752    2.4599   14.4679 H   0  0  0  0  0  0
  1 10  1  0  0  0
  2  8  1  0  0  0
  2 11  1  0  0  0
  3 16  1  0  0  0
  3 19  1  0  0  0
  4  8  1  0  0  0
  4 13  2  0  0  0
  5  9  1  0  0  0
  5 12  1  0  0  0
  5 20  1  0  0  0
  6  9  2  0  0  0
  6 13  1  0  0  0
  7  8  2  0  0  0
  7  9  1  0  0  0
  7 10  1  0  0  0
 10 11  2  0  0  0
 11 21  1  0  0  0
 12 14  2  0  0  0
 12 15  1  0  0  0
 13 22  1  0  0  0
 14 17  1  0  0  0
 14 23  1  0  0  0
 15 18  2  0  0  0
 15 24  1  0  0  0
 16 17  2  0  0  0
 16 18  1  0  0  0
 17 25  1  0  0  0
 18 26  1  0  0  0
M  END
> <s_m_entry_id>
49523

> <s_m_entry_name>
dock_pv.113

> <s_m_Source_Path>
/home/csk/Desktop/cluster/DUD-E-result/fgfr1

> <s_m_Source_File>
dock_pv.maegz

> <i_m_Source_File_Index>
113

> <chembl_id>
CHEMBL2006580

> <chembl_pref_name>
None

> <i_lp_mmshare_version>
53161

> <i_f3d_flags>
0

> <r_lp_tautomer_probability>
1

> <s_lp_Force_Field>
OPLS_2005

> <r_lp_Energy>
13.245031

> <b_lp_Chiralities_Consistent>
1

> <s_lp_Variant>
CHEMBL3650_lig2616-1

> <s_i_glide_gridfile>
glide-grid_3c4f

> <i_i_glide_lignum>
3222

> <i_i_glide_rotatable_bonds>
3

> <r_i_docking_score>
-7.63448923781321

> <r_i_glide_ligand_efficiency>
-0.424138290989623

> <r_i_glide_ligand_efficiency_sa>
-1.11155677499459

> <r_i_glide_ligand_efficiency_ln>
-1.96240609199307

> <r_i_glide_gscore>
-7.63448923781321

> <r_i_glide_lipo>
-2.57296960343375

> <r_i_glide_hbond>
-0.190242174234311

> <r_i_glide_metal>
0

> <r_i_glide_rewards>
-2.98082723524988

> <r_i_glide_evdw>
-36.0671119689941

> <r_i_glide_ecoul>
-3.69449901580811

> <r_i_glide_erotb>
0.467080225925661

> <r_i_glide_esite>
0

> <r_i_glide_emodel>
-50.5829462647239

> <r_i_glide_energy>
-39.7616109848022

> <r_i_glide_einternal>
5.64751052856445

> <i_i_glide_confnum>
4

> <i_i_glide_posenum>
154

> <r_i_glide_eff_state_penalty>
0

> <s_user_duplicate_titles>
CHEMBL3650_lig2616

> <s_m_subgroup_title>
dock_pv

> <s_m_subgroupid>
dock_pv

> <b_m_subgroup_collapsed>
1

$$$$
CHEMBL3650_lig274
                    3D
 Schrodinger Suite 2021-1.
 51 54  0  0  1  0            999 V2000
    5.4809    4.6993   17.3387 C   0  0  0  0  0  0
    6.4553    3.7861   19.5196 C   0  0  0  0  0  0
    5.8699    2.4586   19.5099 C   0  0  0  0  0  0
    6.2534    4.7395   18.5758 C   0  0  0  0  0  0
    4.3255    5.4179   17.1903 N   0  0  0  0  0  0
    4.6346    4.3370   15.2613 C   0  0  0  0  0  0
    6.2483    1.8643   20.6578 N   0  0  0  0  0  0
    5.6806    4.0099   16.1483 C   0  0  0  0  0  0
    7.1439    2.6241   21.3769 C   0  0  0  0  0  0
    3.7508    5.1370   15.9745 C   0  0  0  0  0  0
    7.3111    3.8053   20.6931 C   0  0  0  0  0  0
    7.8751    2.3354   22.5378 C   0  0  0  0  0  0
    4.4279    3.8201   13.8433 C   0  0  0  0  0  0
    8.8391    3.2534   22.9976 C   0  0  0  0  0  0
    8.2240    4.7370   21.1491 C   0  0  0  0  0  0
    5.5079    3.4627   11.5434 C   0  0  0  0  0  0
    5.1710    1.9370   18.6530 O   0  0  0  0  0  0
    9.0046    4.4254   22.2530 C   0  0  0  0  0  0
    5.8994    2.3370   11.2532 O   0  0  0  0  0  0
    9.6615    3.0587   24.2410 C   0  0  0  0  0  0
    5.6460    4.0743   12.9322 C   0  0  0  0  0  0
    4.9394    4.3370   10.6765 O   0  0  0  0  0  0
    6.7730    3.0188   15.8871 C   0  0  0  0  0  0
    2.3382    5.5370   15.6278 C   0  0  0  0  0  0
   10.9332    3.6436   24.3689 C   0  0  0  0  0  0
    9.1694    2.3370   25.3339 C   0  0  0  0  0  0
    9.9020    2.2028   26.5106 C   0  0  0  0  0  0
   11.6661    3.5370   25.5492 C   0  0  0  0  0  0
   11.1478    2.8112   26.6169 C   0  0  0  0  0  0
    6.7497    5.6886   18.7166 H   0  0  0  0  0  0
    3.8932    5.9659   17.9190 H   0  0  0  0  0  0
    5.9862    0.9147   20.8696 H   0  0  0  0  0  0
    7.7306    1.3996   23.0530 H   0  0  0  0  0  0
    3.5670    4.3192   13.3974 H   0  0  0  0  0  0
    4.1819    2.7565   13.8643 H   0  0  0  0  0  0
    8.3709    5.6749   20.6417 H   0  0  0  0  0  0
    9.7355    5.1370   22.5617 H   0  0  0  0  0  0
    6.5289    3.6166   13.3654 H   0  0  0  0  0  0
    5.8863    5.1370   12.8731 H   0  0  0  0  0  0
    4.7710    5.1910   11.1010 H   0  0  0  0  0  0
    7.1710    2.5598   16.7914 H   0  0  0  0  0  0
    6.4522    2.2039   15.2395 H   0  0  0  0  0  0
    7.5710    3.5450   15.3820 H   0  0  0  0  0  0
    1.8850    4.7898   14.9814 H   0  0  0  0  0  0
    1.6844    5.6123   16.4975 H   0  0  0  0  0  0
    2.2888    6.4469   15.0530 H   0  0  0  0  0  0
   11.3804    4.1861   23.5505 H   0  0  0  0  0  0
    8.1913    1.8832   25.2837 H   0  0  0  0  0  0
    9.5022    1.6339   27.3378 H   0  0  0  0  0  0
   12.6429    3.9941   25.6260 H   0  0  0  0  0  0
   11.7201    2.7115   27.5278 H   0  0  0  0  0  0
  1  4  1  0  0  0
  1  5  1  0  0  0
  1  8  2  0  0  0
  2  4  2  0  0  0
  2  3  1  0  0  0
  2 11  1  0  0  0
  3  7  1  0  0  0
  3 17  2  0  0  0
  4 30  1  0  0  0
  5 10  1  0  0  0
  5 31  1  0  0  0
  6  8  1  0  0  0
  6 13  1  0  0  0
  6 10  2  0  0  0
  7  9  1  0  0  0
  7 32  1  0  0  0
  8 23  1  0  0  0
  9 11  1  0  0  0
  9 12  2  0  0  0
 10 24  1  0  0  0
 11 15  2  0  0  0
 12 14  1  0  0  0
 12 33  1  0  0  0
 13 21  1  0  0  0
 13 34  1  0  0  0
 13 35  1  0  0  0
 14 18  2  0  0  0
 14 20  1  0  0  0
 15 18  1  0  0  0
 15 36  1  0  0  0
 16 21  1  0  0  0
 16 19  2  0  0  0
 16 22  1  0  0  0
 18 37  1  0  0  0
 20 25  1  0  0  0
 20 26  2  0  0  0
 21 38  1  0  0  0
 21 39  1  0  0  0
 22 40  1  0  0  0
 23 41  1  0  0  0
 23 42  1  0  0  0
 23 43  1  0  0  0
 24 44  1  0  0  0
 24 45  1  0  0  0
 24 46  1  0  0  0
 25 28  2  0  0  0
 25 47  1  0  0  0
 26 27  1  0  0  0
 26 48  1  0  0  0
 27 29  2  0  0  0
 27 49  1  0  0  0
 28 29  1  0  0  0
 28 50  1  0  0  0
 29 51  1  0  0  0
M  END
> <s_m_entry_id>
49524

> <s_m_entry_name>
dock_pv.114

> <s_m_Source_Path>
/home/csk/Desktop/cluster/DUD-E-result/fgfr1

> <s_m_Source_File>
dock_pv.maegz

> <i_m_Source_File_Index>
114

> <chembl_id>
CHEMBL149201

> <chembl_pref_name>
None

> <i_lp_mmshare_version>
53161

> <i_f3d_flags>
0

> <r_lp_tautomer_probability>
1

> <s_lp_Force_Field>
OPLS_2005

> <r_lp_Energy>
35.394688

> <b_lp_Chiralities_Consistent>
1

> <s_lp_Variant>
CHEMBL3650_lig274-1

> <s_i_glide_gridfile>
glide-grid_3c4f

> <i_i_glide_lignum>
297

> <i_i_glide_rotatable_bonds>
6

> <r_i_docking_score>
-7.62132154298745

> <r_i_glide_ligand_efficiency>
-0.262804191137498

> <r_i_glide_ligand_efficiency_sa>
-0.807417737386224

> <r_i_glide_ligand_efficiency_ln>
-1.74508937330473

> <r_i_glide_gscore>
-7.62132154298745

> <r_i_glide_lipo>
-3.66475020542117

> <r_i_glide_hbond>
-0.0461641353418184

> <r_i_glide_metal>
0

> <r_i_glide_rewards>
-1.77652607679121

> <r_i_glide_evdw>
-46.0986518859863

> <r_i_glide_ecoul>
-3.20403146743774

> <r_i_glide_erotb>
0.651656188981728

> <r_i_glide_esite>
0

> <r_i_glide_emodel>
-60.5708453055489

> <r_i_glide_energy>
-49.3026833534241

> <r_i_glide_einternal>
10.6199798583984

> <i_i_glide_confnum>
2

> <i_i_glide_posenum>
55

> <r_i_glide_eff_state_penalty>
0

> <s_user_duplicate_titles>
CHEMBL3650_lig274

> <s_m_subgroup_title>
dock_pv

> <s_m_subgroupid>
dock_pv

> <b_m_subgroup_collapsed>
1

$$$$
CHEMBL3650_lig303
                    3D
 Schrodinger Suite 2021-1.
 29 31  0  0  1  0            999 V2000
    5.8314    4.1048   17.0184 N   0  0  0  0  0  0
    6.3324    5.3551   17.2613 C   0  0  0  0  0  0
    6.7710    5.5370   18.4666 N   0  0  0  0  0  0
    5.9385    3.4172   18.2320 C   0  0  0  0  0  0
    6.6022    4.3439   19.0734 C   0  0  0  0  0  0
    7.1710    2.3113   22.2032 C   0  0  0  0  0  0
    6.7049    2.7370   20.8394 C   0  0  0  0  0  0
    6.9978    4.0146   20.3672 C   0  0  0  0  0  0
    5.5743    2.1585   18.7308 C   0  0  0  0  0  0
    5.4512    3.7261   15.7218 C   0  0  0  0  0  0
    5.9710    1.8503   20.0376 C   0  0  0  0  0  0
    6.5132    1.5370   22.8802 O   0  0  0  0  0  0
    8.3472    2.7743   22.6265 N   0  0  0  0  0  0
    4.4652    4.4615   15.0530 C   0  0  0  0  0  0
    6.1700    2.7370   15.0529 C   0  0  0  0  0  0
    5.8645    2.4432   13.7264 C   0  0  0  0  0  0
    4.2023    4.2014   13.7133 C   0  0  0  0  0  0
    4.9021    3.1922   13.0580 C   0  0  0  0  0  0
    6.3710    6.0753   16.4555 H   0  0  0  0  0  0
    7.5164    4.7433   20.9732 H   0  0  0  0  0  0
    5.0019    1.4383   18.1773 H   0  0  0  0  0  0
    5.7116    0.8728   20.4234 H   0  0  0  0  0  0
    8.6945    2.4639   23.5214 H   0  0  0  0  0  0
    8.9231    3.3376   22.0214 H   0  0  0  0  0  0
    3.9336    5.2589   15.5524 H   0  0  0  0  0  0
    6.9503    2.1882   15.5598 H   0  0  0  0  0  0
    6.3710    1.6468   13.2054 H   0  0  0  0  0  0
    3.4726    4.7908   13.1772 H   0  0  0  0  0  0
    4.6959    2.9884   12.0179 H   0  0  0  0  0  0
  1  2  1  0  0  0
  1  4  1  0  0  0
  1 10  1  0  0  0
  2  3  2  0  0  0
  2 19  1  0  0  0
  3  5  1  0  0  0
  4  5  1  0  0  0
  4  9  2  0  0  0
  5  8  2  0  0  0
  6  7  1  0  0  0
  6 12  2  0  0  0
  6 13  1  0  0  0
  7 11  2  0  0  0
  7  8  1  0  0  0
  8 20  1  0  0  0
  9 11  1  0  0  0
  9 21  1  0  0  0
 10 14  1  0  0  0
 10 15  2  0  0  0
 11 22  1  0  0  0
 13 23  1  0  0  0
 13 24  1  0  0  0
 14 17  2  0  0  0
 14 25  1  0  0  0
 15 16  1  0  0  0
 15 26  1  0  0  0
 16 18  2  0  0  0
 16 27  1  0  0  0
 17 18  1  0  0  0
 17 28  1  0  0  0
 18 29  1  0  0  0
M  END
> <s_m_entry_id>
49525

> <s_m_entry_name>
dock_pv.115

> <s_m_Source_Path>
/home/csk/Desktop/cluster/DUD-E-result/fgfr1

> <s_m_Source_File>
dock_pv.maegz

> <i_m_Source_File_Index>
115

> <chembl_id>
CHEMBL358446

> <chembl_pref_name>
None

> <i_lp_mmshare_version>
53161

> <i_f3d_flags>
0

> <r_lp_tautomer_probability>
1

> <s_lp_Force_Field>
OPLS_2005

> <r_lp_Energy>
13.852125

> <b_lp_Chiralities_Consistent>
1

> <s_lp_Variant>
CHEMBL3650_lig303-1

> <s_i_glide_gridfile>
glide-grid_3c4f

> <i_i_glide_lignum>
327

> <i_i_glide_rotatable_bonds>
2

> <r_i_docking_score>
-7.60156628381112

> <r_i_glide_ligand_efficiency>
-0.422309237989507

> <r_i_glide_ligand_efficiency_sa>
-1.1067633000896

> <r_i_glide_ligand_efficiency_ln>
-1.95394341643121

> <r_i_glide_gscore>
-7.60156628381112

> <r_i_glide_lipo>
-2.33575003400094

> <r_i_glide_hbond>
-0.32

> <r_i_glide_metal>
0

> <r_i_glide_rewards>
-3.1676735581669

> <r_i_glide_evdw>
-30.0794315338135

> <r_i_glide_ecoul>
-3.869056224823

> <r_i_glide_erotb>
0.306187318770839

> <r_i_glide_esite>
0

> <r_i_glide_emodel>
-48.3660087219645

> <r_i_glide_energy>
-33.9484877586365

> <r_i_glide_einternal>
2.69745111465454

> <i_i_glide_confnum>
1

> <i_i_glide_posenum>
345

> <r_i_glide_eff_state_penalty>
0

> <s_user_duplicate_titles>
CHEMBL3650_lig303

> <s_m_subgroup_title>
dock_pv

> <s_m_subgroupid>
dock_pv

> <b_m_subgroup_collapsed>
1

$$$$
CHEMBL3650_lig874
                    3D
 Schrodinger Suite 2021-1.
 36 39  0  0  1  0            999 V2000
    6.2514    3.5262   19.1099 N   0  0  0  0  0  0
    5.7518    2.2134   19.4755 C   0  0  0  0  0  0
    6.2497    2.0365   20.8923 C   0  0  0  0  0  0
    7.1460    3.1370   21.1517 C   0  0  0  0  0  0
    7.0246    4.0156   20.1454 C   0  0  0  0  0  0
    5.9779    1.1370   21.6687 O   0  0  0  0  0  0
    6.1065    3.9781   17.7829 C   0  0  0  0  0  0
    6.3771    3.1370   16.6998 C   0  0  0  0  0  0
    6.1226    3.5444   15.3903 C   0  0  0  0  0  0
    5.6653    4.8370   15.1460 C   0  0  0  0  0  0
    5.4677    5.7044   16.2155 C   0  0  0  0  0  0
    5.6525    5.2677   17.5209 C   0  0  0  0  0  0
    6.3710    2.4524   14.0782 Cl  0  0  0  0  0  0
    8.0397    3.1746   22.3174 C   0  0  0  0  0  0
    7.8072    2.5563   23.4530 N   0  0  0  0  0  0
    8.9106    2.7756   24.2319 C   0  0  0  0  0  0
    9.8598    3.5713   23.5499 C   0  0  0  0  0  0
    9.2636    3.8099   22.3299 N   0  0  0  0  0  0
    9.1765    2.3370   25.5376 C   0  0  0  0  0  0
   10.3680    2.7458   26.1396 C   0  0  0  0  0  0
   11.2909    3.5370   25.4530 C   0  0  0  0  0  0
   11.0808    3.9370   24.1311 C   0  0  0  0  0  0
    7.5710    5.2534   19.9963 N   0  0  0  0  0  0
    6.0935    1.3980   18.8390 H   0  0  0  0  0  0
    4.6640    2.1807   19.4530 H   0  0  0  0  0  0
    6.7710    2.1460   16.8700 H   0  0  0  0  0  0
    5.5021    5.1768   14.1319 H   0  0  0  0  0  0
    5.1710    6.7196   16.0489 H   0  0  0  0  0  0
    5.4270    5.9370   18.3279 H   0  0  0  0  0  0
    9.6289    4.3052   21.5331 H   0  0  0  0  0  0
    8.4701    1.7113   26.0630 H   0  0  0  0  0  0
   10.5888    2.4304   27.1496 H   0  0  0  0  0  0
   12.2150    3.8091   25.9447 H   0  0  0  0  0  0
   11.8428    4.4877   23.6025 H   0  0  0  0  0  0
    8.1182    5.6758   20.7293 H   0  0  0  0  0  0
    7.4413    5.7719   19.1406 H   0  0  0  0  0  0
  1  2  1  0  0  0
  1  5  1  0  0  0
  1  7  1  0  0  0
  2  3  1  0  0  0
  2 24  1  0  0  0
  2 25  1  0  0  0
  3  4  1  0  0  0
  3  6  2  0  0  0
  4  5  2  0  0  0
  4 14  1  0  0  0
  5 23  1  0  0  0
  7  8  1  0  0  0
  7 12  2  0  0  0
  8  9  2  0  0  0
  8 26  1  0  0  0
  9 10  1  0  0  0
  9 13  1  0  0  0
 10 11  2  0  0  0
 10 27  1  0  0  0
 11 12  1  0  0  0
 11 28  1  0  0  0
 12 29  1  0  0  0
 14 15  2  0  0  0
 14 18  1  0  0  0
 15 16  1  0  0  0
 16 17  1  0  0  0
 16 19  2  0  0  0
 17 18  1  0  0  0
 17 22  2  0  0  0
 18 30  1  0  0  0
 19 20  1  0  0  0
 19 31  1  0  0  0
 20 21  2  0  0  0
 20 32  1  0  0  0
 21 22  1  0  0  0
 21 33  1  0  0  0
 22 34  1  0  0  0
 23 35  1  0  0  0
 23 36  1  0  0  0
M  END
> <s_m_entry_id>
49526

> <s_m_entry_name>
dock_pv.116

> <s_m_Source_Path>
/home/csk/Desktop/cluster/DUD-E-result/fgfr1

> <s_m_Source_File>
dock_pv.maegz

> <i_m_Source_File_Index>
116

> <chembl_id>
CHEMBL3781649

> <chembl_pref_name>
None

> <i_lp_mmshare_version>
53161

> <i_f3d_flags>
0

> <r_lp_tautomer_probability>
0.999998894702016

> <s_lp_Force_Field>
OPLS_2005

> <r_lp_Energy>
38.137925

> <b_lp_Chiralities_Consistent>
1

> <s_lp_Variant>
CHEMBL3650_lig874-1

> <s_i_glide_gridfile>
glide-grid_3c4f

> <i_i_glide_lignum>
1067

> <i_i_glide_rotatable_bonds>
2

> <r_i_docking_score>
-7.59324694369811

> <r_i_glide_ligand_efficiency>
-0.330141171465135

> <r_i_glide_ligand_efficiency_sa>
-0.93887757523793

> <r_i_glide_ligand_efficiency_ln>
-1.83611596274282

> <r_i_glide_gscore>
-7.59324694369811

> <r_i_glide_lipo>
-2.27212174253018

> <r_i_glide_hbond>
-0.190015654617242

> <r_i_glide_metal>
0

> <r_i_glide_rewards>
-2.97079579291335

> <r_i_glide_evdw>
-37.1012420654297

> <r_i_glide_ecoul>
-4.40305185317993

> <r_i_glide_erotb>
0.355206127611133

> <r_i_glide_esite>
0

> <r_i_glide_emodel>
-53.880427038205

> <r_i_glide_energy>
-41.5042939186096

> <r_i_glide_einternal>
3.85643577575684

> <i_i_glide_confnum>
3

> <i_i_glide_posenum>
291

> <r_i_glide_eff_state_penalty>
0

> <s_user_duplicate_titles>
CHEMBL3650_lig874

> <s_m_subgroup_title>
dock_pv

> <s_m_subgroupid>
dock_pv

> <b_m_subgroup_collapsed>
1

$$$$
CHEMBL3650_lig3175
                    3D
 Schrodinger Suite 2021-1.
 34 35  0  0  1  0            999 V2000
    9.7852    4.7370   21.8530 Cl  0  0  0  0  0  0
    5.0645    2.3370   19.4530 O   0  0  0  0  0  0
    9.5339    2.0653   23.0946 O   0  0  0  0  0  0
    7.4628    1.9370   24.0210 O   0  0  0  0  0  0
    7.4052    3.5952   17.0530 O   0  0  0  0  0  0
    6.0186    4.7270   18.4482 N   0  0  0  0  0  0
    5.4380    4.5104   16.3230 N   0  0  0  0  0  0
    4.4223    4.6178   14.2376 N   0  0  0  0  0  0
    5.9710    2.4990   13.2358 N   0  0  0  0  0  0
    5.2760    2.7370    9.8596 N   0  0  0  0  0  0
    6.5303    4.1968   19.6374 C   0  0  0  0  0  0
    6.0221    3.0051   20.1498 C   0  0  0  0  0  0
    7.6906    3.0172   21.8961 C   0  0  0  0  0  0
    8.2422    4.1733   21.3360 C   0  0  0  0  0  0
    6.5524    2.4551   21.3155 C   0  0  0  0  0  0
    7.5978    4.8110   20.2739 C   0  0  0  0  0  0
    8.3354    2.3362   23.0601 C   0  0  0  0  0  0
    6.3807    4.2512   17.2454 C   0  0  0  0  0  0
    5.3221    3.9817   15.0299 C   0  0  0  0  0  0
    6.0609    2.8907   14.5339 C   0  0  0  0  0  0
    5.1710    3.2282   12.4247 C   0  0  0  0  0  0
    4.3558    4.2334   12.9383 C   0  0  0  0  0  0
    5.5764    1.1917   18.8142 C   0  0  0  0  0  0
    5.2314    2.9516   10.9965 C   0  0  0  0  0  0
    7.9406    1.3090   24.5777 H   0  0  0  0  0  0
    5.1827    5.2850   18.5216 H   0  0  0  0  0  0
    4.7288    5.1841   16.5637 H   0  0  0  0  0  0
    6.1301    1.5370   21.6975 H   0  0  0  0  0  0
    7.9710    5.7310   19.8693 H   0  0  0  0  0  0
    6.7620    2.3370   15.1370 H   0  0  0  0  0  0
    3.6448    4.7370   12.3064 H   0  0  0  0  0  0
    4.7710    0.7370   18.2530 H   0  0  0  0  0  0
    6.3708    1.4353   18.1086 H   0  0  0  0  0  0
    5.9710    0.4780   19.5407 H   0  0  0  0  0  0
  1 14  1  0  0  0
  2 12  1  0  0  0
  2 23  1  0  0  0
  3 17  2  0  0  0
  4 17  1  0  0  0
  4 25  1  0  0  0
  5 18  2  0  0  0
  6 11  1  0  0  0
  6 18  1  0  0  0
  6 26  1  0  0  0
  7 18  1  0  0  0
  7 19  1  0  0  0
  7 27  1  0  0  0
  8 19  1  0  0  0
  8 22  2  0  0  0
  9 20  1  0  0  0
  9 21  2  0  0  0
 10 24  3  0  0  0
 11 12  1  0  0  0
 11 16  2  0  0  0
 12 15  2  0  0  0
 13 14  2  0  0  0
 13 15  1  0  0  0
 13 17  1  0  0  0
 14 16  1  0  0  0
 15 28  1  0  0  0
 16 29  1  0  0  0
 19 20  2  0  0  0
 20 30  1  0  0  0
 21 22  1  0  0  0
 21 24  1  0  0  0
 22 31  1  0  0  0
 23 32  1  0  0  0
 23 33  1  0  0  0
 23 34  1  0  0  0
M  END
> <s_m_entry_id>
49527

> <s_m_entry_name>
dock_pv.117

> <s_m_Source_Path>
/home/csk/Desktop/cluster/DUD-E-result/fgfr1

> <s_m_Source_File>
dock_pv.maegz

> <i_m_Source_File_Index>
117

> <chembl_id>
CHEMBL1983006

> <chembl_pref_name>
None

> <i_lp_mmshare_version>
53161

> <i_f3d_flags>
0

> <r_lp_tautomer_probability>
1

> <s_lp_Force_Field>
OPLS_2005

> <r_lp_Energy>
30.19607

> <b_lp_Chiralities_Consistent>
1

> <s_lp_Variant>
CHEMBL3650_lig3175-1

> <s_i_glide_gridfile>
glide-grid_3c4f

> <i_i_glide_lignum>
4093

> <i_i_glide_rotatable_bonds>
7

> <r_i_docking_score>
-7.59044748175593

> <r_i_glide_ligand_efficiency>
-0.316268645073164

> <r_i_glide_ligand_efficiency_sa>
-0.912276633950532

> <r_i_glide_ligand_efficiency_ln>
-1.81674238532341

> <r_i_glide_gscore>
-7.59044748175593

> <r_i_glide_lipo>
-2.14021120506975

> <r_i_glide_hbond>
-0.572441932821909

> <r_i_glide_metal>
0

> <r_i_glide_rewards>
-2.84732350491715

> <r_i_glide_evdw>
-37.4058303833008

> <r_i_glide_ecoul>
-6.31381273269653

> <r_i_glide_erotb>
0.786892590122401

> <r_i_glide_esite>
0

> <r_i_glide_emodel>
-48.3423086428551

> <r_i_glide_energy>
-43.7196431159973

> <r_i_glide_einternal>
19.1141605377197

> <i_i_glide_confnum>
53

> <i_i_glide_posenum>
268

> <r_i_glide_eff_state_penalty>
0

> <s_user_duplicate_titles>
CHEMBL3650_lig3175

> <s_m_subgroup_title>
dock_pv

> <s_m_subgroupid>
dock_pv

> <b_m_subgroup_collapsed>
1

$$$$
CHEMBL3650_lig2575
                    3D
 Schrodinger Suite 2021-1.
 36 39  0  0  1  0            999 V2000
    3.7952    5.3879   16.1479 N   0  0  0  0  0  0
    3.3817    5.1463   14.8824 C   0  0  0  0  0  0
    5.4119    3.7137   14.7811 N   0  0  0  0  0  0
    4.3470    4.3414   14.1518 C   0  0  0  0  0  0
    4.3710    3.9370   12.8232 C   0  0  0  0  0  0
    5.3838    3.0004   12.6442 C   0  0  0  0  0  0
    5.9813    2.8477   13.8767 C   0  0  0  0  0  0
    4.8094    4.7316   16.8522 C   0  0  0  0  0  0
    5.6773    3.8724   16.1578 C   0  0  0  0  0  0
    6.6150    3.1212   16.8575 C   0  0  0  0  0  0
    6.5879    3.1231   18.2421 C   0  0  0  0  0  0
    5.7124    3.9162   18.9631 C   0  0  0  0  0  0
    4.8197    4.7370   18.2530 C   0  0  0  0  0  0
    2.3020    5.5782   14.4923 O   0  0  0  0  0  0
    5.7067    3.7546   20.4881 C   0  0  0  0  0  0
    7.0055    3.6209   21.1571 N   0  0  0  0  0  0
    8.0213    4.6665   21.1160 C   0  0  0  0  0  0
    9.2138    4.0344   21.8077 C   0  0  0  0  0  0
    8.6431    2.8702   22.5938 C   0  0  0  0  0  0
    7.2744    2.5840   21.9886 C   0  0  0  0  0  0
    6.5724    1.6066   22.2527 O   0  0  0  0  0  0
    3.1306    5.9370   16.6686 H   0  0  0  0  0  0
    3.6834    4.2786   12.0624 H   0  0  0  0  0  0
    5.6189    2.4762   11.7290 H   0  0  0  0  0  0
    6.7710    2.1956   14.2008 H   0  0  0  0  0  0
    7.2721    2.4318   16.3508 H   0  0  0  0  0  0
    7.1710    2.4118   18.7882 H   0  0  0  0  0  0
    4.0625    5.3053   18.7688 H   0  0  0  0  0  0
    5.1710    2.8247   20.6530 H   0  0  0  0  0  0
    5.1710    4.5373   21.0142 H   0  0  0  0  0  0
    8.2522    4.9549   20.0900 H   0  0  0  0  0  0
    7.6744    5.5542   21.6472 H   0  0  0  0  0  0
    9.7713    4.7370   22.4249 H   0  0  0  0  0  0
    9.9002    3.6527   21.0532 H   0  0  0  0  0  0
    8.4855    3.1435   23.6376 H   0  0  0  0  0  0
    9.2839    1.9879   22.5729 H   0  0  0  0  0  0
  1  8  1  0  0  0
  1  2  1  0  0  0
  1 22  1  0  0  0
  2  4  1  0  0  0
  2 14  2  0  0  0
  3  7  1  0  0  0
  3  4  1  0  0  0
  3  9  1  0  0  0
  4  5  2  0  0  0
  5  6  1  0  0  0
  5 23  1  0  0  0
  6  7  2  0  0  0
  6 24  1  0  0  0
  7 25  1  0  0  0
  8 13  1  0  0  0
  8  9  2  0  0  0
  9 10  1  0  0  0
 10 11  2  0  0  0
 10 26  1  0  0  0
 11 12  1  0  0  0
 11 27  1  0  0  0
 12 13  2  0  0  0
 12 15  1  0  0  0
 13 28  1  0  0  0
 15 16  1  0  0  0
 15 29  1  0  0  0
 15 30  1  0  0  0
 16 17  1  0  0  0
 16 20  1  0  0  0
 17 18  1  0  0  0
 17 31  1  0  0  0
 17 32  1  0  0  0
 18 19  1  0  0  0
 18 33  1  0  0  0
 18 34  1  0  0  0
 19 20  1  0  0  0
 19 35  1  0  0  0
 19 36  1  0  0  0
 20 21  2  0  0  0
M  END
> <s_m_entry_id>
49529

> <s_m_entry_name>
dock_pv.119

> <s_m_Source_Path>
/home/csk/Desktop/cluster/DUD-E-result/fgfr1

> <s_m_Source_File>
dock_pv.maegz

> <i_m_Source_File_Index>
119

> <chembl_id>
CHEMBL539474

> <chembl_pref_name>
None

> <i_lp_mmshare_version>
53161

> <i_f3d_flags>
0

> <r_lp_tautomer_probability>
1

> <s_lp_Force_Field>
OPLS_2005

> <r_lp_Energy>
28.641201

> <b_lp_Chiralities_Consistent>
1

> <s_lp_Variant>
CHEMBL3650_lig2575-1

> <s_i_glide_gridfile>
glide-grid_3c4f

> <i_i_glide_lignum>
3159

> <i_i_glide_rotatable_bonds>
2

> <r_i_docking_score>
-7.56857586464203

> <r_i_glide_ligand_efficiency>
-0.360408374506763

> <r_i_glide_ligand_efficiency_sa>
-0.994339376787834

> <r_i_glide_ligand_efficiency_ln>
-1.87131508878517

> <r_i_glide_gscore>
-7.56857586464203

> <r_i_glide_lipo>
-2.55051876068405

> <r_i_glide_hbond>
-0.310706039969287

> <r_i_glide_metal>
0

> <r_i_glide_rewards>
-3.27440696969697

> <r_i_glide_evdw>
-35.4226913452148

> <r_i_glide_ecoul>
-0.774615049362183

> <r_i_glide_erotb>
0.456809219650713

> <r_i_glide_esite>
-0.00242648927736099

> <r_i_glide_emodel>
-38.8503023376617

> <r_i_glide_energy>
-36.197306394577

> <r_i_glide_einternal>
0.850122153759003

> <i_i_glide_confnum>
2

> <i_i_glide_posenum>
152

> <r_i_glide_eff_state_penalty>
0

> <s_user_duplicate_titles>
CHEMBL3650_lig2575

> <s_m_subgroup_title>
dock_pv

> <s_m_subgroupid>
dock_pv

> <b_m_subgroup_collapsed>
1

$$$$
CHEMBL3650_lig105
                    3D
 Schrodinger Suite 2021-1.
 31 33  0  0  1  0            999 V2000
    6.3361    2.2661   20.2661 N   0  0  0  0  0  0
    6.1280    4.1440   18.7818 C   0  0  0  0  0  0
    7.2171    2.9743   21.1181 C   0  0  0  0  0  0
    5.8218    2.7459   19.0907 C   0  0  0  0  0  0
    7.7613    2.3319   22.1925 N   0  0  0  0  0  0
    7.5682    4.2824   20.7767 C   0  0  0  0  0  0
    6.9814    4.8595   19.5547 C   0  0  0  0  0  0
    5.5870    4.6724   17.4917 C   0  0  0  0  0  0
    8.6946    3.0115   22.8918 C   0  0  0  0  0  0
    9.1031    4.2798   22.6436 N   0  0  0  0  0  0
    8.5030    4.9090   21.5947 C   0  0  0  0  0  0
    5.1710    2.0543   18.3159 O   0  0  0  0  0  0
    4.2678    5.1370   17.3426 C   0  0  0  0  0  0
    6.3631    4.5432   16.3336 C   0  0  0  0  0  0
    6.1042    0.8497   20.5749 C   0  0  0  0  0  0
    9.2823    2.3370   23.9498 N   0  0  0  0  0  0
    3.1634    5.1370   18.6530 Cl  0  0  0  0  0  0
    7.9710    3.9370   16.4589 Cl  0  0  0  0  0  0
    4.5318    5.3214   14.9530 C   0  0  0  0  0  0
    5.8239    4.8409   15.0783 C   0  0  0  0  0  0
    3.7576    5.4793   16.0889 C   0  0  0  0  0  0
    7.2350    5.8691   19.2620 H   0  0  0  0  0  0
    8.7710    5.9370   21.4253 H   0  0  0  0  0  0
    5.5710    0.3304   19.7918 H   0  0  0  0  0  0
    7.0550    0.3370   20.6530 H   0  0  0  0  0  0
    5.5710    0.7387   21.5121 H   0  0  0  0  0  0
    9.0008    1.3754   24.1325 H   0  0  0  0  0  0
    9.9892    2.8026   24.4951 H   0  0  0  0  0  0
    4.1296    5.5438   13.9740 H   0  0  0  0  0  0
    6.3710    4.6865   14.1676 H   0  0  0  0  0  0
    2.7308    5.7957   15.9786 H   0  0  0  0  0  0
  1  3  1  0  0  0
  1  4  1  0  0  0
  1 15  1  0  0  0
  2  4  1  0  0  0
  2  7  2  0  0  0
  2  8  1  0  0  0
  3  5  2  0  0  0
  3  6  1  0  0  0
  4 12  2  0  0  0
  5  9  1  0  0  0
  6 11  2  0  0  0
  6  7  1  0  0  0
  7 22  1  0  0  0
  8 13  2  0  0  0
  8 14  1  0  0  0
  9 16  1  0  0  0
  9 10  2  0  0  0
 10 11  1  0  0  0
 11 23  1  0  0  0
 13 17  1  0  0  0
 13 21  1  0  0  0
 14 18  1  0  0  0
 14 20  2  0  0  0
 15 24  1  0  0  0
 15 25  1  0  0  0
 15 26  1  0  0  0
 16 27  1  0  0  0
 16 28  1  0  0  0
 19 20  1  0  0  0
 19 21  2  0  0  0
 19 29  1  0  0  0
 20 30  1  0  0  0
 21 31  1  0  0  0
M  END
> <s_m_entry_id>
49530

> <s_m_entry_name>
dock_pv.120

> <s_m_Source_Path>
/home/csk/Desktop/cluster/DUD-E-result/fgfr1

> <s_m_Source_File>
dock_pv.maegz

> <i_m_Source_File_Index>
120

> <chembl_id>
CHEMBL49596

> <chembl_pref_name>
None

> <i_lp_mmshare_version>
53161

> <i_f3d_flags>
0

> <r_lp_tautomer_probability>
1

> <s_lp_Force_Field>
OPLS_2005

> <r_lp_Energy>
20.723167

> <b_lp_Chiralities_Consistent>
1

> <s_lp_Variant>
CHEMBL3650_lig105-1

> <s_i_glide_gridfile>
glide-grid_3c4f

> <i_i_glide_lignum>
127

> <i_i_glide_rotatable_bonds>
1

> <r_i_docking_score>
-7.5652522080777

> <r_i_glide_ligand_efficiency>
-0.360250105146557

> <r_i_glide_ligand_efficiency_sa>
-0.993902723624024

> <r_i_glide_ligand_efficiency_ln>
-1.87049332141572

> <r_i_glide_gscore>
-7.5652522080777

> <r_i_glide_lipo>
-2.25331645087673

> <r_i_glide_hbond>
-0.32

> <r_i_glide_metal>
0

> <r_i_glide_rewards>
-3.21947975579469

> <r_i_glide_evdw>
-26.9527492523193

> <r_i_glide_ecoul>
-3.97850847244263

> <r_i_glide_erotb>
0.181132178866473

> <r_i_glide_esite>
-0.00917444679038391

> <r_i_glide_emodel>
-35.4095002994049

> <r_i_glide_energy>
-30.931257724762

> <r_i_glide_einternal>
0.082854188978672

> <i_i_glide_confnum>
1

> <i_i_glide_posenum>
257

> <r_i_glide_eff_state_penalty>
0

> <s_user_duplicate_titles>
CHEMBL3650_lig105

> <s_m_subgroup_title>
dock_pv

> <s_m_subgroupid>
dock_pv

> <b_m_subgroup_collapsed>
1

$$$$
CHEMBL3650_lig3193
                    3D
 Schrodinger Suite 2021-1.
 43 46  0  0  1  0            999 V2000
    5.6364    1.5370   21.9722 O   0  0  0  0  0  0
    5.5687    3.3259   12.7929 O   0  0  0  0  0  0
    7.3491    2.0243   23.4524 N   0  0  0  0  0  0
    5.5717    3.5133   19.9040 N   0  0  0  0  0  0
    4.9581    4.2498   15.4534 N   0  0  0  0  0  0
   13.3293    4.6737   22.2012 N   0  0  0  0  0  0
    7.4061    3.1709   21.4886 C   0  0  0  0  0  0
    8.6461    3.3749   22.2228 C   0  0  0  0  0  0
    8.5236    2.7234   23.4914 C   0  0  0  0  0  0
    6.7531    2.2422   22.2510 C   0  0  0  0  0  0
    6.8991    3.6898   20.1621 C   0  0  0  0  0  0
    9.8569    4.0266   21.9712 C   0  0  0  0  0  0
    9.4953    2.8045   24.4934 C   0  0  0  0  0  0
   10.9170    3.9341   22.8815 C   0  0  0  0  0  0
    7.7121    4.3074   19.2223 C   0  0  0  0  0  0
   10.6884    3.4409   24.1607 C   0  0  0  0  0  0
    5.8077    4.6339   17.7817 C   0  0  0  0  0  0
    5.0425    3.9897   18.7467 C   0  0  0  0  0  0
    7.1714    4.7373   18.0139 C   0  0  0  0  0  0
    5.2120    5.2261   16.5159 C   0  0  0  0  0  0
   12.2715    4.3348   22.5028 C   0  0  0  0  0  0
    6.1093    3.3764   15.1696 C   0  0  0  0  0  0
    4.5266    4.9787   14.2530 C   0  0  0  0  0  0
    5.8817    2.5136   13.9097 C   0  0  0  0  0  0
    4.3715    4.0525   13.0332 C   0  0  0  0  0  0
    5.3518    1.7768   21.0830 H   0  0  0  0  0  0
    6.9931    1.3760   24.1379 H   0  0  0  0  0  0
    9.9709    4.5512   21.0529 H   0  0  0  0  0  0
    9.3680    2.3236   25.4529 H   0  0  0  0  0  0
    8.7711    4.3373   19.3681 H   0  0  0  0  0  0
   11.4883    3.4422   24.8901 H   0  0  0  0  0  0
    3.9740    3.8897   18.6374 H   0  0  0  0  0  0
    7.8209    5.1370   17.2520 H   0  0  0  0  0  0
    4.2756    5.7213   16.7788 H   0  0  0  0  0  0
    5.8727    6.0210   16.1609 H   0  0  0  0  0  0
    7.0051    3.9859   15.0465 H   0  0  0  0  0  0
    6.3132    2.7372   16.0285 H   0  0  0  0  0  0
    3.5939    5.5090   14.4494 H   0  0  0  0  0  0
    5.2617    5.7477   14.0031 H   0  0  0  0  0  0
    5.0909    1.7830   14.0738 H   0  0  0  0  0  0
    6.7697    1.9431   13.6771 H   0  0  0  0  0  0
    3.5458    3.3646   13.1973 H   0  0  0  0  0  0
    4.1240    4.6326   12.1448 H   0  0  0  0  0  0
  1 10  1  0  0  0
  1 26  1  0  0  0
  2 24  1  0  0  0
  2 25  1  0  0  0
  3  9  1  0  0  0
  3 10  1  0  0  0
  3 27  1  0  0  0
  4 11  1  0  0  0
  4 18  2  0  0  0
  5 20  1  0  0  0
  5 22  1  0  0  0
  5 23  1  0  0  0
  6 21  3  0  0  0
  7  8  1  0  0  0
  7 10  2  0  0  0
  7 11  1  0  0  0
  8  9  1  0  0  0
  8 12  2  0  0  0
  9 13  2  0  0  0
 11 15  2  0  0  0
 12 14  1  0  0  0
 12 28  1  0  0  0
 13 16  1  0  0  0
 13 29  1  0  0  0
 14 16  2  0  0  0
 14 21  1  0  0  0
 15 19  1  0  0  0
 15 30  1  0  0  0
 16 31  1  0  0  0
 17 18  1  0  0  0
 17 19  2  0  0  0
 17 20  1  0  0  0
 18 32  1  0  0  0
 19 33  1  0  0  0
 20 34  1  0  0  0
 20 35  1  0  0  0
 22 24  1  0  0  0
 22 36  1  0  0  0
 22 37  1  0  0  0
 23 25  1  0  0  0
 23 38  1  0  0  0
 23 39  1  0  0  0
 24 40  1  0  0  0
 24 41  1  0  0  0
 25 42  1  0  0  0
 25 43  1  0  0  0
M  END
> <s_m_entry_id>
49531

> <s_m_entry_name>
dock_pv.121

> <s_m_Source_Path>
/home/csk/Desktop/cluster/DUD-E-result/fgfr1

> <s_m_Source_File>
dock_pv.maegz

> <i_m_Source_File_Index>
121

> <chembl_id>
CHEMBL1969664

> <chembl_pref_name>
AZD-1080

> <i_lp_mmshare_version>
53161

> <i_f3d_flags>
0

> <r_lp_tautomer_probability>
1

> <s_lp_Force_Field>
OPLS_2005

> <r_lp_Energy>
28.483927

> <b_lp_Chiralities_Consistent>
1

> <s_lp_Variant>
CHEMBL3650_lig3193-1

> <s_i_glide_gridfile>
glide-grid_3c4f

> <i_i_glide_lignum>
4116

> <i_i_glide_rotatable_bonds>
4

> <r_i_docking_score>
-7.54695975055081

> <r_i_glide_ligand_efficiency>
-0.301878390022032

> <r_i_glide_ligand_efficiency_sa>
-0.882697766260466

> <r_i_glide_ligand_efficiency_ln>
-1.78885562501394

> <r_i_glide_gscore>
-7.54695975055081

> <r_i_glide_lipo>
-3.40080036758107

> <r_i_glide_hbond>
-0.631475383710509

> <r_i_glide_metal>
0

> <r_i_glide_rewards>
-1.93033004226029

> <r_i_glide_evdw>
-22.3630638122559

> <r_i_glide_ecoul>
-6.44445848464966

> <r_i_glide_erotb>
0.506053027602229

> <r_i_glide_esite>
-0.00558502129092791

> <r_i_glide_emodel>
-44.08269802402

> <r_i_glide_energy>
-28.8075222969055

> <r_i_glide_einternal>
3.84689831733704

> <i_i_glide_confnum>
8

> <i_i_glide_posenum>
120

> <r_i_glide_eff_state_penalty>
0

> <s_user_duplicate_titles>
CHEMBL3650_lig3193

> <s_m_subgroup_title>
dock_pv

> <s_m_subgroupid>
dock_pv

> <b_m_subgroup_collapsed>
1

$$$$
CHEMBL3650_lig3072
                    3D
 Schrodinger Suite 2021-1.
 30 32  0  0  1  0            999 V2000
    6.1032    3.5492   19.0627 C   0  0  0  0  0  0
    5.5739    2.3174   19.4531 C   0  0  0  0  0  0
    5.9711    1.7072   20.6431 C   0  0  0  0  0  0
    7.0563    4.2070   19.8428 C   0  0  0  0  0  0
    7.4698    3.6102   21.0428 C   0  0  0  0  0  0
    6.9053    2.3629   21.4539 C   0  0  0  0  0  0
    7.3982    1.9368   22.6526 N   0  0  0  0  0  0
    8.2946    2.8835   22.9668 N   0  0  0  0  0  0
    8.3999    3.9164   22.0664 C   0  0  0  0  0  0
    5.6675    4.1493   17.7838 C   0  0  0  0  0  0
    5.9840    3.9186   16.4653 C   0  0  0  0  0  0
    5.1892    4.8004   15.7338 C   0  0  0  0  0  0
    4.4447    5.5369   16.5334 N   0  0  0  0  0  0
    4.7406    5.1370   17.8380 O   0  0  0  0  0  0
    5.1068    4.9839   14.2319 C   0  0  0  0  0  0
    5.0528    3.6512   13.4587 C   0  0  0  0  0  0
    4.9665    3.8564   11.9399 C   0  0  0  0  0  0
    4.8486    1.8167   18.8267 H   0  0  0  0  0  0
    5.5643    0.7486   20.9273 H   0  0  0  0  0  0
    7.4735    5.1486   19.5193 H   0  0  0  0  0  0
    8.8366    2.8168   23.8166 H   0  0  0  0  0  0
    9.0916    4.7280   22.2346 H   0  0  0  0  0  0
    6.6940    3.2031   16.0769 H   0  0  0  0  0  0
    5.9710    5.5558   13.8892 H   0  0  0  0  0  0
    4.2356    5.5810   13.9598 H   0  0  0  0  0  0
    4.1962    3.0635   13.7911 H   0  0  0  0  0  0
    5.9411    3.0603   13.6845 H   0  0  0  0  0  0
    5.0141    2.9033   11.4114 H   0  0  0  0  0  0
    5.7825    4.4845   11.5776 H   0  0  0  0  0  0
    4.0285    4.3406   11.6611 H   0  0  0  0  0  0
  1  2  1  0  0  0
  1 10  1  0  0  0
  1  4  2  0  0  0
  2  3  2  0  0  0
  2 18  1  0  0  0
  3  6  1  0  0  0
  3 19  1  0  0  0
  4 20  1  0  0  0
  4  5  1  0  0  0
  5  6  1  0  0  0
  5  9  2  0  0  0
  6  7  2  0  0  0
  7  8  1  0  0  0
  8 21  1  0  0  0
  8  9  1  0  0  0
  9 22  1  0  0  0
 10 14  1  0  0  0
 10 11  2  0  0  0
 11 12  1  0  0  0
 11 23  1  0  0  0
 12 13  2  0  0  0
 12 15  1  0  0  0
 13 14  1  0  0  0
 15 16  1  0  0  0
 15 24  1  0  0  0
 15 25  1  0  0  0
 16 17  1  0  0  0
 16 26  1  0  0  0
 16 27  1  0  0  0
 17 28  1  0  0  0
 17 29  1  0  0  0
 17 30  1  0  0  0
M  END
> <s_m_entry_id>
49532

> <s_m_entry_name>
dock_pv.122

> <s_m_Source_Path>
/home/csk/Desktop/cluster/DUD-E-result/fgfr1

> <s_m_Source_File>
dock_pv.maegz

> <i_m_Source_File_Index>
122

> <chembl_id>
CHEMBL1682359

> <chembl_pref_name>
None

> <i_lp_mmshare_version>
53161

> <i_f3d_flags>
0

> <r_lp_tautomer_probability>
0.0196078431372549

> <s_lp_Force_Field>
OPLS_2005

> <r_lp_Energy>
16.60487

> <b_lp_Chiralities_Consistent>
1

> <s_lp_Variant>
CHEMBL3650_lig3072-2

> <s_i_glide_gridfile>
glide-grid_3c4f

> <i_i_glide_lignum>
3909

> <i_i_glide_rotatable_bonds>
3

> <r_i_docking_score>
-7.54328716237912

> <r_i_glide_ligand_efficiency>
-0.443722774257595

> <r_i_glide_ligand_efficiency_sa>
-1.14093619972685

> <r_i_glide_ligand_efficiency_ln>
-1.96787563991859

> <r_i_glide_gscore>
-7.54328716237912

> <r_i_glide_lipo>
-2.74470333141104

> <r_i_glide_hbond>
0

> <r_i_glide_metal>
0

> <r_i_glide_rewards>
-3.42341493003391

> <r_i_glide_evdw>
-37.5044097900391

> <r_i_glide_ecoul>
-1.05853176116943

> <r_i_glide_erotb>
0.658831352743197

> <r_i_glide_esite>
0

> <r_i_glide_emodel>
-53.7764332580449

> <r_i_glide_energy>
-38.5629415512085

> <r_i_glide_einternal>
4.86869096755981

> <i_i_glide_confnum>
6

> <i_i_glide_posenum>
23

> <r_i_glide_eff_state_penalty>
0

> <s_user_duplicate_titles>
CHEMBL3650_lig3072,CHEMBL3650_lig3072

> <s_m_subgroup_title>
dock_pv

> <s_m_subgroupid>
dock_pv

> <b_m_subgroup_collapsed>
1

$$$$
CHEMBL3650_lig3324
                    3D
 Schrodinger Suite 2021-1.
 30 32  0  0  1  0            999 V2000
    7.1712    2.5990   16.6529 O   0  0  0  0  0  0
    4.0603    5.5369   18.2518 O   0  0  0  0  0  0
    6.3062    1.1722   21.4583 O   0  0  0  0  0  0
    9.4420    3.3295   22.9243 O   0  0  0  0  0  0
    7.5710    2.3368   23.7378 O   0  0  0  0  0  0
    5.8219    4.1139   17.7590 N   0  0  0  0  0  0
    6.2976    3.4544   16.6724 C   0  0  0  0  0  0
    4.7638    4.9063   17.4673 C   0  0  0  0  0  0
    5.4889    3.9080   15.5264 C   0  0  0  0  0  0
    4.5550    4.7745   16.0107 C   0  0  0  0  0  0
    6.3042    3.8922   19.0525 C   0  0  0  0  0  0
    5.9801    2.7094   19.7187 C   0  0  0  0  0  0
    5.5121    3.5296   14.1869 C   0  0  0  0  0  0
    3.5595    5.2897   15.1918 C   0  0  0  0  0  0
    7.1711    4.8094   19.6422 C   0  0  0  0  0  0
    6.5795    2.4081   20.9389 C   0  0  0  0  0  0
    7.4915    3.3101   21.5262 C   0  0  0  0  0  0
    7.7597    4.5188   20.8696 C   0  0  0  0  0  0
    4.5268    4.0462   13.3422 C   0  0  0  0  0  0
    3.5527    4.9150   13.8527 C   0  0  0  0  0  0
    8.2711    2.9863   22.7731 C   0  0  0  0  0  0
    5.7582    0.6476   20.8672 H   0  0  0  0  0  0
    8.1681    2.0767   24.4420 H   0  0  0  0  0  0
    5.3137    1.9987   19.2508 H   0  0  0  0  0  0
    6.2529    2.8416   13.8100 H   0  0  0  0  0  0
    2.7865    5.9369   15.5736 H   0  0  0  0  0  0
    7.4271    5.7254   19.1301 H   0  0  0  0  0  0
    8.4602    5.2298   21.2858 H   0  0  0  0  0  0
    4.5105    3.7789   12.2954 H   0  0  0  0  0  0
    2.7921    5.3190   13.1984 H   0  0  0  0  0  0
  1  7  2  0  0  0
  2  8  2  0  0  0
  3 16  1  0  0  0
  3 22  1  0  0  0
  4 21  2  0  0  0
  5 21  1  0  0  0
  5 23  1  0  0  0
  6  7  1  0  0  0
  6  8  1  0  0  0
  6 11  1  0  0  0
  7  9  1  0  0  0
  8 10  1  0  0  0
  9 10  1  0  0  0
  9 13  2  0  0  0
 10 14  2  0  0  0
 11 12  1  0  0  0
 11 15  2  0  0  0
 12 16  2  0  0  0
 12 24  1  0  0  0
 13 19  1  0  0  0
 13 25  1  0  0  0
 14 20  1  0  0  0
 14 26  1  0  0  0
 15 18  1  0  0  0
 15 27  1  0  0  0
 16 17  1  0  0  0
 17 18  2  0  0  0
 17 21  1  0  0  0
 18 28  1  0  0  0
 19 20  2  0  0  0
 19 29  1  0  0  0
 20 30  1  0  0  0
M  END
> <s_m_entry_id>
49534

> <s_m_entry_name>
dock_pv.124

> <s_m_Source_Path>
/home/csk/Desktop/cluster/DUD-E-result/fgfr1

> <s_m_Source_File>
dock_pv.maegz

> <i_m_Source_File_Index>
124

> <chembl_id>
CHEMBL1972820

> <chembl_pref_name>
None

> <i_lp_mmshare_version>
53161

> <i_f3d_flags>
0

> <r_lp_tautomer_probability>
1

> <s_lp_Force_Field>
OPLS_2005

> <r_lp_Energy>
53.719421

> <b_lp_Chiralities_Consistent>
1

> <s_lp_Variant>
CHEMBL3650_lig3324-1

> <s_i_glide_gridfile>
glide-grid_3c4f

> <i_i_glide_lignum>
4316

> <i_i_glide_rotatable_bonds>
4

> <r_i_docking_score>
-7.53489194041475

> <r_i_glide_ligand_efficiency>
-0.358804378114988

> <r_i_glide_ligand_efficiency_sa>
-0.989914072368228

> <r_i_glide_ligand_efficiency_ln>
-1.86298680658475

> <r_i_glide_gscore>
-7.53489194041475

> <r_i_glide_lipo>
-1.99312322059339

> <r_i_glide_hbond>
0

> <r_i_glide_metal>
0

> <r_i_glide_rewards>
-3.40530123586261

> <r_i_glide_evdw>
-38.3015174865723

> <r_i_glide_ecoul>
-4.48542070388794

> <r_i_glide_erotb>
0.451421495953057

> <r_i_glide_esite>
0

> <r_i_glide_emodel>
-55.1797460052776

> <r_i_glide_energy>
-42.7869381904602

> <r_i_glide_einternal>
8.40925216674805

> <i_i_glide_confnum>
5

> <i_i_glide_posenum>
38

> <r_i_glide_eff_state_penalty>
0

> <s_user_duplicate_titles>
CHEMBL3650_lig3324

> <s_m_subgroup_title>
dock_pv

> <s_m_subgroupid>
dock_pv

> <b_m_subgroup_collapsed>
1

$$$$
CHEMBL3650_lig2460
                    3D
 Schrodinger Suite 2021-1.
 34 36  0  0  1  0            999 V2000
    7.1120    4.3759   18.9949 N   0  0  0  0  0  0
    6.2557    4.6266   17.9062 C   0  0  0  0  0  0
    6.7959    4.8222   16.6370 C   0  0  0  0  0  0
    5.9699    5.1681   15.5672 C   0  0  0  0  0  0
    4.6052    5.3336   15.7699 C   0  0  0  0  0  0
    4.0570    5.1376   17.0301 C   0  0  0  0  0  0
    4.8746    4.7504   18.0873 C   0  0  0  0  0  0
    6.9461    3.4949   20.0703 C   0  0  0  0  0  0
    6.0083    2.4585   20.0019 C   0  0  0  0  0  0
    5.9711    1.5666   21.0661 C   0  0  0  0  0  0
    6.7636    1.7001   22.1577 N   0  0  0  0  0  0
    7.6554    2.7215   22.1443 C   0  0  0  0  0  0
    8.4309    2.8031   23.3102 N   0  0  0  0  0  0
    9.7098    3.3137   23.5808 C   0  0  0  0  0  0
   10.0704    3.5188   24.9144 C   0  0  0  0  0  0
   11.3607    3.9356   25.2408 C   0  0  0  0  0  0
   12.3011    4.1264   24.2306 C   0  0  0  0  0  0
   11.9488    3.9336   22.8958 C   0  0  0  0  0  0
   10.6504    3.5403   22.5737 C   0  0  0  0  0  0
    7.7934    3.6264   21.1324 N   0  0  0  0  0  0
    8.0144    4.8249   18.9569 H   0  0  0  0  0  0
    7.8598    4.7300   16.4695 H   0  0  0  0  0  0
    6.3709    5.3291   14.5780 H   0  0  0  0  0  0
    3.9743    5.6171   14.9388 H   0  0  0  0  0  0
    2.9942    5.2565   17.1826 H   0  0  0  0  0  0
    4.4265    4.6042   19.0534 H   0  0  0  0  0  0
    5.3679    2.3119   19.1459 H   0  0  0  0  0  0
    5.2873    0.7347   21.0529 H   0  0  0  0  0  0
    8.1495    2.1036   23.9838 H   0  0  0  0  0  0
    9.3578    3.3380   25.7058 H   0  0  0  0  0  0
   11.6404    4.0846   26.2731 H   0  0  0  0  0  0
   13.3086    4.4248   24.4848 H   0  0  0  0  0  0
   12.6816    4.0881   22.1181 H   0  0  0  0  0  0
   10.3756    3.4047   21.5403 H   0  0  0  0  0  0
  1  2  1  0  0  0
  1  8  1  0  0  0
  1 21  1  0  0  0
  2  3  2  0  0  0
  2  7  1  0  0  0
  3  4  1  0  0  0
  3 22  1  0  0  0
  4  5  2  0  0  0
  4 23  1  0  0  0
  5  6  1  0  0  0
  5 24  1  0  0  0
  6  7  2  0  0  0
  6 25  1  0  0  0
  7 26  1  0  0  0
  8  9  2  0  0  0
  8 20  1  0  0  0
  9 10  1  0  0  0
  9 27  1  0  0  0
 10 11  2  0  0  0
 10 28  1  0  0  0
 11 12  1  0  0  0
 12 13  1  0  0  0
 12 20  2  0  0  0
 13 14  1  0  0  0
 13 29  1  0  0  0
 14 15  2  0  0  0
 14 19  1  0  0  0
 15 16  1  0  0  0
 15 30  1  0  0  0
 16 17  2  0  0  0
 16 31  1  0  0  0
 17 18  1  0  0  0
 17 32  1  0  0  0
 18 19  2  0  0  0
 18 33  1  0  0  0
 19 34  1  0  0  0
M  END
> <s_m_entry_id>
49535

> <s_m_entry_name>
dock_pv.125

> <s_m_Source_Path>
/home/csk/Desktop/cluster/DUD-E-result/fgfr1

> <s_m_Source_File>
dock_pv.maegz

> <i_m_Source_File_Index>
125

> <chembl_id>
CHEMBL578061

> <chembl_pref_name>
None

> <i_lp_mmshare_version>
53161

> <i_f3d_flags>
0

> <r_lp_tautomer_probability>
0.999999624730965

> <s_lp_Force_Field>
OPLS_2005

> <r_lp_Energy>
9.419073

> <b_lp_Chiralities_Consistent>
1

> <s_lp_Variant>
CHEMBL3650_lig2460-1

> <s_i_glide_gridfile>
glide-grid_3c4f

> <i_i_glide_lignum>
2996

> <i_i_glide_rotatable_bonds>
4

> <r_i_docking_score>
-7.51477200748217

> <r_i_glide_ligand_efficiency>
-0.375738600374109

> <r_i_glide_ligand_efficiency_sa>
-1.01991147507173

> <r_i_glide_ligand_efficiency_ln>
-1.88069957970387

> <r_i_glide_gscore>
-7.51477200748217

> <r_i_glide_lipo>
-2.86921337304578

> <r_i_glide_hbond>
-0.173607448841436

> <r_i_glide_metal>
0

> <r_i_glide_rewards>
-3.04359422437675

> <r_i_glide_evdw>
-36.2662811279297

> <r_i_glide_ecoul>
-4.30813407897949

> <r_i_glide_erotb>
1.0311772070252

> <r_i_glide_esite>
0

> <r_i_glide_emodel>
-52.6820165422238

> <r_i_glide_energy>
-40.5744152069092

> <r_i_glide_einternal>
9.38085746765137

> <i_i_glide_confnum>
48

> <i_i_glide_posenum>
10

> <r_i_glide_eff_state_penalty>
0

> <s_user_duplicate_titles>
CHEMBL3650_lig2460

> <s_m_subgroup_title>
dock_pv

> <s_m_subgroupid>
dock_pv

> <b_m_subgroup_collapsed>
1

$$$$
CHEMBL3650_lig109
                    3D
 Schrodinger Suite 2021-1.
 34 36  0  0  1  0            999 V2000
    4.3711    4.9711   16.4268 N   0  0  0  0  0  0
    5.9520    4.0556   18.0305 C   0  0  0  0  0  0
    5.0708    4.3852   15.3391 C   0  0  0  0  0  0
    4.6982    4.7881   17.7595 C   0  0  0  0  0  0
    4.6033    4.5215   14.0607 N   0  0  0  0  0  0
    6.1298    3.5370   15.6395 C   0  0  0  0  0  0
    6.6232    3.4687   17.0136 C   0  0  0  0  0  0
    6.4190    3.7545   19.4296 C   0  0  0  0  0  0
    5.1227    3.6834   13.1271 C   0  0  0  0  0  0
    5.9710    2.6626   13.3972 N   0  0  0  0  0  0
    6.4786    2.6335   14.6530 C   0  0  0  0  0  0
    3.9298    5.1348   18.6530 O   0  0  0  0  0  0
    6.2673    2.4617   19.9645 C   0  0  0  0  0  0
    7.0865    4.6887   20.2391 C   0  0  0  0  0  0
    4.7710    3.9370   11.7989 N   0  0  0  0  0  0
    3.0047    5.4318   16.1028 C   0  0  0  0  0  0
    5.5710    1.2000   19.0368 Cl  0  0  0  0  0  0
    7.1710    6.3370   19.8209 Cl  0  0  0  0  0  0
    7.4565    3.0581   21.9777 C   0  0  0  0  0  0
    7.6335    4.3369   21.4688 C   0  0  0  0  0  0
    6.7454    2.1286   21.2334 C   0  0  0  0  0  0
    5.2249    3.1070   10.6894 C   0  0  0  0  0  0
    7.5161    2.8954   17.2201 H   0  0  0  0  0  0
    7.1710    1.8532   14.9016 H   0  0  0  0  0  0
    4.3375    4.8361   11.6178 H   0  0  0  0  0  0
    2.3452    5.5370   16.9647 H   0  0  0  0  0  0
    3.0400    6.3370   15.5115 H   0  0  0  0  0  0
    2.5044    4.7046   15.4662 H   0  0  0  0  0  0
    7.8618    2.7912   22.9430 H   0  0  0  0  0  0
    8.1649    5.0749   22.0513 H   0  0  0  0  0  0
    6.6183    1.1258   21.6103 H   0  0  0  0  0  0
    4.7850    3.4587    9.7560 H   0  0  0  0  0  0
    4.9216    2.0691   10.8352 H   0  0  0  0  0  0
    6.3099    3.1369   10.5947 H   0  0  0  0  0  0
  1  3  1  0  0  0
  1  4  1  0  0  0
  1 16  1  0  0  0
  2  4  1  0  0  0
  2  7  2  0  0  0
  2  8  1  0  0  0
  3  5  2  0  0  0
  3  6  1  0  0  0
  4 12  2  0  0  0
  5  9  1  0  0  0
  6 11  2  0  0  0
  6  7  1  0  0  0
  7 23  1  0  0  0
  8 13  2  0  0  0
  8 14  1  0  0  0
  9 15  1  0  0  0
  9 10  2  0  0  0
 10 11  1  0  0  0
 11 24  1  0  0  0
 13 17  1  0  0  0
 13 21  1  0  0  0
 14 18  1  0  0  0
 14 20  2  0  0  0
 15 22  1  0  0  0
 15 25  1  0  0  0
 16 26  1  0  0  0
 16 27  1  0  0  0
 16 28  1  0  0  0
 19 20  1  0  0  0
 19 21  2  0  0  0
 19 29  1  0  0  0
 20 30  1  0  0  0
 21 31  1  0  0  0
 22 32  1  0  0  0
 22 33  1  0  0  0
 22 34  1  0  0  0
M  END
> <s_m_entry_id>
49536

> <s_m_entry_name>
dock_pv.126

> <s_m_Source_Path>
/home/csk/Desktop/cluster/DUD-E-result/fgfr1

> <s_m_Source_File>
dock_pv.maegz

> <i_m_Source_File_Index>
126

> <chembl_id>
CHEMBL107472

> <chembl_pref_name>
None

> <i_lp_mmshare_version>
53161

> <i_f3d_flags>
0

> <r_lp_tautomer_probability>
1

> <s_lp_Force_Field>
OPLS_2005

> <r_lp_Energy>
19.704884

> <b_lp_Chiralities_Consistent>
1

> <s_lp_Variant>
CHEMBL3650_lig109-1

> <s_i_glide_gridfile>
glide-grid_3c4f

> <i_i_glide_lignum>
131

> <i_i_glide_rotatable_bonds>
2

> <r_i_docking_score>
-7.5113942276564

> <r_i_glide_ligand_efficiency>
-0.341427010348018

> <r_i_glide_ligand_efficiency_sa>
-0.956691910557506

> <r_i_glide_ligand_efficiency_ln>
-1.83605873400075

> <r_i_glide_gscore>
-7.5113942276564

> <r_i_glide_lipo>
-2.98001151947256

> <r_i_glide_hbond>
-0.392901838118923

> <r_i_glide_metal>
0

> <r_i_glide_rewards>
-2.8954806534066

> <r_i_glide_evdw>
-28.9982414245605

> <r_i_glide_ecoul>
0.440108239650726

> <r_i_glide_erotb>
0.167958556222876

> <r_i_glide_esite>
-0.0270629376007844

> <r_i_glide_emodel>
-35.7263436900227

> <r_i_glide_energy>
-28.5581331849098

> <r_i_glide_einternal>
1.66001868247986

> <i_i_glide_confnum>
1

> <i_i_glide_posenum>
41

> <r_i_glide_eff_state_penalty>
0

> <s_user_duplicate_titles>
CHEMBL3650_lig109

> <s_m_subgroup_title>
dock_pv

> <s_m_subgroupid>
dock_pv

> <b_m_subgroup_collapsed>
1

$$$$
CHEMBL3650_lig873
                    3D
 Schrodinger Suite 2021-1.
 40 43  0  0  1  0            999 V2000
    5.8196    3.5773   18.5444 N   0  0  0  0  0  0
    5.4412    2.2308   18.9479 C   0  0  0  0  0  0
    6.0567    2.0711   20.3180 C   0  0  0  0  0  0
    6.8741    3.2391   20.5151 C   0  0  0  0  0  0
    6.6626    4.0948   19.5030 C   0  0  0  0  0  0
    5.9710    1.1265   21.0904 O   0  0  0  0  0  0
    5.6348    3.9881   17.2054 C   0  0  0  0  0  0
    4.8863    5.1370   16.8806 C   0  0  0  0  0  0
    4.6879    5.4804   15.5426 C   0  0  0  0  0  0
    5.1710    4.6708   14.5207 C   0  0  0  0  0  0
    5.8871    3.5206   14.8355 C   0  0  0  0  0  0
    6.1641    3.2116   16.1664 C   0  0  0  0  0  0
    4.2516    5.8963   17.8322 O   0  0  0  0  0  0
    3.0238    5.3139   18.2530 C   0  0  0  0  0  0
    6.3710    2.4458   13.5802 Cl  0  0  0  0  0  0
    7.8405    3.3219   21.6072 C   0  0  0  0  0  0
    7.6495    2.8384   22.8147 N   0  0  0  0  0  0
    8.8279    3.0444   23.4788 C   0  0  0  0  0  0
    9.7825    3.6554   22.6351 C   0  0  0  0  0  0
    9.1045    3.8411   21.4532 N   0  0  0  0  0  0
    9.1710    2.7371   24.8027 C   0  0  0  0  0  0
   10.4219    3.1370   25.2713 C   0  0  0  0  0  0
   11.3535    3.7272   24.4171 C   0  0  0  0  0  0
   11.0818    3.9370   23.0622 C   0  0  0  0  0  0
    7.1710    5.3378   19.2753 N   0  0  0  0  0  0
    4.3710    2.1258   19.0530 H   0  0  0  0  0  0
    5.7727    1.4429   18.2730 H   0  0  0  0  0  0
    4.0891    6.3370   15.2893 H   0  0  0  0  0  0
    4.9697    4.9277   13.4892 H   0  0  0  0  0  0
    6.7543    2.3365   16.3914 H   0  0  0  0  0  0
    2.4462    5.9370   18.9289 H   0  0  0  0  0  0
    2.3690    5.1370   17.3974 H   0  0  0  0  0  0
    3.2082    4.3766   18.7717 H   0  0  0  0  0  0
    9.4378    4.2155   20.5782 H   0  0  0  0  0  0
    8.4658    2.2408   25.4526 H   0  0  0  0  0  0
   10.6911    2.9496   26.3012 H   0  0  0  0  0  0
   12.3303    3.9832   24.8051 H   0  0  0  0  0  0
   11.8263    4.3545   22.4018 H   0  0  0  0  0  0
    7.7851    5.7834   19.9385 H   0  0  0  0  0  0
    6.9135    5.8500   18.4444 H   0  0  0  0  0  0
  1  2  1  0  0  0
  1  5  1  0  0  0
  1  7  1  0  0  0
  2  3  1  0  0  0
  2 26  1  0  0  0
  2 27  1  0  0  0
  3  4  1  0  0  0
  3  6  2  0  0  0
  4  5  2  0  0  0
  4 16  1  0  0  0
  5 25  1  0  0  0
  7  8  1  0  0  0
  7 12  2  0  0  0
  8  9  2  0  0  0
  8 13  1  0  0  0
  9 10  1  0  0  0
  9 28  1  0  0  0
 10 11  2  0  0  0
 10 29  1  0  0  0
 11 12  1  0  0  0
 11 15  1  0  0  0
 12 30  1  0  0  0
 13 14  1  0  0  0
 14 31  1  0  0  0
 14 32  1  0  0  0
 14 33  1  0  0  0
 16 17  2  0  0  0
 16 20  1  0  0  0
 17 18  1  0  0  0
 18 19  1  0  0  0
 18 21  2  0  0  0
 19 20  1  0  0  0
 19 24  2  0  0  0
 20 34  1  0  0  0
 21 22  1  0  0  0
 21 35  1  0  0  0
 22 23  2  0  0  0
 22 36  1  0  0  0
 23 24  1  0  0  0
 23 37  1  0  0  0
 24 38  1  0  0  0
 25 39  1  0  0  0
 25 40  1  0  0  0
M  END
> <s_m_entry_id>
49537

> <s_m_entry_name>
dock_pv.127

> <s_m_Source_Path>
/home/csk/Desktop/cluster/DUD-E-result/fgfr1

> <s_m_Source_File>
dock_pv.maegz

> <i_m_Source_File_Index>
127

> <chembl_id>
CHEMBL3781099

> <chembl_pref_name>
None

> <i_lp_mmshare_version>
53161

> <i_f3d_flags>
0

> <r_lp_tautomer_probability>
0.999998894702016

> <s_lp_Force_Field>
OPLS_2005

> <r_lp_Energy>
42.431234

> <b_lp_Chiralities_Consistent>
1

> <s_lp_Variant>
CHEMBL3650_lig873-1

> <s_i_glide_gridfile>
glide-grid_3c4f

> <i_i_glide_lignum>
1066

> <i_i_glide_rotatable_bonds>
3

> <r_i_docking_score>
-7.50095692781326

> <r_i_glide_ligand_efficiency>
-0.30003827711253

> <r_i_glide_ligand_efficiency_sa>
-0.877317243478541

> <r_i_glide_ligand_efficiency_ln>
-1.77795157743179

> <r_i_glide_gscore>
-7.50095692781326

> <r_i_glide_lipo>
-2.66542842685258

> <r_i_glide_hbond>
-0.0393646067135572

> <r_i_glide_metal>
0

> <r_i_glide_rewards>
-2.43689347303595

> <r_i_glide_evdw>
-39.4734191894531

> <r_i_glide_ecoul>
-4.59518527984619

> <r_i_glide_erotb>
0.30367833023841

> <r_i_glide_esite>
0

> <r_i_glide_emodel>
-48.8721786907671

> <r_i_glide_energy>
-44.0686044692993

> <r_i_glide_einternal>
12.1126766204834

> <i_i_glide_confnum>
2

> <i_i_glide_posenum>
188

> <r_i_glide_eff_state_penalty>
0

> <s_user_duplicate_titles>
CHEMBL3650_lig873

> <s_m_subgroup_title>
dock_pv

> <s_m_subgroupid>
dock_pv

> <b_m_subgroup_collapsed>
1

$$$$
CHEMBL3650_lig862
                    3D
 Schrodinger Suite 2021-1.
 39 42  0  0  1  0            999 V2000
    6.1232    3.9147   19.5031 N   0  0  0  0  0  0
    5.6944    2.5462   19.7275 C   0  0  0  0  0  0
    6.3712    2.1748   21.0305 C   0  0  0  0  0  0
    7.2636    3.2748   21.3425 C   0  0  0  0  0  0
    7.0461    4.2705   20.4685 C   0  0  0  0  0  0
    6.2561    1.1375   21.6669 O   0  0  0  0  0  0
    8.2311    3.2345   22.4437 C   0  0  0  0  0  0
    8.0273    2.6211   23.5858 N   0  0  0  0  0  0
    9.1672    2.8165   24.3208 C   0  0  0  0  0  0
   10.1061    3.5889   23.6022 C   0  0  0  0  0  0
    9.4696    3.8388   22.4056 N   0  0  0  0  0  0
    9.4722    2.3821   25.6191 C   0  0  0  0  0  0
   10.6911    2.7724   26.1771 C   0  0  0  0  0  0
   11.6126    3.5370   25.4530 C   0  0  0  0  0  0
   11.3517    3.9370   24.1375 C   0  0  0  0  0  0
   12.9376    3.9025   26.0966 C   0  0  0  0  0  0
    5.7750    4.5229   18.2836 C   0  0  0  0  0  0
    4.4321    4.7370   17.9554 C   0  0  0  0  0  0
    4.0775    5.2056   16.6897 C   0  0  0  0  0  0
    5.0621    5.5367   15.7694 C   0  0  0  0  0  0
    6.3965    5.3801   16.1185 C   0  0  0  0  0  0
    6.7599    4.8593   17.3574 C   0  0  0  0  0  0
    2.7764    5.2993   16.3368 F   0  0  0  0  0  0
    7.5710    5.5344   20.4172 N   0  0  0  0  0  0
    5.9879    1.8676   18.9263 H   0  0  0  0  0  0
    4.6190    2.4511   19.8104 H   0  0  0  0  0  0
    9.8100    4.3346   21.5976 H   0  0  0  0  0  0
    8.7702    1.7779   26.1757 H   0  0  0  0  0  0
   10.9311    2.4575   27.1833 H   0  0  0  0  0  0
   12.0862    4.4941   23.5747 H   0  0  0  0  0  0
   13.5235    4.5891   25.4825 H   0  0  0  0  0  0
   12.7692    4.3805   27.0628 H   0  0  0  0  0  0
   13.5329    3.0052   26.2718 H   0  0  0  0  0  0
    3.6527    4.4725   18.6531 H   0  0  0  0  0  0
    4.7951    5.9127   14.7909 H   0  0  0  0  0  0
    7.1710    5.6615   15.4318 H   0  0  0  0  0  0
    7.8056    4.7084   17.5846 H   0  0  0  0  0  0
    8.2019    5.8676   21.1285 H   0  0  0  0  0  0
    7.2865    6.1772   19.6942 H   0  0  0  0  0  0
  1  2  1  0  0  0
  1  5  1  0  0  0
  1 17  1  0  0  0
  2  3  1  0  0  0
  2 25  1  0  0  0
  2 26  1  0  0  0
  3  4  1  0  0  0
  3  6  2  0  0  0
  4  5  2  0  0  0
  4  7  1  0  0  0
  5 24  1  0  0  0
  7  8  2  0  0  0
  7 11  1  0  0  0
  8  9  1  0  0  0
  9 10  1  0  0  0
  9 12  2  0  0  0
 10 11  1  0  0  0
 10 15  2  0  0  0
 11 27  1  0  0  0
 12 13  1  0  0  0
 12 28  1  0  0  0
 13 14  2  0  0  0
 13 29  1  0  0  0
 14 15  1  0  0  0
 14 16  1  0  0  0
 15 30  1  0  0  0
 16 31  1  0  0  0
 16 32  1  0  0  0
 16 33  1  0  0  0
 17 18  1  0  0  0
 17 22  2  0  0  0
 18 19  2  0  0  0
 18 34  1  0  0  0
 19 20  1  0  0  0
 19 23  1  0  0  0
 20 21  2  0  0  0
 20 35  1  0  0  0
 21 22  1  0  0  0
 21 36  1  0  0  0
 22 37  1  0  0  0
 24 38  1  0  0  0
 24 39  1  0  0  0
M  END
> <s_m_entry_id>
49538

> <s_m_entry_name>
dock_pv.128

> <s_m_Source_Path>
/home/csk/Desktop/cluster/DUD-E-result/fgfr1

> <s_m_Source_File>
dock_pv.maegz

> <i_m_Source_File_Index>
128

> <chembl_id>
CHEMBL3779927

> <chembl_pref_name>
None

> <i_lp_mmshare_version>
53161

> <i_f3d_flags>
0

> <r_lp_tautomer_probability>
0.999998894702016

> <s_lp_Force_Field>
OPLS_2005

> <r_lp_Energy>
38.025879

> <b_lp_Chiralities_Consistent>
1

> <s_lp_Variant>
CHEMBL3650_lig862-1

> <s_i_glide_gridfile>
glide-grid_3c4f

> <i_i_glide_lignum>
1055

> <i_i_glide_rotatable_bonds>
2

> <r_i_docking_score>
-7.46996725120442

> <r_i_glide_ligand_efficiency>
-0.311248635466851

> <r_i_glide_ligand_efficiency_sa>
-0.897796420570584

> <r_i_glide_ligand_efficiency_ln>
-1.78790593767489

> <r_i_glide_gscore>
-7.46996725120442

> <r_i_glide_lipo>
-2.32671982340287

> <r_i_glide_hbond>
-0.189135942681206

> <r_i_glide_metal>
0

> <r_i_glide_rewards>
-2.91212265642989

> <r_i_glide_evdw>
-34.4254455566406

> <r_i_glide_ecoul>
-4.53770112991333

> <r_i_glide_erotb>
0.359938618628576

> <r_i_glide_esite>
0

> <r_i_glide_emodel>
-50.7300606780426

> <r_i_glide_energy>
-38.963146686554

> <r_i_glide_einternal>
5.52692747116089

> <i_i_glide_confnum>
3

> <i_i_glide_posenum>
45

> <r_i_glide_eff_state_penalty>
0

> <s_user_duplicate_titles>
CHEMBL3650_lig862

> <s_m_subgroup_title>
dock_pv

> <s_m_subgroupid>
dock_pv

> <b_m_subgroup_collapsed>
1

$$$$
CHEMBL3650_lig126
                    3D
 Schrodinger Suite 2021-1.
 32 34  0  0  1  0            999 V2000
    6.1176    4.1268   18.7826 C   0  0  0  0  0  0
    5.8134    2.7306   19.0913 C   0  0  0  0  0  0
    6.3243    2.2560   20.2714 N   0  0  0  0  0  0
    7.2176    2.9503   21.1233 C   0  0  0  0  0  0
    6.9756    4.8343   19.5543 C   0  0  0  0  0  0
    7.5712    4.2579   20.7727 C   0  0  0  0  0  0
    5.5806    4.6626   17.4941 C   0  0  0  0  0  0
    7.8198    2.3649   22.2530 C   0  0  0  0  0  0
    9.1535    4.3370   22.6010 N   0  0  0  0  0  0
    8.7860    3.0847   22.9470 C   0  0  0  0  0  0
    5.1710    2.0359   18.3127 O   0  0  0  0  0  0
    8.5187    4.9151   21.5470 C   0  0  0  0  0  0
    4.2647    5.1370   17.3449 C   0  0  0  0  0  0
    6.3604    4.5386   16.3375 C   0  0  0  0  0  0
    6.1007    0.8429   20.5781 C   0  0  0  0  0  0
    9.4155    2.5154   24.0438 N   0  0  0  0  0  0
    3.1579    5.1370   18.6530 Cl  0  0  0  0  0  0
    7.9710    3.9370   16.4643 Cl  0  0  0  0  0  0
    4.5341    5.3291   14.9568 C   0  0  0  0  0  0
    5.8240    4.8430   15.0825 C   0  0  0  0  0  0
    3.7588    5.4870   16.0918 C   0  0  0  0  0  0
    7.2298    5.8435   19.2620 H   0  0  0  0  0  0
    7.5850    1.3632   22.5774 H   0  0  0  0  0  0
    8.7710    5.9370   21.3329 H   0  0  0  0  0  0
    5.5710    0.3179   19.7973 H   0  0  0  0  0  0
    7.0548    0.3370   20.6530 H   0  0  0  0  0  0
    5.5710    0.7370   21.5170 H   0  0  0  0  0  0
    9.1710    1.5690   24.3100 H   0  0  0  0  0  0
   10.1276    3.0402   24.5276 H   0  0  0  0  0  0
    4.1347    5.5571   13.9779 H   0  0  0  0  0  0
    6.3710    4.6913   14.1715 H   0  0  0  0  0  0
    2.7339    5.8091   15.9802 H   0  0  0  0  0  0
  1  2  1  0  0  0
  1  5  2  0  0  0
  1  7  1  0  0  0
  2  3  1  0  0  0
  2 11  2  0  0  0
  3 15  1  0  0  0
  3  4  1  0  0  0
  4  6  1  0  0  0
  4  8  2  0  0  0
  5  6  1  0  0  0
  5 22  1  0  0  0
  6 12  2  0  0  0
  7 13  1  0  0  0
  7 14  2  0  0  0
  8 10  1  0  0  0
  8 23  1  0  0  0
  9 12  1  0  0  0
  9 10  2  0  0  0
 10 16  1  0  0  0
 12 24  1  0  0  0
 13 17  1  0  0  0
 13 21  2  0  0  0
 14 18  1  0  0  0
 14 20  1  0  0  0
 15 25  1  0  0  0
 15 26  1  0  0  0
 15 27  1  0  0  0
 16 28  1  0  0  0
 16 29  1  0  0  0
 19 20  2  0  0  0
 19 21  1  0  0  0
 19 30  1  0  0  0
 20 31  1  0  0  0
 21 32  1  0  0  0
M  END
> <s_m_entry_id>
49539

> <s_m_entry_name>
dock_pv.129

> <s_m_Source_Path>
/home/csk/Desktop/cluster/DUD-E-result/fgfr1

> <s_m_Source_File>
dock_pv.maegz

> <i_m_Source_File_Index>
129

> <chembl_id>
CHEMBL108004

> <chembl_pref_name>
None

> <i_lp_mmshare_version>
53161

> <i_f3d_flags>
0

> <r_lp_tautomer_probability>
1

> <s_lp_Force_Field>
OPLS_2005

> <r_lp_Energy>
29.402925

> <b_lp_Chiralities_Consistent>
1

> <s_lp_Variant>
CHEMBL3650_lig126-1

> <s_i_glide_gridfile>
glide-grid_3c4f

> <i_i_glide_lignum>
148

> <i_i_glide_rotatable_bonds>
1

> <r_i_docking_score>
-7.46326629267003

> <r_i_glide_ligand_efficiency>
-0.355393632984287

> <r_i_glide_ligand_efficiency_sa>
-0.980504085177213

> <r_i_glide_ligand_efficiency_ln>
-1.84527750991312

> <r_i_glide_gscore>
-7.46326629267003

> <r_i_glide_lipo>
-3.19092045192643

> <r_i_glide_hbond>
-0.32

> <r_i_glide_metal>
0

> <r_i_glide_rewards>
-2.41618290118524

> <r_i_glide_evdw>
-27.2105979919434

> <r_i_glide_ecoul>
-2.36712241172791

> <r_i_glide_erotb>
0.18211841373516

> <r_i_glide_esite>
-0.00268309193715917

> <r_i_glide_emodel>
-32.3512753419142

> <r_i_glide_energy>
-29.5777204036713

> <r_i_glide_einternal>
0.0836332067847252

> <i_i_glide_confnum>
2

> <i_i_glide_posenum>
61

> <r_i_glide_eff_state_penalty>
0

> <s_user_duplicate_titles>
CHEMBL3650_lig126,174682

> <s_m_subgroup_title>
dock_pv

> <s_m_subgroupid>
dock_pv

> <b_m_subgroup_collapsed>
1

$$$$
CHEMBL3650_lig783
                    3D
 Schrodinger Suite 2021-1.
 35 38  0  0  1  0            999 V2000
    7.8628    2.7376   22.4392 N   0  0  0  0  0  0
    8.7936    3.7164   22.1249 C   0  0  0  0  0  0
    8.6303    4.4212   21.0530 N   0  0  0  0  0  0
    6.7396    2.3728   21.7525 C   0  0  0  0  0  0
    6.6576    3.1364   20.5225 C   0  0  0  0  0  0
    7.5710    4.1384   20.2298 C   0  0  0  0  0  0
    7.2650    4.7370   19.0834 N   0  0  0  0  0  0
    6.1911    4.1207   18.6289 C   0  0  0  0  0  0
    5.7792    3.1165   19.4734 N   0  0  0  0  0  0
    5.9710    1.5370   22.1970 O   0  0  0  0  0  0
    9.8745    3.9370   22.9173 N   0  0  0  0  0  0
    5.4407    4.5137   17.4448 C   0  0  0  0  0  0
    4.4197    5.4432   17.4537 C   0  0  0  0  0  0
    3.8531    5.5370   16.2149 N   0  0  0  0  0  0
    5.5098    4.0297   16.0829 C   0  0  0  0  0  0
    4.4867    4.7027   15.3414 C   0  0  0  0  0  0
    4.2263    4.4576   13.9943 C   0  0  0  0  0  0
    4.9694    3.4536   13.3894 C   0  0  0  0  0  0
    5.9441    2.7547   14.0865 C   0  0  0  0  0  0
    6.2768    3.0710   15.4078 C   0  0  0  0  0  0
   10.1261    3.4805   24.1651 C   0  0  0  0  0  0
   11.4406    3.9370   24.7897 C   0  0  0  0  0  0
    9.3872    2.7407   24.8167 O   0  0  0  0  0  0
    4.9756    2.5145   19.3597 H   0  0  0  0  0  0
    8.0118    2.2295   23.3010 H   0  0  0  0  0  0
   10.5570    4.5696   22.5340 H   0  0  0  0  0  0
    4.0069    6.0325   18.2530 H   0  0  0  0  0  0
    3.0718    6.1426   16.0113 H   0  0  0  0  0  0
    3.4613    4.9933   13.4530 H   0  0  0  0  0  0
    4.7710    3.1985   12.3585 H   0  0  0  0  0  0
    6.4011    1.9370   13.5696 H   0  0  0  0  0  0
    7.0376    2.5175   15.9357 H   0  0  0  0  0  0
   11.2720    4.7987   25.4350 H   0  0  0  0  0  0
   12.1781    4.2084   24.0334 H   0  0  0  0  0  0
   11.8651    3.1394   25.4008 H   0  0  0  0  0  0
  1  4  1  0  0  0
  1 25  1  0  0  0
  1  2  1  0  0  0
  2 11  1  0  0  0
  2  3  2  0  0  0
  3  6  1  0  0  0
  4  5  1  0  0  0
  4 10  2  0  0  0
  5  9  1  0  0  0
  5  6  2  0  0  0
  6  7  1  0  0  0
  7  8  2  0  0  0
  8 12  1  0  0  0
  8  9  1  0  0  0
  9 24  1  0  0  0
 11 21  1  0  0  0
 11 26  1  0  0  0
 12 13  2  0  0  0
 12 15  1  0  0  0
 13 14  1  0  0  0
 13 27  1  0  0  0
 14 16  1  0  0  0
 14 28  1  0  0  0
 15 16  2  0  0  0
 15 20  1  0  0  0
 16 17  1  0  0  0
 17 18  2  0  0  0
 17 29  1  0  0  0
 18 19  1  0  0  0
 18 30  1  0  0  0
 19 20  2  0  0  0
 19 31  1  0  0  0
 20 32  1  0  0  0
 21 22  1  0  0  0
 21 23  2  0  0  0
 22 33  1  0  0  0
 22 34  1  0  0  0
 22 35  1  0  0  0
M  END
> <s_m_entry_id>
49540

> <s_m_entry_name>
dock_pv.130

> <s_m_Source_Path>
/home/csk/Desktop/cluster/DUD-E-result/fgfr1

> <s_m_Source_File>
dock_pv.maegz

> <i_m_Source_File_Index>
130

> <chembl_id>
CHEMBL3401369

> <chembl_pref_name>
None

> <i_lp_mmshare_version>
53161

> <i_f3d_flags>
0

> <r_lp_tautomer_probability>
0.319684419490823

> <s_lp_Force_Field>
OPLS_2005

> <r_lp_Energy>
25.094929

> <b_lp_Chiralities_Consistent>
1

> <s_lp_Variant>
CHEMBL3650_lig783-2

> <s_i_glide_gridfile>
glide-grid_3c4f

> <i_i_glide_lignum>
955

> <i_i_glide_rotatable_bonds>
3

> <r_i_docking_score>
-7.4617070196915

> <r_i_glide_ligand_efficiency>
-0.324422044334413

> <r_i_glide_ligand_efficiency_sa>
-0.922613138454295

> <r_i_glide_ligand_efficiency_ln>
-1.80430841637993

> <r_i_glide_gscore>
-7.4617070196915

> <r_i_glide_lipo>
-1.75157044625486

> <r_i_glide_hbond>
-0.31372335859871

> <r_i_glide_metal>
0

> <r_i_glide_rewards>
-3.30440356363624

> <r_i_glide_evdw>
-46.766658782959

> <r_i_glide_ecoul>
-0.953008830547333

> <r_i_glide_erotb>
0.389274612528366

> <r_i_glide_esite>
0

> <r_i_glide_emodel>
-63.3473972291074

> <r_i_glide_energy>
-47.7196676135063

> <r_i_glide_einternal>
5.32318210601807

> <i_i_glide_confnum>
4

> <i_i_glide_posenum>
245

> <r_i_glide_eff_state_penalty>
0

> <s_user_duplicate_titles>
CHEMBL3650_lig783,CHEMBL3650_lig783

> <s_m_subgroup_title>
dock_pv

> <s_m_subgroupid>
dock_pv

> <b_m_subgroup_collapsed>
1

$$$$
CHEMBL3650_lig2950
                    3D
 Schrodinger Suite 2021-1.
 30 32  0  0  1  0            999 V2000
    5.1710    1.8198   18.6521 O   0  0  0  0  0  0
    5.9713    0.7050   20.4537 O   0  0  0  0  0  0
    6.7052    4.1108   19.5128 N   0  0  0  0  0  0
    7.5723    4.9387   20.1267 N   0  0  0  0  0  0
   10.3538    3.9371   24.0530 N   0  0  0  0  0  0
    6.5262    2.9107   20.1931 C   0  0  0  0  0  0
    7.2905    3.0202   21.3819 C   0  0  0  0  0  0
    7.9989    4.2281   21.2149 C   0  0  0  0  0  0
    6.1147    4.5431   18.2920 C   0  0  0  0  0  0
    5.8005    1.8106   19.6903 C   0  0  0  0  0  0
    7.5209    2.2093   22.5075 C   0  0  0  0  0  0
    9.0272    4.5418   22.1052 C   0  0  0  0  0  0
    9.2966    3.6923   23.1814 C   0  0  0  0  0  0
    8.5177    2.5704   23.4024 C   0  0  0  0  0  0
    6.8942    4.7390   17.1466 C   0  0  0  0  0  0
    4.7302    4.7370   18.2197 C   0  0  0  0  0  0
    6.2792    5.1452   15.9600 C   0  0  0  0  0  0
    4.1328    5.1601   17.0392 C   0  0  0  0  0  0
    4.9095    5.3611   15.9094 C   0  0  0  0  0  0
    5.3583    0.0391   20.1093 H   0  0  0  0  0  0
   10.5733    3.2302   24.7398 H   0  0  0  0  0  0
   11.0744    4.5786   23.7586 H   0  0  0  0  0  0
    6.9809    1.2890   22.6602 H   0  0  0  0  0  0
    9.5883    5.4289   21.9320 H   0  0  0  0  0  0
    8.7167    1.9385   24.2544 H   0  0  0  0  0  0
    7.9654    4.5802   17.1670 H   0  0  0  0  0  0
    4.0884    4.5524   19.0584 H   0  0  0  0  0  0
    6.8336    5.3071   15.0548 H   0  0  0  0  0  0
    3.0638    5.3065   16.9941 H   0  0  0  0  0  0
    4.4511    5.6769   14.9826 H   0  0  0  0  0  0
  1 10  2  0  0  0
  2 10  1  0  0  0
  2 20  1  0  0  0
  3  4  1  0  0  0
  3  6  1  0  0  0
  3  9  1  0  0  0
  4  8  2  0  0  0
  5 13  1  0  0  0
  5 21  1  0  0  0
  5 22  1  0  0  0
  6  7  2  0  0  0
  6 10  1  0  0  0
  7  8  1  0  0  0
  7 11  1  0  0  0
  8 12  1  0  0  0
  9 15  2  0  0  0
  9 16  1  0  0  0
 11 14  2  0  0  0
 11 23  1  0  0  0
 12 13  2  0  0  0
 12 24  1  0  0  0
 13 14  1  0  0  0
 14 25  1  0  0  0
 15 17  1  0  0  0
 15 26  1  0  0  0
 16 18  2  0  0  0
 16 27  1  0  0  0
 17 19  2  0  0  0
 17 28  1  0  0  0
 18 19  1  0  0  0
 18 29  1  0  0  0
 19 30  1  0  0  0
M  END
> <s_m_entry_id>
49541

> <s_m_entry_name>
dock_pv.131

> <s_m_Source_Path>
/home/csk/Desktop/cluster/DUD-E-result/fgfr1

> <s_m_Source_File>
dock_pv.maegz

> <i_m_Source_File_Index>
131

> <chembl_id>
CHEMBL1974574

> <chembl_pref_name>
None

> <i_lp_mmshare_version>
53161

> <i_f3d_flags>
0

> <r_lp_tautomer_probability>
1

> <s_lp_Force_Field>
OPLS_2005

> <r_lp_Energy>
36.187162

> <b_lp_Chiralities_Consistent>
1

> <s_lp_Variant>
CHEMBL3650_lig2950-1

> <s_i_glide_gridfile>
glide-grid_3c4f

> <i_i_glide_lignum>
3733

> <i_i_glide_rotatable_bonds>
3

> <r_i_docking_score>
-7.46141906781552

> <r_i_glide_ligand_efficiency>
-0.392706266727133

> <r_i_glide_ligand_efficiency_sa>
-1.04789804856963

> <r_i_glide_ligand_efficiency_ln>
-1.8916299902787

> <r_i_glide_gscore>
-7.46141906781552

> <r_i_glide_lipo>
-2.9421243635372

> <r_i_glide_hbond>
0

> <r_i_glide_metal>
0

> <r_i_glide_rewards>
-2.86268128156073

> <r_i_glide_evdw>
-27.0614986419678

> <r_i_glide_ecoul>
-5.67495632171631

> <r_i_glide_erotb>
0.547704957638241

> <r_i_glide_esite>
0

> <r_i_glide_emodel>
-38.6858468177005

> <r_i_glide_energy>
-32.7364549636841

> <r_i_glide_einternal>
4.16286182403564

> <i_i_glide_confnum>
2

> <i_i_glide_posenum>
172

> <r_i_glide_eff_state_penalty>
0

> <s_user_duplicate_titles>
CHEMBL3650_lig2950

> <s_m_subgroup_title>
dock_pv

> <s_m_subgroupid>
dock_pv

> <b_m_subgroup_collapsed>
1

$$$$
CHEMBL3650_lig3358
                    3D
 Schrodinger Suite 2021-1.
 28 29  0  0  1  0            999 V2000
    6.3710    2.7259   14.2062 S   0  0  0  0  0  0
    3.4813    5.5370   15.1172 O   0  0  0  0  0  0
    6.0665    3.5571   17.8838 N   0  0  0  0  0  0
    6.6900    2.9412   16.8684 N   0  0  0  0  0  0
    4.2808    5.1371   18.2530 N   0  0  0  0  0  0
    5.7969    1.9435   19.5506 N   0  0  0  0  0  0
    5.5490    5.9171   14.2530 N   0  0  0  0  0  0
    5.3445    4.5493   16.0781 C   0  0  0  0  0  0
    5.1709    4.5018   17.4414 C   0  0  0  0  0  0
    6.1360    3.4385   15.7859 C   0  0  0  0  0  0
    6.3041    3.1529   19.2031 C   0  0  0  0  0  0
    4.7010    5.3955   15.1389 C   0  0  0  0  0  0
    6.9867    3.9853   20.0962 C   0  0  0  0  0  0
    5.9710    1.5366   20.8298 C   0  0  0  0  0  0
    7.1666    3.5371   21.4072 C   0  0  0  0  0  0
    6.6543    2.2934   21.7865 C   0  0  0  0  0  0
    4.6405    2.3769   13.7729 C   0  0  0  0  0  0
    4.2221    4.9406   19.2406 H   0  0  0  0  0  0
    3.5645    5.7309   17.8581 H   0  0  0  0  0  0
    6.5368    5.6757   14.2683 H   0  0  0  0  0  0
    5.1707    6.3370   13.3966 H   0  0  0  0  0  0
    7.3719    4.9449   19.7812 H   0  0  0  0  0  0
    5.5714    0.5598   21.0529 H   0  0  0  0  0  0
    7.7014    4.1463   22.1206 H   0  0  0  0  0  0
    6.7917    1.9276   22.7937 H   0  0  0  0  0  0
    4.5706    1.4216   13.2528 H   0  0  0  0  0  0
    3.9972    2.3371   14.6517 H   0  0  0  0  0  0
    4.2612    3.1533   13.1083 H   0  0  0  0  0  0
  1 10  1  0  0  0
  1 17  1  0  0  0
  2 12  2  0  0  0
  3  4  1  0  0  0
  3  9  1  0  0  0
  3 11  1  0  0  0
  4 10  2  0  0  0
  5  9  1  0  0  0
  5 18  1  0  0  0
  5 19  1  0  0  0
  6 11  1  0  0  0
  6 14  2  0  0  0
  7 12  1  0  0  0
  7 20  1  0  0  0
  7 21  1  0  0  0
  8  9  2  0  0  0
  8 10  1  0  0  0
  8 12  1  0  0  0
 11 13  2  0  0  0
 13 15  1  0  0  0
 13 22  1  0  0  0
 14 16  1  0  0  0
 14 23  1  0  0  0
 15 16  2  0  0  0
 15 24  1  0  0  0
 16 25  1  0  0  0
 17 26  1  0  0  0
 17 27  1  0  0  0
 17 28  1  0  0  0
M  END
> <s_m_entry_id>
49542

> <s_m_entry_name>
dock_pv.132

> <s_m_Source_Path>
/home/csk/Desktop/cluster/DUD-E-result/fgfr1

> <s_m_Source_File>
dock_pv.maegz

> <i_m_Source_File_Index>
132

> <chembl_id>
CHEMBL2004615

> <chembl_pref_name>
None

> <i_lp_mmshare_version>
53161

> <i_f3d_flags>
0

> <r_lp_tautomer_probability>
1

> <s_lp_Force_Field>
OPLS_2005

> <r_lp_Energy>
17.811927

> <b_lp_Chiralities_Consistent>
1

> <s_lp_Variant>
CHEMBL3650_lig3358-1

> <s_i_glide_gridfile>
glide-grid_3c4f

> <i_i_glide_lignum>
4363

> <i_i_glide_rotatable_bonds>
3

> <r_i_docking_score>
-7.4533829971589

> <r_i_glide_ligand_efficiency>
-0.438434293950524

> <r_i_glide_ligand_efficiency_sa>
-1.12733802768356

> <r_i_glide_ligand_efficiency_ln>
-1.94442164527996

> <r_i_glide_gscore>
-7.4533829971589

> <r_i_glide_lipo>
-1.94684827058341

> <r_i_glide_hbond>
-0.304

> <r_i_glide_metal>
0

> <r_i_glide_rewards>
-2.87062039754291

> <r_i_glide_evdw>
-32.1037979125977

> <r_i_glide_ecoul>
-5.77318859100342

> <r_i_glide_erotb>
0.281361973600489

> <r_i_glide_esite>
-0.142108118352675

> <r_i_glide_emodel>
-47.5165262722038

> <r_i_glide_energy>
-37.8769865036011

> <r_i_glide_einternal>
8.91400241851807

> <i_i_glide_confnum>
3

> <i_i_glide_posenum>
150

> <r_i_glide_eff_state_penalty>
0

> <s_user_duplicate_titles>
CHEMBL3650_lig3358

> <s_m_subgroup_title>
dock_pv

> <s_m_subgroupid>
dock_pv

> <b_m_subgroup_collapsed>
1

$$$$
CHEMBL3650_lig119
                    3D
 Schrodinger Suite 2021-1.
 37 39  0  0  1  0            999 V2000
    4.4489    4.9910   16.4555 N   0  0  0  0  0  0
    6.0113    4.0851   18.0808 C   0  0  0  0  0  0
    5.1680    4.4040   15.3872 C   0  0  0  0  0  0
    4.7521    4.7994   17.7879 C   0  0  0  0  0  0
    4.7114    4.5420   14.1111 N   0  0  0  0  0  0
    6.2083    3.5371   15.7035 C   0  0  0  0  0  0
    6.6873    3.4811   17.0786 C   0  0  0  0  0  0
    6.4647    3.7816   19.4815 C   0  0  0  0  0  0
    5.2099    3.6794   13.1979 C   0  0  0  0  0  0
    6.0327    2.6372   13.4786 N   0  0  0  0  0  0
    6.5340    2.6050   14.7364 C   0  0  0  0  0  0
    3.9476    5.1222   18.6530 O   0  0  0  0  0  0
    6.2821    2.4885   20.0054 C   0  0  0  0  0  0
    7.1606    4.6970   20.2909 C   0  0  0  0  0  0
    4.8606    3.9370   11.8764 N   0  0  0  0  0  0
    3.0792    5.4343   16.1093 C   0  0  0  0  0  0
    5.5710    1.2484   19.0530 Cl  0  0  0  0  0  0
    7.3242    6.3370   19.8530 Cl  0  0  0  0  0  0
    7.4769    3.0488   22.0262 C   0  0  0  0  0  0
    7.6910    4.3251   21.5232 C   0  0  0  0  0  0
    6.7480    2.1384   21.2742 C   0  0  0  0  0  0
    5.2143    3.0205   10.8056 C   0  0  0  0  0  0
    4.7557    3.5370    9.4530 C   0  0  0  0  0  0
    7.5710    2.9025   17.2995 H   0  0  0  0  0  0
    7.1710    1.7841   15.0170 H   0  0  0  0  0  0
    4.3710    4.8040   11.6824 H   0  0  0  0  0  0
    2.4037    5.5370   16.9587 H   0  0  0  0  0  0
    3.1103    6.3370   15.5145 H   0  0  0  0  0  0
    2.5984    4.6944   15.4713 H   0  0  0  0  0  0
    7.8724    2.7672   22.9914 H   0  0  0  0  0  0
    8.2452    5.0436   22.1095 H   0  0  0  0  0  0
    6.5980    1.1366   21.6449 H   0  0  0  0  0  0
    4.7710    2.0455   11.0136 H   0  0  0  0  0  0
    6.2922    2.8539   10.7986 H   0  0  0  0  0  0
    4.7710    2.7279    8.7232 H   0  0  0  0  0  0
    5.4053    4.3370    9.1004 H   0  0  0  0  0  0
    3.7417    3.9370    9.4908 H   0  0  0  0  0  0
  1  3  1  0  0  0
  1  4  1  0  0  0
  1 16  1  0  0  0
  2  4  1  0  0  0
  2  7  2  0  0  0
  2  8  1  0  0  0
  3  5  1  0  0  0
  3  6  2  0  0  0
  4 12  2  0  0  0
  5  9  2  0  0  0
  6 11  1  0  0  0
  6  7  1  0  0  0
  7 24  1  0  0  0
  8 13  1  0  0  0
  8 14  2  0  0  0
  9 15  1  0  0  0
  9 10  1  0  0  0
 10 11  2  0  0  0
 11 25  1  0  0  0
 13 17  1  0  0  0
 13 21  2  0  0  0
 14 18  1  0  0  0
 14 20  1  0  0  0
 15 22  1  0  0  0
 15 26  1  0  0  0
 16 27  1  0  0  0
 16 28  1  0  0  0
 16 29  1  0  0  0
 19 20  2  0  0  0
 19 21  1  0  0  0
 19 30  1  0  0  0
 20 31  1  0  0  0
 21 32  1  0  0  0
 22 23  1  0  0  0
 22 33  1  0  0  0
 22 34  1  0  0  0
 23 35  1  0  0  0
 23 36  1  0  0  0
 23 37  1  0  0  0
M  END
> <s_m_entry_id>
49543

> <s_m_entry_name>
dock_pv.133

> <s_m_Source_Path>
/home/csk/Desktop/cluster/DUD-E-result/fgfr1

> <s_m_Source_File>
dock_pv.maegz

> <i_m_Source_File_Index>
133

> <chembl_id>
CHEMBL109296

> <chembl_pref_name>
None

> <i_lp_mmshare_version>
53161

> <i_f3d_flags>
0

> <r_lp_tautomer_probability>
1

> <s_lp_Force_Field>
OPLS_2005

> <r_lp_Energy>
20.227501

> <b_lp_Chiralities_Consistent>
1

> <s_lp_Variant>
CHEMBL3650_lig119-1

> <s_i_glide_gridfile>
glide-grid_3c4f

> <i_i_glide_lignum>
141

> <i_i_glide_rotatable_bonds>
3

> <r_i_docking_score>
-7.45297886198276

> <r_i_glide_ligand_efficiency>
-0.324042559216642

> <r_i_glide_ligand_efficiency_sa>
-0.921533933259648

> <r_i_glide_ligand_efficiency_ln>
-1.8021978687034

> <r_i_glide_gscore>
-7.45297886198276

> <r_i_glide_lipo>
-3.05600593091734

> <r_i_glide_hbond>
-0.392485463694712

> <r_i_glide_metal>
0

> <r_i_glide_rewards>
-2.7100987259249

> <r_i_glide_evdw>
-32.0268592834473

> <r_i_glide_ecoul>
0.165204986929893

> <r_i_glide_erotb>
0.312356997351195

> <r_i_glide_esite>
-0.0301835226641162

> <r_i_glide_emodel>
-36.648792970475

> <r_i_glide_energy>
-31.8616542965174

> <r_i_glide_einternal>
5.67015647888184

> <i_i_glide_confnum>
4

> <i_i_glide_posenum>
221

> <r_i_glide_eff_state_penalty>
0

> <s_user_duplicate_titles>
CHEMBL3650_lig119,184124

> <s_m_subgroup_title>
dock_pv

> <s_m_subgroupid>
dock_pv

> <b_m_subgroup_collapsed>
1

$$$$
CHEMBL3650_lig2808
                    3D
 Schrodinger Suite 2021-1.
 25 27  0  0  1  0            999 V2000
    1.7920    5.5370   15.5239 I   0  0  0  0  0  0
    6.3710    1.5370   21.9408 Cl  0  0  0  0  0  0
    6.3710    2.2512   13.4993 O   0  0  0  0  0  0
    5.6719    3.6301   15.2371 N   0  0  0  0  0  0
    4.9832    4.7882   17.0500 N   0  0  0  0  0  0
    4.8896    3.9370   13.0597 N   0  0  0  0  0  0
    4.7710    4.5282   15.7831 C   0  0  0  0  0  0
    5.9964    4.0087   17.3949 C   0  0  0  0  0  0
    6.4495    3.2643   16.3096 C   0  0  0  0  0  0
    5.6969    3.2014   13.8589 C   0  0  0  0  0  0
    3.7059    4.9660   14.8800 C   0  0  0  0  0  0
    6.4866    3.9857   18.7918 C   0  0  0  0  0  0
    3.8930    4.7053   13.5733 C   0  0  0  0  0  0
    6.2397    2.8784   19.6043 C   0  0  0  0  0  0
    7.1710    5.0849   19.3166 C   0  0  0  0  0  0
    6.6707    2.8851   20.9303 C   0  0  0  0  0  0
    7.5746    5.0978   20.6516 C   0  0  0  0  0  0
    7.3428    3.9843   21.4530 C   0  0  0  0  0  0
    4.8757    3.6629   12.0893 H   0  0  0  0  0  0
    7.2358    2.5330   16.2068 H   0  0  0  0  0  0
    3.1710    4.9119   12.8041 H   0  0  0  0  0  0
    5.7078    2.0227   19.2123 H   0  0  0  0  0  0
    7.3577    5.9370   18.6857 H   0  0  0  0  0  0
    8.0846    5.9597   21.0558 H   0  0  0  0  0  0
    7.6797    3.9620   22.4785 H   0  0  0  0  0  0
  1 11  1  0  0  0
  2 16  1  0  0  0
  3 10  2  0  0  0
  4  7  1  0  0  0
  4  9  1  0  0  0
  4 10  1  0  0  0
  5  7  2  0  0  0
  5  8  1  0  0  0
  6 10  1  0  0  0
  6 13  1  0  0  0
  6 19  1  0  0  0
  7 11  1  0  0  0
  8  9  2  0  0  0
  8 12  1  0  0  0
  9 20  1  0  0  0
 11 13  2  0  0  0
 12 14  2  0  0  0
 12 15  1  0  0  0
 13 21  1  0  0  0
 14 16  1  0  0  0
 14 22  1  0  0  0
 15 17  2  0  0  0
 15 23  1  0  0  0
 16 18  2  0  0  0
 17 18  1  0  0  0
 17 24  1  0  0  0
 18 25  1  0  0  0
M  END
> <s_m_entry_id>
49544

> <s_m_entry_name>
dock_pv.134

> <s_m_Source_Path>
/home/csk/Desktop/cluster/DUD-E-result/fgfr1

> <s_m_Source_File>
dock_pv.maegz

> <i_m_Source_File_Index>
134

> <chembl_id>
CHEMBL1982610

> <chembl_pref_name>
None

> <i_lp_mmshare_version>
53161

> <i_f3d_flags>
0

> <r_lp_tautomer_probability>
1

> <s_lp_Force_Field>
OPLS_2005

> <r_lp_Energy>
16.927222

> <b_lp_Chiralities_Consistent>
1

> <s_lp_Variant>
CHEMBL3650_lig2808-1

> <s_i_glide_gridfile>
glide-grid_3c4f

> <i_i_glide_lignum>
3509

> <i_i_glide_rotatable_bonds>
1

> <r_i_docking_score>
-7.44666429489508

> <r_i_glide_ligand_efficiency>
-0.413703571938616

> <r_i_glide_ligand_efficiency_sa>
-1.08421007486702

> <r_i_glide_ligand_efficiency_ln>
-1.91412665891912

> <r_i_glide_gscore>
-7.44666429489508

> <r_i_glide_lipo>
-2.68804910447706

> <r_i_glide_hbond>
-0.32

> <r_i_glide_metal>
0

> <r_i_glide_rewards>
-2.21927722747594

> <r_i_glide_evdw>
-33.139591217041

> <r_i_glide_ecoul>
-4.57339096069336

> <r_i_glide_erotb>
0.139829502588778

> <r_i_glide_esite>
-0.0161792605747989

> <r_i_glide_emodel>
-46.3937548189281

> <r_i_glide_energy>
-37.7129821777344

> <r_i_glide_einternal>
5.52288436889648

> <i_i_glide_confnum>
2

> <i_i_glide_posenum>
268

> <r_i_glide_eff_state_penalty>
0

> <s_user_duplicate_titles>
CHEMBL3650_lig2808

> <s_m_subgroup_title>
dock_pv

> <s_m_subgroupid>
dock_pv

> <b_m_subgroup_collapsed>
1

$$$$
CHEMBL3650_lig784
                    3D
 Schrodinger Suite 2021-1.
 37 39  0  0  1  0            999 V2000
    4.1350    4.8807   14.2530 N   0  0  0  0  0  0
    5.1710    4.0803   13.8027 C   0  0  0  0  0  0
    6.0210    3.5370   14.6263 N   0  0  0  0  0  0
    3.7875    5.1370   15.5509 C   0  0  0  0  0  0
    4.8731    4.7370   16.4274 C   0  0  0  0  0  0
    5.8494    3.9319   15.9195 C   0  0  0  0  0  0
    6.6122    3.5817   16.9852 N   0  0  0  0  0  0
    6.0676    4.1498   18.0818 C   0  0  0  0  0  0
    5.0141    4.8779   17.7606 N   0  0  0  0  0  0
    2.6646    5.5370   15.8353 O   0  0  0  0  0  0
    6.5864    3.9397   19.4267 C   0  0  0  0  0  0
    7.3759    4.9351   20.0068 C   0  0  0  0  0  0
    7.9710    4.7370   21.2525 C   0  0  0  0  0  0
    7.7804    3.5370   21.9386 C   0  0  0  0  0  0
    6.9565    2.5575   21.3896 C   0  0  0  0  0  0
    6.3710    2.7421   20.1322 C   0  0  0  0  0  0
    5.1855    3.9370   12.4542 N   0  0  0  0  0  0
    5.5432    1.6169   19.5492 C   0  0  0  0  0  0
    8.4594    3.2842   23.2716 C   0  0  0  0  0  0
    5.5710    2.8483   11.7635 C   0  0  0  0  0  0
    5.4641    2.9510   10.2483 C   0  0  0  0  0  0
    5.9710    1.8029   12.2724 O   0  0  0  0  0  0
    7.4312    2.9934   16.9668 H   0  0  0  0  0  0
    3.4955    5.2546   13.5683 H   0  0  0  0  0  0
    7.5523    5.8597   19.4759 H   0  0  0  0  0  0
    8.5945    5.5130   21.6715 H   0  0  0  0  0  0
    6.8075    1.6311   21.9248 H   0  0  0  0  0  0
    4.7942    4.6986   11.9165 H   0  0  0  0  0  0
    5.5710    0.7336   20.1832 H   0  0  0  0  0  0
    4.5078    1.9370   19.4530 H   0  0  0  0  0  0
    5.9024    1.3357   18.5600 H   0  0  0  0  0  0
    7.7346    2.9103   23.9949 H   0  0  0  0  0  0
    9.2319    2.5221   23.1625 H   0  0  0  0  0  0
    8.9084    4.1880   23.6845 H   0  0  0  0  0  0
    5.9710    3.8441    9.8825 H   0  0  0  0  0  0
    4.4175    2.9996    9.9470 H   0  0  0  0  0  0
    5.9094    2.0714    9.7827 H   0  0  0  0  0  0
  1  4  1  0  0  0
  1 24  1  0  0  0
  1  2  1  0  0  0
  2 17  1  0  0  0
  2  3  2  0  0  0
  3  6  1  0  0  0
  4  5  1  0  0  0
  4 10  2  0  0  0
  5  9  1  0  0  0
  5  6  2  0  0  0
  6  7  1  0  0  0
  7 23  1  0  0  0
  7  8  1  0  0  0
  8 11  1  0  0  0
  8  9  2  0  0  0
 11 12  2  0  0  0
 11 16  1  0  0  0
 12 13  1  0  0  0
 12 25  1  0  0  0
 13 14  2  0  0  0
 13 26  1  0  0  0
 14 15  1  0  0  0
 14 19  1  0  0  0
 15 16  2  0  0  0
 15 27  1  0  0  0
 16 18  1  0  0  0
 17 20  1  0  0  0
 17 28  1  0  0  0
 18 29  1  0  0  0
 18 30  1  0  0  0
 18 31  1  0  0  0
 19 32  1  0  0  0
 19 33  1  0  0  0
 19 34  1  0  0  0
 20 21  1  0  0  0
 20 22  2  0  0  0
 21 35  1  0  0  0
 21 36  1  0  0  0
 21 37  1  0  0  0
M  END
> <s_m_entry_id>
49545

> <s_m_entry_name>
dock_pv.135

> <s_m_Source_Path>
/home/csk/Desktop/cluster/DUD-E-result/fgfr1

> <s_m_Source_File>
dock_pv.maegz

> <i_m_Source_File_Index>
135

> <chembl_id>
CHEMBL3401368

> <chembl_pref_name>
None

> <i_lp_mmshare_version>
53161

> <i_f3d_flags>
0

> <r_lp_tautomer_probability>
0.571172162693644

> <s_lp_Force_Field>
OPLS_2005

> <r_lp_Energy>
15.248465

> <b_lp_Chiralities_Consistent>
1

> <s_lp_Variant>
CHEMBL3650_lig784-1

> <s_i_glide_gridfile>
glide-grid_3c4f

> <i_i_glide_lignum>
958

> <i_i_glide_rotatable_bonds>
3

> <r_i_docking_score>
-7.42466523296556

> <r_i_glide_ligand_efficiency>
-0.337484783316616

> <r_i_glide_ligand_efficiency_sa>
-0.945645635376527

> <r_i_glide_ligand_efficiency_ln>
-1.81485900418136

> <r_i_glide_gscore>
-7.42466523296556

> <r_i_glide_lipo>
-2.41073235560774

> <r_i_glide_hbond>
-0.269506599600248

> <r_i_glide_metal>
0

> <r_i_glide_rewards>
-2.10301974743379

> <r_i_glide_evdw>
-46.9275054931641

> <r_i_glide_ecoul>
-3.82103061676025

> <r_i_glide_erotb>
0.414812862756893

> <r_i_glide_esite>
-0.136689525908436

> <r_i_glide_emodel>
-64.3699462299142

> <r_i_glide_energy>
-50.7485361099243

> <r_i_glide_einternal>
9.6720495223999

> <i_i_glide_confnum>
3

> <i_i_glide_posenum>
159

> <r_i_glide_eff_state_penalty>
0

> <s_user_duplicate_titles>
CHEMBL3650_lig784,CHEMBL3650_lig784

> <s_m_subgroup_title>
dock_pv

> <s_m_subgroupid>
dock_pv

> <b_m_subgroup_collapsed>
1

$$$$
CHEMBL3650_lig2775
                    3D
 Schrodinger Suite 2021-1.
 39 42  0  0  1  0            999 V2000
    6.4454    4.9409   17.9309 O   0  0  0  0  0  0
    6.0560    1.8483   21.1286 O   0  0  0  0  0  0
    9.7698    1.5371   23.0530 O   0  0  0  0  0  0
    7.6574    3.3458   21.7626 N   0  0  0  0  0  0
    6.7711    4.7371   19.2657 N   0  0  0  0  0  0
    4.7710    3.9369   11.9621 N   0  0  0  0  0  0
    5.3838    2.8388   11.4832 N   0  0  0  0  0  0
    6.0385    3.7644   17.4039 C   0  0  0  0  0  0
    6.5816    3.4621   19.5467 C   0  0  0  0  0  0
    5.6357    3.7968   15.9759 C   0  0  0  0  0  0
    6.7509    2.8361   20.8637 C   0  0  0  0  0  0
    6.0834    2.8114   18.4042 C   0  0  0  0  0  0
    5.6897    2.9522   13.7192 C   0  0  0  0  0  0
    4.8662    4.0305   13.3335 C   0  0  0  0  0  0
    6.1014    2.8523   15.0535 C   0  0  0  0  0  0
    4.7697    4.8145   15.5729 C   0  0  0  0  0  0
    4.3490    4.9451   14.2529 C   0  0  0  0  0  0
    5.8670    2.2030   12.5181 C   0  0  0  0  0  0
    7.6919    2.7650   23.1377 C   0  0  0  0  0  0
    8.5414    4.5006   21.4638 C   0  0  0  0  0  0
    9.1242    2.6102   23.6896 C   0  0  2  0  0  0
    9.9407    4.2620   22.0356 C   0  0  0  0  0  0
    9.9424    3.8828   23.5108 C   0  0  0  0  0  0
    9.3611    0.7189   23.3783 H   0  0  0  0  0  0
    4.3265    4.5993   11.3424 H   0  0  0  0  0  0
    5.7964    1.7735   18.3274 H   0  0  0  0  0  0
    6.7710    2.0666   15.3655 H   0  0  0  0  0  0
    4.4121    5.5297   16.3004 H   0  0  0  0  0  0
    3.6812    5.7366   13.9536 H   0  0  0  0  0  0
    6.3711    1.2584   12.3886 H   0  0  0  0  0  0
    7.2467    1.7700   23.1866 H   0  0  0  0  0  0
    7.1711    3.4167   23.8304 H   0  0  0  0  0  0
    8.1082    5.4226   21.8530 H   0  0  0  0  0  0
    8.7724    4.5789   20.4044 H   0  0  0  0  0  0
    9.0795    2.3717   24.7536 H   0  0  0  0  0  0
   10.5511    5.1370   21.8529 H   0  0  0  0  0  0
   10.4331    3.4921   21.4532 H   0  0  0  0  0  0
    9.5189    4.6868   24.1121 H   0  0  0  0  0  0
   10.9647    3.7337   23.8621 H   0  0  0  0  0  0
  1  5  1  0  0  0
  1  8  1  0  0  0
  2 11  2  0  0  0
  3 21  1  0  0  0
  3 24  1  0  0  0
  4 11  1  0  0  0
  4 19  1  0  0  0
  4 20  1  0  0  0
  5  9  2  0  0  0
  6  7  1  0  0  0
  6 14  1  0  0  0
  6 25  1  0  0  0
  7 18  2  0  0  0
  8 10  1  0  0  0
  8 12  2  0  0  0
  9 11  1  0  0  0
  9 12  1  0  0  0
 10 15  1  0  0  0
 10 16  2  0  0  0
 12 26  1  0  0  0
 13 14  1  0  0  0
 13 15  2  0  0  0
 13 18  1  0  0  0
 14 17  2  0  0  0
 15 27  1  0  0  0
 16 17  1  0  0  0
 16 28  1  0  0  0
 17 29  1  0  0  0
 18 30  1  0  0  0
 19 21  1  0  0  0
 19 31  1  0  0  0
 19 32  1  0  0  0
 20 22  1  0  0  0
 20 33  1  0  0  0
 20 34  1  0  0  0
 21 23  1  0  0  0
 21 35  1  0  0  0
 22 23  1  0  0  0
 22 36  1  0  0  0
 22 37  1  0  0  0
 23 38  1  0  0  0
 23 39  1  0  0  0
M  END
> <s_m_entry_id>
49546

> <s_m_entry_name>
dock_pv.136

> <s_m_Source_Path>
/home/csk/Desktop/cluster/DUD-E-result/fgfr1

> <s_m_Source_File>
dock_pv.maegz

> <i_m_Source_File_Index>
136

> <chembl_id>
CHEMBL1997340

> <chembl_pref_name>
None

> <i_lp_mmshare_version>
53161

> <i_f3d_flags>
0

> <r_lp_tautomer_probability>
0.980392156862745

> <s_lp_Force_Field>
OPLS_2005

> <r_lp_Energy>
32.990028

> <b_lp_Chiralities_Consistent>
1

> <s_lp_Variant>
CHEMBL3650_lig2775-1

> <s_i_glide_gridfile>
glide-grid_3c4f

> <i_i_glide_lignum>
3463

> <i_i_glide_rotatable_bonds>
4

> <r_i_docking_score>
-7.42244433913858

> <r_i_glide_ligand_efficiency>
-0.322714971266895

> <r_i_glide_ligand_efficiency_sa>
-0.91775844973046

> <r_i_glide_ligand_efficiency_ln>
-1.79481434420793

> <r_i_glide_gscore>
-7.42244433913858

> <r_i_glide_lipo>
-2.09388912955212

> <r_i_glide_hbond>
-0.32

> <r_i_glide_metal>
0

> <r_i_glide_rewards>
-2.92514233956892

> <r_i_glide_evdw>
-36.2213249206543

> <r_i_glide_ecoul>
-5.49518346786499

> <r_i_glide_erotb>
0.570749084962497

> <r_i_glide_esite>
-0.0188181887675662

> <r_i_glide_emodel>
-54.1343877525239

> <r_i_glide_energy>
-41.7165083885193

> <r_i_glide_einternal>
2.51934885978699

> <i_i_glide_confnum>
17

> <i_i_glide_posenum>
32

> <r_i_glide_eff_state_penalty>
0

> <s_user_duplicate_titles>
CHEMBL3650_lig2775

> <s_m_subgroup_title>
dock_pv

> <s_m_subgroupid>
dock_pv

> <b_m_subgroup_collapsed>
1

$$$$
CHEMBL3650_lig2695
                    3D
 Schrodinger Suite 2021-1.
 42 44  0  0  1  0            999 V2000
    4.9192    2.5929   19.0530 F   0  0  0  0  0  0
    7.1710    1.9370   23.7690 O   0  0  0  0  0  0
   10.8398    3.5371   25.2511 O   0  0  0  0  0  0
    9.1649    2.0928   25.6612 O   0  0  0  0  0  0
    6.6252    2.7370   14.1662 O   0  0  0  0  0  0
    7.8920    4.5072   19.7582 N   0  0  0  0  0  0
    6.3294    4.7647   18.0242 N   0  0  0  0  0  0
    9.4822    4.3536   21.4530 N   0  0  0  0  0  0
    5.0799    4.1940   14.9528 N   0  0  0  0  0  0
    7.5005    3.0211   21.6544 C   0  0  0  0  0  0
    8.2543    3.9612   20.9408 C   0  0  0  0  0  0
    6.7278    4.1167   19.1951 C   0  0  0  0  0  0
    6.3710    2.5271   20.9620 C   0  0  0  0  0  0
    5.9839    3.0762   19.7323 C   0  0  0  0  0  0
    7.9127    2.6225   23.0729 C   0  0  0  0  0  0
    9.2363    3.1630   23.5298 C   0  0  0  0  0  0
    9.9403    3.9370   22.6720 C   0  0  0  0  0  0
    6.9251    4.5555   16.6996 C   0  0  0  0  0  0
    4.9910    5.2981   17.7843 C   0  0  0  0  0  0
    9.8271    2.9623   24.8539 C   0  0  0  0  0  0
    5.9508    5.1461   15.6467 C   0  0  2  0  0  0
    5.5864    1.3466   21.4528 C   0  0  0  0  0  0
    5.0898    6.0636   16.4834 C   0  0  0  0  0  0
    5.4695    3.1366   14.2350 C   0  0  0  0  0  0
    4.3764    2.4355   13.4530 C   0  0  0  0  0  0
    9.6221    2.0031   26.4983 H   0  0  0  0  0  0
   10.0198    4.9911   20.8862 H   0  0  0  0  0  0
    4.1293    4.5011   14.8201 H   0  0  0  0  0  0
   10.9155    4.3367   22.9142 H   0  0  0  0  0  0
    7.1281    3.5039   16.4980 H   0  0  0  0  0  0
    7.8444    5.1370   16.6826 H   0  0  0  0  0  0
    4.6666    5.9312   18.6028 H   0  0  0  0  0  0
    4.2545    4.4962   17.7628 H   0  0  0  0  0  0
    6.4448    5.7199   14.8613 H   0  0  0  0  0  0
    5.1909    1.5370   22.4450 H   0  0  0  0  0  0
    4.7541    1.1370   20.7952 H   0  0  0  0  0  0
    6.2392    0.4772   21.4529 H   0  0  0  0  0  0
    5.5769    7.0232   16.6530 H   0  0  0  0  0  0
    4.1219    6.2946   16.0364 H   0  0  0  0  0  0
    3.5712    2.1075   14.1078 H   0  0  0  0  0  0
    4.7693    1.5667   12.9236 H   0  0  0  0  0  0
    3.9718    3.1368   12.7235 H   0  0  0  0  0  0
  1 14  1  0  0  0
  2 15  2  0  0  0
  3 20  2  0  0  0
  4 20  1  0  0  0
  4 26  1  0  0  0
  5 24  2  0  0  0
  6 11  1  0  0  0
  6 12  2  0  0  0
  7 12  1  0  0  0
  7 18  1  0  0  0
  7 19  1  0  0  0
  8 11  1  0  0  0
  8 17  1  0  0  0
  8 27  1  0  0  0
  9 21  1  0  0  0
  9 24  1  0  0  0
  9 28  1  0  0  0
 10 11  2  0  0  0
 10 13  1  0  0  0
 10 15  1  0  0  0
 12 14  1  0  0  0
 13 14  2  0  0  0
 13 22  1  0  0  0
 15 16  1  0  0  0
 16 17  2  0  0  0
 16 20  1  0  0  0
 17 29  1  0  0  0
 18 21  1  0  0  0
 18 30  1  0  0  0
 18 31  1  0  0  0
 19 23  1  0  0  0
 19 32  1  0  0  0
 19 33  1  0  0  0
 21 23  1  0  0  0
 21 34  1  0  0  0
 22 35  1  0  0  0
 22 36  1  0  0  0
 22 37  1  0  0  0
 23 38  1  0  0  0
 23 39  1  0  0  0
 24 25  1  0  0  0
 25 40  1  0  0  0
 25 41  1  0  0  0
 25 42  1  0  0  0
M  END
> <s_m_entry_id>
49547

> <s_m_entry_name>
dock_pv.137

> <s_m_Source_Path>
/home/csk/Desktop/cluster/DUD-E-result/fgfr1

> <s_m_Source_File>
dock_pv.maegz

> <i_m_Source_File_Index>
137

> <chembl_id>
CHEMBL1975208

> <chembl_pref_name>
None

> <i_lp_mmshare_version>
53161

> <i_f3d_flags>
0

> <r_lp_tautomer_probability>
1

> <s_lp_Force_Field>
OPLS_2005

> <r_lp_Energy>
39.611756

> <b_lp_Chiralities_Consistent>
1

> <s_lp_Variant>
CHEMBL3650_lig2695-1

> <s_i_glide_gridfile>
glide-grid_3c4f

> <i_i_glide_lignum>
3331

> <i_i_glide_rotatable_bonds>
5

> <r_i_docking_score>
-7.4201463328875

> <r_i_glide_ligand_efficiency>
-0.2968058533155

> <r_i_glide_ligand_efficiency_sa>
-0.867865578968744

> <r_i_glide_ligand_efficiency_ln>
-1.75879704473627

> <r_i_glide_gscore>
-7.4201463328875

> <r_i_glide_lipo>
-2.81728170565571

> <r_i_glide_hbond>
-0.32

> <r_i_glide_metal>
0

> <r_i_glide_rewards>
-2.79474494823062

> <r_i_glide_evdw>
-32.901969909668

> <r_i_glide_ecoul>
-2.00143265724182

> <r_i_glide_erotb>
0.470653087265726

> <r_i_glide_esite>
-0.0134593721972227

> <r_i_glide_emodel>
-31.7642925883703

> <r_i_glide_energy>
-34.9034025669098

> <r_i_glide_einternal>
6.45374870300293

> <i_i_glide_confnum>
46

> <i_i_glide_posenum>
54

> <r_i_glide_eff_state_penalty>
0

> <s_user_duplicate_titles>
CHEMBL3650_lig2695

> <s_m_subgroup_title>
dock_pv

> <s_m_subgroupid>
dock_pv

> <b_m_subgroup_collapsed>
1

$$$$
CHEMBL3650_lig2447 
                    3D
 Schrodinger Suite 2021-1.
 43 46  0  0  1  0            999 V2000
    5.8362    3.8065   15.9060 C   0  0  0  0  0  0
    5.3816    4.3551   17.0920 N   0  0  0  0  0  0
    4.2848    5.1772   17.2219 C   0  0  0  0  0  0
    3.7085    5.4965   16.0440 N   0  0  0  0  0  0
    3.9710    4.9950   14.8222 C   0  0  0  0  0  0
    5.0906    4.1845   14.7964 N   0  0  0  0  0  0
    3.1710    5.2186   13.9169 O   0  0  0  0  0  0
    6.7710    3.0051   15.8603 O   0  0  0  0  0  0
    3.7296    5.5370   18.2530 O   0  0  0  0  0  0
    5.3376    3.5455   13.5540 C   0  0  0  0  0  0
    5.5710    4.2910   12.3962 C   0  0  0  0  0  0
    5.5710    3.6786   11.1473 C   0  0  0  0  0  0
    5.4787    2.2946   11.0739 C   0  0  0  0  0  0
    5.3139    1.5370   12.2353 C   0  0  0  0  0  0
    5.2403    2.1630   13.4530 C   0  0  0  0  0  0
    5.9384    3.8961   18.3097 C   0  0  0  0  0  0
    5.5710    2.6439   18.8164 C   0  0  0  0  0  0
    6.0092    2.2502   20.0746 C   0  0  0  0  0  0
    6.8338    3.0878   20.8262 C   0  0  0  0  0  0
    7.1847    4.3474   20.3225 C   0  0  0  0  0  0
    6.7710    4.7370   19.0531 C   0  0  0  0  0  0
    7.2198    2.6297   22.0695 O   0  0  0  0  0  0
    8.4216    2.9476   22.6751 C   0  0  0  0  0  0
    9.5599    3.4113   22.0003 C   0  0  0  0  0  0
   10.7277    3.6961   22.7019 C   0  0  0  0  0  0
   10.7596    3.5370   24.0837 C   0  0  0  0  0  0
    9.6489    3.0430   24.7608 C   0  0  0  0  0  0
    8.4924    2.7370   24.0494 C   0  0  0  0  0  0
    2.8704    6.0514   16.1036 H   0  0  0  0  0  0
    5.7503    5.3466   12.4876 H   0  0  0  0  0  0
    5.6990    4.2732   10.2548 H   0  0  0  0  0  0
    5.4980    1.8030   10.1126 H   0  0  0  0  0  0
    5.1710    0.4714   12.2530 H   0  0  0  0  0  0
    5.0957    1.5438   14.3058 H   0  0  0  0  0  0
    4.9241    1.9882   18.2530 H   0  0  0  0  0  0
    5.7140    1.2867   20.4640 H   0  0  0  0  0  0
    7.7762    5.0327   20.9099 H   0  0  0  0  0  0
    7.0455    5.7111   18.6754 H   0  0  0  0  0  0
    9.5606    3.5370   20.9290 H   0  0  0  0  0  0
   11.6056    4.0478   22.1809 H   0  0  0  0  0  0
   11.6637    3.7672   24.6295 H   0  0  0  0  0  0
    9.6866    2.8870   25.8291 H   0  0  0  0  0  0
    7.6355    2.3368   24.5708 H   0  0  0  0  0  0
  1  2  1  0  0  0
  1  6  1  0  0  0
  1  8  2  0  0  0
  2  3  1  0  0  0
  2 16  1  0  0  0
  3  4  1  0  0  0
  3  9  2  0  0  0
  4  5  1  0  0  0
  4 29  1  0  0  0
  5  6  1  0  0  0
  5  7  2  0  0  0
  6 10  1  0  0  0
 10 11  2  0  0  0
 10 15  1  0  0  0
 11 12  1  0  0  0
 11 30  1  0  0  0
 12 13  2  0  0  0
 12 31  1  0  0  0
 13 14  1  0  0  0
 13 32  1  0  0  0
 14 15  2  0  0  0
 14 33  1  0  0  0
 15 34  1  0  0  0
 16 17  2  0  0  0
 16 21  1  0  0  0
 17 18  1  0  0  0
 17 35  1  0  0  0
 18 19  2  0  0  0
 18 36  1  0  0  0
 19 20  1  0  0  0
 19 22  1  0  0  0
 20 21  2  0  0  0
 20 37  1  0  0  0
 21 38  1  0  0  0
 22 23  1  0  0  0
 23 24  2  0  0  0
 23 28  1  0  0  0
 24 25  1  0  0  0
 24 39  1  0  0  0
 25 26  2  0  0  0
 25 40  1  0  0  0
 26 27  1  0  0  0
 26 41  1  0  0  0
 27 28  2  0  0  0
 27 42  1  0  0  0
 28 43  1  0  0  0
M  END
> <s_m_entry_id>
49550

> <s_m_entry_name>
dock_pv.140

> <s_m_Source_Path>
/home/csk/Desktop/cluster/DUD-E-result/fgfr1

> <s_m_Source_File>
dock_pv.maegz

> <i_m_Source_File_Index>
140

> <chembl_id>
CHEMBL4542212

> <chembl_pref_name>
None

> <i_lp_mmshare_version>
53161

> <i_f3d_flags>
0

> <r_lp_tautomer_probability>
0.99999999999891

> <s_lp_Force_Field>
OPLS_2005

> <r_lp_Energy>
52.423495

> <b_lp_Chiralities_Consistent>
1

> <s_lp_Variant>
CHEMBL3650_lig2447 -1

> <s_i_glide_gridfile>
glide-grid_3c4f

> <i_i_glide_lignum>
2982

> <i_i_glide_rotatable_bonds>
4

> <r_i_docking_score>
-7.37930400390358

> <r_i_glide_ligand_efficiency>
-0.263546571567985

> <r_i_glide_ligand_efficiency_sa>
-0.800282611910081

> <r_i_glide_ligand_efficiency_ln>
-1.70336002988122

> <r_i_glide_gscore>
-7.37930400390358

> <r_i_glide_lipo>
-3.83168516681195

> <r_i_glide_hbond>
0

> <r_i_glide_metal>
0

> <r_i_glide_rewards>
-1.53351505869707

> <r_i_glide_evdw>
-45.2403755187988

> <r_i_glide_ecoul>
-1.86153388023376

> <r_i_glide_erotb>
0.554502630244707

> <r_i_glide_esite>
-0.0273575506642608

> <r_i_glide_emodel>
-49.225929046412

> <r_i_glide_energy>
-47.1019093990326

> <r_i_glide_einternal>
8.04543685913086

> <i_i_glide_confnum>
13

> <i_i_glide_posenum>
44

> <r_i_glide_eff_state_penalty>
0

> <s_user_duplicate_titles>
CHEMBL3650_lig2447 

> <s_m_subgroup_title>
dock_pv

> <s_m_subgroupid>
dock_pv

> <b_m_subgroup_collapsed>
1

$$$$
CHEMBL3650_lig3138
                    3D
 Schrodinger Suite 2021-1.
 30 32  0  0  1  0            999 V2000
    6.5867    3.1367   20.3174 N   0  0  0  0  0  0
    6.7821    1.6787   22.0322 N   0  0  0  0  0  0
    5.9727    1.1371   21.0529 N   0  0  0  0  0  0
    5.1719    1.7695   18.9165 N   0  0  0  0  0  0
    6.7849    4.3224   19.6422 C   0  0  0  0  0  0
    7.1783    2.8857   21.5704 C   0  0  0  0  0  0
    5.8826    1.9825   20.0535 C   0  0  0  0  0  0
    6.1681    4.5214   18.3113 C   0  0  0  0  0  0
    7.5709    5.2991   20.2374 C   0  0  0  0  0  0
    8.0278    3.8497   22.1277 C   0  0  0  0  0  0
    8.1883    5.0600   21.4534 C   0  0  0  0  0  0
    6.9367    4.3368   17.1661 C   0  0  0  0  0  0
    4.8263    4.8851   18.1840 C   0  0  0  0  0  0
    5.0444    4.9408   15.7787 C   0  0  0  0  0  0
    6.3696    4.5214   15.9133 C   0  0  0  0  0  0
    4.2814    5.1372   16.9322 C   0  0  0  0  0  0
    4.4836    5.1487   14.4285 C   0  0  0  0  0  0
    3.1917    5.3711   14.1210 C   0  0  0  0  0  0
    4.5965    0.9335   18.8441 H   0  0  0  0  0  0
    5.1323    2.4410   18.1618 H   0  0  0  0  0  0
    7.6937    6.2548   19.7514 H   0  0  0  0  0  0
    8.5038    3.6757   23.0817 H   0  0  0  0  0  0
    8.7710    5.8470   21.8997 H   0  0  0  0  0  0
    7.9742    4.0408   17.2404 H   0  0  0  0  0  0
    4.1973    4.9965   19.0529 H   0  0  0  0  0  0
    6.9857    4.3370   15.0529 H   0  0  0  0  0  0
    3.2497    5.4479   16.8732 H   0  0  0  0  0  0
    5.1930    5.1377   13.6110 H   0  0  0  0  0  0
    2.4104    5.3993   14.8646 H   0  0  0  0  0  0
    2.8985    5.5368   13.0947 H   0  0  0  0  0  0
  1  5  1  0  0  0
  1  6  1  0  0  0
  1  7  1  0  0  0
  2  3  1  0  0  0
  2  6  2  0  0  0
  3  7  2  0  0  0
  4  7  1  0  0  0
  4 19  1  0  0  0
  4 20  1  0  0  0
  5  8  1  0  0  0
  5  9  2  0  0  0
  6 10  1  0  0  0
  8 12  2  0  0  0
  8 13  1  0  0  0
  9 11  1  0  0  0
  9 21  1  0  0  0
 10 11  2  0  0  0
 10 22  1  0  0  0
 11 23  1  0  0  0
 12 15  1  0  0  0
 12 24  1  0  0  0
 13 16  2  0  0  0
 13 25  1  0  0  0
 14 15  2  0  0  0
 14 16  1  0  0  0
 14 17  1  0  0  0
 15 26  1  0  0  0
 16 27  1  0  0  0
 17 18  2  0  0  0
 17 28  1  0  0  0
 18 29  1  0  0  0
 18 30  1  0  0  0
M  END
> <s_m_entry_id>
49551

> <s_m_entry_name>
dock_pv.141

> <s_m_Source_Path>
/home/csk/Desktop/cluster/DUD-E-result/fgfr1

> <s_m_Source_File>
dock_pv.maegz

> <i_m_Source_File_Index>
141

> <chembl_id>
CHEMBL1983573

> <chembl_pref_name>
None

> <i_lp_mmshare_version>
53161

> <i_f3d_flags>
0

> <r_lp_tautomer_probability>
1

> <s_lp_Force_Field>
OPLS_2005

> <r_lp_Energy>
21.380035

> <b_lp_Chiralities_Consistent>
1

> <s_lp_Variant>
CHEMBL3650_lig3138-1

> <s_i_glide_gridfile>
glide-grid_3c4f

> <i_i_glide_lignum>
4022

> <i_i_glide_rotatable_bonds>
2

> <r_i_docking_score>
-7.3644603365733

> <r_i_glide_ligand_efficiency>
-0.409136685365183

> <r_i_glide_ligand_efficiency_sa>
-1.0722414461929

> <r_i_glide_ligand_efficiency_ln>
-1.89299655531014

> <r_i_glide_gscore>
-7.3644603365733

> <r_i_glide_lipo>
-1.94276071349419

> <r_i_glide_hbond>
-0.30664188780659

> <r_i_glide_metal>
0

> <r_i_glide_rewards>
-3.75119295044773

> <r_i_glide_evdw>
-26.1005859375

> <r_i_glide_ecoul>
-4.49195051193237

> <r_i_glide_erotb>
0.616727751387034

> <r_i_glide_esite>
-0.00177066254697174

> <r_i_glide_emodel>
-42.9894507677933

> <r_i_glide_energy>
-30.5925364494324

> <r_i_glide_einternal>
0.745573341846466

> <i_i_glide_confnum>
3

> <i_i_glide_posenum>
190

> <r_i_glide_eff_state_penalty>
0

> <s_user_duplicate_titles>
CHEMBL3650_lig3138

> <s_m_subgroup_title>
dock_pv

> <s_m_subgroupid>
dock_pv

> <b_m_subgroup_collapsed>
1

$$$$
CHEMBL3650_lig22
                    3D
 Schrodinger Suite 2021-1.
 45 48  0  0  1  0            999 V2000
   11.4760    3.0733   26.2527 C   0  0  0  0  0  0
   11.5907    2.5832   27.5582 C   0  0  0  0  0  0
   10.4641    1.9564   28.0954 C   0  0  0  0  0  0
    9.2740    1.8524   27.3801 C   0  0  0  0  0  0
    9.1741    2.3306   26.0756 C   0  0  0  0  0  0
   10.2860    2.9490   25.4839 C   0  0  0  0  0  0
   12.3720    3.7058   25.4202 N   0  0  0  0  0  0
   11.8390    3.9413   24.2109 N   0  0  0  0  0  0
   10.5910    3.5368   24.2041 C   0  0  0  0  0  0
    9.7616    3.6803   23.0113 C   0  0  0  0  0  0
    8.5798    3.0983   22.7065 C   0  0  0  0  0  0
    7.7675    3.3737   21.4951 C   0  0  0  0  0  0
    7.9646    4.5376   20.7492 C   0  0  0  0  0  0
    7.1728    4.8153   19.6410 C   0  0  0  0  0  0
    6.1528    3.9465   19.2594 C   0  0  0  0  0  0
    5.9669    2.7594   19.9780 C   0  0  0  0  0  0
    6.7704    2.4790   21.0897 C   0  0  0  0  0  0
    5.1740    4.4232   18.2109 C   0  0  0  0  0  0
    4.0419    4.7368   18.5859 O   0  0  0  0  0  0
    5.6202    4.6692   16.9487 N   0  0  0  0  0  0
    4.8075    5.4868   16.0211 C   0  0  0  0  0  0
    4.4250    4.6715   14.7664 C   0  0  0  0  0  0
    5.5711    3.9988   14.1688 N   0  0  0  0  0  0
    6.3312    3.1938   15.1150 C   0  0  0  0  0  0
    6.7899    3.9839   16.3711 C   0  0  0  0  0  0
   12.5108    2.6624   28.1194 H   0  0  0  0  0  0
   10.5132    1.5461   29.0935 H   0  0  0  0  0  0
    8.4264    1.3588   27.8348 H   0  0  0  0  0  0
    8.2565    2.1874   25.5294 H   0  0  0  0  0  0
   13.3429    3.9345   25.6001 H   0  0  0  0  0  0
   10.1919    4.3701   22.3017 H   0  0  0  0  0  0
    8.1559    2.3870   23.3965 H   0  0  0  0  0  0
    8.7047    5.2633   21.0454 H   0  0  0  0  0  0
    7.3204    5.7503   19.1187 H   0  0  0  0  0  0
    5.1692    2.0777   19.7157 H   0  0  0  0  0  0
    6.5986    1.5701   21.6477 H   0  0  0  0  0  0
    3.9096    5.9015   16.4814 H   0  0  0  0  0  0
    5.4153    6.3364   15.7025 H   0  0  0  0  0  0
    3.9638    5.3221   14.0224 H   0  0  0  0  0  0
    3.7116    3.8971   15.0505 H   0  0  0  0  0  0
    6.1766    4.6441   13.6665 H   0  0  0  0  0  0
    7.1709    2.7564   14.5894 H   0  0  0  0  0  0
    5.6720    2.3860   15.4174 H   0  0  0  0  0  0
    7.5354    4.7239   16.0761 H   0  0  0  0  0  0
    7.2661    3.2913   17.0668 H   0  0  0  0  0  0
  1  2  1  0  0  0
  1  7  1  0  0  0
  1  6  2  0  0  0
  2  3  2  0  0  0
  2 26  1  0  0  0
  3  4  1  0  0  0
  3 27  1  0  0  0
  4  5  2  0  0  0
  4 28  1  0  0  0
  5  6  1  0  0  0
  5 29  1  0  0  0
  6  9  1  0  0  0
  7  8  1  0  0  0
  7 30  1  0  0  0
  8  9  2  0  0  0
  9 10  1  0  0  0
 10 11  2  0  0  0
 10 31  1  0  0  0
 11 12  1  0  0  0
 11 32  1  0  0  0
 12 13  2  0  0  0
 12 17  1  0  0  0
 13 14  1  0  0  0
 13 33  1  0  0  0
 14 15  2  0  0  0
 14 34  1  0  0  0
 15 16  1  0  0  0
 15 18  1  0  0  0
 16 17  2  0  0  0
 16 35  1  0  0  0
 17 36  1  0  0  0
 18 19  2  0  0  0
 18 20  1  0  0  0
 20 21  1  0  0  0
 20 25  1  0  0  0
 21 22  1  0  0  0
 21 37  1  0  0  0
 21 38  1  0  0  0
 22 23  1  0  0  0
 22 39  1  0  0  0
 22 40  1  0  0  0
 23 24  1  0  0  0
 23 41  1  0  0  0
 24 25  1  0  0  0
 24 42  1  0  0  0
 24 43  1  0  0  0
 25 44  1  0  0  0
 25 45  1  0  0  0
M  END
> <s_m_entry_id>
49552

> <s_m_entry_name>
dock_pv.142

> <s_m_Source_Path>
/home/csk/Desktop/cluster/DUD-E-result/fgfr1

> <s_m_Source_File>
dock_pv.maegz

> <i_m_Source_File_Index>
142

> <chembl_id>
CHEMBL1908397

> <chembl_pref_name>
KW-2449

> <i_lp_mmshare_version>
53161

> <i_f3d_flags>
0

> <r_lp_tautomer_probability>
1

> <s_lp_Force_Field>
OPLS_2005

> <r_lp_Energy>
47.536969

> <b_lp_Chiralities_Consistent>
1

> <s_lp_Variant>
CHEMBL3650_lig22-1

> <s_i_glide_gridfile>
glide-grid_3c4f

> <i_i_glide_lignum>
30

> <i_i_glide_rotatable_bonds>
4

> <r_i_docking_score>
-7.36218986149962

> <r_i_glide_ligand_efficiency>
-0.294487594459985

> <r_i_glide_ligand_efficiency_sa>
-0.861086948960722

> <r_i_glide_ligand_efficiency_ln>
-1.74505962420205

> <r_i_glide_gscore>
-7.36218986149962

> <r_i_glide_lipo>
-3.01301062588574

> <r_i_glide_hbond>
-0.0434867198248307

> <r_i_glide_metal>
0

> <r_i_glide_rewards>
-2.28103876727727

> <r_i_glide_evdw>
-41.310001373291

> <r_i_glide_ecoul>
-4.02167272567749

> <r_i_glide_erotb>
0.68183876094695

> <r_i_glide_esite>
-0.0377415319425513

> <r_i_glide_emodel>
-53.3988195937325

> <r_i_glide_energy>
-45.3316740989685

> <r_i_glide_einternal>
11.0493431091309

> <i_i_glide_confnum>
230

> <i_i_glide_posenum>
125

> <r_i_glide_eff_state_penalty>
0

> <s_user_duplicate_titles>
CHEMBL3650_lig22

> <s_m_subgroup_title>
dock_pv

> <s_m_subgroupid>
dock_pv

> <b_m_subgroup_collapsed>
1

$$$$
CHEMBL3650_lig3200
                    3D
 Schrodinger Suite 2021-1.
 35 38  0  0  1  0            999 V2000
    7.5710    2.5551   22.3335 C   0  0  0  0  0  0
    6.5898    2.2124   21.4530 N   0  0  0  0  0  0
    6.4734    3.0005   20.3738 C   0  0  0  0  0  0
    7.3288    4.1241   20.1972 C   0  0  0  0  0  0
    8.2962    4.4809   21.0530 N   0  0  0  0  0  0
    8.4066    3.6577   22.1312 C   0  0  0  0  0  0
    5.5953    2.9588   19.2485 C   0  0  0  0  0  0
    5.8825    4.0667   18.4647 C   0  0  0  0  0  0
    6.9528    4.7370   19.0174 N   0  0  0  0  0  0
    5.1589    4.5310   17.3070 C   0  0  0  0  0  0
    5.2621    4.1416   15.9227 C   0  0  0  0  0  0
    4.1976    4.7729   15.2217 C   0  0  0  0  0  0
    3.3839    5.3254   16.1579 N   0  0  0  0  0  0
    3.9960    5.2788   17.3885 C   0  0  0  0  0  0
    6.0498    3.2441   15.2041 C   0  0  0  0  0  0
    5.7390    2.9962   13.8688 C   0  0  0  0  0  0
    4.7830    3.7452   13.1877 C   0  0  0  0  0  0
    3.9826    4.6461   13.8530 C   0  0  0  0  0  0
    2.0056    5.6264   15.8530 C   0  0  0  0  0  0
    6.3710    1.9370   13.3100 O   0  0  0  0  0  0
    6.0583    1.5370   12.0001 C   0  0  0  0  0  0
    7.6806    1.9369   23.2120 H   0  0  0  0  0  0
    9.1777    3.9038   22.8464 H   0  0  0  0  0  0
    4.8143    2.2401   19.0532 H   0  0  0  0  0  0
    7.3507    5.5608   18.5927 H   0  0  0  0  0  0
    3.4670    5.6451   18.2530 H   0  0  0  0  0  0
    6.8009    2.6609   15.7085 H   0  0  0  0  0  0
    4.5850    3.5876   12.1397 H   0  0  0  0  0  0
    3.1711    5.1422   13.3429 H   0  0  0  0  0  0
    1.4486    5.9370   16.7367 H   0  0  0  0  0  0
    1.9702    6.3594   15.0530 H   0  0  0  0  0  0
    1.5710    4.7370   15.4277 H   0  0  0  0  0  0
    6.7711    0.7370   11.8530 H   0  0  0  0  0  0
    6.2437    2.3075   11.2501 H   0  0  0  0  0  0
    5.0439    1.1440   11.9121 H   0  0  0  0  0  0
  1  2  2  0  0  0
  1  6  1  0  0  0
  1 22  1  0  0  0
  2  3  1  0  0  0
  3  4  2  0  0  0
  3  7  1  0  0  0
  4  5  1  0  0  0
  4  9  1  0  0  0
  5  6  2  0  0  0
  6 23  1  0  0  0
  7  8  2  0  0  0
  7 24  1  0  0  0
  8  9  1  0  0  0
  8 10  1  0  0  0
  9 25  1  0  0  0
 10 11  1  0  0  0
 10 14  2  0  0  0
 11 12  1  0  0  0
 11 15  2  0  0  0
 12 13  1  0  0  0
 12 18  2  0  0  0
 13 14  1  0  0  0
 13 19  1  0  0  0
 14 26  1  0  0  0
 15 16  1  0  0  0
 15 27  1  0  0  0
 16 17  2  0  0  0
 16 20  1  0  0  0
 17 18  1  0  0  0
 17 28  1  0  0  0
 18 29  1  0  0  0
 19 30  1  0  0  0
 19 31  1  0  0  0
 19 32  1  0  0  0
 20 21  1  0  0  0
 21 33  1  0  0  0
 21 34  1  0  0  0
 21 35  1  0  0  0
M  END
> <s_m_entry_id>
49553

> <s_m_entry_name>
dock_pv.143

> <s_m_Source_Path>
/home/csk/Desktop/cluster/DUD-E-result/fgfr1

> <s_m_Source_File>
dock_pv.maegz

> <i_m_Source_File_Index>
143

> <chembl_id>
CHEMBL1233887

> <chembl_pref_name>
None

> <i_lp_mmshare_version>
53161

> <i_f3d_flags>
0

> <r_lp_tautomer_probability>
0.999999572927183

> <s_lp_Force_Field>
OPLS_2005

> <r_lp_Energy>
17.019219

> <b_lp_Chiralities_Consistent>
1

> <s_lp_Variant>
CHEMBL3650_lig3200-1

> <s_i_glide_gridfile>
glide-grid_3c4f

> <i_i_glide_lignum>
4131

> <i_i_glide_rotatable_bonds>
2

> <r_i_docking_score>
-7.35733829005159

> <r_i_glide_ligand_efficiency>
-0.350349442383409

> <r_i_glide_ligand_efficiency_sa>
-0.966587545792299

> <r_i_glide_ligand_efficiency_ln>
-1.8190870253134

> <r_i_glide_gscore>
-7.35733829005159

> <r_i_glide_lipo>
-2.9141414370718

> <r_i_glide_hbond>
-0.32

> <r_i_glide_metal>
0

> <r_i_glide_rewards>
-2.36097849167054

> <r_i_glide_evdw>
-31.535831451416

> <r_i_glide_ecoul>
-2.78750109672546

> <r_i_glide_erotb>
0.232698375770371

> <r_i_glide_esite>
0

> <r_i_glide_emodel>
-39.5956814488899

> <r_i_glide_energy>
-34.3233325481415

> <r_i_glide_einternal>
9.61922550201416

> <i_i_glide_confnum>
3

> <i_i_glide_posenum>
76

> <r_i_glide_eff_state_penalty>
0

> <s_user_duplicate_titles>
CHEMBL3650_lig3200

> <s_m_subgroup_title>
dock_pv

> <s_m_subgroupid>
dock_pv

> <b_m_subgroup_collapsed>
1

$$$$
CHEMBL3650_lig2736
                    3D
 Schrodinger Suite 2021-1.
 44 46  0  0  1  0            999 V2000
    5.1710    2.6660   18.9346 O   0  0  0  0  0  0
    6.3707    1.9893   13.7958 O   0  0  0  0  0  0
    6.2282    4.5622   18.2716 N   0  0  0  0  0  0
    9.1710    2.6994   24.8739 N   0  0  0  0  0  0
   11.1827    3.3651   26.0395 N   0  0  0  0  0  0
    6.9652    3.4404   20.3119 C   0  0  0  0  0  0
    8.6907    3.3155   22.5604 C   0  0  0  0  0  0
    6.0596    3.5006   19.0944 C   0  0  0  0  0  0
    9.6210    3.2987   23.7369 C   0  0  0  0  0  0
    5.0987    4.6401   15.9470 C   0  0  0  0  0  0
    5.2404    5.1800   17.3678 C   0  0  1  0  0  0
    7.9347    4.4218   20.5360 C   0  0  0  0  0  0
    6.8334    2.4126   21.2600 C   0  0  0  0  0  0
    8.7810    4.3535   21.6318 C   0  0  0  0  0  0
    7.6918    2.3483   22.3634 C   0  0  0  0  0  0
    5.8535    3.5704   15.4597 C   0  0  0  0  0  0
    5.6213    3.0694   14.1785 C   0  0  0  0  0  0
    4.1394    5.2250   15.1109 C   0  0  0  0  0  0
   10.8899    3.9034   23.7056 C   0  0  0  0  0  0
    4.6500    3.6642   13.3650 C   0  0  0  0  0  0
    3.9090    4.7370   13.8361 C   0  0  0  0  0  0
    9.9719    2.7570   25.9682 C   0  0  0  0  0  0
   11.6294    3.9370   24.8916 C   0  0  0  0  0  0
    3.8608    5.2816   18.0311 C   0  0  0  0  0  0
    5.9707    1.2494   12.6530 C   0  0  0  0  0  0
    7.1356    5.0007   18.2751 H   0  0  0  0  0  0
    5.6123    6.1972   17.2378 H   0  0  0  0  0  0
    8.0454    5.2586   19.8652 H   0  0  0  0  0  0
    6.0834    1.6439   21.1322 H   0  0  0  0  0  0
    9.5105    5.1370   21.7552 H   0  0  0  0  0  0
    7.5816    1.5370   23.0678 H   0  0  0  0  0  0
    6.6006    3.0978   16.0793 H   0  0  0  0  0  0
    3.5509    6.0655   15.4407 H   0  0  0  0  0  0
   11.2922    4.3370   22.8033 H   0  0  0  0  0  0
    4.4568    3.3130   12.3634 H   0  0  0  0  0  0
    3.1713    5.2048   13.2004 H   0  0  0  0  0  0
    9.6116    2.2727   26.8640 H   0  0  0  0  0  0
   12.6095    4.3930   24.9283 H   0  0  0  0  0  0
    3.1599    5.9370   17.5480 H   0  0  0  0  0  0
    3.3844    4.3370   18.0914 H   0  0  0  0  0  0
    3.9266    5.5370   19.0530 H   0  0  0  0  0  0
    6.5595    0.3370   12.6530 H   0  0  0  0  0  0
    4.9183    0.9606   12.6891 H   0  0  0  0  0  0
    6.1681    1.7897   11.7262 H   0  0  0  0  0  0
  1  8  2  0  0  0
  2 17  1  0  0  0
  2 25  1  0  0  0
  3  8  1  0  0  0
  3 11  1  0  0  0
  3 26  1  0  0  0
  4  9  1  0  0  0
  4 22  2  0  0  0
  5 22  1  0  0  0
  5 23  2  0  0  0
  6  8  1  0  0  0
  6 12  2  0  0  0
  6 13  1  0  0  0
  7  9  1  0  0  0
  7 14  2  0  0  0
  7 15  1  0  0  0
  9 19  2  0  0  0
 10 11  1  0  0  0
 10 16  2  0  0  0
 10 18  1  0  0  0
 11 24  1  0  0  0
 11 27  1  0  0  0
 12 14  1  0  0  0
 12 28  1  0  0  0
 13 15  2  0  0  0
 13 29  1  0  0  0
 14 30  1  0  0  0
 15 31  1  0  0  0
 16 17  1  0  0  0
 16 32  1  0  0  0
 17 20  2  0  0  0
 18 21  2  0  0  0
 18 33  1  0  0  0
 19 23  1  0  0  0
 19 34  1  0  0  0
 20 21  1  0  0  0
 20 35  1  0  0  0
 21 36  1  0  0  0
 22 37  1  0  0  0
 23 38  1  0  0  0
 24 39  1  0  0  0
 24 40  1  0  0  0
 24 41  1  0  0  0
 25 42  1  0  0  0
 25 43  1  0  0  0
 25 44  1  0  0  0
M  END
> <s_m_entry_id>
49554

> <s_m_entry_name>
dock_pv.144

> <s_m_Source_Path>
/home/csk/Desktop/cluster/DUD-E-result/fgfr1

> <s_m_Source_File>
dock_pv.maegz

> <i_m_Source_File_Index>
144

> <chembl_id>
CHEMBL2004872

> <chembl_pref_name>
None

> <i_lp_mmshare_version>
53161

> <i_f3d_flags>
0

> <r_lp_tautomer_probability>
1

> <s_lp_Force_Field>
OPLS_2005

> <r_lp_Energy>
10.970916

> <b_lp_Chiralities_Consistent>
1

> <s_lp_Variant>
CHEMBL3650_lig2736-2

> <s_i_glide_gridfile>
glide-grid_3c4f

> <i_i_glide_lignum>
3403

> <i_i_glide_rotatable_bonds>
6

> <r_i_docking_score>
-7.33989458071538

> <r_i_glide_ligand_efficiency>
-0.293595783228615

> <r_i_glide_ligand_efficiency_sa>
-0.858479277103857

> <r_i_glide_ligand_efficiency_ln>
-1.73977497452054

> <r_i_glide_gscore>
-7.33989458071538

> <r_i_glide_lipo>
-3.45288010152285

> <r_i_glide_hbond>
-0.32

> <r_i_glide_metal>
0

> <r_i_glide_rewards>
-2.31350014639207

> <r_i_glide_evdw>
-38.244815826416

> <r_i_glide_ecoul>
-1.26082348823547

> <r_i_glide_erotb>
0.847849981755661

> <r_i_glide_esite>
0

> <r_i_glide_emodel>
-52.0028907635757

> <r_i_glide_energy>
-39.5056393146515

> <r_i_glide_einternal>
7.96035718917847

> <i_i_glide_confnum>
100

> <i_i_glide_posenum>
129

> <r_i_glide_eff_state_penalty>
0

> <s_user_duplicate_titles>
CHEMBL3650_lig2736

> <s_m_subgroup_title>
dock_pv

> <s_m_subgroupid>
dock_pv

> <b_m_subgroup_collapsed>
1

$$$$
CHEMBL3650_lig267
                    3D
 Schrodinger Suite 2021-1.
 44 46  0  0  1  0            999 V2000
    6.6135    3.6606   18.8515 C   0  0  0  0  0  0
    5.4233    4.1524   16.6528 C   0  0  0  0  0  0
    4.4737    5.1370   17.1340 C   0  0  0  0  0  0
    6.3180    3.5050   17.4330 C   0  0  0  0  0  0
    7.1697    4.8160   19.3172 N   0  0  0  0  0  0
    7.1247    3.4058   21.0429 C   0  0  0  0  0  0
    6.4506    2.8178   19.9485 C   0  0  0  0  0  0
    5.1326    4.0270   15.2357 C   0  0  0  0  0  0
    3.7494    5.5370   16.0988 N   0  0  0  0  0  0
    7.4337    4.7048   20.6537 C   0  0  0  0  0  0
    4.1089    4.9031   14.9686 C   0  0  0  0  0  0
    5.6472    3.2416   14.2110 C   0  0  0  0  0  0
    5.1219    3.3849   12.9149 C   0  0  0  0  0  0
    5.5710    2.4978   11.8054 C   0  0  0  0  0  0
    7.4106    2.8008   22.4132 C   0  0  0  0  0  0
    9.5373    2.8601   23.8836 C   0  0  0  0  0  0
    4.2742    5.5370   18.2530 O   0  0  0  0  0  0
    3.5710    5.0601   13.7166 C   0  0  0  0  0  0
    5.5688    2.8111   10.6157 O   0  0  0  0  0  0
    4.1270    4.3370   12.6715 C   0  0  0  0  0  0
    9.9726    4.0009   23.9935 O   0  0  0  0  0  0
    8.8866    2.3463   22.5901 C   0  0  0  0  0  0
    5.9736    1.2886   12.2530 O   0  0  0  0  0  0
    9.5649    1.9370   24.8835 O   0  0  0  0  0  0
    5.7861    1.4734   19.9220 C   0  0  0  0  0  0
    7.9710    5.8664   21.4432 C   0  0  0  0  0  0
    6.9311    2.7480   16.9658 H   0  0  0  0  0  0
    7.3566    5.6321   18.7532 H   0  0  0  0  0  0
    2.9929    6.1968   16.1726 H   0  0  0  0  0  0
    6.4313    2.5287   14.4221 H   0  0  0  0  0  0
    6.7407    1.9715   22.6424 H   0  0  0  0  0  0
    7.1710    3.5370   23.1744 H   0  0  0  0  0  0
    2.7813    5.7692   13.5161 H   0  0  0  0  0  0
    3.7351    4.4845   11.6752 H   0  0  0  0  0  0
    9.4963    2.8264   21.8227 H   0  0  0  0  0  0
    9.0188    1.2746   22.4422 H   0  0  0  0  0  0
    6.1568    0.7370   11.4898 H   0  0  0  0  0  0
    9.1710    1.0770   24.6529 H   0  0  0  0  0  0
    5.6088    1.1370   18.9020 H   0  0  0  0  0  0
    6.3710    0.7055   20.4279 H   0  0  0  0  0  0
    4.8256    1.5291   20.4312 H   0  0  0  0  0  0
    8.7406    5.5385   22.1428 H   0  0  0  0  0  0
    8.3710    6.6694   20.8365 H   0  0  0  0  0  0
    7.1710    6.3370   22.0035 H   0  0  0  0  0  0
  1  4  1  0  0  0
  1  5  1  0  0  0
  1  7  2  0  0  0
  2  4  2  0  0  0
  2  3  1  0  0  0
  2  8  1  0  0  0
  3  9  1  0  0  0
  3 17  2  0  0  0
  4 27  1  0  0  0
  5 10  1  0  0  0
  5 28  1  0  0  0
  6  7  1  0  0  0
  6 15  1  0  0  0
  6 10  2  0  0  0
  7 25  1  0  0  0
  8 11  1  0  0  0
  8 12  2  0  0  0
  9 11  1  0  0  0
  9 29  1  0  0  0
 10 26  1  0  0  0
 11 18  2  0  0  0
 12 13  1  0  0  0
 12 30  1  0  0  0
 13 14  1  0  0  0
 13 20  2  0  0  0
 14 19  2  0  0  0
 14 23  1  0  0  0
 15 22  1  0  0  0
 15 31  1  0  0  0
 15 32  1  0  0  0
 16 22  1  0  0  0
 16 21  2  0  0  0
 16 24  1  0  0  0
 18 20  1  0  0  0
 18 33  1  0  0  0
 20 34  1  0  0  0
 22 35  1  0  0  0
 22 36  1  0  0  0
 23 37  1  0  0  0
 24 38  1  0  0  0
 25 39  1  0  0  0
 25 40  1  0  0  0
 25 41  1  0  0  0
 26 42  1  0  0  0
 26 43  1  0  0  0
 26 44  1  0  0  0
M  END
> <s_m_entry_id>
49555

> <s_m_entry_name>
dock_pv.145

> <s_m_Source_Path>
/home/csk/Desktop/cluster/DUD-E-result/fgfr1

> <s_m_Source_File>
dock_pv.maegz

> <i_m_Source_File_Index>
145

> <chembl_id>
CHEMBL149073

> <chembl_pref_name>
None

> <i_lp_mmshare_version>
53161

> <i_f3d_flags>
0

> <r_lp_tautomer_probability>
1

> <s_lp_Force_Field>
OPLS_2005

> <r_lp_Energy>
31.264671

> <b_lp_Chiralities_Consistent>
1

> <s_lp_Variant>
CHEMBL3650_lig267-1

> <s_i_glide_gridfile>
glide-grid_3c4f

> <i_i_glide_lignum>
290

> <i_i_glide_rotatable_bonds>
7

> <r_i_docking_score>
-7.3360999973592

> <r_i_glide_ligand_efficiency>
-0.282157692206123

> <r_i_glide_ligand_efficiency_sa>
-0.835891052923732

> <r_i_glide_ligand_efficiency_ln>
-1.72285901267234

> <r_i_glide_gscore>
-7.3360999973592

> <r_i_glide_lipo>
-2.85523336013185

> <r_i_glide_hbond>
0

> <r_i_glide_metal>
0

> <r_i_glide_rewards>
-2.03631592462873

> <r_i_glide_evdw>
-35.4341659545898

> <r_i_glide_ecoul>
-9.37941551208496

> <r_i_glide_erotb>
0.760849357163261

> <r_i_glide_esite>
-0.026779445219647

> <r_i_glide_emodel>
-49.5753804965836

> <r_i_glide_energy>
-44.8135814666748

> <r_i_glide_einternal>
10.2843370437622

> <i_i_glide_confnum>
167

> <i_i_glide_posenum>
372

> <r_i_glide_eff_state_penalty>
0

> <s_user_duplicate_titles>
CHEMBL3650_lig267,247147

> <s_m_subgroup_title>
dock_pv

> <s_m_subgroupid>
dock_pv

> <b_m_subgroup_collapsed>
1

$$$$
CHEMBL3650_lig2963
                    3D
 Schrodinger Suite 2021-1.
 27 30  0  0  1  0            999 V2000
    6.4909    3.9964   18.8257 C   0  0  0  0  0  0
    7.1710    5.0621   19.4090 C   0  0  0  0  0  0
    7.6621    4.9992   20.7127 C   0  0  0  0  0  0
    6.2290    2.8391   19.5572 C   0  0  0  0  0  0
    6.7481    2.7366   20.8517 C   0  0  0  0  0  0
    7.4962    3.8063   21.4255 C   0  0  0  0  0  0
    7.5563    2.2357   22.8498 N   0  0  0  0  0  0
    6.7717    1.7359   21.8403 C   0  0  0  0  0  0
    6.0797    4.0639   17.4036 C   0  0  0  0  0  0
    6.4962    3.1372   16.5608 N   0  0  0  0  0  0
    5.2600    5.0184   16.7966 C   0  0  0  0  0  0
    5.1075    4.5900   15.5028 N   0  0  0  0  0  0
    5.9005    3.4353   15.3820 C   0  0  0  0  0  0
    5.9708    2.7374   14.2371 N   0  0  0  0  0  0
    5.2269    3.1925   13.1932 C   0  0  0  0  0  0
    4.4195    4.3269   13.2527 C   0  0  0  0  0  0
    4.3682    5.0429   14.4454 C   0  0  0  0  0  0
    8.0069    3.4847   22.6528 N   0  0  0  0  0  0
    7.3554    5.9371   18.8131 H   0  0  0  0  0  0
    8.2130    5.8266   21.1344 H   0  0  0  0  0  0
    5.6955    2.0122   19.1096 H   0  0  0  0  0  0
    6.3807    0.7371   21.8532 H   0  0  0  0  0  0
    4.7630    5.8900   17.1937 H   0  0  0  0  0  0
    5.2861    2.6180   12.2798 H   0  0  0  0  0  0
    3.8672    4.6622   12.3857 H   0  0  0  0  0  0
    3.7824    5.9369   14.5837 H   0  0  0  0  0  0
    7.8193    1.7091   23.6740 H   0  0  0  0  0  0
  1  2  1  0  0  0
  1  9  1  0  0  0
  1  4  2  0  0  0
  2  3  2  0  0  0
  2 19  1  0  0  0
  3  6  1  0  0  0
  3 20  1  0  0  0
  4 21  1  0  0  0
  4  5  1  0  0  0
  5  6  1  0  0  0
  5  8  2  0  0  0
  6 18  2  0  0  0
  7 27  1  0  0  0
  7 18  1  0  0  0
  7  8  1  0  0  0
  8 22  1  0  0  0
  9 10  1  0  0  0
  9 11  2  0  0  0
 10 13  2  0  0  0
 11 12  1  0  0  0
 11 23  1  0  0  0
 12 13  1  0  0  0
 12 17  1  0  0  0
 13 14  1  0  0  0
 14 15  2  0  0  0
 15 16  1  0  0  0
 15 24  1  0  0  0
 16 17  2  0  0  0
 16 25  1  0  0  0
 17 26  1  0  0  0
M  END
> <s_m_entry_id>
49556

> <s_m_entry_name>
dock_pv.146

> <s_m_Source_Path>
/home/csk/Desktop/cluster/DUD-E-result/fgfr1

> <s_m_Source_File>
dock_pv.maegz

> <i_m_Source_File_Index>
146

> <chembl_id>
CHEMBL1682540

> <chembl_pref_name>
None

> <i_lp_mmshare_version>
53161

> <i_f3d_flags>
0

> <r_lp_tautomer_probability>
0.0196078431372549

> <s_lp_Force_Field>
OPLS_2005

> <r_lp_Energy>
23.665613

> <b_lp_Chiralities_Consistent>
1

> <s_lp_Variant>
CHEMBL3650_lig2963-2

> <s_i_glide_gridfile>
glide-grid_3c4f

> <i_i_glide_lignum>
3755

> <i_i_glide_rotatable_bonds>
1

> <r_i_docking_score>
-7.31058638378857

> <r_i_glide_ligand_efficiency>
-0.406143687988254

> <r_i_glide_ligand_efficiency_sa>
-1.06439757408198

> <r_i_glide_ligand_efficiency_ln>
-1.87914853354323

> <r_i_glide_gscore>
-7.31058638378857

> <r_i_glide_lipo>
-2.63638964983371

> <r_i_glide_hbond>
-0.134518397797029

> <r_i_glide_metal>
0

> <r_i_glide_rewards>
-2.91348746969697

> <r_i_glide_evdw>
-36.4980316162109

> <r_i_glide_ecoul>
-0.586494445800781

> <r_i_glide_erotb>
0.310660707267627

> <r_i_glide_esite>
-0.0239758260478237

> <r_i_glide_emodel>
-51.0930839752109

> <r_i_glide_energy>
-37.0845260620117

> <r_i_glide_einternal>
3.14408349990845

> <i_i_glide_confnum>
2

> <i_i_glide_posenum>
245

> <r_i_glide_eff_state_penalty>
0

> <s_user_duplicate_titles>
CHEMBL3650_lig2963,CHEMBL3650_lig2963

> <s_m_subgroup_title>
dock_pv

> <s_m_subgroupid>
dock_pv

> <b_m_subgroup_collapsed>
1

$$$$
CHEMBL3650_lig2508
                    3D
 Schrodinger Suite 2021-1.
 14 15  0  0  1  0            999 V2000
    5.1727    2.8280   18.0225 Cl  0  0  0  0  0  0
    6.7709    5.5366   18.3565 Cl  0  0  0  0  0  0
    7.1054    1.5955   22.6529 N   0  0  0  0  0  0
    8.3736    3.5279   22.8577 N   0  0  0  0  0  0
    7.9862    2.3373   23.3512 N   0  0  0  0  0  0
    6.8944    2.3871   21.5753 C   0  0  0  0  0  0
    7.6471    3.5779   21.7101 C   0  0  0  0  0  0
    6.0881    3.1398   19.4494 C   0  0  0  0  0  0
    6.8054    4.3357   19.5935 C   0  0  0  0  0  0
    6.1063    2.1609   20.4419 C   0  0  0  0  0  0
    7.5774    4.5776   20.7320 C   0  0  0  0  0  0
    8.3713    1.9837   24.2164 H   0  0  0  0  0  0
    5.5710    1.2321   20.3188 H   0  0  0  0  0  0
    8.1259    5.5004   20.8438 H   0  0  0  0  0  0
  1  8  1  0  0  0
  2  9  1  0  0  0
  3  5  1  0  0  0
  3  6  2  0  0  0
  4  7  2  0  0  0
  4  5  1  0  0  0
  5 12  1  0  0  0
  6  7  1  0  0  0
  6 10  1  0  0  0
  7 11  1  0  0  0
  8 10  2  0  0  0
  8  9  1  0  0  0
  9 11  2  0  0  0
 10 13  1  0  0  0
 11 14  1  0  0  0
M  END
> <s_m_entry_id>
49558

> <s_m_entry_name>
dock_pv.148

> <s_m_Source_Path>
/home/csk/Desktop/cluster/DUD-E-result/fgfr1

> <s_m_Source_File>
dock_pv.maegz

> <i_m_Source_File_Index>
148

> <chembl_id>
CHEMBL1996923

> <chembl_pref_name>
None

> <i_lp_mmshare_version>
53161

> <i_f3d_flags>
0

> <r_lp_tautomer_probability>
0.0784092159078409

> <s_lp_Force_Field>
OPLS_2005

> <r_lp_Energy>
12.305813

> <b_lp_Chiralities_Consistent>
1

> <s_lp_Variant>
CHEMBL3650_lig2508-2

> <s_i_glide_gridfile>
glide-grid_3c4f

> <i_i_glide_lignum>
3067

> <i_i_glide_rotatable_bonds>
0

> <r_i_docking_score>
-7.29794460647989

> <r_i_glide_ligand_efficiency>
-0.66344950967999

> <r_i_glide_ligand_efficiency_sa>
-1.47549849944691

> <r_i_glide_ligand_efficiency_ln>
-2.1477838545829

> <r_i_glide_gscore>
-7.29794460647989

> <r_i_glide_lipo>
-2.1009288203522

> <r_i_glide_hbond>
-0.280499282510197

> <r_i_glide_metal>
0

> <r_i_glide_rewards>
-3.49384721212121

> <r_i_glide_evdw>
-21.0148048400879

> <r_i_glide_ecoul>
-2.47952699661255

> <r_i_glide_erotb>
0

> <r_i_glide_esite>
0

> <r_i_glide_emodel>
-33.3060732066198

> <r_i_glide_energy>
-23.4943318367004

> <r_i_glide_einternal>
0

> <i_i_glide_confnum>
1

> <i_i_glide_posenum>
25

> <r_i_glide_eff_state_penalty>
0

> <s_user_duplicate_titles>
CHEMBL3650_lig2508

> <s_m_subgroup_title>
dock_pv

> <s_m_subgroupid>
dock_pv

> <b_m_subgroup_collapsed>
1

$$$$
CHEMBL3650_lig2970
                    3D
 Schrodinger Suite 2021-1.
 31 34  0  0  1  0            999 V2000
    7.6781    2.3373   22.5768 C   0  0  0  0  0  0
    6.6153    1.5369   22.4149 N   0  0  0  0  0  0
    5.9710    1.5442   21.2365 C   0  0  0  0  0  0
    8.0813    3.3163   21.6557 C   0  0  0  0  0  0
    7.3063    3.4414   20.4610 C   0  0  0  0  0  0
    6.2864    2.4680   20.2567 C   0  0  0  0  0  0
    5.5710    2.5175   18.6843 S   0  0  0  0  0  0
    6.4633    3.9570   18.3124 C   0  0  0  0  0  0
    7.3297    4.3371   19.3395 C   0  0  0  0  0  0
    9.2342    4.0764   21.7980 O   0  0  0  0  0  0
   10.0943    3.9372   22.8823 C   0  0  0  0  0  0
    9.6367    3.9555   24.2072 C   0  0  0  0  0  0
   10.5268    3.9372   25.2751 C   0  0  0  0  0  0
   11.8941    3.9369   25.0266 C   0  0  0  0  0  0
   12.3724    3.9370   23.7187 C   0  0  0  0  0  0
   11.4742    3.9068   22.6532 C   0  0  0  0  0  0
   13.2323    3.9221   26.6316 I   0  0  0  0  0  0
    6.1580    4.5214   17.0010 C   0  0  0  0  0  0
    5.9688    3.8098   15.8778 N   0  0  0  0  0  0
    5.5334    4.6601   14.8917 C   0  0  0  0  0  0
    5.5763    5.8596   15.4708 O   0  0  0  0  0  0
    5.9710    5.7491   16.8080 N   0  0  0  0  0  0
    5.1705    4.4259   13.7428 O   0  0  0  0  0  0
    8.2264    2.1015   23.4739 H   0  0  0  0  0  0
    5.2085    0.7999   21.0531 H   0  0  0  0  0  0
    7.9713    5.1979   19.2793 H   0  0  0  0  0  0
    8.5829    4.0261   24.4115 H   0  0  0  0  0  0
   10.1587    3.9443   26.2902 H   0  0  0  0  0  0
   13.4407    3.9359   23.5424 H   0  0  0  0  0  0
   11.8672    3.8826   21.6521 H   0  0  0  0  0  0
    6.0629    2.8149   15.7533 H   0  0  0  0  0  0
  1  2  2  0  0  0
  1  4  1  0  0  0
  1 24  1  0  0  0
  2  3  1  0  0  0
  3  6  2  0  0  0
  3 25  1  0  0  0
  4  5  2  0  0  0
  4 10  1  0  0  0
  5  9  1  0  0  0
  5  6  1  0  0  0
  6  7  1  0  0  0
  7  8  1  0  0  0
  8  9  2  0  0  0
  8 18  1  0  0  0
  9 26  1  0  0  0
 10 11  1  0  0  0
 11 12  2  0  0  0
 11 16  1  0  0  0
 12 13  1  0  0  0
 12 27  1  0  0  0
 13 14  2  0  0  0
 13 28  1  0  0  0
 14 15  1  0  0  0
 14 17  1  0  0  0
 15 16  2  0  0  0
 15 29  1  0  0  0
 16 30  1  0  0  0
 18 19  1  0  0  0
 18 22  2  0  0  0
 19 31  1  0  0  0
 19 20  1  0  0  0
 20 23  2  0  0  0
 20 21  1  0  0  0
 21 22  1  0  0  0
M  END
> <s_m_entry_id>
49559

> <s_m_entry_name>
dock_pv.149

> <s_m_Source_Path>
/home/csk/Desktop/cluster/DUD-E-result/fgfr1

> <s_m_Source_File>
dock_pv.maegz

> <i_m_Source_File_Index>
149

> <chembl_id>
CHEMBL497151

> <chembl_pref_name>
None

> <i_lp_mmshare_version>
53161

> <i_f3d_flags>
0

> <r_lp_tautomer_probability>
0.999999645980111

> <s_lp_Force_Field>
OPLS_2005

> <r_lp_Energy>
12.266286

> <b_lp_Chiralities_Consistent>
1

> <s_lp_Variant>
CHEMBL3650_lig2970-1

> <s_i_glide_gridfile>
glide-grid_3c4f

> <i_i_glide_lignum>
3763

> <i_i_glide_rotatable_bonds>
3

> <r_i_docking_score>
-7.27441145656074

> <r_i_glide_ligand_efficiency>
-0.316278758980902

> <r_i_glide_ligand_efficiency_sa>
-0.89945471815414

> <r_i_glide_ligand_efficiency_ln>
-1.75901865091264

> <r_i_glide_gscore>
-7.27441145656074

> <r_i_glide_lipo>
-2.90082368392644

> <r_i_glide_hbond>
-0.32

> <r_i_glide_metal>
0

> <r_i_glide_rewards>
-2.18576152547863

> <r_i_glide_evdw>
-40.8037261962891

> <r_i_glide_ecoul>
-0.588846981525421

> <r_i_glide_erotb>
0.312930675179659

> <r_i_glide_esite>
-0.0522435652920608

> <r_i_glide_emodel>
-48.8473659193828

> <r_i_glide_energy>
-41.3925731778145

> <r_i_glide_einternal>
7.05428314208984

> <i_i_glide_confnum>
8

> <i_i_glide_posenum>
198

> <r_i_glide_eff_state_penalty>
0

> <s_user_duplicate_titles>
CHEMBL3650_lig2970

> <s_m_subgroup_title>
dock_pv

> <s_m_subgroupid>
dock_pv

> <b_m_subgroup_collapsed>
1

$$$$
CHEMBL3650_lig799
                    3D
 Schrodinger Suite 2021-1.
 29 31  0  0  1  0            999 V2000
    8.5917    2.3370   23.0891 S   0  0  0  0  0  0
    4.4405    4.7370   13.8509 O   0  0  0  0  0  0
    6.3700    1.5722   21.7526 N   0  0  0  0  0  0
    6.9222    4.5432   18.8197 N   0  0  0  0  0  0
    5.7259    2.7037   19.6993 N   0  0  0  0  0  0
    7.6407    3.4901   20.9307 C   0  0  0  0  0  0
    7.3789    2.4351   21.8468 C   0  0  0  0  0  0
    6.7500    3.5851   19.8327 C   0  0  0  0  0  0
    8.8064    4.2066   21.3096 C   0  0  0  0  0  0
    9.5088    3.6252   22.3524 C   0  0  0  0  0  0
    6.2705    4.5733   17.5778 C   0  0  0  0  0  0
    5.6024    1.7559   20.6536 C   0  0  0  0  0  0
    5.1512    5.3848   17.3875 C   0  0  0  0  0  0
    6.7493    3.7863   16.5297 C   0  0  0  0  0  0
   10.8868    3.9367   22.8733 C   0  0  0  0  0  0
    5.0316    4.6728   15.0860 C   0  0  0  0  0  0
    4.5374    5.4410   16.1362 C   0  0  0  0  0  0
    6.1185    3.8259   15.2878 C   0  0  0  0  0  0
    4.5132    5.5953   13.4038 H   0  0  0  0  0  0
    7.7352    5.1376   18.8957 H   0  0  0  0  0  0
    9.1716    5.0465   20.7488 H   0  0  0  0  0  0
    4.7313    1.1371   20.5891 H   0  0  0  0  0  0
    4.7566    5.9629   18.2075 H   0  0  0  0  0  0
    7.6093    3.1500   16.6742 H   0  0  0  0  0  0
   11.4163    4.6492   22.2427 H   0  0  0  0  0  0
   11.5109    3.0447   22.9014 H   0  0  0  0  0  0
   10.8581    4.3377   23.8865 H   0  0  0  0  0  0
    3.6726    6.0648   15.9766 H   0  0  0  0  0  0
    6.4986    3.2319   14.4709 H   0  0  0  0  0  0
  1  7  1  0  0  0
  1 10  1  0  0  0
  2 16  1  0  0  0
  2 19  1  0  0  0
  3  7  2  0  0  0
  3 12  1  0  0  0
  4  8  1  0  0  0
  4 11  1  0  0  0
  4 20  1  0  0  0
  5  8  1  0  0  0
  5 12  2  0  0  0
  6  7  1  0  0  0
  6  8  2  0  0  0
  6  9  1  0  0  0
  9 10  2  0  0  0
  9 21  1  0  0  0
 10 15  1  0  0  0
 11 13  2  0  0  0
 11 14  1  0  0  0
 12 22  1  0  0  0
 13 17  1  0  0  0
 13 23  1  0  0  0
 14 18  2  0  0  0
 14 24  1  0  0  0
 15 25  1  0  0  0
 15 26  1  0  0  0
 15 27  1  0  0  0
 16 17  2  0  0  0
 16 18  1  0  0  0
 17 28  1  0  0  0
 18 29  1  0  0  0
M  END
> <s_m_entry_id>
49560

> <s_m_entry_name>
dock_pv.150

> <s_m_Source_Path>
/home/csk/Desktop/cluster/DUD-E-result/fgfr1

> <s_m_Source_File>
dock_pv.maegz

> <i_m_Source_File_Index>
150

> <chembl_id>
CHEMBL1617780

> <chembl_pref_name>
None

> <i_lp_mmshare_version>
53161

> <i_f3d_flags>
0

> <r_lp_tautomer_probability>
1

> <s_lp_Force_Field>
OPLS_2005

> <r_lp_Energy>
13.134816

> <b_lp_Chiralities_Consistent>
1

> <s_lp_Variant>
CHEMBL3650_lig799-1

> <s_i_glide_gridfile>
glide-grid_3c4f

> <i_i_glide_lignum>
983

> <i_i_glide_rotatable_bonds>
3

> <r_i_docking_score>
-7.27349318596166

> <r_i_glide_ligand_efficiency>
-0.404082954775648

> <r_i_glide_ligand_efficiency_sa>
-1.05899692525448

> <r_i_glide_ligand_efficiency_ln>
-1.86961391830971

> <r_i_glide_gscore>
-7.27349318596166

> <r_i_glide_lipo>
-2.77751818129936

> <r_i_glide_hbond>
-0.312379693620461

> <r_i_glide_metal>
0

> <r_i_glide_rewards>
-2.49424154923717

> <r_i_glide_evdw>
-32.0592002868652

> <r_i_glide_ecoul>
-4.1289758682251

> <r_i_glide_erotb>
0.532952632772355

> <r_i_glide_esite>
0

> <r_i_glide_emodel>
-44.4382376920212

> <r_i_glide_energy>
-36.1881761550903

> <r_i_glide_einternal>
6.61879920959473

> <i_i_glide_confnum>
4

> <i_i_glide_posenum>
370

> <r_i_glide_eff_state_penalty>
0

> <s_user_duplicate_titles>
CHEMBL3650_lig799

> <s_m_subgroup_title>
dock_pv

> <s_m_subgroupid>
dock_pv

> <b_m_subgroup_collapsed>
1

$$$$
CHEMBL3650_lig3082
                    3D
 Schrodinger Suite 2021-1.
 45 48  0  0  1  0            999 V2000
    8.5362    2.3370   24.6530 O   0  0  0  0  0  0
    4.4840    5.3640   14.2529 O   0  0  0  0  0  0
    5.7594    1.5870   19.6131 N   0  0  0  0  0  0
    5.9710    1.0239   20.8031 N   0  0  0  0  0  0
    7.1401    1.5371   22.8583 N   0  0  0  0  0  0
    7.0315    2.9739   20.8769 C   0  0  0  0  0  0
    6.3739    2.7370   19.6059 C   0  0  0  0  0  0
    6.7312    1.8174   21.6212 C   0  0  0  0  0  0
    6.3629    3.5343   18.3589 C   0  0  0  0  0  0
    7.8588    3.9254   21.5163 C   0  0  0  0  0  0
    6.2125    3.8343   15.9288 C   0  0  0  0  0  0
    6.3456    3.0008   17.0594 C   0  0  0  0  0  0
    7.9815    2.4468   23.4166 C   0  0  0  0  0  0
    8.3710    3.5971   22.7648 C   0  0  0  0  0  0
    5.8470    3.4149   14.5477 C   0  0  0  0  0  0
    6.3541    4.8992   18.4995 C   0  0  0  0  0  0
    6.3710    5.1898   16.1303 C   0  0  0  0  0  0
    5.0995    4.2573   13.7041 C   0  0  0  0  0  0
    6.3586    5.6915   17.3908 C   0  0  0  0  0  0
    8.2822    5.2553   20.9802 C   0  0  0  0  0  0
    6.2338    2.1894   14.0455 C   0  0  0  0  0  0
    4.9239    3.9370   12.3514 C   0  0  0  0  0  0
    5.9710    1.8169   12.7262 C   0  0  0  0  0  0
    5.3654    2.7155   11.8596 C   0  0  0  0  0  0
    3.0838    5.4380   14.0809 C   0  0  0  0  0  0
    2.4334    5.3996   15.4656 C   0  0  0  0  0  0
    8.4431    1.4183   24.9355 H   0  0  0  0  0  0
    5.5924    0.1069   20.9890 H   0  0  0  0  0  0
    6.3710    1.9370   16.9801 H   0  0  0  0  0  0
    9.0397    4.2805   23.2697 H   0  0  0  0  0  0
    6.3710    5.3716   19.4530 H   0  0  0  0  0  0
    6.4287    5.8916   15.3102 H   0  0  0  0  0  0
    6.3710    6.7370   17.4530 H   0  0  0  0  0  0
    9.2492    5.5370   21.3915 H   0  0  0  0  0  0
    8.3710    5.1599   19.9068 H   0  0  0  0  0  0
    7.5575    6.0317   21.2270 H   0  0  0  0  0  0
    6.7710    1.5256   14.6984 H   0  0  0  0  0  0
    4.3918    4.6168   11.7017 H   0  0  0  0  0  0
    6.2880    0.8501   12.3659 H   0  0  0  0  0  0
    5.1884    2.4474   10.8283 H   0  0  0  0  0  0
    2.7969    6.3364   13.5321 H   0  0  0  0  0  0
    2.7710    4.5968   13.4836 H   0  0  0  0  0  0
    1.4254    5.8139   15.4523 H   0  0  0  0  0  0
    2.3711    4.3875   15.8526 H   0  0  0  0  0  0
    3.0415    5.9370   16.1863 H   0  0  0  0  0  0
  1 13  1  0  0  0
  1 27  1  0  0  0
  2 18  1  0  0  0
  2 25  1  0  0  0
  3  4  1  0  0  0
  3  7  2  0  0  0
  4  8  1  0  0  0
  4 28  1  0  0  0
  5  8  2  0  0  0
  5 13  1  0  0  0
  6  7  1  0  0  0
  6  8  1  0  0  0
  6 10  2  0  0  0
  7  9  1  0  0  0
  9 12  2  0  0  0
  9 16  1  0  0  0
 10 14  1  0  0  0
 10 20  1  0  0  0
 11 12  1  0  0  0
 11 15  1  0  0  0
 11 17  2  0  0  0
 12 29  1  0  0  0
 13 14  2  0  0  0
 14 30  1  0  0  0
 15 18  1  0  0  0
 15 21  2  0  0  0
 16 19  2  0  0  0
 16 31  1  0  0  0
 17 19  1  0  0  0
 17 32  1  0  0  0
 18 22  2  0  0  0
 19 33  1  0  0  0
 20 34  1  0  0  0
 20 35  1  0  0  0
 20 36  1  0  0  0
 21 23  1  0  0  0
 21 37  1  0  0  0
 22 24  1  0  0  0
 22 38  1  0  0  0
 23 24  2  0  0  0
 23 39  1  0  0  0
 24 40  1  0  0  0
 25 26  1  0  0  0
 25 41  1  0  0  0
 25 42  1  0  0  0
 26 43  1  0  0  0
 26 44  1  0  0  0
 26 45  1  0  0  0
M  END
> <s_m_entry_id>
49561

> <s_m_entry_name>
dock_pv.151

> <s_m_Source_Path>
/home/csk/Desktop/cluster/DUD-E-result/fgfr1

> <s_m_Source_File>
dock_pv.maegz

> <i_m_Source_File_Index>
151

> <chembl_id>
CHEMBL1983070

> <chembl_pref_name>
None

> <i_lp_mmshare_version>
53161

> <i_f3d_flags>
0

> <r_lp_tautomer_probability>
1

> <s_lp_Force_Field>
OPLS_2005

> <r_lp_Energy>
20.452039

> <b_lp_Chiralities_Consistent>
1

> <s_lp_Variant>
CHEMBL3650_lig3082-1

> <s_i_glide_gridfile>
glide-grid_3c4f

> <i_i_glide_lignum>
3927

> <i_i_glide_rotatable_bonds>
5

> <r_i_docking_score>
-7.27172117902696

> <r_i_glide_ligand_efficiency>
-0.279681583808729

> <r_i_glide_ligand_efficiency_sa>
-0.828555591539468

> <r_i_glide_ligand_efficiency_ln>
-1.70773985843115

> <r_i_glide_gscore>
-7.27172117902696

> <r_i_glide_lipo>
-3.08064084116062

> <r_i_glide_hbond>
-0.593433907963725

> <r_i_glide_metal>
0

> <r_i_glide_rewards>
-2.69912002355915

> <r_i_glide_evdw>
-18.1289253234863

> <r_i_glide_ecoul>
-3.13239502906799

> <r_i_glide_erotb>
0.477779114191055

> <r_i_glide_esite>
0

> <r_i_glide_emodel>
-33.1660801987748

> <r_i_glide_energy>
-21.2613203525543

> <r_i_glide_einternal>
9.7737455368042

> <i_i_glide_confnum>
10

> <i_i_glide_posenum>
256

> <r_i_glide_eff_state_penalty>
0

> <s_user_duplicate_titles>
CHEMBL3650_lig3082

> <s_m_subgroup_title>
dock_pv

> <s_m_subgroupid>
dock_pv

> <b_m_subgroup_collapsed>
1

$$$$
CHEMBL3650_lig2820
                    3D
 Schrodinger Suite 2021-1.
 36 39  0  0  1  0            999 V2000
    5.1711    2.2029   18.3946 O   0  0  0  0  0  0
    6.3707    1.9372   13.6281 O   0  0  0  0  0  0
    5.9778    1.8912   20.4907 N   0  0  0  0  0  0
    3.9710    5.9370   16.3113 N   0  0  0  0  0  0
    6.6374    3.7748   19.4679 C   0  0  0  0  0  0
    7.3855    3.6112   20.7142 C   0  0  0  0  0  0
    5.7010    5.0077   17.4361 C   0  0  0  0  0  0
    5.5599    4.3899   16.1309 C   0  0  0  0  0  0
    6.9111    2.4661   21.3202 C   0  0  0  0  0  0
    5.8368    2.5743   19.3460 C   0  0  0  0  0  0
    4.4719    5.0300   15.4544 C   0  0  0  0  0  0
    6.6135    4.7827   18.5617 C   0  0  0  0  0  0
    4.6835    5.9299   17.4643 C   0  0  0  0  0  0
    6.2003    3.3572   15.4499 C   0  0  0  0  0  0
    8.3710    4.3700   21.3478 C   0  0  0  0  0  0
    5.7418    2.9982   14.1840 C   0  0  0  0  0  0
    4.0393    4.7171   14.1738 C   0  0  0  0  0  0
    7.4035    2.0325   22.5494 C   0  0  0  0  0  0
    4.6995    3.6777   13.5518 C   0  0  0  0  0  0
    8.8995    3.9339   22.5664 C   0  0  0  0  0  0
    8.4140    2.7696   23.1682 C   0  0  0  0  0  0
    5.9714    1.4527   12.3710 C   0  0  0  0  0  0
    5.5294    0.9984   20.6324 H   0  0  0  0  0  0
    3.1780    6.5407   16.1570 H   0  0  0  0  0  0
    7.3094    5.5963   18.7005 H   0  0  0  0  0  0
    4.3704    6.5885   18.2536 H   0  0  0  0  0  0
    7.0135    2.8196   15.9116 H   0  0  0  0  0  0
    8.7416    5.2800   20.9068 H   0  0  0  0  0  0
    3.2303    5.2425   13.6862 H   0  0  0  0  0  0
    7.0423    1.1364   23.0239 H   0  0  0  0  0  0
    4.3699    3.4028   12.5622 H   0  0  0  0  0  0
    9.6761    4.5052   23.0516 H   0  0  0  0  0  0
    8.8190    2.4361   24.1128 H   0  0  0  0  0  0
    6.7058    0.6766   12.2119 H   0  0  0  0  0  0
    4.9717    1.0155   12.3865 H   0  0  0  0  0  0
    6.0594    2.1889   11.5703 H   0  0  0  0  0  0
  1 10  2  0  0  0
  2 16  1  0  0  0
  2 22  1  0  0  0
  3  9  1  0  0  0
  3 10  1  0  0  0
  3 23  1  0  0  0
  4 11  1  0  0  0
  4 13  1  0  0  0
  4 24  1  0  0  0
  5  6  1  0  0  0
  5 10  1  0  0  0
  5 12  2  3  0  0
  6  9  1  0  0  0
  6 15  2  0  0  0
  7  8  1  0  0  0
  7 12  1  0  0  0
  7 13  2  0  0  0
  8 11  1  0  0  0
  8 14  2  0  0  0
  9 18  2  0  0  0
 11 17  2  0  0  0
 12 25  1  0  0  0
 13 26  1  0  0  0
 14 16  1  0  0  0
 14 27  1  0  0  0
 15 20  1  0  0  0
 15 28  1  0  0  0
 16 19  2  0  0  0
 17 19  1  0  0  0
 17 29  1  0  0  0
 18 21  1  0  0  0
 18 30  1  0  0  0
 19 31  1  0  0  0
 20 21  2  0  0  0
 20 32  1  0  0  0
 21 33  1  0  0  0
 22 34  1  0  0  0
 22 35  1  0  0  0
 22 36  1  0  0  0
M  END
> <s_m_entry_id>
49562

> <s_m_entry_name>
dock_pv.152

> <s_m_Source_Path>
/home/csk/Desktop/cluster/DUD-E-result/fgfr1

> <s_m_Source_File>
dock_pv.maegz

> <i_m_Source_File_Index>
152

> <chembl_id>
CHEMBL1997275

> <chembl_pref_name>
None

> <i_lp_mmshare_version>
53161

> <i_f3d_flags>
0

> <r_lp_tautomer_probability>
1

> <s_lp_Force_Field>
OPLS_2005

> <r_lp_Energy>
38.834641

> <b_lp_Chiralities_Consistent>
1

> <s_lp_Variant>
CHEMBL3650_lig2820-2

> <s_i_glide_gridfile>
glide-grid_3c4f

> <i_i_glide_lignum>
3532

> <i_i_glide_rotatable_bonds>
2

> <r_i_docking_score>
-7.26895519365264

> <r_i_glide_ligand_efficiency>
-0.330407054256938

> <r_i_glide_ligand_efficiency_sa>
-0.92581356020002

> <r_i_glide_ligand_efficiency_ln>
-1.7767977909116

> <r_i_glide_gscore>
-7.26895519365264

> <r_i_glide_lipo>
-3.14833549793918

> <r_i_glide_hbond>
-0.333472079946919

> <r_i_glide_metal>
0

> <r_i_glide_rewards>
-2.34632897202243

> <r_i_glide_evdw>
-32.033504486084

> <r_i_glide_ecoul>
-0.36903303861618

> <r_i_glide_erotb>
0.216211536352508

> <r_i_glide_esite>
0

> <r_i_glide_emodel>
-40.507826700278

> <r_i_glide_energy>
-32.4025375247002

> <r_i_glide_einternal>
6.44714212417603

> <i_i_glide_confnum>
3

> <i_i_glide_posenum>
362

> <r_i_glide_eff_state_penalty>
0

> <s_user_duplicate_titles>
CHEMBL3650_lig2820

> <s_m_subgroup_title>
dock_pv

> <s_m_subgroupid>
dock_pv

> <b_m_subgroup_collapsed>
1

$$$$
CHEMBL3650_lig3083
                    3D
 Schrodinger Suite 2021-1.
 34 37  0  0  1  0            999 V2000
    6.3711    1.6519   21.0909 C   0  0  0  0  0  0
    7.5412    4.0098   19.9970 C   0  0  0  0  0  0
    6.5591    3.3027   19.2957 C   0  0  0  0  0  0
    5.9709    2.1608   19.8531 C   0  0  0  0  0  0
    6.0115    3.8503   18.0535 C   0  0  0  0  0  0
    6.2721    3.4653   16.7794 C   0  0  0  0  0  0
    5.4580    4.0438   15.6969 C   0  0  0  0  0  0
    4.5688    4.9406   16.0306 N   0  0  0  0  0  0
    4.1746    5.1370   17.3698 C   0  0  0  0  0  0
    5.0293    4.7369   18.3208 N   0  0  0  0  0  0
    3.1175    5.5247   17.8532 O   0  0  0  0  0  0
    5.5654    3.5626   14.3018 C   0  0  0  0  0  0
    5.1525    4.3775   13.2478 C   0  0  0  0  0  0
    5.1710    3.9308   11.9289 C   0  0  0  0  0  0
    5.5692    2.6309   11.6510 C   0  0  0  0  0  0
    5.9700    1.7957   12.6862 C   0  0  0  0  0  0
    5.9988    2.2736   13.9959 C   0  0  0  0  0  0
    7.9660    3.5256   21.2410 C   0  0  0  0  0  0
    7.3797    2.3490   21.7695 C   0  0  0  0  0  0
    8.0419    2.1252   22.9617 N   0  0  0  0  0  0
    8.9546    3.0782   23.2227 N   0  0  0  0  0  0
    8.9207    3.9183   22.2233 C   0  0  0  0  0  0
    5.9320    0.7447   21.4720 H   0  0  0  0  0  0
    7.9682    4.9132   19.5857 H   0  0  0  0  0  0
    5.1891    1.6457   19.3108 H   0  0  0  0  0  0
    7.0221    2.7105   16.5988 H   0  0  0  0  0  0
    4.7465    4.9325   19.2663 H   0  0  0  0  0  0
    4.8175    5.3843   13.4529 H   0  0  0  0  0  0
    4.8509    4.5937   11.1365 H   0  0  0  0  0  0
    5.5543    2.2636   10.6355 H   0  0  0  0  0  0
    6.2854    0.7858   12.4729 H   0  0  0  0  0  0
    6.3580    1.6078   14.7657 H   0  0  0  0  0  0
    7.9622    1.3295   23.5858 H   0  0  0  0  0  0
    9.5747    4.7747   22.1993 H   0  0  0  0  0  0
  1 19  2  0  0  0
  1  4  1  0  0  0
  1 23  1  0  0  0
  2 18  2  0  0  0
  2  3  1  0  0  0
  2 24  1  0  0  0
  3  4  2  0  0  0
  3  5  1  0  0  0
  4 25  1  0  0  0
  5 10  1  0  0  0
  5  6  2  0  0  0
  6 26  1  0  0  0
  6  7  1  0  0  0
  7 12  1  0  0  0
  7  8  2  0  0  0
  8  9  1  0  0  0
  9 11  2  0  0  0
  9 10  1  0  0  0
 10 27  1  0  0  0
 12 13  2  0  0  0
 12 17  1  0  0  0
 13 14  1  0  0  0
 13 28  1  0  0  0
 14 15  2  0  0  0
 14 29  1  0  0  0
 15 16  1  0  0  0
 15 30  1  0  0  0
 16 17  2  0  0  0
 16 31  1  0  0  0
 17 32  1  0  0  0
 18 19  1  0  0  0
 18 22  1  0  0  0
 19 20  1  0  0  0
 20 21  1  0  0  0
 20 33  1  0  0  0
 21 22  2  0  0  0
 22 34  1  0  0  0
M  END
> <s_m_entry_id>
49563

> <s_m_entry_name>
dock_pv.153

> <s_m_Source_Path>
/home/csk/Desktop/cluster/DUD-E-result/fgfr1

> <s_m_Source_File>
dock_pv.maegz

> <i_m_Source_File_Index>
153

> <chembl_id>
CHEMBL526133

> <chembl_pref_name>
None

> <i_lp_mmshare_version>
53161

> <i_f3d_flags>
0

> <r_lp_tautomer_probability>
0.478063516132417

> <s_lp_Force_Field>
OPLS_2005

> <r_lp_Energy>
20.099217

> <b_lp_Chiralities_Consistent>
1

> <s_lp_Variant>
CHEMBL3650_lig3083-2

> <s_i_glide_gridfile>
glide-grid_3c4f

> <i_i_glide_lignum>
3929

> <i_i_glide_rotatable_bonds>
2

> <r_i_docking_score>
-7.26415685284884

> <r_i_glide_ligand_efficiency>
-0.330188947856766

> <r_i_glide_ligand_efficiency_sa>
-0.925202417489098

> <r_i_glide_ligand_efficiency_ln>
-1.77562490139542

> <r_i_glide_gscore>
-7.26415685284884

> <r_i_glide_lipo>
-2.99506228162392

> <r_i_glide_hbond>
-0.32

> <r_i_glide_metal>
0

> <r_i_glide_rewards>
-2.13037958618272

> <r_i_glide_evdw>
-37.3967666625977

> <r_i_glide_ecoul>
-2.57716846466064

> <r_i_glide_erotb>
0.437698617786782

> <r_i_glide_esite>
0

> <r_i_glide_emodel>
-37.8265362113112

> <r_i_glide_energy>
-39.9739351272583

> <r_i_glide_einternal>
7.94964838027954

> <i_i_glide_confnum>
5

> <i_i_glide_posenum>
81

> <r_i_glide_eff_state_penalty>
0

> <s_user_duplicate_titles>
CHEMBL3650_lig3083

> <s_m_subgroup_title>
dock_pv

> <s_m_subgroupid>
dock_pv

> <b_m_subgroup_collapsed>
1

$$$$
CHEMBL3650_lig866
                    3D
 Schrodinger Suite 2021-1.
 40 43  0  0  1  0            999 V2000
    5.5995    4.1232   15.3323 N   0  0  0  0  0  0
    4.6640    5.1855   15.6618 C   0  0  0  0  0  0
    4.7459    5.2702   17.1752 C   0  0  0  0  0  0
    5.8071    4.3752   17.5589 C   0  0  0  0  0  0
    6.2349    3.7184   16.4839 C   0  0  0  0  0  0
    4.0484    5.9370   17.9228 O   0  0  0  0  0  0
    6.2831    4.1032   18.9080 C   0  0  0  0  0  0
    7.1710    4.8500   19.5236 N   0  0  0  0  0  0
    7.4939    4.1513   20.6565 C   0  0  0  0  0  0
    6.7378    2.9599   20.7553 C   0  0  0  0  0  0
    5.9974    2.9373   19.5963 N   0  0  0  0  0  0
    8.4479    4.4435   21.6400 C   0  0  0  0  0  0
    8.6150    3.5371   22.6899 C   0  0  0  0  0  0
    7.8340    2.3856   22.7829 C   0  0  0  0  0  0
    6.8742    2.0653   21.8219 C   0  0  0  0  0  0
    5.1871    1.8239   19.1422 C   0  0  0  0  0  0
    5.6044    3.5789   14.0355 C   0  0  0  0  0  0
    5.5710    4.4064   12.9220 C   0  0  0  0  0  0
    5.5642    3.8837   11.6345 C   0  0  0  0  0  0
    5.5710    2.5094   11.4344 C   0  0  0  0  0  0
    5.5710    1.6726   12.5441 C   0  0  0  0  0  0
    5.6202    2.2073   13.8233 C   0  0  0  0  0  0
    5.5710    4.7370   10.5770 O   0  0  0  0  0  0
    7.1710    2.7370   16.4213 N   0  0  0  0  0  0
    3.6486    4.9317   15.3562 H   0  0  0  0  0  0
    4.9026    6.1370   15.1872 H   0  0  0  0  0  0
    9.0480    5.3372   21.5759 H   0  0  0  0  0  0
    9.3528    3.7365   23.4536 H   0  0  0  0  0  0
    7.9868    1.7178   23.6169 H   0  0  0  0  0  0
    6.2979    1.1552   21.8729 H   0  0  0  0  0  0
    4.7710    2.0237   18.1601 H   0  0  0  0  0  0
    5.8202    0.9426   19.0737 H   0  0  0  0  0  0
    4.3906    1.6250   19.8530 H   0  0  0  0  0  0
    5.5985    5.4761   13.0626 H   0  0  0  0  0  0
    5.5429    2.0960   10.4368 H   0  0  0  0  0  0
    5.5201    0.6089   12.4312 H   0  0  0  0  0  0
    5.6509    1.5370   14.6530 H   0  0  0  0  0  0
    5.3733    5.6318   10.8952 H   0  0  0  0  0  0
    7.6639    2.4432   17.2510 H   0  0  0  0  0  0
    7.4543    2.3557   15.5323 H   0  0  0  0  0  0
  1  2  1  0  0  0
  1  5  1  0  0  0
  1 17  1  0  0  0
  2  3  1  0  0  0
  2 25  1  0  0  0
  2 26  1  0  0  0
  3  4  1  0  0  0
  3  6  2  0  0  0
  4  5  2  0  0  0
  4  7  1  0  0  0
  5 24  1  0  0  0
  7  8  2  0  0  0
  7 11  1  0  0  0
  8  9  1  0  0  0
  9 10  1  0  0  0
  9 12  2  0  0  0
 10 11  1  0  0  0
 10 15  2  0  0  0
 11 16  1  0  0  0
 12 13  1  0  0  0
 12 27  1  0  0  0
 13 14  2  0  0  0
 13 28  1  0  0  0
 14 15  1  0  0  0
 14 29  1  0  0  0
 15 30  1  0  0  0
 16 31  1  0  0  0
 16 32  1  0  0  0
 16 33  1  0  0  0
 17 18  1  0  0  0
 17 22  2  0  0  0
 18 19  2  0  0  0
 18 34  1  0  0  0
 19 20  1  0  0  0
 19 23  1  0  0  0
 20 21  2  0  0  0
 20 35  1  0  0  0
 21 22  1  0  0  0
 21 36  1  0  0  0
 22 37  1  0  0  0
 23 38  1  0  0  0
 24 39  1  0  0  0
 24 40  1  0  0  0
M  END
> <s_m_entry_id>
49564

> <s_m_entry_name>
dock_pv.154

> <s_m_Source_Path>
/home/csk/Desktop/cluster/DUD-E-result/fgfr1

> <s_m_Source_File>
dock_pv.maegz

> <i_m_Source_File_Index>
154

> <chembl_id>
CHEMBL3780794

> <chembl_pref_name>
None

> <i_lp_mmshare_version>
53161

> <i_f3d_flags>
0

> <r_lp_tautomer_probability>
0.999998894699381

> <s_lp_Force_Field>
OPLS_2005

> <r_lp_Energy>
40.457964

> <b_lp_Chiralities_Consistent>
1

> <s_lp_Variant>
CHEMBL3650_lig866-1

> <s_i_glide_gridfile>
glide-grid_3c4f

> <i_i_glide_lignum>
1059

> <i_i_glide_rotatable_bonds>
3

> <r_i_docking_score>
-7.24375836338508

> <r_i_glide_ligand_efficiency>
-0.301823265141045

> <r_i_glide_ligand_efficiency_sa>
-0.870608947994621

> <r_i_glide_ligand_efficiency_ln>
-1.73376377077023

> <r_i_glide_gscore>
-7.24375836338508

> <r_i_glide_lipo>
-2.76101385084804

> <r_i_glide_hbond>
-0.16

> <r_i_glide_metal>
0

> <r_i_glide_rewards>
-2.12914584948304

> <r_i_glide_evdw>
-35.446590423584

> <r_i_glide_ecoul>
-5.03202104568481

> <r_i_glide_erotb>
0.363891298749192

> <r_i_glide_esite>
-0.0303572837712711

> <r_i_glide_emodel>
-46.1493999296347

> <r_i_glide_energy>
-40.4786114692688

> <r_i_glide_einternal>
4.42454671859741

> <i_i_glide_confnum>
5

> <i_i_glide_posenum>
246

> <r_i_glide_eff_state_penalty>
0

> <s_user_duplicate_titles>
CHEMBL3650_lig866

> <s_m_subgroup_title>
dock_pv

> <s_m_subgroupid>
dock_pv

> <b_m_subgroup_collapsed>
1

$$$$
CHEMBL3650_lig257
                    3D
 Schrodinger Suite 2021-1.
 41 43  0  0  1  0            999 V2000
    5.3494    4.1659   16.6943 C   0  0  0  0  0  0
    4.3772    5.1370   17.1473 C   0  0  0  0  0  0
    6.5535    3.7015   18.9028 C   0  0  0  0  0  0
    6.2437    3.5334   17.4877 C   0  0  0  0  0  0
    5.0814    4.0354   15.2766 C   0  0  0  0  0  0
    3.6752    5.5370   16.0988 N   0  0  0  0  0  0
    7.1710    4.8418   19.3309 N   0  0  0  0  0  0
    6.4252    2.8569   20.0087 C   0  0  0  0  0  0
    4.0653    4.9101   14.9814 C   0  0  0  0  0  0
    7.1556    3.4341   21.0772 C   0  0  0  0  0  0
    5.6136    3.2440   14.2719 C   0  0  0  0  0  0
    7.5315    4.6972   20.6407 C   0  0  0  0  0  0
    5.1147    3.3786   12.9679 C   0  0  0  0  0  0
    5.5710    2.4291   11.9222 C   0  0  0  0  0  0
    9.5599    2.9133   23.9614 C   0  0  0  0  0  0
    4.1401    5.5370   18.2530 O   0  0  0  0  0  0
    3.5536    5.0642   13.7201 C   0  0  0  0  0  0
    6.0322    1.3465   12.2530 O   0  0  0  0  0  0
    7.4699    2.8357   22.4423 C   0  0  0  0  0  0
    4.1165    4.3229   12.6943 C   0  0  0  0  0  0
    9.9709    4.0545   24.1461 O   0  0  0  0  0  0
    8.9652    2.4557   22.6217 C   0  0  0  0  0  0
    5.5387    2.9048   10.6447 O   0  0  0  0  0  0
    9.5676    1.9370   24.9109 O   0  0  0  0  0  0
    5.7759    1.5001   19.9963 C   0  0  0  0  0  0
    6.8643    2.7793   17.0254 H   0  0  0  0  0  0
    2.9088    6.1866   16.1587 H   0  0  0  0  0  0
    7.3902    5.6341   18.7437 H   0  0  0  0  0  0
    6.3864    2.5249   14.5055 H   0  0  0  0  0  0
    8.0783    5.4829   21.1412 H   0  0  0  0  0  0
    2.7660    5.7702   13.5027 H   0  0  0  0  0  0
    6.8552    1.9587   22.6471 H   0  0  0  0  0  0
    7.1710    3.5370   23.2152 H   0  0  0  0  0  0
    3.7102    4.4515   11.7023 H   0  0  0  0  0  0
    9.5566    3.0332   21.9085 H   0  0  0  0  0  0
    9.1703    1.4108   22.3880 H   0  0  0  0  0  0
    5.2069    3.8045   10.6531 H   0  0  0  0  0  0
    9.1710    1.0903   24.6393 H   0  0  0  0  0  0
    5.6782    1.1180   18.9817 H   0  0  0  0  0  0
    6.3482    0.7605   20.5561 H   0  0  0  0  0  0
    4.7802    1.5370   20.4343 H   0  0  0  0  0  0
  1  2  1  0  0  0
  1  4  2  0  0  0
  1  5  1  0  0  0
  2  6  1  0  0  0
  2 16  2  0  0  0
  3  4  1  0  0  0
  3  7  1  0  0  0
  3  8  2  0  0  0
  4 26  1  0  0  0
  5  9  1  0  0  0
  5 11  2  0  0  0
  6  9  1  0  0  0
  6 27  1  0  0  0
  7 12  1  0  0  0
  7 28  1  0  0  0
  8 10  1  0  0  0
  8 25  1  0  0  0
  9 17  2  0  0  0
 10 19  1  0  0  0
 10 12  2  0  0  0
 11 13  1  0  0  0
 11 29  1  0  0  0
 12 30  1  0  0  0
 13 14  1  0  0  0
 13 20  2  0  0  0
 14 18  2  0  0  0
 14 23  1  0  0  0
 15 22  1  0  0  0
 15 21  2  0  0  0
 15 24  1  0  0  0
 17 20  1  0  0  0
 17 31  1  0  0  0
 19 22  1  0  0  0
 19 32  1  0  0  0
 19 33  1  0  0  0
 20 34  1  0  0  0
 22 35  1  0  0  0
 22 36  1  0  0  0
 23 37  1  0  0  0
 24 38  1  0  0  0
 25 39  1  0  0  0
 25 40  1  0  0  0
 25 41  1  0  0  0
M  END
> <s_m_entry_id>
49565

> <s_m_entry_name>
dock_pv.155

> <s_m_Source_Path>
/home/csk/Desktop/cluster/DUD-E-result/fgfr1

> <s_m_Source_File>
dock_pv.maegz

> <i_m_Source_File_Index>
155

> <chembl_id>
CHEMBL435227

> <chembl_pref_name>
None

> <i_lp_mmshare_version>
53161

> <i_f3d_flags>
0

> <r_lp_tautomer_probability>
1

> <s_lp_Force_Field>
OPLS_2005

> <r_lp_Energy>
33.26821

> <b_lp_Chiralities_Consistent>
1

> <s_lp_Variant>
CHEMBL3650_lig257-1

> <s_i_glide_gridfile>
glide-grid_3c4f

> <i_i_glide_lignum>
280

> <i_i_glide_rotatable_bonds>
7

> <r_i_docking_score>
-7.23604115527885

> <r_i_glide_ligand_efficiency>
-0.289441646211154

> <r_i_glide_ligand_efficiency_sa>
-0.846332506790868

> <r_i_glide_ligand_efficiency_ln>
-1.71515860045606

> <r_i_glide_gscore>
-7.23604115527885

> <r_i_glide_lipo>
-2.69857927264921

> <r_i_glide_hbond>
-0.105897831277787

> <r_i_glide_metal>
0

> <r_i_glide_rewards>
-2.13858905251646

> <r_i_glide_evdw>
-35.4988021850586

> <r_i_glide_ecoul>
-8.6839656829834

> <r_i_glide_erotb>
0.817443018860938

> <r_i_glide_esite>
-0.0328830559958874

> <r_i_glide_emodel>
-50.7035209205902

> <r_i_glide_energy>
-44.182767868042

> <r_i_glide_einternal>
11.6995372772217

> <i_i_glide_confnum>
153

> <i_i_glide_posenum>
158

> <r_i_glide_eff_state_penalty>
0

> <s_user_duplicate_titles>
CHEMBL3650_lig257,247059

> <s_m_subgroup_title>
dock_pv

> <s_m_subgroupid>
dock_pv

> <b_m_subgroup_collapsed>
1

$$$$
CHEMBL3650_lig2656
                    3D
 Schrodinger Suite 2021-1.
 49 52  0  0  1  0            999 V2000
   12.9092    5.3729   26.8287 Cl  0  0  0  0  0  0
    3.8783    5.5369   16.7092 S   0  0  0  0  0  0
    3.9706    4.3370   12.2046 O   0  0  0  0  0  0
    9.2434    4.2781   23.4416 O   0  0  0  0  0  0
    6.6824    2.7370   14.6364 N   0  0  0  0  0  0
    7.5710    2.3370   16.6530 N   0  0  0  0  0  0
    2.8747    5.5370   13.8529 N   0  0  0  0  0  0
    8.1698    2.3894   22.7339 N   0  0  0  0  0  0
    9.3272    2.3371   24.6245 N   0  0  0  0  0  0
    5.7497    3.8133   16.6046 C   0  0  0  0  0  0
    4.8252    4.4487   15.7564 C   0  0  0  0  0  0
    5.5395    4.0652   18.0042 C   0  0  0  0  0  0
    4.7709    4.1614   14.3735 C   0  0  0  0  0  0
    6.6621    3.0106   15.9427 C   0  0  0  0  0  0
    6.2846    3.5583   19.1749 C   0  0  0  0  0  0
    4.4480    4.8556   18.1672 C   0  0  0  0  0  0
    5.7352    3.2791   13.8882 C   0  0  0  0  0  0
    3.8088    4.6871   13.3824 C   0  0  0  0  0  0
    7.3281    4.3372   19.6624 C   0  0  0  0  0  0
    5.8710    2.4171   19.8614 C   0  0  0  0  0  0
    7.5568    2.8336   21.5463 C   0  0  0  0  0  0
    7.9743    3.9700   20.8344 C   0  0  0  0  0  0
    6.4994    2.0619   21.0534 C   0  0  0  0  0  0
    8.9480    3.0934   23.5796 C   0  0  0  0  0  0
   10.1125    2.7119   25.7288 C   0  0  0  0  0  0
    1.9708    6.3781   13.0818 C   0  0  0  0  0  0
   11.0339    3.7726   25.7174 C   0  0  0  0  0  0
   11.7901    4.0602   26.8529 C   0  0  0  0  0  0
    9.9802    1.9374   26.8843 C   0  0  0  0  0  0
   11.6447    3.2847   28.0030 C   0  0  0  0  0  0
   10.7421    2.2218   28.0173 C   0  0  0  0  0  0
    7.6417    2.5017   17.6481 H   0  0  0  0  0  0
    8.2692    1.8030   16.1581 H   0  0  0  0  0  0
    2.8820    5.7002   14.8474 H   0  0  0  0  0  0
    7.9707    1.4360   22.9960 H   0  0  0  0  0  0
    8.9718    1.3879   24.6510 H   0  0  0  0  0  0
    3.9707    5.1372   19.0809 H   0  0  0  0  0  0
    5.7909    2.9933   12.8472 H   0  0  0  0  0  0
    7.6338    5.2304   19.1365 H   0  0  0  0  0  0
    5.0461    1.8249   19.4898 H   0  0  0  0  0  0
    8.8000    4.5830   21.1575 H   0  0  0  0  0  0
    6.1661    1.1784   21.5760 H   0  0  0  0  0  0
    1.1679    6.6277   13.7607 H   0  0  0  0  0  0
    2.3710    7.3381   12.7780 H   0  0  0  0  0  0
    1.5706    5.9370   12.1781 H   0  0  0  0  0  0
   11.1938    4.3705   24.8341 H   0  0  0  0  0  0
    9.2858    1.1104   26.9128 H   0  0  0  0  0  0
   12.2370    3.5023   28.8797 H   0  0  0  0  0  0
   10.6353    1.6117   28.9028 H   0  0  0  0  0  0
  1 28  1  0  0  0
  2 11  1  0  0  0
  2 16  1  0  0  0
  3 18  2  0  0  0
  4 24  2  0  0  0
  5 14  2  0  0  0
  5 17  1  0  0  0
  6 14  1  0  0  0
  6 32  1  0  0  0
  6 33  1  0  0  0
  7 18  1  0  0  0
  7 26  1  0  0  0
  7 34  1  0  0  0
  8 21  1  0  0  0
  8 24  1  0  0  0
  8 35  1  0  0  0
  9 24  1  0  0  0
  9 25  1  0  0  0
  9 36  1  0  0  0
 10 11  2  0  0  0
 10 12  1  0  0  0
 10 14  1  0  0  0
 11 13  1  0  0  0
 12 15  1  0  0  0
 12 16  2  0  0  0
 13 17  2  0  0  0
 13 18  1  0  0  0
 15 19  2  0  0  0
 15 20  1  0  0  0
 16 37  1  0  0  0
 17 38  1  0  0  0
 19 22  1  0  0  0
 19 39  1  0  0  0
 20 23  2  0  0  0
 20 40  1  0  0  0
 21 22  2  0  0  0
 21 23  1  0  0  0
 22 41  1  0  0  0
 23 42  1  0  0  0
 25 27  1  0  0  0
 25 29  2  0  0  0
 26 43  1  0  0  0
 26 44  1  0  0  0
 26 45  1  0  0  0
 27 28  2  0  0  0
 27 46  1  0  0  0
 28 30  1  0  0  0
 29 31  1  0  0  0
 29 47  1  0  0  0
 30 31  2  0  0  0
 30 48  1  0  0  0
 31 49  1  0  0  0
M  END
> <s_m_entry_id>
49566

> <s_m_entry_name>
dock_pv.156

> <s_m_Source_Path>
/home/csk/Desktop/cluster/DUD-E-result/fgfr1

> <s_m_Source_File>
dock_pv.maegz

> <i_m_Source_File_Index>
156

> <chembl_id>
CHEMBL1982476

> <chembl_pref_name>
None

> <i_lp_mmshare_version>
53161

> <i_f3d_flags>
0

> <r_lp_tautomer_probability>
1

> <s_lp_Force_Field>
OPLS_2005

> <r_lp_Energy>
34.850863

> <b_lp_Chiralities_Consistent>
1

> <s_lp_Variant>
CHEMBL3650_lig2656-1

> <s_i_glide_gridfile>
glide-grid_3c4f

> <i_i_glide_lignum>
3275

> <i_i_glide_rotatable_bonds>
7

> <r_i_docking_score>
-7.23278070873703

> <r_i_glide_ligand_efficiency>
-0.233315506733453

> <r_i_glide_ligand_efficiency_sa>
-0.732932817916401

> <r_i_glide_ligand_efficiency_ln>
-1.63121370792879

> <r_i_glide_gscore>
-7.23278070873703

> <r_i_glide_lipo>
-3.06430005103985

> <r_i_glide_hbond>
-0.516529136261985

> <r_i_glide_metal>
0

> <r_i_glide_rewards>
-2.96695431893829

> <r_i_glide_evdw>
-14.5003538131714

> <r_i_glide_ecoul>
-1.95633852481842

> <r_i_glide_erotb>
0.491113762965767

> <r_i_glide_esite>
-0.157642496081339

> <r_i_glide_emodel>
-19.3133237311578

> <r_i_glide_energy>
-16.4566923379898

> <r_i_glide_einternal>
9.90234661102295

> <i_i_glide_confnum>
16

> <i_i_glide_posenum>
139

> <r_i_glide_eff_state_penalty>
0

> <s_user_duplicate_titles>
CHEMBL3650_lig2656

> <s_m_subgroup_title>
dock_pv

> <s_m_subgroupid>
dock_pv

> <b_m_subgroup_collapsed>
1

$$$$
CHEMBL3650_lig266
                    3D
 Schrodinger Suite 2021-1.
 42 44  0  0  1  0            999 V2000
    6.6900    3.7785   19.8420 C   0  0  0  0  0  0
    5.9634    2.5229   19.8528 C   0  0  0  0  0  0
    5.7491    4.7999   17.7087 C   0  0  0  0  0  0
    6.5733    4.7367   18.8984 C   0  0  0  0  0  0
    6.3049    1.9098   21.0016 N   0  0  0  0  0  0
    7.2396    2.6152   21.7250 C   0  0  0  0  0  0
    7.5379    3.7533   21.0182 C   0  0  0  0  0  0
    4.5259    5.4101   17.7333 N   0  0  0  0  0  0
    5.9779    4.3701   16.4081 C   0  0  0  0  0  0
    4.9459    4.8899   15.5987 C   0  0  0  0  0  0
    4.0305    5.4639   16.4606 C   0  0  0  0  0  0
    7.8556    2.3372   22.9484 C   0  0  0  0  0  0
    8.5045    4.6315   21.4843 C   0  0  0  0  0  0
    5.2689    3.2577   12.1086 C   0  0  0  0  0  0
    5.1713    2.0826   19.0259 O   0  0  0  0  0  0
    4.8690    4.8739   14.0895 C   0  0  0  0  0  0
    5.8084    2.1980   11.8037 O   0  0  0  0  0  0
    8.8415    3.2156   23.4328 C   0  0  0  0  0  0
    4.6033    3.4813   13.4718 C   0  0  0  0  0  0
    9.1713    4.3299   22.6637 C   0  0  0  0  0  0
    5.1701    4.3364   11.2806 O   0  0  0  0  0  0
    7.1694    3.5800   15.9445 C   0  0  0  0  0  0
    9.5125    3.1148   24.6365 O   0  0  0  0  0  0
    9.3989    1.9386   25.4247 C   0  0  0  0  0  0
    7.1852    5.6198   19.0145 H   0  0  0  0  0  0
    5.9529    0.9975   21.2359 H   0  0  0  0  0  0
    4.0836    5.7982   18.5530 H   0  0  0  0  0  0
    3.0855    5.9357   16.2518 H   0  0  0  0  0  0
    7.5704    1.4674   23.5096 H   0  0  0  0  0  0
    8.7487    5.5369   20.9578 H   0  0  0  0  0  0
    5.7740    5.3317   13.6822 H   0  0  0  0  0  0
    4.0638    5.5370   13.7726 H   0  0  0  0  0  0
    3.5468    3.2202   13.4612 H   0  0  0  0  0  0
    5.0850    2.7326   14.1020 H   0  0  0  0  0  0
    9.9455    4.9777   23.0179 H   0  0  0  0  0  0
    4.7803    5.1082   11.7120 H   0  0  0  0  0  0
    7.1797    2.5849   16.3912 H   0  0  0  0  0  0
    7.1720    3.4715   14.8608 H   0  0  0  0  0  0
    8.0981    4.0596   16.2538 H   0  0  0  0  0  0
    9.8447    2.1227   26.4027 H   0  0  0  0  0  0
    8.3654    1.6311   25.5951 H   0  0  0  0  0  0
    9.9709    1.1372   24.9624 H   0  0  0  0  0  0
  1  2  1  0  0  0
  1  4  2  0  0  0
  1  7  1  0  0  0
  2  5  1  0  0  0
  2 15  2  0  0  0
  3  4  1  0  0  0
  3  8  1  0  0  0
  3  9  2  0  0  0
  4 25  1  0  0  0
  5  6  1  0  0  0
  5 26  1  0  0  0
  6  7  1  0  0  0
  6 12  2  0  0  0
  7 13  2  0  0  0
  8 11  1  0  0  0
  8 27  1  0  0  0
  9 10  1  0  0  0
  9 22  1  0  0  0
 10 16  1  0  0  0
 10 11  2  0  0  0
 11 28  1  0  0  0
 12 18  1  0  0  0
 12 29  1  0  0  0
 13 20  1  0  0  0
 13 30  1  0  0  0
 14 19  1  0  0  0
 14 17  2  0  0  0
 14 21  1  0  0  0
 16 19  1  0  0  0
 16 31  1  0  0  0
 16 32  1  0  0  0
 18 20  2  0  0  0
 18 23  1  0  0  0
 19 33  1  0  0  0
 19 34  1  0  0  0
 20 35  1  0  0  0
 21 36  1  0  0  0
 22 37  1  0  0  0
 22 38  1  0  0  0
 22 39  1  0  0  0
 23 24  1  0  0  0
 24 40  1  0  0  0
 24 41  1  0  0  0
 24 42  1  0  0  0
M  END
> <s_m_entry_id>
49567

> <s_m_entry_name>
dock_pv.157

> <s_m_Source_Path>
/home/csk/Desktop/cluster/DUD-E-result/fgfr1

> <s_m_Source_File>
dock_pv.maegz

> <i_m_Source_File_Index>
157

> <chembl_id>
CHEMBL149243

> <chembl_pref_name>
None

> <i_lp_mmshare_version>
53161

> <i_f3d_flags>
0

> <r_lp_tautomer_probability>
1

> <s_lp_Force_Field>
OPLS_2005

> <r_lp_Energy>
33.898934

> <b_lp_Chiralities_Consistent>
1

> <s_lp_Variant>
CHEMBL3650_lig266-1

> <s_i_glide_gridfile>
glide-grid_3c4f

> <i_i_glide_lignum>
289

> <i_i_glide_rotatable_bonds>
6

> <r_i_docking_score>
-7.23054426990198

> <r_i_glide_ligand_efficiency>
-0.301272677912583

> <r_i_glide_ligand_efficiency_sa>
-0.869020779608971

> <r_i_glide_ligand_efficiency_ln>
-1.73060103184449

> <r_i_glide_gscore>
-7.23054426990198

> <r_i_glide_lipo>
-2.87398945055044

> <r_i_glide_hbond>
-0.146796472925632

> <r_i_glide_metal>
0

> <r_i_glide_rewards>
-2.21680921378654

> <r_i_glide_evdw>
-41.2851448059082

> <r_i_glide_ecoul>
-4.22023439407349

> <r_i_glide_erotb>
0.704343266767061

> <r_i_glide_esite>
0

> <r_i_glide_emodel>
-59.4779951712264

> <r_i_glide_energy>
-45.5053791999817

> <r_i_glide_einternal>
9.24290466308594

> <i_i_glide_confnum>
8

> <i_i_glide_posenum>
29

> <r_i_glide_eff_state_penalty>
0

> <s_user_duplicate_titles>
CHEMBL3650_lig266

> <s_m_subgroup_title>
dock_pv

> <s_m_subgroupid>
dock_pv

> <b_m_subgroup_collapsed>
1

$$$$
CHEMBL3650_lig1587
                    3D
 Schrodinger Suite 2021-1.
 45 49  0  0  1  0            999 V2000
    9.9625    3.0669   24.5101 C   0  0  0  0  0  0
    9.0006    3.0196   23.3490 C   0  0  0  0  0  0
    8.8173    4.0025   22.5110 N   0  0  0  0  0  0
    7.8087    3.5693   21.6945 C   0  0  0  0  0  0
    7.2081    4.2313   20.6259 C   0  0  0  0  0  0
    6.2195    3.5487   19.9097 C   0  0  0  0  0  0
    5.8163    2.2608   20.2451 C   0  0  0  0  0  0
    6.3717    1.5931   21.3274 C   0  0  0  0  0  0
    7.3815    2.2626   22.0328 C   0  0  0  0  0  0
    8.1885    1.9406   23.0933 N   0  0  0  0  0  0
    5.6877    4.1619   18.7797 N   0  0  0  0  0  0
    4.3724    4.3871   18.6530 N   0  0  0  0  0  0
    4.2375    5.1381   17.6019 C   0  0  0  0  0  0
    5.4544    5.2680   16.9589 C   0  0  0  0  0  0
    5.6890    5.7260   15.6539 C   0  0  0  0  0  0
    6.3315    6.7387   15.4312 O   0  0  0  0  0  0
    5.4074    4.7669   14.6444 C   0  0  0  0  0  0
    5.2449    3.4280   14.7661 C   0  0  0  0  0  0
    5.6392    2.9087   13.4336 C   0  0  1  0  0  0
    5.1729    1.6160   12.8493 C   0  0  0  0  0  0
    5.1710    1.5417   11.5132 C   0  0  0  0  0  0
    5.5335    2.6430   10.6376 C   0  0  0  0  0  0
    5.4950    3.8905   11.1272 C   0  0  0  0  0  0
    5.0790    4.0524   12.5787 C   0  0  2  0  0  0
    5.5709    5.1368   13.3485 N   0  0  0  0  0  0
    6.3912    4.6153   17.7067 C   0  0  0  0  0  0
    7.7061    4.3370   17.4868 N   0  0  0  0  0  0
   10.8262    3.6979   24.3016 H   0  0  0  0  0  0
    9.4843    3.4655   25.4041 H   0  0  0  0  0  0
   10.3371    2.0800   24.7734 H   0  0  0  0  0  0
    7.5259    5.2258   20.3445 H   0  0  0  0  0  0
    5.0685    1.7552   19.6466 H   0  0  0  0  0  0
    6.0692    0.5883   21.5222 H   0  0  0  0  0  0
    8.2452    1.0701   23.6241 H   0  0  0  0  0  0
    3.2728    5.4797   17.2518 H   0  0  0  0  0  0
    5.1802    2.8115   15.6516 H   0  0  0  0  0  0
    6.7276    2.8695   13.4392 H   0  0  0  0  0  0
    4.7662    0.8201   13.4527 H   0  0  0  0  0  0
    4.6061    0.7375   11.0979 H   0  0  0  0  0  0
    5.7782    2.4478    9.6076 H   0  0  0  0  0  0
    5.6698    4.7508   10.4978 H   0  0  0  0  0  0
    3.9842    4.0811   12.6064 H   0  0  0  0  0  0
    5.2422    6.0418   12.9953 H   0  0  0  0  0  0
    8.1759    4.6812   16.6565 H   0  0  0  0  0  0
    8.2804    3.8585   18.1635 H   0  0  0  0  0  0
  1  2  1  0  0  0
  1 28  1  0  0  0
  1 29  1  0  0  0
  1 30  1  0  0  0
  2  3  2  0  0  0
  2 10  1  0  0  0
  3  4  1  0  0  0
  4  5  2  0  0  0
  4  9  1  0  0  0
  5  6  1  0  0  0
  5 31  1  0  0  0
  6  7  2  0  0  0
  6 11  1  0  0  0
  7  8  1  0  0  0
  7 32  1  0  0  0
  8  9  2  0  0  0
  8 33  1  0  0  0
  9 10  1  0  0  0
 10 34  1  0  0  0
 11 12  1  0  0  0
 11 26  1  0  0  0
 12 13  2  0  0  0
 13 14  1  0  0  0
 13 35  1  0  0  0
 14 15  1  0  0  0
 14 26  2  0  0  0
 15 16  2  0  0  0
 15 17  1  0  0  0
 17 18  2  0  0  0
 17 25  1  0  0  0
 18 19  1  0  0  0
 18 36  1  0  0  0
 19 20  1  0  0  0
 19 24  1  0  0  0
 19 37  1  0  0  0
 20 21  2  0  0  0
 20 38  1  0  0  0
 21 22  1  0  0  0
 21 39  1  0  0  0
 22 23  2  0  0  0
 22 40  1  0  0  0
 23 24  1  0  0  0
 23 41  1  0  0  0
 24 25  1  0  0  0
 24 42  1  0  0  0
 25 43  1  0  0  0
 26 27  1  0  0  0
 27 44  1  0  0  0
 27 45  1  0  0  0
M  END
> <s_m_entry_id>
49568

> <s_m_entry_name>
dock_pv.158

> <s_m_Source_Path>
/home/csk/Desktop/cluster/DUD-E-result/fgfr1

> <s_m_Source_File>
dock_pv.maegz

> <i_m_Source_File_Index>
158

> <chembl_id>
CHEMBL3676312

> <chembl_pref_name>
None

> <i_lp_mmshare_version>
53161

> <i_f3d_flags>
0

> <r_lp_tautomer_probability>
1

> <s_lp_Force_Field>
OPLS_2005

> <r_lp_Energy>
54.833968

> <b_lp_Chiralities_Consistent>
1

> <s_lp_Variant>
CHEMBL3650_lig1587-4

> <s_i_glide_gridfile>
glide-grid_3c4f

> <i_i_glide_lignum>
1954

> <i_i_glide_rotatable_bonds>
3

> <r_i_docking_score>
-7.23027737618427

> <r_i_glide_ligand_efficiency>
-0.267788050969788

> <r_i_glide_ligand_efficiency_sa>
-0.803364152026778

> <r_i_glide_ligand_efficiency_ln>
-1.68308937273713

> <r_i_glide_gscore>
-7.23027737618427

> <r_i_glide_lipo>
-3.50510658183657

> <r_i_glide_hbond>
-0.456

> <r_i_glide_metal>
0

> <r_i_glide_rewards>
-1.71904799647977

> <r_i_glide_evdw>
-19.430757522583

> <r_i_glide_ecoul>
-6.00427055358887

> <r_i_glide_erotb>
0.447385849027186

> <r_i_glide_esite>
-0.125330187727648

> <r_i_glide_emodel>
-39.9444801539931

> <r_i_glide_energy>
-25.4350280761719

> <r_i_glide_einternal>
9.45476913452148

> <i_i_glide_confnum>
8

> <i_i_glide_posenum>
64

> <r_i_glide_eff_state_penalty>
0

> <s_user_duplicate_titles>
CHEMBL3650_lig1587

> <s_m_subgroup_title>
dock_pv

> <s_m_subgroupid>
dock_pv

> <b_m_subgroup_collapsed>
1

$$$$
CHEMBL3650_lig2738
                    3D
 Schrodinger Suite 2021-1.
 43 45  0  0  1  0            999 V2000
    2.0782    5.1370   16.6305 O   0  0  0  0  0  0
    3.5710    4.7370   13.4657 O   0  0  0  0  0  0
    6.4127    4.6219   19.4695 N   0  0  0  0  0  0
    4.2936    5.4252   16.3382 N   0  0  0  0  0  0
    5.8953    2.4744   20.2477 N   0  0  0  0  0  0
    6.7266    1.5370   22.3216 N   0  0  0  0  0  0
    8.5722    2.6923   23.3088 N   0  0  0  0  0  0
    6.6736    3.5700   20.3857 C   0  0  0  0  0  0
    7.6585    3.6014   21.4327 C   0  0  0  0  0  0
    5.7882    4.4147   18.1271 C   0  0  2  0  0  0
    7.5906    2.5332   22.3626 C   0  0  0  0  0  0
    6.8922    4.5477   17.0737 C   0  0  2  0  0  0
    4.5717    5.3565   17.8220 C   0  0  0  0  0  0
    8.7710    4.4056   21.8855 C   0  0  0  0  0  0
    6.3109    4.3726   15.6962 C   0  0  0  0  0  0
    5.9711    1.5374   21.2036 C   0  0  0  0  0  0
    9.3020    3.8117   23.0149 C   0  0  0  0  0  0
    5.4535    5.6150   15.4512 C   0  0  0  0  0  0
    3.0252    5.2659   15.8530 C   0  0  0  0  0  0
    7.1710    5.8328   19.7418 C   0  0  0  0  0  0
    7.9872    3.5738   17.3594 C   0  0  0  0  0  0
    2.6224    5.3095   14.3531 C   0  0  0  0  0  0
    3.9709    5.4439   12.9334 H   0  0  0  0  0  0
    8.7725    2.0746   24.0833 H   0  0  0  0  0  0
    5.3985    3.3977   18.0666 H   0  0  0  0  0  0
    7.3412    5.5370   17.1219 H   0  0  0  0  0  0
    4.7576    6.3370   18.2268 H   0  0  0  0  0  0
    3.7296    4.9151   18.3576 H   0  0  0  0  0  0
    9.1709    5.3022   21.4530 H   0  0  0  0  0  0
    5.8025    3.4197   15.5365 H   0  0  0  0  0  0
    7.1710    4.3370   15.0529 H   0  0  0  0  0  0
    5.3374    0.7028   21.0530 H   0  0  0  0  0  0
   10.1406    4.0869   23.6390 H   0  0  0  0  0  0
    5.2690    5.8688   14.4121 H   0  0  0  0  0  0
    5.9748    6.5094   15.7946 H   0  0  0  0  0  0
    6.9864    6.2492   20.7337 H   0  0  0  0  0  0
    8.2097    5.5496   19.6901 H   0  0  0  0  0  0
    7.0546    6.5776   18.9880 H   0  0  0  0  0  0
    7.5710    2.5699   17.4530 H   0  0  0  0  0  0
    8.7946    3.5699   16.6530 H   0  0  0  0  0  0
    8.4903    3.9370   18.2585 H   0  0  0  0  0  0
    2.3828    6.3312   14.0574 H   0  0  0  0  0  0
    1.6951    4.7493   14.2530 H   0  0  0  0  0  0
  1 19  2  0  0  0
  2 22  1  0  0  0
  2 23  1  0  0  0
  3  8  1  0  0  0
  3 10  1  0  0  0
  3 20  1  0  0  0
  4 13  1  0  0  0
  4 18  1  0  0  0
  4 19  1  0  0  0
  5  8  2  0  0  0
  5 16  1  0  0  0
  6 11  1  0  0  0
  6 16  2  0  0  0
  7 11  1  0  0  0
  7 17  1  0  0  0
  7 24  1  0  0  0
  8  9  1  0  0  0
  9 11  2  0  0  0
  9 14  1  0  0  0
 10 12  1  0  0  0
 10 13  1  0  0  0
 10 25  1  0  0  0
 12 15  1  0  0  0
 12 21  1  0  0  0
 12 26  1  0  0  0
 13 27  1  0  0  0
 13 28  1  0  0  0
 14 17  2  0  0  0
 14 29  1  0  0  0
 15 18  1  0  0  0
 15 30  1  0  0  0
 15 31  1  0  0  0
 16 32  1  0  0  0
 17 33  1  0  0  0
 18 34  1  0  0  0
 18 35  1  0  0  0
 19 22  1  0  0  0
 20 36  1  0  0  0
 20 37  1  0  0  0
 20 38  1  0  0  0
 21 39  1  0  0  0
 21 40  1  0  0  0
 21 41  1  0  0  0
 22 42  1  0  0  0
 22 43  1  0  0  0
M  END
> <s_m_entry_id>
49570

> <s_m_entry_name>
dock_pv.160

> <s_m_Source_Path>
/home/csk/Desktop/cluster/DUD-E-result/fgfr1

> <s_m_Source_File>
dock_pv.maegz

> <i_m_Source_File_Index>
160

> <chembl_id>
CHEMBL1969879

> <chembl_pref_name>
None

> <i_lp_mmshare_version>
53161

> <i_f3d_flags>
0

> <r_lp_tautomer_probability>
0.999998369746258

> <s_lp_Force_Field>
OPLS_2005

> <r_lp_Energy>
32.491869

> <b_lp_Chiralities_Consistent>
1

> <s_lp_Variant>
CHEMBL3650_lig2738-1

> <s_i_glide_gridfile>
glide-grid_3c4f

> <i_i_glide_lignum>
3405

> <i_i_glide_rotatable_bonds>
5

> <r_i_docking_score>
-7.19917573463199

> <r_i_glide_ligand_efficiency>
-0.32723526066509

> <r_i_glide_ligand_efficiency_sa>
-0.916926069816098

> <r_i_glide_ligand_efficiency_ln>
-1.75974114585934

> <r_i_glide_gscore>
-7.19917573463199

> <r_i_glide_lipo>
-2.08860154250535

> <r_i_glide_hbond>
-0.455378560695898

> <r_i_glide_metal>
0

> <r_i_glide_rewards>
-3.75539780937428

> <r_i_glide_evdw>
-12.3863954544067

> <r_i_glide_ecoul>
-5.60736799240112

> <r_i_glide_erotb>
0.560627149524052

> <r_i_glide_esite>
0

> <r_i_glide_emodel>
-27.6335989635902

> <r_i_glide_energy>
-17.9937634468079

> <r_i_glide_einternal>
12.5995559692383

> <i_i_glide_confnum>
23

> <i_i_glide_posenum>
71

> <r_i_glide_eff_state_penalty>
0

> <s_user_duplicate_titles>
CHEMBL3650_lig2738

> <s_m_subgroup_title>
dock_pv

> <s_m_subgroupid>
dock_pv

> <b_m_subgroup_collapsed>
1

$$$$
CHEMBL3650_lig2935
                    3D
 Schrodinger Suite 2021-1.
 40 43  0  0  1  0            999 V2000
    4.6742    5.5370   16.4700 S   0  0  0  0  0  0
    6.7710    1.5370   23.8929 O   0  0  0  0  0  0
    5.5710    6.6779   16.6530 O   0  0  0  0  0  0
    3.5054    5.5878   15.5863 O   0  0  0  0  0  0
    8.3756    3.6136   21.4880 N   0  0  0  0  0  0
    5.7053    4.2199   15.9152 N   0  0  1  0  0  0
    6.2628    1.9888   21.8166 N   0  0  0  0  0  0
    7.4490    3.5370   20.3954 C   0  0  0  0  0  0
    8.2726    2.7999   22.6072 C   0  0  0  0  0  0
    6.4122    2.6120   20.6020 C   0  0  0  0  0  0
    7.0996    2.0384   22.8548 C   0  0  0  0  0  0
    6.7834    3.6210   18.0538 C   0  0  0  0  0  0
    7.5710    4.0940   19.1146 C   0  0  0  0  0  0
    5.7172    4.0086   14.4481 C   0  0  0  0  0  0
    7.0014    4.0731   16.6208 C   0  0  0  0  0  0
    9.5083    4.3533   21.7198 C   0  0  0  0  0  0
    5.5710    2.2164   19.5804 C   0  0  0  0  0  0
    9.3641    2.9860   23.4420 C   0  0  0  0  0  0
    5.7968    2.6724   18.3023 C   0  0  0  0  0  0
    5.8775    2.5889   13.9337 C   0  0  0  0  0  0
    4.5306    3.2387   13.8965 C   0  0  0  0  0  0
   10.1722    3.9370   22.8571 C   0  0  0  0  0  0
    4.0447    5.1553   18.1939 C   0  0  0  0  0  0
    5.4647    1.3917   21.9521 H   0  0  0  0  0  0
    8.3710    4.7709   18.8953 H   0  0  0  0  0  0
    6.0698    4.8560   13.8556 H   0  0  0  0  0  0
    7.5710    3.2862   16.1330 H   0  0  0  0  0  0
    7.5728    4.9988   16.5411 H   0  0  0  0  0  0
    9.7767    5.1370   21.0530 H   0  0  0  0  0  0
    4.7593    1.5370   19.7612 H   0  0  0  0  0  0
    9.5353    2.4855   24.3857 H   0  0  0  0  0  0
    5.1570    2.3370   17.5057 H   0  0  0  0  0  0
    6.0854    1.8002   14.6530 H   0  0  0  0  0  0
    6.3710    2.4182   12.9799 H   0  0  0  0  0  0
    4.1131    3.5687   12.9445 H   0  0  0  0  0  0
    3.7620    2.8897   14.5839 H   0  0  0  0  0  0
   11.1013    4.3227   23.2519 H   0  0  0  0  0  0
    3.3471    5.9370   18.4834 H   0  0  0  0  0  0
    3.5710    4.1981   18.2530 H   0  0  0  0  0  0
    4.9017    5.1370   18.8479 H   0  0  0  0  0  0
  1  3  2  0  0  0
  1  4  2  0  0  0
  1  6  1  0  0  0
  1 23  1  0  0  0
  2 11  2  0  0  0
  5  8  1  0  0  0
  5  9  1  0  0  0
  5 16  1  0  0  0
  6 14  1  0  0  0
  6 15  1  0  0  0
  7 10  1  0  0  0
  7 11  1  0  0  0
  7 24  1  0  0  0
  8 10  1  0  0  0
  8 13  2  0  0  0
  9 11  1  0  0  0
  9 18  2  0  0  0
 10 17  2  0  0  0
 12 13  1  0  0  0
 12 15  1  0  0  0
 12 19  2  0  0  0
 13 25  1  0  0  0
 14 20  1  0  0  0
 14 21  1  0  0  0
 14 26  1  0  0  0
 15 27  1  0  0  0
 15 28  1  0  0  0
 16 22  2  0  0  0
 16 29  1  0  0  0
 17 19  1  0  0  0
 17 30  1  0  0  0
 18 22  1  0  0  0
 18 31  1  0  0  0
 19 32  1  0  0  0
 20 21  1  0  0  0
 20 33  1  0  0  0
 20 34  1  0  0  0
 21 35  1  0  0  0
 21 36  1  0  0  0
 22 37  1  0  0  0
 23 38  1  0  0  0
 23 39  1  0  0  0
 23 40  1  0  0  0
M  END
> <s_m_entry_id>
49571

> <s_m_entry_name>
dock_pv.161

> <s_m_Source_Path>
/home/csk/Desktop/cluster/DUD-E-result/fgfr1

> <s_m_Source_File>
dock_pv.maegz

> <i_m_Source_File_Index>
161

> <chembl_id>
CHEMBL1978448

> <chembl_pref_name>
None

> <i_lp_mmshare_version>
53161

> <i_f3d_flags>
0

> <r_lp_tautomer_probability>
1

> <s_lp_Force_Field>
OPLS_2005

> <r_lp_Energy>
23.272327

> <b_lp_Chiralities_Consistent>
1

> <s_lp_Variant>
CHEMBL3650_lig2935-1

> <s_i_glide_gridfile>
glide-grid_3c4f

> <i_i_glide_lignum>
3706

> <i_i_glide_rotatable_bonds>
4

> <r_i_docking_score>
-7.17940174659195

> <r_i_glide_ligand_efficiency>
-0.312147902025737

> <r_i_glide_ligand_efficiency_sa>
-0.887707110473134

> <r_i_glide_ligand_efficiency_ln>
-1.73604444154177

> <r_i_glide_gscore>
-7.17940174659195

> <r_i_glide_lipo>
-3.40486623264071

> <r_i_glide_hbond>
-0.286568296044751

> <r_i_glide_metal>
0

> <r_i_glide_rewards>
-2.80748064329061

> <r_i_glide_evdw>
-21.4696464538574

> <r_i_glide_ecoul>
-0.660858035087585

> <r_i_glide_erotb>
0.514134508131631

> <r_i_glide_esite>
-0.0220100547915007

> <r_i_glide_emodel>
-31.1089193374189

> <r_i_glide_energy>
-22.130504488945

> <r_i_glide_einternal>
3.12509036064148

> <i_i_glide_confnum>
50

> <i_i_glide_posenum>
149

> <r_i_glide_eff_state_penalty>
0

> <s_user_duplicate_titles>
CHEMBL3650_lig2935

> <s_m_subgroup_title>
dock_pv

> <s_m_subgroupid>
dock_pv

> <b_m_subgroup_collapsed>
1

$$$$
CHEMBL3650_lig3128
                    3D
 Schrodinger Suite 2021-1.
 37 39  0  0  1  0            999 V2000
    9.1713    4.2108   23.5875 F   0  0  0  0  0  0
    8.4108    2.3404   24.3702 F   0  0  0  0  0  0
    9.9891    2.3374   22.9064 F   0  0  0  0  0  0
    3.3090    5.1561   14.7281 O   0  0  0  0  0  0
    4.3626    5.9352   17.8480 O   0  0  0  0  0  0
    5.7645    2.9370   14.4837 N   0  0  0  0  0  0
    6.9428    3.9070   17.4529 N   0  0  0  0  0  0
    5.5163    3.2452   10.2853 N   0  0  0  0  0  0
    5.3996    3.8571   15.4452 C   0  0  0  0  0  0
    5.8670    4.2356   16.6652 C   0  0  0  0  0  0
    4.2414    4.8433   15.4671 C   0  0  0  0  0  0
    4.7367    5.2154   16.9208 C   0  0  0  0  0  0
    5.5960    3.0499   13.0993 C   0  0  0  0  0  0
    7.3150    4.5314   18.7175 C   0  0  0  0  0  0
    7.1131    3.6311   19.9274 C   0  0  0  0  0  0
    7.8702    2.8873   22.1219 C   0  0  0  0  0  0
    8.8700    2.9510   23.2756 C   0  0  0  0  0  0
    7.9818    3.7485   21.0225 C   0  0  0  0  0  0
    6.0853    2.6868   19.9662 C   0  0  0  0  0  0
    6.8477    1.9362   22.1313 C   0  0  0  0  0  0
    5.5714    1.9042   12.3060 C   0  0  0  0  0  0
    5.5708    4.2914   12.4666 C   0  0  0  0  0  0
    5.9709    1.8311   21.0545 C   0  0  0  0  0  0
    5.5282    2.0565   10.9183 C   0  0  0  0  0  0
    5.5334    4.3370   11.0736 C   0  0  0  0  0  0
    6.2334    2.0905   14.7698 H   0  0  0  0  0  0
    7.6799    3.3436   17.0516 H   0  0  0  0  0  0
    6.8112    5.4868   18.8697 H   0  0  0  0  0  0
    8.3715    4.7370   18.6367 H   0  0  0  0  0  0
    8.7789    4.4781   20.9963 H   0  0  0  0  0  0
    5.3924    2.5894   19.1425 H   0  0  0  0  0  0
    6.7512    1.2583   22.9655 H   0  0  0  0  0  0
    5.5798    0.9159   12.7389 H   0  0  0  0  0  0
    5.6412    5.2062   13.0363 H   0  0  0  0  0  0
    5.1801    1.0972   21.0523 H   0  0  0  0  0  0
    5.4669    1.2129   10.2594 H   0  0  0  0  0  0
    5.5711    5.2898   10.5691 H   0  0  0  0  0  0
  1 17  1  0  0  0
  2 17  1  0  0  0
  3 17  1  0  0  0
  4 11  2  0  0  0
  5 12  2  0  0  0
  6  9  1  0  0  0
  6 13  1  0  0  0
  6 26  1  0  0  0
  7 10  1  0  0  0
  7 14  1  0  0  0
  7 27  1  0  0  0
  8 24  2  0  0  0
  8 25  1  0  0  0
  9 10  2  0  0  0
  9 11  1  0  0  0
 10 12  1  0  0  0
 11 12  1  0  0  0
 13 21  2  0  0  0
 13 22  1  0  0  0
 14 15  1  0  0  0
 14 28  1  0  0  0
 14 29  1  0  0  0
 15 18  2  0  0  0
 15 19  1  0  0  0
 16 17  1  0  0  0
 16 18  1  0  0  0
 16 20  2  0  0  0
 18 30  1  0  0  0
 19 23  2  0  0  0
 19 31  1  0  0  0
 20 23  1  0  0  0
 20 32  1  0  0  0
 21 24  1  0  0  0
 21 33  1  0  0  0
 22 25  2  0  0  0
 22 34  1  0  0  0
 23 35  1  0  0  0
 24 36  1  0  0  0
 25 37  1  0  0  0
M  END
> <s_m_entry_id>
49573

> <s_m_entry_name>
dock_pv.163

> <s_m_Source_Path>
/home/csk/Desktop/cluster/DUD-E-result/fgfr1

> <s_m_Source_File>
dock_pv.maegz

> <i_m_Source_File_Index>
163

> <chembl_id>
CHEMBL1979252

> <chembl_pref_name>
None

> <i_lp_mmshare_version>
53161

> <i_f3d_flags>
0

> <r_lp_tautomer_probability>
1

> <s_lp_Force_Field>
OPLS_2005

> <r_lp_Energy>
52.279986

> <b_lp_Chiralities_Consistent>
1

> <s_lp_Variant>
CHEMBL3650_lig3128-1

> <s_i_glide_gridfile>
glide-grid_3c4f

> <i_i_glide_lignum>
4006

> <i_i_glide_rotatable_bonds>
6

> <r_i_docking_score>
-7.14998966194276

> <r_i_glide_ligand_efficiency>
-0.285999586477711

> <r_i_glide_ligand_efficiency_sa>
-0.836267863085089

> <r_i_glide_ligand_efficiency_ln>
-1.69476181778025

> <r_i_glide_gscore>
-7.14998966194276

> <r_i_glide_lipo>
-2.95167904574174

> <r_i_glide_hbond>
-0.195204199081447

> <r_i_glide_metal>
0

> <r_i_glide_rewards>
-2.49765549918869

> <r_i_glide_evdw>
-38.7620124816895

> <r_i_glide_ecoul>
-2.37294125556946

> <r_i_glide_erotb>
0.788590894489008

> <r_i_glide_esite>
0

> <r_i_glide_emodel>
-48.0547150251338

> <r_i_glide_energy>
-41.1349537372589

> <r_i_glide_einternal>
10.8641376495361

> <i_i_glide_confnum>
49

> <i_i_glide_posenum>
303

> <r_i_glide_eff_state_penalty>
0

> <s_user_duplicate_titles>
CHEMBL3650_lig3128

> <s_m_subgroup_title>
dock_pv

> <s_m_subgroupid>
dock_pv

> <b_m_subgroup_collapsed>
1

$$$$
CHEMBL3650_lig3212
                    3D
 Schrodinger Suite 2021-1.
 41 44  0  0  1  0            999 V2000
    5.1710    1.5370   11.3986 O   0  0  0  0  0  0
    5.7099    5.9412   17.2437 O   0  0  0  0  0  0
    5.7517    2.9639   14.4789 N   0  0  0  0  0  0
    6.7710    2.3369   15.0512 N   0  0  0  0  0  0
    6.9562    2.8693   16.2963 N   0  0  0  0  0  0
    5.1709    1.4088   12.7825 N   0  0  0  0  0  0
    5.3947    2.8316   10.9655 N   0  0  0  0  0  0
    6.9309    4.5658   18.5491 N   0  0  0  0  0  0
    5.9710    4.7370   12.0944 N   0  0  0  0  0  0
    7.1710    5.5371   19.4543 N   0  0  0  0  0  0
    7.1710    1.5370   22.6995 N   0  0  0  0  0  0
    5.2311    3.9231   15.3276 C   0  0  0  0  0  0
    6.1311    3.8790   16.4177 C   0  0  0  0  0  0
    5.4589    2.6109   13.1800 C   0  0  0  0  0  0
    4.0021    4.7609   15.1036 C   0  0  0  0  0  0
    6.2357    4.8627   17.4391 C   0  0  0  0  0  0
    5.5825    3.4539   12.0894 C   0  0  0  0  0  0
    3.5137    5.1257   13.8530 C   0  0  0  0  0  0
    3.2383    5.1370   16.2147 C   0  0  0  0  0  0
    2.3711    5.8538   13.6904 C   0  0  0  0  0  0
    1.9381    5.5370   16.0373 C   0  0  0  0  0  0
    1.5723    5.9370   14.7726 C   0  0  0  0  0  0
    7.5525    5.2181   20.6241 C   0  0  0  0  0  0
    7.4459    3.9246   21.2872 C   0  0  0  0  0  0
    6.3895    3.0440   21.0099 C   0  0  0  0  0  0
    8.3733    3.5761   22.2762 C   0  0  0  0  0  0
    6.3105    1.8534   21.7110 C   0  0  0  0  0  0
    8.1952    2.3800   22.9652 C   0  0  0  0  0  0
    7.2730    3.6402   18.7618 H   0  0  0  0  0  0
    6.6615    5.0549   12.7749 H   0  0  0  0  0  0
    5.3548    5.4875   11.7775 H   0  0  0  0  0  0
    3.8984    4.8588   12.9173 H   0  0  0  0  0  0
    3.5352    4.8847   17.2205 H   0  0  0  0  0  0
    2.0611    6.2191   12.7214 H   0  0  0  0  0  0
    1.2878    5.6997   16.8840 H   0  0  0  0  0  0
    0.7710    6.5661   14.6066 H   0  0  0  0  0  0
    7.9716    5.9942   21.2592 H   0  0  0  0  0  0
    5.6249    3.2662   20.2797 H   0  0  0  0  0  0
    9.2010    4.2234   22.5291 H   0  0  0  0  0  0
    5.5376    1.1375   21.4829 H   0  0  0  0  0  0
    8.8750    2.0749   23.7479 H   0  0  0  0  0  0
  1  6  1  0  0  0
  1  7  1  0  0  0
  2 16  2  0  0  0
  3  4  1  0  0  0
  3 12  1  0  0  0
  3 14  1  0  0  0
  4  5  2  0  0  0
  5 13  1  0  0  0
  6 14  2  0  0  0
  7 17  2  0  0  0
  8 10  1  0  0  0
  8 16  1  0  0  0
  8 29  1  0  0  0
  9 17  1  0  0  0
  9 30  1  0  0  0
  9 31  1  0  0  0
 10 23  2  3  0  0
 11 27  2  0  0  0
 11 28  1  0  0  0
 12 13  2  0  0  0
 12 15  1  0  0  0
 13 16  1  0  0  0
 14 17  1  0  0  0
 15 18  2  0  0  0
 15 19  1  0  0  0
 18 20  1  0  0  0
 18 32  1  0  0  0
 19 21  2  0  0  0
 19 33  1  0  0  0
 20 22  2  0  0  0
 20 34  1  0  0  0
 21 22  1  0  0  0
 21 35  1  0  0  0
 22 36  1  0  0  0
 23 24  1  0  0  0
 23 37  1  0  0  0
 24 25  2  0  0  0
 24 26  1  0  0  0
 25 27  1  0  0  0
 25 38  1  0  0  0
 26 28  2  0  0  0
 26 39  1  0  0  0
 27 40  1  0  0  0
 28 41  1  0  0  0
M  END
> <s_m_entry_id>
49574

> <s_m_entry_name>
dock_pv.164

> <s_m_Source_Path>
/home/csk/Desktop/cluster/DUD-E-result/fgfr1

> <s_m_Source_File>
dock_pv.maegz

> <i_m_Source_File_Index>
164

> <chembl_id>
CHEMBL1419458

> <chembl_pref_name>
None

> <i_lp_mmshare_version>
53161

> <i_f3d_flags>
0

> <r_lp_tautomer_probability>
1

> <s_lp_Force_Field>
OPLS_2005

> <r_lp_Energy>
30.437881

> <b_lp_Chiralities_Consistent>
1

> <s_lp_Variant>
CHEMBL3650_lig3212-2

> <s_i_glide_gridfile>
glide-grid_3c4f

> <i_i_glide_lignum>
4151

> <i_i_glide_rotatable_bonds>
6

> <r_i_docking_score>
-7.14380118721057

> <r_i_glide_ligand_efficiency>
-0.255135756686092

> <r_i_glide_ligand_efficiency_sa>
-0.774742424223606

> <r_i_glide_ligand_efficiency_ln>
-1.64899906512531

> <r_i_glide_gscore>
-7.14380118721057

> <r_i_glide_lipo>
-2.4123014202184

> <r_i_glide_hbond>
-0.523985435755338

> <r_i_glide_metal>
0

> <r_i_glide_rewards>
-3.19803098105812

> <r_i_glide_evdw>
-9.76796913146973

> <r_i_glide_ecoul>
-7.28062057495117

> <r_i_glide_erotb>
0.686591051405743

> <r_i_glide_esite>
-0.115582858768299

> <r_i_glide_emodel>
-22.1743293217991

> <r_i_glide_energy>
-17.0485897064209

> <r_i_glide_einternal>
15.0600757598877

> <i_i_glide_confnum>
70

> <i_i_glide_posenum>
233

> <r_i_glide_eff_state_penalty>
0

> <s_user_duplicate_titles>
CHEMBL3650_lig3212

> <s_m_subgroup_title>
dock_pv

> <s_m_subgroupid>
dock_pv

> <b_m_subgroup_collapsed>
1

$$$$
CHEMBL3650_lig90
                    3D
 Schrodinger Suite 2021-1.
 40 42  0  0  1  0            999 V2000
    4.3687    5.0078   16.4206 N   0  0  0  0  0  0
    5.9495    4.0690   18.0115 C   0  0  0  0  0  0
    5.0616    4.4347   15.3252 C   0  0  0  0  0  0
    4.6981    4.8085   17.7485 C   0  0  0  0  0  0
    4.5973    4.6056   14.0494 N   0  0  0  0  0  0
    6.1172    3.5779   15.6086 C   0  0  0  0  0  0
    6.6103    3.4832   16.9834 C   0  0  0  0  0  0
    6.4120    3.7564   19.4108 C   0  0  0  0  0  0
    5.1249    3.8055   13.0886 C   0  0  0  0  0  0
    5.9788    2.7871   13.3350 N   0  0  0  0  0  0
    6.4755    2.7128   14.5920 C   0  0  0  0  0  0
    3.9229    5.1371   18.6422 O   0  0  0  0  0  0
    4.7713    4.1339   11.7732 N   0  0  0  0  0  0
    7.0713    4.6828   20.2391 C   0  0  0  0  0  0
    6.2520    2.4620   19.9338 C   0  0  0  0  0  0
    2.9934    5.4484   16.0994 C   0  0  0  0  0  0
    5.5711    1.2047   18.9944 Cl  0  0  0  0  0  0
    7.1711    6.3371   19.8485 Cl  0  0  0  0  0  0
    5.3218    3.6406   10.5033 C   0  0  0  0  0  0
    7.4139    3.0334   21.9657 C   0  0  0  0  0  0
    6.7103    2.1141   21.2065 C   0  0  0  0  0  0
    7.6014    4.3172   21.4709 C   0  0  0  0  0  0
    4.3731    3.9368    9.3267 C   0  0  0  0  0  0
    5.7537    2.1678   10.4827 C   0  0  0  0  0  0
    7.4964    2.9008   17.1826 H   0  0  0  0  0  0
    7.1708    1.9329   14.8015 H   0  0  0  0  0  0
    4.3179    5.0383   11.7266 H   0  0  0  0  0  0
    2.3361    5.5444   16.9603 H   0  0  0  0  0  0
    3.0048    6.3372   15.4758 H   0  0  0  0  0  0
    2.5007    4.6976   15.4839 H   0  0  0  0  0  0
    6.2040    4.2447   10.3108 H   0  0  0  0  0  0
    7.8114    2.7536   22.9323 H   0  0  0  0  0  0
    6.5817    1.1081   21.5678 H   0  0  0  0  0  0
    8.1337    5.0433   22.0666 H   0  0  0  0  0  0
    4.8113    4.6691    8.6530 H   0  0  0  0  0  0
    3.4054    4.3272    9.6327 H   0  0  0  0  0  0
    4.1930    3.0561    8.7100 H   0  0  0  0  0  0
    5.9684    1.8458    9.4656 H   0  0  0  0  0  0
    6.6645    1.9851   11.0529 H   0  0  0  0  0  0
    4.9582    1.5353   10.8740 H   0  0  0  0  0  0
  1  3  1  0  0  0
  1  4  1  0  0  0
  1 16  1  0  0  0
  2  4  1  0  0  0
  2  7  2  0  0  0
  2  8  1  0  0  0
  3  5  1  0  0  0
  3  6  2  0  0  0
  4 12  2  0  0  0
  5  9  2  0  0  0
  6 11  1  0  0  0
  6  7  1  0  0  0
  7 25  1  0  0  0
  8 14  2  0  0  0
  8 15  1  0  0  0
  9 13  1  0  0  0
  9 10  1  0  0  0
 10 11  2  0  0  0
 11 26  1  0  0  0
 13 19  1  0  0  0
 13 27  1  0  0  0
 14 18  1  0  0  0
 14 22  1  0  0  0
 15 17  1  0  0  0
 15 21  2  0  0  0
 16 28  1  0  0  0
 16 29  1  0  0  0
 16 30  1  0  0  0
 19 23  1  0  0  0
 19 24  1  0  0  0
 19 31  1  0  0  0
 20 21  1  0  0  0
 20 22  2  0  0  0
 20 32  1  0  0  0
 21 33  1  0  0  0
 22 34  1  0  0  0
 23 35  1  0  0  0
 23 36  1  0  0  0
 23 37  1  0  0  0
 24 38  1  0  0  0
 24 39  1  0  0  0
 24 40  1  0  0  0
M  END
> <s_m_entry_id>
49576

> <s_m_entry_name>
dock_pv.166

> <s_m_Source_Path>
/home/csk/Desktop/cluster/DUD-E-result/fgfr1

> <s_m_Source_File>
dock_pv.maegz

> <i_m_Source_File_Index>
166

> <chembl_id>
CHEMBL109759

> <chembl_pref_name>
None

> <i_lp_mmshare_version>
53161

> <i_f3d_flags>
0

> <r_lp_tautomer_probability>
1

> <s_lp_Force_Field>
OPLS_2005

> <r_lp_Energy>
20.719516

> <b_lp_Chiralities_Consistent>
1

> <s_lp_Variant>
CHEMBL3650_lig90-1

> <s_i_glide_gridfile>
glide-grid_3c4f

> <i_i_glide_lignum>
112

> <i_i_glide_rotatable_bonds>
3

> <r_i_docking_score>
-7.13209410771754

> <r_i_glide_ligand_efficiency>
-0.297170587821564

> <r_i_glide_ligand_efficiency_sa>
-0.857188304279238

> <r_i_glide_ligand_efficiency_ln>
-1.70703739045018

> <r_i_glide_gscore>
-7.13209410771754

> <r_i_glide_lipo>
-2.95380617345688

> <r_i_glide_hbond>
-0.447603697692524

> <r_i_glide_metal>
0

> <r_i_glide_rewards>
-2.61541032159247

> <r_i_glide_evdw>
-28.5697593688965

> <r_i_glide_ecoul>
0.609677672386169

> <r_i_glide_erotb>
0.291202573140033

> <r_i_glide_esite>
-0.0694401705287877

> <r_i_glide_emodel>
-59.9684518637132

> <r_i_glide_energy>
-27.9600816965103

> <r_i_glide_einternal>
3.03150224685669

> <i_i_glide_confnum>
2

> <i_i_glide_posenum>
25

> <r_i_glide_eff_state_penalty>
0

> <s_user_duplicate_titles>
CHEMBL3650_lig90,184123

> <s_m_subgroup_title>
dock_pv

> <s_m_subgroupid>
dock_pv

> <b_m_subgroup_collapsed>
1

$$$$
CHEMBL3650_lig2717
                    3D
 Schrodinger Suite 2021-1.
 40 43  0  0  1  0            999 V2000
    5.9710    1.3081   20.8832 S   0  0  0  0  0  0
    6.1710    3.1268   13.9603 O   0  0  0  0  0  0
    4.5844    4.7306   13.7924 O   0  0  0  0  0  0
   10.3463    3.7986   25.4406 O   0  0  0  0  0  0
    8.1357    5.2419   21.0731 N   0  0  0  0  0  0
    7.1710    5.7748   19.0527 N   0  0  0  0  0  0
   10.7704    3.1400   23.3081 N   0  0  0  0  0  0
    6.7528    3.6057   19.9733 C   0  0  0  0  0  0
    5.9867    3.0432   18.9083 C   0  0  0  0  0  0
    6.9222    2.7534   21.1086 C   0  0  0  0  0  0
    5.6971    3.6723   17.5874 C   0  0  0  0  0  0
    7.3617    4.8537   20.0533 C   0  0  0  0  0  0
    7.7431    3.1315   22.2004 C   0  0  0  0  0  0
    5.5709    1.7913   19.2608 C   0  0  0  0  0  0
    5.8663    3.5956   15.2005 C   0  0  0  0  0  0
    6.3000    3.1376   16.4380 C   0  0  0  0  0  0
    4.9201    4.5738   15.0954 C   0  0  0  0  0  0
    4.7760    4.7361   17.4734 C   0  0  0  0  0  0
    8.3561    4.3773   22.0696 C   0  0  0  0  0  0
    4.3665    5.1872   16.2117 C   0  0  0  0  0  0
    7.9038    2.3043   23.4231 C   0  0  0  0  0  0
    5.5457    4.0131   13.0678 C   0  0  0  0  0  0
    8.8493    2.3424   24.3978 C   0  0  0  0  0  0
   10.0374    3.1600   24.4372 C   0  0  0  0  0  0
   12.0331    3.8437   23.0992 C   0  0  0  0  0  0
    6.7251    5.4796   18.1921 H   0  0  0  0  0  0
    7.6980    6.6327   19.0922 H   0  0  0  0  0  0
   10.4223    2.5895   22.5367 H   0  0  0  0  0  0
    4.9664    1.1356   18.6528 H   0  0  0  0  0  0
    7.0128    2.3304   16.5130 H   0  0  0  0  0  0
    4.3143    5.1479   18.3593 H   0  0  0  0  0  0
    8.9404    4.8212   22.8555 H   0  0  0  0  0  0
    3.5985    5.9367   16.1124 H   0  0  0  0  0  0
    7.1155    1.5829   23.5806 H   0  0  0  0  0  0
    5.0731    3.4761   12.2449 H   0  0  0  0  0  0
    6.2778    4.7165   12.6618 H   0  0  0  0  0  0
    8.7536    1.7011   25.2622 H   0  0  0  0  0  0
   11.9451    4.5265   22.2542 H   0  0  0  0  0  0
   12.8221    3.1327   22.8605 H   0  0  0  0  0  0
   12.3611    4.4080   23.9736 H   0  0  0  0  0  0
  1 10  1  0  0  0
  1 14  1  0  0  0
  2 15  1  0  0  0
  2 22  1  0  0  0
  3 17  1  0  0  0
  3 22  1  0  0  0
  4 24  2  0  0  0
  5 12  2  0  0  0
  5 19  1  0  0  0
  6 12  1  0  0  0
  6 26  1  0  0  0
  6 27  1  0  0  0
  7 24  1  0  0  0
  7 25  1  0  0  0
  7 28  1  0  0  0
  8  9  1  0  0  0
  8 10  2  0  0  0
  8 12  1  0  0  0
  9 11  1  0  0  0
  9 14  2  0  0  0
 10 13  1  0  0  0
 11 16  1  0  0  0
 11 18  2  0  0  0
 13 19  2  0  0  0
 13 21  1  0  0  0
 14 29  1  0  0  0
 15 16  2  0  0  0
 15 17  1  0  0  0
 16 30  1  0  0  0
 17 20  2  0  0  0
 18 20  1  0  0  0
 18 31  1  0  0  0
 19 32  1  0  0  0
 20 33  1  0  0  0
 21 23  2  3  0  0
 21 34  1  0  0  0
 22 35  1  0  0  0
 22 36  1  0  0  0
 23 24  1  0  0  0
 23 37  1  0  0  0
 25 38  1  0  0  0
 25 39  1  0  0  0
 25 40  1  0  0  0
M  END
> <s_m_entry_id>
49577

> <s_m_entry_name>
dock_pv.167

> <s_m_Source_Path>
/home/csk/Desktop/cluster/DUD-E-result/fgfr1

> <s_m_Source_File>
dock_pv.maegz

> <i_m_Source_File_Index>
167

> <chembl_id>
CHEMBL1993243

> <chembl_pref_name>
None

> <i_lp_mmshare_version>
53161

> <i_f3d_flags>
0

> <r_lp_tautomer_probability>
1

> <s_lp_Force_Field>
OPLS_2005

> <r_lp_Energy>
37.137365

> <b_lp_Chiralities_Consistent>
1

> <s_lp_Variant>
CHEMBL3650_lig2717-2

> <s_i_glide_gridfile>
glide-grid_3c4f

> <i_i_glide_lignum>
3376

> <i_i_glide_rotatable_bonds>
4

> <r_i_docking_score>
-7.12842600073963

> <r_i_glide_ligand_efficiency>
-0.285137040029585

> <r_i_glide_ligand_efficiency_sa>
-0.833745761973444

> <r_i_glide_ligand_efficiency_ln>
-1.68965058386432

> <r_i_glide_gscore>
-7.12842600073963

> <r_i_glide_lipo>
-3.38604072517964

> <r_i_glide_hbond>
-0.240734017164539

> <r_i_glide_metal>
0

> <r_i_glide_rewards>
-2.27144328786718

> <r_i_glide_evdw>
-29.6224174499512

> <r_i_glide_ecoul>
-0.988265931606293

> <r_i_glide_erotb>
0.458720369289522

> <r_i_glide_esite>
-0.0595675775792875

> <r_i_glide_emodel>
-32.8529320967089

> <r_i_glide_energy>
-30.6106833815575

> <r_i_glide_einternal>
3.59366250038147

> <i_i_glide_confnum>
28

> <i_i_glide_posenum>
382

> <r_i_glide_eff_state_penalty>
0

> <s_user_duplicate_titles>
CHEMBL3650_lig2717,CHEMBL3650_lig2717

> <s_m_subgroup_title>
dock_pv

> <s_m_subgroupid>
dock_pv

> <b_m_subgroup_collapsed>
1

$$$$
CHEMBL3650_lig2574
                    3D
 Schrodinger Suite 2021-1.
 31 33  0  0  1  0            999 V2000
    6.3710    2.2997   13.8867 F   0  0  0  0  0  0
    5.5710    4.0606   12.9448 F   0  0  0  0  0  0
    4.2735    2.7370   14.0438 F   0  0  0  0  0  0
    9.1830    2.4984   23.5428 O   0  0  0  0  0  0
    5.6461    2.0193   19.0860 N   0  0  0  0  0  0
    5.9710    1.4719   20.2611 N   0  0  0  0  0  0
    7.4459    1.9930   22.1820 N   0  0  0  0  0  0
    6.8886    3.4659   20.2818 C   0  0  0  0  0  0
    6.2248    3.2098   19.0405 C   0  0  0  0  0  0
    6.7573    2.2883   21.0118 C   0  0  0  0  0  0
    6.0743    3.9997   17.7591 C   0  0  0  0  0  0
    7.6812    4.5093   20.9588 C   0  0  0  0  0  0
    5.6985    4.0335   15.3299 C   0  0  0  0  0  0
    6.0827    3.3673   16.5061 C   0  0  0  0  0  0
    8.3729    2.8414   22.6882 C   0  0  0  0  0  0
    8.3710    4.1595   22.0764 C   0  0  0  0  0  0
    5.4886    3.2781   14.0209 C   0  0  0  0  0  0
    5.8387    5.3679   17.7597 C   0  0  0  0  0  0
    5.4691    5.4069   15.3802 C   0  0  0  0  0  0
    5.5714    6.0677   16.5946 C   0  0  0  0  0  0
    7.7087    5.9313   20.4737 C   0  0  0  0  0  0
    5.6842    0.5334   20.5028 H   0  0  0  0  0  0
    7.5710    1.0517   22.5206 H   0  0  0  0  0  0
    6.3710    2.3370   16.4561 H   0  0  0  0  0  0
    8.9532    4.9096   22.5894 H   0  0  0  0  0  0
    5.8504    5.9370   18.6530 H   0  0  0  0  0  0
    5.2250    5.9616   14.4835 H   0  0  0  0  0  0
    5.4788    7.1370   16.6530 H   0  0  0  0  0  0
    8.3722    6.5606   21.0530 H   0  0  0  0  0  0
    7.9710    5.9370   19.4225 H   0  0  0  0  0  0
    6.7710    6.4255   20.6023 H   0  0  0  0  0  0
  1 17  1  0  0  0
  2 17  1  0  0  0
  3 17  1  0  0  0
  4 15  2  0  0  0
  5  6  1  0  0  0
  5  9  2  0  0  0
  6 10  1  0  0  0
  6 22  1  0  0  0
  7 10  1  0  0  0
  7 15  1  0  0  0
  7 23  1  0  0  0
  8  9  1  0  0  0
  8 10  2  0  0  0
  8 12  1  0  0  0
  9 11  1  0  0  0
 11 14  1  0  0  0
 11 18  2  0  0  0
 12 16  2  0  0  0
 12 21  1  0  0  0
 13 14  2  0  0  0
 13 17  1  0  0  0
 13 19  1  0  0  0
 14 24  1  0  0  0
 15 16  1  0  0  0
 16 25  1  0  0  0
 18 20  1  0  0  0
 18 26  1  0  0  0
 19 20  2  0  0  0
 19 27  1  0  0  0
 20 28  1  0  0  0
 21 29  1  0  0  0
 21 30  1  0  0  0
 21 31  1  0  0  0
M  END
> <s_m_entry_id>
49578

> <s_m_entry_name>
dock_pv.168

> <s_m_Source_Path>
/home/csk/Desktop/cluster/DUD-E-result/fgfr1

> <s_m_Source_File>
dock_pv.maegz

> <i_m_Source_File_Index>
168

> <chembl_id>
CHEMBL1991377

> <chembl_pref_name>
None

> <i_lp_mmshare_version>
53161

> <i_f3d_flags>
0

> <r_lp_tautomer_probability>
1

> <s_lp_Force_Field>
OPLS_2005

> <r_lp_Energy>
27.517932

> <b_lp_Chiralities_Consistent>
1

> <s_lp_Variant>
CHEMBL3650_lig2574-1

> <s_i_glide_gridfile>
glide-grid_3c4f

> <i_i_glide_lignum>
3158

> <i_i_glide_rotatable_bonds>
2

> <r_i_docking_score>
-7.11998850945485

> <r_i_glide_ligand_efficiency>
-0.339047071878803

> <r_i_glide_ligand_efficiency_sa>
-0.935405162588369

> <r_i_glide_ligand_efficiency_ln>
-1.76040277167124

> <r_i_glide_gscore>
-7.11998850945485

> <r_i_glide_lipo>
-2.48697040850825

> <r_i_glide_hbond>
-0.0732484432244896

> <r_i_glide_metal>
0

> <r_i_glide_rewards>
-3.10519126162751

> <r_i_glide_evdw>
-31.7772655487061

> <r_i_glide_ecoul>
-0.077565036714077

> <r_i_glide_erotb>
0.212458973942849

> <r_i_glide_esite>
-0.0665393370950383

> <r_i_glide_emodel>
-35.7147901551467

> <r_i_glide_energy>
-31.8548305854201

> <r_i_glide_einternal>
0.377366721630096

> <i_i_glide_confnum>
3

> <i_i_glide_posenum>
132

> <r_i_glide_eff_state_penalty>
0

> <s_user_duplicate_titles>
CHEMBL3650_lig2574

> <s_m_subgroup_title>
dock_pv

> <s_m_subgroupid>
dock_pv

> <b_m_subgroup_collapsed>
1

$$$$
CHEMBL3650_lig3170
                    3D
 Schrodinger Suite 2021-1.
 42 45  0  0  1  0            999 V2000
    6.3710    1.5370   21.5444 S   0  0  0  0  0  0
    4.1857    4.7370   14.0878 S   0  0  0  0  0  0
   11.3446    3.7369   23.4723 O   0  0  0  0  0  0
    8.3710    5.5119   21.3661 N   0  0  0  0  0  0
    6.0526    2.9913   14.5266 N   0  0  0  0  0  0
    7.1710    5.9370   19.4516 N   0  0  0  0  0  0
   11.2171    4.0032   25.7185 N   0  0  0  0  0  0
    7.0044    3.7607   20.4287 C   0  0  0  0  0  0
    6.1740    3.1027   19.4647 C   0  0  0  0  0  0
    7.3282    2.9714   21.5691 C   0  0  0  0  0  0
    5.7604    3.6487   18.1451 C   0  0  0  0  0  0
    7.5377    5.0474   20.4274 C   0  0  0  0  0  0
    8.2491    3.4048   22.5486 C   0  0  0  0  0  0
    5.8014    1.8733   19.9379 C   0  0  0  0  0  0
    5.7648    3.5393   15.7393 C   0  0  0  0  0  0
    4.7710    4.5465   15.7184 C   0  0  0  0  0  0
    6.3118    3.1370   16.9678 C   0  0  0  0  0  0
    4.7908    4.6512   18.0976 C   0  0  0  0  0  0
    8.7710    4.6698   22.3197 C   0  0  0  0  0  0
    4.3296    5.1633   16.8900 C   0  0  0  0  0  0
    5.3045    3.4915   13.5791 C   0  0  0  0  0  0
    8.5507    2.6410   23.7863 C   0  0  0  0  0  0
    9.5840    2.7199   24.6635 C   0  0  0  0  0  0
    5.3625    2.9982   12.1526 C   0  0  0  0  0  0
   10.7710    3.5370   24.5436 C   0  0  0  0  0  0
   12.4312    4.8000   25.8772 C   0  0  0  0  0  0
    6.6214    5.6106   18.6646 H   0  0  0  0  0  0
    7.5601    6.8664   19.4700 H   0  0  0  0  0  0
   10.6946    3.7950   26.5556 H   0  0  0  0  0  0
    5.1710    1.1508   19.4373 H   0  0  0  0  0  0
    7.0614    2.3616   17.0047 H   0  0  0  0  0  0
    4.3569    5.0158   19.0149 H   0  0  0  0  0  0
    9.4179    5.1370   23.0343 H   0  0  0  0  0  0
    3.5710    5.9277   16.8623 H   0  0  0  0  0  0
    7.7797    1.9370   24.0581 H   0  0  0  0  0  0
    9.5516    2.1029   25.5505 H   0  0  0  0  0  0
    6.3710    2.7645   11.8251 H   0  0  0  0  0  0
    4.7710    2.0917   12.0263 H   0  0  0  0  0  0
    4.9702    3.7375   11.4532 H   0  0  0  0  0  0
   12.9164    4.5531   26.8216 H   0  0  0  0  0  0
   12.1889    5.8629   25.8868 H   0  0  0  0  0  0
   13.1561    4.6211   25.0803 H   0  0  0  0  0  0
  1 10  1  0  0  0
  1 14  1  0  0  0
  2 16  1  0  0  0
  2 21  1  0  0  0
  3 25  2  0  0  0
  4 12  2  0  0  0
  4 19  1  0  0  0
  5 15  1  0  0  0
  5 21  2  0  0  0
  6 12  1  0  0  0
  6 27  1  0  0  0
  6 28  1  0  0  0
  7 25  1  0  0  0
  7 26  1  0  0  0
  7 29  1  0  0  0
  8  9  1  0  0  0
  8 10  2  0  0  0
  8 12  1  0  0  0
  9 11  1  0  0  0
  9 14  2  0  0  0
 10 13  1  0  0  0
 11 17  1  0  0  0
 11 18  2  0  0  0
 13 19  2  0  0  0
 13 22  1  0  0  0
 14 30  1  0  0  0
 15 16  1  0  0  0
 15 17  2  0  0  0
 16 20  2  0  0  0
 17 31  1  0  0  0
 18 20  1  0  0  0
 18 32  1  0  0  0
 19 33  1  0  0  0
 20 34  1  0  0  0
 21 24  1  0  0  0
 22 23  2  3  0  0
 22 35  1  0  0  0
 23 25  1  0  0  0
 23 36  1  0  0  0
 24 37  1  0  0  0
 24 38  1  0  0  0
 24 39  1  0  0  0
 26 40  1  0  0  0
 26 41  1  0  0  0
 26 42  1  0  0  0
M  END
> <s_m_entry_id>
49579

> <s_m_entry_name>
dock_pv.169

> <s_m_Source_Path>
/home/csk/Desktop/cluster/DUD-E-result/fgfr1

> <s_m_Source_File>
dock_pv.maegz

> <i_m_Source_File_Index>
169

> <chembl_id>
CHEMBL1968590

> <chembl_pref_name>
None

> <i_lp_mmshare_version>
53161

> <i_f3d_flags>
0

> <r_lp_tautomer_probability>
1

> <s_lp_Force_Field>
OPLS_2005

> <r_lp_Energy>
22.004716

> <b_lp_Chiralities_Consistent>
1

> <s_lp_Variant>
CHEMBL3650_lig3170-2

> <s_i_glide_gridfile>
glide-grid_3c4f

> <i_i_glide_lignum>
4085

> <i_i_glide_rotatable_bonds>
4

> <r_i_docking_score>
-7.11842704184682

> <r_i_glide_ligand_efficiency>
-0.273785655455647

> <r_i_glide_ligand_efficiency_sa>
-0.811088926992821

> <r_i_glide_ligand_efficiency_ln>
-1.67173923331348

> <r_i_glide_gscore>
-7.11842704184682

> <r_i_glide_lipo>
-3.67122414960805

> <r_i_glide_hbond>
0

> <r_i_glide_metal>
0

> <r_i_glide_rewards>
-1.99983321242784

> <r_i_glide_evdw>
-31.223653793335

> <r_i_glide_ecoul>
-1.92147290706635

> <r_i_glide_erotb>
0.402033945915769

> <r_i_glide_esite>
0

> <r_i_glide_emodel>
-34.3220306413786

> <r_i_glide_energy>
-33.1451267004013

> <r_i_glide_einternal>
2.12731409072876

> <i_i_glide_confnum>
1

> <i_i_glide_posenum>
306

> <r_i_glide_eff_state_penalty>
0

> <s_user_duplicate_titles>
CHEMBL3650_lig3170,CHEMBL3650_lig3170

> <s_m_subgroup_title>
dock_pv

> <s_m_subgroupid>
dock_pv

> <b_m_subgroup_collapsed>
1

$$$$
CHEMBL3650_lig548
                    3D
 Schrodinger Suite 2021-1.
 43 46  0  0  1  0            999 V2000
    5.8341    4.3748   15.4753 N   0  0  0  0  0  0
    4.8022    4.3292   14.5858 C   0  0  0  0  0  0
    3.5362    4.7786   14.7528 N   0  0  0  0  0  0
    5.5475    4.7726   16.7329 C   0  0  0  0  0  0
    4.2379    5.1379   17.0706 C   0  0  0  0  0  0
    3.2995    5.1370   16.0067 C   0  0  0  0  0  0
    2.0862    5.3224   16.6139 N   0  0  0  0  0  0
    2.3748    5.5370   17.9489 C   0  0  0  0  0  0
    3.6407    5.4637   18.2530 N   0  0  0  0  0  0
    6.6035    4.7371   17.6380 N   0  0  0  0  0  0
    6.6220    4.2817   18.9605 C   0  0  0  0  0  0
    6.1212    3.0279   19.3210 C   0  0  0  0  0  0
    6.4173    2.5043   20.5820 C   0  0  0  0  0  0
    7.2443    3.2261   21.4541 C   0  0  0  0  0  0
    7.6372    4.5226   21.1343 C   0  0  0  0  0  0
    7.2956    5.0505   19.8986 C   0  0  0  0  0  0
    4.9832    3.6342   13.4171 N   0  0  0  0  0  0
    5.5715    2.2990   13.5133 C   0  0  0  0  0  0
    5.5239    1.5572   12.1707 C   0  0  0  0  0  0
    5.9710    2.3370   11.0578 O   0  0  0  0  0  0
    5.4254    3.6465   11.0114 C   0  0  0  0  0  0
    5.7242    4.3032   12.3675 C   0  0  0  0  0  0
    7.8141    2.5023   22.9880 S   0  0  0  0  0  0
    9.1710    1.5370   22.6280 N   0  0  0  0  0  0
    8.3710    3.5370   23.8530 O   0  0  0  0  0  0
    6.7710    1.5817   23.4391 O   0  0  0  0  0  0
    1.1530    5.2666   16.2293 H   0  0  0  0  0  0
    1.5707    5.5370   18.6532 H   0  0  0  0  0  0
    7.4738    4.5627   17.1561 H   0  0  0  0  0  0
    5.5731    2.4313   18.6062 H   0  0  0  0  0  0
    6.0751    1.5115   20.8391 H   0  0  0  0  0  0
    8.2299    5.1109   21.8202 H   0  0  0  0  0  0
    7.5710    6.0571   19.6517 H   0  0  0  0  0  0
    5.0095    1.7332   14.2516 H   0  0  0  0  0  0
    6.5944    2.3520   13.8909 H   0  0  0  0  0  0
    6.2243    0.7370   12.2532 H   0  0  0  0  0  0
    4.5385    1.1346   11.9772 H   0  0  0  0  0  0
    5.9044    4.2045   10.2067 H   0  0  0  0  0  0
    4.3582    3.6227   10.7926 H   0  0  0  0  0  0
    6.7710    4.2202   12.6195 H   0  0  0  0  0  0
    5.5710    5.3635   12.3755 H   0  0  0  0  0  0
    9.2405    0.8203   23.3645 H   0  0  0  0  0  0
    9.0040    1.0017   21.7753 H   0  0  0  0  0  0
  1  2  2  0  0  0
  1  4  1  0  0  0
  2  3  1  0  0  0
  2 17  1  0  0  0
  3  6  2  0  0  0
  4  5  2  0  0  0
  4 10  1  0  0  0
  5  9  1  0  0  0
  5  6  1  0  0  0
  6  7  1  0  0  0
  7  8  1  0  0  0
  7 27  1  0  0  0
  8  9  2  0  0  0
  8 28  1  0  0  0
 10 11  1  0  0  0
 10 29  1  0  0  0
 11 16  1  0  0  0
 11 12  2  0  0  0
 12 13  1  0  0  0
 12 30  1  0  0  0
 13 14  2  0  0  0
 13 31  1  0  0  0
 14 15  1  0  0  0
 14 23  1  0  0  0
 15 16  2  0  0  0
 15 32  1  0  0  0
 16 33  1  0  0  0
 17 18  1  0  0  0
 17 22  1  0  0  0
 18 19  1  0  0  0
 18 34  1  0  0  0
 18 35  1  0  0  0
 19 20  1  0  0  0
 19 36  1  0  0  0
 19 37  1  0  0  0
 20 21  1  0  0  0
 21 22  1  0  0  0
 21 38  1  0  0  0
 21 39  1  0  0  0
 22 40  1  0  0  0
 22 41  1  0  0  0
 23 24  1  0  0  0
 23 25  2  0  0  0
 23 26  2  0  0  0
 24 42  1  0  0  0
 24 43  1  0  0  0
M  END
> <s_m_entry_id>
49580

> <s_m_entry_name>
dock_pv.170

> <s_m_Source_Path>
/home/csk/Desktop/cluster/DUD-E-result/fgfr1

> <s_m_Source_File>
dock_pv.maegz

> <i_m_Source_File_Index>
170

> <chembl_id>
CHEMBL1172957

> <chembl_pref_name>
None

> <i_lp_mmshare_version>
53161

> <i_f3d_flags>
0

> <r_lp_tautomer_probability>
0.95558173703543

> <s_lp_Force_Field>
OPLS_2005

> <r_lp_Energy>
30.218155

> <b_lp_Chiralities_Consistent>
1

> <s_lp_Variant>
CHEMBL3650_lig548-1

> <s_i_glide_gridfile>
glide-grid_3c4f

> <i_i_glide_lignum>
611

> <i_i_glide_rotatable_bonds>
4

> <r_i_docking_score>
-7.11132223190315

> <r_i_glide_ligand_efficiency>
-0.273512393534737

> <r_i_glide_ligand_efficiency_sa>
-0.810279389627357

> <r_i_glide_ligand_efficiency_ln>
-1.67007069201099

> <r_i_glide_gscore>
-7.11132223190315

> <r_i_glide_lipo>
-2.52545047198098

> <r_i_glide_hbond>
-0.369853592131885

> <r_i_glide_metal>
0

> <r_i_glide_rewards>
-2.4338800068402

> <r_i_glide_evdw>
-14.1679544448853

> <r_i_glide_ecoul>
-9.15703201293945

> <r_i_glide_erotb>
0.411832171819685

> <r_i_glide_esite>
-0.112017808584592

> <r_i_glide_emodel>
-20.1106475248261

> <r_i_glide_energy>
-23.3249864578247

> <r_i_glide_einternal>
24.8059978485107

> <i_i_glide_confnum>
32

> <i_i_glide_posenum>
219

> <r_i_glide_eff_state_penalty>
0

> <s_user_duplicate_titles>
CHEMBL3650_lig548

> <s_m_subgroup_title>
dock_pv

> <s_m_subgroupid>
dock_pv

> <b_m_subgroup_collapsed>
1

$$$$
CHEMBL3650_lig2741
                    3D
 Schrodinger Suite 2021-1.
 31 33  0  0  1  0            999 V2000
    6.7710    2.6945   17.2095 O   0  0  0  0  0  0
    6.2544    4.1609   18.8577 N   0  0  0  0  0  0
    6.7417    1.5370   22.1180 N   0  0  0  0  0  0
    5.6392    4.6237   16.7771 N   0  0  0  0  0  0
    4.1078    4.9845   15.0716 N   0  0  0  0  0  0
    5.5440    3.3285   13.2980 N   0  0  0  0  0  0
    7.3727    3.5758   20.9773 C   0  0  0  0  0  0
    6.4399    3.2879   19.9394 C   0  0  0  0  0  0
    7.4950    2.6496   22.0570 C   0  0  0  0  0  0
    6.2928    3.7673   17.5751 C   0  0  0  0  0  0
    5.7564    2.0720   19.9805 C   0  0  0  0  0  0
    8.2524    4.6671   20.9430 C   0  0  0  0  0  0
    8.4841    2.8229   23.0509 C   0  0  0  0  0  0
    5.2620    4.3816   15.4530 C   0  0  0  0  0  0
    5.9710    1.2277   21.0530 C   0  0  0  0  0  0
    9.2928    4.7370   21.8530 C   0  0  0  0  0  0
    9.4045    3.8518   22.9167 C   0  0  0  0  0  0
    5.9710    3.5475   14.5664 C   0  0  0  0  0  0
    3.6656    4.7370   13.8168 C   0  0  0  0  0  0
    4.3893    3.9370   12.9312 C   0  0  0  0  0  0
    6.1986    5.1460   19.0615 H   0  0  0  0  0  0
    5.2451    5.4511   17.1954 H   0  0  0  0  0  0
    5.0933    1.7672   19.1826 H   0  0  0  0  0  0
    8.1958    5.3681   20.1264 H   0  0  0  0  0  0
    8.5744    2.1026   23.8530 H   0  0  0  0  0  0
    5.5204    0.2522   21.0530 H   0  0  0  0  0  0
   10.0528    5.4700   21.6747 H   0  0  0  0  0  0
   10.2226    3.9424   23.6164 H   0  0  0  0  0  0
    6.9077    3.0836   14.8316 H   0  0  0  0  0  0
    2.7710    5.2527   13.5032 H   0  0  0  0  0  0
    4.0655    3.8045   11.9105 H   0  0  0  0  0  0
  1 10  2  0  0  0
  2  8  1  0  0  0
  2 10  1  0  0  0
  2 21  1  0  0  0
  3  9  1  0  0  0
  3 15  2  0  0  0
  4 10  1  0  0  0
  4 14  1  0  0  0
  4 22  1  0  0  0
  5 14  1  0  0  0
  5 19  2  0  0  0
  6 18  1  0  0  0
  6 20  2  0  0  0
  7  8  1  0  0  0
  7  9  1  0  0  0
  7 12  2  0  0  0
  8 11  2  0  0  0
  9 13  2  0  0  0
 11 15  1  0  0  0
 11 23  1  0  0  0
 12 16  1  0  0  0
 12 24  1  0  0  0
 13 17  1  0  0  0
 13 25  1  0  0  0
 14 18  2  0  0  0
 15 26  1  0  0  0
 16 17  2  0  0  0
 16 27  1  0  0  0
 17 28  1  0  0  0
 18 29  1  0  0  0
 19 20  1  0  0  0
 19 30  1  0  0  0
 20 31  1  0  0  0
M  END
> <s_m_entry_id>
49581

> <s_m_entry_name>
dock_pv.171

> <s_m_Source_Path>
/home/csk/Desktop/cluster/DUD-E-result/fgfr1

> <s_m_Source_File>
dock_pv.maegz

> <i_m_Source_File_Index>
171

> <chembl_id>
CHEMBL1981720

> <chembl_pref_name>
None

> <i_lp_mmshare_version>
53161

> <i_f3d_flags>
0

> <r_lp_tautomer_probability>
1

> <s_lp_Force_Field>
OPLS_2005

> <r_lp_Energy>
27.012583

> <b_lp_Chiralities_Consistent>
1

> <s_lp_Variant>
CHEMBL3650_lig2741-1

> <s_i_glide_gridfile>
glide-grid_3c4f

> <i_i_glide_lignum>
3412

> <i_i_glide_rotatable_bonds>
4

> <r_i_docking_score>
-7.10020807896955

> <r_i_glide_ligand_efficiency>
-0.355010403948477

> <r_i_glide_ligand_efficiency_sa>
-0.963646493589945

> <r_i_glide_ligand_efficiency_ln>
-1.77694790163063

> <r_i_glide_gscore>
-7.10020807896955

> <r_i_glide_lipo>
-2.58625243953826

> <r_i_glide_hbond>
-0.288934861938829

> <r_i_glide_metal>
0

> <r_i_glide_rewards>
-2.94886020075374

> <r_i_glide_evdw>
-33.2258987426758

> <r_i_glide_ecoul>
-0.803777694702148

> <r_i_glide_erotb>
0.505701014600392

> <r_i_glide_esite>
0

> <r_i_glide_emodel>
-38.4131583645835

> <r_i_glide_energy>
-34.0296764373779

> <r_i_glide_einternal>
11.6743059158325

> <i_i_glide_confnum>
1

> <i_i_glide_posenum>
30

> <r_i_glide_eff_state_penalty>
0

> <s_user_duplicate_titles>
CHEMBL3650_lig2741

> <s_m_subgroup_title>
dock_pv

> <s_m_subgroupid>
dock_pv

> <b_m_subgroup_collapsed>
1

$$$$
CHEMBL3650_lig225
                    3D
 Schrodinger Suite 2021-1.
 52 54  0  0  1  0            999 V2000
    5.8891    3.5948   17.2713 C   0  0  0  0  0  0
    7.5710    4.5099   18.7624 N   0  0  0  0  0  0
    7.7975    3.8110   20.9572 N   0  0  0  0  0  0
    7.1610    3.6912   19.7566 C   0  0  0  0  0  0
    6.9830    4.3912   17.5515 C   0  0  0  0  0  0
    5.1710    3.7945   15.9649 C   0  0  0  0  0  0
    6.1630    2.7098   19.5228 C   0  0  0  0  0  0
    5.5254    2.6765   18.2585 C   0  0  0  0  0  0
    7.4375    2.9245   21.9240 C   0  0  0  0  0  0
    6.5219    1.9369   21.7975 N   0  0  0  0  0  0
    5.9116    1.8402   20.5972 C   0  0  0  0  0  0
    5.5590    3.1281   14.8041 C   0  0  0  0  0  0
    4.1640    4.7637   15.8530 C   0  0  0  0  0  0
    7.5710    5.0518   16.4983 N   0  0  0  0  0  0
    7.9860    3.0151   23.2050 N   0  0  0  0  0  0
    3.5713    5.5370   17.2800 Cl  0  0  0  0  0  0
    6.7710    1.9370   14.9034 Cl  0  0  0  0  0  0
   11.0259    4.5171   25.8758 N   0  0  0  0  0  0
   10.3878    3.1469   23.8280 C   0  0  0  0  0  0
    3.9829    4.3653   13.4813 C   0  0  0  0  0  0
    3.5724    5.0512   14.6228 C   0  0  0  0  0  0
    4.9734    3.3969   13.5707 C   0  0  0  0  0  0
    9.0794    3.9071   23.5719 C   0  0  0  0  0  0
   11.4768    3.9373   24.5958 C   0  0  0  0  0  0
   10.4152    3.5415   26.7968 C   0  0  0  0  0  0
   12.1037    5.2604   26.5471 C   0  0  0  0  0  0
   11.3318    2.3811   27.2350 C   0  0  0  0  0  0
   12.4441    6.5888   25.8530 C   0  0  0  0  0  0
    4.7710    1.9369   18.0747 H   0  0  0  0  0  0
    5.1710    1.0653   20.4966 H   0  0  0  0  0  0
    7.2846    4.8670   15.5450 H   0  0  0  0  0  0
    8.4738    5.4734   16.6765 H   0  0  0  0  0  0
    7.7350    2.2838   23.8535 H   0  0  0  0  0  0
   10.7926    2.8279   22.8667 H   0  0  0  0  0  0
   10.1876    2.2098   24.3482 H   0  0  0  0  0  0
    3.5574    4.6060   12.5189 H   0  0  0  0  0  0
    2.7977    5.8000   14.5494 H   0  0  0  0  0  0
    5.2902    2.8692   12.6834 H   0  0  0  0  0  0
    8.7710    4.3913   24.4974 H   0  0  0  0  0  0
    9.2253    4.7318   22.8725 H   0  0  0  0  0  0
   11.8401    4.7324   23.9485 H   0  0  0  0  0  0
   12.3386    3.2936   24.7770 H   0  0  0  0  0  0
    9.5085    3.1363   26.3475 H   0  0  0  0  0  0
   10.0635    4.0740   27.6820 H   0  0  0  0  0  0
   11.8047    5.4940   27.5706 H   0  0  0  0  0  0
   13.0013    4.6436   26.6238 H   0  0  0  0  0  0
   10.8064    1.7198   27.9244 H   0  0  0  0  0  0
   12.2267    2.7369   27.7451 H   0  0  0  0  0  0
   11.6475    1.7730   26.3893 H   0  0  0  0  0  0
   13.2104    7.1242   26.4137 H   0  0  0  0  0  0
   12.8309    6.4490   24.8445 H   0  0  0  0  0  0
   11.5709    7.2380   25.8038 H   0  0  0  0  0  0
  1  5  1  0  0  0
  1  6  1  0  0  0
  1  8  2  0  0  0
  2  5  2  0  0  0
  2  4  1  0  0  0
  3  4  2  0  0  0
  3  9  1  0  0  0
  4  7  1  0  0  0
  5 14  1  0  0  0
  6 12  2  0  0  0
  6 13  1  0  0  0
  7  8  1  0  0  0
  7 11  2  0  0  0
  8 29  1  0  0  0
  9 10  2  0  0  0
  9 15  1  0  0  0
 10 11  1  0  0  0
 11 30  1  0  0  0
 12 17  1  0  0  0
 12 22  1  0  0  0
 13 16  1  0  0  0
 13 21  2  0  0  0
 14 31  1  0  0  0
 14 32  1  0  0  0
 15 23  1  0  0  0
 15 33  1  0  0  0
 18 24  1  0  0  0
 18 25  1  0  0  0
 18 26  1  0  0  0
 19 23  1  0  0  0
 19 24  1  0  0  0
 19 34  1  0  0  0
 19 35  1  0  0  0
 20 21  1  0  0  0
 20 22  2  0  0  0
 20 36  1  0  0  0
 21 37  1  0  0  0
 22 38  1  0  0  0
 23 39  1  0  0  0
 23 40  1  0  0  0
 24 41  1  0  0  0
 24 42  1  0  0  0
 25 27  1  0  0  0
 25 43  1  0  0  0
 25 44  1  0  0  0
 26 28  1  0  0  0
 26 45  1  0  0  0
 26 46  1  0  0  0
 27 47  1  0  0  0
 27 48  1  0  0  0
 27 49  1  0  0  0
 28 50  1  0  0  0
 28 51  1  0  0  0
 28 52  1  0  0  0
M  END
> <s_m_entry_id>
49582

> <s_m_entry_name>
dock_pv.172

> <s_m_Source_Path>
/home/csk/Desktop/cluster/DUD-E-result/fgfr1

> <s_m_Source_File>
dock_pv.maegz

> <i_m_Source_File_Index>
172

> <chembl_id>
CHEMBL300784

> <chembl_pref_name>
None

> <i_lp_mmshare_version>
53161

> <i_f3d_flags>
0

> <r_lp_tautomer_probability>
1

> <s_lp_Force_Field>
OPLS_2005

> <r_lp_Energy>
19.208141

> <b_lp_Chiralities_Consistent>
1

> <s_lp_Variant>
CHEMBL3650_lig225-1

> <s_i_glide_gridfile>
glide-grid_3c4f

> <i_i_glide_lignum>
248

> <i_i_glide_rotatable_bonds>
8

> <r_i_docking_score>
-7.09710344829338

> <r_i_glide_ligand_efficiency>
-0.253467980296192

> <r_i_glide_ligand_efficiency_sa>
-0.769678072836106

> <r_i_glide_ligand_efficiency_ln>
-1.63821985587803

> <r_i_glide_gscore>
-7.09710344829338

> <r_i_glide_lipo>
-2.50627593681749

> <r_i_glide_hbond>
-0.0447837332909959

> <r_i_glide_metal>
0

> <r_i_glide_rewards>
-2.79704104325727

> <r_i_glide_evdw>
-25.8520851135254

> <r_i_glide_ecoul>
-7.26720190048218

> <r_i_glide_erotb>
0.674963443763542

> <r_i_glide_esite>
-0.0412816379425726

> <r_i_glide_emodel>
-33.9714910414096

> <r_i_glide_energy>
-33.1192870140076

> <r_i_glide_einternal>
8.24080467224121

> <i_i_glide_confnum>
2

> <i_i_glide_posenum>
99

> <r_i_glide_eff_state_penalty>
0

> <s_user_duplicate_titles>
CHEMBL3650_lig225

> <s_m_subgroup_title>
dock_pv

> <s_m_subgroupid>
dock_pv

> <b_m_subgroup_collapsed>
1

$$$$
CHEMBL3650_lig2854
                    3D
 Schrodinger Suite 2021-1.
 37 39  0  0  1  0            999 V2000
    7.1281    1.9383   22.2075 S   0  0  0  0  0  0
    7.5696    5.0882   20.0725 O   0  0  0  0  0  0
    4.8925    5.5008   15.0315 O   0  0  0  0  0  0
    6.7702    3.4157   14.9717 O   0  0  0  0  0  0
    8.4556    4.0492   21.8528 N   0  0  0  0  0  0
    9.1722    2.7370   23.7207 N   0  0  0  0  0  0
    6.8194    2.9070   20.7638 C   0  0  0  0  0  0
    7.6030    4.1213   20.8282 C   0  0  0  0  0  0
    8.4533    3.0155   22.7113 C   0  0  0  0  0  0
    5.7732    3.3379   18.4936 C   0  0  0  0  0  0
    6.0338    2.5598   19.7171 C   0  0  0  0  0  0
    6.1393    3.7572   16.1353 C   0  0  0  0  0  0
    6.4123    3.0283   17.2925 C   0  0  0  0  0  0
    5.2168    4.8086   16.1691 C   0  0  0  0  0  0
    4.8629    4.3908   18.5175 C   0  0  0  0  0  0
   10.3455    3.4401   24.0236 C   0  0  0  0  0  0
    4.5965    5.1369   17.3727 C   0  0  0  0  0  0
   10.5211    3.9350   25.3195 C   0  0  0  0  0  0
   11.4147    3.5379   23.1154 C   0  0  0  0  0  0
   11.7218    4.5279   25.7026 C   0  0  0  0  0  0
   12.6279    4.1046   23.5005 C   0  0  0  0  0  0
   12.7709    4.6060   24.7915 C   0  0  0  0  0  0
    3.7174    5.0135   14.3939 C   0  0  0  0  0  0
    7.0664    4.1923   14.4683 H   0  0  0  0  0  0
    9.1096    4.8039   21.9820 H   0  0  0  0  0  0
    5.5229    1.6077   19.7637 H   0  0  0  0  0  0
    7.1241    2.2188   17.2447 H   0  0  0  0  0  0
    4.3710    4.6625   19.4343 H   0  0  0  0  0  0
    3.8810    5.9400   17.4107 H   0  0  0  0  0  0
    9.7236    3.8381   26.0420 H   0  0  0  0  0  0
   11.3195    3.1295   22.1209 H   0  0  0  0  0  0
   11.8490    4.9017   26.7084 H   0  0  0  0  0  0
   13.4585    4.1514   22.8121 H   0  0  0  0  0  0
   13.7167    5.0381   25.0906 H   0  0  0  0  0  0
    3.5568    5.5365   13.4545 H   0  0  0  0  0  0
    2.8334    5.1735   15.0134 H   0  0  0  0  0  0
    3.7933    3.9486   14.1629 H   0  0  0  0  0  0
  1  7  1  0  0  0
  1  9  1  0  0  0
  2  8  2  0  0  0
  3 14  1  0  0  0
  3 23  1  0  0  0
  4 12  1  0  0  0
  4 24  1  0  0  0
  5  8  1  0  0  0
  5  9  1  0  0  0
  5 25  1  0  0  0
  6  9  2  3  0  0
  6 16  1  0  0  0
  7  8  1  0  0  0
  7 11  2  3  0  0
 10 11  1  0  0  0
 10 13  1  0  0  0
 10 15  2  0  0  0
 11 26  1  0  0  0
 12 13  2  0  0  0
 12 14  1  0  0  0
 13 27  1  0  0  0
 14 17  2  0  0  0
 15 17  1  0  0  0
 15 28  1  0  0  0
 16 18  2  0  0  0
 16 19  1  0  0  0
 17 29  1  0  0  0
 18 20  1  0  0  0
 18 30  1  0  0  0
 19 21  2  0  0  0
 19 31  1  0  0  0
 20 22  2  0  0  0
 20 32  1  0  0  0
 21 22  1  0  0  0
 21 33  1  0  0  0
 22 34  1  0  0  0
 23 35  1  0  0  0
 23 36  1  0  0  0
 23 37  1  0  0  0
M  END
> <s_m_entry_id>
49583

> <s_m_entry_name>
dock_pv.173

> <s_m_Source_Path>
/home/csk/Desktop/cluster/DUD-E-result/fgfr1

> <s_m_Source_File>
dock_pv.maegz

> <i_m_Source_File_Index>
173

> <chembl_id>
CHEMBL2000354

> <chembl_pref_name>
None

> <i_lp_mmshare_version>
53161

> <i_f3d_flags>
0

> <r_lp_tautomer_probability>
1

> <s_lp_Force_Field>
OPLS_2005

> <r_lp_Energy>
26.387412

> <b_lp_Chiralities_Consistent>
1

> <s_lp_Variant>
CHEMBL3650_lig2854-2

> <s_i_glide_gridfile>
glide-grid_3c4f

> <i_i_glide_lignum>
3589

> <i_i_glide_rotatable_bonds>
4

> <r_i_docking_score>
-7.09270308841417

> <r_i_glide_ligand_efficiency>
-0.308378395148442

> <r_i_glide_ligand_efficiency_sa>
-0.876987134345676

> <r_i_glide_ligand_efficiency_ln>
-1.71507991985442

> <r_i_glide_gscore>
-7.09270308841417

> <r_i_glide_lipo>
-2.6890185568429

> <r_i_glide_hbond>
0

> <r_i_glide_metal>
0

> <r_i_glide_rewards>
-2.05960279734142

> <r_i_glide_evdw>
-42.0195045471191

> <r_i_glide_ecoul>
-2.79446220397949

> <r_i_glide_erotb>
0.176062823723035

> <r_i_glide_esite>
0

> <r_i_glide_emodel>
-49.5391015953482

> <r_i_glide_energy>
-44.8139667510986

> <r_i_glide_einternal>
9.93498039245605

> <i_i_glide_confnum>
3

> <i_i_glide_posenum>
218

> <r_i_glide_eff_state_penalty>
0

> <s_user_duplicate_titles>
CHEMBL3650_lig2854

> <s_m_subgroup_title>
dock_pv

> <s_m_subgroupid>
dock_pv

> <b_m_subgroup_collapsed>
1

$$$$
CHEMBL3650_lig2099
                    3D
 Schrodinger Suite 2021-1.
 36 39  0  0  1  0            999 V2000
    4.7194    4.9850   16.9011 N   0  0  0  0  0  0
    5.9084    4.4865   16.4790 C   0  0  0  0  0  0
    6.2534    4.1398   15.2169 N   0  0  0  0  0  0
    5.3450    4.3370   14.2307 C   0  0  0  0  0  0
    5.7384    4.0642   12.9133 N   0  0  0  0  0  0
    4.7710    3.7716   11.8540 C   0  0  0  0  0  0
    5.3202    3.6681   10.4247 C   0  0  0  0  0  0
    4.3710    3.5370    9.5148 F   0  0  0  0  0  0
    5.9710    4.7607   10.0626 F   0  0  0  0  0  0
    6.1192    2.6167   10.2917 F   0  0  0  0  0  0
    6.9051    4.3302   17.4208 N   0  0  0  0  0  0
    6.7582    4.0681   18.7792 C   0  0  0  0  0  0
    6.1941    2.8689   19.2076 C   0  0  0  0  0  0
    7.4823    4.6730   21.0207 C   0  0  0  0  0  0
    7.2880    4.9791   19.6800 C   0  0  0  0  0  0
    3.8237    5.1370   15.9313 C   0  0  0  0  0  0
    4.0987    4.8494   14.5868 C   0  0  0  0  0  0
    3.0399    5.1539   13.8037 O   0  0  0  0  0  0
    2.0619    5.5370   14.6530 C   0  0  0  0  0  0
    2.4362    5.4126   15.9670 C   0  0  0  0  0  0
    7.0666    3.4135   21.4543 C   0  0  0  0  0  0
    6.3710    2.5621   20.5565 C   0  0  0  0  0  0
    6.0271    1.4650   21.3010 N   0  0  0  0  0  0
    6.5201    1.5370   22.5508 N   0  0  0  0  0  0
    7.1710    2.6602   22.6530 C   0  0  0  0  0  0
    6.7336    4.0287   12.7465 H   0  0  0  0  0  0
    4.3710    2.7997   12.1287 H   0  0  0  0  0  0
    3.9457    4.4783   11.8421 H   0  0  0  0  0  0
    7.7783    4.0344   17.0125 H   0  0  0  0  0  0
    5.7417    2.1744   18.5153 H   0  0  0  0  0  0
    7.9710    5.3695   21.6853 H   0  0  0  0  0  0
    7.5710    5.9370   19.3073 H   0  0  0  0  0  0
    1.1710    5.8658   14.1725 H   0  0  0  0  0  0
    1.8060    5.5370   16.8327 H   0  0  0  0  0  0
    5.5118    0.6539   20.9839 H   0  0  0  0  0  0
    7.6640    2.9337   23.5735 H   0  0  0  0  0  0
  1 16  1  0  0  0
  1  2  2  0  0  0
  2  3  1  0  0  0
  2 11  1  0  0  0
  3  4  2  0  0  0
  4 17  1  0  0  0
  4  5  1  0  0  0
  5  6  1  0  0  0
  5 26  1  0  0  0
  6  7  1  0  0  0
  6 27  1  0  0  0
  6 28  1  0  0  0
  7  8  1  0  0  0
  7  9  1  0  0  0
  7 10  1  0  0  0
 11 12  1  0  0  0
 11 29  1  0  0  0
 12 13  2  0  0  0
 12 15  1  0  0  0
 13 22  1  0  0  0
 13 30  1  0  0  0
 14 21  1  0  0  0
 14 15  2  0  0  0
 14 31  1  0  0  0
 15 32  1  0  0  0
 16 17  2  0  0  0
 16 20  1  0  0  0
 17 18  1  0  0  0
 18 19  1  0  0  0
 19 20  2  0  0  0
 19 33  1  0  0  0
 20 34  1  0  0  0
 21 22  2  0  0  0
 21 25  1  0  0  0
 22 23  1  0  0  0
 23 24  1  0  0  0
 23 35  1  0  0  0
 24 25  2  0  0  0
 25 36  1  0  0  0
M  END
> <s_m_entry_id>
49584

> <s_m_entry_name>
dock_pv.174

> <s_m_Source_Path>
/home/csk/Desktop/cluster/DUD-E-result/fgfr1

> <s_m_Source_File>
dock_pv.maegz

> <i_m_Source_File_Index>
174

> <chembl_id>
CHEMBL4066664

> <chembl_pref_name>
None

> <i_lp_mmshare_version>
53161

> <i_f3d_flags>
0

> <r_lp_tautomer_probability>
1

> <s_lp_Force_Field>
OPLS_2005

> <r_lp_Energy>
10.866239

> <b_lp_Chiralities_Consistent>
1

> <s_lp_Variant>
CHEMBL3650_lig2099-1

> <s_i_glide_gridfile>
glide-grid_3c4f

> <i_i_glide_lignum>
2501

> <i_i_glide_rotatable_bonds>
5

> <r_i_docking_score>
-7.09148613169391

> <r_i_glide_ligand_efficiency>
-0.283659445267756

> <r_i_glide_ligand_efficiency_sa>
-0.829425248684602

> <r_i_glide_ligand_efficiency_ln>
-1.68089472790194

> <r_i_glide_gscore>
-7.09148613169391

> <r_i_glide_lipo>
-2.92269787433804

> <r_i_glide_hbond>
-0.417471507427475

> <r_i_glide_metal>
0

> <r_i_glide_rewards>
-2.20305272289908

> <r_i_glide_evdw>
-30.6964778900146

> <r_i_glide_ecoul>
-1.62621891498566

> <r_i_glide_erotb>
0.439380063312396

> <r_i_glide_esite>
-0.208887358593126

> <r_i_glide_emodel>
-25.6263078048271

> <r_i_glide_energy>
-32.3226968050003

> <r_i_glide_einternal>
15.0544738769531

> <i_i_glide_confnum>
40

> <i_i_glide_posenum>
335

> <r_i_glide_eff_state_penalty>
0

> <s_user_duplicate_titles>
CHEMBL3650_lig2099

> <s_m_subgroup_title>
dock_pv

> <s_m_subgroupid>
dock_pv

> <b_m_subgroup_collapsed>
1

$$$$
CHEMBL3650_lig652
                    3D
 Schrodinger Suite 2021-1.
 31 32  0  0  1  0            999 V2000
    6.2796    2.4661   20.1338 C   0  0  0  0  0  0
    6.3364    1.5395   21.1688 C   0  0  0  0  0  0
    7.1306    1.6973   22.2539 N   0  0  0  0  0  0
    7.8968    2.8124   22.2865 C   0  0  0  0  0  0
    7.8878    3.7903   21.3373 N   0  0  0  0  0  0
    7.0867    3.6154   20.2535 C   0  0  0  0  0  0
    7.1679    4.6624   19.3236 N   0  0  0  0  0  0
    6.7119    4.6967   18.0322 C   0  0  0  0  0  0
    5.4694    5.1371   17.5495 C   0  0  0  0  0  0
    5.5128    5.0321   16.1708 C   0  0  0  0  0  0
    6.7701    4.5524   15.9318 N   0  0  0  0  0  0
    7.4905    4.3354   17.0400 N   0  0  0  0  0  0
    8.7525    2.9083   23.3931 N   0  0  0  0  0  0
    5.1716    2.0386   18.6507 Br  0  0  0  0  0  0
    4.5263    5.3379   15.0713 C   0  0  0  0  0  0
    9.7827    3.9370   23.4790 C   0  0  0  0  0  0
   11.1111    3.6310   22.8151 C   0  0  0  0  0  0
   12.3138    3.9295   23.3374 C   0  0  0  0  0  0
    5.7512    0.6343   21.1012 H   0  0  0  0  0  0
    7.8704    5.3292   19.5998 H   0  0  0  0  0  0
    4.6372    5.4968   18.1319 H   0  0  0  0  0  0
    7.1839    4.4644   15.0066 H   0  0  0  0  0  0
    8.8501    2.0755   23.9580 H   0  0  0  0  0  0
    3.6260    5.8187   15.4542 H   0  0  0  0  0  0
    4.9521    6.0012   14.3167 H   0  0  0  0  0  0
    4.2106    4.4316   14.5540 H   0  0  0  0  0  0
    9.9565    4.1860   24.5265 H   0  0  0  0  0  0
    9.4063    4.8622   23.0455 H   0  0  0  0  0  0
   11.0578    3.1426   21.8548 H   0  0  0  0  0  0
   12.4111    4.4194   24.2957 H   0  0  0  0  0  0
   13.2269    3.6860   22.8142 H   0  0  0  0  0  0
  1  6  1  0  0  0
  1  2  2  0  0  0
  1 14  1  0  0  0
  2  3  1  0  0  0
  2 19  1  0  0  0
  3  4  2  0  0  0
  4  5  1  0  0  0
  4 13  1  0  0  0
  5  6  2  0  0  0
  6  7  1  0  0  0
  7  8  1  0  0  0
  7 20  1  0  0  0
  8 12  2  0  0  0
  8  9  1  0  0  0
  9 10  2  0  0  0
  9 21  1  0  0  0
 10 11  1  0  0  0
 10 15  1  0  0  0
 11 12  1  0  0  0
 11 22  1  0  0  0
 13 16  1  0  0  0
 13 23  1  0  0  0
 15 24  1  0  0  0
 15 25  1  0  0  0
 15 26  1  0  0  0
 16 17  1  0  0  0
 16 27  1  0  0  0
 16 28  1  0  0  0
 17 18  2  0  0  0
 17 29  1  0  0  0
 18 30  1  0  0  0
 18 31  1  0  0  0
M  END
> <s_m_entry_id>
49585

> <s_m_entry_name>
dock_pv.175

> <s_m_Source_Path>
/home/csk/Desktop/cluster/DUD-E-result/fgfr1

> <s_m_Source_File>
dock_pv.maegz

> <i_m_Source_File_Index>
175

> <chembl_id>
CHEMBL2088090

> <chembl_pref_name>
None

> <i_lp_mmshare_version>
53161

> <i_f3d_flags>
0

> <r_lp_tautomer_probability>
0.842599732729633

> <s_lp_Force_Field>
OPLS_2005

> <r_lp_Energy>
-1.691823

> <b_lp_Chiralities_Consistent>
1

> <s_lp_Variant>
CHEMBL3650_lig652-1

> <s_i_glide_gridfile>
glide-grid_3c4f

> <i_i_glide_lignum>
738

> <i_i_glide_rotatable_bonds>
5

> <r_i_docking_score>
-7.09021288076061

> <r_i_glide_ligand_efficiency>
-0.393900715597812

> <r_i_glide_ligand_efficiency_sa>
-1.0323119095811

> <r_i_glide_ligand_efficiency_ln>
-1.8225026609269

> <r_i_glide_gscore>
-7.09021288076061

> <r_i_glide_lipo>
-1.94861280606428

> <r_i_glide_hbond>
-0.24879531995179

> <r_i_glide_metal>
0

> <r_i_glide_rewards>
-3.50944730139015

> <r_i_glide_evdw>
-36.7741928100586

> <r_i_glide_ecoul>
-2.84773540496826

> <r_i_glide_erotb>
0.968382635607666

> <r_i_glide_esite>
-0.0858701377138939

> <r_i_glide_emodel>
-49.194064063657

> <r_i_glide_energy>
-39.6219282150269

> <r_i_glide_einternal>
11.9734659194946

> <i_i_glide_confnum>
69

> <i_i_glide_posenum>
376

> <r_i_glide_eff_state_penalty>
0

> <s_user_duplicate_titles>
CHEMBL3650_lig652

> <s_m_subgroup_title>
dock_pv

> <s_m_subgroupid>
dock_pv

> <b_m_subgroup_collapsed>
1

$$$$
CHEMBL3650_lig1587
                    3D
 Schrodinger Suite 2021-1.
 45 49  0  0  1  0            999 V2000
    5.5231    2.9710   10.6555 C   0  0  0  0  0  0
    5.4377    3.2454   12.1390 C   0  0  0  0  0  0
    5.9710    2.4962   13.0692 N   0  0  0  0  0  0
    5.7398    3.1739   14.2384 C   0  0  0  0  0  0
    6.1898    2.8992   15.5363 C   0  0  0  0  0  0
    5.6589    3.6468   16.5974 C   0  0  0  0  0  0
    4.8046    4.7367   16.3386 C   0  0  0  0  0  0
    4.4278    5.0970   15.0455 C   0  0  0  0  0  0
    4.9094    4.2952   14.0133 C   0  0  0  0  0  0
    4.7827    4.3370   12.6498 N   0  0  0  0  0  0
    6.0294    3.3686   17.9455 N   0  0  0  0  0  0
    5.8993    2.1667   18.5373 N   0  0  0  0  0  0
    6.3377    2.3314   19.7771 C   0  0  0  0  0  0
    6.8017    3.6296   20.0274 C   0  0  0  0  0  0
    7.4337    4.2662   21.1887 C   0  0  0  0  0  0
    7.1708    5.4400   21.4530 O   0  0  0  0  0  0
    8.5280    3.6065   21.8996 C   0  0  0  0  0  0
    9.7368    4.1576   22.0952 C   0  0  0  0  0  0
   10.6282    3.2461   22.8934 C   0  0  1  0  0  0
   11.4622    3.9351   23.9773 C   0  0  0  0  0  0
   11.1307    3.9166   25.2782 C   0  0  0  0  0  0
    9.9565    3.2175   25.7376 C   0  0  0  0  0  0
    9.2158    2.4624   24.9073 C   0  0  0  0  0  0
    9.5710    2.2395   23.4316 C   0  0  1  0  0  0
    8.4830    2.3565   22.4672 N   0  0  0  0  0  0
    6.5477    4.2684   18.8348 C   0  0  0  0  0  0
    6.7713    5.5371   18.4620 N   0  0  0  0  0  0
    6.1110    2.0801   10.4334 H   0  0  0  0  0  0
    4.5332    2.8125   10.2273 H   0  0  0  0  0  0
    5.9712    3.8076   10.1201 H   0  0  0  0  0  0
    6.8567    2.0716   15.7221 H   0  0  0  0  0  0
    4.4146    5.3166   17.1637 H   0  0  0  0  0  0
    3.7815    5.9370   14.8516 H   0  0  0  0  0  0
    4.3696    5.0707   12.0870 H   0  0  0  0  0  0
    6.3484    1.5050   20.4724 H   0  0  0  0  0  0
   10.0552    5.1282   21.7473 H   0  0  0  0  0  0
   11.3255    2.7357   22.2323 H   0  0  0  0  0  0
   12.3633    4.4591   23.6883 H   0  0  0  0  0  0
   11.7707    4.4100   25.9954 H   0  0  0  0  0  0
    9.6628    3.3075   26.7729 H   0  0  0  0  0  0
    8.3670    1.9372   25.3186 H   0  0  0  0  0  0
    9.9707    1.2282   23.3491 H   0  0  0  0  0  0
    7.6100    1.9600   22.7808 H   0  0  0  0  0  0
    7.1677    6.1974   19.1152 H   0  0  0  0  0  0
    6.6390    5.8393   17.5068 H   0  0  0  0  0  0
  1  2  1  0  0  0
  1 28  1  0  0  0
  1 29  1  0  0  0
  1 30  1  0  0  0
  2  3  2  0  0  0
  2 10  1  0  0  0
  3  4  1  0  0  0
  4  5  2  0  0  0
  4  9  1  0  0  0
  5  6  1  0  0  0
  5 31  1  0  0  0
  6  7  2  0  0  0
  6 11  1  0  0  0
  7  8  1  0  0  0
  7 32  1  0  0  0
  8  9  2  0  0  0
  8 33  1  0  0  0
  9 10  1  0  0  0
 10 34  1  0  0  0
 11 12  1  0  0  0
 11 26  1  0  0  0
 12 13  2  0  0  0
 13 14  1  0  0  0
 13 35  1  0  0  0
 14 15  1  0  0  0
 14 26  2  0  0  0
 15 16  2  0  0  0
 15 17  1  0  0  0
 17 18  2  0  0  0
 17 25  1  0  0  0
 18 19  1  0  0  0
 18 36  1  0  0  0
 19 20  1  0  0  0
 19 24  1  0  0  0
 19 37  1  0  0  0
 20 21  2  0  0  0
 20 38  1  0  0  0
 21 22  1  0  0  0
 21 39  1  0  0  0
 22 23  2  0  0  0
 22 40  1  0  0  0
 23 24  1  0  0  0
 23 41  1  0  0  0
 24 25  1  0  0  0
 24 42  1  0  0  0
 25 43  1  0  0  0
 26 27  1  0  0  0
 27 44  1  0  0  0
 27 45  1  0  0  0
M  END
> <s_m_entry_id>
49587

> <s_m_entry_name>
dock_pv.177

> <s_m_Source_Path>
/home/csk/Desktop/cluster/DUD-E-result/fgfr1

> <s_m_Source_File>
dock_pv.maegz

> <i_m_Source_File_Index>
177

> <chembl_id>
CHEMBL3676312

> <chembl_pref_name>
None

> <i_lp_mmshare_version>
53161

> <i_f3d_flags>
0

> <r_lp_tautomer_probability>
1

> <s_lp_Force_Field>
OPLS_2005

> <r_lp_Energy>
31.305795

> <b_lp_Chiralities_Consistent>
1

> <s_lp_Variant>
CHEMBL3650_lig1587-2

> <s_i_glide_gridfile>
glide-grid_3c4f

> <i_i_glide_lignum>
1952

> <i_i_glide_rotatable_bonds>
3

> <r_i_docking_score>
-7.07947303385762

> <r_i_glide_ligand_efficiency>
-0.26220270495769

> <r_i_glide_ligand_efficiency_sa>
-0.786608114008892

> <r_i_glide_ligand_efficiency_ln>
-1.64798460804738

> <r_i_glide_gscore>
-7.07947303385762

> <r_i_glide_lipo>
-2.5421802995761

> <r_i_glide_hbond>
-0.422441597641995

> <r_i_glide_metal>
0

> <r_i_glide_rewards>
-1.84228899380993

> <r_i_glide_evdw>
-42.7089958190918

> <r_i_glide_ecoul>
-3.2382276058197

> <r_i_glide_erotb>
0.447385849027186

> <r_i_glide_esite>
-0.0987640600292423

> <r_i_glide_emodel>
-51.5551587943244

> <r_i_glide_energy>
-45.9472234249115

> <r_i_glide_einternal>
11.3025636672974

> <i_i_glide_confnum>
8

> <i_i_glide_posenum>
35

> <r_i_glide_eff_state_penalty>
0

> <s_user_duplicate_titles>
CHEMBL3650_lig1587

> <s_m_subgroup_title>
dock_pv

> <s_m_subgroupid>
dock_pv

> <b_m_subgroup_collapsed>
1

$$$$
CHEMBL3650_lig3164
                    3D
 Schrodinger Suite 2021-1.
 40 43  0  0  1  0            999 V2000
    6.4510    2.7455   20.4363 N   0  0  0  0  0  0
    7.3001    3.7165   20.0210 C   0  0  0  0  0  0
    7.2729    4.3056   18.7916 N   0  0  0  0  0  0
    6.3347    3.8459   17.9198 C   0  0  0  0  0  0
    5.4800    2.7955   18.2544 C   0  0  0  0  0  0
    5.5635    2.2863   19.5382 C   0  0  0  0  0  0
    6.2560    4.4116   16.6429 N   0  0  0  0  0  0
    5.0846    4.6316   15.8900 C   0  0  0  0  0  0
    4.9615    4.3232   14.5159 C   0  0  0  0  0  0
    3.7933    4.7002   13.8355 C   0  0  0  0  0  0
    2.7418    5.3115   14.4938 C   0  0  0  0  0  0
    2.8281    5.5296   15.8531 C   0  0  0  0  0  0
    3.9960    5.2159   16.5456 C   0  0  0  0  0  0
    5.9706    3.4895   13.7790 C   0  0  0  0  0  0
    5.9403    3.6399   12.4249 O   0  0  0  0  0  0
    6.7535    2.7364   14.3459 O   0  0  0  0  0  0
    8.3832    4.0472   20.8420 N   0  0  0  0  0  0
    8.8060    3.5957   22.1076 C   0  0  0  0  0  0
   10.0981    3.9379   22.5097 C   0  0  0  0  0  0
    8.4043    2.4913   24.2534 C   0  0  0  0  0  0
    7.9900    2.8662   22.9807 C   0  0  0  0  0  0
    9.6573    2.9332   24.6708 C   0  0  0  0  0  0
   10.5144    3.6572   23.8181 C   0  0  0  0  0  0
   11.6603    3.9370   24.6244 C   0  0  0  0  0  0
   11.5247    3.4535   25.8328 N   0  0  0  0  0  0
   10.3349    2.8255   25.8688 N   0  0  0  0  0  0
    4.7737    2.3657   17.5610 H   0  0  0  0  0  0
    4.8770    1.5302   19.8760 H   0  0  0  0  0  0
    7.1221    4.7371   16.2344 H   0  0  0  0  0  0
    3.6480    4.4906   12.7845 H   0  0  0  0  0  0
    1.8419    5.5745   13.9582 H   0  0  0  0  0  0
    1.9713    5.9368   16.3654 H   0  0  0  0  0  0
    4.0519    5.4371   17.6016 H   0  0  0  0  0  0
    5.4551    4.4416   12.2113 H   0  0  0  0  0  0
    9.0229    4.6709   20.3753 H   0  0  0  0  0  0
   10.7448    4.4987   21.8560 H   0  0  0  0  0  0
    7.7526    1.9337   24.9086 H   0  0  0  0  0  0
    6.9863    2.5862   22.7177 H   0  0  0  0  0  0
   12.5577    4.4719   24.3461 H   0  0  0  0  0  0
   10.0296    2.3621   26.7122 H   0  0  0  0  0  0
  1  2  2  0  0  0
  1  6  1  0  0  0
  2 17  1  0  0  0
  2  3  1  0  0  0
  3  4  2  0  0  0
  4  7  1  0  0  0
  4  5  1  0  0  0
  5  6  2  0  0  0
  5 27  1  0  0  0
  6 28  1  0  0  0
  7  8  1  0  0  0
  7 29  1  0  0  0
  8 13  1  0  0  0
  8  9  2  0  0  0
  9 14  1  0  0  0
  9 10  1  0  0  0
 10 11  2  0  0  0
 10 30  1  0  0  0
 11 12  1  0  0  0
 11 31  1  0  0  0
 12 13  2  0  0  0
 12 32  1  0  0  0
 13 33  1  0  0  0
 14 15  1  0  0  0
 14 16  2  0  0  0
 15 34  1  0  0  0
 17 18  1  0  0  0
 17 35  1  0  0  0
 18 19  2  0  0  0
 18 21  1  0  0  0
 19 23  1  0  0  0
 19 36  1  0  0  0
 20 22  1  0  0  0
 20 21  2  0  0  0
 20 37  1  0  0  0
 21 38  1  0  0  0
 22 23  2  0  0  0
 22 26  1  0  0  0
 23 24  1  0  0  0
 24 25  2  0  0  0
 24 39  1  0  0  0
 25 26  1  0  0  0
 26 40  1  0  0  0
M  END
> <s_m_entry_id>
49588

> <s_m_entry_name>
dock_pv.178

> <s_m_Source_Path>
/home/csk/Desktop/cluster/DUD-E-result/fgfr1

> <s_m_Source_File>
dock_pv.maegz

> <i_m_Source_File_Index>
178

> <chembl_id>
CHEMBL396523

> <chembl_pref_name>
None

> <i_lp_mmshare_version>
53161

> <i_f3d_flags>
0

> <r_lp_tautomer_probability>
0.983170142140339

> <s_lp_Force_Field>
OPLS_2005

> <r_lp_Energy>
17.234457

> <b_lp_Chiralities_Consistent>
1

> <s_lp_Variant>
CHEMBL3650_lig3164-1

> <s_i_glide_gridfile>
glide-grid_3c4f

> <i_i_glide_lignum>
4067

> <i_i_glide_rotatable_bonds>
6

> <r_i_docking_score>
-7.07654323091829

> <r_i_glide_ligand_efficiency>
-0.272174739650704

> <r_i_glide_ligand_efficiency_sa>
-0.806316595259323

> <r_i_glide_ligand_efficiency_ln>
-1.66190295774891

> <r_i_glide_gscore>
-7.07654323091829

> <r_i_glide_lipo>
-2.68591161937515

> <r_i_glide_hbond>
-0.297135482987542

> <r_i_glide_metal>
0

> <r_i_glide_rewards>
-2.2130793707048

> <r_i_glide_evdw>
-35.2867698669434

> <r_i_glide_ecoul>
-5.58530426025391

> <r_i_glide_erotb>
0.792431043310425

> <r_i_glide_esite>
-0.0707136687759747

> <r_i_glide_emodel>
-47.214622250149

> <r_i_glide_energy>
-40.8720741271973

> <r_i_glide_einternal>
16.666431427002

> <i_i_glide_confnum>
73

> <i_i_glide_posenum>
384

> <r_i_glide_eff_state_penalty>
0

> <s_user_duplicate_titles>
CHEMBL3650_lig3164

> <s_m_subgroup_title>
dock_pv

> <s_m_subgroupid>
dock_pv

> <b_m_subgroup_collapsed>
1

$$$$
CHEMBL3650_lig2561
                    3D
 Schrodinger Suite 2021-1.
 43 46  0  0  1  0            999 V2000
    5.9019    2.9342   12.6992 O   0  0  0  0  0  0
    8.4382    4.4597   21.9093 O   0  0  0  0  0  0
    7.8361    1.7303   22.6526 O   0  0  0  0  0  0
    4.2751    4.7371   18.6297 N   0  0  0  0  0  0
    3.4731    5.2663   17.7021 N   0  0  0  0  0  0
    4.7275    4.4412   15.8596 C   0  0  0  0  0  0
    5.6534    3.8808   16.8064 C   0  0  0  0  0  0
    5.3577    4.0819   18.1798 C   0  0  0  0  0  0
    4.8300    4.1774   14.4548 C   0  0  0  0  0  0
    3.5811    5.1402   16.3394 C   0  0  0  0  0  0
    6.0859    3.4609   19.2965 C   0  0  0  0  0  0
    5.8240    3.2880   14.0252 C   0  0  0  0  0  0
    6.6807    3.0740   16.3073 C   0  0  0  0  0  0
    3.8635    4.7368   13.5930 C   0  0  0  0  0  0
    6.6786    2.7363   14.9639 C   0  0  0  0  0  0
    2.5704    5.5370   15.4528 C   0  0  0  0  0  0
    6.9735    4.2130   20.0678 C   0  0  0  0  0  0
    5.8055    2.1423   19.6573 C   0  0  0  0  0  0
    7.5632    3.6670   21.2044 C   0  0  0  0  0  0
    2.7708    5.4301   14.0924 C   0  0  0  0  0  0
    7.2424    2.3493   21.5856 C   0  0  0  0  0  0
    6.3690    1.5949   20.8039 C   0  0  0  0  0  0
    5.5421    1.5933   12.4056 C   0  0  0  0  0  0
    9.7582    3.9494   22.0054 C   0  0  0  0  0  0
    7.5453    2.2811   23.9256 C   0  0  0  0  0  0
    2.6647    5.7172   18.1038 H   0  0  0  0  0  0
    7.3641    2.5929   16.9914 H   0  0  0  0  0  0
    3.9593    4.5913   12.5264 H   0  0  0  0  0  0
    7.3052    1.9406   14.6533 H   0  0  0  0  0  0
    1.6481    5.9370   15.8389 H   0  0  0  0  0  0
    7.1926    5.2351   19.7939 H   0  0  0  0  0  0
    5.1193    1.5494   19.0683 H   0  0  0  0  0  0
    2.0330    5.8310   13.4136 H   0  0  0  0  0  0
    6.1467    0.5690   21.0534 H   0  0  0  0  0  0
    5.3461    1.5259   11.3360 H   0  0  0  0  0  0
    4.6368    1.2773   12.9287 H   0  0  0  0  0  0
    6.3501    0.9036   12.6506 H   0  0  0  0  0  0
   10.4603    4.7370   22.2529 H   0  0  0  0  0  0
    9.8603    3.1789   22.7681 H   0  0  0  0  0  0
   10.0580    3.5371   21.0530 H   0  0  0  0  0  0
    8.2789    1.9377   24.6542 H   0  0  0  0  0  0
    7.5672    3.3686   23.9325 H   0  0  0  0  0  0
    6.5674    1.9370   24.2526 H   0  0  0  0  0  0
  1 12  1  0  0  0
  1 23  1  0  0  0
  2 19  1  0  0  0
  2 24  1  0  0  0
  3 21  1  0  0  0
  3 25  1  0  0  0
  4  5  1  0  0  0
  4  8  2  0  0  0
  5 10  1  0  0  0
  5 26  1  0  0  0
  6  7  2  0  0  0
  6  9  1  0  0  0
  6 10  1  0  0  0
  7  8  1  0  0  0
  7 13  1  0  0  0
  8 11  1  0  0  0
  9 12  2  0  0  0
  9 14  1  0  0  0
 10 16  2  0  0  0
 11 17  1  0  0  0
 11 18  2  0  0  0
 12 15  1  0  0  0
 13 15  2  0  0  0
 13 27  1  0  0  0
 14 20  2  0  0  0
 14 28  1  0  0  0
 15 29  1  0  0  0
 16 20  1  0  0  0
 16 30  1  0  0  0
 17 19  2  0  0  0
 17 31  1  0  0  0
 18 22  1  0  0  0
 18 32  1  0  0  0
 19 21  1  0  0  0
 20 33  1  0  0  0
 21 22  2  0  0  0
 22 34  1  0  0  0
 23 35  1  0  0  0
 23 36  1  0  0  0
 23 37  1  0  0  0
 24 38  1  0  0  0
 24 39  1  0  0  0
 24 40  1  0  0  0
 25 41  1  0  0  0
 25 42  1  0  0  0
 25 43  1  0  0  0
M  END
> <s_m_entry_id>
49589

> <s_m_entry_name>
dock_pv.179

> <s_m_Source_Path>
/home/csk/Desktop/cluster/DUD-E-result/fgfr1

> <s_m_Source_File>
dock_pv.maegz

> <i_m_Source_File_Index>
179

> <chembl_id>
CHEMBL1997335

> <chembl_pref_name>
None

> <i_lp_mmshare_version>
53161

> <i_f3d_flags>
0

> <r_lp_tautomer_probability>
1

> <s_lp_Force_Field>
OPLS_2005

> <r_lp_Energy>
48.259604

> <b_lp_Chiralities_Consistent>
1

> <s_lp_Variant>
CHEMBL3650_lig2561-1

> <s_i_glide_gridfile>
glide-grid_3c4f

> <i_i_glide_lignum>
3142

> <i_i_glide_rotatable_bonds>
4

> <r_i_docking_score>
-7.07534699990684

> <r_i_glide_ligand_efficiency>
-0.283013879996274

> <r_i_glide_ligand_efficiency_sa>
-0.827537604381638

> <r_i_glide_ligand_efficiency_ln>
-1.67706927001765

> <r_i_glide_gscore>
-7.07534699990684

> <r_i_glide_lipo>
-3.55990776946542

> <r_i_glide_hbond>
-0.32

> <r_i_glide_metal>
0

> <r_i_glide_rewards>
-2.02930554545454

> <r_i_glide_evdw>
-23.3929214477539

> <r_i_glide_ecoul>
-1.10116600990295

> <r_i_glide_erotb>
0.168687288886263

> <r_i_glide_esite>
0

> <r_i_glide_emodel>
-15.086785031712

> <r_i_glide_energy>
-24.4940874576569

> <r_i_glide_einternal>
22.2161102294922

> <i_i_glide_confnum>
3

> <i_i_glide_posenum>
76

> <r_i_glide_eff_state_penalty>
0

> <s_user_duplicate_titles>
CHEMBL3650_lig2561

> <s_m_subgroup_title>
dock_pv

> <s_m_subgroupid>
dock_pv

> <b_m_subgroup_collapsed>
1

$$$$
CHEMBL3650_lig2759
                    3D
 Schrodinger Suite 2021-1.
 34 37  0  0  1  0            999 V2000
    5.8596    4.2913   17.6107 C   0  0  0  0  0  0
    4.9653    5.3352   17.3747 C   0  0  0  0  0  0
    4.3722    5.5126   16.1256 C   0  0  0  0  0  0
    6.2070    3.3989   16.5970 C   0  0  0  0  0  0
    5.6019    3.5372   15.3386 C   0  0  0  0  0  0
    4.6735    4.5990   15.1099 C   0  0  0  0  0  0
    4.1501    4.5757   13.8521 N   0  0  0  0  0  0
    4.7734    3.5328   13.2836 N   0  0  0  0  0  0
    5.6382    2.8460   14.0995 C   0  0  0  0  0  0
    6.4160    4.0801   18.9620 C   0  0  0  0  0  0
    6.3978    3.0156   19.8294 C   0  0  0  0  0  0
    7.1841    3.4019   20.9117 C   0  0  0  0  0  0
    7.5650    4.6579   20.7824 N   0  0  0  0  0  0
    7.1272    5.0856   19.5280 O   0  0  0  0  0  0
    7.5854    2.5410   22.1061 C   0  0  0  0  0  0
    8.8327    2.9440   22.8975 C   0  0  0  0  0  0
    9.9644    3.4617   22.2616 C   0  0  0  0  0  0
   11.0904    3.8013   23.0024 C   0  0  0  0  0  0
   11.0787    3.6505   24.3860 C   0  0  0  0  0  0
    9.9691    3.1070   25.0275 C   0  0  0  0  0  0
    8.8563    2.7370   24.2766 C   0  0  0  0  0  0
    4.7029    6.0006   18.1837 H   0  0  0  0  0  0
    3.6782    6.3173   15.9372 H   0  0  0  0  0  0
    6.9028    2.5953   16.7867 H   0  0  0  0  0  0
    4.5807    3.2803   12.3255 H   0  0  0  0  0  0
    6.1580    1.9715   13.7406 H   0  0  0  0  0  0
    5.9210    2.0609   19.6671 H   0  0  0  0  0  0
    7.8020    1.5391   21.7437 H   0  0  0  0  0  0
    6.7327    2.4108   22.7717 H   0  0  0  0  0  0
    9.9720    3.5960   21.1905 H   0  0  0  0  0  0
   11.9650    4.2009   22.5102 H   0  0  0  0  0  0
   11.9494    3.9290   24.9606 H   0  0  0  0  0  0
    9.9789    2.9640   26.0972 H   0  0  0  0  0  0
    8.0047    2.2953   24.7720 H   0  0  0  0  0  0
  1  2  1  0  0  0
  1 10  1  0  0  0
  1  4  2  0  0  0
  2  3  2  0  0  0
  2 22  1  0  0  0
  3  6  1  0  0  0
  3 23  1  0  0  0
  4 24  1  0  0  0
  4  5  1  0  0  0
  5  6  1  0  0  0
  5  9  2  0  0  0
  6  7  2  0  0  0
  7  8  1  0  0  0
  8 25  1  0  0  0
  8  9  1  0  0  0
  9 26  1  0  0  0
 10 11  2  0  0  0
 10 14  1  0  0  0
 11 12  1  0  0  0
 11 27  1  0  0  0
 12 13  2  0  0  0
 12 15  1  0  0  0
 13 14  1  0  0  0
 15 16  1  0  0  0
 15 28  1  0  0  0
 15 29  1  0  0  0
 16 17  2  0  0  0
 16 21  1  0  0  0
 17 18  1  0  0  0
 17 30  1  0  0  0
 18 19  2  0  0  0
 18 31  1  0  0  0
 19 20  1  0  0  0
 19 32  1  0  0  0
 20 21  2  0  0  0
 20 33  1  0  0  0
 21 34  1  0  0  0
M  END
> <s_m_entry_id>
49590

> <s_m_entry_name>
dock_pv.180

> <s_m_Source_Path>
/home/csk/Desktop/cluster/DUD-E-result/fgfr1

> <s_m_Source_File>
dock_pv.maegz

> <i_m_Source_File_Index>
180

> <chembl_id>
CHEMBL1682357

> <chembl_pref_name>
None

> <i_lp_mmshare_version>
53161

> <i_f3d_flags>
0

> <r_lp_tautomer_probability>
0.0196078431372549

> <s_lp_Force_Field>
OPLS_2005

> <r_lp_Energy>
23.451076

> <b_lp_Chiralities_Consistent>
1

> <s_lp_Variant>
CHEMBL3650_lig2759-2

> <s_i_glide_gridfile>
glide-grid_3c4f

> <i_i_glide_lignum>
3438

> <i_i_glide_rotatable_bonds>
3

> <r_i_docking_score>
-7.07515713123924

> <r_i_glide_ligand_efficiency>
-0.336912244344726

> <r_i_glide_ligand_efficiency_sa>
-0.929515335298178

> <r_i_glide_ligand_efficiency_ln>
-1.74931830399776

> <r_i_glide_gscore>
-7.07515713123924

> <r_i_glide_lipo>
-3.66930187657478

> <r_i_glide_hbond>
0

> <r_i_glide_metal>
0

> <r_i_glide_rewards>
-2.36515999760948

> <r_i_glide_evdw>
-38.8415870666504

> <r_i_glide_ecoul>
1.26682198047638

> <r_i_glide_erotb>
0.711360799206081

> <r_i_glide_esite>
0

> <r_i_glide_emodel>
-50.9611551834919

> <r_i_glide_energy>
-37.574765086174

> <r_i_glide_einternal>
3.38965559005737

> <i_i_glide_confnum>
8

> <i_i_glide_posenum>
263

> <r_i_glide_eff_state_penalty>
0

> <s_user_duplicate_titles>
CHEMBL3650_lig2759

> <s_m_subgroup_title>
dock_pv

> <s_m_subgroupid>
dock_pv

> <b_m_subgroup_collapsed>
1

$$$$
CHEMBL3650_lig2803
                    3D
 Schrodinger Suite 2021-1.
 33 35  0  0  1  0            999 V2000
   10.4999    3.1680   25.7648 S   0  0  0  0  0  0
    6.3708    3.3779   14.3746 O   0  0  0  0  0  0
    5.5710    3.1366   18.0348 N   0  0  0  0  0  0
    6.4869    4.9736   16.8189 N   0  0  0  0  0  0
    7.2578    3.7268   20.2188 C   0  0  0  0  0  0
    6.3710    2.6161   20.2821 C   0  0  0  0  0  0
    8.2148    3.0589   22.3740 C   0  0  0  0  0  0
    8.1669    3.9376   21.2851 C   0  0  0  0  0  0
    9.2590    3.2265   23.4406 C   0  0  0  0  0  0
    7.2357    4.5439   19.0581 C   0  0  0  0  0  0
    6.4014    4.2050   17.9893 C   0  0  0  0  0  0
    6.3716    1.7849   21.4204 C   0  0  0  0  0  0
    7.2905    2.0102   22.4420 C   0  0  0  0  0  0
    5.5599    2.3797   19.1539 C   0  0  0  0  0  0
    9.1709    2.7371   24.7437 C   0  0  0  0  0  0
   10.4940    3.8763   23.2693 C   0  0  0  0  0  0
   11.2691    3.9370   24.4231 C   0  0  0  0  0  0
    5.3824    5.0498   15.8560 C   0  0  0  0  0  0
    5.1548    3.8171   14.9474 C   0  0  0  0  0  0
    6.9479    4.1454   14.2193 H   0  0  0  0  0  0
    6.9054    5.8684   17.0209 H   0  0  0  0  0  0
    8.8545    4.7666   21.2137 H   0  0  0  0  0  0
    7.9147    5.3787   18.9907 H   0  0  0  0  0  0
    5.6940    0.9454   21.4524 H   0  0  0  0  0  0
    7.3045    1.3329   23.2814 H   0  0  0  0  0  0
    4.8831    1.5370   19.1461 H   0  0  0  0  0  0
    8.3642    2.1588   25.1662 H   0  0  0  0  0  0
   10.8138    4.3018   22.3299 H   0  0  0  0  0  0
   12.2471    4.3817   24.5438 H   0  0  0  0  0  0
    5.5260    5.9311   15.2291 H   0  0  0  0  0  0
    4.4590    5.2415   16.4034 H   0  0  0  0  0  0
    4.5262    4.0784   14.0949 H   0  0  0  0  0  0
    4.7724    2.9539   15.4894 H   0  0  0  0  0  0
  1 15  1  0  0  0
  1 17  1  0  0  0
  2 19  1  0  0  0
  2 20  1  0  0  0
  3 11  1  0  0  0
  3 14  2  0  0  0
  4 11  1  0  0  0
  4 18  1  0  0  0
  4 21  1  0  0  0
  5  6  1  0  0  0
  5  8  2  0  0  0
  5 10  1  0  0  0
  6 12  2  0  0  0
  6 14  1  0  0  0
  7  8  1  0  0  0
  7  9  1  0  0  0
  7 13  2  0  0  0
  8 22  1  0  0  0
  9 15  2  0  0  0
  9 16  1  0  0  0
 10 11  2  0  0  0
 10 23  1  0  0  0
 12 13  1  0  0  0
 12 24  1  0  0  0
 13 25  1  0  0  0
 14 26  1  0  0  0
 15 27  1  0  0  0
 16 17  2  0  0  0
 16 28  1  0  0  0
 17 29  1  0  0  0
 18 19  1  0  0  0
 18 30  1  0  0  0
 18 31  1  0  0  0
 19 32  1  0  0  0
 19 33  1  0  0  0
M  END
> <s_m_entry_id>
49591

> <s_m_entry_name>
dock_pv.181

> <s_m_Source_Path>
/home/csk/Desktop/cluster/DUD-E-result/fgfr1

> <s_m_Source_File>
dock_pv.maegz

> <i_m_Source_File_Index>
181

> <chembl_id>
CHEMBL1973860

> <chembl_pref_name>
None

> <i_lp_mmshare_version>
53161

> <i_f3d_flags>
0

> <r_lp_tautomer_probability>
1

> <s_lp_Force_Field>
OPLS_2005

> <r_lp_Energy>
10.844395

> <b_lp_Chiralities_Consistent>
1

> <s_lp_Variant>
CHEMBL3650_lig2803-1

> <s_i_glide_gridfile>
glide-grid_3c4f

> <i_i_glide_lignum>
3504

> <i_i_glide_rotatable_bonds>
5

> <r_i_docking_score>
-7.07200073728715

> <r_i_glide_ligand_efficiency>
-0.372210565120377

> <r_i_glide_ligand_efficiency_sa>
-0.993207284664127

> <r_i_glide_ligand_efficiency_ln>
-1.79290407955091

> <r_i_glide_gscore>
-7.07200073728715

> <r_i_glide_lipo>
-3.28030870242782

> <r_i_glide_hbond>
-0.228957685918797

> <r_i_glide_metal>
0

> <r_i_glide_rewards>
-2.01477926678082

> <r_i_glide_evdw>
-35.8088035583496

> <r_i_glide_ecoul>
-4.90864753723145

> <r_i_glide_erotb>
0.978782226342483

> <r_i_glide_esite>
0

> <r_i_glide_emodel>
-55.62766125089

> <r_i_glide_energy>
-40.7174510955811

> <r_i_glide_einternal>
3.78923630714417

> <i_i_glide_confnum>
51

> <i_i_glide_posenum>
333

> <r_i_glide_eff_state_penalty>
0

> <s_user_duplicate_titles>
CHEMBL3650_lig2803

> <s_m_subgroup_title>
dock_pv

> <s_m_subgroupid>
dock_pv

> <b_m_subgroup_collapsed>
1

$$$$
CHEMBL3650_lig2476
                    3D
 Schrodinger Suite 2021-1.
 32 34  0  0  1  0            999 V2000
   11.5219    4.1148   24.2530 Cl  0  0  0  0  0  0
    6.3706    2.1970   21.2796 S   0  0  0  0  0  0
    5.1710    1.5299   18.6530 O   0  0  0  0  0  0
    7.9710    4.7377   20.6058 N   0  0  0  0  0  0
    6.4389    3.1368   19.7464 C   0  0  0  0  0  0
    7.1208    4.2890   19.6224 C   0  0  0  0  0  0
    8.4216    3.9959   21.7073 C   0  0  0  0  0  0
    7.6859    2.9134   22.1995 C   0  0  0  0  0  0
    5.8714    4.8075   17.3779 C   0  0  0  0  0  0
    5.7671    2.5747   18.5880 C   0  0  0  0  0  0
    7.0118    5.1754   18.3777 C   0  0  0  0  0  0
    5.9181    3.2825   17.2377 C   0  0  0  0  0  0
    9.6239    4.3370   22.3163 C   0  0  0  0  0  0
    8.0510    2.3370   23.4133 C   0  0  0  0  0  0
   10.0279    3.7047   23.4939 C   0  0  0  0  0  0
    9.2126    2.7370   24.0680 C   0  0  0  0  0  0
    4.4678    5.2558   17.8530 C   0  0  0  0  0  0
    6.1877    5.4007   15.9919 C   0  0  0  0  0  0
    8.4676    5.5912   20.4058 H   0  0  0  0  0  0
    7.9710    5.0806   17.8852 H   0  0  0  0  0  0
    6.8892    6.2127   18.6766 H   0  0  0  0  0  0
    6.8874    2.9746   16.8437 H   0  0  0  0  0  0
    5.1710    2.9103   16.5392 H   0  0  0  0  0  0
   10.2366    5.1031   21.8648 H   0  0  0  0  0  0
    7.4602    1.5370   23.8305 H   0  0  0  0  0  0
    9.5043    2.2496   24.9872 H   0  0  0  0  0  0
    3.7005    4.9842   17.1283 H   0  0  0  0  0  0
    4.1786    4.8151   18.8066 H   0  0  0  0  0  0
    4.4105    6.3370   17.9658 H   0  0  0  0  0  0
    5.4637    5.0798   15.2413 H   0  0  0  0  0  0
    6.1666    6.4900   16.0047 H   0  0  0  0  0  0
    7.1710    5.0958   15.6371 H   0  0  0  0  0  0
  1 15  1  0  0  0
  2  8  1  0  0  0
  2  5  1  0  0  0
  3 10  2  0  0  0
  4  6  1  0  0  0
  4  7  1  0  0  0
  4 19  1  0  0  0
  5 10  1  0  0  0
  5  6  2  0  0  0
  6 11  1  0  0  0
  7  8  1  0  0  0
  7 13  2  0  0  0
  8 14  2  0  0  0
  9 11  1  0  0  0
  9 12  1  0  0  0
  9 17  1  0  0  0
  9 18  1  0  0  0
 10 12  1  0  0  0
 11 20  1  0  0  0
 11 21  1  0  0  0
 12 22  1  0  0  0
 12 23  1  0  0  0
 13 15  1  0  0  0
 13 24  1  0  0  0
 14 16  1  0  0  0
 14 25  1  0  0  0
 15 16  2  0  0  0
 16 26  1  0  0  0
 17 27  1  0  0  0
 17 28  1  0  0  0
 17 29  1  0  0  0
 18 30  1  0  0  0
 18 31  1  0  0  0
 18 32  1  0  0  0
M  END
> <s_m_entry_id>
49592

> <s_m_entry_name>
dock_pv.182

> <s_m_Source_Path>
/home/csk/Desktop/cluster/DUD-E-result/fgfr1

> <s_m_Source_File>
dock_pv.maegz

> <i_m_Source_File_Index>
182

> <chembl_id>
CHEMBL1562756

> <chembl_pref_name>
None

> <i_lp_mmshare_version>
53161

> <i_f3d_flags>
0

> <r_lp_tautomer_probability>
0.999999999998843

> <s_lp_Force_Field>
OPLS_2005

> <r_lp_Energy>
12.691402

> <b_lp_Chiralities_Consistent>
1

> <s_lp_Variant>
CHEMBL3650_lig2476-1

> <s_i_glide_gridfile>
glide-grid_3c4f

> <i_i_glide_lignum>
3026

> <i_i_glide_rotatable_bonds>
0

> <r_i_docking_score>
-7.07072399168311

> <r_i_glide_ligand_efficiency>
-0.392817999537951

> <r_i_glide_ligand_efficiency_sa>
-1.02947439078758

> <r_i_glide_ligand_efficiency_ln>
-1.81749314248231

> <r_i_glide_gscore>
-7.07072399168311

> <r_i_glide_lipo>
-3.07383327513371

> <r_i_glide_hbond>
0

> <r_i_glide_metal>
0

> <r_i_glide_rewards>
-2.64381968259478

> <r_i_glide_evdw>
-29.7409038543701

> <r_i_glide_ecoul>
0.893161058425903

> <r_i_glide_erotb>
0

> <r_i_glide_esite>
0

> <r_i_glide_emodel>
-35.6255530158214

> <r_i_glide_energy>
-28.8477427959442

> <r_i_glide_einternal>
0

> <i_i_glide_confnum>
1

> <i_i_glide_posenum>
145

> <r_i_glide_eff_state_penalty>
0

> <s_user_duplicate_titles>
CHEMBL3650_lig2476

> <s_m_subgroup_title>
dock_pv

> <s_m_subgroupid>
dock_pv

> <b_m_subgroup_collapsed>
1

$$$$
CHEMBL3650_lig2526
                    3D
 Schrodinger Suite 2021-1.
 41 44  0  0  1  0            999 V2000
    6.3709    2.3630   14.1444 O   0  0  0  0  0  0
    5.4646    4.6451   18.0977 N   0  0  0  0  0  0
    5.1358    4.2254   14.0529 N   0  0  0  0  0  0
    7.2151    2.3650   22.3575 N   0  0  0  0  0  0
    6.0232    3.6906   16.1330 C   0  0  0  0  0  0
    6.4180    3.7055   18.3873 C   0  0  0  0  0  0
    5.1714    4.5818   16.7647 C   0  0  0  0  0  0
    6.7836    3.1356   17.1690 C   0  0  0  0  0  0
    6.7576    3.3198   19.7722 C   0  0  0  0  0  0
    5.9215    3.3465   14.7257 C   0  0  0  0  0  0
    4.1457    5.3837   16.0181 C   0  0  0  0  0  0
    7.7883    3.8639   20.5514 C   0  0  0  0  0  0
    5.9708    2.2993   20.3001 C   0  0  0  0  0  0
    8.0078    3.3407   21.8365 C   0  0  0  0  0  0
    4.6895    5.5362   14.5790 C   0  0  0  0  0  0
    6.2161    1.8727   21.5955 C   0  0  0  0  0  0
    9.1212    3.8147   22.6814 C   0  0  0  0  0  0
    9.3142    3.4681   23.9729 C   0  0  0  0  0  0
   10.4358    3.8995   24.8137 C   0  0  0  0  0  0
   11.7377    3.9384   24.3053 C   0  0  0  0  0  0
   10.1851    4.2991   26.1281 C   0  0  0  0  0  0
   12.7707    4.4420   25.0927 C   0  0  0  0  0  0
   11.2233    4.7820   26.9204 C   0  0  0  0  0  0
   12.5110    4.8596   26.3946 C   0  0  0  0  0  0
    4.9684    5.2023   18.7774 H   0  0  0  0  0  0
    4.9236    4.0039   13.0923 H   0  0  0  0  0  0
    7.4992    2.3381   17.0430 H   0  0  0  0  0  0
    3.9793    6.3404   16.4863 H   0  0  0  0  0  0
    3.1822    4.8733   15.9929 H   0  0  0  0  0  0
    8.4172    4.6429   20.1514 H   0  0  0  0  0  0
    5.1643    1.8565   19.7280 H   0  0  0  0  0  0
    3.9140    5.9351   13.9257 H   0  0  0  0  0  0
    5.5266    6.2354   14.5426 H   0  0  0  0  0  0
    5.5828    1.1352   22.0488 H   0  0  0  0  0  0
    9.8226    4.4860   22.2082 H   0  0  0  0  0  0
    8.6131    2.7973   24.4516 H   0  0  0  0  0  0
   11.9468    3.6208   23.2955 H   0  0  0  0  0  0
    9.1858    4.2547   26.5369 H   0  0  0  0  0  0
   13.7718    4.5239   24.6937 H   0  0  0  0  0  0
   11.0328    5.1027   27.9336 H   0  0  0  0  0  0
   13.3192    5.2428   27.0010 H   0  0  0  0  0  0
  1 10  2  0  0  0
  2  6  1  0  0  0
  2  7  1  0  0  0
  2 25  1  0  0  0
  3 10  1  0  0  0
  3 15  1  0  0  0
  3 26  1  0  0  0
  4 14  1  0  0  0
  4 16  2  0  0  0
  5  7  2  0  0  0
  5  8  1  0  0  0
  5 10  1  0  0  0
  6  8  2  0  0  0
  6  9  1  0  0  0
  7 11  1  0  0  0
  8 27  1  0  0  0
  9 12  1  0  0  0
  9 13  2  0  0  0
 11 15  1  0  0  0
 11 28  1  0  0  0
 11 29  1  0  0  0
 12 14  2  0  0  0
 12 30  1  0  0  0
 13 16  1  0  0  0
 13 31  1  0  0  0
 14 17  1  0  0  0
 15 32  1  0  0  0
 15 33  1  0  0  0
 16 34  1  0  0  0
 17 18  2  3  0  0
 17 35  1  0  0  0
 18 19  1  0  0  0
 18 36  1  0  0  0
 19 20  2  0  0  0
 19 21  1  0  0  0
 20 22  1  0  0  0
 20 37  1  0  0  0
 21 23  2  0  0  0
 21 38  1  0  0  0
 22 24  2  0  0  0
 22 39  1  0  0  0
 23 24  1  0  0  0
 23 40  1  0  0  0
 24 41  1  0  0  0
M  END
> <s_m_entry_id>
49593

> <s_m_entry_name>
dock_pv.183

> <s_m_Source_Path>
/home/csk/Desktop/cluster/DUD-E-result/fgfr1

> <s_m_Source_File>
dock_pv.maegz

> <i_m_Source_File_Index>
183

> <chembl_id>
CHEMBL1997129

> <chembl_pref_name>
None

> <i_lp_mmshare_version>
53161

> <i_f3d_flags>
0

> <r_lp_tautomer_probability>
1

> <s_lp_Force_Field>
OPLS_2005

> <r_lp_Energy>
20.882396

> <b_lp_Chiralities_Consistent>
1

> <s_lp_Variant>
CHEMBL3650_lig2526-1

> <s_i_glide_gridfile>
glide-grid_3c4f

> <i_i_glide_lignum>
3090

> <i_i_glide_rotatable_bonds>
3

> <r_i_docking_score>
-7.06720054215069

> <r_i_glide_ligand_efficiency>
-0.294466689256279

> <r_i_glide_ligand_efficiency_sa>
-0.849388911199625

> <r_i_glide_ligand_efficiency_ln>
-1.69150538243834

> <r_i_glide_gscore>
-7.06720054215069

> <r_i_glide_lipo>
-3.21316309244577

> <r_i_glide_hbond>
-0.251884549449566

> <r_i_glide_metal>
0

> <r_i_glide_rewards>
-1.63385127272727

> <r_i_glide_evdw>
-41.8222541809082

> <r_i_glide_ecoul>
-2.41097092628479

> <r_i_glide_erotb>
0.561093860807163

> <r_i_glide_esite>
-0.0766371403471215

> <r_i_glide_emodel>
-52.9327217260147

> <r_i_glide_energy>
-44.233225107193

> <r_i_glide_einternal>
6.37824583053589

> <i_i_glide_confnum>
2

> <i_i_glide_posenum>
361

> <r_i_glide_eff_state_penalty>
0

> <s_user_duplicate_titles>
CHEMBL3650_lig2526

> <s_m_subgroup_title>
dock_pv

> <s_m_subgroupid>
dock_pv

> <b_m_subgroup_collapsed>
1

$$$$
CHEMBL3650_lig3273
                    3D
 Schrodinger Suite 2021-1.
 28 30  0  0  1  0            999 V2000
    3.5710    4.8243   13.8648 S   0  0  0  0  0  0
    7.0891    5.8803   19.0604 F   0  0  0  0  0  0
    7.2913    2.1835   21.9814 F   0  0  0  0  0  0
    5.9702    2.3161   12.6192 O   0  0  0  0  0  0
    2.6153    5.5370   17.6710 N   0  0  0  0  0  0
    5.5702    4.3246   11.6712 N   0  0  0  0  0  0
    4.8215    4.5890   16.1822 C   0  0  0  0  0  0
    4.8792    4.6355   17.6044 C   0  0  0  0  0  0
    3.6388    5.1161   15.5588 C   0  0  0  0  0  0
    5.8277    3.9212   18.5008 C   0  0  0  0  0  0
    5.1097    4.0354   13.9279 C   0  0  0  0  0  0
    5.6736    3.9948   15.2021 C   0  0  0  0  0  0
    3.7538    5.1377   18.2533 C   0  0  0  0  0  0
    6.7695    4.5952   19.2962 C   0  0  0  0  0  0
    2.5601    5.5350   16.3154 C   0  0  0  0  0  0
    5.5749    3.4755   12.7027 C   0  0  0  0  0  0
    5.5061    2.5996   18.8322 C   0  0  0  0  0  0
    7.2867    3.9964   20.4435 C   0  0  0  0  0  0
    6.8467    2.7357   20.8288 C   0  0  0  0  0  0
    5.9715    2.0247   20.0132 C   0  0  0  0  0  0
    5.2668    5.2866   11.8342 H   0  0  0  0  0  0
    5.8632    4.0300   10.7559 H   0  0  0  0  0  0
    6.6210    3.5288   15.4324 H   0  0  0  0  0  0
    3.6989    5.1366   19.3287 H   0  0  0  0  0  0
    1.6218    5.8203   15.8607 H   0  0  0  0  0  0
    4.7717    2.0562   18.2570 H   0  0  0  0  0  0
    7.9816    4.5396   21.0654 H   0  0  0  0  0  0
    5.6479    1.0338   20.2947 H   0  0  0  0  0  0
  1  9  1  0  0  0
  1 11  1  0  0  0
  2 14  1  0  0  0
  3 19  1  0  0  0
  4 16  2  0  0  0
  5 13  2  0  0  0
  5 15  1  0  0  0
  6 16  1  0  0  0
  6 21  1  0  0  0
  6 22  1  0  0  0
  7  8  2  0  0  0
  7  9  1  0  0  0
  7 12  1  0  0  0
  8 10  1  0  0  0
  8 13  1  0  0  0
  9 15  2  0  0  0
 10 14  1  0  0  0
 10 17  2  0  0  0
 11 12  2  0  0  0
 11 16  1  0  0  0
 12 23  1  0  0  0
 13 24  1  0  0  0
 14 18  2  0  0  0
 15 25  1  0  0  0
 17 20  1  0  0  0
 17 26  1  0  0  0
 18 19  1  0  0  0
 18 27  1  0  0  0
 19 20  2  0  0  0
 20 28  1  0  0  0
M  END
> <s_m_entry_id>
49594

> <s_m_entry_name>
dock_pv.184

> <s_m_Source_Path>
/home/csk/Desktop/cluster/DUD-E-result/fgfr1

> <s_m_Source_File>
dock_pv.maegz

> <i_m_Source_File_Index>
184

> <chembl_id>
CHEMBL1975787

> <chembl_pref_name>
None

> <i_lp_mmshare_version>
53161

> <i_f3d_flags>
0

> <r_lp_tautomer_probability>
1

> <s_lp_Force_Field>
OPLS_2005

> <r_lp_Energy>
7.805335

> <b_lp_Chiralities_Consistent>
1

> <s_lp_Variant>
CHEMBL3650_lig3273-1

> <s_i_glide_gridfile>
glide-grid_3c4f

> <i_i_glide_lignum>
4244

> <i_i_glide_rotatable_bonds>
2

> <r_i_docking_score>
-7.06527097548433

> <r_i_glide_ligand_efficiency>
-0.353263548774217

> <r_i_glide_ligand_efficiency_sa>
-0.958904799136027

> <r_i_glide_ligand_efficiency_ln>
-1.76820429693107

> <r_i_glide_gscore>
-7.06527097548433

> <r_i_glide_lipo>
-2.73228806681258

> <r_i_glide_hbond>
-0.456

> <r_i_glide_metal>
0

> <r_i_glide_rewards>
-2.98830846293859

> <r_i_glide_evdw>
-4.75353622436523

> <r_i_glide_ecoul>
-5.02203845977783

> <r_i_glide_erotb>
0.216246649320236

> <r_i_glide_esite>
-0.113938514868463

> <r_i_glide_emodel>
-30.4893388057294

> <r_i_glide_energy>
-9.77557468414307

> <r_i_glide_einternal>
4.90239000320435

> <i_i_glide_confnum>
2

> <i_i_glide_posenum>
107

> <r_i_glide_eff_state_penalty>
0

> <s_user_duplicate_titles>
CHEMBL3650_lig3273

> <s_m_subgroup_title>
dock_pv

> <s_m_subgroupid>
dock_pv

> <b_m_subgroup_collapsed>
1

$$$$
CHEMBL3650_lig2651
                    3D
 Schrodinger Suite 2021-1.
 44 47  0  0  1  0            999 V2000
    6.0244    1.3949   21.0527 S   0  0  0  0  0  0
    3.5708    5.9370   15.9982 F   0  0  0  0  0  0
   10.7500    3.5358   24.0880 O   0  0  0  0  0  0
    8.3184    5.2439   21.2975 N   0  0  0  0  0  0
    4.9048    4.5775   13.7965 N   0  0  0  0  0  0
    7.1710    5.9370   19.4230 N   0  0  0  0  0  0
   10.1604    3.3633   26.2634 N   0  0  0  0  0  0
    6.8803    3.6734   20.1631 C   0  0  0  0  0  0
    6.1163    3.1224   19.0784 C   0  0  0  0  0  0
    7.0398    2.7969   21.2847 C   0  0  0  0  0  0
    5.8817    3.6963   17.7183 C   0  0  0  0  0  0
    7.4861    4.9226   20.2959 C   0  0  0  0  0  0
    6.0340    3.3719   15.3197 C   0  0  0  0  0  0
    7.8801    3.1304   22.3818 C   0  0  0  0  0  0
    5.1231    4.4304   15.1483 C   0  0  0  0  0  0
    5.6357    1.8908   19.4355 C   0  0  0  0  0  0
    6.4731    3.0635   16.6194 C   0  0  0  0  0  0
    4.5753    5.0985   16.2284 C   0  0  0  0  0  0
    4.9578    4.7237   17.5157 C   0  0  0  0  0  0
    8.5509    4.3380   22.2530 C   0  0  0  0  0  0
    6.2134    2.8083   14.0165 C   0  0  0  0  0  0
    5.5483    3.5945   13.0956 C   0  0  0  0  0  0
    7.9659    2.3174   23.6191 C   0  0  0  0  0  0
    8.7932    2.3371   24.6987 C   0  0  0  0  0  0
    5.4296    3.5302   11.5937 C   0  0  0  0  0  0
    9.9712    3.1385   24.9545 C   0  0  0  0  0  0
   11.2791    4.1087   26.8334 C   0  0  0  0  0  0
    4.3689    5.3014   13.3294 H   0  0  0  0  0  0
    6.7093    5.7016   18.5540 H   0  0  0  0  0  0
    7.6197    6.8309   19.5479 H   0  0  0  0  0  0
    9.4899    2.9864   26.9155 H   0  0  0  0  0  0
    5.0638    1.2188   18.8130 H   0  0  0  0  0  0
    7.1617    2.2469   16.7746 H   0  0  0  0  0  0
    4.4575    5.1735   18.3605 H   0  0  0  0  0  0
    9.1589    4.7511   23.0317 H   0  0  0  0  0  0
    6.7704    1.9370   13.7632 H   0  0  0  0  0  0
    7.1813    1.5783   23.6922 H   0  0  0  0  0  0
    8.5616    1.6459   25.4976 H   0  0  0  0  0  0
    5.9001    2.6377   11.1809 H   0  0  0  0  0  0
    4.3858    3.5298   11.2738 H   0  0  0  0  0  0
    5.8958    4.3976   11.1263 H   0  0  0  0  0  0
   11.8346    3.4718   27.5226 H   0  0  0  0  0  0
   10.9076    4.9674   27.3920 H   0  0  0  0  0  0
   11.9783    4.4756   26.0818 H   0  0  0  0  0  0
  1 10  1  0  0  0
  1 16  1  0  0  0
  2 18  1  0  0  0
  3 26  2  0  0  0
  4 12  2  0  0  0
  4 20  1  0  0  0
  5 15  1  0  0  0
  5 22  1  0  0  0
  5 28  1  0  0  0
  6 12  1  0  0  0
  6 29  1  0  0  0
  6 30  1  0  0  0
  7 26  1  0  0  0
  7 27  1  0  0  0
  7 31  1  0  0  0
  8  9  1  0  0  0
  8 10  2  0  0  0
  8 12  1  0  0  0
  9 11  1  0  0  0
  9 16  2  0  0  0
 10 14  1  0  0  0
 11 17  1  0  0  0
 11 19  2  0  0  0
 13 15  1  0  0  0
 13 17  2  0  0  0
 13 21  1  0  0  0
 14 20  2  0  0  0
 14 23  1  0  0  0
 15 18  2  0  0  0
 16 32  1  0  0  0
 17 33  1  0  0  0
 18 19  1  0  0  0
 19 34  1  0  0  0
 20 35  1  0  0  0
 21 22  2  0  0  0
 21 36  1  0  0  0
 22 25  1  0  0  0
 23 24  2  3  0  0
 23 37  1  0  0  0
 24 26  1  0  0  0
 24 38  1  0  0  0
 25 39  1  0  0  0
 25 40  1  0  0  0
 25 41  1  0  0  0
 27 42  1  0  0  0
 27 43  1  0  0  0
 27 44  1  0  0  0
M  END
> <s_m_entry_id>
49595

> <s_m_entry_name>
dock_pv.185

> <s_m_Source_Path>
/home/csk/Desktop/cluster/DUD-E-result/fgfr1

> <s_m_Source_File>
dock_pv.maegz

> <i_m_Source_File_Index>
185

> <chembl_id>
CHEMBL2006778

> <chembl_pref_name>
None

> <i_lp_mmshare_version>
53161

> <i_f3d_flags>
0

> <r_lp_tautomer_probability>
1

> <s_lp_Force_Field>
OPLS_2005

> <r_lp_Energy>
24.218205

> <b_lp_Chiralities_Consistent>
1

> <s_lp_Variant>
CHEMBL3650_lig2651-2

> <s_i_glide_gridfile>
glide-grid_3c4f

> <i_i_glide_lignum>
3269

> <i_i_glide_rotatable_bonds>
4

> <r_i_docking_score>
-7.06434778802766

> <r_i_glide_ligand_efficiency>
-0.261642510667691

> <r_i_glide_ligand_efficiency_sa>
-0.784927531140742

> <r_i_glide_ligand_efficiency_ln>
-1.64446370017733

> <r_i_glide_gscore>
-7.06434778802766

> <r_i_glide_lipo>
-3.51929438043347

> <r_i_glide_hbond>
-0.0846369991387825

> <r_i_glide_metal>
0

> <r_i_glide_rewards>
-1.85989554006943

> <r_i_glide_evdw>
-31.4706764221191

> <r_i_glide_ecoul>
-2.34958720207214

> <r_i_glide_erotb>
0.402126654497659

> <r_i_glide_esite>
-0.0766756214668656

> <r_i_glide_emodel>
-33.6366408529183

> <r_i_glide_energy>
-33.8202636241913

> <r_i_glide_einternal>
0.743428945541382

> <i_i_glide_confnum>
15

> <i_i_glide_posenum>
309

> <r_i_glide_eff_state_penalty>
0

> <s_user_duplicate_titles>
CHEMBL3650_lig2651

> <s_m_subgroup_title>
dock_pv

> <s_m_subgroupid>
dock_pv

> <b_m_subgroup_collapsed>
1

$$$$
CHEMBL3650_lig107
                    3D
 Schrodinger Suite 2021-1.
 43 46  0  0  1  0            999 V2000
    7.2320    4.6404   20.5135 N   0  0  0  0  0  0
    5.9327    3.9082   18.5917 C   0  0  0  0  0  0
    6.8885    3.4835   21.2186 C   0  0  0  0  0  0
    6.8342    4.8758   19.2245 C   0  0  0  0  0  0
    7.3859    3.3400   22.4771 N   0  0  0  0  0  0
    6.1374    2.4958   20.5755 C   0  0  0  0  0  0
    5.6146    2.7586   19.2284 C   0  0  0  0  0  0
    5.4336    4.2067   17.2086 C   0  0  0  0  0  0
    7.2014    2.1649   23.0719 C   0  0  0  0  0  0
    6.5641    1.1370   22.4805 N   0  0  0  0  0  0
    6.0387    1.2932   21.2387 C   0  0  0  0  0  0
    7.6703    1.9370   24.3715 N   0  0  0  0  0  0
    7.1710    5.8861   18.6530 O   0  0  0  0  0  0
    5.9869    3.5528   16.0980 C   0  0  0  0  0  0
    4.4056    5.1370   16.9608 C   0  0  0  0  0  0
   11.0265    3.0896   26.7070 N   0  0  0  0  0  0
    8.2072    5.5492   21.1741 C   0  0  0  0  0  0
    8.7900    2.3626   25.1291 C   0  0  0  0  0  0
    3.5612    5.8813   18.2530 Cl  0  0  0  0  0  0
    7.1710    2.3370   16.3142 Cl  0  0  0  0  0  0
    9.5125    3.5381   24.8805 C   0  0  0  0  0  0
    9.1719    1.6162   26.2530 C   0  0  0  0  0  0
   10.2913    1.9895   26.9968 C   0  0  0  0  0  0
   10.6204    3.8582   25.6680 C   0  0  0  0  0  0
    4.5758    4.7815   14.5755 C   0  0  0  0  0  0
    5.5711    3.8393   14.7979 C   0  0  0  0  0  0
    3.9840    5.4178   15.6591 C   0  0  0  0  0  0
    9.5710    4.8469   21.4168 C   0  0  0  0  0  0
    4.9675    2.0364   18.7486 H   0  0  0  0  0  0
    5.5710    0.4339   20.7816 H   0  0  0  0  0  0
    7.4915    0.9692   24.6106 H   0  0  0  0  0  0
    8.3286    6.4959   20.6530 H   0  0  0  0  0  0
    7.7965    5.8562   22.1333 H   0  0  0  0  0  0
    9.1481    4.2517   24.1735 H   0  0  0  0  0  0
    8.6254    0.7371   26.5314 H   0  0  0  0  0  0
   10.6138    1.3985   27.8430 H   0  0  0  0  0  0
   11.1844    4.7638   25.4978 H   0  0  0  0  0  0
    4.2602    5.0143   13.5676 H   0  0  0  0  0  0
    6.0270    3.3366   13.9581 H   0  0  0  0  0  0
    3.1842    6.1192   15.4789 H   0  0  0  0  0  0
   10.4078    5.5363   21.4530 H   0  0  0  0  0  0
    9.6543    4.2728   22.3167 H   0  0  0  0  0  0
    9.7244    4.0865   20.6530 H   0  0  0  0  0  0
  1  3  1  0  0  0
  1  4  1  0  0  0
  1 17  1  0  0  0
  2  4  1  0  0  0
  2  7  2  0  0  0
  2  8  1  0  0  0
  3  5  1  0  0  0
  3  6  2  0  0  0
  4 13  2  0  0  0
  5  9  2  0  0  0
  6 11  1  0  0  0
  6  7  1  0  0  0
  7 29  1  0  0  0
  8 14  2  0  0  0
  8 15  1  0  0  0
  9 12  1  0  0  0
  9 10  1  0  0  0
 10 11  2  0  0  0
 11 30  1  0  0  0
 12 18  1  0  0  0
 12 31  1  0  0  0
 14 20  1  0  0  0
 14 26  1  0  0  0
 15 19  1  0  0  0
 15 27  2  0  0  0
 16 23  1  0  0  0
 16 24  2  0  0  0
 17 28  1  0  0  0
 17 32  1  0  0  0
 17 33  1  0  0  0
 18 21  2  0  0  0
 18 22  1  0  0  0
 21 24  1  0  0  0
 21 34  1  0  0  0
 22 23  2  0  0  0
 22 35  1  0  0  0
 23 36  1  0  0  0
 24 37  1  0  0  0
 25 27  1  0  0  0
 25 26  2  0  0  0
 25 38  1  0  0  0
 26 39  1  0  0  0
 27 40  1  0  0  0
 28 41  1  0  0  0
 28 42  1  0  0  0
 28 43  1  0  0  0
M  END
> <s_m_entry_id>
49596

> <s_m_entry_name>
dock_pv.186

> <s_m_Source_Path>
/home/csk/Desktop/cluster/DUD-E-result/fgfr1

> <s_m_Source_File>
dock_pv.maegz

> <i_m_Source_File_Index>
186

> <chembl_id>
CHEMBL448154

> <chembl_pref_name>
None

> <i_lp_mmshare_version>
53161

> <i_f3d_flags>
0

> <r_lp_tautomer_probability>
0.999999106000799

> <s_lp_Force_Field>
OPLS_2005

> <r_lp_Energy>
25.743495

> <b_lp_Chiralities_Consistent>
1

> <s_lp_Variant>
CHEMBL3650_lig107-1

> <s_i_glide_gridfile>
glide-grid_3c4f

> <i_i_glide_lignum>
129

> <i_i_glide_rotatable_bonds>
4

> <r_i_docking_score>
-7.0604239094079

> <r_i_glide_ligand_efficiency>
-0.252157996764568

> <r_i_glide_ligand_efficiency_sa>
-0.765700191295056

> <r_i_glide_ligand_efficiency_ln>
-1.6297531413452

> <r_i_glide_gscore>
-7.0604239094079

> <r_i_glide_lipo>
-3.21509068454723

> <r_i_glide_hbond>
-0.470019875997399

> <r_i_glide_metal>
0

> <r_i_glide_rewards>
-2.86761953809047

> <r_i_glide_evdw>
6.03229141235352

> <r_i_glide_ecoul>
-7.01822137832642

> <r_i_glide_erotb>
0.243613898104045

> <r_i_glide_esite>
-0.000189072745567159

> <r_i_glide_emodel>
-23.1955892708918

> <r_i_glide_energy>
-0.9859299659729

> <r_i_glide_einternal>
8.02848815917969

> <i_i_glide_confnum>
8

> <i_i_glide_posenum>
85

> <r_i_glide_eff_state_penalty>
0

> <s_user_duplicate_titles>
CHEMBL3650_lig107,183299

> <s_m_subgroup_title>
dock_pv

> <s_m_subgroupid>
dock_pv

> <b_m_subgroup_collapsed>
1

$$$$
CHEMBL3650_lig3088
                    3D
 Schrodinger Suite 2021-1.
 49 51  0  0  1  0            999 V2000
    5.2316    3.7094   14.7700 C   0  0  0  0  0  0
    5.0678    4.7374   13.6363 C   0  0  0  0  0  0
    4.6899    4.0319   12.3163 C   0  0  0  0  0  0
    5.5704    2.9118   11.9604 N   0  0  1  0  0  0
    5.7121    1.9372   13.0382 C   0  0  0  0  0  0
    6.2347    2.6205   14.3189 C   0  0  0  0  0  0
    5.6658    4.3348   16.1184 C   0  0  0  0  0  0
    5.8676    3.4308   17.0944 N   0  0  0  0  0  0
    6.2471    3.6493   18.3980 C   0  0  0  0  0  0
    6.8615    4.6906   18.9082 N   0  0  0  0  0  0
    7.1837    4.4695   20.1704 C   0  0  0  0  0  0
    6.8401    3.2215   20.6892 C   0  0  0  0  0  0
    5.9709    2.3369   19.4828 S   0  0  0  0  0  0
    7.1377    2.5516   22.2771 S   0  0  0  0  0  0
    8.9311    2.3062   22.1969 C   0  0  0  0  0  0
    9.6545    2.8845   23.3886 C   0  0  0  0  0  0
    9.3723    2.3871   24.6200 O   0  0  0  0  0  0
   10.1812    3.0842   25.4572 C   0  0  0  0  0  0
   10.9169    3.9371   24.6494 C   0  0  0  0  0  0
   10.5749    3.8164   23.3800 N   0  0  0  0  0  0
   10.1512    2.7790   26.9540 C   0  0  0  0  0  0
   10.0534    4.1010   27.7448 C   0  0  0  0  0  0
   11.4582    2.0588   27.3410 C   0  0  0  0  0  0
    8.9524    1.8719   27.3185 C   0  0  0  0  0  0
    5.6725    5.5540   16.2997 O   0  0  0  0  0  0
    4.2959    3.1986   15.0024 H   0  0  0  0  0  0
    4.2476    5.4239   13.8532 H   0  0  0  0  0  0
    5.9712    5.3110   13.4380 H   0  0  0  0  0  0
    3.6656    3.6835   12.4080 H   0  0  0  0  0  0
    4.7093    4.7371   11.4865 H   0  0  0  0  0  0
    5.1967    2.4588   11.1369 H   0  0  0  0  0  0
    4.7317    1.4914   13.2205 H   0  0  0  0  0  0
    6.3710    1.1323   12.7163 H   0  0  0  0  0  0
    7.1887    3.0777   14.0660 H   0  0  0  0  0  0
    6.3710    1.8288   15.0526 H   0  0  0  0  0  0
    5.6643    2.4718   16.8650 H   0  0  0  0  0  0
    7.7080    5.2396   20.7163 H   0  0  0  0  0  0
    9.3108    2.7368   21.2711 H   0  0  0  0  0  0
    9.1199    1.2345   22.1458 H   0  0  0  0  0  0
   11.6867    4.6193   24.9793 H   0  0  0  0  0  0
   10.0086    3.9253   28.8202 H   0  0  0  0  0  0
    9.1670    4.6694   27.4647 H   0  0  0  0  0  0
   10.9119    4.7460   27.5551 H   0  0  0  0  0  0
   11.5750    1.1334   26.7823 H   0  0  0  0  0  0
   12.3359    2.6696   27.1243 H   0  0  0  0  0  0
   11.4870    1.8074   28.4019 H   0  0  0  0  0  0
    8.9949    0.9311   26.7694 H   0  0  0  0  0  0
    8.9354    1.6257   28.3809 H   0  0  0  0  0  0
    7.9980    2.3365   27.0718 H   0  0  0  0  0  0
  1  7  1  0  0  0
  1  2  1  0  0  0
  1  6  1  0  0  0
  1 26  1  0  0  0
  2  3  1  0  0  0
  2 27  1  0  0  0
  2 28  1  0  0  0
  3  4  1  0  0  0
  3 29  1  0  0  0
  3 30  1  0  0  0
  4  5  1  0  0  0
  4 31  1  0  0  0
  5  6  1  0  0  0
  5 32  1  0  0  0
  5 33  1  0  0  0
  6 34  1  0  0  0
  6 35  1  0  0  0
  7  8  1  0  0  0
  7 25  2  0  0  0
  8  9  1  0  0  0
  8 36  1  0  0  0
  9 13  1  0  0  0
  9 10  2  0  0  0
 10 11  1  0  0  0
 11 12  2  0  0  0
 11 37  1  0  0  0
 12 14  1  0  0  0
 12 13  1  0  0  0
 14 15  1  0  0  0
 15 16  1  0  0  0
 15 38  1  0  0  0
 15 39  1  0  0  0
 16 17  1  0  0  0
 16 20  2  0  0  0
 17 18  1  0  0  0
 18 19  2  0  0  0
 18 21  1  0  0  0
 19 20  1  0  0  0
 19 40  1  0  0  0
 21 22  1  0  0  0
 21 23  1  0  0  0
 21 24  1  0  0  0
 22 41  1  0  0  0
 22 42  1  0  0  0
 22 43  1  0  0  0
 23 44  1  0  0  0
 23 45  1  0  0  0
 23 46  1  0  0  0
 24 47  1  0  0  0
 24 48  1  0  0  0
 24 49  1  0  0  0
M  END
> <s_m_entry_id>
49597

> <s_m_entry_name>
dock_pv.187

> <s_m_Source_Path>
/home/csk/Desktop/cluster/DUD-E-result/fgfr1

> <s_m_Source_File>
dock_pv.maegz

> <i_m_Source_File_Index>
187

> <chembl_id>
CHEMBL296468

> <chembl_pref_name>
BMS-387032

> <i_lp_mmshare_version>
53161

> <i_f3d_flags>
0

> <r_lp_tautomer_probability>
0.999000488399163

> <s_lp_Force_Field>
OPLS_2005

> <r_lp_Energy>
17.229172

> <b_lp_Chiralities_Consistent>
1

> <s_lp_Variant>
CHEMBL3650_lig3088-1

> <s_i_glide_gridfile>
glide-grid_3c4f

> <i_i_glide_lignum>
3936

> <i_i_glide_rotatable_bonds>
7

> <r_i_docking_score>
-7.0350266008386

> <r_i_glide_ligand_efficiency>
-0.281401064033544

> <r_i_glide_ligand_efficiency_sa>
-0.822821701903203

> <r_i_glide_ligand_efficiency_ln>
-1.66751212713362

> <r_i_glide_gscore>
-7.0350266008386

> <r_i_glide_lipo>
-2.7441644614904

> <r_i_glide_hbond>
-0.109406569481254

> <r_i_glide_metal>
0

> <r_i_glide_rewards>
-2.02879260771332

> <r_i_glide_evdw>
-49.7099342346191

> <r_i_glide_ecoul>
-3.12600803375244

> <r_i_glide_erotb>
0.803910691640973

> <r_i_glide_esite>
-0.002175737000777

> <r_i_glide_emodel>
-68.1625500209852

> <r_i_glide_energy>
-52.8359422683716

> <r_i_glide_einternal>
7.16072511672974

> <i_i_glide_confnum>
8

> <i_i_glide_posenum>
176

> <r_i_glide_eff_state_penalty>
0

> <s_user_duplicate_titles>
CHEMBL3650_lig3088

> <s_m_subgroup_title>
dock_pv

> <s_m_subgroupid>
dock_pv

> <b_m_subgroup_collapsed>
1

$$$$
CHEMBL3650_lig766
                    3D
 Schrodinger Suite 2021-1.
 41 45  0  0  1  0            999 V2000
    4.2294    4.8707   14.2089 C   0  0  0  0  0  0
    6.2382    3.1370   15.1795 C   0  0  0  0  0  0
    5.6478    4.0882   16.0573 C   0  0  0  0  0  0
    4.6227    4.9409   15.5471 C   0  0  0  0  0  0
    3.9711    5.8251   16.3248 N   0  0  0  0  0  0
    4.3297    5.8748   17.6206 C   0  0  0  0  0  0
    5.2647    5.1369   18.2256 N   0  0  0  0  0  0
    5.9293    4.2649   17.4469 C   0  0  0  0  0  0
    6.8917    3.5370   18.1310 N   0  0  0  0  0  0
    6.7710    3.0972   19.4555 C   0  0  0  0  0  0
    7.6402    3.5373   20.4640 C   0  0  0  0  0  0
    7.6980    2.8685   21.7021 C   0  0  0  0  0  0
    6.8251    1.8030   21.9248 C   0  0  0  0  0  0
    5.9710    1.3727   20.9195 C   0  0  0  0  0  0
    5.9241    2.0231   19.6975 C   0  0  0  0  0  0
    4.8336    3.9552   13.3752 C   0  0  0  0  0  0
    5.7946    3.0632   13.8575 C   0  0  0  0  0  0
    6.3710    2.1233   13.0382 O   0  0  0  0  0  0
    5.7054    1.9370   11.7801 C   0  0  0  0  0  0
    5.1772    3.2451   11.1585 C   0  0  0  0  0  0
    4.3710    3.9372   12.0847 O   0  0  0  0  0  0
    8.7203    3.1357   22.7635 C   0  0  0  0  0  0
    8.7461    2.7371   24.1036 C   0  0  0  0  0  0
    9.8962    3.1263   24.7946 C   0  0  0  0  0  0
   10.7938    3.7932   23.9840 C   0  0  0  0  0  0
   10.2064    3.9370   22.3613 S   0  0  0  0  0  0
    3.4695    5.5370   13.8260 H   0  0  0  0  0  0
    6.9981    2.4611   15.5396 H   0  0  0  0  0  0
    3.7946    6.5642   18.2530 H   0  0  0  0  0  0
    7.4657    2.9510   17.5457 H   0  0  0  0  0  0
    8.3347    4.3333   20.2393 H   0  0  0  0  0  0
    6.8624    1.2476   22.8491 H   0  0  0  0  0  0
    5.3563    0.5015   21.0530 H   0  0  0  0  0  0
    5.2803    1.6396   18.9181 H   0  0  0  0  0  0
    6.4317    1.5370   11.0802 H   0  0  0  0  0  0
    4.8922    1.2179   11.8960 H   0  0  0  0  0  0
    5.9710    3.9097   10.8425 H   0  0  0  0  0  0
    4.5799    3.0266   10.2728 H   0  0  0  0  0  0
    7.9500    2.1830   24.5780 H   0  0  0  0  0  0
   10.0717    2.9103   25.8385 H   0  0  0  0  0  0
   11.7655    4.1838   24.2522 H   0  0  0  0  0  0
  1 16  1  0  0  0
  1  4  2  0  0  0
  1 27  1  0  0  0
  2  3  2  0  0  0
  2 17  1  0  0  0
  2 28  1  0  0  0
  3  4  1  0  0  0
  3  8  1  0  0  0
  4  5  1  0  0  0
  5  6  2  0  0  0
  6  7  1  0  0  0
  6 29  1  0  0  0
  7  8  2  0  0  0
  8  9  1  0  0  0
  9 10  1  0  0  0
  9 30  1  0  0  0
 10 11  2  0  0  0
 10 15  1  0  0  0
 11 12  1  0  0  0
 11 31  1  0  0  0
 12 13  2  0  0  0
 12 22  1  0  0  0
 13 14  1  0  0  0
 13 32  1  0  0  0
 14 15  2  0  0  0
 14 33  1  0  0  0
 15 34  1  0  0  0
 16 17  2  0  0  0
 16 21  1  0  0  0
 17 18  1  0  0  0
 18 19  1  0  0  0
 19 20  1  0  0  0
 19 35  1  0  0  0
 19 36  1  0  0  0
 20 21  1  0  0  0
 20 37  1  0  0  0
 20 38  1  0  0  0
 22 23  2  0  0  0
 22 26  1  0  0  0
 23 24  1  0  0  0
 23 39  1  0  0  0
 24 25  2  0  0  0
 24 40  1  0  0  0
 25 26  1  0  0  0
 25 41  1  0  0  0
M  END
> <s_m_entry_id>
49598

> <s_m_entry_name>
dock_pv.188

> <s_m_Source_Path>
/home/csk/Desktop/cluster/DUD-E-result/fgfr1

> <s_m_Source_File>
dock_pv.maegz

> <i_m_Source_File_Index>
188

> <chembl_id>
CHEMBL3297955

> <chembl_pref_name>
None

> <i_lp_mmshare_version>
53161

> <i_f3d_flags>
0

> <r_lp_tautomer_probability>
0.999978000241998

> <s_lp_Force_Field>
OPLS_2005

> <r_lp_Energy>
19.123286

> <b_lp_Chiralities_Consistent>
1

> <s_lp_Variant>
CHEMBL3650_lig766-1

> <s_i_glide_gridfile>
glide-grid_3c4f

> <i_i_glide_lignum>
934

> <i_i_glide_rotatable_bonds>
3

> <r_i_docking_score>
-7.03029077686843

> <r_i_glide_ligand_efficiency>
-0.270395799110324

> <r_i_glide_ligand_efficiency_sa>
-0.801046490908243

> <r_i_glide_ligand_efficiency_ln>
-1.65104072068198

> <r_i_glide_gscore>
-7.03029077686843

> <r_i_glide_lipo>
-3.23229540085208

> <r_i_glide_hbond>
-0.32

> <r_i_glide_metal>
0

> <r_i_glide_rewards>
-1.9753126622877

> <r_i_glide_evdw>
-31.7329063415527

> <r_i_glide_ecoul>
-2.37851977348328

> <r_i_glide_erotb>
0.440740569371479

> <r_i_glide_esite>
0

> <r_i_glide_emodel>
-33.693473370573

> <r_i_glide_energy>
-34.111426115036

> <r_i_glide_einternal>
8.68784809112549

> <i_i_glide_confnum>
3

> <i_i_glide_posenum>
236

> <r_i_glide_eff_state_penalty>
0

> <s_user_duplicate_titles>
CHEMBL3650_lig766

> <s_m_subgroup_title>
dock_pv

> <s_m_subgroupid>
dock_pv

> <b_m_subgroup_collapsed>
1

$$$$
CHEMBL3650_lig3217
                    3D
 Schrodinger Suite 2021-1.
 56 58  0  0  1  0            999 V2000
    1.9709    5.5370   18.2529 F   0  0  0  0  0  0
    6.5501    2.7370   13.8530 O   0  0  0  0  0  0
    6.1553    2.0792   21.9961 O   0  0  0  0  0  0
    4.8189    4.2251   13.8438 N   0  0  0  0  0  0
    7.1672    4.9490   18.6480 N   0  0  0  0  0  0
    8.1213    3.1977   22.2546 N   0  0  0  0  0  0
   10.4066    3.9370   24.5248 N   0  0  0  0  0  0
    5.8608    3.9796   15.8002 C   0  0  0  0  0  0
    4.6545    4.7370   16.0066 C   0  0  0  0  0  0
    6.7710    3.7592   18.1050 C   0  0  0  0  0  0
    6.8894    3.5317   20.3151 C   0  0  0  0  0  0
    4.0337    4.8402   14.7844 C   0  0  0  0  0  0
    6.3912    2.9269   19.1440 C   0  0  0  0  0  0
    5.8359    3.5595   14.4141 C   0  0  0  0  0  0
    6.7709    3.5292   16.6775 C   0  0  0  0  0  0
    7.1902    4.8607   20.0149 C   0  0  0  0  0  0
    4.0177    5.1370   17.1754 C   0  0  0  0  0  0
    6.9901    2.8939   21.5956 C   0  0  0  0  0  0
    2.7430    5.3389   14.6731 C   0  0  0  0  0  0
    2.6573    5.3898   17.1021 C   0  0  0  0  0  0
    2.0247    5.5370   15.8531 C   0  0  0  0  0  0
    5.8552    1.5370   18.9676 C   0  0  0  0  0  0
    7.5709    6.0417   20.8838 C   0  0  0  0  0  0
    8.4736    2.5875   23.5254 C   0  0  0  0  0  0
    9.9710    2.6707   23.9080 C   0  0  0  0  0  0
    9.6952    4.3871   25.7312 C   0  0  0  0  0  0
   11.8691    4.0685   24.6192 C   0  0  0  0  0  0
    9.4100    3.3147   26.8095 C   0  0  0  0  0  0
   12.5238    3.3670   25.8221 C   0  0  0  0  0  0
    4.5988    4.1672   12.8615 H   0  0  0  0  0  0
    7.4522    5.7565   18.1129 H   0  0  0  0  0  0
    8.7158    3.9353   21.9086 H   0  0  0  0  0  0
    7.5710    2.8941   16.3383 H   0  0  0  0  0  0
    4.4679    5.0291   18.1489 H   0  0  0  0  0  0
    2.2617    5.4626   13.7170 H   0  0  0  0  0  0
    0.9784    5.8000   15.8106 H   0  0  0  0  0  0
    6.1777    0.8345   19.7355 H   0  0  0  0  0  0
    4.7710    1.5370   18.9384 H   0  0  0  0  0  0
    6.2160    1.1370   18.0250 H   0  0  0  0  0  0
    6.8641    6.1638   21.7039 H   0  0  0  0  0  0
    8.5496    5.9152   21.3432 H   0  0  0  0  0  0
    7.5716    6.9854   20.3391 H   0  0  0  0  0  0
    7.8250    3.0509   24.2531 H   0  0  0  0  0  0
    8.1860    1.5370   23.5043 H   0  0  0  0  0  0
   10.1431    1.9150   24.6746 H   0  0  0  0  0  0
   10.5875    2.3888   23.0530 H   0  0  0  0  0  0
   10.2501    5.2067   26.1914 H   0  0  0  0  0  0
    8.7710    4.8453   25.3975 H   0  0  0  0  0  0
   12.3191    3.7007   23.6957 H   0  0  0  0  0  0
   12.1236    5.1288   24.6529 H   0  0  0  0  0  0
    8.8870    3.7624   27.6543 H   0  0  0  0  0  0
    8.7761    2.5110   26.4352 H   0  0  0  0  0  0
   10.3126    2.8561   27.2062 H   0  0  0  0  0  0
   13.6057    3.3545   25.7132 H   0  0  0  0  0  0
   12.3089    3.8900   26.7534 H   0  0  0  0  0  0
   12.1931    2.3370   25.9302 H   0  0  0  0  0  0
  1 20  1  0  0  0
  2 14  2  0  0  0
  3 18  2  0  0  0
  4 12  1  0  0  0
  4 14  1  0  0  0
  4 30  1  0  0  0
  5 10  1  0  0  0
  5 16  1  0  0  0
  5 31  1  0  0  0
  6 18  1  0  0  0
  6 24  1  0  0  0
  6 32  1  0  0  0
  7 25  1  0  0  0
  7 26  1  0  0  0
  7 27  1  0  0  0
  8  9  1  0  0  0
  8 14  1  0  0  0
  8 15  2  3  0  0
  9 12  1  0  0  0
  9 17  2  0  0  0
 10 13  2  0  0  0
 10 15  1  0  0  0
 11 13  1  0  0  0
 11 16  2  0  0  0
 11 18  1  0  0  0
 12 19  2  0  0  0
 13 22  1  0  0  0
 15 33  1  0  0  0
 16 23  1  0  0  0
 17 20  1  0  0  0
 17 34  1  0  0  0
 19 21  1  0  0  0
 19 35  1  0  0  0
 20 21  2  0  0  0
 21 36  1  0  0  0
 22 37  1  0  0  0
 22 38  1  0  0  0
 22 39  1  0  0  0
 23 40  1  0  0  0
 23 41  1  0  0  0
 23 42  1  0  0  0
 24 25  1  0  0  0
 24 43  1  0  0  0
 24 44  1  0  0  0
 25 45  1  0  0  0
 25 46  1  0  0  0
 26 28  1  0  0  0
 26 47  1  0  0  0
 26 48  1  0  0  0
 27 29  1  0  0  0
 27 49  1  0  0  0
 27 50  1  0  0  0
 28 51  1  0  0  0
 28 52  1  0  0  0
 28 53  1  0  0  0
 29 54  1  0  0  0
 29 55  1  0  0  0
 29 56  1  0  0  0
M  END
> <s_m_entry_id>
49599

> <s_m_entry_name>
dock_pv.189

> <s_m_Source_Path>
/home/csk/Desktop/cluster/DUD-E-result/fgfr1

> <s_m_Source_File>
dock_pv.maegz

> <i_m_Source_File_Index>
189

> <chembl_id>
CHEMBL1990885

> <chembl_pref_name>
None

> <i_lp_mmshare_version>
53161

> <i_f3d_flags>
0

> <r_lp_tautomer_probability>
1

> <s_lp_Force_Field>
OPLS_2005

> <r_lp_Energy>
36.001873

> <b_lp_Chiralities_Consistent>
1

> <s_lp_Variant>
CHEMBL3650_lig3217-2

> <s_i_glide_gridfile>
glide-grid_3c4f

> <i_i_glide_lignum>
4157

> <i_i_glide_rotatable_bonds>
8

> <r_i_docking_score>
-7.02724494674303

> <r_i_glide_ligand_efficiency>
-0.242318791267001

> <r_i_glide_ligand_efficiency_sa>
-0.744480098753836

> <r_i_glide_ligand_efficiency_ln>
-1.60906089724744

> <r_i_glide_gscore>
-7.02724494674303

> <r_i_glide_lipo>
-2.93842122747087

> <r_i_glide_hbond>
-0.32

> <r_i_glide_metal>
0

> <r_i_glide_rewards>
-2.2737477657188

> <r_i_glide_evdw>
-20.4048385620117

> <r_i_glide_ecoul>
-7.57056331634521

> <r_i_glide_erotb>
0.740074192748125

> <r_i_glide_esite>
-0.0793237207491162

> <r_i_glide_emodel>
-41.33857655688

> <r_i_glide_energy>
-27.9754018783569

> <r_i_glide_einternal>
17.2913646697998

> <i_i_glide_confnum>
84

> <i_i_glide_posenum>
148

> <r_i_glide_eff_state_penalty>
0

> <s_user_duplicate_titles>
CHEMBL3650_lig3217

> <s_m_subgroup_title>
dock_pv

> <s_m_subgroupid>
dock_pv

> <b_m_subgroup_collapsed>
1

$$$$
CHEMBL3650_lig2956
                    3D
 Schrodinger Suite 2021-1.
 48 51  0  0  1  0            999 V2000
   12.7288    5.2846   25.0530 O   0  0  0  0  0  0
   12.9765    5.7634   27.2643 O   0  0  0  0  0  0
   10.1925    3.9370   24.3622 N   0  0  0  0  0  0
    8.7807    2.3370   24.9520 N   0  0  0  0  0  0
    6.3700    3.8870   19.0348 N   0  0  0  0  0  0
    5.9711    5.5748   15.7330 N   0  0  0  0  0  0
   10.4625    3.5611   25.6619 C   0  0  0  0  0  0
    9.5710    2.5290   26.0527 C   0  0  0  0  0  0
    9.1770    3.1993   23.9692 C   0  0  0  0  0  0
   11.4227    4.0500   26.5847 C   0  0  0  0  0  0
    8.4536    3.3158   22.6594 C   0  0  0  0  0  0
    9.5936    1.9371   27.3136 C   0  0  0  0  0  0
   12.4232    5.1376   26.3552 C   0  0  0  0  0  0
   11.4170    3.4544   27.8593 C   0  0  0  0  0  0
    7.0369    3.6959   20.2550 C   0  0  0  0  0  0
    7.4819    2.3908   22.2530 C   0  0  0  0  0  0
    8.7041    4.4225   21.8530 C   0  0  0  0  0  0
   10.5413    2.4279   28.2066 C   0  0  0  0  0  0
    6.7758    2.5818   21.0627 C   0  0  0  0  0  0
    7.9709    4.6339   20.6942 C   0  0  0  0  0  0
    6.5467    5.0291   18.1291 C   0  0  0  0  0  0
    5.8212    2.8094   18.2067 C   0  0  0  0  0  0
    5.6685    4.7882   16.9127 C   0  0  2  0  0  0
    5.8852    3.3077   16.7554 C   0  0  0  0  0  0
   13.7390    6.1939   24.6421 C   0  0  0  0  0  0
   14.0421    5.9370   23.1646 C   0  0  0  0  0  0
    8.0486    1.6532   24.8250 H   0  0  0  0  0  0
    6.0510    6.5546   15.9568 H   0  0  0  0  0  0
    6.8554    5.3093   15.3048 H   0  0  0  0  0  0
    8.9180    1.1405   27.5916 H   0  0  0  0  0  0
   12.1238    3.7776   28.6127 H   0  0  0  0  0  0
    7.2653    1.5239   22.8582 H   0  0  0  0  0  0
    9.4533    5.1372   22.1447 H   0  0  0  0  0  0
   10.6023    1.9991   29.1969 H   0  0  0  0  0  0
    6.0383    1.8522   20.7614 H   0  0  0  0  0  0
    8.1571    5.5251   20.1207 H   0  0  0  0  0  0
    6.2645    5.9370   18.6530 H   0  0  0  0  0  0
    7.5950    5.1325   17.8496 H   0  0  0  0  0  0
    6.4505    1.9202   18.2607 H   0  0  0  0  0  0
    4.7792    2.6054   18.4577 H   0  0  0  0  0  0
    4.6231    4.9794   17.1647 H   0  0  0  0  0  0
    6.8486    3.0704   16.2986 H   0  0  0  0  0  0
    5.1260    2.8649   16.1135 H   0  0  0  0  0  0
   14.6472    6.0485   25.2308 H   0  0  0  0  0  0
   13.4058    7.2207   24.7964 H   0  0  0  0  0  0
   14.8379    6.5942   22.8155 H   0  0  0  0  0  0
   13.1710    6.0987   22.5319 H   0  0  0  0  0  0
   14.3708    4.9077   23.0288 H   0  0  0  0  0  0
  1 13  1  0  0  0
  1 25  1  0  0  0
  2 13  2  0  0  0
  3  7  1  0  0  0
  3  9  2  0  0  0
  4  8  1  0  0  0
  4  9  1  0  0  0
  4 27  1  0  0  0
  5 15  1  0  0  0
  5 21  1  0  0  0
  5 22  1  0  0  0
  6 23  1  0  0  0
  6 28  1  0  0  0
  6 29  1  0  0  0
  7  8  2  0  0  0
  7 10  1  0  0  0
  8 12  1  0  0  0
  9 11  1  0  0  0
 10 13  1  0  0  0
 10 14  2  0  0  0
 11 16  2  0  0  0
 11 17  1  0  0  0
 12 18  2  0  0  0
 12 30  1  0  0  0
 14 18  1  0  0  0
 14 31  1  0  0  0
 15 19  2  0  0  0
 15 20  1  0  0  0
 16 19  1  0  0  0
 16 32  1  0  0  0
 17 20  2  0  0  0
 17 33  1  0  0  0
 18 34  1  0  0  0
 19 35  1  0  0  0
 20 36  1  0  0  0
 21 23  1  0  0  0
 21 37  1  0  0  0
 21 38  1  0  0  0
 22 24  1  0  0  0
 22 39  1  0  0  0
 22 40  1  0  0  0
 23 24  1  0  0  0
 23 41  1  0  0  0
 24 42  1  0  0  0
 24 43  1  0  0  0
 25 26  1  0  0  0
 25 44  1  0  0  0
 25 45  1  0  0  0
 26 46  1  0  0  0
 26 47  1  0  0  0
 26 48  1  0  0  0
M  END
> <s_m_entry_id>
49600

> <s_m_entry_name>
dock_pv.190

> <s_m_Source_Path>
/home/csk/Desktop/cluster/DUD-E-result/fgfr1

> <s_m_Source_File>
dock_pv.maegz

> <i_m_Source_File_Index>
190

> <chembl_id>
CHEMBL1995736

> <chembl_pref_name>
None

> <i_lp_mmshare_version>
53161

> <i_f3d_flags>
0

> <r_lp_tautomer_probability>
1

> <s_lp_Force_Field>
OPLS_2005

> <r_lp_Energy>
44.109469

> <b_lp_Chiralities_Consistent>
1

> <s_lp_Variant>
CHEMBL3650_lig2956-1

> <s_i_glide_gridfile>
glide-grid_3c4f

> <i_i_glide_lignum>
3741

> <i_i_glide_rotatable_bonds>
5

> <r_i_docking_score>
-7.01746281514772

> <r_i_glide_ligand_efficiency>
-0.26990241596722

> <r_i_glide_ligand_efficiency_sa>
-0.799584845288165

> <r_i_glide_ligand_efficiency_ln>
-1.64802811596385

> <r_i_glide_gscore>
-7.01746281514772

> <r_i_glide_lipo>
-3.09283355994251

> <r_i_glide_hbond>
-0.178918656828349

> <r_i_glide_metal>
0

> <r_i_glide_rewards>
-1.75707139825394

> <r_i_glide_evdw>
-41.5713768005371

> <r_i_glide_ecoul>
-3.3427369594574

> <r_i_glide_erotb>
0.62091496705787

> <r_i_glide_esite>
-0.0295747832353237

> <r_i_glide_emodel>
-58.5006970005146

> <r_i_glide_energy>
-44.9141137599945

> <r_i_glide_einternal>
2.26905298233032

> <i_i_glide_confnum>
1

> <i_i_glide_posenum>
294

> <r_i_glide_eff_state_penalty>
0

> <s_user_duplicate_titles>
CHEMBL3650_lig2956

> <s_m_subgroup_title>
dock_pv

> <s_m_subgroupid>
dock_pv

> <b_m_subgroup_collapsed>
1

$$$$
CHEMBL3650_lig3295
                    3D
 Schrodinger Suite 2021-1.
 42 45  0  0  1  0            999 V2000
    8.9272    4.7370   22.2529 O   0  0  0  0  0  0
    5.3859    5.7246   16.6104 N   0  0  0  0  0  0
    5.1083    5.2150   14.2530 N   0  0  0  0  0  0
    8.9595    2.7656   23.3601 N   0  0  0  0  0  0
    6.1783    3.8216   17.9333 C   0  0  0  0  0  0
    5.9512    3.5855   15.5463 C   0  0  0  0  0  0
    6.3714    3.1873   19.2595 C   0  0  0  0  0  0
    5.4723    4.9221   15.5455 C   0  0  0  0  0  0
    6.3782    3.0704   16.7742 C   0  0  0  0  0  0
    5.7336    5.1371   17.7865 C   0  0  0  0  0  0
    7.4772    3.0589   21.4357 C   0  0  0  0  0  0
    7.2149    3.7382   20.2307 C   0  0  0  0  0  0
    5.8354    3.0861   14.2078 C   0  0  0  0  0  0
    5.7507    1.9645   19.5283 C   0  0  0  0  0  0
    8.5106    3.5918   22.3910 C   0  0  0  0  0  0
    5.3034    4.1131   13.4524 C   0  0  0  0  0  0
    6.8048    1.8600   21.6939 C   0  0  0  0  0  0
    5.9710    1.3081   20.7330 C   0  0  0  0  0  0
    9.8753    3.1348   24.4491 C   0  0  0  0  0  0
   11.2249    3.7596   24.0786 C   0  0  0  0  0  0
   11.9299    4.4754   25.0530 C   0  0  0  0  0  0
   11.7471    3.6617   22.7815 C   0  0  0  0  0  0
   13.1077    5.1391   24.7156 C   0  0  0  0  0  0
   12.9107    4.3375   22.4413 C   0  0  0  0  0  0
   13.5710    5.1019   23.4019 C   0  0  0  0  0  0
    4.7669    6.0922   13.8785 H   0  0  0  0  0  0
    8.6261    1.8122   23.3730 H   0  0  0  0  0  0
    6.7705    2.0659   16.8365 H   0  0  0  0  0  0
    5.6111    5.7570   18.6530 H   0  0  0  0  0  0
    7.7267    4.6642   20.0044 H   0  0  0  0  0  0
    6.0867    2.1015   13.8447 H   0  0  0  0  0  0
    5.1130    1.5027   18.7881 H   0  0  0  0  0  0
    5.0617    4.1751   12.3999 H   0  0  0  0  0  0
    6.9749    1.3060   22.6049 H   0  0  0  0  0  0
    5.5485    0.3361   20.9077 H   0  0  0  0  0  0
   10.0702    2.2436   25.0474 H   0  0  0  0  0  0
    9.3406    3.8157   25.1137 H   0  0  0  0  0  0
   11.5597    4.5387   26.0658 H   0  0  0  0  0  0
   11.2344    3.1005   22.0168 H   0  0  0  0  0  0
   13.6562    5.6967   25.4615 H   0  0  0  0  0  0
   13.2749    4.2854   21.4277 H   0  0  0  0  0  0
   14.4786    5.6288   23.1469 H   0  0  0  0  0  0
  1 15  2  0  0  0
  2  8  2  0  0  0
  2 10  1  0  0  0
  3  8  1  0  0  0
  3 16  1  0  0  0
  3 26  1  0  0  0
  4 15  1  0  0  0
  4 19  1  0  0  0
  4 27  1  0  0  0
  5  7  1  0  0  0
  5  9  1  0  0  0
  5 10  2  0  0  0
  6  8  1  0  0  0
  6  9  2  0  0  0
  6 13  1  0  0  0
  7 12  2  0  0  0
  7 14  1  0  0  0
  9 28  1  0  0  0
 10 29  1  0  0  0
 11 12  1  0  0  0
 11 15  1  0  0  0
 11 17  2  0  0  0
 12 30  1  0  0  0
 13 16  2  0  0  0
 13 31  1  0  0  0
 14 18  2  0  0  0
 14 32  1  0  0  0
 16 33  1  0  0  0
 17 18  1  0  0  0
 17 34  1  0  0  0
 18 35  1  0  0  0
 19 20  1  0  0  0
 19 36  1  0  0  0
 19 37  1  0  0  0
 20 21  2  0  0  0
 20 22  1  0  0  0
 21 23  1  0  0  0
 21 38  1  0  0  0
 22 24  2  0  0  0
 22 39  1  0  0  0
 23 25  2  0  0  0
 23 40  1  0  0  0
 24 25  1  0  0  0
 24 41  1  0  0  0
 25 42  1  0  0  0
M  END
> <s_m_entry_id>
49601

> <s_m_entry_name>
dock_pv.191

> <s_m_Source_Path>
/home/csk/Desktop/cluster/DUD-E-result/fgfr1

> <s_m_Source_File>
dock_pv.maegz

> <i_m_Source_File_Index>
191

> <chembl_id>
CHEMBL1972142

> <chembl_pref_name>
None

> <i_lp_mmshare_version>
53161

> <i_f3d_flags>
0

> <r_lp_tautomer_probability>
0.999998432528457

> <s_lp_Force_Field>
OPLS_2005

> <r_lp_Energy>
16.759974

> <b_lp_Chiralities_Consistent>
1

> <s_lp_Variant>
CHEMBL3650_lig3295-1

> <s_i_glide_gridfile>
glide-grid_3c4f

> <i_i_glide_lignum>
4277

> <i_i_glide_rotatable_bonds>
5

> <r_i_docking_score>
-7.00867744786259

> <r_i_glide_ligand_efficiency>
-0.280347097914504

> <r_i_glide_ligand_efficiency_sa>
-0.819739886278961

> <r_i_glide_ligand_efficiency_ln>
-1.66126658825792

> <r_i_glide_gscore>
-7.00867744786259

> <r_i_glide_lipo>
-3.24207928402126

> <r_i_glide_hbond>
-0.180479171049133

> <r_i_glide_metal>
0

> <r_i_glide_rewards>
-1.60929772099638

> <r_i_glide_evdw>
-42.5126800537109

> <r_i_glide_ecoul>
-2.80136513710022

> <r_i_glide_erotb>
0.700425030428699

> <r_i_glide_esite>
-0.131407528973944

> <r_i_glide_emodel>
-61.409480163377

> <r_i_glide_energy>
-45.3140451908112

> <r_i_glide_einternal>
3.10458755493164

> <i_i_glide_confnum>
5

> <i_i_glide_posenum>
292

> <r_i_glide_eff_state_penalty>
0

> <s_user_duplicate_titles>
CHEMBL3650_lig3295

> <s_m_subgroup_title>
dock_pv

> <s_m_subgroupid>
dock_pv

> <b_m_subgroup_collapsed>
1

$$$$
CHEMBL3650_lig3232
                    3D
 Schrodinger Suite 2021-1.
 43 45  0  0  1  0            999 V2000
    7.3484    4.9900   19.6797 N   0  0  0  0  0  0
    7.9363    5.5331   20.7598 C   0  0  0  0  0  0
    8.3701    4.8838   21.8535 N   0  0  0  0  0  0
    6.8986    3.7099   19.7309 C   0  0  0  0  0  0
    6.9722    3.0495   20.9901 C   0  0  0  0  0  0
    7.8085    3.6823   21.9606 C   0  0  0  0  0  0
    7.8591    2.8855   23.0730 N   0  0  0  0  0  0
    6.9548    1.8733   22.9185 C   0  0  0  0  0  0
    6.4243    1.8941   21.6460 C   0  0  0  0  0  0
    6.3554    3.1555   18.5289 N   0  0  0  0  0  0
    6.2840    3.9659   17.2646 C   0  0  1  0  0  0
    5.9736    1.7379   18.5232 C   0  0  0  0  0  0
    5.7131    3.1371   16.0777 C   0  0  0  0  0  0
    5.3961    3.9438   14.8826 N   0  0  0  0  0  0
    4.4996    5.0858   15.0877 C   0  0  0  0  0  0
    5.1817    5.9413   16.1467 C   0  0  0  0  0  0
    5.4547    5.2572   17.4734 C   0  0  1  0  0  0
    4.1667    5.0826   18.2914 C   0  0  0  0  0  0
    5.5686    3.4188   13.6426 C   0  0  0  0  0  0
    6.0528    2.3032   13.4535 O   0  0  0  0  0  0
    5.2940    4.2974   12.4176 C   0  0  0  0  0  0
    5.4487    3.6507   11.1099 C   0  0  0  0  0  0
    5.5702    3.1396   10.0799 N   0  0  0  0  0  0
    7.9711    6.6130   20.7633 H   0  0  0  0  0  0
    8.3692    3.0523   23.9267 H   0  0  0  0  0  0
    6.7710    1.2010   23.7425 H   0  0  0  0  0  0
    5.7012    1.1886   21.2637 H   0  0  0  0  0  0
    7.3115    4.2398   17.0160 H   0  0  0  0  0  0
    6.3725    1.1451   19.3330 H   0  0  0  0  0  0
    4.8880    1.6282   18.5254 H   0  0  0  0  0  0
    6.3756    1.2465   17.6452 H   0  0  0  0  0  0
    4.7718    2.7378   16.4070 H   0  0  0  0  0  0
    6.4314    2.3502   15.8418 H   0  0  0  0  0  0
    4.3867    5.7313   14.2169 H   0  0  0  0  0  0
    3.5270    4.7391   15.4386 H   0  0  0  0  0  0
    6.0878    6.3970   15.7399 H   0  0  0  0  0  0
    4.5070    6.7368   16.4044 H   0  0  0  0  0  0
    6.0895    5.9578   17.9825 H   0  0  0  0  0  0
    3.5450    4.3373   17.8523 H   0  0  0  0  0  0
    4.3727    4.7370   19.3002 H   0  0  0  0  0  0
    3.5817    5.9971   18.3492 H   0  0  0  0  0  0
    5.9784    5.1435   12.4398 H   0  0  0  0  0  0
    4.2700    4.6671   12.4310 H   0  0  0  0  0  0
  1  2  1  0  0  0
  1  4  2  0  0  0
  2  3  2  0  0  0
  2 24  1  0  0  0
  3  6  1  0  0  0
  4  5  1  0  0  0
  4 10  1  0  0  0
  5  9  1  0  0  0
  5  6  2  0  0  0
  6  7  1  0  0  0
  7  8  1  0  0  0
  7 25  1  0  0  0
  8  9  2  0  0  0
  8 26  1  0  0  0
  9 27  1  0  0  0
 10 11  1  0  0  0
 10 12  1  0  0  0
 11 13  1  0  0  0
 11 17  1  0  0  0
 11 28  1  0  0  0
 12 29  1  0  0  0
 12 30  1  0  0  0
 12 31  1  0  0  0
 13 14  1  0  0  0
 13 32  1  0  0  0
 13 33  1  0  0  0
 14 15  1  0  0  0
 14 19  1  0  0  0
 15 16  1  0  0  0
 15 34  1  0  0  0
 15 35  1  0  0  0
 16 17  1  0  0  0
 16 36  1  0  0  0
 16 37  1  0  0  0
 17 18  1  0  0  0
 17 38  1  0  0  0
 18 39  1  0  0  0
 18 40  1  0  0  0
 18 41  1  0  0  0
 19 20  2  0  0  0
 19 21  1  0  0  0
 21 22  1  0  0  0
 21 42  1  0  0  0
 21 43  1  0  0  0
 22 23  3  0  0  0
M  END
> <s_m_entry_id>
49602

> <s_m_entry_name>
dock_pv.192

> <s_m_Source_Path>
/home/csk/Desktop/cluster/DUD-E-result/fgfr1

> <s_m_Source_File>
dock_pv.maegz

> <i_m_Source_File_Index>
192

> <chembl_id>
CHEMBL234085

> <chembl_pref_name>
None

> <i_lp_mmshare_version>
53161

> <i_f3d_flags>
0

> <r_lp_tautomer_probability>
0.999998369746258

> <s_lp_Force_Field>
OPLS_2005

> <r_lp_Energy>
35.175229

> <b_lp_Chiralities_Consistent>
1

> <s_lp_Variant>
CHEMBL3650_lig3232-4

> <s_i_glide_gridfile>
glide-grid_3c4f

> <i_i_glide_lignum>
4177

> <i_i_glide_rotatable_bonds>
4

> <r_i_docking_score>
-7.00785339458163

> <r_i_glide_ligand_efficiency>
-0.304689278025288

> <r_i_glide_ligand_efficiency_sa>
-0.8664957759853

> <r_i_glide_ligand_efficiency_ln>
-1.69456249451122

> <r_i_glide_gscore>
-7.00785339458163

> <r_i_glide_lipo>
-2.00953468457013

> <r_i_glide_hbond>
-0.608

> <r_i_glide_metal>
0

> <r_i_glide_rewards>
-2.53470747285944

> <r_i_glide_evdw>
-29.6787662506104

> <r_i_glide_ecoul>
-6.10340642929077

> <r_i_glide_erotb>
0.570600221807648

> <r_i_glide_esite>
-0.0267621820355675

> <r_i_glide_emodel>
-33.0739531097843

> <r_i_glide_energy>
-35.7821726799011

> <r_i_glide_einternal>
5.87856531143188

> <i_i_glide_confnum>
1

> <i_i_glide_posenum>
242

> <r_i_glide_eff_state_penalty>
0

> <s_user_duplicate_titles>
CHEMBL3650_lig3232

> <s_m_subgroup_title>
dock_pv

> <s_m_subgroupid>
dock_pv

> <b_m_subgroup_collapsed>
1

$$$$
CHEMBL3650_lig3179
                    3D
 Schrodinger Suite 2021-1.
 37 40  0  0  1  0            999 V2000
    5.3346    5.4189   14.0023 N   0  0  0  0  0  0
    6.3710    7.0954   15.0530 O   0  0  0  0  0  0
    9.8446    3.7648   22.0909 C   0  0  0  0  0  0
    7.3576    3.6594   20.3582 C   0  0  0  0  0  0
   10.9107    3.9367   22.9723 C   0  0  0  0  0  0
    6.3710    5.0266   17.5055 C   0  0  0  0  0  0
    4.8768    4.0254   13.8122 C   0  0  0  0  0  0
    5.8897    3.0377   14.4429 C   0  0  0  0  0  0
    6.0931    4.9399   16.1269 C   0  0  0  0  0  0
    5.9710    5.9353   15.0832 C   0  0  0  0  0  0
    5.7463    2.0028   19.6538 C   0  0  0  0  0  0
    5.9710    1.3363   20.8463 C   0  0  0  0  0  0
    6.1787    3.5913   15.8162 C   0  0  0  0  0  0
    6.4735    3.1686   19.3930 C   0  0  0  0  0  0
    6.3909    3.7386   18.0348 C   0  0  0  0  0  0
    7.5565    2.9060   21.5260 C   0  0  0  0  0  0
    8.6401    3.1923   22.5094 C   0  0  0  0  0  0
    8.5270    2.8232   23.8563 C   0  0  0  0  0  0
    9.5729    3.0266   24.7539 C   0  0  0  0  0  0
   10.7703    3.5813   24.3115 C   0  0  0  0  0  0
    7.3882    2.2634   24.3103 F   0  0  0  0  0  0
    6.3710    2.8933   16.9624 N   0  0  0  0  0  0
    6.8464    1.7711   21.7703 N   0  0  0  0  0  0
    5.2043    6.0663   13.2213 H   0  0  0  0  0  0
    9.9710    4.0277   21.0535 H   0  0  0  0  0  0
    7.9506    4.5373   20.1488 H   0  0  0  0  0  0
   11.8488    4.3370   22.6167 H   0  0  0  0  0  0
    6.4543    5.9370   18.0754 H   0  0  0  0  0  0
    4.7574    3.8280   12.7459 H   0  0  0  0  0  0
    3.8911    3.9146   14.2681 H   0  0  0  0  0  0
    6.8028    3.0014   13.8528 H   0  0  0  0  0  0
    5.4870    2.0257   14.4556 H   0  0  0  0  0  0
    5.0622    1.5819   18.9309 H   0  0  0  0  0  0
    5.4930    0.3943   21.0529 H   0  0  0  0  0  0
    9.4600    2.7313   25.7865 H   0  0  0  0  0  0
   11.5935    3.7184   24.9983 H   0  0  0  0  0  0
    6.4073    1.8868   17.0243 H   0  0  0  0  0  0
  1 10  1  0  0  0
  1  7  1  0  0  0
  1 24  1  0  0  0
  2 10  2  0  0  0
  3  5  2  0  0  0
  3 17  1  0  0  0
  3 25  1  0  0  0
  4 16  2  0  0  0
  4 14  1  0  0  0
  4 26  1  0  0  0
  5 20  1  0  0  0
  5 27  1  0  0  0
  6 15  2  0  0  0
  6  9  1  0  0  0
  6 28  1  0  0  0
  7  8  1  0  0  0
  7 29  1  0  0  0
  7 30  1  0  0  0
  8 13  1  0  0  0
  8 31  1  0  0  0
  8 32  1  0  0  0
  9 10  1  0  0  0
  9 13  2  0  0  0
 11 12  1  0  0  0
 11 14  2  0  0  0
 11 33  1  0  0  0
 12 23  2  0  0  0
 12 34  1  0  0  0
 13 22  1  0  0  0
 14 15  1  0  0  0
 15 22  1  0  0  0
 16 23  1  0  0  0
 16 17  1  0  0  0
 17 18  2  0  0  0
 18 19  1  0  0  0
 18 21  1  0  0  0
 19 20  2  0  0  0
 19 35  1  0  0  0
 20 36  1  0  0  0
 22 37  1  0  0  0
M  END
> <s_m_entry_id>
49603

> <s_m_entry_name>
dock_pv.193

> <s_m_Source_Path>
/home/csk/Desktop/cluster/DUD-E-result/fgfr1

> <s_m_Source_File>
dock_pv.maegz

> <i_m_Source_File_Index>
193

> <chembl_id>
CHEMBL226471

> <chembl_pref_name>
None

> <i_lp_mmshare_version>
53161

> <i_f3d_flags>
0

> <r_lp_tautomer_probability>
1

> <s_lp_Force_Field>
OPLS_2005

> <r_lp_Energy>
23.695039

> <b_lp_Chiralities_Consistent>
1

> <s_lp_Variant>
CHEMBL3650_lig3179-1

> <s_i_glide_gridfile>
glide-grid_3c4f

> <i_i_glide_lignum>
4098

> <i_i_glide_rotatable_bonds>
2

> <r_i_docking_score>
-7.00076451447395

> <r_i_glide_ligand_efficiency>
-0.304381065846693

> <r_i_glide_ligand_efficiency_sa>
-0.865619261548722

> <r_i_glide_ligand_efficiency_ln>
-1.69284833902277

> <r_i_glide_gscore>
-7.00076451447395

> <r_i_glide_lipo>
-3.22464063970274

> <r_i_glide_hbond>
-0.16

> <r_i_glide_metal>
0

> <r_i_glide_rewards>
-2.08714118796835

> <r_i_glide_evdw>
-29.4121627807617

> <r_i_glide_ecoul>
-1.68274891376495

> <r_i_glide_erotb>
0.39144017526002

> <r_i_glide_esite>
-0.197402385960057

> <r_i_glide_emodel>
-35.9513708590821

> <r_i_glide_energy>
-31.0949116945267

> <r_i_glide_einternal>
1.90283441543579

> <i_i_glide_confnum>
5

> <i_i_glide_posenum>
183

> <r_i_glide_eff_state_penalty>
0

> <s_user_duplicate_titles>
CHEMBL3650_lig3179

> <s_m_subgroup_title>
dock_pv

> <s_m_subgroupid>
dock_pv

> <b_m_subgroup_collapsed>
1

$$$$
CHEMBL3650_lig782
                    3D
 Schrodinger Suite 2021-1.
 35 38  0  0  1  0            999 V2000
    7.8418    2.7630   22.3388 N   0  0  0  0  0  0
    8.7376    3.7806   22.0541 C   0  0  0  0  0  0
    8.5013    4.5668   21.0530 N   0  0  0  0  0  0
    6.6980    2.4208   21.6776 C   0  0  0  0  0  0
    6.5458    3.2626   20.5085 C   0  0  0  0  0  0
    7.4253    4.3030   20.2414 C   0  0  0  0  0  0
    7.0819    4.9371   19.1211 N   0  0  0  0  0  0
    5.9819    4.3370   18.6922 C   0  0  0  0  0  0
    5.6231    3.2852   19.5008 N   0  0  0  0  0  0
    5.9710    1.5370   22.0957 O   0  0  0  0  0  0
    9.8544    3.9500   22.8072 N   0  0  0  0  0  0
    5.2061    4.6858   17.4999 C   0  0  0  0  0  0
    4.1286    5.5370   17.4651 C   0  0  0  0  0  0
    3.5710    5.5370   16.2118 N   0  0  0  0  0  0
    5.2958    4.1431   16.1626 C   0  0  0  0  0  0
    4.2795    4.7370   15.3656 C   0  0  0  0  0  0
    4.0906    4.4392   14.0142 C   0  0  0  0  0  0
    4.8998    3.4425   13.4747 C   0  0  0  0  0  0
    5.8529    2.7883   14.2447 C   0  0  0  0  0  0
    6.0902    3.1704   15.5656 C   0  0  0  0  0  0
    7.3796    2.3370   16.6530 Br  0  0  0  0  0  0
   10.1239    3.4877   24.0489 C   0  0  0  0  0  0
   11.4511    3.9370   24.6527 C   0  0  0  0  0  0
    9.3879    2.7560   24.7126 O   0  0  0  0  0  0
    4.8373    2.6619   19.3783 H   0  0  0  0  0  0
    8.0357    2.2033   23.1584 H   0  0  0  0  0  0
   10.5316    4.5863   22.4203 H   0  0  0  0  0  0
    3.6732    6.1117   18.2530 H   0  0  0  0  0  0
    2.7501    6.0769   15.9793 H   0  0  0  0  0  0
    3.3314    4.9284   13.4232 H   0  0  0  0  0  0
    4.7710    3.1519   12.4423 H   0  0  0  0  0  0
    6.3710    1.9587   13.8037 H   0  0  0  0  0  0
   11.8524    3.1599   25.3043 H   0  0  0  0  0  0
   11.3081    4.8350   25.2531 H   0  0  0  0  0  0
   12.1954    4.1471   23.8837 H   0  0  0  0  0  0
  1  4  1  0  0  0
  1 26  1  0  0  0
  1  2  1  0  0  0
  2 11  1  0  0  0
  2  3  2  0  0  0
  3  6  1  0  0  0
  4  5  1  0  0  0
  4 10  2  0  0  0
  5  9  1  0  0  0
  5  6  2  0  0  0
  6  7  1  0  0  0
  7  8  2  0  0  0
  8 12  1  0  0  0
  8  9  1  0  0  0
  9 25  1  0  0  0
 11 22  1  0  0  0
 11 27  1  0  0  0
 12 13  2  0  0  0
 12 15  1  0  0  0
 13 14  1  0  0  0
 13 28  1  0  0  0
 14 16  1  0  0  0
 14 29  1  0  0  0
 15 16  2  0  0  0
 15 20  1  0  0  0
 16 17  1  0  0  0
 17 18  2  0  0  0
 17 30  1  0  0  0
 18 19  1  0  0  0
 18 31  1  0  0  0
 19 20  2  0  0  0
 19 32  1  0  0  0
 20 21  1  0  0  0
 22 23  1  0  0  0
 22 24  2  0  0  0
 23 33  1  0  0  0
 23 34  1  0  0  0
 23 35  1  0  0  0
M  END
> <s_m_entry_id>
49604

> <s_m_entry_name>
dock_pv.194

> <s_m_Source_Path>
/home/csk/Desktop/cluster/DUD-E-result/fgfr1

> <s_m_Source_File>
dock_pv.maegz

> <i_m_Source_File_Index>
194

> <chembl_id>
CHEMBL3401370

> <chembl_pref_name>
None

> <i_lp_mmshare_version>
53161

> <i_f3d_flags>
0

> <r_lp_tautomer_probability>
0.319684419490823

> <s_lp_Force_Field>
OPLS_2005

> <r_lp_Energy>
29.558646

> <b_lp_Chiralities_Consistent>
1

> <s_lp_Variant>
CHEMBL3650_lig782-2

> <s_i_glide_gridfile>
glide-grid_3c4f

> <i_i_glide_lignum>
951

> <i_i_glide_rotatable_bonds>
3

> <r_i_docking_score>
-6.98140217301493

> <r_i_glide_ligand_efficiency>
-0.290891757208955

> <r_i_glide_ligand_efficiency_sa>
-0.839077022792288

> <r_i_glide_ligand_efficiency_ln>
-1.67096989567354

> <r_i_glide_gscore>
-6.98140217301493

> <r_i_glide_lipo>
-1.90634881733703

> <r_i_glide_hbond>
-0.297081224663712

> <r_i_glide_metal>
0

> <r_i_glide_rewards>
-2.76910711863644

> <r_i_glide_evdw>
-42.582763671875

> <r_i_glide_ecoul>
-0.929910659790039

> <r_i_glide_erotb>
0.259759770184508

> <r_i_glide_esite>
0

> <r_i_glide_emodel>
-57.0478010343288

> <r_i_glide_energy>
-43.512674331665

> <r_i_glide_einternal>
1.62232685089111

> <i_i_glide_confnum>
1

> <i_i_glide_posenum>
377

> <r_i_glide_eff_state_penalty>
0

> <s_user_duplicate_titles>
CHEMBL3650_lig782

> <s_m_subgroup_title>
dock_pv

> <s_m_subgroupid>
dock_pv

> <b_m_subgroup_collapsed>
1

$$$$
CHEMBL3650_lig3106
                    3D
 Schrodinger Suite 2021-1.
 40 42  0  0  1  0            999 V2000
    3.7343    5.8107   18.2530 Cl  0  0  0  0  0  0
    3.5710    4.7370   12.7993 O   0  0  0  0  0  0
    5.9708    2.3370   10.3124 O   0  0  0  0  0  0
    4.3822    3.9370   10.3908 O   0  0  0  0  0  0
    6.3506    3.3801   16.4916 N   0  0  0  0  0  0
    6.1265    4.0502   18.7057 N   0  0  0  0  0  0
    6.3710    2.3370   14.4108 N   0  0  0  0  0  0
    7.1710    1.9370   22.9507 N   0  0  0  0  0  0
    4.8413    4.1560   14.7372 C   0  0  0  0  0  0
    5.8863    3.3567   15.2260 C   0  0  0  0  0  0
    4.1469    4.9421   15.6891 C   0  0  0  0  0  0
    5.7242    4.1911   17.3748 C   0  0  0  0  0  0
    4.6205    4.9829   17.0181 C   0  0  0  0  0  0
    4.4752    4.0774   13.2680 C   0  0  0  0  0  0
    5.2240    3.1016   12.4433 C   0  0  0  0  0  0
    5.9710    2.1972   13.0997 C   0  0  0  0  0  0
    5.2276    3.0541   10.9800 C   0  0  0  0  0  0
    5.8250    2.8636   19.4919 C   0  0  0  0  0  0
    7.3888    4.5404   19.2512 C   0  0  0  0  0  0
    2.7695    5.5370   15.3534 C   0  0  0  0  0  0
    6.3572    3.0810   20.9059 C   0  0  2  0  0  0
    7.6214    3.9024   20.6323 C   0  0  0  0  0  0
    6.5590    1.7412   21.6470 C   0  0  0  0  0  0
    3.9705    4.4837   11.0723 H   0  0  0  0  0  0
    7.0249    1.6926   14.8279 H   0  0  0  0  0  0
    7.5709    1.0763   23.3140 H   0  0  0  0  0  0
    7.9561    2.5653   22.8526 H   0  0  0  0  0  0
    6.4191    1.3684   12.5752 H   0  0  0  0  0  0
    4.7576    2.6526   19.4676 H   0  0  0  0  0  0
    6.2261    1.9708   19.0078 H   0  0  0  0  0  0
    8.2041    4.2629   18.5812 H   0  0  0  0  0  0
    7.3960    5.6304   19.2818 H   0  0  0  0  0  0
    2.1859    5.8928   16.1964 H   0  0  0  0  0  0
    2.8196    6.3138   14.6000 H   0  0  0  0  0  0
    2.1530    4.7534   14.9172 H   0  0  0  0  0  0
    5.6377    3.6769   21.4715 H   0  0  0  0  0  0
    8.5080    3.2662   20.6236 H   0  0  0  0  0  0
    7.7549    4.6678   21.3977 H   0  0  0  0  0  0
    5.5992    1.2413   21.7779 H   0  0  0  0  0  0
    7.1710    1.0682   21.0531 H   0  0  0  0  0  0
  1 13  1  0  0  0
  2 14  2  0  0  0
  3 17  2  0  0  0
  4 17  1  0  0  0
  4 24  1  0  0  0
  5 10  1  0  0  0
  5 12  2  0  0  0
  6 12  1  0  0  0
  6 18  1  0  0  0
  6 19  1  0  0  0
  7 10  1  0  0  0
  7 16  1  0  0  0
  7 25  1  0  0  0
  8 23  1  0  0  0
  8 26  1  0  0  0
  8 27  1  0  0  0
  9 10  2  0  0  0
  9 11  1  0  0  0
  9 14  1  0  0  0
 11 13  2  0  0  0
 11 20  1  0  0  0
 12 13  1  0  0  0
 14 15  1  0  0  0
 15 16  2  0  0  0
 15 17  1  0  0  0
 16 28  1  0  0  0
 18 21  1  0  0  0
 18 29  1  0  0  0
 18 30  1  0  0  0
 19 22  1  0  0  0
 19 31  1  0  0  0
 19 32  1  0  0  0
 20 33  1  0  0  0
 20 34  1  0  0  0
 20 35  1  0  0  0
 21 22  1  0  0  0
 21 23  1  0  0  0
 21 36  1  0  0  0
 22 37  1  0  0  0
 22 38  1  0  0  0
 23 39  1  0  0  0
 23 40  1  0  0  0
M  END
> <s_m_entry_id>
49605

> <s_m_entry_name>
dock_pv.195

> <s_m_Source_Path>
/home/csk/Desktop/cluster/DUD-E-result/fgfr1

> <s_m_Source_File>
dock_pv.maegz

> <i_m_Source_File_Index>
195

> <chembl_id>
CHEMBL1999774

> <chembl_pref_name>
None

> <i_lp_mmshare_version>
53161

> <i_f3d_flags>
0

> <r_lp_tautomer_probability>
1

> <s_lp_Force_Field>
OPLS_2005

> <r_lp_Energy>
47.944392

> <b_lp_Chiralities_Consistent>
1

> <s_lp_Variant>
CHEMBL3650_lig3106-1

> <s_i_glide_gridfile>
glide-grid_3c4f

> <i_i_glide_lignum>
3964

> <i_i_glide_rotatable_bonds>
4

> <r_i_docking_score>
-6.97548581422546

> <r_i_glide_ligand_efficiency>
-0.303281991922846

> <r_i_glide_ligand_efficiency_sa>
-0.862493641511543

> <r_i_glide_ligand_efficiency_ln>
-1.68673572008811

> <r_i_glide_gscore>
-6.97548581422546

> <r_i_glide_lipo>
-2.62778046759191

> <r_i_glide_hbond>
-0.616217786387638

> <r_i_glide_metal>
0

> <r_i_glide_rewards>
-1.89707083426655

> <r_i_glide_evdw>
-30.6565761566162

> <r_i_glide_ecoul>
-4.06709146499634

> <r_i_glide_erotb>
0.333121466341908

> <r_i_glide_esite>
-0.0246456647410158

> <r_i_glide_emodel>
-41.5635684810134

> <r_i_glide_energy>
-34.7236676216125

> <r_i_glide_einternal>
4.12723541259766

> <i_i_glide_confnum>
6

> <i_i_glide_posenum>
60

> <r_i_glide_eff_state_penalty>
0

> <s_user_duplicate_titles>
CHEMBL3650_lig3106

> <s_m_subgroup_title>
dock_pv

> <s_m_subgroupid>
dock_pv

> <b_m_subgroup_collapsed>
1

$$$$
CHEMBL3650_lig2676
                    3D
 Schrodinger Suite 2021-1.
 26 28  0  0  1  0            999 V2000
    7.5780    6.4811   20.6644 Cl  0  0  0  0  0  0
    8.5681    2.8915   22.8100 S   0  0  0  0  0  0
    5.9710    2.6123   14.1837 O   0  0  0  0  0  0
    6.7181    1.4747   21.4530 N   0  0  0  0  0  0
    6.1986    4.5421   18.6232 N   0  0  0  0  0  0
    5.7667    2.3306   19.3838 N   0  0  0  0  0  0
    7.1741    3.7556   20.7257 C   0  0  0  0  0  0
    7.3471    2.6343   21.5877 C   0  0  0  0  0  0
    6.3598    3.5358   19.5883 C   0  0  0  0  0  0
    7.8738    4.8832   21.2335 C   0  0  0  0  0  0
    8.7710    4.5162   22.2225 C   0  0  0  0  0  0
    5.6599    4.4839   17.3326 C   0  0  0  0  0  0
    5.9710    1.3827   20.3291 C   0  0  0  0  0  0
    6.0920    3.5370   16.3968 C   0  0  0  0  0  0
    4.7059    5.4327   16.9642 C   0  0  0  0  0  0
    5.5607    3.5370   15.1049 C   0  0  0  0  0  0
    4.1632    5.4181   15.6798 C   0  0  0  0  0  0
    4.5936    4.4756   14.7477 C   0  0  0  0  0  0
    5.4861    2.7066   13.3610 H   0  0  0  0  0  0
    6.6546    5.4155   18.8448 H   0  0  0  0  0  0
    9.4805    5.1370   22.7347 H   0  0  0  0  0  0
    5.5710    0.4042   20.1332 H   0  0  0  0  0  0
    6.8431    2.8100   16.6665 H   0  0  0  0  0  0
    4.3710    6.1728   17.6762 H   0  0  0  0  0  0
    3.4083    6.1378   15.4060 H   0  0  0  0  0  0
    4.1769    4.4869   13.7506 H   0  0  0  0  0  0
  1 10  1  0  0  0
  2  8  1  0  0  0
  2 11  1  0  0  0
  3 16  1  0  0  0
  3 19  1  0  0  0
  4  8  1  0  0  0
  4 13  2  0  0  0
  5  9  1  0  0  0
  5 12  1  0  0  0
  5 20  1  0  0  0
  6  9  2  0  0  0
  6 13  1  0  0  0
  7  8  2  0  0  0
  7  9  1  0  0  0
  7 10  1  0  0  0
 10 11  2  0  0  0
 11 21  1  0  0  0
 12 14  2  0  0  0
 12 15  1  0  0  0
 13 22  1  0  0  0
 14 16  1  0  0  0
 14 23  1  0  0  0
 15 17  2  0  0  0
 15 24  1  0  0  0
 16 18  2  0  0  0
 17 18  1  0  0  0
 17 25  1  0  0  0
 18 26  1  0  0  0
M  END
> <s_m_entry_id>
49606

> <s_m_entry_name>
dock_pv.196

> <s_m_Source_Path>
/home/csk/Desktop/cluster/DUD-E-result/fgfr1

> <s_m_Source_File>
dock_pv.maegz

> <i_m_Source_File_Index>
196

> <chembl_id>
CHEMBL1982992

> <chembl_pref_name>
None

> <i_lp_mmshare_version>
53161

> <i_f3d_flags>
0

> <r_lp_tautomer_probability>
1

> <s_lp_Force_Field>
OPLS_2005

> <r_lp_Energy>
14.032649

> <b_lp_Chiralities_Consistent>
1

> <s_lp_Variant>
CHEMBL3650_lig2676-1

> <s_i_glide_gridfile>
glide-grid_3c4f

> <i_i_glide_lignum>
3308

> <i_i_glide_rotatable_bonds>
3

> <r_i_docking_score>
-6.96595980775711

> <r_i_glide_ligand_efficiency>
-0.386997767097617

> <r_i_glide_ligand_efficiency_sa>
-1.01422106672198

> <r_i_glide_ligand_efficiency_ln>
-1.79056404921163

> <r_i_glide_gscore>
-6.96595980775711

> <r_i_glide_lipo>
-2.83324085699539

> <r_i_glide_hbond>
-0.0605588135301964

> <r_i_glide_metal>
0

> <r_i_glide_rewards>
-2.46664483240882

> <r_i_glide_evdw>
-36.4018363952637

> <r_i_glide_ecoul>
-1.68335807323456

> <r_i_glide_erotb>
0.467080225925661

> <r_i_glide_esite>
0

> <r_i_glide_emodel>
-46.8088971300093

> <r_i_glide_energy>
-38.0851944684982

> <r_i_glide_einternal>
4.10562944412231

> <i_i_glide_confnum>
4

> <i_i_glide_posenum>
139

> <r_i_glide_eff_state_penalty>
0

> <s_user_duplicate_titles>
CHEMBL3650_lig2676

> <s_m_subgroup_title>
dock_pv

> <s_m_subgroupid>
dock_pv

> <b_m_subgroup_collapsed>
1

$$$$
CHEMBL3650_lig416
                    3D
 Schrodinger Suite 2021-1.
 30 33  0  0  1  0            999 V2000
    3.8629    5.1487   15.9724 N   0  0  0  0  0  0
    4.3710    5.0654   17.2163 C   0  0  0  0  0  0
    5.5199    4.3085   17.4704 C   0  0  0  0  0  0
    6.1132    3.6005   16.4130 C   0  0  0  0  0  0
    4.4018    4.4771   14.9341 C   0  0  0  0  0  0
    5.5415    3.6913   15.1291 C   0  0  0  0  0  0
    5.8358    3.0917   13.9407 N   0  0  0  0  0  0
    4.8917    3.5545   13.1464 C   0  0  0  0  0  0
    3.9710    4.3370   13.6646 N   0  0  0  0  0  0
    3.5710    5.5370   18.2146 O   0  0  0  0  0  0
    7.1710    2.7370   16.6530 N   0  0  0  0  0  0
    6.0389    4.0871   18.8478 C   0  0  0  0  0  0
    5.5710    3.1544   19.6346 N   0  0  0  0  0  0
    7.1710    4.6924   19.3424 N   0  0  0  0  0  0
    7.4814    4.0678   20.5293 C   0  0  0  0  0  0
    6.4568    3.0993   20.6758 C   0  0  0  0  0  0
    6.4726    2.2274   21.7715 C   0  0  0  0  0  0
    7.5245    2.3370   22.6827 C   0  0  0  0  0  0
    8.5210    3.3020   22.5258 C   0  0  0  0  0  0
    8.5221    4.1993   21.4531 C   0  0  0  0  0  0
    3.0005    5.6533   15.8428 H   0  0  0  0  0  0
    4.8459    3.2664   12.1058 H   0  0  0  0  0  0
    3.9298    5.3167   19.0771 H   0  0  0  0  0  0
    7.5350    2.6337   17.5884 H   0  0  0  0  0  0
    7.5712    2.2510   15.8633 H   0  0  0  0  0  0
    7.6897    5.4008   18.8426 H   0  0  0  0  0  0
    5.7022    1.4822   21.8868 H   0  0  0  0  0  0
    7.5710    1.6642   23.5276 H   0  0  0  0  0  0
    9.3162    3.3517   23.2560 H   0  0  0  0  0  0
    9.3040    4.9340   21.3375 H   0  0  0  0  0  0
  1  2  1  0  0  0
  1  5  1  0  0  0
  1 21  1  0  0  0
  2 10  1  0  0  0
  2  3  2  0  0  0
  3 12  1  0  0  0
  3  4  1  0  0  0
  4  6  2  0  0  0
  4 11  1  0  0  0
  5  6  1  0  0  0
  5  9  2  0  0  0
  6  7  1  0  0  0
  7  8  2  0  0  0
  8  9  1  0  0  0
  8 22  1  0  0  0
 10 23  1  0  0  0
 11 24  1  0  0  0
 11 25  1  0  0  0
 12 13  2  0  0  0
 12 14  1  0  0  0
 13 16  1  0  0  0
 14 15  1  0  0  0
 14 26  1  0  0  0
 15 16  2  0  0  0
 15 20  1  0  0  0
 16 17  1  0  0  0
 17 18  2  0  0  0
 17 27  1  0  0  0
 18 19  1  0  0  0
 18 28  1  0  0  0
 19 20  2  0  0  0
 19 29  1  0  0  0
 20 30  1  0  0  0
M  END
> <s_m_entry_id>
49607

> <s_m_entry_name>
dock_pv.197

> <s_m_Source_Path>
/home/csk/Desktop/cluster/DUD-E-result/fgfr1

> <s_m_Source_File>
dock_pv.maegz

> <i_m_Source_File_Index>
197

> <chembl_id>
CHEMBL383299

> <chembl_pref_name>
None

> <i_lp_mmshare_version>
53161

> <i_f3d_flags>
0

> <r_lp_tautomer_probability>
1

> <s_lp_Force_Field>
OPLS_2005

> <r_lp_Energy>
32.177693

> <b_lp_Chiralities_Consistent>
1

> <s_lp_Variant>
CHEMBL3650_lig416-1

> <s_i_glide_gridfile>
glide-grid_3c4f

> <i_i_glide_lignum>
447

> <i_i_glide_rotatable_bonds>
2

> <r_i_docking_score>
-6.96057477507789

> <r_i_glide_ligand_efficiency>
-0.348028738753894

> <r_i_glide_ligand_efficiency_sa>
-0.944695338611526

> <r_i_glide_ligand_efficiency_ln>
-1.74200229108114

> <r_i_glide_gscore>
-6.96057477507789

> <r_i_glide_lipo>
-2.42413499139585

> <r_i_glide_hbond>
-0.0463642036936744

> <r_i_glide_metal>
0

> <r_i_glide_rewards>
-3.01056783787521

> <r_i_glide_evdw>
-38.8750877380371

> <r_i_glide_ecoul>
1.42009353637695

> <r_i_glide_erotb>
0.251232614332166

> <r_i_glide_esite>
0

> <r_i_glide_emodel>
-45.8956666868959

> <r_i_glide_energy>
-37.4549942016602

> <r_i_glide_einternal>
3.12387490272522

> <i_i_glide_confnum>
3

> <i_i_glide_posenum>
160

> <r_i_glide_eff_state_penalty>
0

> <s_user_duplicate_titles>
CHEMBL3650_lig416

> <s_m_subgroup_title>
dock_pv

> <s_m_subgroupid>
dock_pv

> <b_m_subgroup_collapsed>
1

$$$$
CHEMBL3650_lig2529
                    3D
 Schrodinger Suite 2021-1.
 47 50  0  0  1  0            999 V2000
    9.6187    3.9056   21.8773 O   0  0  0  0  0  0
    5.3709    3.5072   13.5871 N   0  0  0  0  0  0
    6.3512    2.7325   14.0834 N   0  0  0  0  0  0
    7.1709    2.3373   16.2560 N   0  0  0  0  0  0
    9.1153    2.8010   23.8168 N   0  0  0  0  0  0
    5.4713    3.9647   15.7679 C   0  0  0  0  0  0
    5.1320    4.5665   16.9939 C   0  0  0  0  0  0
    4.7498    4.2335   14.5822 C   0  0  0  0  0  0
    6.3885    2.9813   15.3640 C   0  0  0  0  0  0
    5.7995    4.1457   18.2619 C   0  0  0  0  0  0
    3.9914    5.3740   16.9835 C   0  0  0  0  0  0
    3.6245    5.0443   14.5803 C   0  0  0  0  0  0
    3.2312    5.5369   15.8178 C   0  0  0  0  0  0
    6.7709    4.9187   18.9052 C   0  0  0  0  0  0
    5.4727    2.9019   18.8056 C   0  0  0  0  0  0
    6.9935    3.2355   20.6526 C   0  0  0  0  0  0
    7.3295    4.4887   20.1123 C   0  0  0  0  0  0
    6.0498    2.4544   19.9855 C   0  0  0  0  0  0
    7.5440    2.6685   21.9760 C   0  0  0  0  0  0
    8.8696    3.2001   22.5490 C   0  0  0  0  0  0
   10.1701    3.1420   24.6828 C   0  0  0  0  0  0
   11.2738    3.9371   24.3268 C   0  0  0  0  0  0
   12.2476    4.2751   25.2698 C   0  0  0  0  0  0
   10.0884    2.6453   25.9878 C   0  0  0  0  0  0
   12.1513    3.7672   26.5674 C   0  0  0  0  0  0
   11.0779    2.9499   26.9232 C   0  0  0  0  0  0
   13.4095    5.1733   24.8764 C   0  0  0  0  0  0
    5.1371    3.4841   12.6052 H   0  0  0  0  0  0
    7.3751    2.7650   17.1495 H   0  0  0  0  0  0
    7.8068    1.6158   15.9541 H   0  0  0  0  0  0
    8.4492    2.1553   24.2148 H   0  0  0  0  0  0
    3.6289    5.7892   17.9125 H   0  0  0  0  0  0
    3.0501    5.2248   13.6836 H   0  0  0  0  0  0
    2.2883    6.0528   15.8432 H   0  0  0  0  0  0
    7.0536    5.8779   18.4971 H   0  0  0  0  0  0
    4.7740    2.2593   18.2979 H   0  0  0  0  0  0
    8.0278    5.1467   20.6035 H   0  0  0  0  0  0
    5.7607    1.4863   20.3703 H   0  0  0  0  0  0
    7.6707    1.5910   21.8548 H   0  0  0  0  0  0
    6.7795    2.7953   22.7421 H   0  0  0  0  0  0
   11.3943    4.3253   23.3294 H   0  0  0  0  0  0
    9.2611    2.0175   26.2874 H   0  0  0  0  0  0
   12.9093    4.0049   27.3000 H   0  0  0  0  0  0
   11.0110    2.5537   27.9270 H   0  0  0  0  0  0
   14.2694    5.0274   25.5319 H   0  0  0  0  0  0
   13.1248    6.2243   24.9171 H   0  0  0  0  0  0
   13.7453    4.9515   23.8618 H   0  0  0  0  0  0
  1 20  2  0  0  0
  2  3  1  0  0  0
  2  8  1  0  0  0
  2 28  1  0  0  0
  3  9  2  0  0  0
  4  9  1  0  0  0
  4 29  1  0  0  0
  4 30  1  0  0  0
  5 20  1  0  0  0
  5 21  1  0  0  0
  5 31  1  0  0  0
  6  7  1  0  0  0
  6  8  2  0  0  0
  6  9  1  0  0  0
  7 10  1  0  0  0
  7 11  2  0  0  0
  8 12  1  0  0  0
 10 14  2  0  0  0
 10 15  1  0  0  0
 11 13  1  0  0  0
 11 32  1  0  0  0
 12 13  2  0  0  0
 12 33  1  0  0  0
 13 34  1  0  0  0
 14 17  1  0  0  0
 14 35  1  0  0  0
 15 18  2  0  0  0
 15 36  1  0  0  0
 16 17  2  0  0  0
 16 18  1  0  0  0
 16 19  1  0  0  0
 17 37  1  0  0  0
 18 38  1  0  0  0
 19 20  1  0  0  0
 19 39  1  0  0  0
 19 40  1  0  0  0
 21 22  2  0  0  0
 21 24  1  0  0  0
 22 23  1  0  0  0
 22 41  1  0  0  0
 23 25  2  0  0  0
 23 27  1  0  0  0
 24 26  2  0  0  0
 24 42  1  0  0  0
 25 26  1  0  0  0
 25 43  1  0  0  0
 26 44  1  0  0  0
 27 45  1  0  0  0
 27 46  1  0  0  0
 27 47  1  0  0  0
M  END
> <s_m_entry_id>
49608

> <s_m_entry_name>
dock_pv.198

> <s_m_Source_Path>
/home/csk/Desktop/cluster/DUD-E-result/fgfr1

> <s_m_Source_File>
dock_pv.maegz

> <i_m_Source_File_Index>
198

> <chembl_id>
CHEMBL1964307

> <chembl_pref_name>
None

> <i_lp_mmshare_version>
53161

> <i_f3d_flags>
0

> <r_lp_tautomer_probability>
1

> <s_lp_Force_Field>
OPLS_2005

> <r_lp_Energy>
26.408706

> <b_lp_Chiralities_Consistent>
1

> <s_lp_Variant>
CHEMBL3650_lig2529-1

> <s_i_glide_gridfile>
glide-grid_3c4f

> <i_i_glide_lignum>
3095

> <i_i_glide_rotatable_bonds>
5

> <r_i_docking_score>
-6.9533899148904

> <r_i_glide_ligand_efficiency>
-0.257532959810755

> <r_i_glide_ligand_efficiency_sa>
-0.77259887858348

> <r_i_glide_ligand_efficiency_ln>
-1.61863453659448

> <r_i_glide_gscore>
-6.9533899148904

> <r_i_glide_lipo>
-3.32984772962512

> <r_i_glide_hbond>
-0.303675482757509

> <r_i_glide_metal>
0

> <r_i_glide_rewards>
-1.80366247089047

> <r_i_glide_evdw>
-36.9581832885742

> <r_i_glide_ecoul>
-2.8087899684906

> <r_i_glide_erotb>
0.753023428085004

> <r_i_glide_esite>
0

> <r_i_glide_emodel>
-52.3047141573278

> <r_i_glide_energy>
-39.7669732570648

> <r_i_glide_einternal>
1.23812520503998

> <i_i_glide_confnum>
23

> <i_i_glide_posenum>
226

> <r_i_glide_eff_state_penalty>
0

> <s_user_duplicate_titles>
CHEMBL3650_lig2529

> <s_m_subgroup_title>
dock_pv

> <s_m_subgroupid>
dock_pv

> <b_m_subgroup_collapsed>
1

$$$$
CHEMBL3650_lig245
                    3D
 Schrodinger Suite 2021-1.
 37 39  0  0  1  0            999 V2000
    7.8469    3.9370   20.7066 N   0  0  0  0  0  0
    7.5299    4.5937   18.5117 N   0  0  0  0  0  0
    7.1637    3.7891   19.5362 C   0  0  0  0  0  0
    6.9302    4.4170   17.3116 C   0  0  0  0  0  0
    5.8967    3.5322   17.0559 C   0  0  0  0  0  0
    6.1749    2.7840   19.3621 C   0  0  0  0  0  0
    5.2665    3.5370   15.6975 C   0  0  0  0  0  0
    7.5545    3.0481   21.6839 C   0  0  0  0  0  0
    5.5265    2.6905   18.1088 C   0  0  0  0  0  0
    6.6400    2.0525   21.6367 N   0  0  0  0  0  0
    5.9638    1.9370   20.4703 C   0  0  0  0  0  0
    5.7912    2.7680   14.6530 C   0  0  0  0  0  0
    4.2904    4.4951   15.3992 C   0  0  0  0  0  0
    4.3790    3.9108   13.0747 C   0  0  0  0  0  0
    3.8052    4.6595   14.0943 C   0  0  0  0  0  0
    5.3671    2.9522   13.3363 C   0  0  0  0  0  0
    7.4355    5.1370   16.2530 N   0  0  0  0  0  0
    8.3109    3.1370   22.8369 N   0  0  0  0  0  0
    2.7997    5.5279   13.7162 O   0  0  0  0  0  0
    5.9710    2.1817   12.3632 O   0  0  0  0  0  0
    1.8457    5.9370   14.6669 C   0  0  0  0  0  0
    5.7094    2.4795   10.9933 C   0  0  0  0  0  0
    4.7710    1.9370   17.9673 H   0  0  0  0  0  0
    5.2375    1.1382   20.4070 H   0  0  0  0  0  0
    6.5814    2.0612   14.8573 H   0  0  0  0  0  0
    3.9268    5.1139   16.2034 H   0  0  0  0  0  0
    4.0158    4.0785   12.0727 H   0  0  0  0  0  0
    7.1950    4.8980   15.2965 H   0  0  0  0  0  0
    8.3307    5.5706   16.4226 H   0  0  0  0  0  0
    8.2621    2.3731   23.4936 H   0  0  0  0  0  0
    9.0947    3.7687   22.8138 H   0  0  0  0  0  0
    1.2307    6.7280   14.2386 H   0  0  0  0  0  0
    1.1831    5.1370   14.9769 H   0  0  0  0  0  0
    2.3431    6.3370   15.5334 H   0  0  0  0  0  0
    6.4024    1.9370   10.3576 H   0  0  0  0  0  0
    5.8413    3.5392   10.7684 H   0  0  0  0  0  0
    4.7088    2.1731   10.7012 H   0  0  0  0  0  0
  1  3  2  0  0  0
  1  8  1  0  0  0
  2  3  1  0  0  0
  2  4  2  0  0  0
  3  6  1  0  0  0
  4 17  1  0  0  0
  4  5  1  0  0  0
  5  9  2  0  0  0
  5  7  1  0  0  0
  6  9  1  0  0  0
  6 11  2  0  0  0
  7 12  2  0  0  0
  7 13  1  0  0  0
  8 10  2  0  0  0
  8 18  1  0  0  0
  9 23  1  0  0  0
 10 11  1  0  0  0
 11 24  1  0  0  0
 12 16  1  0  0  0
 12 25  1  0  0  0
 13 15  2  0  0  0
 13 26  1  0  0  0
 14 15  1  0  0  0
 14 16  2  0  0  0
 14 27  1  0  0  0
 15 19  1  0  0  0
 16 20  1  0  0  0
 17 28  1  0  0  0
 17 29  1  0  0  0
 18 30  1  0  0  0
 18 31  1  0  0  0
 19 21  1  0  0  0
 20 22  1  0  0  0
 21 32  1  0  0  0
 21 33  1  0  0  0
 21 34  1  0  0  0
 22 35  1  0  0  0
 22 36  1  0  0  0
 22 37  1  0  0  0
M  END
> <s_m_entry_id>
49609

> <s_m_entry_name>
dock_pv.199

> <s_m_Source_Path>
/home/csk/Desktop/cluster/DUD-E-result/fgfr1

> <s_m_Source_File>
dock_pv.maegz

> <i_m_Source_File_Index>
199

> <chembl_id>
CHEMBL56942

> <chembl_pref_name>
None

> <i_lp_mmshare_version>
53161

> <i_f3d_flags>
0

> <r_lp_tautomer_probability>
1

> <s_lp_Force_Field>
OPLS_2005

> <r_lp_Energy>
21.382232

> <b_lp_Chiralities_Consistent>
1

> <s_lp_Variant>
CHEMBL3650_lig245-1

> <s_i_glide_gridfile>
glide-grid_3c4f

> <i_i_glide_lignum>
268

> <i_i_glide_rotatable_bonds>
3

> <r_i_docking_score>
-6.94736625335116

> <r_i_glide_ligand_efficiency>
-0.315789375152325

> <r_i_glide_ligand_efficiency_sa>
-0.884854248468197

> <r_i_glide_ligand_efficiency_ln>
-1.69818972366031

> <r_i_glide_gscore>
-6.94736625335116

> <r_i_glide_lipo>
-2.17945811095814

> <r_i_glide_hbond>
-0.347261062254828

> <r_i_glide_metal>
0

> <r_i_glide_rewards>
-2.65437755862317

> <r_i_glide_evdw>
-25.957540512085

> <r_i_glide_ecoul>
-4.10833787918091

> <r_i_glide_erotb>
0.207406431378446

> <r_i_glide_esite>
-0.0595482454120836

> <r_i_glide_emodel>
-28.7355998049312

> <r_i_glide_energy>
-30.0658783912659

> <r_i_glide_einternal>
7.12483263015747

> <i_i_glide_confnum>
2

> <i_i_glide_posenum>
106

> <r_i_glide_eff_state_penalty>
0

> <s_user_duplicate_titles>
CHEMBL3650_lig245,88885

> <s_m_subgroup_title>
dock_pv

> <s_m_subgroupid>
dock_pv

> <b_m_subgroup_collapsed>
1

$$$$
CHEMBL3650_lig1604
                    3D
 Schrodinger Suite 2021-1.
 42 46  0  0  1  0            999 V2000
   12.1034    3.9953   24.8242 C   0  0  0  0  0  0
   10.8756    3.6440   24.0163 C   0  0  0  0  0  0
   10.7180    3.9370   22.7495 N   0  0  0  0  0  0
    9.4513    3.5149   22.4522 C   0  0  0  0  0  0
    8.7369    3.6300   21.2557 C   0  0  0  0  0  0
    7.4380    3.1115   21.1955 C   0  0  0  0  0  0
    6.8895    2.4429   22.2931 C   0  0  0  0  0  0
    7.5710    2.3370   23.5083 C   0  0  0  0  0  0
    8.8494    2.8872   23.5658 C   0  0  0  0  0  0
    9.7934    2.9950   24.5587 N   0  0  0  0  0  0
    6.6921    3.2442   20.0021 N   0  0  0  0  0  0
    5.9710    2.2093   19.5472 N   0  0  0  0  0  0
    5.4933    2.6143   18.4008 C   0  0  0  0  0  0
    5.8357    3.9350   18.0766 C   0  0  0  0  0  0
    5.4419    4.7371   16.9133 C   0  0  0  0  0  0
    5.1321    5.9234   17.0530 O   0  0  0  0  0  0
    5.4337    4.1021   15.5904 C   0  0  0  0  0  0
    6.0312    2.9579   15.0864 C   0  0  0  0  0  0
    5.6821    2.8803   13.7033 C   0  0  0  0  0  0
    5.9710    1.9562   12.7800 N   0  0  0  0  0  0
    5.6563    2.2598   11.4923 C   0  0  0  0  0  0
    5.0160    3.4257   11.0974 C   0  0  0  0  0  0
    4.5558    4.3077   12.0697 C   0  0  0  0  0  0
    4.9501    4.0540   13.3841 C   0  0  0  0  0  0
    4.7927    4.7567   14.5605 N   0  0  0  0  0  0
    6.5965    4.3370   19.1620 C   0  0  0  0  0  0
    7.1710    5.5370   19.4530 N   0  0  0  0  0  0
   12.9095    4.3870   24.2019 H   0  0  0  0  0  0
   11.8844    4.7572   25.5721 H   0  0  0  0  0  0
   12.5117    3.1370   25.3559 H   0  0  0  0  0  0
    9.1794    4.1008   20.3925 H   0  0  0  0  0  0
    5.8944    2.0274   22.2197 H   0  0  0  0  0  0
    7.1345    1.8356   24.3583 H   0  0  0  0  0  0
    9.7511    2.6773   25.5156 H   0  0  0  0  0  0
    4.8407    1.9578   17.8530 H   0  0  0  0  0  0
    6.6477    2.2749   15.6488 H   0  0  0  0  0  0
    5.9430    1.5370   10.7463 H   0  0  0  0  0  0
    4.7710    3.5936   10.0590 H   0  0  0  0  0  0
    3.9270    5.1370   11.8002 H   0  0  0  0  0  0
    4.3481    5.6550   14.6865 H   0  0  0  0  0  0
    7.0702    6.3131   18.8145 H   0  0  0  0  0  0
    7.6441    5.7103   20.3270 H   0  0  0  0  0  0
  1  2  1  0  0  0
  1 28  1  0  0  0
  1 29  1  0  0  0
  1 30  1  0  0  0
  2  3  2  0  0  0
  2 10  1  0  0  0
  3  4  1  0  0  0
  4  5  2  0  0  0
  4  9  1  0  0  0
  5  6  1  0  0  0
  5 31  1  0  0  0
  6  7  2  0  0  0
  6 11  1  0  0  0
  7  8  1  0  0  0
  7 32  1  0  0  0
  8  9  2  0  0  0
  8 33  1  0  0  0
  9 10  1  0  0  0
 10 34  1  0  0  0
 11 12  1  0  0  0
 11 26  1  0  0  0
 12 13  2  0  0  0
 13 14  1  0  0  0
 13 35  1  0  0  0
 14 15  1  0  0  0
 14 26  2  0  0  0
 15 16  2  0  0  0
 15 17  1  0  0  0
 17 18  2  0  0  0
 17 25  1  0  0  0
 18 19  1  0  0  0
 18 36  1  0  0  0
 19 20  2  0  0  0
 19 24  1  0  0  0
 20 21  1  0  0  0
 21 22  2  0  0  0
 21 37  1  0  0  0
 22 23  1  0  0  0
 22 38  1  0  0  0
 23 24  2  0  0  0
 23 39  1  0  0  0
 24 25  1  0  0  0
 25 40  1  0  0  0
 26 27  1  0  0  0
 27 41  1  0  0  0
 27 42  1  0  0  0
M  END
> <s_m_entry_id>
49610

> <s_m_entry_name>
dock_pv.200

> <s_m_Source_Path>
/home/csk/Desktop/cluster/DUD-E-result/fgfr1

> <s_m_Source_File>
dock_pv.maegz

> <i_m_Source_File_Index>
200

> <chembl_id>
CHEMBL3676330

> <chembl_pref_name>
None

> <i_lp_mmshare_version>
53161

> <i_f3d_flags>
0

> <r_lp_tautomer_probability>
1

> <s_lp_Force_Field>
OPLS_2005

> <r_lp_Energy>
17.652496

> <b_lp_Chiralities_Consistent>
1

> <s_lp_Variant>
CHEMBL3650_lig1604-1

> <s_i_glide_gridfile>
glide-grid_3c4f

> <i_i_glide_lignum>
1972

> <i_i_glide_rotatable_bonds>
3

> <r_i_docking_score>
-6.92466099561868

> <r_i_glide_ligand_efficiency>
-0.256468925763655

> <r_i_glide_ligand_efficiency_sa>
-0.769406776445685

> <r_i_glide_ligand_efficiency_ln>
-1.61194691782127

> <r_i_glide_gscore>
-6.92466099561868

> <r_i_glide_lipo>
-2.78206120270091

> <r_i_glide_hbond>
-0.32

> <r_i_glide_metal>
0

> <r_i_glide_rewards>
-1.95010463331355

> <r_i_glide_evdw>
-41.2880516052246

> <r_i_glide_ecoul>
-1.36333274841309

> <r_i_glide_erotb>
0.449680842950394

> <r_i_glide_esite>
-0.0532735100314222

> <r_i_glide_emodel>
-52.522846732769

> <r_i_glide_energy>
-42.6513843536377

> <r_i_glide_einternal>
3.70321702957153

> <i_i_glide_confnum>
4

> <i_i_glide_posenum>
58

> <r_i_glide_eff_state_penalty>
0

> <s_user_duplicate_titles>
CHEMBL3650_lig1604

> <s_m_subgroup_title>
dock_pv

> <s_m_subgroupid>
dock_pv

> <b_m_subgroup_collapsed>
1

$$$$
CHEMBL3650_lig2728
                    3D
 Schrodinger Suite 2021-1.
 36 39  0  0  1  0            999 V2000
    2.3320    5.7184   15.4382 O   0  0  0  0  0  0
    6.4284    1.7721   22.0101 O   0  0  0  0  0  0
    5.3882    3.8342   15.5863 N   0  0  0  0  0  0
    3.8044    5.1369   13.8532 N   0  0  0  0  0  0
    4.4981    4.8089   16.0172 C   0  0  0  0  0  0
    5.3877    3.3749   14.2527 C   0  0  0  0  0  0
    5.7875    4.1555   17.7809 C   0  0  0  0  0  0
    4.6866    4.1801   13.3501 C   0  0  0  0  0  0
    3.4260    5.2621   15.1415 C   0  0  0  0  0  0
    6.1930    3.4822   16.6431 C   0  0  0  0  0  0
    4.7239    4.9736   17.3824 C   0  0  0  0  0  0
    6.3711    4.0443   19.1335 C   0  0  0  0  0  0
    5.9710    2.2056   13.7989 C   0  0  0  0  0  0
    4.7710    3.9370   11.9786 C   0  0  0  0  0  0
    6.1394    2.9423   19.9619 C   0  0  0  0  0  0
    7.1710    5.0896   19.5853 C   0  0  0  0  0  0
    5.9710    1.9050   12.4394 C   0  0  0  0  0  0
    5.4297    2.7984   11.5189 C   0  0  0  0  0  0
    6.7129    2.8788   21.2363 C   0  0  0  0  0  0
    7.7445    5.0428   20.8510 C   0  0  0  0  0  0
    7.5318    3.9370   21.6643 C   0  0  0  0  0  0
    7.1275    1.6243   23.2403 C   0  0  0  0  0  0
    3.3028    5.7159   13.1944 H   0  0  0  0  0  0
    6.9826    2.7607   16.5012 H   0  0  0  0  0  0
    4.1525    5.6178   18.0354 H   0  0  0  0  0  0
    6.4322    1.5370   14.5068 H   0  0  0  0  0  0
    4.2642    4.5849   11.2785 H   0  0  0  0  0  0
    5.5101    2.1327   19.6202 H   0  0  0  0  0  0
    7.3528    5.9370   18.9454 H   0  0  0  0  0  0
    6.4418    0.9978   12.1000 H   0  0  0  0  0  0
    5.4553    2.5750   10.4630 H   0  0  0  0  0  0
    8.3647    5.8567   21.1964 H   0  0  0  0  0  0
    8.0036    3.9330   22.6340 H   0  0  0  0  0  0
    6.7710    0.7370   23.7525 H   0  0  0  0  0  0
    8.2007    1.5370   23.0634 H   0  0  0  0  0  0
    6.9614    2.4463   23.9319 H   0  0  0  0  0  0
  1  9  2  0  0  0
  2 19  1  0  0  0
  2 22  1  0  0  0
  3  5  1  0  0  0
  3  6  1  0  0  0
  3 10  1  0  0  0
  4  8  1  0  0  0
  4  9  1  0  0  0
  4 23  1  0  0  0
  5  9  1  0  0  0
  5 11  2  0  0  0
  6  8  1  0  0  0
  6 13  2  0  0  0
  7 10  2  0  0  0
  7 11  1  0  0  0
  7 12  1  0  0  0
  8 14  2  0  0  0
 10 24  1  0  0  0
 11 25  1  0  0  0
 12 15  2  0  0  0
 12 16  1  0  0  0
 13 17  1  0  0  0
 13 26  1  0  0  0
 14 18  1  0  0  0
 14 27  1  0  0  0
 15 19  1  0  0  0
 15 28  1  0  0  0
 16 20  2  0  0  0
 16 29  1  0  0  0
 17 18  2  0  0  0
 17 30  1  0  0  0
 18 31  1  0  0  0
 19 21  2  0  0  0
 20 21  1  0  0  0
 20 32  1  0  0  0
 21 33  1  0  0  0
 22 34  1  0  0  0
 22 35  1  0  0  0
 22 36  1  0  0  0
M  END
> <s_m_entry_id>
49611

> <s_m_entry_name>
dock_pv.201

> <s_m_Source_Path>
/home/csk/Desktop/cluster/DUD-E-result/fgfr1

> <s_m_Source_File>
dock_pv.maegz

> <i_m_Source_File_Index>
201

> <chembl_id>
CHEMBL1991356

> <chembl_pref_name>
None

> <i_lp_mmshare_version>
53161

> <i_f3d_flags>
0

> <r_lp_tautomer_probability>
1

> <s_lp_Force_Field>
OPLS_2005

> <r_lp_Energy>
25.263424

> <b_lp_Chiralities_Consistent>
1

> <s_lp_Variant>
CHEMBL3650_lig2728-1

> <s_i_glide_gridfile>
glide-grid_3c4f

> <i_i_glide_lignum>
3390

> <i_i_glide_rotatable_bonds>
2

> <r_i_docking_score>
-6.91540251685108

> <r_i_glide_ligand_efficiency>
-0.314336478038685

> <r_i_glide_ligand_efficiency_sa>
-0.880783173616577

> <r_i_glide_ligand_efficiency_ln>
-1.69037662055407

> <r_i_glide_gscore>
-6.91540251685108

> <r_i_glide_lipo>
-2.99941539713471

> <r_i_glide_hbond>
-0.182139711770338

> <r_i_glide_metal>
0

> <r_i_glide_rewards>
-2.01114443959984

> <r_i_glide_evdw>
-32.4660301208496

> <r_i_glide_ecoul>
-1.57094717025757

> <r_i_glide_erotb>
0.216211536352508

> <r_i_glide_esite>
-0.0799709231175783

> <r_i_glide_emodel>
-37.2867067018784

> <r_i_glide_energy>
-34.0369772911072

> <r_i_glide_einternal>
7.62928104400635

> <i_i_glide_confnum>
1

> <i_i_glide_posenum>
151

> <r_i_glide_eff_state_penalty>
0

> <s_user_duplicate_titles>
CHEMBL3650_lig2728

> <s_m_subgroup_title>
dock_pv

> <s_m_subgroupid>
dock_pv

> <b_m_subgroup_collapsed>
1

$$$$
CHEMBL3650_lig3244
                    3D
 Schrodinger Suite 2021-1.
 41 43  0  0  1  0            999 V2000
    7.6920    6.9115   20.6530 O   0  0  0  0  0  0
    5.5710    3.1878   10.5177 O   0  0  0  0  0  0
    5.9710    1.5373   12.0526 O   0  0  0  0  0  0
    8.0539    4.9088   21.5925 N   0  0  0  0  0  0
    4.7650    5.5370   16.8192 N   0  0  0  0  0  0
    6.9019    4.8353   19.6765 C   0  0  0  0  0  0
    6.7449    3.5711   20.3700 C   0  0  0  0  0  0
    5.7882    4.7950   17.3434 C   0  0  0  0  0  0
    7.5004    3.6779   21.5217 C   0  0  0  0  0  0
    7.5710    5.6959   20.6437 C   0  0  0  0  0  0
    5.9697    3.6984   16.5059 C   0  0  0  0  0  0
    6.5034    5.3301   18.4838 C   0  0  0  0  0  0
    5.0611    3.8392   15.4263 C   0  0  0  0  0  0
    4.2862    4.9632   15.6770 C   0  0  0  0  0  0
    6.0288    2.4043   20.1121 C   0  0  0  0  0  0
    7.5710    2.6777   22.4667 C   0  0  0  0  0  0
    4.8947    2.9240   14.2271 C   0  0  0  0  0  0
    6.0870    1.3765   21.0530 C   0  0  0  0  0  0
    6.8334    1.5370   22.2288 C   0  0  0  0  0  0
    7.0214    2.6339   16.6600 C   0  0  0  0  0  0
    3.1119    5.5370   14.9204 C   0  0  0  0  0  0
    5.1561    3.6467   12.8720 C   0  0  0  0  0  0
    5.5710    2.7799   11.6771 C   0  0  0  0  0  0
    5.7508    1.3660   12.9681 H   0  0  0  0  0  0
    8.5755    5.2619   22.3782 H   0  0  0  0  0  0
    4.4125    6.3930   17.2204 H   0  0  0  0  0  0
    6.7710    6.3370   18.2747 H   0  0  0  0  0  0
    5.4260    2.2894   19.2235 H   0  0  0  0  0  0
    8.1536    2.7754   23.3712 H   0  0  0  0  0  0
    3.8663    2.5616   14.2132 H   0  0  0  0  0  0
    5.4847    2.0208   14.3545 H   0  0  0  0  0  0
    5.5710    0.4486   20.8636 H   0  0  0  0  0  0
    6.9082    0.7461   22.9540 H   0  0  0  0  0  0
    7.9741    3.0825   16.9352 H   0  0  0  0  0  0
    6.7710    1.9334   17.4531 H   0  0  0  0  0  0
    7.1710    2.0644   15.7465 H   0  0  0  0  0  0
    3.4199    5.9370   13.9554 H   0  0  0  0  0  0
    2.3679    4.7701   14.7119 H   0  0  0  0  0  0
    2.6006    6.3360   15.4530 H   0  0  0  0  0  0
    6.0378    4.2757   13.0081 H   0  0  0  0  0  0
    4.3570    4.3371   12.6036 H   0  0  0  0  0  0
  1 10  2  0  0  0
  2 23  2  0  0  0
  3 23  1  0  0  0
  3 24  1  0  0  0
  4  9  1  0  0  0
  4 10  1  0  0  0
  4 25  1  0  0  0
  5  8  1  0  0  0
  5 14  1  0  0  0
  5 26  1  0  0  0
  6  7  1  0  0  0
  6 10  1  0  0  0
  6 12  2  3  0  0
  7  9  1  0  0  0
  7 15  2  0  0  0
  8 11  2  0  0  0
  8 12  1  0  0  0
  9 16  2  0  0  0
 11 13  1  0  0  0
 11 20  1  0  0  0
 12 27  1  0  0  0
 13 14  2  0  0  0
 13 17  1  0  0  0
 14 21  1  0  0  0
 15 18  1  0  0  0
 15 28  1  0  0  0
 16 19  1  0  0  0
 16 29  1  0  0  0
 17 22  1  0  0  0
 17 30  1  0  0  0
 17 31  1  0  0  0
 18 19  2  0  0  0
 18 32  1  0  0  0
 19 33  1  0  0  0
 20 34  1  0  0  0
 20 35  1  0  0  0
 20 36  1  0  0  0
 21 37  1  0  0  0
 21 38  1  0  0  0
 21 39  1  0  0  0
 22 23  1  0  0  0
 22 40  1  0  0  0
 22 41  1  0  0  0
M  END
> <s_m_entry_id>
49612

> <s_m_entry_name>
dock_pv.202

> <s_m_Source_Path>
/home/csk/Desktop/cluster/DUD-E-result/fgfr1

> <s_m_Source_File>
dock_pv.maegz

> <i_m_Source_File_Index>
202

> <chembl_id>
CHEMBL2007064

> <chembl_pref_name>
None

> <i_lp_mmshare_version>
53161

> <i_f3d_flags>
0

> <r_lp_tautomer_probability>
1

> <s_lp_Force_Field>
OPLS_2005

> <r_lp_Energy>
28.688211

> <b_lp_Chiralities_Consistent>
1

> <s_lp_Variant>
CHEMBL3650_lig3244-2

> <s_i_glide_gridfile>
glide-grid_3c4f

> <i_i_glide_lignum>
4195

> <i_i_glide_rotatable_bonds>
5

> <r_i_docking_score>
-6.91297736667246

> <r_i_glide_ligand_efficiency>
-0.300564233333585

> <r_i_glide_ligand_efficiency_sa>
-0.854764697608414

> <r_i_glide_ligand_efficiency_ln>
-1.67162061067453

> <r_i_glide_gscore>
-6.91297736667246

> <r_i_glide_lipo>
-3.66394664394545

> <r_i_glide_hbond>
-0.0603755169587242

> <r_i_glide_metal>
0

> <r_i_glide_rewards>
-2.21400511130961

> <r_i_glide_evdw>
-33.8058547973633

> <r_i_glide_ecoul>
-0.268469452857971

> <r_i_glide_erotb>
0.769532500312959

> <r_i_glide_esite>
-0.0136194369747682

> <r_i_glide_emodel>
-33.2717734548733

> <r_i_glide_energy>
-34.0743242502213

> <r_i_glide_einternal>
6.4727463722229

> <i_i_glide_confnum>
51

> <i_i_glide_posenum>
115

> <r_i_glide_eff_state_penalty>
0

> <s_user_duplicate_titles>
CHEMBL3650_lig3244

> <s_m_subgroup_title>
dock_pv

> <s_m_subgroupid>
dock_pv

> <b_m_subgroup_collapsed>
1

$$$$
CHEMBL3650_lig3114
                    3D
 Schrodinger Suite 2021-1.
 24 26  0  0  1  0            999 V2000
    9.6932    2.5480   24.9184 Cl  0  0  0  0  0  0
    5.9710    1.1370   21.5512 O   0  0  0  0  0  0
    7.9702    4.3370   19.6013 N   0  0  0  0  0  0
    5.5710    2.7106   20.0636 N   0  0  0  0  0  0
    9.4311    4.3371   21.4531 N   0  0  0  0  0  0
    9.8638    3.9370   22.6569 N   0  0  0  0  0  0
    7.5239    2.9173   21.5786 C   0  0  0  0  0  0
    8.2883    3.8698   20.8850 C   0  0  0  0  0  0
    6.3095    2.2006   21.0532 C   0  0  0  0  0  0
    6.8206    4.4005   18.8030 C   0  0  0  0  0  0
    5.6224    3.7893   19.1865 C   0  0  0  0  0  0
    7.9711    2.4999   22.8458 C   0  0  0  0  0  0
    9.1422    3.0383   23.3589 C   0  0  0  0  0  0
    6.7861    5.1370   17.6151 C   0  0  0  0  0  0
    4.4270    4.2840   18.6529 C   0  0  0  0  0  0
    5.6044    5.5088   16.9846 C   0  0  0  0  0  0
    4.4027    5.1370   17.5569 C   0  0  0  0  0  0
    8.7213    4.8963   19.2196 H   0  0  0  0  0  0
    4.7666    2.1195   19.9154 H   0  0  0  0  0  0
    7.4440    1.7582   23.4314 H   0  0  0  0  0  0
    7.6908    5.5333   17.1993 H   0  0  0  0  0  0
    3.4888    3.9370   19.0455 H   0  0  0  0  0  0
    5.6276    6.1248   16.0966 H   0  0  0  0  0  0
    3.4647    5.4536   17.1248 H   0  0  0  0  0  0
  1 13  1  0  0  0
  2  9  2  0  0  0
  3  8  1  0  0  0
  3 10  1  0  0  0
  3 18  1  0  0  0
  4  9  1  0  0  0
  4 11  1  0  0  0
  4 19  1  0  0  0
  5  6  2  0  0  0
  5  8  1  0  0  0
  6 13  1  0  0  0
  7  8  2  0  0  0
  7  9  1  0  0  0
  7 12  1  0  0  0
 10 11  1  0  0  0
 10 14  2  0  0  0
 11 15  2  0  0  0
 12 13  2  0  0  0
 12 20  1  0  0  0
 14 16  1  0  0  0
 14 21  1  0  0  0
 15 17  1  0  0  0
 15 22  1  0  0  0
 16 17  2  0  0  0
 16 23  1  0  0  0
 17 24  1  0  0  0
M  END
> <s_m_entry_id>
49614

> <s_m_entry_name>
dock_pv.204

> <s_m_Source_Path>
/home/csk/Desktop/cluster/DUD-E-result/fgfr1

> <s_m_Source_File>
dock_pv.maegz

> <i_m_Source_File_Index>
204

> <chembl_id>
CHEMBL1968850

> <chembl_pref_name>
None

> <i_lp_mmshare_version>
53161

> <i_f3d_flags>
0

> <r_lp_tautomer_probability>
0.999989120118012

> <s_lp_Force_Field>
OPLS_2005

> <r_lp_Energy>
29.966195

> <b_lp_Chiralities_Consistent>
1

> <s_lp_Variant>
CHEMBL3650_lig3114-1

> <s_i_glide_gridfile>
glide-grid_3c4f

> <i_i_glide_lignum>
3975

> <i_i_glide_rotatable_bonds>
0

> <r_i_docking_score>
-6.91038007937257

> <r_i_glide_ligand_efficiency>
-0.406492945845445

> <r_i_glide_ligand_efficiency_sa>
-1.04520782739773

> <r_i_glide_ligand_efficiency_ln>
-1.80276427610997

> <r_i_glide_gscore>
-6.91038007937257

> <r_i_glide_lipo>
-2.5124073037873

> <r_i_glide_hbond>
-0.17455526111438

> <r_i_glide_metal>
0

> <r_i_glide_rewards>
-2.62163943639167

> <r_i_glide_evdw>
-18.5066394805908

> <r_i_glide_ecoul>
-4.50964069366455

> <r_i_glide_erotb>
0

> <r_i_glide_esite>
0

> <r_i_glide_emodel>
-27.7290186733268

> <r_i_glide_energy>
-23.0162801742554

> <r_i_glide_einternal>
0

> <i_i_glide_confnum>
1

> <i_i_glide_posenum>
299

> <r_i_glide_eff_state_penalty>
0

> <s_user_duplicate_titles>
CHEMBL3650_lig3114

> <s_m_subgroup_title>
dock_pv

> <s_m_subgroupid>
dock_pv

> <b_m_subgroup_collapsed>
1

$$$$
CHEMBL3650_lig430
                    3D
 Schrodinger Suite 2021-1.
 46 50  0  0  1  0            999 V2000
    5.3795    3.0206   12.8276 C   0  0  0  0  0  0
    4.3853    3.9770   12.6525 C   0  0  0  0  0  0
    3.9277    4.7367   13.7284 C   0  0  0  0  0  0
    5.9552    2.8589   14.0822 C   0  0  0  0  0  0
    5.5614    3.6784   15.1477 C   0  0  0  0  0  0
    4.5387    4.6187   14.9658 C   0  0  0  0  0  0
    4.0600    5.3521   16.0626 N   0  0  0  0  0  0
    4.3779    5.1370   17.3562 C   0  0  0  0  0  0
    5.5476    4.2787   17.5368 C   0  0  0  0  0  0
    6.0923    3.5687   16.5162 C   0  0  0  0  0  0
    3.6375    5.5374   18.2486 O   0  0  0  0  0  0
    6.0703    4.0808   18.8653 C   0  0  0  0  0  0
    5.5710    3.1199   19.7031 N   0  0  0  0  0  0
    7.1716    4.6285   19.3112 N   0  0  0  0  0  0
    7.4526    3.9370   20.4578 C   0  0  0  0  0  0
    6.4367    3.0085   20.7544 C   0  0  0  0  0  0
    6.4706    2.2019   21.8805 C   0  0  0  0  0  0
    7.6055    2.3055   22.6848 C   0  0  0  0  0  0
    8.6708    3.1774   22.4064 C   0  0  0  0  0  0
    8.5683    4.0234   21.2919 C   0  0  0  0  0  0
    7.1710    2.7374   16.6542 N   0  0  0  0  0  0
    9.7782    3.2390   23.2549 N   0  0  0  0  0  0
    9.5274    3.3185   24.7058 C   0  0  0  0  0  0
   10.7396    3.5576   25.6266 C   0  0  0  0  0  0
   11.6086    4.5137   25.0499 O   0  0  0  0  0  0
   12.1876    4.0021   23.8622 C   0  0  0  0  0  0
   11.0963    3.7396   22.7940 C   0  0  0  0  0  0
    5.6902    2.4097   11.9924 H   0  0  0  0  0  0
    3.9718    4.1458   11.6707 H   0  0  0  0  0  0
    3.1461    5.4637   13.5710 H   0  0  0  0  0  0
    6.6986    2.1025   14.2356 H   0  0  0  0  0  0
    3.2502    5.9353   15.9429 H   0  0  0  0  0  0
    4.7409    2.5837   19.4972 H   0  0  0  0  0  0
    5.6621    1.5362   22.1126 H   0  0  0  0  0  0
    7.6444    1.6609   23.5457 H   0  0  0  0  0  0
    9.3293    4.7365   21.0540 H   0  0  0  0  0  0
    7.6491    2.6836   17.5418 H   0  0  0  0  0  0
    7.6177    2.3207   15.8533 H   0  0  0  0  0  0
    9.0577    2.3879   25.0272 H   0  0  0  0  0  0
    8.7755    4.0984   24.8690 H   0  0  0  0  0  0
   10.4002    3.9373   26.5909 H   0  0  0  0  0  0
   11.2693    2.6271   25.8485 H   0  0  0  0  0  0
   12.8919    4.7446   23.4868 H   0  0  0  0  0  0
   12.8072    3.1365   24.0713 H   0  0  0  0  0  0
   10.9622    4.6724   22.2485 H   0  0  0  0  0  0
   11.4871    3.0334   22.0609 H   0  0  0  0  0  0
  1  2  2  0  0  0
  1  4  1  0  0  0
  1 28  1  0  0  0
  2  3  1  0  0  0
  2 29  1  0  0  0
  3  6  2  0  0  0
  3 30  1  0  0  0
  4  5  2  0  0  0
  4 31  1  0  0  0
  5 10  1  0  0  0
  5  6  1  0  0  0
  6  7  1  0  0  0
  7  8  1  0  0  0
  7 32  1  0  0  0
  8  9  1  0  0  0
  8 11  2  0  0  0
  9 12  1  0  0  0
  9 10  2  0  0  0
 10 21  1  0  0  0
 12 14  2  0  0  0
 12 13  1  0  0  0
 13 16  1  0  0  0
 13 33  1  0  0  0
 14 15  1  0  0  0
 15 16  2  0  0  0
 15 20  1  0  0  0
 16 17  1  0  0  0
 17 18  2  0  0  0
 17 34  1  0  0  0
 18 19  1  0  0  0
 18 35  1  0  0  0
 19 20  2  0  0  0
 19 22  1  0  0  0
 20 36  1  0  0  0
 21 37  1  0  0  0
 21 38  1  0  0  0
 22 23  1  0  0  0
 22 27  1  0  0  0
 23 24  1  0  0  0
 23 39  1  0  0  0
 23 40  1  0  0  0
 24 25  1  0  0  0
 24 41  1  0  0  0
 24 42  1  0  0  0
 25 26  1  0  0  0
 26 27  1  0  0  0
 26 43  1  0  0  0
 26 44  1  0  0  0
 27 45  1  0  0  0
 27 46  1  0  0  0
M  END
> <s_m_entry_id>
49615

> <s_m_entry_name>
dock_pv.205

> <s_m_Source_Path>
/home/csk/Desktop/cluster/DUD-E-result/fgfr1

> <s_m_Source_File>
dock_pv.maegz

> <i_m_Source_File_Index>
205

> <chembl_id>
CHEMBL204426

> <chembl_pref_name>
None

> <i_lp_mmshare_version>
53161

> <i_f3d_flags>
0

> <r_lp_tautomer_probability>
1

> <s_lp_Force_Field>
OPLS_2005

> <r_lp_Energy>
51.110493

> <b_lp_Chiralities_Consistent>
1

> <s_lp_Variant>
CHEMBL3650_lig430-1

> <s_i_glide_gridfile>
glide-grid_3c4f

> <i_i_glide_lignum>
465

> <i_i_glide_rotatable_bonds>
2

> <r_i_docking_score>
-6.90760083289881

> <r_i_glide_ligand_efficiency>
-0.255837067885141

> <r_i_glide_ligand_efficiency_sa>
-0.767511202812226

> <r_i_glide_ligand_efficiency_ln>
-1.60797559319885

> <r_i_glide_gscore>
-6.90760083289881

> <r_i_glide_lipo>
-3.27157043758185

> <r_i_glide_hbond>
0

> <r_i_glide_metal>
0

> <r_i_glide_rewards>
-1.70727376079726

> <r_i_glide_evdw>
-45.3326644897461

> <r_i_glide_ecoul>
0.293462187051773

> <r_i_glide_erotb>
0.293857261909834

> <r_i_glide_esite>
0

> <r_i_glide_emodel>
-43.2436047939709

> <r_i_glide_energy>
-45.0392023026943

> <r_i_glide_einternal>
4.08562278747559

> <i_i_glide_confnum>
15

> <i_i_glide_posenum>
79

> <r_i_glide_eff_state_penalty>
0

> <s_user_duplicate_titles>
CHEMBL3650_lig430,344824

> <s_m_subgroup_title>
dock_pv

> <s_m_subgroupid>
dock_pv

> <b_m_subgroup_collapsed>
1

$$$$
CHEMBL3650_lig3194
                    3D
 Schrodinger Suite 2021-1.
 30 31  0  0  1  0            999 V2000
    5.9784    2.4742   19.7693 S   0  0  0  0  0  0
    7.6173    5.7497   20.9106 O   0  0  0  0  0  0
    5.0048    6.3370   16.6547 O   0  0  0  0  0  0
    5.4855    3.0560   13.0788 O   0  0  0  0  0  0
    7.0964    3.6989   21.6737 N   0  0  0  0  0  0
    6.3715    1.5397   22.2511 N   0  0  0  0  0  0
    6.6549    4.0849   19.4786 C   0  0  0  0  0  0
    7.1714    4.6218   20.7134 C   0  0  0  0  0  0
    6.3003    4.3570   16.9860 C   0  0  0  0  0  0
    6.7229    4.7969   18.3317 C   0  0  0  0  0  0
    6.5312    2.5051   21.4618 C   0  0  0  0  0  0
    5.4996    5.1618   16.1645 C   0  0  0  0  0  0
    6.7456    3.1367   16.4854 C   0  0  0  0  0  0
    5.6626    3.5467   14.3560 C   0  0  0  0  0  0
    5.1876    4.7704   14.8550 C   0  0  0  0  0  0
    6.4060    2.7372   15.1975 C   0  0  0  0  0  0
    5.1594    3.9598   12.0366 C   0  0  0  0  0  0
    5.3302    3.2455   10.6894 C   0  0  0  0  0  0
    5.1694    6.4396   17.5926 H   0  0  0  0  0  0
    7.4603    3.9326   22.5828 H   0  0  0  0  0  0
    6.7638    1.7233   23.1644 H   0  0  0  0  0  0
    7.1684    5.7825   18.3557 H   0  0  0  0  0  0
    7.3706    2.4894   17.0816 H   0  0  0  0  0  0
    4.5947    5.4250   14.2327 H   0  0  0  0  0  0
    6.7713    1.7916   14.8307 H   0  0  0  0  0  0
    4.1322    4.3108   12.1510 H   0  0  0  0  0  0
    5.8183    4.8295   12.0669 H   0  0  0  0  0  0
    4.9924    3.8773    9.8675 H   0  0  0  0  0  0
    6.3703    2.9874   10.5110 H   0  0  0  0  0  0
    4.7669    2.3144   10.6569 H   0  0  0  0  0  0
  1  7  1  0  0  0
  1 11  1  0  0  0
  2  8  2  0  0  0
  3 12  1  0  0  0
  3 19  1  0  0  0
  4 14  1  0  0  0
  4 17  1  0  0  0
  5  8  1  0  0  0
  5 11  1  0  0  0
  5 20  1  0  0  0
  6 11  2  0  0  0
  6 21  1  0  0  0
  7  8  1  0  0  0
  7 10  2  3  0  0
  9 10  1  0  0  0
  9 12  1  0  0  0
  9 13  2  0  0  0
 10 22  1  0  0  0
 12 15  2  0  0  0
 13 16  1  0  0  0
 13 23  1  0  0  0
 14 15  1  0  0  0
 14 16  2  0  0  0
 15 24  1  0  0  0
 16 25  1  0  0  0
 17 18  1  0  0  0
 17 26  1  0  0  0
 17 27  1  0  0  0
 18 28  1  0  0  0
 18 29  1  0  0  0
 18 30  1  0  0  0
M  END
> <s_m_entry_id>
49616

> <s_m_entry_name>
dock_pv.206

> <s_m_Source_Path>
/home/csk/Desktop/cluster/DUD-E-result/fgfr1

> <s_m_Source_File>
dock_pv.maegz

> <i_m_Source_File_Index>
206

> <chembl_id>
CHEMBL1971289

> <chembl_pref_name>
None

> <i_lp_mmshare_version>
53161

> <i_f3d_flags>
0

> <r_lp_tautomer_probability>
1

> <s_lp_Force_Field>
OPLS_2005

> <r_lp_Energy>
12.179813

> <b_lp_Chiralities_Consistent>
1

> <s_lp_Variant>
CHEMBL3650_lig3194-2

> <s_i_glide_gridfile>
glide-grid_3c4f

> <i_i_glide_lignum>
4118

> <i_i_glide_rotatable_bonds>
4

> <r_i_docking_score>
-6.88684348107359

> <r_i_glide_ligand_efficiency>
-0.382602415615199

> <r_i_glide_ligand_efficiency_sa>
-1.00270198716101

> <r_i_glide_ligand_efficiency_ln>
-1.77022760539416

> <r_i_glide_gscore>
-6.88684348107359

> <r_i_glide_lipo>
-1.3020275840994

> <r_i_glide_hbond>
-0.394835948122124

> <r_i_glide_metal>
0

> <r_i_glide_rewards>
-3.52087481754717

> <r_i_glide_evdw>
-37.3946189880371

> <r_i_glide_ecoul>
-2.05518984794617

> <r_i_glide_erotb>
0.508904295288877

> <r_i_glide_esite>
0

> <r_i_glide_emodel>
-54.8921493624188

> <r_i_glide_energy>
-39.4498088359833

> <r_i_glide_einternal>
2.0366907119751

> <i_i_glide_confnum>
1

> <i_i_glide_posenum>
51

> <r_i_glide_eff_state_penalty>
0

> <s_user_duplicate_titles>
CHEMBL3650_lig3194

> <s_m_subgroup_title>
dock_pv

> <s_m_subgroupid>
dock_pv

> <b_m_subgroup_collapsed>
1

$$$$
CHEMBL3650_lig3286
                    3D
 Schrodinger Suite 2021-1.
 34 36  0  0  1  0            999 V2000
    5.9686    1.1463   21.2667 F   0  0  0  0  0  0
    3.6140    5.5057   14.6220 O   0  0  0  0  0  0
    4.3708    5.9352   17.8377 O   0  0  0  0  0  0
    5.6834    2.8836   14.4845 N   0  0  0  0  0  0
    6.3242    3.3208   17.7862 N   0  0  0  0  0  0
    5.5661    3.2714   10.2749 N   0  0  0  0  0  0
    5.3381    3.7919   15.4706 C   0  0  0  0  0  0
    5.6032    3.9524   16.7998 C   0  0  0  0  0  0
    4.3692    4.9712   15.4301 C   0  0  0  0  0  0
    4.7052    5.1640   16.9439 C   0  0  0  0  0  0
    5.5724    3.0289   13.0936 C   0  0  0  0  0  0
    5.7428    2.9795   19.0843 C   0  0  0  0  0  0
    6.7159    3.1724   20.2451 C   0  0  0  0  0  0
    6.7643    2.2371   21.2882 C   0  0  0  0  0  0
    5.5712    1.8980   12.2760 C   0  0  0  0  0  0
    5.5718    4.2781   12.4748 C   0  0  0  0  0  0
    7.5293    4.3113   20.3160 C   0  0  0  0  0  0
    7.6460    2.4089   22.3545 C   0  0  0  0  0  0
    5.5661    2.0733   10.8881 C   0  0  0  0  0  0
    5.5704    4.3470   11.0838 C   0  0  0  0  0  0
    8.3924    4.4932   21.3974 C   0  0  0  0  0  0
    8.4647    3.5345   22.4059 C   0  0  0  0  0  0
    6.0404    1.9832   14.7648 H   0  0  0  0  0  0
    7.0400    2.6658   17.5048 H   0  0  0  0  0  0
    5.3909    1.9463   19.0484 H   0  0  0  0  0  0
    4.8583    3.5854   19.2893 H   0  0  0  0  0  0
    5.5649    0.9022   12.6930 H   0  0  0  0  0  0
    5.6424    5.1901   13.0464 H   0  0  0  0  0  0
    7.4868    5.0580   19.5350 H   0  0  0  0  0  0
    7.6915    1.6702   23.1420 H   0  0  0  0  0  0
    5.5282    1.2458   10.2068 H   0  0  0  0  0  0
    5.6161    5.3126   10.6049 H   0  0  0  0  0  0
    9.0039    5.3798   21.4509 H   0  0  0  0  0  0
    9.1414    3.6721   23.2363 H   0  0  0  0  0  0
  1 14  1  0  0  0
  2  9  2  0  0  0
  3 10  2  0  0  0
  4  7  1  0  0  0
  4 11  1  0  0  0
  4 23  1  0  0  0
  5  8  1  0  0  0
  5 12  1  0  0  0
  5 24  1  0  0  0
  6 19  2  0  0  0
  6 20  1  0  0  0
  7  8  2  0  0  0
  7  9  1  0  0  0
  8 10  1  0  0  0
  9 10  1  0  0  0
 11 15  2  0  0  0
 11 16  1  0  0  0
 12 13  1  0  0  0
 12 25  1  0  0  0
 12 26  1  0  0  0
 13 14  1  0  0  0
 13 17  2  0  0  0
 14 18  2  0  0  0
 15 19  1  0  0  0
 15 27  1  0  0  0
 16 20  2  0  0  0
 16 28  1  0  0  0
 17 21  1  0  0  0
 17 29  1  0  0  0
 18 22  1  0  0  0
 18 30  1  0  0  0
 19 31  1  0  0  0
 20 32  1  0  0  0
 21 22  2  0  0  0
 21 33  1  0  0  0
 22 34  1  0  0  0
M  END
> <s_m_entry_id>
49617

> <s_m_entry_name>
dock_pv.207

> <s_m_Source_Path>
/home/csk/Desktop/cluster/DUD-E-result/fgfr1

> <s_m_Source_File>
dock_pv.maegz

> <i_m_Source_File_Index>
207

> <chembl_id>
CHEMBL1982361

> <chembl_pref_name>
None

> <i_lp_mmshare_version>
53161

> <i_f3d_flags>
0

> <r_lp_tautomer_probability>
1

> <s_lp_Force_Field>
OPLS_2005

> <r_lp_Energy>
51.940165

> <b_lp_Chiralities_Consistent>
1

> <s_lp_Variant>
CHEMBL3650_lig3286-1

> <s_i_glide_gridfile>
glide-grid_3c4f

> <i_i_glide_lignum>
4263

> <i_i_glide_rotatable_bonds>
5

> <r_i_docking_score>
-6.88561970372368

> <r_i_glide_ligand_efficiency>
-0.312982713805622

> <r_i_glide_ligand_efficiency_sa>
-0.876989872995007

> <r_i_glide_ligand_efficiency_ln>
-1.68309661467123

> <r_i_glide_gscore>
-6.88561970372368

> <r_i_glide_lipo>
-2.74356274833207

> <r_i_glide_hbond>
-0.220037083666172

> <r_i_glide_metal>
0

> <r_i_glide_rewards>
-2.6633931426832

> <r_i_glide_evdw>
-37.0523872375488

> <r_i_glide_ecoul>
-2.95474004745483

> <r_i_glide_erotb>
1.03720363995343

> <r_i_glide_esite>
0

> <r_i_glide_emodel>
-50.1765237808466

> <r_i_glide_energy>
-40.0071272850037

> <r_i_glide_einternal>
6.77314949035645

> <i_i_glide_confnum>
22

> <i_i_glide_posenum>
379

> <r_i_glide_eff_state_penalty>
0

> <s_user_duplicate_titles>
CHEMBL3650_lig3286

> <s_m_subgroup_title>
dock_pv

> <s_m_subgroupid>
dock_pv

> <b_m_subgroup_collapsed>
1

$$$$
CHEMBL3650_lig3242
                    3D
 Schrodinger Suite 2021-1.
 41 44  0  0  1  0            999 V2000
    7.4068    3.2225   21.3161 N   0  0  0  0  0  0
    7.6681    4.1569   20.3645 N   0  0  0  0  0  0
    7.3738    1.9821   23.1487 N   0  0  0  0  0  0
    6.3453    1.5371   22.3623 N   0  0  0  0  0  0
    6.9938    5.1367   18.3211 N   0  0  0  0  0  0
    8.0404    2.9340   22.5311 C   0  0  0  0  0  0
    6.3711    2.2764   21.2483 C   0  0  0  0  0  0
    9.3409    3.4165   23.0999 C   0  0  0  0  0  0
    6.8093    4.1474   19.2959 C   0  0  0  0  0  0
    5.5713    2.2443   20.1075 C   0  0  0  0  0  0
    5.7865    3.2089   19.1406 C   0  0  0  0  0  0
    9.5740    3.3897   24.4816 C   0  0  0  0  0  0
   10.3952    3.7246   22.2529 C   0  0  0  0  0  0
    5.9266    5.5370   17.3856 C   0  0  0  0  0  0
   10.8371    3.6725   24.9974 C   0  0  0  0  0  0
   11.6800    3.9370   22.7485 C   0  0  0  0  0  0
    5.7614    4.6767   16.1271 C   0  0  0  0  0  0
   11.8913    3.9370   24.1255 C   0  0  0  0  0  0
    4.8353    5.0858   15.1610 C   0  0  0  0  0  0
    6.4822    3.4964   15.9194 C   0  0  0  0  0  0
    5.3555    3.1556   13.8103 C   0  0  0  0  0  0
    4.6411    4.3374   14.0007 C   0  0  0  0  0  0
    6.2644    2.7371   14.7751 C   0  0  0  0  0  0
    5.1701    2.3271   12.5525 C   0  0  0  0  0  0
    7.7245    5.8070   18.5097 H   0  0  0  0  0  0
    4.7681    1.5363   20.0055 H   0  0  0  0  0  0
    5.1378    3.2162   18.2788 H   0  0  0  0  0  0
    8.7835    3.1064   25.1576 H   0  0  0  0  0  0
   10.2113    3.7338   21.1922 H   0  0  0  0  0  0
    6.0919    6.5601   17.0528 H   0  0  0  0  0  0
    4.9725    5.5611   17.9150 H   0  0  0  0  0  0
   11.0088    3.6448   26.0635 H   0  0  0  0  0  0
   12.4998    4.1337   22.0740 H   0  0  0  0  0  0
   12.8829    4.1233   24.5168 H   0  0  0  0  0  0
    4.2673    5.9926   15.2974 H   0  0  0  0  0  0
    7.2041    3.1479   16.6425 H   0  0  0  0  0  0
    3.9415    4.6833   13.2528 H   0  0  0  0  0  0
    6.7725    1.7981   14.6535 H   0  0  0  0  0  0
    4.7730    2.9310   11.7353 H   0  0  0  0  0  0
    6.1195    1.9162   12.2090 H   0  0  0  0  0  0
    4.4936    1.4928   12.7435 H   0  0  0  0  0  0
  1  2  1  0  0  0
  1  6  1  0  0  0
  1  7  1  0  0  0
  2  9  2  0  0  0
  3  4  1  0  0  0
  3  6  2  0  0  0
  4  7  2  0  0  0
  5  9  1  0  0  0
  5 14  1  0  0  0
  5 25  1  0  0  0
  6  8  1  0  0  0
  7 10  1  0  0  0
  8 12  2  0  0  0
  8 13  1  0  0  0
  9 11  1  0  0  0
 10 11  2  0  0  0
 10 26  1  0  0  0
 11 27  1  0  0  0
 12 15  1  0  0  0
 12 28  1  0  0  0
 13 16  2  0  0  0
 13 29  1  0  0  0
 14 17  1  0  0  0
 14 30  1  0  0  0
 14 31  1  0  0  0
 15 18  2  0  0  0
 15 32  1  0  0  0
 16 18  1  0  0  0
 16 33  1  0  0  0
 17 19  2  0  0  0
 17 20  1  0  0  0
 18 34  1  0  0  0
 19 22  1  0  0  0
 19 35  1  0  0  0
 20 23  2  0  0  0
 20 36  1  0  0  0
 21 22  2  0  0  0
 21 23  1  0  0  0
 21 24  1  0  0  0
 22 37  1  0  0  0
 23 38  1  0  0  0
 24 39  1  0  0  0
 24 40  1  0  0  0
 24 41  1  0  0  0
M  END
> <s_m_entry_id>
49618

> <s_m_entry_name>
dock_pv.208

> <s_m_Source_Path>
/home/csk/Desktop/cluster/DUD-E-result/fgfr1

> <s_m_Source_File>
dock_pv.maegz

> <i_m_Source_File_Index>
208

> <chembl_id>
CHEMBL1375418

> <chembl_pref_name>
None

> <i_lp_mmshare_version>
53161

> <i_f3d_flags>
0

> <r_lp_tautomer_probability>
1

> <s_lp_Force_Field>
OPLS_2005

> <r_lp_Energy>
19.508662

> <b_lp_Chiralities_Consistent>
1

> <s_lp_Variant>
CHEMBL3650_lig3242-1

> <s_i_glide_gridfile>
glide-grid_3c4f

> <i_i_glide_lignum>
4192

> <i_i_glide_rotatable_bonds>
4

> <r_i_docking_score>
-6.86931804750689

> <r_i_glide_ligand_efficiency>
-0.286221585312787

> <r_i_glide_ligand_efficiency_sa>
-0.825605915985538

> <r_i_glide_ligand_efficiency_ln>
-1.64414302123408

> <r_i_glide_gscore>
-6.86931804750689

> <r_i_glide_lipo>
-2.46666149257306

> <r_i_glide_hbond>
0

> <r_i_glide_metal>
0

> <r_i_glide_rewards>
-2.56231335900183

> <r_i_glide_evdw>
-41.5398788452148

> <r_i_glide_ecoul>
-3.3578839302063

> <r_i_glide_erotb>
0.748111375920535

> <r_i_glide_esite>
-0.00777804006084884

> <r_i_glide_emodel>
-51.6804397464818

> <r_i_glide_energy>
-44.8977627754211

> <r_i_glide_einternal>
5.47971487045288

> <i_i_glide_confnum>
42

> <i_i_glide_posenum>
32

> <r_i_glide_eff_state_penalty>
0

> <s_user_duplicate_titles>
CHEMBL3650_lig3242

> <s_m_subgroup_title>
dock_pv

> <s_m_subgroupid>
dock_pv

> <b_m_subgroup_collapsed>
1

$$$$
CHEMBL3650_lig744
                    3D
 Schrodinger Suite 2021-1.
 34 36  0  0  1  0            999 V2000
   11.5885    3.7741   24.9879 C   0  0  0  0  0  0
   11.7494    3.9370   23.6143 C   0  0  0  0  0  0
   10.6889    3.6631   22.7498 C   0  0  0  0  0  0
    9.4480    3.2354   23.2344 C   0  0  0  0  0  0
    9.3218    3.0309   24.6152 C   0  0  0  0  0  0
   10.3862    3.2805   25.4989 C   0  0  0  0  0  0
    8.3071    2.9712   22.3033 C   0  0  0  0  0  0
    7.3973    1.9386   22.5632 C   0  0  0  0  0  0
    6.3715    1.5689   21.7586 N   0  0  0  0  0  0
    6.2476    2.2445   20.6192 C   0  0  0  0  0  0
    7.0839    3.3424   20.2546 C   0  0  0  0  0  0
    8.1176    3.7205   21.1295 C   0  0  0  0  0  0
    5.3387    1.9373   19.6532 N   0  0  0  0  0  0
    5.5816    2.8511   18.7086 N   0  0  0  0  0  0
    6.5978    3.7322   18.9757 C   0  0  0  0  0  0
    7.0270    4.7632   17.9738 C   0  0  0  0  0  0
   10.3559    3.0418   26.8852 N   0  0  0  0  0  0
    9.4271    2.4034   27.6254 C   0  0  0  0  0  0
    8.3712    1.9371   27.2065 O   0  0  0  0  0  0
    9.7499    2.2640   29.1058 C   0  0  0  0  0  0
   12.4281    3.9785   25.6383 H   0  0  0  0  0  0
   12.6978    4.2766   23.2229 H   0  0  0  0  0  0
   10.8345    3.7924   21.6914 H   0  0  0  0  0  0
    8.3784    2.6691   24.9852 H   0  0  0  0  0  0
    7.4924    1.3432   23.4539 H   0  0  0  0  0  0
    8.7763    4.5361   20.8718 H   0  0  0  0  0  0
    5.0531    2.8591   17.8485 H   0  0  0  0  0  0
    7.9713    4.4883   17.5025 H   0  0  0  0  0  0
    6.3005    4.9101   17.1731 H   0  0  0  0  0  0
    7.1712    5.7313   18.4522 H   0  0  0  0  0  0
   11.1843    3.3377   27.3782 H   0  0  0  0  0  0
   10.3377    1.3593   29.2740 H   0  0  0  0  0  0
    8.8260    2.1792   29.6779 H   0  0  0  0  0  0
   10.3109    3.1233   29.4758 H   0  0  0  0  0  0
  1  2  2  0  0  0
  1  6  1  0  0  0
  1 21  1  0  0  0
  2  3  1  0  0  0
  2 22  1  0  0  0
  3  4  2  0  0  0
  3 23  1  0  0  0
  4  5  1  0  0  0
  4  7  1  0  0  0
  5  6  2  0  0  0
  5 24  1  0  0  0
  6 17  1  0  0  0
  7  8  1  0  0  0
  7 12  2  0  0  0
  8  9  2  0  0  0
  8 25  1  0  0  0
  9 10  1  0  0  0
 10 13  2  0  0  0
 10 11  1  0  0  0
 11 12  1  0  0  0
 11 15  2  0  0  0
 12 26  1  0  0  0
 13 14  1  0  0  0
 14 15  1  0  0  0
 14 27  1  0  0  0
 15 16  1  0  0  0
 16 28  1  0  0  0
 16 29  1  0  0  0
 16 30  1  0  0  0
 17 18  1  0  0  0
 17 31  1  0  0  0
 18 19  2  0  0  0
 18 20  1  0  0  0
 20 32  1  0  0  0
 20 33  1  0  0  0
 20 34  1  0  0  0
M  END
> <s_m_entry_id>
49619

> <s_m_entry_name>
dock_pv.209

> <s_m_Source_Path>
/home/csk/Desktop/cluster/DUD-E-result/fgfr1

> <s_m_Source_File>
dock_pv.maegz

> <i_m_Source_File_Index>
209

> <chembl_id>
CHEMBL2430323

> <chembl_pref_name>
None

> <i_lp_mmshare_version>
53161

> <i_f3d_flags>
0

> <r_lp_tautomer_probability>
0.0390191909917017

> <s_lp_Force_Field>
OPLS_2005

> <r_lp_Energy>
29.829879

> <b_lp_Chiralities_Consistent>
1

> <s_lp_Variant>
CHEMBL3650_lig744-2

> <s_i_glide_gridfile>
glide-grid_3c4f

> <i_i_glide_lignum>
909

> <i_i_glide_rotatable_bonds>
3

> <r_i_docking_score>
-6.85827024860155

> <r_i_glide_ligand_efficiency>
-0.342913512430078

> <r_i_glide_ligand_efficiency_sa>
-0.930810478179153

> <r_i_glide_ligand_efficiency_ln>
-1.71639884233322

> <r_i_glide_gscore>
-6.85827024860155

> <r_i_glide_lipo>
-2.44715318402357

> <r_i_glide_hbond>
-0.156216871777982

> <r_i_glide_metal>
0

> <r_i_glide_rewards>
-2.67615320200442

> <r_i_glide_evdw>
-33.2666702270508

> <r_i_glide_ecoul>
-2.78499436378479

> <r_i_glide_erotb>
0.502335675124676

> <r_i_glide_esite>
0

> <r_i_glide_emodel>
-51.1446971632956

> <r_i_glide_energy>
-36.0516645908356

> <r_i_glide_einternal>
0.613858044147491

> <i_i_glide_confnum>
6

> <i_i_glide_posenum>
234

> <r_i_glide_eff_state_penalty>
0

> <s_user_duplicate_titles>
CHEMBL3650_lig744

> <s_m_subgroup_title>
dock_pv

> <s_m_subgroupid>
dock_pv

> <b_m_subgroup_collapsed>
1

$$$$
CHEMBL3650_lig2933
                    3D
 Schrodinger Suite 2021-1.
 29 31  0  0  1  0            999 V2000
    4.3710    6.0383   16.8442 F   0  0  0  0  0  0
    6.3710    2.9296   19.7893 N   0  0  0  0  0  0
    7.3059    3.8190   21.6385 N   0  0  0  0  0  0
    6.9128    2.5190   21.9018 N   0  0  0  0  0  0
    5.9710    0.7370   20.6530 N   0  0  0  0  0  0
    6.9897    4.0577   20.3458 C   0  0  0  0  0  0
    6.1090    4.0096   17.6726 C   0  0  0  0  0  0
    5.5740    4.0741   16.2862 C   0  0  0  0  0  0
    6.3710    2.0173   20.8147 C   0  0  0  0  0  0
    5.9577    2.8810   18.4787 C   0  0  0  0  0  0
    7.1710    5.1821   19.5401 C   0  0  0  0  0  0
    6.7102    5.1370   18.2260 C   0  0  0  0  0  0
    4.6862    5.0958   15.9333 C   0  0  0  0  0  0
    5.9261    3.1370   15.3106 C   0  0  0  0  0  0
    5.3422    3.1675   14.0384 C   0  0  0  0  0  0
    4.1125    5.1428   14.6647 C   0  0  0  0  0  0
    4.4354    4.1769   13.7186 C   0  0  0  0  0  0
    5.7042    2.1271   13.0004 C   0  0  0  0  0  0
    6.3094    0.0006   21.2537 H   0  0  0  0  0  0
    5.2867    0.4473   19.9568 H   0  0  0  0  0  0
    5.4889    1.9666   18.1488 H   0  0  0  0  0  0
    7.6161    6.0791   19.9408 H   0  0  0  0  0  0
    6.7710    6.0133   17.6103 H   0  0  0  0  0  0
    6.6362    2.3592   15.5527 H   0  0  0  0  0  0
    3.4286    5.9368   14.4052 H   0  0  0  0  0  0
    3.9912    4.2297   12.7345 H   0  0  0  0  0  0
    5.4901    2.4722   11.9878 H   0  0  0  0  0  0
    5.1710    1.1927   13.1793 H   0  0  0  0  0  0
    6.7710    1.9370   13.0530 H   0  0  0  0  0  0
  1 13  1  0  0  0
  2  6  1  0  0  0
  2  9  1  0  0  0
  2 10  1  0  0  0
  3  4  1  0  0  0
  3  6  2  0  0  0
  4  9  2  0  0  0
  5  9  1  0  0  0
  5 19  1  0  0  0
  5 20  1  0  0  0
  6 11  1  0  0  0
  7  8  1  0  0  0
  7 10  2  0  0  0
  7 12  1  0  0  0
  8 13  1  0  0  0
  8 14  2  0  0  0
 10 21  1  0  0  0
 11 12  2  0  0  0
 11 22  1  0  0  0
 12 23  1  0  0  0
 13 16  2  0  0  0
 14 15  1  0  0  0
 14 24  1  0  0  0
 15 17  2  0  0  0
 15 18  1  0  0  0
 16 17  1  0  0  0
 16 25  1  0  0  0
 17 26  1  0  0  0
 18 27  1  0  0  0
 18 28  1  0  0  0
 18 29  1  0  0  0
M  END
> <s_m_entry_id>
49620

> <s_m_entry_name>
dock_pv.210

> <s_m_Source_Path>
/home/csk/Desktop/cluster/DUD-E-result/fgfr1

> <s_m_Source_File>
dock_pv.maegz

> <i_m_Source_File_Index>
210

> <chembl_id>
CHEMBL2002323

> <chembl_pref_name>
None

> <i_lp_mmshare_version>
53161

> <i_f3d_flags>
0

> <r_lp_tautomer_probability>
1

> <s_lp_Force_Field>
OPLS_2005

> <r_lp_Energy>
17.964088

> <b_lp_Chiralities_Consistent>
1

> <s_lp_Variant>
CHEMBL3650_lig2933-1

> <s_i_glide_gridfile>
glide-grid_3c4f

> <i_i_glide_lignum>
3704

> <i_i_glide_rotatable_bonds>
1

> <r_i_docking_score>
-6.85787886128319

> <r_i_glide_ligand_efficiency>
-0.380993270071288

> <r_i_glide_ligand_efficiency_sa>
-0.998484832828837

> <r_i_glide_ligand_efficiency_ln>
-1.76278239923061

> <r_i_glide_gscore>
-6.85787886128319

> <r_i_glide_lipo>
-1.38191472689187

> <r_i_glide_hbond>
-0.282000505449736

> <r_i_glide_metal>
0

> <r_i_glide_rewards>
-3.48748526192434

> <r_i_glide_evdw>
-30.4049663543701

> <r_i_glide_ecoul>
-3.01215767860413

> <r_i_glide_erotb>
0.295497500355323

> <r_i_glide_esite>
-0.0299038978634416

> <r_i_glide_emodel>
-43.2382945726851

> <r_i_glide_energy>
-33.4171240329742

> <r_i_glide_einternal>
0.114948824048042

> <i_i_glide_confnum>
2

> <i_i_glide_posenum>
252

> <r_i_glide_eff_state_penalty>
0

> <s_user_duplicate_titles>
CHEMBL3650_lig2933

> <s_m_subgroup_title>
dock_pv

> <s_m_subgroupid>
dock_pv

> <b_m_subgroup_collapsed>
1

$$$$
CHEMBL3650_lig415
                    3D
 Schrodinger Suite 2021-1.
 30 33  0  0  1  0            999 V2000
    5.6682    4.8432   15.0734 N   0  0  0  0  0  0
    6.2485    4.6667   16.2726 C   0  0  0  0  0  0
    5.4989    4.7421   17.4520 C   0  0  0  0  0  0
    4.1507    5.1370   17.3698 C   0  0  0  0  0  0
    4.3505    5.0898   14.9517 C   0  0  0  0  0  0
    3.5728    5.2810   16.0993 C   0  0  0  0  0  0
    2.2839    5.5370   15.5553 C   0  0  0  0  0  0
    2.3147    5.5370   14.2530 N   0  0  0  0  0  0
    3.5714    5.1370   13.8530 N   0  0  0  0  0  0
    7.5710    4.3370   16.2530 O   0  0  0  0  0  0
    3.3261    5.1370   18.4874 N   0  0  0  0  0  0
    6.1026    4.2609   18.7343 C   0  0  0  0  0  0
    5.5775    3.2974   19.4530 N   0  0  0  0  0  0
    7.2751    4.7370   19.2710 N   0  0  0  0  0  0
    7.5211    4.0369   20.4299 C   0  0  0  0  0  0
    6.4387    3.1266   20.5036 C   0  0  0  0  0  0
    6.3750    2.2072   21.5594 C   0  0  0  0  0  0
    7.3895    2.2352   22.5187 C   0  0  0  0  0  0
    8.4426    3.1460   22.4332 C   0  0  0  0  0  0
    8.5370    4.0723   21.3908 C   0  0  0  0  0  0
    6.2399    4.7635   14.2435 H   0  0  0  0  0  0
    1.3616    5.7270   16.0836 H   0  0  0  0  0  0
    7.9691    4.5037   15.3827 H   0  0  0  0  0  0
    3.7158    4.7036   19.3127 H   0  0  0  0  0  0
    2.3274    5.1370   18.3434 H   0  0  0  0  0  0
    7.8349    5.4521   18.8298 H   0  0  0  0  0  0
    5.5710    1.4924   21.6161 H   0  0  0  0  0  0
    7.3706    1.5370   23.3435 H   0  0  0  0  0  0
    9.2097    3.1268   23.1943 H   0  0  0  0  0  0
    9.3625    4.7645   21.3281 H   0  0  0  0  0  0
  1  2  1  0  0  0
  1  5  1  0  0  0
  1 21  1  0  0  0
  2 10  1  0  0  0
  2  3  2  0  0  0
  3 12  1  0  0  0
  3  4  1  0  0  0
  4  6  2  0  0  0
  4 11  1  0  0  0
  5  6  1  0  0  0
  5  9  2  0  0  0
  6  7  1  0  0  0
  7  8  2  0  0  0
  7 22  1  0  0  0
  8  9  1  0  0  0
 10 23  1  0  0  0
 11 24  1  0  0  0
 11 25  1  0  0  0
 12 13  2  0  0  0
 12 14  1  0  0  0
 13 16  1  0  0  0
 14 15  1  0  0  0
 14 26  1  0  0  0
 15 16  2  0  0  0
 15 20  1  0  0  0
 16 17  1  0  0  0
 17 18  2  0  0  0
 17 27  1  0  0  0
 18 19  1  0  0  0
 18 28  1  0  0  0
 19 20  2  0  0  0
 19 29  1  0  0  0
 20 30  1  0  0  0
M  END
> <s_m_entry_id>
49621

> <s_m_entry_name>
dock_pv.211

> <s_m_Source_Path>
/home/csk/Desktop/cluster/DUD-E-result/fgfr1

> <s_m_Source_File>
dock_pv.maegz

> <i_m_Source_File_Index>
211

> <chembl_id>
CHEMBL205305

> <chembl_pref_name>
None

> <i_lp_mmshare_version>
53161

> <i_f3d_flags>
0

> <r_lp_tautomer_probability>
1

> <s_lp_Force_Field>
OPLS_2005

> <r_lp_Energy>
38.042436

> <b_lp_Chiralities_Consistent>
1

> <s_lp_Variant>
CHEMBL3650_lig415-1

> <s_i_glide_gridfile>
glide-grid_3c4f

> <i_i_glide_lignum>
446

> <i_i_glide_rotatable_bonds>
2

> <r_i_docking_score>
-6.85089496923307

> <r_i_glide_ligand_efficiency>
-0.342544748461653

> <r_i_glide_ligand_efficiency_sa>
-0.929809498767896

> <r_i_glide_ligand_efficiency_ln>
-1.71455305316028

> <r_i_glide_gscore>
-6.85089496923307

> <r_i_glide_lipo>
-2.80598808148943

> <r_i_glide_hbond>
-0.202851319803342

> <r_i_glide_metal>
0

> <r_i_glide_rewards>
-1.9177907590256

> <r_i_glide_evdw>
-29.3214149475098

> <r_i_glide_ecoul>
-3.52709245681763

> <r_i_glide_erotb>
0.251232614332166

> <r_i_glide_esite>
-0.180362807348732

> <r_i_glide_emodel>
-40.133332464051

> <r_i_glide_energy>
-32.8485074043274

> <r_i_glide_einternal>
2.28118062019348

> <i_i_glide_confnum>
1

> <i_i_glide_posenum>
322

> <r_i_glide_eff_state_penalty>
0

> <s_user_duplicate_titles>
CHEMBL3650_lig415

> <s_m_subgroup_title>
dock_pv

> <s_m_subgroupid>
dock_pv

> <b_m_subgroup_collapsed>
1

$$$$
CHEMBL3650_lig785
                    3D
 Schrodinger Suite 2021-1.
 39 41  0  0  1  0            999 V2000
    4.0347    4.8314   14.1720 N   0  0  0  0  0  0
    5.1160    4.0771   13.7519 C   0  0  0  0  0  0
    5.9704    3.5789   14.5960 N   0  0  0  0  0  0
    3.6763    5.1357   15.4538 C   0  0  0  0  0  0
    4.7665    4.7950   16.3465 C   0  0  0  0  0  0
    5.7806    4.0131   15.8740 C   0  0  0  0  0  0
    6.5659    3.7740   16.9476 N   0  0  0  0  0  0
    5.9934    4.3746   18.0121 C   0  0  0  0  0  0
    4.8997    5.0190   17.6636 N   0  0  0  0  0  0
    2.5459    5.5370   15.7119 O   0  0  0  0  0  0
    6.5184    4.2692   19.3597 C   0  0  0  0  0  0
    7.3731    5.2529   19.8405 C   0  0  0  0  0  0
    7.9720    5.1329   21.0849 C   0  0  0  0  0  0
    7.7299    4.0049   21.8529 C   0  0  0  0  0  0
    6.8076    3.0327   21.4344 C   0  0  0  0  0  0
    6.2099    3.1771   20.1737 C   0  0  0  0  0  0
    5.1705    3.9374   12.4069 N   0  0  0  0  0  0
    5.3074    2.2504   19.7280 O   0  0  0  0  0  0
    5.9060    1.1465   19.0922 C   0  0  0  0  0  0
    6.4528    1.9412   22.2032 O   0  0  0  0  0  0
    7.1712    1.7186   23.4075 C   0  0  0  0  0  0
    5.5682    2.8439   11.7298 C   0  0  0  0  0  0
    5.4772    2.9405   10.2148 C   0  0  0  0  0  0
    5.9709    1.8077   12.2524 O   0  0  0  0  0  0
    7.4239    3.2415   16.9573 H   0  0  0  0  0  0
    3.3875    5.1586   13.4723 H   0  0  0  0  0  0
    7.5688    6.1159   19.2300 H   0  0  0  0  0  0
    8.6387    5.8985   21.4507 H   0  0  0  0  0  0
    8.2400    3.9292   22.7983 H   0  0  0  0  0  0
    4.7773    4.6893   11.8567 H   0  0  0  0  0  0
    5.1694    0.7503   18.3993 H   0  0  0  0  0  0
    6.7680    1.4214   18.4857 H   0  0  0  0  0  0
    6.1865    0.3932   19.8318 H   0  0  0  0  0  0
    6.7714    0.8438   23.9022 H   0  0  0  0  0  0
    8.2222    1.5400   23.1848 H   0  0  0  0  0  0
    7.1093    2.5352   24.1289 H   0  0  0  0  0  0
    4.4389    3.0675    9.9089 H   0  0  0  0  0  0
    5.8550    2.0266    9.7547 H   0  0  0  0  0  0
    6.0518    3.7915    9.8535 H   0  0  0  0  0  0
  1  4  1  0  0  0
  1 26  1  0  0  0
  1  2  1  0  0  0
  2 17  1  0  0  0
  2  3  2  0  0  0
  3  6  1  0  0  0
  4  5  1  0  0  0
  4 10  2  0  0  0
  5  9  1  0  0  0
  5  6  2  0  0  0
  6  7  1  0  0  0
  7 25  1  0  0  0
  7  8  1  0  0  0
  8 11  1  0  0  0
  8  9  2  0  0  0
 11 12  2  0  0  0
 11 16  1  0  0  0
 12 13  1  0  0  0
 12 27  1  0  0  0
 13 14  2  0  0  0
 13 28  1  0  0  0
 14 15  1  0  0  0
 14 29  1  0  0  0
 15 16  2  0  0  0
 15 20  1  0  0  0
 16 18  1  0  0  0
 17 22  1  0  0  0
 17 30  1  0  0  0
 18 19  1  0  0  0
 19 31  1  0  0  0
 19 32  1  0  0  0
 19 33  1  0  0  0
 20 21  1  0  0  0
 21 34  1  0  0  0
 21 35  1  0  0  0
 21 36  1  0  0  0
 22 23  1  0  0  0
 22 24  2  0  0  0
 23 37  1  0  0  0
 23 38  1  0  0  0
 23 39  1  0  0  0
M  END
> <s_m_entry_id>
49622

> <s_m_entry_name>
dock_pv.212

> <s_m_Source_Path>
/home/csk/Desktop/cluster/DUD-E-result/fgfr1

> <s_m_Source_File>
dock_pv.maegz

> <i_m_Source_File_Index>
212

> <chembl_id>
CHEMBL3401367

> <chembl_pref_name>
None

> <i_lp_mmshare_version>
53161

> <i_f3d_flags>
0

> <r_lp_tautomer_probability>
0.571172162693644

> <s_lp_Force_Field>
OPLS_2005

> <r_lp_Energy>
27.505407

> <b_lp_Chiralities_Consistent>
1

> <s_lp_Variant>
CHEMBL3650_lig785-1

> <s_i_glide_gridfile>
glide-grid_3c4f

> <i_i_glide_lignum>
962

> <i_i_glide_rotatable_bonds>
5

> <r_i_docking_score>
-6.84269719271775

> <r_i_glide_ligand_efficiency>
-0.285112383029906

> <r_i_glide_ligand_efficiency_sa>
-0.82240642295719

> <r_i_glide_ligand_efficiency_ln>
-1.63777142913161

> <r_i_glide_gscore>
-6.84269719271775

> <r_i_glide_lipo>
-2.11829815094969

> <r_i_glide_hbond>
-0.350702252088125

> <r_i_glide_metal>
0

> <r_i_glide_rewards>
-1.70696911366621

> <r_i_glide_evdw>
-42.7070541381836

> <r_i_glide_ecoul>
-4.97486066818237

> <r_i_glide_erotb>
0.346591992785531

> <r_i_glide_esite>
-0.131737861662725

> <r_i_glide_emodel>
-56.3750373233902

> <r_i_glide_energy>
-47.681914806366

> <r_i_glide_einternal>
12.6689710617065

> <i_i_glide_confnum>
1

> <i_i_glide_posenum>
36

> <r_i_glide_eff_state_penalty>
0

> <s_user_duplicate_titles>
CHEMBL3650_lig785

> <s_m_subgroup_title>
dock_pv

> <s_m_subgroupid>
dock_pv

> <b_m_subgroup_collapsed>
1

$$$$
CHEMBL3650_lig863
                    3D
 Schrodinger Suite 2021-1.
 39 42  0  0  1  0            999 V2000
    8.2318    3.1370   22.6984 N   0  0  0  0  0  0
    7.4153    1.9370   22.6895 C   0  0  0  0  0  0
    6.6060    2.0333   21.4167 C   0  0  0  0  0  0
    6.9779    3.2920   20.8255 C   0  0  0  0  0  0
    7.8809    3.9029   21.6024 C   0  0  0  0  0  0
    5.8336    1.2064   20.9500 O   0  0  0  0  0  0
    9.3087    3.2320   23.6112 C   0  0  0  0  0  0
    9.1714    2.7370   24.9151 C   0  0  0  0  0  0
   10.1784    2.9107   25.8725 C   0  0  0  0  0  0
   11.3715    3.5370   25.4958 C   0  0  0  0  0  0
   11.5647    3.9370   24.1765 C   0  0  0  0  0  0
   10.5380    3.7910   23.2427 C   0  0  0  0  0  0
    9.9817    2.4322   27.3100 C   0  0  0  0  0  0
    6.4645    3.7788   19.5558 C   0  0  0  0  0  0
    5.1966    3.9370   19.2665 N   0  0  0  0  0  0
    5.1795    4.5867   18.0603 C   0  0  0  0  0  0
    6.4818    4.6572   17.5257 C   0  0  0  0  0  0
    7.2803    4.2039   18.5387 N   0  0  0  0  0  0
    4.1079    5.1370   17.3392 C   0  0  0  0  0  0
    4.3486    5.5370   16.0251 C   0  0  0  0  0  0
    5.6376    5.5370   15.4936 C   0  0  0  0  0  0
    6.7414    5.1331   16.2485 C   0  0  0  0  0  0
    8.4448    5.1370   21.4530 N   0  0  0  0  0  0
    9.6678    3.4795   28.0731 F   0  0  0  0  0  0
   11.1012    1.8796   27.7789 F   0  0  0  0  0  0
    8.9970    1.5371   27.4073 F   0  0  0  0  0  0
    8.0407    1.0495   22.6530 H   0  0  0  0  0  0
    6.7725    1.8385   23.5637 H   0  0  0  0  0  0
    8.2504    2.2548   25.2048 H   0  0  0  0  0  0
   12.1684    3.6758   26.2138 H   0  0  0  0  0  0
   12.5092    4.3741   23.8837 H   0  0  0  0  0  0
   10.7119    4.1131   22.2276 H   0  0  0  0  0  0
    8.2864    4.1405   18.5678 H   0  0  0  0  0  0
    3.1072    5.1370   17.7441 H   0  0  0  0  0  0
    3.5287    5.8836   15.4119 H   0  0  0  0  0  0
    5.7926    5.8815   14.4788 H   0  0  0  0  0  0
    7.7448    5.1666   15.8530 H   0  0  0  0  0  0
    8.1760    5.7320   20.6834 H   0  0  0  0  0  0
    9.0721    5.5087   22.1490 H   0  0  0  0  0  0
  1  2  1  0  0  0
  1  5  1  0  0  0
  1  7  1  0  0  0
  2  3  1  0  0  0
  2 27  1  0  0  0
  2 28  1  0  0  0
  3  4  1  0  0  0
  3  6  2  0  0  0
  4  5  2  0  0  0
  4 14  1  0  0  0
  5 23  1  0  0  0
  7  8  1  0  0  0
  7 12  2  0  0  0
  8  9  2  0  0  0
  8 29  1  0  0  0
  9 10  1  0  0  0
  9 13  1  0  0  0
 10 11  2  0  0  0
 10 30  1  0  0  0
 11 12  1  0  0  0
 11 31  1  0  0  0
 12 32  1  0  0  0
 13 24  1  0  0  0
 13 25  1  0  0  0
 13 26  1  0  0  0
 14 15  2  0  0  0
 14 18  1  0  0  0
 15 16  1  0  0  0
 16 17  1  0  0  0
 16 19  2  0  0  0
 17 18  1  0  0  0
 17 22  2  0  0  0
 18 33  1  0  0  0
 19 20  1  0  0  0
 19 34  1  0  0  0
 20 21  2  0  0  0
 20 35  1  0  0  0
 21 22  1  0  0  0
 21 36  1  0  0  0
 22 37  1  0  0  0
 23 38  1  0  0  0
 23 39  1  0  0  0
M  END
> <s_m_entry_id>
49623

> <s_m_entry_name>
dock_pv.213

> <s_m_Source_Path>
/home/csk/Desktop/cluster/DUD-E-result/fgfr1

> <s_m_Source_File>
dock_pv.maegz

> <i_m_Source_File_Index>
213

> <chembl_id>
CHEMBL3780105

> <chembl_pref_name>
None

> <i_lp_mmshare_version>
53161

> <i_f3d_flags>
0

> <r_lp_tautomer_probability>
0.999998894702016

> <s_lp_Force_Field>
OPLS_2005

> <r_lp_Energy>
36.657887

> <b_lp_Chiralities_Consistent>
1

> <s_lp_Variant>
CHEMBL3650_lig863-1

> <s_i_glide_gridfile>
glide-grid_3c4f

> <i_i_glide_lignum>
1056

> <i_i_glide_rotatable_bonds>
3

> <r_i_docking_score>
-6.83290885551693

> <r_i_glide_ligand_efficiency>
-0.262804186750651

> <r_i_glide_ligand_efficiency_sa>
-0.778556369164263

> <r_i_glide_ligand_efficiency_ln>
-1.60468622411549

> <r_i_glide_gscore>
-6.83290885551693

> <r_i_glide_lipo>
-2.53076917149971

> <r_i_glide_hbond>
0

> <r_i_glide_metal>
0

> <r_i_glide_rewards>
-2.50557152662885

> <r_i_glide_evdw>
-38.9425773620605

> <r_i_glide_ecoul>
-0.985427558422089

> <r_i_glide_erotb>
0.298374844477977

> <r_i_glide_esite>
0

> <r_i_glide_emodel>
-47.1932613732308

> <r_i_glide_energy>
-39.9280049204826

> <r_i_glide_einternal>
5.56673908233643

> <i_i_glide_confnum>
1

> <i_i_glide_posenum>
365

> <r_i_glide_eff_state_penalty>
0

> <s_user_duplicate_titles>
CHEMBL3650_lig863

> <s_m_subgroup_title>
dock_pv

> <s_m_subgroupid>
dock_pv

> <b_m_subgroup_collapsed>
1

$$$$
CHEMBL3650_lig2980
                    3D
 Schrodinger Suite 2021-1.
 35 38  0  0  1  0            999 V2000
    7.7746    2.3370   24.1761 Br  0  0  0  0  0  0
    6.3710    1.9370   13.3017 O   0  0  0  0  0  0
    3.3690    5.3115   16.1523 N   0  0  0  0  0  0
    7.0062    4.7729   18.8625 N   0  0  0  0  0  0
    6.6325    2.5783   21.5926 N   0  0  0  0  0  0
    8.3710    4.7344   20.8809 N   0  0  0  0  0  0
    5.1434    4.5201   17.2917 C   0  0  0  0  0  0
    5.2484    4.1310   15.9107 C   0  0  0  0  0  0
    5.8875    4.0994   18.4361 C   0  0  0  0  0  0
    4.1835    4.7612   15.2135 C   0  0  0  0  0  0
    6.5133    3.2201   20.4211 C   0  0  0  0  0  0
    7.3888    4.2916   20.0936 C   0  0  0  0  0  0
    3.9740    5.2537   17.3838 C   0  0  0  0  0  0
    5.5975    3.0812   19.3323 C   0  0  0  0  0  0
    6.0435    3.2406   15.1928 C   0  0  0  0  0  0
    3.9752    4.6400   13.8442 C   0  0  0  0  0  0
    5.7352    2.9944   13.8578 C   0  0  0  0  0  0
    7.6199    3.0282   22.4185 C   0  0  0  0  0  0
    4.7797    3.7432   13.1767 C   0  0  0  0  0  0
    8.4863    4.0565   22.0487 C   0  0  0  0  0  0
    1.9973    5.6242   15.8492 C   0  0  0  0  0  0
    6.0705    1.5370   11.9896 C   0  0  0  0  0  0
    7.4095    5.5375   18.3409 H   0  0  0  0  0  0
    3.4485    5.6174   18.2531 H   0  0  0  0  0  0
    4.7795    2.3825   19.2402 H   0  0  0  0  0  0
    6.7966    2.6597   15.6974 H   0  0  0  0  0  0
    3.1710    5.1417   13.3306 H   0  0  0  0  0  0
    4.5875    3.5893   12.1270 H   0  0  0  0  0  0
    9.2593    4.3917   22.7235 H   0  0  0  0  0  0
    1.4382    5.9365   16.7317 H   0  0  0  0  0  0
    1.9724    6.3623   15.0531 H   0  0  0  0  0  0
    1.5710    4.7370   15.4132 H   0  0  0  0  0  0
    6.7860    0.7370   11.8530 H   0  0  0  0  0  0
    6.2653    2.3072   11.2418 H   0  0  0  0  0  0
    5.0575    1.1422   11.8909 H   0  0  0  0  0  0
  1 18  1  0  0  0
  2 17  1  0  0  0
  2 22  1  0  0  0
  3 10  1  0  0  0
  3 13  1  0  0  0
  3 21  1  0  0  0
  4  9  1  0  0  0
  4 12  1  0  0  0
  4 23  1  0  0  0
  5 11  2  0  0  0
  5 18  1  0  0  0
  6 12  2  0  0  0
  6 20  1  0  0  0
  7  8  1  0  0  0
  7  9  1  0  0  0
  7 13  2  0  0  0
  8 10  1  0  0  0
  8 15  2  0  0  0
  9 14  2  0  0  0
 10 16  2  0  0  0
 11 12  1  0  0  0
 11 14  1  0  0  0
 13 24  1  0  0  0
 14 25  1  0  0  0
 15 17  1  0  0  0
 15 26  1  0  0  0
 16 19  1  0  0  0
 16 27  1  0  0  0
 17 19  2  0  0  0
 18 20  2  0  0  0
 19 28  1  0  0  0
 20 29  1  0  0  0
 21 30  1  0  0  0
 21 31  1  0  0  0
 21 32  1  0  0  0
 22 33  1  0  0  0
 22 34  1  0  0  0
 22 35  1  0  0  0
M  END
> <s_m_entry_id>
49624

> <s_m_entry_name>
dock_pv.214

> <s_m_Source_Path>
/home/csk/Desktop/cluster/DUD-E-result/fgfr1

> <s_m_Source_File>
dock_pv.maegz

> <i_m_Source_File_Index>
214

> <chembl_id>
CHEMBL2005478

> <chembl_pref_name>
None

> <i_lp_mmshare_version>
53161

> <i_f3d_flags>
0

> <r_lp_tautomer_probability>
0.999999572927183

> <s_lp_Force_Field>
OPLS_2005

> <r_lp_Energy>
16.914406

> <b_lp_Chiralities_Consistent>
1

> <s_lp_Variant>
CHEMBL3650_lig2980-1

> <s_i_glide_gridfile>
glide-grid_3c4f

> <i_i_glide_lignum>
3776

> <i_i_glide_rotatable_bonds>
2

> <r_i_docking_score>
-6.83263611993807

> <r_i_glide_ligand_efficiency>
-0.310574369088094

> <r_i_glide_ligand_efficiency_sa>
-0.870241596381671

> <r_i_glide_ligand_efficiency_ln>
-1.67014549417085

> <r_i_glide_gscore>
-6.83263611993807

> <r_i_glide_lipo>
-2.96503952247178

> <r_i_glide_hbond>
-0.32

> <r_i_glide_metal>
0

> <r_i_glide_rewards>
-1.81360436772606

> <r_i_glide_evdw>
-30.5935916900635

> <r_i_glide_ecoul>
-2.3621928691864

> <r_i_glide_erotb>
0.150016285140898

> <r_i_glide_esite>
0

> <r_i_glide_emodel>
-35.4729315711665

> <r_i_glide_energy>
-32.9557845592499

> <r_i_glide_einternal>
9.80751132965088

> <i_i_glide_confnum>
2

> <i_i_glide_posenum>
131

> <r_i_glide_eff_state_penalty>
0

> <s_user_duplicate_titles>
CHEMBL3650_lig2980

> <s_m_subgroup_title>
dock_pv

> <s_m_subgroupid>
dock_pv

> <b_m_subgroup_collapsed>
1

$$$$
CHEMBL3650_lig452
                    3D
 Schrodinger Suite 2021-1.
 41 45  0  0  1  0            999 V2000
    8.2455    4.9675   21.4530 C   0  0  0  0  0  0
    8.2765    3.8245   22.2484 C   0  0  0  0  0  0
    7.5282    2.6990   21.9136 C   0  0  0  0  0  0
    7.5249    5.0157   20.2660 C   0  0  0  0  0  0
    6.7898    3.8880   19.8883 C   0  0  0  0  0  0
    6.7697    2.7327   20.7340 C   0  0  0  0  0  0
    5.9712    1.7396   20.2419 N   0  0  0  0  0  0
    5.5642    2.2480   19.0705 N   0  0  0  0  0  0
    5.9712    3.5307   18.7890 C   0  0  0  0  0  0
    5.4702    4.2359   17.6431 C   0  0  0  0  0  0
    4.3707    5.0422   17.7794 N   0  0  0  0  0  0
    5.7713    3.9754   16.3944 N   0  0  0  0  0  0
    4.7413    4.5268   15.6632 C   0  0  0  0  0  0
    3.8012    5.1370   16.5331 C   0  0  0  0  0  0
    2.5346    5.5365   16.0976 C   0  0  0  0  0  0
    2.2995    5.5370   14.7348 C   0  0  0  0  0  0
    3.2600    5.0919   13.8527 C   0  0  0  0  0  0
    4.4309    4.4729   14.2862 C   0  0  0  0  0  0
    5.1533    3.7477   13.3669 N   0  0  0  0  0  0
    5.5708    4.2943   12.0809 C   0  0  0  0  0  0
    5.4215    3.2949   10.9206 C   0  0  0  0  0  0
    6.0279    2.0627   11.2474 O   0  0  0  0  0  0
    5.5810    1.5371   12.4884 C   0  0  0  0  0  0
    5.8340    2.4964   13.6574 C   0  0  0  0  0  0
    8.7710    5.8498   21.7696 H   0  0  0  0  0  0
    8.8590    3.8244   23.1580 H   0  0  0  0  0  0
    7.5388    1.8237   22.5472 H   0  0  0  0  0  0
    7.5306    5.9045   19.6522 H   0  0  0  0  0  0
    4.9427    1.7221   18.4727 H   0  0  0  0  0  0
    3.9789    5.2953   18.6735 H   0  0  0  0  0  0
    1.7606    5.8541   16.7820 H   0  0  0  0  0  0
    1.3598    5.9092   14.3530 H   0  0  0  0  0  0
    3.0436    5.1370   12.7964 H   0  0  0  0  0  0
    4.9733    5.1369   11.7853 H   0  0  0  0  0  0
    6.5753    4.6769   12.2529 H   0  0  0  0  0  0
    5.8971    3.6961   10.0258 H   0  0  0  0  0  0
    4.3713    3.1433   10.6675 H   0  0  0  0  0  0
    6.1543    0.6305   12.6530 H   0  0  0  0  0  0
    4.5339    1.2341   12.4332 H   0  0  0  0  0  0
    6.8913    2.6733   13.8533 H   0  0  0  0  0  0
    5.4137    2.0462   14.5550 H   0  0  0  0  0  0
  1  2  1  0  0  0
  1  4  2  0  0  0
  1 25  1  0  0  0
  2  3  2  0  0  0
  2 26  1  0  0  0
  3  6  1  0  0  0
  3 27  1  0  0  0
  4  5  1  0  0  0
  4 28  1  0  0  0
  5  9  2  0  0  0
  5  6  1  0  0  0
  6  7  2  0  0  0
  7  8  1  0  0  0
  8  9  1  0  0  0
  8 29  1  0  0  0
  9 10  1  0  0  0
 10 12  2  0  0  0
 10 11  1  0  0  0
 11 14  1  0  0  0
 11 30  1  0  0  0
 12 13  1  0  0  0
 13 14  2  0  0  0
 13 18  1  0  0  0
 14 15  1  0  0  0
 15 16  2  0  0  0
 15 31  1  0  0  0
 16 17  1  0  0  0
 16 32  1  0  0  0
 17 18  2  0  0  0
 17 33  1  0  0  0
 18 19  1  0  0  0
 19 20  1  0  0  0
 19 24  1  0  0  0
 20 21  1  0  0  0
 20 34  1  0  0  0
 20 35  1  0  0  0
 21 22  1  0  0  0
 21 36  1  0  0  0
 21 37  1  0  0  0
 22 23  1  0  0  0
 23 24  1  0  0  0
 23 38  1  0  0  0
 23 39  1  0  0  0
 24 40  1  0  0  0
 24 41  1  0  0  0
M  END
> <s_m_entry_id>
49625

> <s_m_entry_name>
dock_pv.215

> <s_m_Source_Path>
/home/csk/Desktop/cluster/DUD-E-result/fgfr1

> <s_m_Source_File>
dock_pv.maegz

> <i_m_Source_File_Index>
215

> <chembl_id>
CHEMBL211708

> <chembl_pref_name>
None

> <i_lp_mmshare_version>
53161

> <i_f3d_flags>
0

> <r_lp_tautomer_probability>
0.0196078431372549

> <s_lp_Force_Field>
OPLS_2005

> <r_lp_Energy>
47.077467

> <b_lp_Chiralities_Consistent>
1

> <s_lp_Variant>
CHEMBL3650_lig452-2

> <s_i_glide_gridfile>
glide-grid_3c4f

> <i_i_glide_lignum>
506

> <i_i_glide_rotatable_bonds>
2

> <r_i_docking_score>
-6.82898289985912

> <r_i_glide_ligand_efficiency>
-0.284540954160797

> <r_i_glide_ligand_efficiency_sa>
-0.820758136877067

> <r_i_glide_ligand_efficiency_ln>
-1.63448896954265

> <r_i_glide_gscore>
-6.82898289985912

> <r_i_glide_lipo>
-3.33981970340679

> <r_i_glide_hbond>
-0.0473898665014637

> <r_i_glide_metal>
0

> <r_i_glide_rewards>
-2.1968431276692

> <r_i_glide_evdw>
-29.8805637359619

> <r_i_glide_ecoul>
-0.778483510017395

> <r_i_glide_erotb>
0.365870511019035

> <r_i_glide_esite>
0

> <r_i_glide_emodel>
-27.962720262674

> <r_i_glide_energy>
-30.6590472459793

> <r_i_glide_einternal>
7.01890516281128

> <i_i_glide_confnum>
1

> <i_i_glide_posenum>
119

> <r_i_glide_eff_state_penalty>
0

> <s_user_duplicate_titles>
CHEMBL3650_lig452

> <s_m_subgroup_title>
dock_pv

> <s_m_subgroupid>
dock_pv

> <b_m_subgroup_collapsed>
1

$$$$
CHEMBL3650_lig3024
                    3D
 Schrodinger Suite 2021-1.
 17 19  0  0  1  0            999 V2000
    5.1745    3.5455   16.1441 Cl  0  0  0  0  0  0
    7.7185    3.5711   21.4124 N   0  0  0  0  0  0
    8.7055    4.3640   21.9047 N   0  0  0  0  0  0
    6.6349    1.5370   21.9948 N   0  0  0  0  0  0
    5.9712    1.5705   20.8198 N   0  0  0  0  0  0
    8.3673    2.6109   23.3377 N   0  0  0  0  0  0
    9.1077    3.7536   23.0854 N   0  0  0  0  0  0
    7.0258    3.6722   20.2620 C   0  0  0  0  0  0
    7.5311    2.4899   22.2814 C   0  0  0  0  0  0
    6.1663    2.5923   19.9346 C   0  0  0  0  0  0
    7.1717    4.7614   19.3773 C   0  0  0  0  0  0
    5.5710    2.5682   18.6528 C   0  0  0  0  0  0
    5.8018    3.6134   17.7516 C   0  0  0  0  0  0
    6.5616    4.7173   18.1280 C   0  0  0  0  0  0
    7.7699    5.6056   19.6706 H   0  0  0  0  0  0
    4.9871    1.7076   18.3728 H   0  0  0  0  0  0
    6.7058    5.5315   17.4318 H   0  0  0  0  0  0
  1 13  1  0  0  0
  2  3  1  0  0  0
  2  8  1  0  0  0
  2  9  1  0  0  0
  3  7  2  0  0  0
  4  5  2  0  0  0
  4  9  1  0  0  0
  5 10  1  0  0  0
  6  7  1  0  0  0
  6  9  2  0  0  0
  8 10  1  0  0  0
  8 11  2  0  0  0
 10 12  2  0  0  0
 11 14  1  0  0  0
 11 15  1  0  0  0
 12 13  1  0  0  0
 12 16  1  0  0  0
 13 14  2  0  0  0
 14 17  1  0  0  0
M  END
> <s_m_entry_id>
49626

> <s_m_entry_name>
dock_pv.216

> <s_m_Source_Path>
/home/csk/Desktop/cluster/DUD-E-result/fgfr1

> <s_m_Source_File>
dock_pv.maegz

> <i_m_Source_File_Index>
216

> <chembl_id>
CHEMBL1986503

> <chembl_pref_name>
None

> <i_lp_mmshare_version>
53161

> <i_f3d_flags>
0

> <r_lp_tautomer_probability>
1

> <s_lp_Force_Field>
OPLS_2005

> <r_lp_Energy>
31.152247

> <b_lp_Chiralities_Consistent>
1

> <s_lp_Variant>
CHEMBL3650_lig3024-1

> <s_i_glide_gridfile>
glide-grid_3c4f

> <i_i_glide_lignum>
3837

> <i_i_glide_rotatable_bonds>
0

> <r_i_docking_score>
-6.81863885639987

> <r_i_glide_ligand_efficiency>
-0.487045632599991

> <r_i_glide_ligand_efficiency_sa>
-1.17384926267858

> <r_i_glide_ligand_efficiency_ln>
-1.87373768500668

> <r_i_glide_gscore>
-6.81863885639987

> <r_i_glide_lipo>
-1.73330818721442

> <r_i_glide_hbond>
0

> <r_i_glide_metal>
0

> <r_i_glide_rewards>
-3.39566490461522

> <r_i_glide_evdw>
-28.4712429046631

> <r_i_glide_ecoul>
-1.77402412891388

> <r_i_glide_erotb>
0

> <r_i_glide_esite>
0

> <r_i_glide_emodel>
-39.8772761676788

> <r_i_glide_energy>
-30.245267033577

> <r_i_glide_einternal>
0

> <i_i_glide_confnum>
1

> <i_i_glide_posenum>
247

> <r_i_glide_eff_state_penalty>
0

> <s_user_duplicate_titles>
CHEMBL3650_lig3024

> <s_m_subgroup_title>
dock_pv

> <s_m_subgroupid>
dock_pv

> <b_m_subgroup_collapsed>
1

$$$$
CHEMBL3650_lig2730
                    3D
 Schrodinger Suite 2021-1.
 17 18  0  0  1  0            999 V2000
    6.5196    3.4004   18.0498 C   0  0  0  0  0  0
    5.4920    4.1763   18.5785 C   0  0  0  0  0  0
    4.5977    4.8250   17.7284 C   0  0  0  0  0  0
    6.6502    3.2328   16.6705 C   0  0  0  0  0  0
    5.7466    3.8805   15.8239 C   0  0  0  0  0  0
    4.7659    4.7370   16.3418 C   0  0  0  0  0  0
    3.8375    5.3830   15.5043 N   0  0  0  0  0  0
    3.8369    5.1370   14.2530 C   0  0  0  0  0  0
    4.7297    4.2650   13.7013 N   0  0  0  0  0  0
    5.6918    3.5667   14.3453 C   0  0  0  0  0  0
    6.3710    2.7370   13.7486 O   0  0  0  0  0  0
    3.1710    5.5370   18.3944 Cl  0  0  0  0  0  0
    7.1710    2.8747   18.7278 H   0  0  0  0  0  0
    5.3587    4.2254   19.6490 H   0  0  0  0  0  0
    7.4045    2.5650   16.2780 H   0  0  0  0  0  0
    3.1335    5.6211   13.5801 H   0  0  0  0  0  0
    4.7103    4.1213   12.7051 H   0  0  0  0  0  0
  1  2  2  0  0  0
  1  4  1  0  0  0
  1 13  1  0  0  0
  2  3  1  0  0  0
  2 14  1  0  0  0
  3  6  2  0  0  0
  3 12  1  0  0  0
  4  5  2  0  0  0
  4 15  1  0  0  0
  5 10  1  0  0  0
  5  6  1  0  0  0
  6  7  1  0  0  0
  7  8  2  0  0  0
  8  9  1  0  0  0
  8 16  1  0  0  0
  9 10  1  0  0  0
  9 17  1  0  0  0
 10 11  2  0  0  0
M  END
> <s_m_entry_id>
49628

> <s_m_entry_name>
dock_pv.218

> <s_m_Source_Path>
/home/csk/Desktop/cluster/DUD-E-result/fgfr1

> <s_m_Source_File>
dock_pv.maegz

> <i_m_Source_File_Index>
218

> <chembl_id>
CHEMBL1949855

> <chembl_pref_name>
None

> <i_lp_mmshare_version>
53161

> <i_f3d_flags>
0

> <r_lp_tautomer_probability>
0.883938

> <s_lp_Force_Field>
OPLS_2005

> <r_lp_Energy>
13.520812

> <b_lp_Chiralities_Consistent>
1

> <s_lp_Variant>
CHEMBL3650_lig2730-1

> <s_i_glide_gridfile>
glide-grid_3c4f

> <i_i_glide_lignum>
3392

> <i_i_glide_rotatable_bonds>
0

> <r_i_docking_score>
-6.81546091240556

> <r_i_glide_ligand_efficiency>
-0.567955076033797

> <r_i_glide_ligand_efficiency_sa>
-1.30029252825566

> <r_i_glide_ligand_efficiency_ln>
-1.95570831511948

> <r_i_glide_gscore>
-6.81546091240556

> <r_i_glide_lipo>
-1.36297588528798

> <r_i_glide_hbond>
-0.32

> <r_i_glide_metal>
0

> <r_i_glide_rewards>
-3.17157319207146

> <r_i_glide_evdw>
-21.3877716064453

> <r_i_glide_ecoul>
-5.20631837844849

> <r_i_glide_erotb>
0

> <r_i_glide_esite>
-0.110575497956584

> <r_i_glide_emodel>
-35.980077387681

> <r_i_glide_energy>
-26.5940899848938

> <r_i_glide_einternal>
0

> <i_i_glide_confnum>
1

> <i_i_glide_posenum>
139

> <r_i_glide_eff_state_penalty>
0

> <s_user_duplicate_titles>
CHEMBL3650_lig2730

> <s_m_subgroup_title>
dock_pv

> <s_m_subgroupid>
dock_pv

> <b_m_subgroup_collapsed>
1

$$$$
490104
                    3D
 Schrodinger Suite 2021-1.
 39 41  0  0  1  0            999 V2000
    8.2888    3.7846   20.4518 C   0  0  0  0  0  0
    9.0895    3.5373   21.5662 C   0  0  0  0  0  0
    8.6162    2.7377   22.5987 C   0  0  0  0  0  0
    7.3103    2.2496   22.5266 C   0  0  0  0  0  0
    6.5178    2.4797   21.4108 C   0  0  0  0  0  0
    6.9945    3.2379   20.3464 C   0  0  0  0  0  0
    6.0668    3.3938   19.1212 C   0  0  0  0  0  0
    6.2872    4.5944   18.1437 C   0  0  1  0  0  0
    7.3280    4.2387   17.0527 C   0  0  0  0  0  0
    6.7593    3.2530   16.1883 O   0  0  0  0  0  0
    5.6827    3.7435   15.4762 C   0  0  0  0  0  0
    4.7727    4.6529   16.0368 C   0  0  0  0  0  0
    3.7608    5.1549   15.2113 C   0  0  0  0  0  0
    3.7246    4.8456   13.8539 C   0  0  0  0  0  0
    4.6702    3.9832   13.3060 C   0  0  0  0  0  0
    5.5704    3.3372   14.1468 C   0  0  0  0  0  0
    6.3710    2.3370   13.6785 O   0  0  0  0  0  0
    4.7694    3.8586   11.9436 O   0  0  0  0  0  0
    4.9926    5.1717   17.4541 C   0  0  1  0  0  0
    3.8204    5.1377   18.2529 O   0  0  0  0  0  0
    6.7822    5.6361   18.9385 O   0  0  0  0  0  0
    6.7711    1.5367   23.5441 O   0  0  0  0  0  0
    9.4481    2.4194   23.6449 O   0  0  0  0  0  0
    5.1527    6.2384   17.2824 H   0  0  0  0  0  0
    8.7432    4.3369   19.6447 H   0  0  0  0  0  0
   10.0954    3.9278   21.6058 H   0  0  0  0  0  0
    5.5317    2.0439   21.3646 H   0  0  0  0  0  0
    6.0721    2.4539   18.5673 H   0  0  0  0  0  0
    5.0598    3.4575   19.5256 H   0  0  0  0  0  0
    7.5821    5.1284   16.4688 H   0  0  0  0  0  0
    8.2619    3.8568   17.4569 H   0  0  0  0  0  0
    3.0528    5.8695   15.6045 H   0  0  0  0  0  0
    3.0107    5.3452   13.2162 H   0  0  0  0  0  0
    6.9038    2.0041   14.4046 H   0  0  0  0  0  0
    4.3715    4.6174   11.5072 H   0  0  0  0  0  0
    3.9703    5.6971   19.0194 H   0  0  0  0  0  0
    7.2923    5.2446   19.6538 H   0  0  0  0  0  0
    7.4329    1.0528   24.0555 H   0  0  0  0  0  0
    9.3361    1.5157   23.9604 H   0  0  0  0  0  0
  1  6  1  0  0  0
  1  2  2  0  0  0
  1 25  1  0  0  0
  2  3  1  0  0  0
  2 26  1  0  0  0
  3  4  2  0  0  0
  3 23  1  0  0  0
  4  5  1  0  0  0
  4 22  1  0  0  0
  5  6  2  0  0  0
  5 27  1  0  0  0
  6  7  1  0  0  0
  7  8  1  0  0  0
  7 28  1  0  0  0
  7 29  1  0  0  0
  8 19  1  0  0  0
  8  9  1  0  0  0
  8 21  1  0  0  0
  9 10  1  0  0  0
  9 30  1  0  0  0
  9 31  1  0  0  0
 10 11  1  0  0  0
 11 16  2  0  0  0
 11 12  1  0  0  0
 12 13  2  0  0  0
 12 19  1  0  0  0
 13 14  1  0  0  0
 13 32  1  0  0  0
 14 15  2  0  0  0
 14 33  1  0  0  0
 15 16  1  0  0  0
 15 18  1  0  0  0
 16 17  1  0  0  0
 17 34  1  0  0  0
 18 35  1  0  0  0
 19 24  1  0  0  0
 19 20  1  0  0  0
 20 36  1  0  0  0
 21 37  1  0  0  0
 22 38  1  0  0  0
 23 39  1  0  0  0
M  END
> <s_m_entry_id>
50332

> <s_m_entry_name>
ligand_docking-pose.15

> <s_m_Source_Path>
/home/csk/Desktop/cluster/DUD-E-result/fgfr1

> <s_m_Source_File>
ligand_docking-pose.sdf

> <i_m_Source_File_Index>
15

> <i_lp_mmshare_version>
53161

> <r_lp_tautomer_probability>
0.999999999957237

> <s_lp_Force_Field>
OPLS_2005

> <r_lp_Energy>
19.957508

> <b_lp_Chiralities_Consistent>
1

> <s_lp_Variant>
490104-1

> <s_i_glide_gridfile>
glide-grid_3c4f

> <i_i_glide_lignum>
46

> <i_i_glide_rotatable_bonds>
8

> <r_i_docking_score>
-8.08153850834168

> <r_i_glide_ligand_efficiency>
-0.351371239493117

> <r_i_glide_ligand_efficiency_sa>
-0.999253064619607

> <r_i_glide_ligand_efficiency_ln>
-1.95418929065675

> <r_i_glide_gscore>
-8.08153850834168

> <r_i_glide_lipo>
-2.83602121678923

> <r_i_glide_hbond>
0

> <r_i_glide_metal>
0

> <r_i_glide_rewards>
-2.46536050458223

> <r_i_glide_evdw>
-28.4533462524414

> <r_i_glide_ecoul>
-10.7485675811768

> <r_i_glide_erotb>
0.254795662828365

> <r_i_glide_esite>
0

> <r_i_glide_emodel>
-42.9885418808962

> <r_i_glide_energy>
-39.2019138336182

> <r_i_glide_einternal>
9.03914070129395

> <i_i_glide_confnum>
16

> <i_i_glide_posenum>
112

> <r_i_glide_eff_state_penalty>
0

> <i_f3d_flags>
0

> <s_user_duplicate_titles>
490104

> <s_m_subgroup_title>
dock_pv

> <s_m_subgroupid>
dock_pv1

> <b_m_subgroup_collapsed>
0

$$$$
74867
                    3D
 Schrodinger Suite 2021-1.
 39 41  0  0  1  0            999 V2000
    2.9600    5.4465   16.0733 C   0  0  0  0  0  0
    4.3487    5.0305   16.3672 N   0  0  0  0  0  0
    5.0205    4.4425   15.2681 C   0  0  0  0  0  0
    6.0453    3.5368   15.5285 C   0  0  0  0  0  0
    6.5519    3.4291   16.8975 C   0  0  0  0  0  0
    5.9456    4.0893   17.9101 C   0  0  0  0  0  0
    4.6947    4.8324   17.6879 C   0  0  0  0  0  0
    3.9401    5.1370   18.6119 O   0  0  0  0  0  0
    6.4860    3.9362   19.2805 C   0  0  0  0  0  0
    7.5500    4.7255   19.7391 C   0  0  0  0  0  0
    8.0939    4.5155   21.0114 C   0  0  0  0  0  0
    7.4895    3.6185   21.8526 C   0  0  0  0  0  0
    6.4609    2.7900   21.4246 C   0  0  0  0  0  0
    5.9675    2.9511   20.1314 C   0  0  0  0  0  0
    5.9710    1.8002   22.2408 O   0  0  0  0  0  0
    6.7710    1.5171   23.3826 C   0  0  0  0  0  0
    9.2326    5.1370   21.4530 O   0  0  0  0  0  0
   10.1813    4.3370   22.1800 C   0  0  0  0  0  0
    6.4225    2.7203   14.4737 C   0  0  0  0  0  0
    5.9710    2.8891   13.2036 N   0  0  0  0  0  0
    5.1366    3.9370   13.0227 C   0  0  0  0  0  0
    4.5932    4.6967   13.9997 N   0  0  0  0  0  0
    4.8886    4.3370   11.7249 N   0  0  0  0  0  0
    2.3163    5.5378   16.9485 H   0  0  0  0  0  0
    2.9415    6.3371   15.4564 H   0  0  0  0  0  0
    2.4733    4.6904   15.4608 H   0  0  0  0  0  0
    7.4484    2.8549   17.0871 H   0  0  0  0  0  0
    7.9710    5.4655   19.0804 H   0  0  0  0  0  0
    7.8950    3.5527   22.8458 H   0  0  0  0  0  0
    5.1708    2.3052   19.7901 H   0  0  0  0  0  0
    6.3710    0.6788   23.9002 H   0  0  0  0  0  0
    7.7812    1.2603   23.0537 H   0  0  0  0  0  0
    6.7888    2.3218   24.1182 H   0  0  0  0  0  0
   11.1852    4.7353   22.0373 H   0  0  0  0  0  0
    9.9701    4.3518   23.2496 H   0  0  0  0  0  0
   10.2070    3.2961   21.8529 H   0  0  0  0  0  0
    7.1382    1.9370   14.6530 H   0  0  0  0  0  0
    4.6082    5.3214   11.6733 H   0  0  0  0  0  0
    5.4159    3.9031   10.9891 H   0  0  0  0  0  0
  1  2  1  0  0  0
  1 24  1  0  0  0
  1 25  1  0  0  0
  1 26  1  0  0  0
  2  7  1  0  0  0
  2  3  1  0  0  0
  3 22  2  0  0  0
  3  4  1  0  0  0
  4  5  1  0  0  0
  4 19  2  0  0  0
  5  6  2  0  0  0
  5 27  1  0  0  0
  6  7  1  0  0  0
  6  9  1  0  0  0
  7  8  2  0  0  0
  9 14  1  0  0  0
  9 10  2  0  0  0
 10 11  1  0  0  0
 10 28  1  0  0  0
 11 12  2  0  0  0
 11 17  1  0  0  0
 12 13  1  0  0  0
 12 29  1  0  0  0
 13 14  2  0  0  0
 13 15  1  0  0  0
 14 30  1  0  0  0
 15 16  1  0  0  0
 16 31  1  0  0  0
 16 32  1  0  0  0
 16 33  1  0  0  0
 17 18  1  0  0  0
 18 34  1  0  0  0
 18 35  1  0  0  0
 18 36  1  0  0  0
 19 20  1  0  0  0
 19 37  1  0  0  0
 20 21  2  0  0  0
 21 22  1  0  0  0
 21 23  1  0  0  0
 23 38  1  0  0  0
 23 39  1  0  0  0
M  END
> <s_m_entry_id>
50333

> <s_m_entry_name>
ligand_docking-pose.16

> <s_m_Source_Path>
/home/csk/Desktop/cluster/DUD-E-result/fgfr1

> <s_m_Source_File>
ligand_docking-pose.sdf

> <i_m_Source_File_Index>
16

> <i_lp_mmshare_version>
53161

> <r_lp_tautomer_probability>
1

> <s_lp_Force_Field>
OPLS_2005

> <r_lp_Energy>
31.112871

> <b_lp_Chiralities_Consistent>
1

> <s_lp_Variant>
74867-1

> <s_i_glide_gridfile>
glide-grid_3c4f

> <i_i_glide_lignum>
266

> <i_i_glide_rotatable_bonds>
3

> <r_i_docking_score>
-7.94180997080866

> <r_i_glide_ligand_efficiency>
-0.345296085687333

> <r_i_glide_ligand_efficiency_sa>
-0.981976135331876

> <r_i_glide_ligand_efficiency_ln>
-1.92040166329294

> <r_i_glide_gscore>
-7.94180997080866

> <r_i_glide_lipo>
-2.9074720146001

> <r_i_glide_hbond>
-0.649065718231116

> <r_i_glide_metal>
0

> <r_i_glide_rewards>
-2.51964723232114

> <r_i_glide_evdw>
-25.324254989624

> <r_i_glide_ecoul>
-4.40957069396973

> <r_i_glide_erotb>
0.190249694987499

> <r_i_glide_esite>
-0.128226347067143

> <r_i_glide_emodel>
-30.5824701114883

> <r_i_glide_energy>
-29.7338256835938

> <r_i_glide_einternal>
11.0789928436279

> <i_i_glide_confnum>
3

> <i_i_glide_posenum>
51

> <r_i_glide_eff_state_penalty>
0

> <i_f3d_flags>
0

> <s_user_duplicate_titles>
74867

> <s_m_subgroup_title>
dock_pv

> <s_m_subgroupid>
dock_pv1

> <b_m_subgroup_collapsed>
0

$$$$
