CHEMBL2107_lig159
                    3D
 Schrodinger Suite 2021-1.
 97100  0  0  1  0            999 V2000
   18.7496   -9.5897   69.1583 N   0  0  0  0  0  0
   17.9383   -8.5319   69.3323 C   0  0  0  0  0  0
   19.8017  -10.0301   69.8906 C   0  0  0  0  0  0
   20.1049  -10.2548   72.2603 N   0  0  0  0  0  0
   14.3065   -8.4444   70.7232 N   0  0  0  0  0  0
   16.6618   -9.9357   73.1568 N   0  0  0  0  0  0
   14.3138   -8.2733   69.3874 C   0  0  0  0  0  0
   19.0473  -10.3643   73.0884 C   0  0  0  0  0  0
   15.5407   -9.6537   72.4630 C   0  0  0  0  0  0
   16.7459   -8.7547   68.7573 N   0  0  0  0  0  0
   20.3450   -9.3093   71.1601 C   0  0  1  0  0  0
   15.5828   -7.8674   68.5893 C   0  0  2  0  0  0
   22.3681   -8.5820   74.8433 C   0  0  0  0  0  0
   11.4010   -8.3786   74.8126 C   0  0  0  0  0  0
   17.9652   -9.2623   73.1550 C   0  0  2  0  0  0
   15.3749   -8.3142   71.7129 C   0  0  2  0  0  0
   23.0578   -9.8000   74.7560 N   0  0  0  0  0  0
   11.4560   -9.2464   73.9029 N   0  0  0  0  0  0
   18.1954   -7.5071   69.9585 O   0  0  0  0  0  0
   21.8552   -8.9492   71.0486 C   0  0  0  0  0  0
   20.3436  -11.0845   69.5545 O   0  0  0  0  0  0
   13.2720   -8.4371   68.7568 O   0  0  0  0  0  0
   14.6147  -10.4642   72.4105 O   0  0  0  0  0  0
   18.9296  -11.3374   73.8326 O   0  0  0  0  0  0
   15.9287   -6.3552   68.6586 C   0  0  0  0  0  0
   21.6567   -6.4852   68.1133 C   0  0  0  0  0  0
   22.2656   -8.0276   69.8984 C   0  0  0  0  0  0
   21.3564   -7.1532   69.3121 C   0  0  0  0  0  0
   21.1693   -8.5338   75.2622 N   0  0  0  0  0  0
   12.5020   -7.7135   75.3325 N   0  0  0  0  0  0
   22.9752   -6.5884   67.5792 C   0  0  0  0  0  0
   10.2237   -7.9570   75.4015 N   0  0  0  0  0  0
   23.1607   -7.5220   74.3572 N   0  0  0  0  0  0
   23.9360   -7.3703   68.2627 C   0  0  0  0  0  0
   14.9021   -5.4294   68.0441 C   0  0  0  0  0  0
   23.5618   -8.0901   69.3935 C   0  0  0  0  0  0
   13.0555   -3.6573   66.8978 C   0  0  0  0  0  0
   14.8815   -5.2441   66.6468 C   0  0  0  0  0  0
   13.9780   -4.7530   68.8654 C   0  0  0  0  0  0
   13.9595   -4.3518   66.0713 C   0  0  0  0  0  0
   13.0561   -3.8628   68.2881 C   0  0  0  0  0  0
   12.1946   -2.7555   66.3571 O   0  0  0  0  0  0
   18.1977   -8.4056   74.4224 C   0  0  0  0  0  0
   15.1299   -7.0717   72.6085 C   0  0  0  0  0  0
   20.6647   -5.7600   67.4134 C   0  0  0  0  0  0
   20.4140   -7.2911   75.2958 C   0  0  0  0  0  0
   13.8286   -7.7196   74.7490 C   0  0  0  0  0  0
   23.2649   -5.9310   66.3666 C   0  0  0  0  0  0
   19.2969   -7.3246   74.2358 C   0  0  0  0  0  0
   13.8037   -7.0075   73.3867 C   0  0  0  0  0  0
   20.9772   -5.1525   66.2056 C   0  0  0  0  0  0
   22.2710   -5.2208   65.7018 C   0  0  0  0  0  0
   18.4369  -10.2383   68.4434 H   0  0  0  0  0  0
   20.7542  -11.0252   72.2875 H   0  0  0  0  0  0
   13.4424   -8.7766   71.1306 H   0  0  0  0  0  0
   16.6626  -10.7990   73.6843 H   0  0  0  0  0  0
   16.6571   -9.6297   68.2379 H   0  0  0  0  0  0
   19.8399   -8.3762   71.3572 H   0  0  0  0  0  0
   15.3318   -8.0616   67.5466 H   0  0  0  0  0  0
   18.0074   -8.6195   72.2872 H   0  0  0  0  0  0
   16.2883   -8.1050   71.2040 H   0  0  0  0  0  0
   22.4854  -10.6182   74.8856 H   0  0  0  0  0  0
   23.6635   -9.9093   73.9514 H   0  0  0  0  0  0
   10.5232   -9.5498   73.5953 H   0  0  0  0  0  0
   22.4175   -9.8796   70.9412 H   0  0  0  0  0  0
   22.2095   -8.4923   71.9688 H   0  0  0  0  0  0
   16.8669   -6.1651   68.1308 H   0  0  0  0  0  0
   16.1073   -6.0445   69.6888 H   0  0  0  0  0  0
   20.3871   -7.0077   69.7359 H   0  0  0  0  0  0
   12.3249   -6.9777   76.0009 H   0  0  0  0  0  0
    9.4011   -8.3122   74.9280 H   0  0  0  0  0  0
   10.1307   -6.9552   75.4704 H   0  0  0  0  0  0
   22.6721   -6.6751   74.0980 H   0  0  0  0  0  0
   23.8345   -7.7570   73.6411 H   0  0  0  0  0  0
   24.9407   -7.4529   67.8685 H   0  0  0  0  0  0
   24.2859   -8.7196   69.8899 H   0  0  0  0  0  0
   15.5755   -5.7801   66.0148 H   0  0  0  0  0  0
   13.9787   -4.9160   69.9324 H   0  0  0  0  0  0
   13.9567   -4.2052   65.0033 H   0  0  0  0  0  0
   12.3474   -3.3390   68.9143 H   0  0  0  0  0  0
   12.3688   -2.5745   65.4255 H   0  0  0  0  0  0
   18.4525   -9.0577   75.2607 H   0  0  0  0  0  0
   17.2710   -7.9313   74.7429 H   0  0  0  0  0  0
   15.1595   -6.1998   71.9509 H   0  0  0  0  0  0
   15.9596   -6.9159   73.2942 H   0  0  0  0  0  0
   19.6625   -5.7003   67.8090 H   0  0  0  0  0  0
   21.0297   -6.4032   75.1220 H   0  0  0  0  0  0
   19.9902   -7.1606   76.2920 H   0  0  0  0  0  0
   14.1531   -8.7534   74.6615 H   0  0  0  0  0  0
   14.5297   -7.2237   75.4248 H   0  0  0  0  0  0
   24.2573   -6.0002   65.9471 H   0  0  0  0  0  0
   19.7753   -7.3997   73.2653 H   0  0  0  0  0  0
   18.8054   -6.3549   74.1992 H   0  0  0  0  0  0
   13.5547   -5.9578   73.5577 H   0  0  0  0  0  0
   12.9961   -7.3985   72.7670 H   0  0  0  0  0  0
   20.2194   -4.6095   65.6604 H   0  0  0  0  0  0
   22.4983   -4.7547   64.7585 H   0  0  0  0  0  0
  1  2  1  0  0  0
  1  3  1  0  0  0
  1 53  1  0  0  0
  2 10  1  0  0  0
  2 19  2  0  0  0
  3 11  1  0  0  0
  3 21  2  0  0  0
  4 11  1  0  0  0
  4  8  1  0  0  0
  4 54  1  0  0  0
  5  7  1  0  0  0
  5 16  1  0  0  0
  5 55  1  0  0  0
  6 15  1  0  0  0
  6  9  1  0  0  0
  6 56  1  0  0  0
  7 12  1  0  0  0
  7 22  2  0  0  0
  8 15  1  0  0  0
  8 24  2  0  0  0
  9 23  2  0  0  0
  9 16  1  0  0  0
 10 12  1  0  0  0
 10 57  1  0  0  0
 11 20  1  0  0  0
 11 58  1  0  0  0
 12 25  1  0  0  0
 12 59  1  0  0  0
 13 29  2  0  0  0
 13 17  1  0  0  0
 13 33  1  0  0  0
 14 30  1  0  0  0
 14 18  2  0  0  0
 14 32  1  0  0  0
 15 43  1  0  0  0
 15 60  1  0  0  0
 16 44  1  0  0  0
 16 61  1  0  0  0
 17 62  1  0  0  0
 17 63  1  0  0  0
 18 64  1  0  0  0
 20 27  1  0  0  0
 20 65  1  0  0  0
 20 66  1  0  0  0
 25 35  1  0  0  0
 25 67  1  0  0  0
 25 68  1  0  0  0
 26 28  2  0  0  0
 26 45  1  0  0  0
 26 31  1  0  0  0
 27 28  1  0  0  0
 27 36  2  0  0  0
 28 69  1  0  0  0
 29 46  1  0  0  0
 30 47  1  0  0  0
 30 70  1  0  0  0
 31 34  2  0  0  0
 31 48  1  0  0  0
 32 71  1  0  0  0
 32 72  1  0  0  0
 33 73  1  0  0  0
 33 74  1  0  0  0
 34 36  1  0  0  0
 34 75  1  0  0  0
 35 38  1  0  0  0
 35 39  2  0  0  0
 36 76  1  0  0  0
 37 41  2  0  0  0
 37 42  1  0  0  0
 37 40  1  0  0  0
 38 40  2  0  0  0
 38 77  1  0  0  0
 39 41  1  0  0  0
 39 78  1  0  0  0
 40 79  1  0  0  0
 41 80  1  0  0  0
 42 81  1  0  0  0
 43 49  1  0  0  0
 43 82  1  0  0  0
 43 83  1  0  0  0
 44 50  1  0  0  0
 44 84  1  0  0  0
 44 85  1  0  0  0
 45 51  2  0  0  0
 45 86  1  0  0  0
 46 49  1  0  0  0
 46 87  1  0  0  0
 46 88  1  0  0  0
 47 50  1  0  0  0
 47 89  1  0  0  0
 47 90  1  0  0  0
 48 52  2  0  0  0
 48 91  1  0  0  0
 49 92  1  0  0  0
 49 93  1  0  0  0
 50 94  1  0  0  0
 50 95  1  0  0  0
 51 52  1  0  0  0
 51 96  1  0  0  0
 52 97  1  0  0  0
M  END
> <s_m_entry_id>
39019

> <s_m_entry_name>
dock_pv.2

> <s_m_Source_Path>
/home/csk/Desktop/cluster/DUD-E-result/cxcr4

> <s_m_Source_File>
dock_pv.maegz

> <i_m_Source_File_Index>
2

> <chembl_id>
CHEMBL370001

> <chembl_pref_name>
None

> <i_lp_mmshare_version>
53161

> <i_f3d_flags>
0

> <r_lp_tautomer_probability>
0.999949999997365

> <s_lp_Force_Field>
OPLS_2005

> <r_lp_Energy>
34.896718

> <b_lp_Chiralities_Consistent>
1

> <s_lp_Variant>
CHEMBL2107_lig159-1

> <s_i_glide_gridfile>
glide-grid_3odu

> <i_i_glide_lignum>
182

> <i_i_glide_rotatable_bonds>
14

> <r_i_docking_score>
-8.81243316945942

> <r_i_glide_ligand_efficiency>
-0.16946986864345

> <r_i_glide_ligand_efficiency_sa>
-0.632548174622914

> <r_i_glide_ligand_efficiency_ln>
-1.77984233262188

> <r_i_glide_gscore>
-8.81243316945942

> <r_i_glide_lipo>
-2.39960753724634

> <r_i_glide_hbond>
-0.803967244400171

> <r_i_glide_metal>
0

> <r_i_glide_rewards>
-0.217158891179722

> <r_i_glide_evdw>
-54.6298904418945

> <r_i_glide_ecoul>
-17.3160190582275

> <r_i_glide_erotb>
0.364339652227072

> <r_i_glide_esite>
-0.427141768031394

> <r_i_glide_emodel>
-108.571909337158

> <r_i_glide_energy>
-71.9459095001221

> <r_i_glide_einternal>
11.1450853347778

> <i_i_glide_confnum>
7

> <i_i_glide_posenum>
162

> <r_i_glide_eff_state_penalty>
0

> <s_user_duplicate_titles>
CHEMBL2107_lig159

> <s_m_subgroup_title>
dock_pv

> <s_m_subgroupid>
dock_pv

> <b_m_subgroup_collapsed>
0

$$$$
CHEMBL2107_lig417
                    3D
 Schrodinger Suite 2021-1.
111113  0  0  1  0            999 V2000
   22.6557  -11.7489   72.3283 N   0  0  0  0  0  0
   21.8217  -12.2385   73.4252 C   0  0  2  0  0  0
   20.5171  -10.2596   73.1500 O   0  0  0  0  0  0
   20.5027  -11.4487   73.4465 C   0  0  0  0  0  0
   22.5855  -12.0849   74.7496 C   0  0  0  0  0  0
   19.3995  -12.1178   73.8195 N   0  0  0  0  0  0
   18.0484  -11.5568   73.9675 C   0  0  1  0  0  0
   18.0226  -10.9482   71.6312 O   0  0  0  0  0  0
   18.0510  -10.4194   75.0149 C   0  0  0  0  0  0
   17.3708  -11.0997   72.6558 C   0  0  0  0  0  0
   16.0405  -10.9127   72.7570 N   0  0  0  0  0  0
   15.0830  -10.2178   71.8726 C   0  0  1  0  0  0
   13.7343   -8.2340   72.0515 O   0  0  0  0  0  0
   14.7184   -8.8423   72.4618 C   0  0  0  0  0  0
   15.5447  -10.0773   70.3925 C   0  0  0  0  0  0
   14.2443   -9.5554   69.2336 S   0  0  0  0  0  0
   13.7116   -4.5502   76.9733 N   0  0  0  0  0  0
   13.1969   -3.2946   77.2803 C   0  0  0  0  0  0
   13.7226   -2.2639   76.5153 N   0  0  0  0  0  0
   12.3183   -3.1227   78.1640 N   0  0  0  0  0  0
   15.5574   -8.3588   73.3919 N   0  0  0  0  0  0
   15.7226   -6.9431   73.6681 C   0  0  2  0  0  0
   16.1975   -5.5112   71.8154 O   0  0  0  0  0  0
   16.6454   -6.3493   72.5966 C   0  0  0  0  0  0
   16.2537   -6.7424   75.1081 C   0  0  0  0  0  0
   15.1648   -6.3630   76.1267 C   0  0  0  0  0  0
   14.7154   -4.9002   75.9806 C   0  0  0  0  0  0
   17.8887   -6.8454   72.5364 N   0  0  0  0  0  0
   18.9297   -6.3787   71.6321 C   0  0  2  0  0  0
   19.3334   -8.5792   70.8316 O   0  0  0  0  0  0
   19.1545   -7.4120   70.5144 C   0  0  0  0  0  0
   20.1846   -6.0116   72.4597 C   0  0  0  0  0  0
   19.1540   -7.0473   69.2178 N   0  0  0  0  0  0
   19.1671   -5.7044   68.6173 C   0  0  2  0  0  0
   17.6659   -4.7551   66.9874 O   0  0  0  0  0  0
   17.7630   -5.3232   68.0744 C   0  0  0  0  0  0
   20.2360   -5.6710   67.4890 C   0  0  0  0  0  0
   22.6368   -5.9550   66.7609 C   0  0  0  0  0  0
   21.7012   -5.9608   67.8146 C   0  0  0  0  0  0
   22.1648   -6.3017   69.1069 C   0  0  0  0  0  0
   23.4834   -6.6714   69.3206 C   0  0  0  0  0  0
   24.3705   -6.7081   68.2605 C   0  0  0  0  0  0
   23.9451   -6.3552   66.9896 C   0  0  0  0  0  0
   16.6952   -5.6391   68.8298 N   0  0  0  0  0  0
   15.2891   -5.5548   68.3922 C   0  0  2  0  0  0
   13.8552   -3.6375   68.1531 O   0  0  0  0  0  0
   14.4914   -4.3549   68.8976 C   0  0  0  0  0  0
   14.5533   -6.7908   68.8526 C   0  0  0  0  0  0
   15.0559   -8.2522   67.9701 S   0  0  0  0  0  0
   14.6450   -4.1559   70.2396 O   0  0  0  0  0  0
   20.7660   -6.9409   73.5214 C   0  0  0  0  0  0
   20.0877   -7.1538   74.7395 C   0  0  0  0  0  0
   20.6469   -7.9554   75.7234 C   0  0  0  0  0  0
   21.8913   -8.5365   75.5219 C   0  0  0  0  0  0
   22.5826   -8.3221   74.3384 C   0  0  0  0  0  0
   22.0204   -7.5551   73.3251 C   0  0  0  0  0  0
   22.5422  -12.1789   71.0677 C   0  0  0  0  0  0
   23.3059  -11.3949   70.0054 C   0  0  0  0  0  0
   21.8650  -13.1545   70.7544 O   0  0  0  0  0  0
   23.2015  -10.9113   72.5021 H   0  0  0  0  0  0
   21.5964  -13.2991   73.2842 H   0  0  0  0  0  0
   21.9482  -12.3221   75.6033 H   0  0  0  0  0  0
   23.4439  -12.7528   74.7910 H   0  0  0  0  0  0
   22.9567  -11.0694   74.8809 H   0  0  0  0  0  0
   19.4803  -13.0996   74.0282 H   0  0  0  0  0  0
   17.4534  -12.3792   74.3571 H   0  0  0  0  0  0
   17.0561  -10.0381   75.2360 H   0  0  0  0  0  0
   18.4890  -10.7522   75.9567 H   0  0  0  0  0  0
   18.6230   -9.5592   74.6727 H   0  0  0  0  0  0
   15.6406  -11.1469   73.6630 H   0  0  0  0  0  0
   14.1701  -10.8143   71.8898 H   0  0  0  0  0  0
   15.9371  -11.0226   70.0174 H   0  0  0  0  0  0
   16.3687   -9.3649   70.3219 H   0  0  0  0  0  0
   13.2863   -5.3251   77.4591 H   0  0  0  0  0  0
   13.9479   -1.4369   77.0497 H   0  0  0  0  0  0
   14.5354   -2.5350   75.9789 H   0  0  0  0  0  0
   12.0316   -2.1566   78.2625 H   0  0  0  0  0  0
   16.3226   -8.9509   73.6811 H   0  0  0  0  0  0
   14.7543   -6.4483   73.5709 H   0  0  0  0  0  0
   17.0103   -5.9585   75.1291 H   0  0  0  0  0  0
   16.7707   -7.6380   75.4498 H   0  0  0  0  0  0
   15.5580   -6.5157   77.1330 H   0  0  0  0  0  0
   14.3116   -7.0351   76.0218 H   0  0  0  0  0  0
   14.2957   -4.7125   74.9908 H   0  0  0  0  0  0
   15.5756   -4.2391   76.1015 H   0  0  0  0  0  0
   18.1721   -7.5947   73.1510 H   0  0  0  0  0  0
   18.5870   -5.4464   71.1888 H   0  0  0  0  0  0
   19.8911   -5.1550   73.0337 H   0  0  0  0  0  0
   20.9844   -5.6409   71.8249 H   0  0  0  0  0  0
   19.2624   -7.7973   68.5476 H   0  0  0  0  0  0
   19.4591   -4.9440   69.3426 H   0  0  0  0  0  0
   20.2190   -4.6988   66.9969 H   0  0  0  0  0  0
   19.9449   -6.3812   66.7153 H   0  0  0  0  0  0
   22.3259   -5.6912   65.7616 H   0  0  0  0  0  0
   21.5011   -6.3065   69.9444 H   0  0  0  0  0  0
   23.8130   -6.9539   70.3115 H   0  0  0  0  0  0
   25.3951   -7.0119   68.4250 H   0  0  0  0  0  0
   24.6424   -6.3827   66.1663 H   0  0  0  0  0  0
   16.8562   -6.0857   69.7226 H   0  0  0  0  0  0
   15.2533   -5.5386   67.2981 H   0  0  0  0  0  0
   13.4760   -6.6963   68.7015 H   0  0  0  0  0  0
   14.7023   -6.9490   69.9203 H   0  0  0  0  0  0
   15.2022   -4.7964   70.7142 H   0  0  0  0  0  0
   19.1447   -6.6647   74.9269 H   0  0  0  0  0  0
   20.1184   -8.1157   76.6521 H   0  0  0  0  0  0
   22.3254   -9.1560   76.2942 H   0  0  0  0  0  0
   23.5521   -8.7707   74.1828 H   0  0  0  0  0  0
   22.5654   -7.4107   72.4035 H   0  0  0  0  0  0
   22.7933  -10.4582   69.7895 H   0  0  0  0  0  0
   24.3102  -11.1597   70.3575 H   0  0  0  0  0  0
   23.4007  -11.9580   69.0778 H   0  0  0  0  0  0
  1  2  1  0  0  0
  1 57  1  0  0  0
  1 60  1  0  0  0
  2  4  1  0  0  0
  2  5  1  0  0  0
  2 61  1  0  0  0
  3  4  2  0  0  0
  4  6  1  0  0  0
  5 62  1  0  0  0
  5 63  1  0  0  0
  5 64  1  0  0  0
  6  7  1  0  0  0
  6 65  1  0  0  0
  7 10  1  0  0  0
  7  9  1  0  0  0
  7 66  1  0  0  0
  8 10  2  0  0  0
  9 67  1  0  0  0
  9 68  1  0  0  0
  9 69  1  0  0  0
 10 11  1  0  0  0
 11 12  1  0  0  0
 11 70  1  0  0  0
 12 14  1  0  0  0
 12 15  1  0  0  0
 12 71  1  0  0  0
 13 14  2  0  0  0
 14 21  1  0  0  0
 15 16  1  0  0  0
 15 72  1  0  0  0
 15 73  1  0  0  0
 16 49  1  0  0  0
 17 18  1  0  0  0
 17 27  1  0  0  0
 17 74  1  0  0  0
 18 19  1  0  0  0
 18 20  2  0  0  0
 19 75  1  0  0  0
 19 76  1  0  0  0
 20 77  1  0  0  0
 21 22  1  0  0  0
 21 78  1  0  0  0
 22 24  1  0  0  0
 22 25  1  0  0  0
 22 79  1  0  0  0
 23 24  2  0  0  0
 24 28  1  0  0  0
 25 26  1  0  0  0
 25 80  1  0  0  0
 25 81  1  0  0  0
 26 27  1  0  0  0
 26 82  1  0  0  0
 26 83  1  0  0  0
 27 84  1  0  0  0
 27 85  1  0  0  0
 28 29  1  0  0  0
 28 86  1  0  0  0
 29 31  1  0  0  0
 29 32  1  0  0  0
 29 87  1  0  0  0
 30 31  2  0  0  0
 31 33  1  0  0  0
 32 51  1  0  0  0
 32 88  1  0  0  0
 32 89  1  0  0  0
 33 34  1  0  0  0
 33 90  1  0  0  0
 34 36  1  0  0  0
 34 37  1  0  0  0
 34 91  1  0  0  0
 35 36  2  0  0  0
 36 44  1  0  0  0
 37 39  1  0  0  0
 37 92  1  0  0  0
 37 93  1  0  0  0
 38 39  2  0  0  0
 38 43  1  0  0  0
 38 94  1  0  0  0
 39 40  1  0  0  0
 40 41  2  0  0  0
 40 95  1  0  0  0
 41 42  1  0  0  0
 41 96  1  0  0  0
 42 43  2  0  0  0
 42 97  1  0  0  0
 43 98  1  0  0  0
 44 45  1  0  0  0
 44 99  1  0  0  0
 45 47  1  0  0  0
 45 48  1  0  0  0
 45100  1  0  0  0
 46 47  2  0  0  0
 47 50  1  0  0  0
 48 49  1  0  0  0
 48101  1  0  0  0
 48102  1  0  0  0
 50103  1  0  0  0
 51 52  2  0  0  0
 51 56  1  0  0  0
 52 53  1  0  0  0
 52104  1  0  0  0
 53 54  2  0  0  0
 53105  1  0  0  0
 54 55  1  0  0  0
 54106  1  0  0  0
 55 56  2  0  0  0
 55107  1  0  0  0
 56108  1  0  0  0
 57 58  1  0  0  0
 57 59  2  0  0  0
 58109  1  0  0  0
 58110  1  0  0  0
 58111  1  0  0  0
M  END
> <s_m_entry_id>
39020

> <s_m_entry_name>
dock_pv.3

> <s_m_Source_Path>
/home/csk/Desktop/cluster/DUD-E-result/cxcr4

> <s_m_Source_File>
dock_pv.maegz

> <i_m_Source_File_Index>
3

> <chembl_id>
CHEMBL3933305

> <chembl_pref_name>
None

> <i_lp_mmshare_version>
53161

> <i_f3d_flags>
0

> <r_lp_tautomer_probability>
1

> <s_lp_Force_Field>
OPLS_2005

> <r_lp_Energy>
-1.581214

> <b_lp_Chiralities_Consistent>
1

> <s_lp_Variant>
CHEMBL2107_lig417-1

> <s_i_glide_gridfile>
glide-grid_3odu

> <i_i_glide_lignum>
476

> <i_i_glide_rotatable_bonds>
19

> <r_i_docking_score>
-8.77963791450903

> <r_i_glide_ligand_efficiency>
-0.148807422279814

> <r_i_glide_ligand_efficiency_sa>
-0.579306760803273

> <r_i_glide_ligand_efficiency_ln>
-1.72911337661266

> <r_i_glide_gscore>
-8.77963791450903

> <r_i_glide_lipo>
-2.62358242443145

> <r_i_glide_hbond>
-0.843639808474499

> <r_i_glide_metal>
0

> <r_i_glide_rewards>
-0.294193179439078

> <r_i_glide_evdw>
-57.4455871582031

> <r_i_glide_ecoul>
-13.7667446136475

> <r_i_glide_erotb>
0.29452770466759

> <r_i_glide_esite>
-0.375459156874318

> <r_i_glide_emodel>
-80.3573572355884

> <r_i_glide_energy>
-71.2123317718506

> <r_i_glide_einternal>
22.9164371490479

> <i_i_glide_confnum>
38

> <i_i_glide_posenum>
196

> <r_i_glide_eff_state_penalty>
0

> <s_user_duplicate_titles>
CHEMBL2107_lig417

> <s_m_subgroup_title>
dock_pv

> <s_m_subgroupid>
dock_pv

> <b_m_subgroup_collapsed>
0

$$$$
CHEMBL2107_lig153
                    3D
 Schrodinger Suite 2021-1.
103106  0  0  1  0            999 V2000
   22.2560  -10.7561   72.6899 N   0  0  0  0  0  0
   16.2645  -10.8022   72.9493 N   0  0  0  0  0  0
   19.6326  -11.5302   74.4609 N   0  0  0  0  0  0
   15.6584  -10.7545   71.7501 C   0  0  0  0  0  0
   21.9056  -10.9188   73.9757 C   0  0  0  0  0  0
   18.3869  -11.6388   73.9719 C   0  0  0  0  0  0
   17.5742  -11.5550   70.5684 N   0  0  0  0  0  0
   21.8781  -10.6921   70.2795 C   0  0  0  0  0  0
   21.5129  -10.0572   71.6441 C   0  0  2  0  0  0
   16.4711  -10.5961   70.4572 C   0  0  2  0  0  0
   20.9427  -10.7307   69.3159 N   0  0  0  0  0  0
   12.3834   -7.8475   74.2705 C   0  0  0  0  0  0
   18.8145   -6.7865   78.1053 C   0  0  0  0  0  0
   20.5332  -10.3915   74.4590 C   0  0  2  0  0  0
   17.5982  -10.4030   73.4261 C   0  0  2  0  0  0
   18.8351  -11.6441   70.1407 C   0  0  0  0  0  0
   18.4213   -7.1563   79.3985 N   0  0  0  0  0  0
   11.8690   -8.0308   75.4047 N   0  0  0  0  0  0
   21.6818   -8.5039   71.7719 C   0  0  0  0  0  0
   14.4493  -10.9424   71.6535 O   0  0  0  0  0  0
   22.6357  -11.5061   74.7741 O   0  0  0  0  0  0
   17.8560  -12.7479   73.9862 O   0  0  0  0  0  0
   16.7972   -9.1149   70.1271 C   0  0  0  0  0  0
   22.4909   -6.8289   68.4353 C   0  0  0  0  0  0
   23.0034  -11.1511   70.0833 O   0  0  0  0  0  0
   21.5233   -7.6975   70.4915 C   0  0  0  0  0  0
   22.6167   -7.5485   69.6424 C   0  0  0  0  0  0
   19.5114  -10.4615   69.4411 C   0  0  0  0  0  0
   19.4584  -12.6849   70.3564 O   0  0  0  0  0  0
   19.8559   -7.2731   77.5832 N   0  0  0  0  0  0
   13.5769   -7.1296   73.9975 N   0  0  0  0  0  0
   21.2260   -6.2616   68.0931 C   0  0  0  0  0  0
   17.9459   -5.8251   77.5566 N   0  0  0  0  0  0
   11.7933   -8.3586   73.1074 N   0  0  0  0  0  0
   20.1375   -6.4102   68.9869 C   0  0  0  0  0  0
   15.5953   -8.1785   70.0632 C   0  0  0  0  0  0
   20.3000   -7.1081   70.1787 C   0  0  0  0  0  0
   13.3444   -6.4657   69.9704 C   0  0  0  0  0  0
   14.5555   -8.4204   69.1388 C   0  0  0  0  0  0
   15.5151   -7.0595   70.9185 C   0  0  0  0  0  0
   13.4317   -7.5675   69.0942 C   0  0  0  0  0  0
   14.3920   -6.2127   70.8751 C   0  0  0  0  0  0
   12.2562   -5.6383   69.9573 O   0  0  0  0  0  0
   17.3872   -9.3574   74.5510 C   0  0  0  0  0  0
   20.6156   -9.7041   75.8401 C   0  0  0  0  0  0
   23.5852   -6.6624   67.5571 C   0  0  0  0  0  0
   20.1261   -7.1470   76.1614 C   0  0  0  0  0  0
   14.4877   -6.6985   75.0609 C   0  0  0  0  0  0
   21.0972   -5.5553   66.8759 C   0  0  0  0  0  0
   21.1262   -8.2447   75.7416 C   0  0  0  0  0  0
   16.4390   -8.1755   74.2279 C   0  0  0  0  0  0
   15.5132   -7.7974   75.4023 C   0  0  0  0  0  0
   23.4247   -5.9538   66.3720 C   0  0  0  0  0  0
   22.1985   -5.3849   66.0438 C   0  0  0  0  0  0
   23.1845  -11.0262   72.3786 H   0  0  0  0  0  0
   15.6656  -11.0628   73.7277 H   0  0  0  0  0  0
   20.0445  -12.3656   74.8537 H   0  0  0  0  0  0
   17.2758  -12.3897   71.0706 H   0  0  0  0  0  0
   20.4687  -10.2926   71.8042 H   0  0  0  0  0  0
   15.8528  -10.9763   69.6444 H   0  0  0  0  0  0
   21.2255  -11.0798   68.4122 H   0  0  0  0  0  0
   20.1408   -9.6489   73.7784 H   0  0  0  0  0  0
   18.1689   -9.9491   72.6164 H   0  0  0  0  0  0
   18.8828   -7.9856   79.7517 H   0  0  0  0  0  0
   17.4312   -7.2459   79.5508 H   0  0  0  0  0  0
   11.0023   -8.5401   75.3059 H   0  0  0  0  0  0
   22.6559   -8.2581   72.2005 H   0  0  0  0  0  0
   20.9740   -8.1110   72.4968 H   0  0  0  0  0  0
   17.2703   -9.0525   69.1493 H   0  0  0  0  0  0
   17.4996   -8.7139   70.8520 H   0  0  0  0  0  0
   23.5658   -7.9996   69.9016 H   0  0  0  0  0  0
   19.3671   -9.5477   70.0019 H   0  0  0  0  0  0
   19.0557  -10.3149   68.4651 H   0  0  0  0  0  0
   14.0256   -7.3193   73.1145 H   0  0  0  0  0  0
   18.2422   -5.3598   76.7014 H   0  0  0  0  0  0
   17.5772   -5.1393   78.1951 H   0  0  0  0  0  0
   10.8615   -8.7563   73.1490 H   0  0  0  0  0  0
   11.9899   -7.9207   72.2194 H   0  0  0  0  0  0
   19.1800   -5.9706   68.7442 H   0  0  0  0  0  0
   19.4611   -7.2094   70.8539 H   0  0  0  0  0  0
   14.6141   -9.2628   68.4628 H   0  0  0  0  0  0
   16.3107   -6.8504   71.6198 H   0  0  0  0  0  0
   12.6433   -7.7697   68.3833 H   0  0  0  0  0  0
   14.3349   -5.3648   71.5412 H   0  0  0  0  0  0
   11.6105   -5.8003   69.2618 H   0  0  0  0  0  0
   18.3334   -8.9168   74.8175 H   0  0  0  0  0  0
   17.0564   -9.8697   75.4560 H   0  0  0  0  0  0
   21.2597  -10.2726   76.5140 H   0  0  0  0  0  0
   19.6473   -9.7363   76.3428 H   0  0  0  0  0  0
   24.5441   -7.0999   67.8051 H   0  0  0  0  0  0
   20.6094   -6.1914   75.9558 H   0  0  0  0  0  0
   19.2271   -7.1590   75.5477 H   0  0  0  0  0  0
   13.9454   -6.3868   75.9564 H   0  0  0  0  0  0
   15.0154   -5.8153   74.6971 H   0  0  0  0  0  0
   20.1463   -5.1195   66.6093 H   0  0  0  0  0  0
   22.0174   -8.1619   76.3558 H   0  0  0  0  0  0
   21.4785   -8.0197   74.7339 H   0  0  0  0  0  0
   15.8226   -8.3949   73.3609 H   0  0  0  0  0  0
   17.0291   -7.3046   73.9362 H   0  0  0  0  0  0
   14.9833   -8.6827   75.7570 H   0  0  0  0  0  0
   16.1232   -7.4631   76.2413 H   0  0  0  0  0  0
   24.2547   -5.8457   65.6949 H   0  0  0  0  0  0
   22.0945   -4.8267   65.1256 H   0  0  0  0  0  0
  1  5  1  0  0  0
  1  9  1  0  0  0
  1 55  1  0  0  0
  2 15  1  0  0  0
  2  4  1  0  0  0
  2 56  1  0  0  0
  3 14  1  0  0  0
  3  6  1  0  0  0
  3 57  1  0  0  0
  4 20  2  0  0  0
  4 10  1  0  0  0
  5 14  1  0  0  0
  5 21  2  0  0  0
  6 15  1  0  0  0
  6 22  2  0  0  0
  7 16  1  0  0  0
  7 10  1  0  0  0
  7 58  1  0  0  0
  8  9  1  0  0  0
  8 11  1  0  0  0
  8 25  2  0  0  0
  9 19  1  0  0  0
  9 59  1  0  0  0
 10 23  1  0  0  0
 10 60  1  0  0  0
 11 28  1  0  0  0
 11 61  1  0  0  0
 12 31  1  0  0  0
 12 18  2  0  0  0
 12 34  1  0  0  0
 13 30  2  0  0  0
 13 17  1  0  0  0
 13 33  1  0  0  0
 14 45  1  0  0  0
 14 62  1  0  0  0
 15 44  1  0  0  0
 15 63  1  0  0  0
 16 28  1  0  0  0
 16 29  2  0  0  0
 17 64  1  0  0  0
 17 65  1  0  0  0
 18 66  1  0  0  0
 19 26  1  0  0  0
 19 67  1  0  0  0
 19 68  1  0  0  0
 23 36  1  0  0  0
 23 69  1  0  0  0
 23 70  1  0  0  0
 24 27  1  0  0  0
 24 46  2  0  0  0
 24 32  1  0  0  0
 26 27  2  0  0  0
 26 37  1  0  0  0
 27 71  1  0  0  0
 28 72  1  0  0  0
 28 73  1  0  0  0
 30 47  1  0  0  0
 31 48  1  0  0  0
 31 74  1  0  0  0
 32 35  1  0  0  0
 32 49  2  0  0  0
 33 75  1  0  0  0
 33 76  1  0  0  0
 34 77  1  0  0  0
 34 78  1  0  0  0
 35 37  2  0  0  0
 35 79  1  0  0  0
 36 39  1  0  0  0
 36 40  2  0  0  0
 37 80  1  0  0  0
 38 42  2  0  0  0
 38 43  1  0  0  0
 38 41  1  0  0  0
 39 41  2  0  0  0
 39 81  1  0  0  0
 40 42  1  0  0  0
 40 82  1  0  0  0
 41 83  1  0  0  0
 42 84  1  0  0  0
 43 85  1  0  0  0
 44 51  1  0  0  0
 44 86  1  0  0  0
 44 87  1  0  0  0
 45 50  1  0  0  0
 45 88  1  0  0  0
 45 89  1  0  0  0
 46 53  1  0  0  0
 46 90  1  0  0  0
 47 50  1  0  0  0
 47 91  1  0  0  0
 47 92  1  0  0  0
 48 52  1  0  0  0
 48 93  1  0  0  0
 48 94  1  0  0  0
 49 54  1  0  0  0
 49 95  1  0  0  0
 50 96  1  0  0  0
 50 97  1  0  0  0
 51 52  1  0  0  0
 51 98  1  0  0  0
 51 99  1  0  0  0
 52100  1  0  0  0
 52101  1  0  0  0
 53 54  2  0  0  0
 53102  1  0  0  0
 54103  1  0  0  0
M  END
> <s_m_entry_id>
39021

> <s_m_entry_name>
dock_pv.4

> <s_m_Source_Path>
/home/csk/Desktop/cluster/DUD-E-result/cxcr4

> <s_m_Source_File>
dock_pv.maegz

> <i_m_Source_File_Index>
4

> <chembl_id>
CHEMBL192368

> <chembl_pref_name>
None

> <i_lp_mmshare_version>
53161

> <i_f3d_flags>
0

> <r_lp_tautomer_probability>
0.999999999997365

> <s_lp_Force_Field>
OPLS_2005

> <r_lp_Energy>
21.214026

> <b_lp_Chiralities_Consistent>
1

> <s_lp_Variant>
CHEMBL2107_lig153-1

> <s_i_glide_gridfile>
glide-grid_3odu

> <i_i_glide_lignum>
176

> <i_i_glide_rotatable_bonds>
15

> <r_i_docking_score>
-8.75316366188438

> <r_i_glide_ligand_efficiency>
-0.162095623368229

> <r_i_glide_ligand_efficiency_sa>
-0.612683063117729

> <r_i_glide_ligand_efficiency_ln>
-1.75449822653018

> <r_i_glide_gscore>
-8.75316366188438

> <r_i_glide_lipo>
-2.14644995705785

> <r_i_glide_hbond>
-1.13238306237554

> <r_i_glide_metal>
0

> <r_i_glide_rewards>
-0.444920038418857

> <r_i_glide_evdw>
-48.8109436035156

> <r_i_glide_ecoul>
-16.8304901123047

> <r_i_glide_erotb>
0.35607604797874

> <r_i_glide_esite>
-0.420365954989384

> <r_i_glide_emodel>
-91.7851725594777

> <r_i_glide_energy>
-65.6414337158203

> <r_i_glide_einternal>
12.0381298065186

> <i_i_glide_confnum>
44

> <i_i_glide_posenum>
304

> <r_i_glide_eff_state_penalty>
0

> <s_user_duplicate_titles>
CHEMBL2107_lig153

> <s_m_subgroup_title>
dock_pv

> <s_m_subgroupid>
dock_pv

> <b_m_subgroup_collapsed>
0

$$$$
CHEMBL2107_lig416
                    3D
 Schrodinger Suite 2021-1.
111113  0  0  1  0            999 V2000
   15.2814    0.3476   77.7700 N   0  0  0  0  0  0
   15.0043    1.6223   78.2439 C   0  0  0  0  0  0
   15.5222    1.9086   79.4935 N   0  0  0  0  0  0
   14.3477    2.4448   77.5576 N   0  0  0  0  0  0
   16.2382   -4.5723   76.7571 N   0  0  0  0  0  0
   15.2088   -3.5299   76.6727 C   0  0  2  0  0  0
   12.8974   -3.6877   76.0816 O   0  0  0  0  0  0
   14.0564   -3.8748   75.7140 C   0  0  0  0  0  0
   15.8485   -2.1931   76.2251 C   0  0  0  0  0  0
   16.7758   -1.5329   77.2644 C   0  0  0  0  0  0
   16.0269   -0.7538   78.3568 C   0  0  0  0  0  0
   14.4024   -4.3271   74.4991 N   0  0  0  0  0  0
   13.4751   -4.5927   73.4005 C   0  0  1  0  0  0
   15.3958   -5.5869   72.3723 O   0  0  0  0  0  0
   12.9199   -3.2651   72.8483 C   0  0  0  0  0  0
   14.1810   -5.4019   72.3038 C   0  0  0  0  0  0
   13.3934   -5.8741   71.3175 N   0  0  0  0  0  0
   13.8104   -6.7269   70.1915 C   0  0  1  0  0  0
   15.0596   -4.8316   69.3619 O   0  0  0  0  0  0
   14.7844   -6.0238   69.2071 C   0  0  0  0  0  0
   14.3602   -8.0604   70.7673 C   0  0  0  0  0  0
   14.5646   -9.4746   69.6468 S   0  0  0  0  0  0
   15.2476   -6.7822   68.1968 N   0  0  0  0  0  0
   16.3690   -6.5269   67.2864 C   0  0  2  0  0  0
   17.9541   -8.1923   67.9603 O   0  0  0  0  0  0
   17.6719   -7.0027   67.9466 C   0  0  0  0  0  0
   16.4191   -5.0803   66.7491 C   0  0  0  0  0  0
   18.4490   -6.0853   68.5120 N   0  0  0  0  0  0
   19.6383   -6.3929   69.2908 C   0  0  2  0  0  0
   19.0558   -4.3550   70.3573 O   0  0  0  0  0  0
   19.5408   -5.4715   70.5176 C   0  0  0  0  0  0
   20.8534   -6.1353   68.3779 C   0  0  0  0  0  0
   19.9747   -5.8635   71.7243 N   0  0  0  0  0  0
   20.3955   -7.1932   72.1523 C   0  0  2  0  0  0
   18.1527   -7.8296   72.7086 O   0  0  0  0  0  0
   19.2152   -8.1803   72.1937 C   0  0  0  0  0  0
   21.1523   -7.0710   73.4971 C   0  0  0  0  0  0
   20.2947   -8.5577   75.3607 C   0  0  0  0  0  0
   21.2143   -8.3445   74.3182 C   0  0  0  0  0  0
   22.0204   -9.4154   73.8904 C   0  0  0  0  0  0
   21.9549  -10.6474   74.5193 C   0  0  0  0  0  0
   21.0581  -10.8376   75.5591 C   0  0  0  0  0  0
   20.2285   -9.8002   75.9699 C   0  0  0  0  0  0
   19.4317   -9.3911   71.6539 N   0  0  0  0  0  0
   18.4220  -10.4459   71.5756 C   0  0  2  0  0  0
   19.4821  -12.5435   72.1769 O   0  0  0  0  0  0
   19.1257  -11.7894   71.2943 C   0  0  0  0  0  0
   17.3252  -10.0337   70.5633 C   0  0  0  0  0  0
   15.6833  -10.7551   70.7628 S   0  0  0  0  0  0
   19.3393  -11.9828   69.9575 O   0  0  0  0  0  0
   22.2304   -6.5109   68.8966 C   0  0  0  0  0  0
   22.9136   -7.6091   68.3393 C   0  0  0  0  0  0
   24.2016   -7.9175   68.7527 C   0  0  0  0  0  0
   24.8147   -7.1546   69.7378 C   0  0  0  0  0  0
   24.1256   -6.1208   70.3500 C   0  0  0  0  0  0
   22.8423   -5.7947   69.9428 C   0  0  0  0  0  0
   16.0829   -5.7864   77.3115 C   0  0  0  0  0  0
   17.2513   -6.7482   77.1621 C   0  0  0  0  0  0
   15.0685   -6.1427   77.9096 O   0  0  0  0  0  0
   14.9060    0.1485   76.8552 H   0  0  0  0  0  0
   15.7519    2.8805   79.6428 H   0  0  0  0  0  0
   16.3148    1.3414   79.7522 H   0  0  0  0  0  0
   14.2544    3.3657   77.9780 H   0  0  0  0  0  0
   17.0948   -4.3718   76.2245 H   0  0  0  0  0  0
   14.7794   -3.4062   77.6688 H   0  0  0  0  0  0
   15.0715   -1.4883   75.9219 H   0  0  0  0  0  0
   16.4186   -2.3574   75.3119 H   0  0  0  0  0  0
   17.4544   -0.8535   76.7473 H   0  0  0  0  0  0
   17.4149   -2.2880   77.7214 H   0  0  0  0  0  0
   16.7419   -0.3789   79.0901 H   0  0  0  0  0  0
   15.3370   -1.4052   78.8957 H   0  0  0  0  0  0
   15.3788   -4.4816   74.2777 H   0  0  0  0  0  0
   12.6532   -5.2001   73.7821 H   0  0  0  0  0  0
   12.2628   -3.4323   71.9941 H   0  0  0  0  0  0
   12.3274   -2.7426   73.6012 H   0  0  0  0  0  0
   13.7205   -2.5996   72.5266 H   0  0  0  0  0  0
   12.4108   -5.6454   71.3427 H   0  0  0  0  0  0
   12.9030   -6.9501   69.6252 H   0  0  0  0  0  0
   13.7042   -8.4045   71.5679 H   0  0  0  0  0  0
   15.3234   -7.8743   71.2441 H   0  0  0  0  0  0
   14.9308   -7.7435   68.1667 H   0  0  0  0  0  0
   16.2071   -7.1665   66.4192 H   0  0  0  0  0  0
   17.1704   -4.9830   65.9648 H   0  0  0  0  0  0
   15.4622   -4.7906   66.3178 H   0  0  0  0  0  0
   16.6772   -4.3573   67.5187 H   0  0  0  0  0  0
   18.1623   -5.1179   68.5434 H   0  0  0  0  0  0
   19.6388   -7.4381   69.5907 H   0  0  0  0  0  0
   20.8871   -5.0864   68.0937 H   0  0  0  0  0  0
   20.7018   -6.6641   67.4377 H   0  0  0  0  0  0
   19.8245   -5.2066   72.4762 H   0  0  0  0  0  0
   21.1145   -7.5744   71.4228 H   0  0  0  0  0  0
   20.7147   -6.2861   74.1152 H   0  0  0  0  0  0
   22.1757   -6.7562   73.2913 H   0  0  0  0  0  0
   19.6214   -7.7721   75.6661 H   0  0  0  0  0  0
   22.6557   -9.2823   73.0315 H   0  0  0  0  0  0
   22.5772  -11.4615   74.1816 H   0  0  0  0  0  0
   20.9883  -11.7993   76.0469 H   0  0  0  0  0  0
   19.5211   -9.9545   76.7705 H   0  0  0  0  0  0
   20.3489   -9.6226   71.2958 H   0  0  0  0  0  0
   17.9610  -10.5309   72.5624 H   0  0  0  0  0  0
   17.6415  -10.2054   69.5450 H   0  0  0  0  0  0
   17.1697   -8.9579   70.6042 H   0  0  0  0  0  0
   18.8988  -11.3411   69.3926 H   0  0  0  0  0  0
   22.4522   -8.1998   67.5618 H   0  0  0  0  0  0
   24.7250   -8.7491   68.3041 H   0  0  0  0  0  0
   25.8066   -7.4112   70.0762 H   0  0  0  0  0  0
   24.5875   -5.5603   71.1463 H   0  0  0  0  0  0
   22.3260   -4.9803   70.4269 H   0  0  0  0  0  0
   17.8026   -6.8233   78.1006 H   0  0  0  0  0  0
   16.8970   -7.7452   76.8927 H   0  0  0  0  0  0
   17.9370   -6.4082   76.3849 H   0  0  0  0  0  0
  1  2  1  0  0  0
  1 11  1  0  0  0
  1 60  1  0  0  0
  2  3  1  0  0  0
  2  4  2  0  0  0
  3 61  1  0  0  0
  3 62  1  0  0  0
  4 63  1  0  0  0
  5  6  1  0  0  0
  5 57  1  0  0  0
  5 64  1  0  0  0
  6  8  1  0  0  0
  6  9  1  0  0  0
  6 65  1  0  0  0
  7  8  2  0  0  0
  8 12  1  0  0  0
  9 10  1  0  0  0
  9 66  1  0  0  0
  9 67  1  0  0  0
 10 11  1  0  0  0
 10 68  1  0  0  0
 10 69  1  0  0  0
 11 70  1  0  0  0
 11 71  1  0  0  0
 12 13  1  0  0  0
 12 72  1  0  0  0
 13 16  1  0  0  0
 13 15  1  0  0  0
 13 73  1  0  0  0
 14 16  2  0  0  0
 15 74  1  0  0  0
 15 75  1  0  0  0
 15 76  1  0  0  0
 16 17  1  0  0  0
 17 18  1  0  0  0
 17 77  1  0  0  0
 18 20  1  0  0  0
 18 21  1  0  0  0
 18 78  1  0  0  0
 19 20  2  0  0  0
 20 23  1  0  0  0
 21 22  1  0  0  0
 21 79  1  0  0  0
 21 80  1  0  0  0
 22 49  1  0  0  0
 23 24  1  0  0  0
 23 81  1  0  0  0
 24 26  1  0  0  0
 24 27  1  0  0  0
 24 82  1  0  0  0
 25 26  2  0  0  0
 26 28  1  0  0  0
 27 83  1  0  0  0
 27 84  1  0  0  0
 27 85  1  0  0  0
 28 29  1  0  0  0
 28 86  1  0  0  0
 29 31  1  0  0  0
 29 32  1  0  0  0
 29 87  1  0  0  0
 30 31  2  0  0  0
 31 33  1  0  0  0
 32 51  1  0  0  0
 32 88  1  0  0  0
 32 89  1  0  0  0
 33 34  1  0  0  0
 33 90  1  0  0  0
 34 36  1  0  0  0
 34 37  1  0  0  0
 34 91  1  0  0  0
 35 36  2  0  0  0
 36 44  1  0  0  0
 37 39  1  0  0  0
 37 92  1  0  0  0
 37 93  1  0  0  0
 38 39  2  0  0  0
 38 43  1  0  0  0
 38 94  1  0  0  0
 39 40  1  0  0  0
 40 41  2  0  0  0
 40 95  1  0  0  0
 41 42  1  0  0  0
 41 96  1  0  0  0
 42 43  2  0  0  0
 42 97  1  0  0  0
 43 98  1  0  0  0
 44 45  1  0  0  0
 44 99  1  0  0  0
 45 47  1  0  0  0
 45 48  1  0  0  0
 45100  1  0  0  0
 46 47  2  0  0  0
 47 50  1  0  0  0
 48 49  1  0  0  0
 48101  1  0  0  0
 48102  1  0  0  0
 50103  1  0  0  0
 51 52  2  0  0  0
 51 56  1  0  0  0
 52 53  1  0  0  0
 52104  1  0  0  0
 53 54  2  0  0  0
 53105  1  0  0  0
 54 55  1  0  0  0
 54106  1  0  0  0
 55 56  2  0  0  0
 55107  1  0  0  0
 56108  1  0  0  0
 57 58  1  0  0  0
 57 59  2  0  0  0
 58109  1  0  0  0
 58110  1  0  0  0
 58111  1  0  0  0
M  END
> <s_m_entry_id>
39022

> <s_m_entry_name>
dock_pv.5

> <s_m_Source_Path>
/home/csk/Desktop/cluster/DUD-E-result/cxcr4

> <s_m_Source_File>
dock_pv.maegz

> <i_m_Source_File_Index>
5

> <chembl_id>
CHEMBL3927148

> <chembl_pref_name>
None

> <i_lp_mmshare_version>
53161

> <i_f3d_flags>
0

> <r_lp_tautomer_probability>
1

> <s_lp_Force_Field>
OPLS_2005

> <r_lp_Energy>
-4.415335

> <b_lp_Chiralities_Consistent>
1

> <s_lp_Variant>
CHEMBL2107_lig416-1

> <s_i_glide_gridfile>
glide-grid_3odu

> <i_i_glide_lignum>
475

> <i_i_glide_rotatable_bonds>
19

> <r_i_docking_score>
-8.26578236248971

> <r_i_glide_ligand_efficiency>
-0.140098006143893

> <r_i_glide_ligand_efficiency_sa>
-0.545401035047869

> <r_i_glide_ligand_efficiency_ln>
-1.62791165083591

> <r_i_glide_gscore>
-8.26578236248971

> <r_i_glide_lipo>
-1.63015434384446

> <r_i_glide_hbond>
-0.829992416588389

> <r_i_glide_metal>
0

> <r_i_glide_rewards>
-0.179884214129991

> <r_i_glide_evdw>
-57.7900276184082

> <r_i_glide_ecoul>
-18.2596569061279

> <r_i_glide_erotb>
0.29452770466759

> <r_i_glide_esite>
-0.291829175754866

> <r_i_glide_emodel>
-102.380019725128

> <r_i_glide_energy>
-76.0496845245361

> <r_i_glide_einternal>
18.8492603302002

> <i_i_glide_confnum>
20

> <i_i_glide_posenum>
46

> <r_i_glide_eff_state_penalty>
0

> <s_user_duplicate_titles>
CHEMBL2107_lig416

> <s_m_subgroup_title>
dock_pv

> <s_m_subgroupid>
dock_pv

> <b_m_subgroup_collapsed>
0

$$$$
CHEMBL2107_lig134
                    3D
 Schrodinger Suite 2021-1.
106109  0  0  1  0            999 V2000
   19.9892   -7.5336   74.1061 N   0  0  0  0  0  0
   17.9935   -6.0398   71.5586 N   0  0  0  0  0  0
   14.4952   -5.7043   72.2228 N   0  0  0  0  0  0
   14.3799   -5.4976   73.5568 C   0  0  0  0  0  0
   19.7135   -6.9574   72.9243 C   0  0  0  0  0  0
   16.7590   -5.5550   71.3807 C   0  0  0  0  0  0
   19.3022   -8.6235   74.8057 C   0  0  1  0  0  0
   18.4497   -7.3163   72.1010 C   0  0  2  0  0  0
   14.9586   -6.4642   74.6330 C   0  0  2  0  0  0
   19.8946  -10.0043   74.4636 C   0  0  0  0  0  0
   12.6568   -2.7343   68.3684 C   0  0  0  0  0  0
   11.1360   -7.3001   71.1255 C   0  0  0  0  0  0
   15.5052   -6.4332   71.4350 C   0  0  2  0  0  0
   18.7499   -6.8396   76.9823 S   0  0  0  0  0  0
   16.7300   -7.0070   76.7392 S   0  0  0  0  0  0
   12.2627   -2.0167   67.2292 N   0  0  0  0  0  0
   11.4854   -7.0305   69.9567 N   0  0  0  0  0  0
   18.6888   -8.3870   70.9889 C   0  0  0  0  0  0
   13.7057   -4.5531   73.9644 O   0  0  0  0  0  0
   20.4695   -6.1043   72.4649 O   0  0  0  0  0  0
   16.5893   -4.3637   71.1571 O   0  0  0  0  0  0
   21.2131   -6.8655   68.5023 C   0  0  0  0  0  0
   19.9488   -8.1655   70.1466 C   0  0  0  0  0  0
   19.4330   -8.3903   76.3254 C   0  0  0  0  0  0
   20.0097   -7.1323   69.2057 C   0  0  0  0  0  0
   19.2814  -10.9959   74.8413 O   0  0  0  0  0  0
   16.2969   -6.0405   75.2490 C   0  0  0  0  0  0
   21.0587  -10.0328   73.7881 N   0  0  0  0  0  0
   12.0619   -7.7284   72.1156 N   0  0  0  0  0  0
   13.6355   -3.5469   68.3358 N   0  0  0  0  0  0
   15.0387   -7.8344   74.0959 N   0  0  2  0  0  0
   22.3602   -7.6788   68.7578 C   0  0  0  0  0  0
    9.7968   -7.1550   71.5307 N   0  0  0  0  0  0
   11.8688   -2.3986   69.4902 N   0  0  0  0  0  0
   22.2561   -8.7436   69.6814 C   0  0  0  0  0  0
   21.0640   -8.9754   70.3578 C   0  0  0  0  0  0
   19.7273  -15.3871   75.5224 C   0  0  0  0  0  0
   20.7346  -13.4643   73.7834 C   0  0  0  0  0  0
   18.8587  -14.6954   74.6828 C   0  0  0  0  0  0
   21.0966  -15.1301   75.4972 C   0  0  0  0  0  0
   19.3647  -13.7414   73.8050 C   0  0  0  0  0  0
   21.5992  -14.1640   74.6302 C   0  0  0  0  0  0
   21.9272  -11.1802   73.5009 C   0  0  0  0  0  0
   19.2320  -16.3493   76.3573 O   0  0  0  0  0  0
   12.5241   -8.2590   74.5067 C   0  0  0  0  0  0
   14.9891   -6.7652   70.0070 C   0  0  0  0  0  0
   11.6759   -8.5456   73.2628 C   0  0  0  0  0  0
   13.9883   -8.7547   74.4633 C   0  0  0  0  0  0
   21.3168   -5.8088   67.5612 C   0  0  0  0  0  0
   21.2954  -12.4202   72.8221 C   0  0  0  0  0  0
   13.8265   -4.4708   69.4365 C   0  0  0  0  0  0
   23.5705   -7.4011   68.0783 C   0  0  0  0  0  0
   14.7657   -5.6125   68.9884 C   0  0  0  0  0  0
   22.5229   -5.5564   66.9109 C   0  0  0  0  0  0
   23.6337   -6.3550   67.1637 C   0  0  0  0  0  0
   20.8030   -7.1780   74.5849 H   0  0  0  0  0  0
   18.7427   -5.3578   71.5231 H   0  0  0  0  0  0
   13.9630   -5.0633   71.6585 H   0  0  0  0  0  0
   18.2421   -8.6477   74.5630 H   0  0  0  0  0  0
   17.6822   -7.6791   72.7786 H   0  0  0  0  0  0
   14.2738   -6.4165   75.4812 H   0  0  0  0  0  0
   15.7473   -7.3921   71.8708 H   0  0  0  0  0  0
   12.6315   -2.3537   66.3527 H   0  0  0  0  0  0
   11.2841   -1.7965   67.1347 H   0  0  0  0  0  0
   10.7236   -6.6861   69.3888 H   0  0  0  0  0  0
   17.8321   -8.4239   70.3143 H   0  0  0  0  0  0
   18.7318   -9.3762   71.4497 H   0  0  0  0  0  0
   18.9513   -9.2073   76.8677 H   0  0  0  0  0  0
   20.4816   -8.4325   76.6201 H   0  0  0  0  0  0
   19.1492   -6.5023   69.0332 H   0  0  0  0  0  0
   16.2560   -4.9932   75.5502 H   0  0  0  0  0  0
   17.0966   -6.1235   74.5156 H   0  0  0  0  0  0
   21.4371   -9.1373   73.5127 H   0  0  0  0  0  0
   13.0326   -7.7891   71.8470 H   0  0  0  0  0  0
   15.9058   -8.2561   74.4013 H   0  0  0  0  0  0
    9.1027   -7.0042   70.8168 H   0  0  0  0  0  0
    9.4558   -7.8045   72.2350 H   0  0  0  0  0  0
   11.9610   -3.0002   70.2944 H   0  0  0  0  0  0
   10.8992   -2.1778   69.3234 H   0  0  0  0  0  0
   23.1185   -9.3624   69.8825 H   0  0  0  0  0  0
   21.0193   -9.7790   71.0755 H   0  0  0  0  0  0
   17.7982  -14.8979   74.7039 H   0  0  0  0  0  0
   21.7719  -15.6727   76.1392 H   0  0  0  0  0  0
   18.6866  -13.2052   73.1558 H   0  0  0  0  0  0
   22.6595  -13.9647   74.6164 H   0  0  0  0  0  0
   22.5522  -11.4424   74.3558 H   0  0  0  0  0  0
   22.6144  -10.7554   72.7657 H   0  0  0  0  0  0
   19.9217  -16.8265   76.8321 H   0  0  0  0  0  0
   12.4217   -7.2110   74.7805 H   0  0  0  0  0  0
   12.0428   -8.7878   75.3282 H   0  0  0  0  0  0
   14.0740   -7.3451   70.0953 H   0  0  0  0  0  0
   15.6944   -7.4634   69.5526 H   0  0  0  0  0  0
   11.7223   -9.5976   72.9813 H   0  0  0  0  0  0
   10.6560   -8.3552   73.5642 H   0  0  0  0  0  0
   14.0879   -9.5550   73.7390 H   0  0  0  0  0  0
   14.2563   -9.1548   75.4416 H   0  0  0  0  0  0
   20.4561   -5.1827   67.3673 H   0  0  0  0  0  0
   20.5740  -12.1288   72.0581 H   0  0  0  0  0  0
   22.0824  -12.9413   72.2752 H   0  0  0  0  0  0
   12.8788   -4.8829   69.7860 H   0  0  0  0  0  0
   14.2718   -3.9233   70.2672 H   0  0  0  0  0  0
   24.4387   -8.0162   68.2627 H   0  0  0  0  0  0
   15.7290   -5.1968   68.6882 H   0  0  0  0  0  0
   14.3552   -6.0583   68.0813 H   0  0  0  0  0  0
   22.5930   -4.7456   66.2002 H   0  0  0  0  0  0
   24.5602   -6.1681   66.6398 H   0  0  0  0  0  0
  1  5  1  0  0  0
  1  7  1  0  0  0
  1 56  1  0  0  0
  2  8  1  0  0  0
  2  6  1  0  0  0
  2 57  1  0  0  0
  3 13  1  0  0  0
  3  4  1  0  0  0
  3 58  1  0  0  0
  4  9  1  0  0  0
  4 19  2  0  0  0
  5  8  1  0  0  0
  5 20  2  0  0  0
  6 13  1  0  0  0
  6 21  2  0  0  0
  7 10  1  0  0  0
  7 24  1  0  0  0
  7 59  1  0  0  0
  8 18  1  0  0  0
  8 60  1  0  0  0
  9 27  1  0  0  0
  9 31  1  0  0  0
  9 61  1  0  0  0
 10 26  2  0  0  0
 10 28  1  0  0  0
 11 30  2  0  0  0
 11 16  1  0  0  0
 11 34  1  0  0  0
 12 29  1  0  0  0
 12 17  2  0  0  0
 12 33  1  0  0  0
 13 46  1  0  0  0
 13 62  1  0  0  0
 14 24  1  0  0  0
 14 15  1  0  0  0
 15 27  1  0  0  0
 16 63  1  0  0  0
 16 64  1  0  0  0
 17 65  1  0  0  0
 18 23  1  0  0  0
 18 66  1  0  0  0
 18 67  1  0  0  0
 22 25  2  0  0  0
 22 49  1  0  0  0
 22 32  1  0  0  0
 23 25  1  0  0  0
 23 36  2  0  0  0
 24 68  1  0  0  0
 24 69  1  0  0  0
 25 70  1  0  0  0
 27 71  1  0  0  0
 27 72  1  0  0  0
 28 43  1  0  0  0
 28 73  1  0  0  0
 29 47  1  0  0  0
 29 74  1  0  0  0
 30 51  1  0  0  0
 31 48  1  0  0  0
 31 75  1  0  0  0
 32 35  2  0  0  0
 32 52  1  0  0  0
 33 76  1  0  0  0
 33 77  1  0  0  0
 34 78  1  0  0  0
 34 79  1  0  0  0
 35 36  1  0  0  0
 35 80  1  0  0  0
 36 81  1  0  0  0
 37 40  1  0  0  0
 37 44  1  0  0  0
 37 39  2  0  0  0
 38 50  1  0  0  0
 38 41  2  0  0  0
 38 42  1  0  0  0
 39 41  1  0  0  0
 39 82  1  0  0  0
 40 42  2  0  0  0
 40 83  1  0  0  0
 41 84  1  0  0  0
 42 85  1  0  0  0
 43 50  1  0  0  0
 43 86  1  0  0  0
 43 87  1  0  0  0
 44 88  1  0  0  0
 45 48  1  0  0  0
 45 47  1  0  0  0
 45 89  1  0  0  0
 45 90  1  0  0  0
 46 53  1  0  0  0
 46 91  1  0  0  0
 46 92  1  0  0  0
 47 93  1  0  0  0
 47 94  1  0  0  0
 48 95  1  0  0  0
 48 96  1  0  0  0
 49 54  2  0  0  0
 49 97  1  0  0  0
 50 98  1  0  0  0
 50 99  1  0  0  0
 51 53  1  0  0  0
 51100  1  0  0  0
 51101  1  0  0  0
 52 55  2  0  0  0
 52102  1  0  0  0
 53103  1  0  0  0
 53104  1  0  0  0
 54 55  1  0  0  0
 54105  1  0  0  0
 55106  1  0  0  0
M  END
> <s_m_entry_id>
39023

> <s_m_entry_name>
dock_pv.6

> <s_m_Source_Path>
/home/csk/Desktop/cluster/DUD-E-result/cxcr4

> <s_m_Source_File>
dock_pv.maegz

> <i_m_Source_File_Index>
6

> <chembl_id>
CHEMBL436083

> <chembl_pref_name>
None

> <i_lp_mmshare_version>
53161

> <i_f3d_flags>
0

> <r_lp_tautomer_probability>
0.999999999997365

> <s_lp_Force_Field>
OPLS_2005

> <r_lp_Energy>
15.625878

> <b_lp_Chiralities_Consistent>
1

> <s_lp_Variant>
CHEMBL2107_lig134-1

> <s_i_glide_gridfile>
glide-grid_3odu

> <i_i_glide_lignum>
157

> <i_i_glide_rotatable_bonds>
18

> <r_i_docking_score>
-7.93759672557219

> <r_i_glide_ligand_efficiency>
-0.144319940464949

> <r_i_glide_ligand_efficiency_sa>
-0.548841871994984

> <r_i_glide_ligand_efficiency_ln>
-1.58519444022251

> <r_i_glide_gscore>
-7.93759672557219

> <r_i_glide_lipo>
-2.68513927149645

> <r_i_glide_hbond>
-0.752551032192031

> <r_i_glide_metal>
0

> <r_i_glide_rewards>
-0.153647132458004

> <r_i_glide_evdw>
-59.8078918457031

> <r_i_glide_ecoul>
-10.5796251296997

> <r_i_glide_erotb>
0.383801289287823

> <r_i_glide_esite>
-0.152722216973416

> <r_i_glide_emodel>
-94.331309445091

> <r_i_glide_energy>
-70.3875169754028

> <r_i_glide_einternal>
18.3080711364746

> <i_i_glide_confnum>
54

> <i_i_glide_posenum>
124

> <r_i_glide_eff_state_penalty>
0

> <s_user_duplicate_titles>
CHEMBL2107_lig134

> <s_m_subgroup_title>
dock_pv

> <s_m_subgroupid>
dock_pv

> <b_m_subgroup_collapsed>
0

$$$$
CHEMBL2107_lig314
                    3D
 Schrodinger Suite 2021-1.
103106  0  0  1  0            999 V2000
   17.2036   -7.0864   75.4747 C   0  0  1  0  0  0
   18.2427   -7.4589   74.3918 C   0  0  0  0  0  0
   18.1690   -6.7543   73.2509 N   0  0  0  0  0  0
   18.8916   -6.9582   71.9914 C   0  0  2  0  0  0
   18.4687   -8.2745   71.3093 C   0  0  0  0  0  0
   17.8786   -8.1465   70.1123 N   0  0  0  0  0  0
   17.1294   -9.2274   69.4747 C   0  0  0  0  0  0
   15.7090   -9.3268   70.0588 C   0  0  0  0  0  0
   15.2348   -8.2362   70.6715 N   0  0  0  0  0  0
   13.9223   -8.0381   71.2689 C   0  0  1  0  0  0
   14.0763   -6.8141   72.1990 C   0  0  0  0  0  0
   13.4812   -6.7856   73.4273 N   0  0  0  0  0  0
   13.7271   -5.7172   74.4428 C   0  0  1  0  0  0
   14.9918   -5.9345   75.3054 C   0  0  0  0  0  0
   15.9288   -6.7700   74.8262 N   0  0  0  0  0  0
   20.4348   -6.7981   72.1077 C   0  0  0  0  0  0
   21.1952   -6.6591   70.7790 C   0  0  0  0  0  0
   22.5532   -6.9782   70.7514 C   0  0  0  0  0  0
   23.3116   -6.8177   69.5938 C   0  0  0  0  0  0
   20.5836   -6.1878   69.6108 C   0  0  0  0  0  0
   21.3187   -6.0294   68.4132 C   0  0  0  0  0  0
   22.7127   -6.3243   68.4101 C   0  0  0  0  0  0
   23.4560   -6.0982   67.2293 C   0  0  0  0  0  0
   22.8429   -5.5574   66.0995 C   0  0  0  0  0  0
   21.4778   -5.2937   66.0960 C   0  0  0  0  0  0
   20.7086   -5.5543   67.2244 C   0  0  0  0  0  0
   18.6345   -9.3559   71.8739 O   0  0  0  0  0  0
   15.0564  -10.3613   69.9571 O   0  0  0  0  0  0
   12.8581   -7.8246   70.1627 C   0  0  0  0  0  0
   13.1923   -6.7827   69.0994 C   0  0  0  0  0  0
   13.9320   -7.1536   67.9562 C   0  0  0  0  0  0
   14.2302   -6.2071   66.9540 C   0  0  0  0  0  0
   13.7743   -4.8816   67.0872 C   0  0  0  0  0  0
   13.0560   -4.5029   68.2336 C   0  0  0  0  0  0
   12.7632   -5.4463   69.2387 C   0  0  0  0  0  0
   14.0090   -3.9554   66.1127 O   0  0  0  0  0  0
   14.8046   -5.9132   71.7830 O   0  0  0  0  0  0
   12.7078   -7.9319   73.9301 C   0  0  0  0  0  0
   13.5307   -4.2527   73.9421 C   0  0  0  0  0  0
   14.7790   -3.3942   73.5682 C   0  0  0  0  0  0
   14.4718   -2.0513   72.8514 C   0  0  0  0  0  0
   13.3287   -2.1268   71.9379 N   0  0  0  0  0  0
   15.0614   -5.3767   76.3979 O   0  0  0  0  0  0
   16.9709   -8.1917   76.5369 C   0  0  0  0  0  0
   18.1145   -8.4029   77.5451 C   0  0  0  0  0  0
   18.4146   -7.1780   78.4237 C   0  0  0  0  0  0
   19.3313   -7.5550   79.4761 N   0  0  0  0  0  0
   19.8956   -6.7744   80.4704 C   0  0  0  0  0  0
   19.7807   -5.5233   80.5607 N   0  0  0  0  0  0
   20.5926   -7.5530   81.3769 N   0  0  0  0  0  0
   19.0565   -8.3586   74.5940 O   0  0  0  0  0  0
   13.1661   -1.5107   70.7596 C   0  0  0  0  0  0
   11.7909   -1.6781   70.1298 C   0  0  0  0  0  0
   14.0133   -0.7977   70.2186 O   0  0  0  0  0  0
   17.5673   -6.1835   75.9651 H   0  0  0  0  0  0
   17.5535   -5.9499   73.2564 H   0  0  0  0  0  0
   18.5090   -6.1269   71.4016 H   0  0  0  0  0  0
   17.8308   -7.2405   69.6709 H   0  0  0  0  0  0
   17.6500  -10.1837   69.5575 H   0  0  0  0  0  0
   17.0483   -8.9963   68.4128 H   0  0  0  0  0  0
   15.8237   -7.4184   70.7278 H   0  0  0  0  0  0
   13.6953   -8.9440   71.8296 H   0  0  0  0  0  0
   12.9180   -5.8264   75.1663 H   0  0  0  0  0  0
   15.7845   -7.1962   73.9236 H   0  0  0  0  0  0
   20.8496   -7.6284   72.6800 H   0  0  0  0  0  0
   20.6561   -5.9060   72.6951 H   0  0  0  0  0  0
   23.0414   -7.3404   71.6465 H   0  0  0  0  0  0
   24.3661   -7.0554   69.6051 H   0  0  0  0  0  0
   19.5459   -5.9002   69.5885 H   0  0  0  0  0  0
   24.5115   -6.3270   67.2157 H   0  0  0  0  0  0
   23.4263   -5.3699   65.2103 H   0  0  0  0  0  0
   21.0100   -4.8954   65.2073 H   0  0  0  0  0  0
   19.6502   -5.3385   67.2169 H   0  0  0  0  0  0
   11.8973   -7.5773   70.6153 H   0  0  0  0  0  0
   12.6926   -8.7715   69.6469 H   0  0  0  0  0  0
   14.2614   -8.1746   67.8281 H   0  0  0  0  0  0
   14.7877   -6.5211   66.0828 H   0  0  0  0  0  0
   12.7064   -3.4890   68.3212 H   0  0  0  0  0  0
   12.1930   -5.1480   70.1056 H   0  0  0  0  0  0
   14.4049   -4.3251   65.3190 H   0  0  0  0  0  0
   12.0941   -8.3904   73.1520 H   0  0  0  0  0  0
   13.3765   -8.6921   74.3379 H   0  0  0  0  0  0
   12.0143   -7.6359   74.7182 H   0  0  0  0  0  0
   12.9837   -3.7099   74.7151 H   0  0  0  0  0  0
   12.8432   -4.3077   73.0999 H   0  0  0  0  0  0
   15.4725   -3.9499   72.9433 H   0  0  0  0  0  0
   15.3547   -3.1739   74.4688 H   0  0  0  0  0  0
   15.3648   -1.7129   72.3191 H   0  0  0  0  0  0
   14.2399   -1.2864   73.5959 H   0  0  0  0  0  0
   12.5462   -2.6583   72.2884 H   0  0  0  0  0  0
   16.7624   -9.1381   76.0321 H   0  0  0  0  0  0
   16.0730   -7.9620   77.1113 H   0  0  0  0  0  0
   19.0291   -8.7116   77.0399 H   0  0  0  0  0  0
   17.8560   -9.2499   78.1785 H   0  0  0  0  0  0
   17.5027   -6.8018   78.8866 H   0  0  0  0  0  0
   18.8518   -6.3656   77.8435 H   0  0  0  0  0  0
   19.4566   -8.5627   79.5602 H   0  0  0  0  0  0
   20.2374   -5.1426   81.3761 H   0  0  0  0  0  0
   21.4787   -7.1658   81.6668 H   0  0  0  0  0  0
   20.7298   -8.5111   81.0814 H   0  0  0  0  0  0
   11.0559   -1.1459   70.7328 H   0  0  0  0  0  0
   11.7639   -1.2763   69.1170 H   0  0  0  0  0  0
   11.4907   -2.7273   70.1025 H   0  0  0  0  0  0
  1 15  1  0  0  0
  1  2  1  0  0  0
  1 44  1  0  0  0
  1 55  1  0  0  0
  2  3  1  0  0  0
  2 51  2  0  0  0
  3  4  1  0  0  0
  3 56  1  0  0  0
  4 16  1  0  0  0
  4  5  1  0  0  0
  4 57  1  0  0  0
  5 27  2  0  0  0
  5  6  1  0  0  0
  6  7  1  0  0  0
  6 58  1  0  0  0
  7  8  1  0  0  0
  7 59  1  0  0  0
  7 60  1  0  0  0
  8 28  2  0  0  0
  8  9  1  0  0  0
  9 10  1  0  0  0
  9 61  1  0  0  0
 10 29  1  0  0  0
 10 11  1  0  0  0
 10 62  1  0  0  0
 11 12  1  0  0  0
 11 37  2  0  0  0
 12 13  1  0  0  0
 12 38  1  0  0  0
 13 14  1  0  0  0
 13 39  1  0  0  0
 13 63  1  0  0  0
 14 15  1  0  0  0
 14 43  2  0  0  0
 15 64  1  0  0  0
 16 17  1  0  0  0
 16 65  1  0  0  0
 16 66  1  0  0  0
 17 18  2  0  0  0
 17 20  1  0  0  0
 18 19  1  0  0  0
 18 67  1  0  0  0
 19 22  2  0  0  0
 19 68  1  0  0  0
 20 21  2  0  0  0
 20 69  1  0  0  0
 21 26  1  0  0  0
 21 22  1  0  0  0
 22 23  1  0  0  0
 23 24  2  0  0  0
 23 70  1  0  0  0
 24 25  1  0  0  0
 24 71  1  0  0  0
 25 26  2  0  0  0
 25 72  1  0  0  0
 26 73  1  0  0  0
 29 30  1  0  0  0
 29 74  1  0  0  0
 29 75  1  0  0  0
 30 31  2  0  0  0
 30 35  1  0  0  0
 31 32  1  0  0  0
 31 76  1  0  0  0
 32 33  2  0  0  0
 32 77  1  0  0  0
 33 34  1  0  0  0
 33 36  1  0  0  0
 34 35  2  0  0  0
 34 78  1  0  0  0
 35 79  1  0  0  0
 36 80  1  0  0  0
 38 81  1  0  0  0
 38 82  1  0  0  0
 38 83  1  0  0  0
 39 40  1  0  0  0
 39 84  1  0  0  0
 39 85  1  0  0  0
 40 41  1  0  0  0
 40 86  1  0  0  0
 40 87  1  0  0  0
 41 42  1  0  0  0
 41 88  1  0  0  0
 41 89  1  0  0  0
 42 52  1  0  0  0
 42 90  1  0  0  0
 44 45  1  0  0  0
 44 91  1  0  0  0
 44 92  1  0  0  0
 45 46  1  0  0  0
 45 93  1  0  0  0
 45 94  1  0  0  0
 46 47  1  0  0  0
 46 95  1  0  0  0
 46 96  1  0  0  0
 47 48  1  0  0  0
 47 97  1  0  0  0
 48 49  2  0  0  0
 48 50  1  0  0  0
 49 98  1  0  0  0
 50 99  1  0  0  0
 50100  1  0  0  0
 52 53  1  0  0  0
 52 54  2  0  0  0
 53101  1  0  0  0
 53102  1  0  0  0
 53103  1  0  0  0
M  END
> <s_m_entry_id>
39024

> <s_m_entry_name>
dock_pv.7

> <s_m_Source_Path>
/home/csk/Desktop/cluster/DUD-E-result/cxcr4

> <s_m_Source_File>
dock_pv.maegz

> <i_m_Source_File_Index>
7

> <chembl_id>
CHEMBL1949732

> <chembl_pref_name>
None

> <i_lp_mmshare_version>
53161

> <i_f3d_flags>
0

> <r_lp_tautomer_probability>
0.999999999997365

> <s_lp_Force_Field>
OPLS_2005

> <r_lp_Energy>
19.072321

> <b_lp_Chiralities_Consistent>
1

> <s_lp_Variant>
CHEMBL2107_lig314-1

> <s_i_glide_gridfile>
glide-grid_3odu

> <i_i_glide_lignum>
402

> <i_i_glide_rotatable_bonds>
15

> <r_i_docking_score>
-7.91752119502905

> <r_i_glide_ligand_efficiency>
-0.146620762870908

> <r_i_glide_ligand_efficiency_sa>
-0.554191755741219

> <r_i_glide_ligand_efficiency_ln>
-1.58700070417775

> <r_i_glide_gscore>
-7.91752119502905

> <r_i_glide_lipo>
-2.39391395998064

> <r_i_glide_hbond>
-0.527415024793358

> <r_i_glide_metal>
0

> <r_i_glide_rewards>
-0.185263037339136

> <r_i_glide_evdw>
-58.4418258666992

> <r_i_glide_ecoul>
-12.6841955184937

> <r_i_glide_erotb>
0.317050250160805

> <r_i_glide_esite>
-0.303258801967722

> <r_i_glide_emodel>
-101.704757762199

> <r_i_glide_energy>
-71.1260213851929

> <r_i_glide_einternal>
12.7016954421997

> <i_i_glide_confnum>
1

> <i_i_glide_posenum>
157

> <r_i_glide_eff_state_penalty>
0

> <s_user_duplicate_titles>
CHEMBL2107_lig314

> <s_m_subgroup_title>
dock_pv

> <s_m_subgroupid>
dock_pv

> <b_m_subgroup_collapsed>
0

$$$$
CHEMBL2107_lig142
                    3D
 Schrodinger Suite 2021-1.
100103  0  0  1  0            999 V2000
   14.1262   -3.1059   75.4010 N   0  0  0  0  0  0
   14.9105   -1.9965   75.1313 C   0  0  0  0  0  0
   16.0262   -1.9545   75.9460 N   0  0  0  0  0  0
   14.6560   -1.1384   74.2463 N   0  0  0  0  0  0
   11.7805   -6.2910   70.5707 N   0  0  0  0  0  0
   12.4983   -5.0860   71.0088 C   0  0  2  0  0  0
   14.3600   -3.9547   70.0195 O   0  0  0  0  0  0
   13.9647   -4.9992   70.5383 C   0  0  0  0  0  0
   12.2059   -4.6889   72.4855 C   0  0  0  0  0  0
   13.3531   -4.0039   73.2500 C   0  0  0  0  0  0
   12.9612   -3.5587   74.6619 C   0  0  0  0  0  0
   17.4216   -7.6226   74.7404 N   0  0  0  0  0  0
   18.2170   -8.3665   75.6010 C   0  0  0  0  0  0
   17.4570   -9.1545   76.4463 N   0  0  0  0  0  0
   19.4761   -8.3557   75.6094 N   0  0  0  0  0  0
   14.7402   -6.0771   70.7020 N   0  0  0  0  0  0
   16.1663   -6.1380   70.3764 C   0  0  2  0  0  0
   15.7548   -8.1617   69.1809 O   0  0  0  0  0  0
   16.5170   -7.5636   69.9381 C   0  0  0  0  0  0
   17.0271   -5.5156   71.5177 C   0  0  0  0  0  0
   16.7634   -6.0229   72.9575 C   0  0  0  0  0  0
   17.8659   -6.9303   73.5435 C   0  0  0  0  0  0
   17.6601   -8.0813   70.4144 N   0  0  0  0  0  0
   18.1571   -9.4436   70.2038 C   0  0  2  0  0  0
   17.8512  -10.7538   72.2041 O   0  0  0  0  0  0
   17.3656  -10.3824   71.1341 C   0  0  0  0  0  0
   16.1000  -10.6233   70.7568 N   0  0  0  0  0  0
   15.0171  -10.9478   71.6838 C   0  0  0  0  0  0
   15.2175   -8.8526   72.8227 O   0  0  0  0  0  0
   14.4725   -9.6082   72.2121 C   0  0  0  0  0  0
   13.1872   -9.3138   71.9736 N   0  0  0  0  0  0
   12.5300   -8.0307   72.2687 C   0  0  1  0  0  0
   11.7912   -7.5734   70.9898 C   0  0  0  0  0  0
   11.5306   -8.2409   73.4421 C   0  0  0  0  0  0
   13.2493   -7.9544   75.3202 C   0  0  0  0  0  0
   11.9568   -7.7167   74.8085 C   0  0  0  0  0  0
   11.0372   -6.9763   75.5826 C   0  0  0  0  0  0
   11.4124   -6.4637   76.8399 C   0  0  0  0  0  0
   12.7156   -6.6821   77.3294 C   0  0  0  0  0  0
   13.6341   -7.4269   76.5655 C   0  0  0  0  0  0
   13.0907   -6.1888   78.5433 O   0  0  0  0  0  0
   11.1694   -8.4178   70.3605 O   0  0  0  0  0  0
   19.6939   -9.5341   70.4451 C   0  0  0  0  0  0
   20.5741   -8.5457   69.6693 C   0  0  0  0  0  0
   21.9343   -8.5034   69.9762 C   0  0  0  0  0  0
   22.8007   -7.6507   69.3016 C   0  0  0  0  0  0
   20.0726   -7.7007   68.6744 C   0  0  0  0  0  0
   20.9179   -6.8085   67.9791 C   0  0  0  0  0  0
   22.3119   -6.7981   68.2816 C   0  0  0  0  0  0
   23.1690   -5.9553   67.5388 C   0  0  0  0  0  0
   22.6528   -5.1552   66.5229 C   0  0  0  0  0  0
   21.2905   -5.1550   66.2380 C   0  0  0  0  0  0
   20.4185   -5.9555   66.9643 C   0  0  0  0  0  0
   14.4620   -3.7363   76.1149 H   0  0  0  0  0  0
   16.6944   -1.2450   75.6757 H   0  0  0  0  0  0
   16.5355   -2.8306   75.9602 H   0  0  0  0  0  0
   15.3841   -0.4334   74.1855 H   0  0  0  0  0  0
   11.2182   -6.1231   69.7473 H   0  0  0  0  0  0
   12.0103   -4.3106   70.4167 H   0  0  0  0  0  0
   11.8966   -5.5480   73.0704 H   0  0  0  0  0  0
   11.3355   -4.0322   72.4953 H   0  0  0  0  0  0
   13.7129   -3.1415   72.6869 H   0  0  0  0  0  0
   14.1929   -4.6950   73.3276 H   0  0  0  0  0  0
   12.5194   -4.3891   75.2087 H   0  0  0  0  0  0
   12.2198   -2.7617   74.6259 H   0  0  0  0  0  0
   16.4339   -7.8252   74.7591 H   0  0  0  0  0  0
   18.0106   -9.7816   77.0153 H   0  0  0  0  0  0
   16.7607   -9.7104   75.9668 H   0  0  0  0  0  0
   19.8729   -8.9650   76.3110 H   0  0  0  0  0  0
   14.3496   -6.9248   71.0892 H   0  0  0  0  0  0
   16.3343   -5.5408   69.4780 H   0  0  0  0  0  0
   16.8162   -4.4459   71.5201 H   0  0  0  0  0  0
   18.0919   -5.5741   71.2868 H   0  0  0  0  0  0
   15.7990   -6.5167   73.0150 H   0  0  0  0  0  0
   16.6558   -5.1550   73.6059 H   0  0  0  0  0  0
   18.7657   -6.3552   73.7559 H   0  0  0  0  0  0
   18.1537   -7.7083   72.8431 H   0  0  0  0  0  0
   18.2196   -7.5137   71.0325 H   0  0  0  0  0  0
   17.9534   -9.7392   69.1714 H   0  0  0  0  0  0
   15.8242  -10.2702   69.8477 H   0  0  0  0  0  0
   15.3713  -11.5542   72.5189 H   0  0  0  0  0  0
   14.2557  -11.5172   71.1591 H   0  0  0  0  0  0
   12.6143   -9.9629   71.4527 H   0  0  0  0  0  0
   13.2702   -7.2841   72.5511 H   0  0  0  0  0  0
   11.2389   -9.2876   73.5321 H   0  0  0  0  0  0
   10.6005   -7.7279   73.2003 H   0  0  0  0  0  0
   13.9596   -8.5465   74.7707 H   0  0  0  0  0  0
   10.0363   -6.7968   75.2133 H   0  0  0  0  0  0
   10.6954   -5.9003   77.4174 H   0  0  0  0  0  0
   14.6324   -7.6021   76.9388 H   0  0  0  0  0  0
   12.4069   -5.6594   78.9607 H   0  0  0  0  0  0
   20.0393  -10.5425   70.2109 H   0  0  0  0  0  0
   19.9110   -9.3704   71.5042 H   0  0  0  0  0  0
   22.3349   -9.1479   70.7493 H   0  0  0  0  0  0
   23.8523   -7.6457   69.5473 H   0  0  0  0  0  0
   19.0355   -7.7267   68.3798 H   0  0  0  0  0  0
   24.2265   -5.9496   67.7559 H   0  0  0  0  0  0
   23.3086   -4.5204   65.9561 H   0  0  0  0  0  0
   20.8994   -4.5192   65.4563 H   0  0  0  0  0  0
   19.3627   -5.9618   66.7306 H   0  0  0  0  0  0
  1  2  1  0  0  0
  1 11  1  0  0  0
  1 54  1  0  0  0
  2  3  1  0  0  0
  2  4  2  0  0  0
  3 55  1  0  0  0
  3 56  1  0  0  0
  4 57  1  0  0  0
  5  6  1  0  0  0
  5 33  1  0  0  0
  5 58  1  0  0  0
  6  8  1  0  0  0
  6  9  1  0  0  0
  6 59  1  0  0  0
  7  8  2  0  0  0
  8 16  1  0  0  0
  9 10  1  0  0  0
  9 60  1  0  0  0
  9 61  1  0  0  0
 10 11  1  0  0  0
 10 62  1  0  0  0
 10 63  1  0  0  0
 11 64  1  0  0  0
 11 65  1  0  0  0
 12 13  1  0  0  0
 12 22  1  0  0  0
 12 66  1  0  0  0
 13 14  1  0  0  0
 13 15  2  0  0  0
 14 67  1  0  0  0
 14 68  1  0  0  0
 15 69  1  0  0  0
 16 17  1  0  0  0
 16 70  1  0  0  0
 17 19  1  0  0  0
 17 20  1  0  0  0
 17 71  1  0  0  0
 18 19  2  0  0  0
 19 23  1  0  0  0
 20 21  1  0  0  0
 20 72  1  0  0  0
 20 73  1  0  0  0
 21 22  1  0  0  0
 21 74  1  0  0  0
 21 75  1  0  0  0
 22 76  1  0  0  0
 22 77  1  0  0  0
 23 24  1  0  0  0
 23 78  1  0  0  0
 24 26  1  0  0  0
 24 43  1  0  0  0
 24 79  1  0  0  0
 25 26  2  0  0  0
 26 27  1  0  0  0
 27 28  1  0  0  0
 27 80  1  0  0  0
 28 30  1  0  0  0
 28 81  1  0  0  0
 28 82  1  0  0  0
 29 30  2  0  0  0
 30 31  1  0  0  0
 31 32  1  0  0  0
 31 83  1  0  0  0
 32 33  1  0  0  0
 32 34  1  0  0  0
 32 84  1  0  0  0
 33 42  2  0  0  0
 34 36  1  0  0  0
 34 85  1  0  0  0
 34 86  1  0  0  0
 35 36  2  0  0  0
 35 40  1  0  0  0
 35 87  1  0  0  0
 36 37  1  0  0  0
 37 38  2  0  0  0
 37 88  1  0  0  0
 38 39  1  0  0  0
 38 89  1  0  0  0
 39 40  2  0  0  0
 39 41  1  0  0  0
 40 90  1  0  0  0
 41 91  1  0  0  0
 43 44  1  0  0  0
 43 92  1  0  0  0
 43 93  1  0  0  0
 44 45  2  0  0  0
 44 47  1  0  0  0
 45 46  1  0  0  0
 45 94  1  0  0  0
 46 49  2  0  0  0
 46 95  1  0  0  0
 47 48  2  0  0  0
 47 96  1  0  0  0
 48 49  1  0  0  0
 48 53  1  0  0  0
 49 50  1  0  0  0
 50 51  2  0  0  0
 50 97  1  0  0  0
 51 52  1  0  0  0
 51 98  1  0  0  0
 52 53  2  0  0  0
 52 99  1  0  0  0
 53100  1  0  0  0
M  END
> <s_m_entry_id>
39025

> <s_m_entry_name>
dock_pv.8

> <s_m_Source_Path>
/home/csk/Desktop/cluster/DUD-E-result/cxcr4

> <s_m_Source_File>
dock_pv.maegz

> <i_m_Source_File_Index>
8

> <chembl_id>
CHEMBL436283

> <chembl_pref_name>
None

> <i_lp_mmshare_version>
53161

> <i_f3d_flags>
0

> <r_lp_tautomer_probability>
0.999999999997365

> <s_lp_Force_Field>
OPLS_2005

> <r_lp_Energy>
17.974473

> <b_lp_Chiralities_Consistent>
1

> <s_lp_Variant>
CHEMBL2107_lig142-1

> <s_i_glide_gridfile>
glide-grid_3odu

> <i_i_glide_lignum>
165

> <i_i_glide_rotatable_bonds>
15

> <r_i_docking_score>
-7.8148695549231

> <r_i_glide_ligand_efficiency>
-0.147450368960813

> <r_i_glide_ligand_efficiency_sa>
-0.553865719649141

> <r_i_glide_ligand_efficiency_ln>
-1.57231601098014

> <r_i_glide_gscore>
-7.8148695549231

> <r_i_glide_lipo>
-2.48959479273398

> <r_i_glide_hbond>
-0.933412616367728

> <r_i_glide_metal>
0

> <r_i_glide_rewards>
-0.313922776143731

> <r_i_glide_evdw>
-54.375789642334

> <r_i_glide_ecoul>
-10.2550621032715

> <r_i_glide_erotb>
0.38040240689453

> <r_i_glide_esite>
-0.201292978964768

> <r_i_glide_emodel>
-89.4701937107141

> <r_i_glide_energy>
-64.6308517456055

> <r_i_glide_einternal>
14.6626720428467

> <i_i_glide_confnum>
29

> <i_i_glide_posenum>
35

> <r_i_glide_eff_state_penalty>
0

> <s_user_duplicate_titles>
CHEMBL2107_lig142,CHEMBL2107_lig949

> <s_m_subgroup_title>
dock_pv

> <s_m_subgroupid>
dock_pv

> <b_m_subgroup_collapsed>
0

$$$$
CHEMBL2107_lig311
                    3D
 Schrodinger Suite 2021-1.
103106  0  0  1  0            999 V2000
   19.1606  -11.2031   73.9168 C   0  0  1  0  0  0
   18.8100  -10.9448   72.4344 C   0  0  0  0  0  0
   18.3822   -9.7076   72.1202 N   0  0  0  0  0  0
   17.7432   -9.2371   70.8836 C   0  0  2  0  0  0
   16.2546   -9.6404   70.8761 C   0  0  0  0  0  0
   15.3884   -8.6743   70.5230 N   0  0  0  0  0  0
   13.9755   -8.6936   70.9243 C   0  0  0  0  0  0
   13.8392   -8.3990   72.4335 C   0  0  0  0  0  0
   14.8697   -7.7795   73.0320 N   0  0  0  0  0  0
   15.0725   -7.5568   74.4566 C   0  0  1  0  0  0
   16.6077   -7.5068   74.7072 C   0  0  0  0  0  0
   17.1229   -7.9426   75.8984 N   0  0  0  0  0  0
   18.5791   -8.1289   76.1729 C   0  0  1  0  0  0
   19.3327   -9.1064   75.2399 C   0  0  0  0  0  0
   18.6269  -10.1499   74.7854 N   0  0  0  0  0  0
   18.4543   -9.5934   69.5551 C   0  0  0  0  0  0
   19.8718   -9.0372   69.4637 C   0  0  0  0  0  0
   20.9528   -9.8075   69.8849 C   0  0  0  0  0  0
   22.2554   -9.3388   69.7656 C   0  0  0  0  0  0
   20.0948   -7.7746   68.9094 C   0  0  0  0  0  0
   21.4112   -7.2758   68.7508 C   0  0  0  0  0  0
   22.5111   -8.0699   69.1925 C   0  0  0  0  0  0
   23.8300   -7.5718   69.0429 C   0  0  0  0  0  0
   24.0468   -6.3282   68.4590 C   0  0  0  0  0  0
   22.9771   -5.5594   68.0104 C   0  0  0  0  0  0
   21.6691   -6.0167   68.1558 C   0  0  0  0  0  0
   15.9020  -10.7539   71.2677 O   0  0  0  0  0  0
   12.8329   -8.7549   73.0405 O   0  0  0  0  0  0
   14.2509   -6.3238   74.9349 C   0  0  0  0  0  0
   14.5503   -4.9432   74.3463 C   0  0  0  0  0  0
   14.2709   -4.6492   72.9936 C   0  0  0  0  0  0
   14.5511   -3.3717   72.4645 C   0  0  0  0  0  0
   15.1106   -2.3722   73.2848 C   0  0  0  0  0  0
   15.3447   -2.6442   74.6456 C   0  0  0  0  0  0
   15.0563   -3.9181   75.1733 C   0  0  0  0  0  0
   15.4504   -1.1580   72.7574 O   0  0  0  0  0  0
   17.3211   -7.1553   73.7633 O   0  0  0  0  0  0
   16.2601   -8.4384   76.9696 C   0  0  0  0  0  0
   19.3176   -6.7784   76.3668 C   0  0  0  0  0  0
   18.9288   -6.0045   77.6366 C   0  0  0  0  0  0
   19.2863   -6.7567   78.9322 C   0  0  0  0  0  0
   19.0659   -5.9442   80.1165 N   0  0  0  0  0  0
   20.5201   -8.9171   74.9629 O   0  0  0  0  0  0
   18.6018  -12.5438   74.4433 C   0  0  0  0  0  0
   19.3358  -13.8047   73.9404 C   0  0  0  0  0  0
   19.6907  -14.7819   75.0711 C   0  0  0  0  0  0
   20.6906  -14.2101   75.9562 N   0  0  0  0  0  0
   22.0679  -14.3441   75.8448 C   0  0  0  0  0  0
   22.6558  -15.1938   75.1221 N   0  0  0  0  0  0
   22.7264  -13.4200   76.6327 N   0  0  0  0  0  0
   18.9348  -11.8627   71.6255 O   0  0  0  0  0  0
   19.2531   -6.2777   81.4518 C   0  0  0  0  0  0
   19.6630   -7.5802   81.6746 N   0  0  0  0  0  0
   19.0572   -5.4524   82.3752 N   0  0  0  0  0  0
   20.2501  -11.2250   73.9883 H   0  0  0  0  0  0
   18.3767   -9.0273   72.8686 H   0  0  0  0  0  0
   17.7711   -8.1513   70.9772 H   0  0  0  0  0  0
   15.7448   -7.8137   70.1345 H   0  0  0  0  0  0
   13.5193   -9.6573   70.6921 H   0  0  0  0  0  0
   13.4313   -7.9357   70.3609 H   0  0  0  0  0  0
   15.6766   -7.5212   72.4823 H   0  0  0  0  0  0
   14.6810   -8.4481   74.9512 H   0  0  0  0  0  0
   18.6641   -8.6630   77.1196 H   0  0  0  0  0  0
   17.6556  -10.2431   75.0470 H   0  0  0  0  0  0
   17.8842   -9.1855   68.7183 H   0  0  0  0  0  0
   18.4820  -10.6729   69.3999 H   0  0  0  0  0  0
   20.7907  -10.7915   70.2985 H   0  0  0  0  0  0
   23.0753   -9.9528   70.1059 H   0  0  0  0  0  0
   19.2617   -7.1785   68.5668 H   0  0  0  0  0  0
   24.6633   -8.1634   69.3960 H   0  0  0  0  0  0
   25.0538   -5.9555   68.3580 H   0  0  0  0  0  0
   23.1503   -4.5941   67.5576 H   0  0  0  0  0  0
   20.8450   -5.4036   67.8185 H   0  0  0  0  0  0
   14.3430   -6.2446   76.0163 H   0  0  0  0  0  0
   13.1927   -6.5207   74.7630 H   0  0  0  0  0  0
   13.8467   -5.4019   72.3462 H   0  0  0  0  0  0
   14.3584   -3.1705   71.4218 H   0  0  0  0  0  0
   15.7873   -1.8910   75.2821 H   0  0  0  0  0  0
   15.2740   -4.1153   76.2138 H   0  0  0  0  0  0
   16.0378   -0.6590   73.3426 H   0  0  0  0  0  0
   15.3072   -7.9145   77.0318 H   0  0  0  0  0  0
   16.0667   -9.4886   76.7573 H   0  0  0  0  0  0
   16.7271   -8.3517   77.9561 H   0  0  0  0  0  0
   19.1643   -6.1594   75.4874 H   0  0  0  0  0  0
   20.3957   -6.9370   76.4040 H   0  0  0  0  0  0
   17.8675   -5.7631   77.6158 H   0  0  0  0  0  0
   19.4495   -5.0454   77.6133 H   0  0  0  0  0  0
   20.3372   -7.0580   78.9162 H   0  0  0  0  0  0
   18.7012   -7.6716   79.0294 H   0  0  0  0  0  0
   18.9162   -4.9622   79.9497 H   0  0  0  0  0  0
   17.5384  -12.6258   74.2110 H   0  0  0  0  0  0
   18.6563  -12.5195   75.5337 H   0  0  0  0  0  0
   20.2462  -13.5379   73.4007 H   0  0  0  0  0  0
   18.6995  -14.3084   73.2101 H   0  0  0  0  0  0
   20.0862  -15.7048   74.6493 H   0  0  0  0  0  0
   18.8072  -15.0494   75.6480 H   0  0  0  0  0  0
   20.3519  -13.4691   76.5598 H   0  0  0  0  0  0
   23.6711  -15.1498   75.1569 H   0  0  0  0  0  0
   23.6155  -13.1220   76.2521 H   0  0  0  0  0  0
   22.1775  -12.5951   76.8228 H   0  0  0  0  0  0
   19.9077   -7.9025   82.5989 H   0  0  0  0  0  0
   19.9142   -8.1916   80.9053 H   0  0  0  0  0  0
   19.2418   -5.8424   83.2893 H   0  0  0  0  0  0
  1 15  1  0  0  0
  1  2  1  0  0  0
  1 44  1  0  0  0
  1 55  1  0  0  0
  2  3  1  0  0  0
  2 51  2  0  0  0
  3  4  1  0  0  0
  3 56  1  0  0  0
  4 16  1  0  0  0
  4  5  1  0  0  0
  4 57  1  0  0  0
  5 27  2  0  0  0
  5  6  1  0  0  0
  6  7  1  0  0  0
  6 58  1  0  0  0
  7  8  1  0  0  0
  7 59  1  0  0  0
  7 60  1  0  0  0
  8 28  2  0  0  0
  8  9  1  0  0  0
  9 10  1  0  0  0
  9 61  1  0  0  0
 10 29  1  0  0  0
 10 11  1  0  0  0
 10 62  1  0  0  0
 11 12  1  0  0  0
 11 37  2  0  0  0
 12 13  1  0  0  0
 12 38  1  0  0  0
 13 14  1  0  0  0
 13 39  1  0  0  0
 13 63  1  0  0  0
 14 15  1  0  0  0
 14 43  2  0  0  0
 15 64  1  0  0  0
 16 17  1  0  0  0
 16 65  1  0  0  0
 16 66  1  0  0  0
 17 18  2  0  0  0
 17 20  1  0  0  0
 18 19  1  0  0  0
 18 67  1  0  0  0
 19 22  2  0  0  0
 19 68  1  0  0  0
 20 21  2  0  0  0
 20 69  1  0  0  0
 21 26  1  0  0  0
 21 22  1  0  0  0
 22 23  1  0  0  0
 23 24  2  0  0  0
 23 70  1  0  0  0
 24 25  1  0  0  0
 24 71  1  0  0  0
 25 26  2  0  0  0
 25 72  1  0  0  0
 26 73  1  0  0  0
 29 30  1  0  0  0
 29 74  1  0  0  0
 29 75  1  0  0  0
 30 31  2  0  0  0
 30 35  1  0  0  0
 31 32  1  0  0  0
 31 76  1  0  0  0
 32 33  2  0  0  0
 32 77  1  0  0  0
 33 34  1  0  0  0
 33 36  1  0  0  0
 34 35  2  0  0  0
 34 78  1  0  0  0
 35 79  1  0  0  0
 36 80  1  0  0  0
 38 81  1  0  0  0
 38 82  1  0  0  0
 38 83  1  0  0  0
 39 40  1  0  0  0
 39 84  1  0  0  0
 39 85  1  0  0  0
 40 41  1  0  0  0
 40 86  1  0  0  0
 40 87  1  0  0  0
 41 42  1  0  0  0
 41 88  1  0  0  0
 41 89  1  0  0  0
 42 52  1  0  0  0
 42 90  1  0  0  0
 44 45  1  0  0  0
 44 91  1  0  0  0
 44 92  1  0  0  0
 45 46  1  0  0  0
 45 93  1  0  0  0
 45 94  1  0  0  0
 46 47  1  0  0  0
 46 95  1  0  0  0
 46 96  1  0  0  0
 47 48  1  0  0  0
 47 97  1  0  0  0
 48 49  2  0  0  0
 48 50  1  0  0  0
 49 98  1  0  0  0
 50 99  1  0  0  0
 50100  1  0  0  0
 52 53  1  0  0  0
 52 54  2  0  0  0
 53101  1  0  0  0
 53102  1  0  0  0
 54103  1  0  0  0
M  END
> <s_m_entry_id>
39027

> <s_m_entry_name>
dock_pv.10

> <s_m_Source_Path>
/home/csk/Desktop/cluster/DUD-E-result/cxcr4

> <s_m_Source_File>
dock_pv.maegz

> <i_m_Source_File_Index>
10

> <chembl_id>
CHEMBL1949730

> <chembl_pref_name>
None

> <i_lp_mmshare_version>
53161

> <i_f3d_flags>
0

> <r_lp_tautomer_probability>
0.999999999997365

> <s_lp_Force_Field>
OPLS_2005

> <r_lp_Energy>
25.759573

> <b_lp_Chiralities_Consistent>
1

> <s_lp_Variant>
CHEMBL2107_lig311-1

> <s_i_glide_gridfile>
glide-grid_3odu

> <i_i_glide_lignum>
399

> <i_i_glide_rotatable_bonds>
15

> <r_i_docking_score>
-7.72193264065582

> <r_i_glide_ligand_efficiency>
-0.142998752604737

> <r_i_glide_ligand_efficiency_sa>
-0.54050141482757

> <r_i_glide_ligand_efficiency_ln>
-1.54779661922824

> <r_i_glide_gscore>
-7.72193264065582

> <r_i_glide_lipo>
-2.25200450387755

> <r_i_glide_hbond>
-0.646671443873171

> <r_i_glide_metal>
0

> <r_i_glide_rewards>
-0.175715206531696

> <r_i_glide_evdw>
-60.2032356262207

> <r_i_glide_ecoul>
-12.6625890731812

> <r_i_glide_erotb>
0.35607604797874

> <r_i_glide_esite>
-0.0940673920639424

> <r_i_glide_emodel>
-100.662088242414

> <r_i_glide_energy>
-72.8658246994019

> <r_i_glide_einternal>
9.74079895019531

> <i_i_glide_confnum>
2

> <i_i_glide_posenum>
315

> <r_i_glide_eff_state_penalty>
0

> <s_user_duplicate_titles>
CHEMBL2107_lig311

> <s_m_subgroup_title>
dock_pv

> <s_m_subgroupid>
dock_pv

> <b_m_subgroup_collapsed>
0

$$$$
CHEMBL2107_lig139
                    3D
 Schrodinger Suite 2021-1.
 96 98  0  0  1  0            999 V2000
   19.0194  -10.7031   70.7397 N   0  0  0  0  0  0
   15.8297   -9.3103   69.7447 N   0  0  0  0  0  0
   22.2207   -9.4165   69.5589 N   0  0  0  0  0  0
   21.3327  -10.2821   70.0848 C   0  0  0  0  0  0
   17.6852  -10.5647   70.5969 C   0  0  0  0  0  0
   15.2209   -8.3895   68.9738 C   0  0  0  0  0  0
   20.1329   -9.7628   70.9253 C   0  0  2  0  0  0
   14.6950   -3.8067   75.1739 C   0  0  0  0  0  0
   18.0504   -8.6571   76.4433 C   0  0  0  0  0  0
   16.9216   -9.2235   70.7228 C   0  0  2  0  0  0
   23.6174   -7.3778   69.5402 C   0  0  0  0  0  0
   22.1828   -7.9530   69.5981 C   0  0  1  0  0  0
   15.7557   -6.4107   70.3136 N   0  0  0  0  0  0
   15.7036   -6.9330   68.9487 C   0  0  1  0  0  0
   15.3080   -5.2165   70.7278 C   0  0  0  0  0  0
   19.2190   -8.3668   77.1594 N   0  0  0  0  0  0
   13.5017   -4.1999   75.1408 N   0  0  0  0  0  0
   20.5878   -9.5818   72.4139 C   0  0  0  0  0  0
   21.4777  -11.4993   69.9570 O   0  0  0  0  0  0
   14.2564   -8.6899   68.2767 O   0  0  0  0  0  0
   17.0039  -11.5550   70.3571 O   0  0  0  0  0  0
   20.1140  -12.9610   74.2450 C   0  0  0  0  0  0
   15.4188   -4.9702   72.2365 C   0  0  0  0  0  0
   20.8670  -10.8684   73.2097 C   0  0  0  0  0  0
   19.8474  -11.7801   73.5068 C   0  0  0  0  0  0
   24.4421   -7.8318   68.7480 O   0  0  0  0  0  0
   14.8635   -4.3559   69.9644 O   0  0  0  0  0  0
   15.4559   -3.3365   74.0737 N   0  0  0  0  0  0
   17.6389   -7.8963   75.5117 N   0  0  0  0  0  0
   21.4401  -13.1998   74.7153 C   0  0  0  0  0  0
   17.4609   -9.8537   76.8987 N   0  0  0  0  0  0
   15.4538   -3.8130   76.3521 N   0  0  0  0  0  0
   19.9805   -5.6317   69.6591 C   0  0  0  0  0  0
   18.6547   -5.4479   69.5459 C   0  0  0  0  0  0
   23.9042   -6.3560   70.3519 N   0  0  0  0  0  0
   22.4481  -12.2484   74.4323 C   0  0  0  0  0  0
   15.0175   -3.5499   72.6994 C   0  0  0  0  0  0
   22.1563  -11.1096   73.6888 C   0  0  0  0  0  0
   16.2818   -9.0550   72.1297 C   0  0  0  0  0  0
   21.3264   -7.4154   68.4305 C   0  0  0  0  0  0
   17.0249   -6.8423   68.1401 C   0  0  0  0  0  0
   19.0997  -13.9107   74.5305 C   0  0  0  0  0  0
   20.9586   -5.9291   68.5344 C   0  0  0  0  0  0
   17.8182   -5.5329   68.2746 C   0  0  0  0  0  0
   16.6021   -8.3204   74.5834 C   0  0  0  0  0  0
   21.7102  -14.3801   75.4524 C   0  0  0  0  0  0
   17.2647   -8.6961   73.2484 C   0  0  0  0  0  0
   19.3974  -15.0589   75.2618 C   0  0  0  0  0  0
   20.6911  -15.2923   75.7187 C   0  0  0  0  0  0
   19.3595  -11.6449   70.6011 H   0  0  0  0  0  0
   15.5434  -10.2701   69.5969 H   0  0  0  0  0  0
   23.0309   -9.7922   69.0842 H   0  0  0  0  0  0
   19.8174   -8.8001   70.5290 H   0  0  0  0  0  0
   17.5862   -8.3934   70.4894 H   0  0  0  0  0  0
   21.7375   -7.6419   70.5435 H   0  0  0  0  0  0
   16.1012   -7.0637   71.0020 H   0  0  0  0  0  0
   14.9488   -6.3640   68.4006 H   0  0  0  0  0  0
   19.5796   -7.4279   77.0870 H   0  0  0  0  0  0
   19.2793   -8.7096   78.1100 H   0  0  0  0  0  0
   13.1772   -4.4884   76.0514 H   0  0  0  0  0  0
   19.8737   -8.9877   72.9693 H   0  0  0  0  0  0
   21.4821   -8.9568   72.4409 H   0  0  0  0  0  0
   16.4542   -5.1626   72.5294 H   0  0  0  0  0  0
   14.8031   -5.7049   72.7576 H   0  0  0  0  0  0
   18.8366  -11.6064   73.1719 H   0  0  0  0  0  0
   16.4662   -3.3747   74.1856 H   0  0  0  0  0  0
   16.7814  -10.2903   76.2918 H   0  0  0  0  0  0
   18.0989  -10.5504   77.2720 H   0  0  0  0  0  0
   15.1228   -4.3329   77.1473 H   0  0  0  0  0  0
   16.4602   -3.8838   76.2470 H   0  0  0  0  0  0
   20.4251   -5.5289   70.6388 H   0  0  0  0  0  0
   18.1166   -5.2087   70.4511 H   0  0  0  0  0  0
   24.8348   -5.9704   70.3378 H   0  0  0  0  0  0
   23.2278   -6.0147   71.0206 H   0  0  0  0  0  0
   23.4530  -12.4089   74.7924 H   0  0  0  0  0  0
   15.5305   -2.8036   72.0904 H   0  0  0  0  0  0
   13.9501   -3.3654   72.5586 H   0  0  0  0  0  0
   22.9503  -10.4004   73.4954 H   0  0  0  0  0  0
   15.7707   -9.9811   72.4020 H   0  0  0  0  0  0
   15.4909   -8.3072   72.0961 H   0  0  0  0  0  0
   20.4106   -7.9987   68.3290 H   0  0  0  0  0  0
   21.8712   -7.5739   67.4998 H   0  0  0  0  0  0
   16.7606   -6.9667   67.0872 H   0  0  0  0  0  0
   17.6873   -7.6851   68.3490 H   0  0  0  0  0  0
   18.0950  -13.7388   74.1694 H   0  0  0  0  0  0
   21.8456   -5.3104   68.6736 H   0  0  0  0  0  0
   20.5531   -5.6011   67.5788 H   0  0  0  0  0  0
   17.1408   -4.6838   68.2261 H   0  0  0  0  0  0
   18.4547   -5.4288   67.3987 H   0  0  0  0  0  0
   15.9091   -7.4896   74.4449 H   0  0  0  0  0  0
   15.9988   -9.1541   74.9438 H   0  0  0  0  0  0
   22.7149  -14.5681   75.8038 H   0  0  0  0  0  0
   17.8969   -9.5626   73.4327 H   0  0  0  0  0  0
   17.8993   -7.8716   72.9201 H   0  0  0  0  0  0
   18.6188  -15.7767   75.4731 H   0  0  0  0  0  0
   20.9056  -16.1900   76.2805 H   0  0  0  0  0  0
  1  5  1  0  0  0
  1  7  1  0  0  0
  1 50  1  0  0  0
  2 10  1  0  0  0
  2  6  1  0  0  0
  2 51  1  0  0  0
  3  4  1  0  0  0
  3 12  1  0  0  0
  3 52  1  0  0  0
  4  7  1  0  0  0
  4 19  2  0  0  0
  5 10  1  0  0  0
  5 21  2  0  0  0
  6 14  1  0  0  0
  6 20  2  0  0  0
  7 18  1  0  0  0
  7 53  1  0  0  0
  8 28  1  0  0  0
  8 17  2  0  0  0
  8 32  1  0  0  0
  9 29  2  0  0  0
  9 16  1  0  0  0
  9 31  1  0  0  0
 10 39  1  0  0  0
 10 54  1  0  0  0
 11 12  1  0  0  0
 11 26  2  0  0  0
 11 35  1  0  0  0
 12 40  1  0  0  0
 12 55  1  0  0  0
 13 14  1  0  0  0
 13 15  1  0  0  0
 13 56  1  0  0  0
 14 41  1  0  0  0
 14 57  1  0  0  0
 15 23  1  0  0  0
 15 27  2  0  0  0
 16 58  1  0  0  0
 16 59  1  0  0  0
 17 60  1  0  0  0
 18 24  1  0  0  0
 18 61  1  0  0  0
 18 62  1  0  0  0
 22 25  2  0  0  0
 22 42  1  0  0  0
 22 30  1  0  0  0
 23 37  1  0  0  0
 23 63  1  0  0  0
 23 64  1  0  0  0
 24 25  1  0  0  0
 24 38  2  0  0  0
 25 65  1  0  0  0
 28 37  1  0  0  0
 28 66  1  0  0  0
 29 45  1  0  0  0
 30 36  2  0  0  0
 30 46  1  0  0  0
 31 67  1  0  0  0
 31 68  1  0  0  0
 32 69  1  0  0  0
 32 70  1  0  0  0
 33 43  1  0  0  0
 33 34  2  0  0  0
 33 71  1  0  0  0
 34 44  1  0  0  0
 34 72  1  0  0  0
 35 73  1  0  0  0
 35 74  1  0  0  0
 36 38  1  0  0  0
 36 75  1  0  0  0
 37 76  1  0  0  0
 37 77  1  0  0  0
 38 78  1  0  0  0
 39 47  1  0  0  0
 39 79  1  0  0  0
 39 80  1  0  0  0
 40 43  1  0  0  0
 40 81  1  0  0  0
 40 82  1  0  0  0
 41 44  1  0  0  0
 41 83  1  0  0  0
 41 84  1  0  0  0
 42 48  2  0  0  0
 42 85  1  0  0  0
 43 86  1  0  0  0
 43 87  1  0  0  0
 44 88  1  0  0  0
 44 89  1  0  0  0
 45 47  1  0  0  0
 45 90  1  0  0  0
 45 91  1  0  0  0
 46 49  2  0  0  0
 46 92  1  0  0  0
 47 93  1  0  0  0
 47 94  1  0  0  0
 48 49  1  0  0  0
 48 95  1  0  0  0
 49 96  1  0  0  0
M  END
> <s_m_entry_id>
39028

> <s_m_entry_name>
dock_pv.11

> <s_m_Source_Path>
/home/csk/Desktop/cluster/DUD-E-result/cxcr4

> <s_m_Source_File>
dock_pv.maegz

> <i_m_Source_File_Index>
11

> <chembl_id>
CHEMBL191949

> <chembl_pref_name>
None

> <i_lp_mmshare_version>
53161

> <i_f3d_flags>
0

> <r_lp_tautomer_probability>
1

> <s_lp_Force_Field>
OPLS_2005

> <r_lp_Energy>
23.179419

> <b_lp_Chiralities_Consistent>
1

> <s_lp_Variant>
CHEMBL2107_lig139-1

> <s_i_glide_gridfile>
glide-grid_3odu

> <i_i_glide_lignum>
162

> <i_i_glide_rotatable_bonds>
13

> <r_i_docking_score>
-7.67029414338718

> <r_i_glide_ligand_efficiency>
-0.156536615171167

> <r_i_glide_ligand_efficiency_sa>
-0.572815328980422

> <r_i_glide_ligand_efficiency_ln>
-1.5679836289877

> <r_i_glide_gscore>
-7.67029414338718

> <r_i_glide_lipo>
-1.26441085037929

> <r_i_glide_hbond>
-1.14602333268353

> <r_i_glide_metal>
0

> <r_i_glide_rewards>
-0.0540503182407496

> <r_i_glide_evdw>
-56.1543312072754

> <r_i_glide_ecoul>
-15.1017580032349

> <r_i_glide_erotb>
0.392420361478729

> <r_i_glide_esite>
-0.525249742713339

> <r_i_glide_emodel>
-103.362294776149

> <r_i_glide_energy>
-71.2560892105103

> <r_i_glide_einternal>
8.48950958251953

> <i_i_glide_confnum>
77

> <i_i_glide_posenum>
355

> <r_i_glide_eff_state_penalty>
0

> <s_user_duplicate_titles>
CHEMBL2107_lig139

> <s_m_subgroup_title>
dock_pv

> <s_m_subgroupid>
dock_pv

> <b_m_subgroup_collapsed>
0

$$$$
CHEMBL2107_lig951
                    3D
 Schrodinger Suite 2021-1.
100103  0  0  1  0            999 V2000
   16.9251   -8.0775   70.5838 C   0  0  1  0  0  0
   18.4203   -7.8921   70.2336 C   0  0  0  0  0  0
   19.1655   -7.3112   71.1830 N   0  0  0  0  0  0
   18.5238   -9.1477   74.7300 N   0  0  0  0  0  0
   17.1359   -8.8524   74.3533 C   0  0  2  0  0  0
   16.9467   -9.1163   72.8423 C   0  0  0  0  0  0
   16.7475   -8.0547   72.0436 N   0  0  0  0  0  0
   20.6039   -7.1239   71.2014 C   0  0  2  0  0  0
   21.0285   -7.1608   72.6750 C   0  0  0  0  0  0
   22.2566   -7.6365   72.9258 N   0  0  0  0  0  0
   21.2110   -9.4386   74.6579 N   0  0  0  0  0  0
   20.5106  -10.6060   75.1511 C   0  0  1  0  0  0
   18.9882  -10.3816   75.0283 C   0  0  0  0  0  0
   22.8866   -7.7204   74.2470 C   0  0  0  0  0  0
   22.3821   -8.9343   75.0473 C   0  0  0  0  0  0
   23.0564   -9.4162   75.9566 O   0  0  0  0  0  0
   20.2483   -6.7860   73.5513 O   0  0  0  0  0  0
   21.0052  -11.8353   74.3410 C   0  0  0  0  0  0
   20.6516  -11.8217   72.8561 C   0  0  0  0  0  0
   21.4763  -11.1669   71.9153 C   0  0  0  0  0  0
   21.0794  -11.0782   70.5647 C   0  0  0  0  0  0
   19.8561  -11.6402   70.1507 C   0  0  0  0  0  0
   19.0568  -12.3228   71.0743 C   0  0  0  0  0  0
   19.4550  -12.4245   72.4176 C   0  0  0  0  0  0
   19.4560  -11.5467   68.8531 O   0  0  0  0  0  0
   21.0166   -5.7823   70.5582 C   0  0  0  0  0  0
   21.5040   -5.9506   69.1178 C   0  0  0  0  0  0
   18.8548   -8.2857   69.1536 O   0  0  0  0  0  0
   17.0179  -10.2686   72.4222 O   0  0  0  0  0  0
   18.2607  -11.3591   75.1568 O   0  0  0  0  0  0
   16.7560   -7.4299   74.8460 C   0  0  0  0  0  0
   15.2796   -7.0015   74.6529 C   0  0  0  0  0  0
   14.2494   -8.0906   75.0077 C   0  0  0  0  0  0
   12.8831   -7.6151   74.8810 N   0  0  0  0  0  0
   11.8739   -8.1412   74.0819 C   0  0  0  0  0  0
   10.6561   -7.5531   74.3552 N   0  0  0  0  0  0
   12.0179   -9.0518   73.2229 N   0  0  0  0  0  0
   16.0520   -6.9573   69.9762 C   0  0  0  0  0  0
   15.8790   -7.0284   68.4477 C   0  0  0  0  0  0
   14.9983   -5.8837   67.9229 C   0  0  0  0  0  0
   14.7309   -6.0094   66.5022 N   0  0  0  0  0  0
   14.1294   -5.0583   65.6918 C   0  0  0  0  0  0
   13.8559   -5.5545   64.4305 N   0  0  0  0  0  0
   13.8564   -3.8796   66.0493 N   0  0  0  0  0  0
   20.6688   -5.5619   68.0656 C   0  0  0  0  0  0
   21.1306   -5.5342   66.7566 C   0  0  0  0  0  0
   22.4468   -5.8710   66.4734 C   0  0  0  0  0  0
   22.8476   -6.3518   68.8486 C   0  0  0  0  0  0
   23.3082   -6.3264   67.4967 C   0  0  0  0  0  0
   24.6209   -6.7551   67.1990 C   0  0  0  0  0  0
   25.4554   -7.2259   68.2033 C   0  0  0  0  0  0
   25.0398   -7.2013   69.5259 C   0  0  0  0  0  0
   23.7660   -6.7558   69.8563 C   0  0  0  0  0  0
   16.5998   -9.0418   70.1837 H   0  0  0  0  0  0
   18.7196   -7.0369   72.0458 H   0  0  0  0  0  0
   19.1671   -8.3690   74.6731 H   0  0  0  0  0  0
   16.4983   -9.5549   74.8783 H   0  0  0  0  0  0
   16.6506   -7.1424   72.4651 H   0  0  0  0  0  0
   21.0884   -7.9659   70.7001 H   0  0  0  0  0  0
   22.8255   -8.0013   72.1699 H   0  0  0  0  0  0
   20.7576   -8.9778   73.8817 H   0  0  0  0  0  0
   20.7359  -10.7495   76.2099 H   0  0  0  0  0  0
   22.6994   -6.7918   74.7813 H   0  0  0  0  0  0
   23.9624   -7.8000   74.1217 H   0  0  0  0  0  0
   20.5840  -12.7395   74.7835 H   0  0  0  0  0  0
   22.0867  -11.9416   74.4464 H   0  0  0  0  0  0
   22.4044  -10.7103   72.2312 H   0  0  0  0  0  0
   21.7031  -10.5599   69.8506 H   0  0  0  0  0  0
   18.1260  -12.7544   70.7511 H   0  0  0  0  0  0
   18.8042  -12.9236   73.1204 H   0  0  0  0  0  0
   18.5044  -11.5548   68.6586 H   0  0  0  0  0  0
   21.7865   -5.2585   71.1384 H   0  0  0  0  0  0
   20.1779   -5.0819   70.5768 H   0  0  0  0  0  0
   17.4143   -6.6786   74.4051 H   0  0  0  0  0  0
   16.9626   -7.3892   75.9177 H   0  0  0  0  0  0
   15.1125   -6.6703   73.6281 H   0  0  0  0  0  0
   15.0983   -6.1217   75.2710 H   0  0  0  0  0  0
   14.4029   -8.4360   76.0300 H   0  0  0  0  0  0
   14.3758   -8.9541   74.3554 H   0  0  0  0  0  0
   12.6260   -6.8551   75.4941 H   0  0  0  0  0  0
    9.8718   -8.0721   73.9730 H   0  0  0  0  0  0
   10.4876   -7.3880   75.3356 H   0  0  0  0  0  0
   11.1442   -9.2918   72.7647 H   0  0  0  0  0  0
   16.4604   -5.9833   70.2505 H   0  0  0  0  0  0
   15.0599   -7.0030   70.4281 H   0  0  0  0  0  0
   15.4376   -7.9898   68.1791 H   0  0  0  0  0  0
   16.8495   -6.9924   67.9501 H   0  0  0  0  0  0
   15.4761   -4.9240   68.1128 H   0  0  0  0  0  0
   14.0402   -5.8749   68.4437 H   0  0  0  0  0  0
   14.8937   -6.9244   66.1024 H   0  0  0  0  0  0
   13.8653   -4.8496   63.7087 H   0  0  0  0  0  0
   14.4759   -6.3013   64.1407 H   0  0  0  0  0  0
   13.4284   -3.3344   65.3142 H   0  0  0  0  0  0
   19.6550   -5.2470   68.2705 H   0  0  0  0  0  0
   20.4686   -5.2211   65.9630 H   0  0  0  0  0  0
   22.8051   -5.8351   65.4543 H   0  0  0  0  0  0
   24.9624   -6.7549   66.1756 H   0  0  0  0  0  0
   26.4398   -7.5954   67.9555 H   0  0  0  0  0  0
   25.6990   -7.5428   70.3121 H   0  0  0  0  0  0
   23.4794   -6.7429   70.8930 H   0  0  0  0  0  0
  1  7  1  0  0  0
  1  2  1  0  0  0
  1 38  1  0  0  0
  1 54  1  0  0  0
  2  3  1  0  0  0
  2 28  2  0  0  0
  3  8  1  0  0  0
  3 55  1  0  0  0
  4  5  1  0  0  0
  4 13  1  0  0  0
  4 56  1  0  0  0
  5  6  1  0  0  0
  5 31  1  0  0  0
  5 57  1  0  0  0
  6  7  1  0  0  0
  6 29  2  0  0  0
  7 58  1  0  0  0
  8  9  1  0  0  0
  8 26  1  0  0  0
  8 59  1  0  0  0
  9 10  1  0  0  0
  9 17  2  0  0  0
 10 14  1  0  0  0
 10 60  1  0  0  0
 11 12  1  0  0  0
 11 15  1  0  0  0
 11 61  1  0  0  0
 12 13  1  0  0  0
 12 18  1  0  0  0
 12 62  1  0  0  0
 13 30  2  0  0  0
 14 15  1  0  0  0
 14 63  1  0  0  0
 14 64  1  0  0  0
 15 16  2  0  0  0
 18 19  1  0  0  0
 18 65  1  0  0  0
 18 66  1  0  0  0
 19 20  2  0  0  0
 19 24  1  0  0  0
 20 21  1  0  0  0
 20 67  1  0  0  0
 21 22  2  0  0  0
 21 68  1  0  0  0
 22 23  1  0  0  0
 22 25  1  0  0  0
 23 24  2  0  0  0
 23 69  1  0  0  0
 24 70  1  0  0  0
 25 71  1  0  0  0
 26 27  1  0  0  0
 26 72  1  0  0  0
 26 73  1  0  0  0
 27 45  2  0  0  0
 27 48  1  0  0  0
 31 32  1  0  0  0
 31 74  1  0  0  0
 31 75  1  0  0  0
 32 33  1  0  0  0
 32 76  1  0  0  0
 32 77  1  0  0  0
 33 34  1  0  0  0
 33 78  1  0  0  0
 33 79  1  0  0  0
 34 35  1  0  0  0
 34 80  1  0  0  0
 35 36  1  0  0  0
 35 37  2  0  0  0
 36 81  1  0  0  0
 36 82  1  0  0  0
 37 83  1  0  0  0
 38 39  1  0  0  0
 38 84  1  0  0  0
 38 85  1  0  0  0
 39 40  1  0  0  0
 39 86  1  0  0  0
 39 87  1  0  0  0
 40 41  1  0  0  0
 40 88  1  0  0  0
 40 89  1  0  0  0
 41 42  1  0  0  0
 41 90  1  0  0  0
 42 43  1  0  0  0
 42 44  2  0  0  0
 43 91  1  0  0  0
 43 92  1  0  0  0
 44 93  1  0  0  0
 45 46  1  0  0  0
 45 94  1  0  0  0
 46 47  2  0  0  0
 46 95  1  0  0  0
 47 49  1  0  0  0
 47 96  1  0  0  0
 48 49  1  0  0  0
 48 53  2  0  0  0
 49 50  2  0  0  0
 50 51  1  0  0  0
 50 97  1  0  0  0
 51 52  2  0  0  0
 51 98  1  0  0  0
 52 53  1  0  0  0
 52 99  1  0  0  0
 53100  1  0  0  0
M  END
> <s_m_entry_id>
39029

> <s_m_entry_name>
dock_pv.12

> <s_m_Source_Path>
/home/csk/Desktop/cluster/DUD-E-result/cxcr4

> <s_m_Source_File>
dock_pv.maegz

> <i_m_Source_File_Index>
12

> <chembl_id>
CHEMBL4173917

> <chembl_pref_name>
None

> <i_lp_mmshare_version>
53161

> <i_f3d_flags>
0

> <r_lp_tautomer_probability>
0.999999999997365

> <s_lp_Force_Field>
OPLS_2005

> <r_lp_Energy>
12.982928

> <b_lp_Chiralities_Consistent>
1

> <s_lp_Variant>
CHEMBL2107_lig951-1

> <s_i_glide_gridfile>
glide-grid_3odu

> <i_i_glide_lignum>
1017

> <i_i_glide_rotatable_bonds>
15

> <r_i_docking_score>
-7.60384948330597

> <r_i_glide_ligand_efficiency>
-0.143468858175584

> <r_i_glide_ligand_efficiency_sa>
-0.538910027426101

> <r_i_glide_ligand_efficiency_ln>
-1.52985973772951

> <r_i_glide_gscore>
-7.60384948330597

> <r_i_glide_lipo>
-2.1984784790188

> <r_i_glide_hbond>
-0.509934345154397

> <r_i_glide_metal>
0

> <r_i_glide_rewards>
-0.334138406041696

> <r_i_glide_evdw>
-54.2188873291016

> <r_i_glide_ecoul>
-13.3182802200317

> <r_i_glide_erotb>
0.38040240689453

> <r_i_glide_esite>
-0.233014260525767

> <r_i_glide_emodel>
-98.9399521131929

> <r_i_glide_energy>
-67.5371675491333

> <r_i_glide_einternal>
7.2712459564209

> <i_i_glide_confnum>
9

> <i_i_glide_posenum>
177

> <r_i_glide_eff_state_penalty>
0

> <s_user_duplicate_titles>
CHEMBL2107_lig951

> <s_m_subgroup_title>
dock_pv

> <s_m_subgroupid>
dock_pv

> <b_m_subgroup_collapsed>
0

$$$$
CHEMBL2107_lig128
                    3D
 Schrodinger Suite 2021-1.
 99102  0  0  1  0            999 V2000
   15.4362   -6.8936   76.4627 N   0  0  0  0  0  0
   13.1537   -8.3576   73.9304 N   0  0  0  0  0  0
   16.7107   -6.9869   76.8962 C   0  0  0  0  0  0
   13.6295   -7.9095   75.1054 C   0  0  0  0  0  0
   14.0338   -9.8025   72.1785 C   0  0  0  0  0  0
   17.9254   -6.7553   74.6878 N   0  0  0  0  0  0
   15.1992  -10.1796   71.6146 N   0  0  0  0  0  0
   17.8726   -7.4635   75.9753 C   0  0  1  0  0  0
   14.5984   -2.2163   73.5535 C   0  0  0  0  0  0
   15.1224   -6.9469   67.6429 C   0  0  0  0  0  0
   14.8843   -7.0086   75.1147 C   0  0  1  0  0  0
   13.8010   -8.3371   72.6136 C   0  0  1  0  0  0
   18.0741   -7.2671   73.4503 C   0  0  0  0  0  0
   14.4926   -5.8559   67.5570 N   0  0  0  0  0  0
   15.4565   -1.9789   74.6448 N   0  0  0  0  0  0
   16.9606   -6.7330   78.0737 O   0  0  0  0  0  0
   16.4762   -9.4527   71.5777 C   0  0  2  0  0  0
   13.0582   -8.1341   76.1685 O   0  0  0  0  0  0
   13.1116  -10.5995   72.3283 O   0  0  0  0  0  0
   19.2672   -7.3580   76.6585 C   0  0  0  0  0  0
   20.8483   -8.6268   69.5602 C   0  0  0  0  0  0
   19.7756   -9.4753   69.9351 C   0  0  0  0  0  0
   17.9602   -6.5446   72.4652 O   0  0  0  0  0  0
   18.4632   -8.9958   69.9569 C   0  0  0  0  0  0
   14.7004   -8.0826   68.3125 N   0  0  0  0  0  0
   13.5677   -2.9583   73.5362 N   0  0  0  0  0  0
   20.5730   -7.2749   69.1824 C   0  0  0  0  0  0
   15.0568   -1.5581   72.4022 N   0  0  0  0  0  0
   16.3675   -7.1492   67.0901 N   0  0  0  0  0  0
   19.2388   -6.8143   69.2164 C   0  0  0  0  0  0
   17.3087   -9.9143   70.3534 C   0  0  0  0  0  0
   20.3535   -8.1856   75.9858 C   0  0  0  0  0  0
   18.4096   -8.7550   73.2497 C   0  0  0  0  0  0
   18.2105   -7.6697   69.6035 C   0  0  0  0  0  0
   22.2071   -9.8246   74.6357 C   0  0  0  0  0  0
   17.2036   -9.6631   72.9314 C   0  0  0  0  0  0
   20.5138   -9.5349   76.3580 C   0  0  0  0  0  0
   21.1504   -7.6470   74.9528 C   0  0  0  0  0  0
   22.0797   -8.4669   74.2817 C   0  0  0  0  0  0
   21.4344  -10.3533   75.6851 C   0  0  0  0  0  0
   23.0572  -10.6438   73.9594 O   0  0  0  0  0  0
   12.8798   -7.5840   71.6252 C   0  0  0  0  0  0
   14.5890   -5.5916   74.5481 C   0  0  0  0  0  0
   22.1911   -9.0776   69.5539 C   0  0  0  0  0  0
   13.5680   -8.2338   69.2065 C   0  0  0  0  0  0
   13.0271   -3.4783   74.7841 C   0  0  0  0  0  0
   21.6376   -6.4323   68.7837 C   0  0  0  0  0  0
   13.5794   -7.1674   70.3152 C   0  0  0  0  0  0
   13.1742   -5.0106   74.8622 C   0  0  0  0  0  0
   23.2207   -8.2233   69.1570 C   0  0  0  0  0  0
   22.9441   -6.9139   68.7765 C   0  0  0  0  0  0
   14.7419   -6.6603   77.1564 H   0  0  0  0  0  0
   12.3128   -8.9172   73.9514 H   0  0  0  0  0  0
   17.8560   -5.7369   74.7622 H   0  0  0  0  0  0
   15.2452  -11.1286   71.2779 H   0  0  0  0  0  0
   17.6532   -8.5204   75.8121 H   0  0  0  0  0  0
   15.6067   -7.5260   74.5024 H   0  0  0  0  0  0
   14.7362   -7.7988   72.6557 H   0  0  0  0  0  0
   14.9751   -5.1694   67.0040 H   0  0  0  0  0  0
   15.4069   -2.6404   75.4055 H   0  0  0  0  0  0
   16.4227   -1.7757   74.4262 H   0  0  0  0  0  0
   16.2752   -8.3982   71.4204 H   0  0  0  0  0  0
   19.2080   -7.7167   77.6837 H   0  0  0  0  0  0
   19.5802   -6.3117   76.7251 H   0  0  0  0  0  0
   19.9866  -10.4955   70.2199 H   0  0  0  0  0  0
   15.3085   -8.8877   68.2547 H   0  0  0  0  0  0
   14.6396   -1.8778   71.5461 H   0  0  0  0  0  0
   16.0555   -1.4996   72.3006 H   0  0  0  0  0  0
   16.5491   -6.5813   66.2752 H   0  0  0  0  0  0
   16.5565   -8.1143   66.8385 H   0  0  0  0  0  0
   19.0160   -5.7904   68.9496 H   0  0  0  0  0  0
   17.6625  -10.9345   70.4916 H   0  0  0  0  0  0
   16.6566   -9.9520   69.4828 H   0  0  0  0  0  0
   18.8849   -9.1610   74.1350 H   0  0  0  0  0  0
   19.1875   -8.8352   72.4940 H   0  0  0  0  0  0
   17.2011   -7.2905   69.6400 H   0  0  0  0  0  0
   16.4934   -9.5717   73.7538 H   0  0  0  0  0  0
   17.5323  -10.7013   72.9830 H   0  0  0  0  0  0
   19.9101   -9.9530   77.1522 H   0  0  0  0  0  0
   21.0283   -6.6153   74.6502 H   0  0  0  0  0  0
   22.6725   -8.0568   73.4759 H   0  0  0  0  0  0
   21.5300  -11.3942   75.9633 H   0  0  0  0  0  0
   23.5694  -10.1754   73.2793 H   0  0  0  0  0  0
   12.5477   -6.6654   72.1098 H   0  0  0  0  0  0
   11.9685   -8.1462   71.4159 H   0  0  0  0  0  0
   14.7284   -5.6048   73.4662 H   0  0  0  0  0  0
   15.3517   -4.9029   74.9116 H   0  0  0  0  0  0
   22.4217  -10.0888   69.8620 H   0  0  0  0  0  0
   13.6391   -9.2359   69.6253 H   0  0  0  0  0  0
   12.6343   -8.2030   68.6408 H   0  0  0  0  0  0
   11.9666   -3.2138   74.8262 H   0  0  0  0  0  0
   13.4548   -3.0319   75.6820 H   0  0  0  0  0  0
   21.4312   -5.4139   68.4912 H   0  0  0  0  0  0
   13.0965   -6.2686   69.9318 H   0  0  0  0  0  0
   14.6008   -6.8688   70.5372 H   0  0  0  0  0  0
   12.4508   -5.4611   74.1835 H   0  0  0  0  0  0
   12.8647   -5.3096   75.8637 H   0  0  0  0  0  0
   24.2427   -8.5758   69.1689 H   0  0  0  0  0  0
   23.7560   -6.2562   68.4887 H   0  0  0  0  0  0
  1  3  1  0  0  0
  1 11  1  0  0  0
  1 52  1  0  0  0
  2  4  1  0  0  0
  2 12  1  0  0  0
  2 53  1  0  0  0
  3  8  1  0  0  0
  3 16  2  0  0  0
  4 11  1  0  0  0
  4 18  2  0  0  0
  5 12  1  0  0  0
  5  7  1  0  0  0
  5 19  2  0  0  0
  6  8  1  0  0  0
  6 13  1  0  0  0
  6 54  1  0  0  0
  7 17  1  0  0  0
  7 55  1  0  0  0
  8 20  1  0  0  0
  8 56  1  0  0  0
  9 26  2  0  0  0
  9 15  1  0  0  0
  9 28  1  0  0  0
 10 25  1  0  0  0
 10 14  2  0  0  0
 10 29  1  0  0  0
 11 43  1  0  0  0
 11 57  1  0  0  0
 12 42  1  0  0  0
 12 58  1  0  0  0
 13 23  2  0  0  0
 13 33  1  0  0  0
 14 59  1  0  0  0
 15 60  1  0  0  0
 15 61  1  0  0  0
 17 31  1  0  0  0
 17 36  1  0  0  0
 17 62  1  0  0  0
 20 32  1  0  0  0
 20 63  1  0  0  0
 20 64  1  0  0  0
 21 22  2  0  0  0
 21 44  1  0  0  0
 21 27  1  0  0  0
 22 24  1  0  0  0
 22 65  1  0  0  0
 24 31  1  0  0  0
 24 34  2  0  0  0
 25 45  1  0  0  0
 25 66  1  0  0  0
 26 46  1  0  0  0
 27 30  2  0  0  0
 27 47  1  0  0  0
 28 67  1  0  0  0
 28 68  1  0  0  0
 29 69  1  0  0  0
 29 70  1  0  0  0
 30 34  1  0  0  0
 30 71  1  0  0  0
 31 72  1  0  0  0
 31 73  1  0  0  0
 32 37  1  0  0  0
 32 38  2  0  0  0
 33 36  1  0  0  0
 33 74  1  0  0  0
 33 75  1  0  0  0
 34 76  1  0  0  0
 35 39  2  0  0  0
 35 41  1  0  0  0
 35 40  1  0  0  0
 36 77  1  0  0  0
 36 78  1  0  0  0
 37 40  2  0  0  0
 37 79  1  0  0  0
 38 39  1  0  0  0
 38 80  1  0  0  0
 39 81  1  0  0  0
 40 82  1  0  0  0
 41 83  1  0  0  0
 42 48  1  0  0  0
 42 84  1  0  0  0
 42 85  1  0  0  0
 43 49  1  0  0  0
 43 86  1  0  0  0
 43 87  1  0  0  0
 44 50  2  0  0  0
 44 88  1  0  0  0
 45 48  1  0  0  0
 45 89  1  0  0  0
 45 90  1  0  0  0
 46 49  1  0  0  0
 46 91  1  0  0  0
 46 92  1  0  0  0
 47 51  2  0  0  0
 47 93  1  0  0  0
 48 94  1  0  0  0
 48 95  1  0  0  0
 49 96  1  0  0  0
 49 97  1  0  0  0
 50 51  1  0  0  0
 50 98  1  0  0  0
 51 99  1  0  0  0
M  END
> <s_m_entry_id>
39030

> <s_m_entry_name>
dock_pv.13

> <s_m_Source_Path>
/home/csk/Desktop/cluster/DUD-E-result/cxcr4

> <s_m_Source_File>
dock_pv.maegz

> <i_m_Source_File_Index>
13

> <chembl_id>
CHEMBL191869

> <chembl_pref_name>
None

> <i_lp_mmshare_version>
53161

> <i_f3d_flags>
0

> <r_lp_tautomer_probability>
0.999999999997365

> <s_lp_Force_Field>
OPLS_2005

> <r_lp_Energy>
28.562405

> <b_lp_Chiralities_Consistent>
1

> <s_lp_Variant>
CHEMBL2107_lig128-1

> <s_i_glide_gridfile>
glide-grid_3odu

> <i_i_glide_lignum>
151

> <i_i_glide_rotatable_bonds>
14

> <r_i_docking_score>
-7.58341432587153

> <r_i_glide_ligand_efficiency>
-0.148694398546501

> <r_i_glide_ligand_efficiency_sa>
-0.551422733370275

> <r_i_glide_ligand_efficiency_ln>
-1.53764850799935

> <r_i_glide_gscore>
-7.58341432587153

> <r_i_glide_lipo>
-1.48359352889328

> <r_i_glide_hbond>
-0.66687926460482

> <r_i_glide_metal>
0

> <r_i_glide_rewards>
-0.217170630962852

> <r_i_glide_evdw>
-49.1319541931152

> <r_i_glide_ecoul>
-18.2443790435791

> <r_i_glide_erotb>
0.392150815787333

> <r_i_glide_esite>
-0.41466715100529

> <r_i_glide_emodel>
-99.745088787564

> <r_i_glide_energy>
-67.3763332366943

> <r_i_glide_einternal>
7.15099334716797

> <i_i_glide_confnum>
8

> <i_i_glide_posenum>
178

> <r_i_glide_eff_state_penalty>
0

> <s_user_duplicate_titles>
CHEMBL2107_lig128

> <s_m_subgroup_title>
dock_pv

> <s_m_subgroupid>
dock_pv

> <b_m_subgroup_collapsed>
0

$$$$
CHEMBL2107_lig124
                    3D
 Schrodinger Suite 2021-1.
 89 94  0  0  1  0            999 V2000
   20.4689  -10.9921   71.8424 N   0  0  0  0  0  0
   20.7358  -11.8238   70.8009 C   0  0  0  0  0  0
   19.6237   -9.9845   71.5337 C   0  0  0  0  0  0
   20.0641  -11.3209   69.7584 N   0  0  0  0  0  0
   19.2271  -10.2073   70.0969 C   0  0  2  0  0  0
   20.8442   -8.3137   69.1560 C   0  0  0  0  0  0
   21.3131  -10.8980   73.0497 C   0  0  0  0  0  0
   14.9017   -8.3306   73.7605 C   0  0  0  0  0  0
   23.0536   -7.8616   69.4288 N   0  0  0  0  0  0
   22.0172   -8.6667   69.8108 C   0  0  0  0  0  0
   15.2726   -7.4193   74.7714 N   0  0  0  0  0  0
   19.4404   -8.9293   69.2284 C   0  0  0  0  0  0
   21.2111   -7.1841   68.3364 C   0  0  0  0  0  0
   19.4133   -8.4737   75.2863 N   0  0  2  0  0  0
   20.5841  -11.1809   74.3937 C   0  0  1  0  0  0
   22.6106   -6.9494   68.4989 C   0  0  0  0  0  0
   21.5574  -12.7407   70.7570 O   0  0  0  0  0  0
   13.5873   -8.2129   73.4113 O   0  0  0  0  0  0
   16.6527   -7.4014   75.2947 C   0  0  0  0  0  0
   20.6133  -12.6687   74.7596 C   0  0  0  0  0  0
   19.2767   -9.0366   72.2295 O   0  0  0  0  0  0
   17.0825   -8.6640   76.0892 C   0  0  0  0  0  0
   17.7276   -6.9841   74.2624 C   0  0  0  0  0  0
   15.6537   -9.1555   73.2396 O   0  0  0  0  0  0
   19.4169  -13.3713   74.9367 C   0  0  0  0  0  0
   21.1186  -10.3033   75.5608 C   0  0  0  0  0  0
   19.1786   -7.1232   74.7634 C   0  0  0  0  0  0
   18.5794   -8.7208   76.4657 C   0  0  0  0  0  0
   20.8379   -8.7814   75.4580 C   0  0  0  0  0  0
   19.4324  -14.7084   75.3411 C   0  0  0  0  0  0
   12.9820   -9.0862   72.4491 C   0  0  0  0  0  0
   17.9468  -15.5551   75.5787 Cl  0  0  0  0  0  0
   13.3990   -8.7455   71.0225 C   0  0  0  0  0  0
   14.3191   -6.4753   75.3847 C   0  0  0  0  0  0
   21.8310  -13.3317   74.9726 C   0  0  0  0  0  0
   20.4967   -6.3550   67.4549 C   0  0  0  0  0  0
   21.8509  -14.6693   75.3685 C   0  0  0  0  0  0
   23.2948   -5.9551   67.7934 C   0  0  0  0  0  0
   20.6496  -15.3522   75.5637 C   0  0  0  0  0  0
   12.6704   -7.8117   70.2823 C   0  0  0  0  0  0
   14.5062   -9.3816   70.4518 C   0  0  0  0  0  0
   13.5432   -7.0893   76.5599 C   0  0  0  0  0  0
   21.1820   -5.3808   66.7309 C   0  0  0  0  0  0
   22.5491   -5.1873   66.8986 C   0  0  0  0  0  0
   14.8958   -9.0705   69.1540 C   0  0  0  0  0  0
   13.0505   -7.5134   68.9766 C   0  0  0  0  0  0
   14.1642   -8.1399   68.4202 C   0  0  0  0  0  0
   19.8515  -11.8568   68.9269 H   0  0  0  0  0  0
   18.1759  -10.5019   70.0679 H   0  0  0  0  0  0
   22.1942  -11.5350   72.9554 H   0  0  0  0  0  0
   21.7253   -9.8881   73.0680 H   0  0  0  0  0  0
   23.9848   -7.9732   69.8067 H   0  0  0  0  0  0
   22.2185   -9.4421   70.5366 H   0  0  0  0  0  0
   18.7502   -8.1640   69.5851 H   0  0  0  0  0  0
   19.0925   -9.1530   68.2197 H   0  0  0  0  0  0
   19.5349  -10.9023   74.2746 H   0  0  0  0  0  0
   16.7137   -6.6111   76.0431 H   0  0  0  0  0  0
   16.8849   -9.5569   75.5047 H   0  0  0  0  0  0
   16.4889   -8.7441   76.9985 H   0  0  0  0  0  0
   17.5519   -5.9558   73.9562 H   0  0  0  0  0  0
   17.6448   -7.5687   73.3517 H   0  0  0  0  0  0
   18.4704  -12.8758   74.7823 H   0  0  0  0  0  0
   20.7439  -10.6663   76.5164 H   0  0  0  0  0  0
   22.1970  -10.4410   75.6381 H   0  0  0  0  0  0
   19.4561   -6.3598   75.4965 H   0  0  0  0  0  0
   19.8282   -6.9726   73.9016 H   0  0  0  0  0  0
   18.7769   -9.7267   76.8338 H   0  0  0  0  0  0
   18.8417   -8.0406   77.2790 H   0  0  0  0  0  0
   21.2201   -8.2632   76.3402 H   0  0  0  0  0  0
   21.3884   -8.3865   74.6056 H   0  0  0  0  0  0
   13.2243  -10.1288   72.6700 H   0  0  0  0  0  0
   11.8961   -9.0092   72.5288 H   0  0  0  0  0  0
   14.8575   -5.5939   75.7273 H   0  0  0  0  0  0
   13.6152   -6.1084   74.6381 H   0  0  0  0  0  0
   22.7628  -12.8033   74.8450 H   0  0  0  0  0  0
   19.4342   -6.4977   67.3097 H   0  0  0  0  0  0
   22.7956  -15.1672   75.5379 H   0  0  0  0  0  0
   24.3519   -5.7859   67.9313 H   0  0  0  0  0  0
   20.6669  -16.3840   75.8892 H   0  0  0  0  0  0
   11.8118   -7.3189   70.7125 H   0  0  0  0  0  0
   15.0734  -10.1098   71.0152 H   0  0  0  0  0  0
   12.8409   -6.3619   76.9705 H   0  0  0  0  0  0
   12.9629   -7.9568   76.2428 H   0  0  0  0  0  0
   14.2138   -7.3862   77.3669 H   0  0  0  0  0  0
   20.6347   -4.7565   66.0361 H   0  0  0  0  0  0
   23.0385   -4.4099   66.3297 H   0  0  0  0  0  0
   15.7611   -9.5490   68.7213 H   0  0  0  0  0  0
   12.4841   -6.7997   68.3939 H   0  0  0  0  0  0
   14.4639   -7.9115   67.4066 H   0  0  0  0  0  0
  1  2  1  0  0  0
  1  3  1  0  0  0
  1  7  1  0  0  0
  2  4  1  0  0  0
  2 17  2  0  0  0
  3  5  1  0  0  0
  3 21  2  0  0  0
  4  5  1  0  0  0
  4 48  1  0  0  0
  5 12  1  0  0  0
  5 49  1  0  0  0
  6 12  1  0  0  0
  6 10  2  0  0  0
  6 13  1  0  0  0
  7 15  1  0  0  0
  7 50  1  0  0  0
  7 51  1  0  0  0
  8 11  1  0  0  0
  8 18  1  0  0  0
  8 24  2  0  0  0
  9 10  1  0  0  0
  9 16  1  0  0  0
  9 52  1  0  0  0
 10 53  1  0  0  0
 11 19  1  0  0  0
 11 34  1  0  0  0
 12 54  1  0  0  0
 12 55  1  0  0  0
 13 16  2  0  0  0
 13 36  1  0  0  0
 14 29  1  0  0  0
 14 27  1  0  0  0
 14 28  1  0  0  0
 15 20  1  0  0  0
 15 26  1  0  0  0
 15 56  1  0  0  0
 16 38  1  0  0  0
 18 31  1  0  0  0
 19 22  1  0  0  0
 19 23  1  0  0  0
 19 57  1  0  0  0
 20 25  2  0  0  0
 20 35  1  0  0  0
 22 28  1  0  0  0
 22 58  1  0  0  0
 22 59  1  0  0  0
 23 27  1  0  0  0
 23 60  1  0  0  0
 23 61  1  0  0  0
 25 30  1  0  0  0
 25 62  1  0  0  0
 26 29  1  0  0  0
 26 63  1  0  0  0
 26 64  1  0  0  0
 27 65  1  0  0  0
 27 66  1  0  0  0
 28 67  1  0  0  0
 28 68  1  0  0  0
 29 69  1  0  0  0
 29 70  1  0  0  0
 30 32  1  0  0  0
 30 39  2  0  0  0
 31 33  1  0  0  0
 31 71  1  0  0  0
 31 72  1  0  0  0
 33 40  1  0  0  0
 33 41  2  0  0  0
 34 42  1  0  0  0
 34 73  1  0  0  0
 34 74  1  0  0  0
 35 37  2  0  0  0
 35 75  1  0  0  0
 36 43  2  0  0  0
 36 76  1  0  0  0
 37 39  1  0  0  0
 37 77  1  0  0  0
 38 44  2  0  0  0
 38 78  1  0  0  0
 39 79  1  0  0  0
 40 46  2  0  0  0
 40 80  1  0  0  0
 41 45  1  0  0  0
 41 81  1  0  0  0
 42 82  1  0  0  0
 42 83  1  0  0  0
 42 84  1  0  0  0
 43 44  1  0  0  0
 43 85  1  0  0  0
 44 86  1  0  0  0
 45 47  2  0  0  0
 45 87  1  0  0  0
 46 47  1  0  0  0
 46 88  1  0  0  0
 47 89  1  0  0  0
M  END
> <s_m_entry_id>
39031

> <s_m_entry_name>
dock_pv.14

> <s_m_Source_Path>
/home/csk/Desktop/cluster/DUD-E-result/cxcr4

> <s_m_Source_File>
dock_pv.maegz

> <i_m_Source_File_Index>
14

> <chembl_id>
CHEMBL105975

> <chembl_pref_name>
None

> <i_lp_mmshare_version>
53161

> <i_f3d_flags>
0

> <r_lp_tautomer_probability>
0.999999999999794

> <s_lp_Force_Field>
OPLS_2005

> <r_lp_Energy>
53.289454

> <b_lp_Chiralities_Consistent>
1

> <s_lp_Variant>
CHEMBL2107_lig124-2

> <s_i_glide_gridfile>
glide-grid_3odu

> <i_i_glide_lignum>
145

> <i_i_glide_rotatable_bonds>
14

> <r_i_docking_score>
-7.47249520011508

> <r_i_glide_ligand_efficiency>
-0.158989259576917

> <r_i_glide_ligand_efficiency_sa>
-0.573764585686758

> <r_i_glide_ligand_efficiency_ln>
-1.5406737719653

> <r_i_glide_gscore>
-7.47249520011508

> <r_i_glide_lipo>
-3.302262961074

> <r_i_glide_hbond>
-0.32

> <r_i_glide_metal>
0

> <r_i_glide_rewards>
-0.068915974548376

> <r_i_glide_evdw>
-61.6874885559082

> <r_i_glide_ecoul>
-7.05167818069458

> <r_i_glide_erotb>
0.438208995768307

> <r_i_glide_esite>
-0.0773991053614136

> <r_i_glide_emodel>
-95.0542070701781

> <r_i_glide_energy>
-68.7391667366028

> <r_i_glide_einternal>
13.455738067627

> <i_i_glide_confnum>
4

> <i_i_glide_posenum>
310

> <r_i_glide_eff_state_penalty>
0

> <s_user_duplicate_titles>
CHEMBL2107_lig124

> <s_m_subgroup_title>
dock_pv

> <s_m_subgroupid>
dock_pv

> <b_m_subgroup_collapsed>
0

$$$$
CHEMBL2107_lig340
                    3D
 Schrodinger Suite 2021-1.
106109  0  0  1  0            999 V2000
   19.2575   -9.8538   74.6402 C   0  0  2  0  0  0
   20.2463  -10.3061   75.7538 C   0  0  0  0  0  0
   20.1497  -12.8001   75.1794 C   0  0  0  0  0  0
   20.9098  -11.6809   75.5570 C   0  0  0  0  0  0
   22.2608  -11.8480   75.8793 C   0  0  0  0  0  0
   22.8458  -13.1140   75.8258 C   0  0  0  0  0  0
   22.0769  -14.2173   75.4561 C   0  0  0  0  0  0
   20.7277  -14.0662   75.1485 C   0  0  0  0  0  0
   22.6536  -15.4502   75.3307 O   0  0  0  0  0  0
   23.2845  -11.9550   70.8930 N   0  0  0  0  0  0
   22.1156  -12.5933   71.3694 C   0  0  0  0  0  0
   22.2552  -13.0105   72.6862 N   0  0  0  0  0  0
   21.0420  -12.7546   70.7560 N   0  0  0  0  0  0
   21.6317   -9.4573   70.6022 C   0  0  0  0  0  0
   22.2122  -10.2049   69.3755 C   0  0  0  0  0  0
   23.3625  -11.2069   69.6381 C   0  0  0  0  0  0
   20.0776   -9.5984   70.7243 C   0  0  2  0  0  0
   22.8257   -6.6726   68.0232 N   0  0  0  0  0  0
   24.0262   -6.7700   68.7159 C   0  0  0  0  0  0
   24.7648   -7.8806   68.3574 N   0  0  0  0  0  0
   24.4161   -5.9461   69.5807 N   0  0  0  0  0  0
   18.9826   -5.9669   70.0343 C   0  0  1  0  0  0
   19.1179   -5.7312   68.4913 C   0  0  0  0  0  0
   20.3912   -6.2740   67.7868 C   0  0  0  0  0  0
   21.7331   -5.7679   68.3448 C   0  0  0  0  0  0
   17.1450   -6.7018   71.5513 N   0  0  0  0  0  0
   17.5135   -5.9106   70.5257 C   0  0  0  0  0  0
   16.7357   -5.1559   69.9565 O   0  0  0  0  0  0
   15.7951   -6.8041   72.1265 C   0  0  2  0  0  0
   15.9278   -7.2846   73.5850 C   0  0  0  0  0  0
   14.8155   -7.7043   71.3037 C   0  0  0  0  0  0
   14.5660   -7.1954   69.8879 C   0  0  0  0  0  0
   13.8375   -6.0200   69.6845 C   0  0  0  0  0  0
   15.0058   -7.3527   67.5128 C   0  0  0  0  0  0
   15.1274   -7.8640   68.8004 C   0  0  0  0  0  0
   14.3197   -6.1368   67.2829 C   0  0  0  0  0  0
   13.7251   -5.4560   68.3880 C   0  0  0  0  0  0
   13.0554   -4.2285   68.1571 C   0  0  0  0  0  0
   12.9663   -3.7035   66.8694 C   0  0  0  0  0  0
   13.5416   -4.3717   65.7939 C   0  0  0  0  0  0
   14.2113   -5.5756   65.9864 C   0  0  0  0  0  0
   16.6589   -6.5188   74.4136 N   0  0  0  0  0  0
   15.4243   -8.3550   73.9264 O   0  0  0  0  0  0
   19.6324   -7.2080   70.4601 N   0  0  0  0  0  0
   19.3168   -8.4501   70.0588 C   0  0  0  0  0  0
   18.4505   -8.6851   69.2187 O   0  0  0  0  0  0
   19.4630   -9.9048   72.1069 C   0  0  0  0  0  0
   19.9137   -9.4450   73.3101 C   0  0  0  0  0  0
   17.0549   -6.8849   75.7798 C   0  0  0  0  0  0
   18.3157   -7.7651   75.7402 C   0  0  0  0  0  0
   19.3468   -7.3976   76.3000 O   0  0  0  0  0  0
   18.2126   -8.9085   75.0433 N   0  0  0  0  0  0
   21.0489   -8.4310   73.4730 C   0  0  0  0  0  0
   18.2142  -10.7934   71.9965 C   0  0  0  0  0  0
   18.6443  -10.7304   74.4683 H   0  0  0  0  0  0
   21.0046   -9.5404   75.9168 H   0  0  0  0  0  0
   19.7053  -10.3519   76.6972 H   0  0  0  0  0  0
   19.0936  -12.7163   74.9774 H   0  0  0  0  0  0
   22.8526  -11.0001   76.1933 H   0  0  0  0  0  0
   23.8921  -13.2312   76.0666 H   0  0  0  0  0  0
   20.1340  -14.9244   74.8700 H   0  0  0  0  0  0
   23.6192  -15.4078   75.2979 H   0  0  0  0  0  0
   23.9914  -11.6863   71.5621 H   0  0  0  0  0  0
   21.4317  -13.2855   73.1954 H   0  0  0  0  0  0
   22.8850  -12.4878   73.2769 H   0  0  0  0  0  0
   20.3311  -13.1993   71.3187 H   0  0  0  0  0  0
   22.1021   -9.8198   71.5121 H   0  0  0  0  0  0
   21.9574   -8.4172   70.5490 H   0  0  0  0  0  0
   22.5418   -9.4693   68.6459 H   0  0  0  0  0  0
   21.4271  -10.7557   68.8588 H   0  0  0  0  0  0
   24.3026  -10.6616   69.6649 H   0  0  0  0  0  0
   23.4416  -11.9169   68.8141 H   0  0  0  0  0  0
   19.8124  -10.4806   70.1418 H   0  0  0  0  0  0
   22.6072   -7.4126   67.3727 H   0  0  0  0  0  0
   25.1739   -8.3558   69.1489 H   0  0  0  0  0  0
   24.2580   -8.5636   67.8134 H   0  0  0  0  0  0
   25.3103   -6.1732   69.9893 H   0  0  0  0  0  0
   19.4977   -5.1515   70.5449 H   0  0  0  0  0  0
   19.0284   -4.6621   68.2944 H   0  0  0  0  0  0
   18.2627   -6.1870   67.9878 H   0  0  0  0  0  0
   20.3382   -6.0236   66.7271 H   0  0  0  0  0  0
   20.3735   -7.3624   67.8083 H   0  0  0  0  0  0
   21.6940   -5.6899   69.4301 H   0  0  0  0  0  0
   21.9607   -4.7749   67.9570 H   0  0  0  0  0  0
   17.8395   -7.3144   71.9540 H   0  0  0  0  0  0
   15.3750   -5.7982   72.1793 H   0  0  0  0  0  0
   13.8472   -7.7742   71.8037 H   0  0  0  0  0  0
   15.2034   -8.7243   71.2523 H   0  0  0  0  0  0
   13.4061   -5.4973   70.5250 H   0  0  0  0  0  0
   15.4537   -7.8792   66.6834 H   0  0  0  0  0  0
   15.6979   -8.7710   68.9475 H   0  0  0  0  0  0
   12.5960   -3.7108   68.9862 H   0  0  0  0  0  0
   12.4389   -2.7757   66.7016 H   0  0  0  0  0  0
   13.4683   -3.9558   64.7997 H   0  0  0  0  0  0
   14.6562   -6.0924   65.1483 H   0  0  0  0  0  0
   17.0560   -5.6470   74.0784 H   0  0  0  0  0  0
   20.3610   -7.0963   71.1487 H   0  0  0  0  0  0
   16.2520   -7.4136   76.2949 H   0  0  0  0  0  0
   17.2559   -5.9766   76.3498 H   0  0  0  0  0  0
   17.3011   -9.0926   74.6424 H   0  0  0  0  0  0
   20.8359   -7.7182   74.2672 H   0  0  0  0  0  0
   21.9773   -8.9421   73.7299 H   0  0  0  0  0  0
   21.2298   -7.8303   72.5876 H   0  0  0  0  0  0
   17.7376  -10.7128   71.0184 H   0  0  0  0  0  0
   18.4850  -11.8398   72.1371 H   0  0  0  0  0  0
   17.4408  -10.5301   72.7174 H   0  0  0  0  0  0
  1  2  1  0  0  0
  1 48  1  0  0  0
  1 52  1  0  0  0
  1 55  1  0  0  0
  2  4  1  0  0  0
  2 56  1  0  0  0
  2 57  1  0  0  0
  3  8  1  0  0  0
  3  4  2  0  0  0
  3 58  1  0  0  0
  4  5  1  0  0  0
  5  6  2  0  0  0
  5 59  1  0  0  0
  6  7  1  0  0  0
  6 60  1  0  0  0
  7  8  2  0  0  0
  7  9  1  0  0  0
  8 61  1  0  0  0
  9 62  1  0  0  0
 10 11  1  0  0  0
 10 16  1  0  0  0
 10 63  1  0  0  0
 11 12  1  0  0  0
 11 13  2  0  0  0
 12 64  1  0  0  0
 12 65  1  0  0  0
 13 66  1  0  0  0
 14 17  1  0  0  0
 14 15  1  0  0  0
 14 67  1  0  0  0
 14 68  1  0  0  0
 15 16  1  0  0  0
 15 69  1  0  0  0
 15 70  1  0  0  0
 16 71  1  0  0  0
 16 72  1  0  0  0
 17 45  1  0  0  0
 17 47  1  0  0  0
 17 73  1  0  0  0
 18 19  1  0  0  0
 18 25  1  0  0  0
 18 74  1  0  0  0
 19 20  1  0  0  0
 19 21  2  0  0  0
 20 75  1  0  0  0
 20 76  1  0  0  0
 21 77  1  0  0  0
 22 44  1  0  0  0
 22 23  1  0  0  0
 22 27  1  0  0  0
 22 78  1  0  0  0
 23 24  1  0  0  0
 23 79  1  0  0  0
 23 80  1  0  0  0
 24 25  1  0  0  0
 24 81  1  0  0  0
 24 82  1  0  0  0
 25 83  1  0  0  0
 25 84  1  0  0  0
 26 29  1  0  0  0
 26 27  1  0  0  0
 26 85  1  0  0  0
 27 28  2  0  0  0
 29 30  1  0  0  0
 29 31  1  0  0  0
 29 86  1  0  0  0
 30 42  1  0  0  0
 30 43  2  0  0  0
 31 32  1  0  0  0
 31 87  1  0  0  0
 31 88  1  0  0  0
 32 33  2  0  0  0
 32 35  1  0  0  0
 33 37  1  0  0  0
 33 89  1  0  0  0
 34 36  1  0  0  0
 34 35  2  0  0  0
 34 90  1  0  0  0
 35 91  1  0  0  0
 36 37  1  0  0  0
 36 41  2  0  0  0
 37 38  2  0  0  0
 38 39  1  0  0  0
 38 92  1  0  0  0
 39 40  2  0  0  0
 39 93  1  0  0  0
 40 41  1  0  0  0
 40 94  1  0  0  0
 41 95  1  0  0  0
 42 49  1  0  0  0
 42 96  1  0  0  0
 44 45  1  0  0  0
 44 97  1  0  0  0
 45 46  2  0  0  0
 47 48  2  0  0  0
 47 54  1  0  0  0
 48 53  1  0  0  0
 49 50  1  0  0  0
 49 98  1  0  0  0
 49 99  1  0  0  0
 50 51  2  0  0  0
 50 52  1  0  0  0
 52100  1  0  0  0
 53101  1  0  0  0
 53102  1  0  0  0
 53103  1  0  0  0
 54104  1  0  0  0
 54105  1  0  0  0
 54106  1  0  0  0
M  END
> <s_m_entry_id>
39032

> <s_m_entry_name>
dock_pv.15

> <s_m_Source_Path>
/home/csk/Desktop/cluster/DUD-E-result/cxcr4

> <s_m_Source_File>
dock_pv.maegz

> <i_m_Source_File_Index>
15

> <chembl_id>
CHEMBL2029610

> <chembl_pref_name>
None

> <i_lp_mmshare_version>
53161

> <i_f3d_flags>
0

> <r_lp_tautomer_probability>
0.999999999997365

> <s_lp_Force_Field>
OPLS_2005

> <r_lp_Energy>
11.385766

> <b_lp_Chiralities_Consistent>
1

> <s_lp_Variant>
CHEMBL2107_lig340-1

> <s_i_glide_gridfile>
glide-grid_3odu

> <i_i_glide_lignum>
408

> <i_i_glide_rotatable_bonds>
15

> <r_i_docking_score>
-7.42290382460849

> <r_i_glide_ligand_efficiency>
-0.137461181937194

> <r_i_glide_ligand_efficiency_sa>
-0.519570709307447

> <r_i_glide_ligand_efficiency_ln>
-1.48785880157712

> <r_i_glide_gscore>
-7.42290382460849

> <r_i_glide_lipo>
-1.56518912559831

> <r_i_glide_hbond>
-0.692317666497551

> <r_i_glide_metal>
0

> <r_i_glide_rewards>
-0.0356335306902702

> <r_i_glide_evdw>
-64.3604431152344

> <r_i_glide_ecoul>
-13.7536897659302

> <r_i_glide_erotb>
0.361086580406697

> <r_i_glide_esite>
-0.209774461577817

> <r_i_glide_emodel>
-105.938418064424

> <r_i_glide_energy>
-78.1141328811646

> <r_i_glide_einternal>
14.1841325759888

> <i_i_glide_confnum>
3

> <i_i_glide_posenum>
376

> <r_i_glide_eff_state_penalty>
0

> <s_user_duplicate_titles>
CHEMBL2107_lig340

> <s_m_subgroup_title>
dock_pv

> <s_m_subgroupid>
dock_pv

> <b_m_subgroup_collapsed>
0

$$$$
CHEMBL2107_lig130
                    3D
 Schrodinger Suite 2021-1.
 97100  0  0  1  0            999 V2000
   15.9471   -6.5350   76.4982 N   0  0  0  0  0  0
   14.2411   -8.2175   73.6692 N   0  0  0  0  0  0
   17.0534   -7.1795   76.9164 C   0  0  0  0  0  0
   14.4320   -7.7763   74.9318 C   0  0  0  0  0  0
   14.7567   -8.9822   71.4100 C   0  0  0  0  0  0
   18.3003   -7.1549   74.7289 N   0  0  0  0  0  0
   15.8182   -9.3439   70.6582 N   0  0  0  0  0  0
   18.0114   -7.9325   75.9467 C   0  0  1  0  0  0
   18.3954   -7.5729   73.4538 C   0  0  0  0  0  0
   15.7904   -6.0643   67.5011 C   0  0  0  0  0  0
   13.8352   -2.2163   72.5240 C   0  0  0  0  0  0
   15.2470   -6.4914   75.2090 C   0  0  1  0  0  0
   14.8494   -7.7983   72.3985 C   0  0  1  0  0  0
   18.2518   -8.9939   73.2022 C   0  0  0  0  0  0
   17.2195   -8.9450   70.8169 C   0  0  1  0  0  0
   17.7799   -9.5788   72.0835 C   0  0  0  0  0  0
   15.0688   -1.5556   72.3574 N   0  0  0  0  0  0
   15.7349   -4.8049   67.5412 N   0  0  0  0  0  0
   17.3206   -7.1608   78.1162 O   0  0  0  0  0  0
   13.9063   -8.3519   75.8860 O   0  0  0  0  0  0
   13.6750   -9.5548   71.3001 O   0  0  0  0  0  0
   19.3486   -8.3684   76.6311 C   0  0  0  0  0  0
   21.0307   -7.1345   68.6041 C   0  0  0  0  0  0
   19.7164   -7.6547   68.7151 C   0  0  0  0  0  0
   18.5766   -6.7577   72.5575 O   0  0  0  0  0  0
   19.4500   -8.7647   69.5211 C   0  0  0  0  0  0
   14.9683   -6.9270   68.2057 N   0  0  0  0  0  0
   13.4447   -2.8452   73.5527 N   0  0  0  0  0  0
   22.0815   -7.7435   69.3574 C   0  0  0  0  0  0
   13.0581   -2.1603   71.3573 N   0  0  0  0  0  0
   16.7284   -6.7543   66.7589 N   0  0  0  0  0  0
   21.7838   -8.8563   70.1795 C   0  0  0  0  0  0
   18.0363   -9.3443   69.5688 C   0  0  0  0  0  0
   20.3647   -9.1145   75.7742 C   0  0  0  0  0  0
   20.4846   -9.3565   70.2467 C   0  0  0  0  0  0
   22.1994  -10.4900   74.1229 C   0  0  0  0  0  0
   20.2343  -10.5025   75.5569 C   0  0  0  0  0  0
   21.4284   -8.4181   75.1641 C   0  0  0  0  0  0
   22.3432   -9.1036   74.3441 C   0  0  0  0  0  0
   21.1473  -11.1878   74.7368 C   0  0  0  0  0  0
   23.0561  -11.1550   73.2974 O   0  0  0  0  0  0
   14.1920   -6.5011   71.8450 C   0  0  0  0  0  0
   14.2995   -5.2721   75.2189 C   0  0  0  0  0  0
   21.3340   -6.0346   67.7629 C   0  0  0  0  0  0
   14.0195   -6.5885   69.2488 C   0  0  0  0  0  0
   14.1486   -2.7077   74.8207 C   0  0  0  0  0  0
   23.3956   -7.2208   69.2575 C   0  0  0  0  0  0
   14.7308   -6.0054   70.4855 C   0  0  0  0  0  0
   15.0555   -3.9301   75.0717 C   0  0  0  0  0  0
   22.6389   -5.5550   67.6733 C   0  0  0  0  0  0
   23.6576   -6.1390   68.4198 C   0  0  0  0  0  0
   15.4423   -6.0547   77.2285 H   0  0  0  0  0  0
   13.6508   -9.0283   73.5565 H   0  0  0  0  0  0
   18.3676   -6.1501   74.8687 H   0  0  0  0  0  0
   15.6659  -10.1034   70.0097 H   0  0  0  0  0  0
   17.4578   -8.8388   75.6995 H   0  0  0  0  0  0
   15.9605   -6.3373   74.4059 H   0  0  0  0  0  0
   15.8887   -7.5743   72.5920 H   0  0  0  0  0  0
   18.5233   -9.6488   74.0035 H   0  0  0  0  0  0
   17.2578   -7.8578   70.8571 H   0  0  0  0  0  0
   17.7405  -10.6592   72.0816 H   0  0  0  0  0  0
   15.7534   -1.7144   73.0858 H   0  0  0  0  0  0
   15.5122   -1.6300   71.4581 H   0  0  0  0  0  0
   16.4656   -4.4014   66.9693 H   0  0  0  0  0  0
   19.1300   -9.0073   77.4912 H   0  0  0  0  0  0
   19.8479   -7.4928   77.0509 H   0  0  0  0  0  0
   18.9247   -7.1929   68.1437 H   0  0  0  0  0  0
   15.1365   -7.9151   68.0834 H   0  0  0  0  0  0
   12.2485   -2.7631   71.3541 H   0  0  0  0  0  0
   13.5367   -2.2369   70.4784 H   0  0  0  0  0  0
   16.8183   -6.4291   65.8070 H   0  0  0  0  0  0
   16.6052   -7.7588   66.7205 H   0  0  0  0  0  0
   22.5739   -9.3211   70.7535 H   0  0  0  0  0  0
   18.1140  -10.4312   69.5101 H   0  0  0  0  0  0
   17.5061   -9.0487   68.6635 H   0  0  0  0  0  0
   20.2846  -10.2130   70.8744 H   0  0  0  0  0  0
   19.3947  -11.0451   75.9643 H   0  0  0  0  0  0
   21.5263   -7.3534   75.3001 H   0  0  0  0  0  0
   23.1428   -8.5535   73.8707 H   0  0  0  0  0  0
   21.0246  -12.2448   74.5579 H   0  0  0  0  0  0
   23.6505  -10.5414   72.8254 H   0  0  0  0  0  0
   14.4100   -5.6947   72.5390 H   0  0  0  0  0  0
   13.1056   -6.5919   71.8123 H   0  0  0  0  0  0
   13.7265   -5.2623   76.1477 H   0  0  0  0  0  0
   13.5416   -5.3659   74.4443 H   0  0  0  0  0  0
   20.5432   -5.5691   67.1910 H   0  0  0  0  0  0
   13.4808   -7.5028   69.4926 H   0  0  0  0  0  0
   13.2720   -5.8924   68.8715 H   0  0  0  0  0  0
   13.4135   -2.6149   75.6219 H   0  0  0  0  0  0
   14.7500   -1.7949   74.8833 H   0  0  0  0  0  0
   24.1897   -7.6713   69.8405 H   0  0  0  0  0  0
   14.6407   -4.9185   70.4469 H   0  0  0  0  0  0
   15.8034   -6.1889   70.4399 H   0  0  0  0  0  0
   15.6507   -3.7521   75.9685 H   0  0  0  0  0  0
   15.7811   -3.9958   74.2579 H   0  0  0  0  0  0
   22.8529   -4.7097   67.0364 H   0  0  0  0  0  0
   24.6613   -5.7452   68.3576 H   0  0  0  0  0  0
  1  3  1  0  0  0
  1 12  1  0  0  0
  1 52  1  0  0  0
  2  4  1  0  0  0
  2 13  1  0  0  0
  2 53  1  0  0  0
  3  8  1  0  0  0
  3 19  2  0  0  0
  4 12  1  0  0  0
  4 20  2  0  0  0
  5 13  1  0  0  0
  5  7  1  0  0  0
  5 21  2  0  0  0
  6  8  1  0  0  0
  6  9  1  0  0  0
  6 54  1  0  0  0
  7 15  1  0  0  0
  7 55  1  0  0  0
  8 22  1  0  0  0
  8 56  1  0  0  0
  9 14  1  0  0  0
  9 25  2  0  0  0
 10 27  1  0  0  0
 10 18  2  0  0  0
 10 31  1  0  0  0
 11 28  2  0  0  0
 11 17  1  0  0  0
 11 30  1  0  0  0
 12 43  1  0  0  0
 12 57  1  0  0  0
 13 42  1  0  0  0
 13 58  1  0  0  0
 14 16  2  0  0  0
 14 59  1  0  0  0
 15 33  1  0  0  0
 15 16  1  0  0  0
 15 60  1  0  0  0
 16 61  1  0  0  0
 17 62  1  0  0  0
 17 63  1  0  0  0
 18 64  1  0  0  0
 22 34  1  0  0  0
 22 65  1  0  0  0
 22 66  1  0  0  0
 23 24  2  0  0  0
 23 44  1  0  0  0
 23 29  1  0  0  0
 24 26  1  0  0  0
 24 67  1  0  0  0
 26 33  1  0  0  0
 26 35  2  0  0  0
 27 45  1  0  0  0
 27 68  1  0  0  0
 28 46  1  0  0  0
 29 32  2  0  0  0
 29 47  1  0  0  0
 30 69  1  0  0  0
 30 70  1  0  0  0
 31 71  1  0  0  0
 31 72  1  0  0  0
 32 35  1  0  0  0
 32 73  1  0  0  0
 33 74  1  0  0  0
 33 75  1  0  0  0
 34 37  1  0  0  0
 34 38  2  0  0  0
 35 76  1  0  0  0
 36 39  2  0  0  0
 36 41  1  0  0  0
 36 40  1  0  0  0
 37 40  2  0  0  0
 37 77  1  0  0  0
 38 39  1  0  0  0
 38 78  1  0  0  0
 39 79  1  0  0  0
 40 80  1  0  0  0
 41 81  1  0  0  0
 42 48  1  0  0  0
 42 82  1  0  0  0
 42 83  1  0  0  0
 43 49  1  0  0  0
 43 84  1  0  0  0
 43 85  1  0  0  0
 44 50  2  0  0  0
 44 86  1  0  0  0
 45 48  1  0  0  0
 45 87  1  0  0  0
 45 88  1  0  0  0
 46 49  1  0  0  0
 46 89  1  0  0  0
 46 90  1  0  0  0
 47 51  2  0  0  0
 47 91  1  0  0  0
 48 92  1  0  0  0
 48 93  1  0  0  0
 49 94  1  0  0  0
 49 95  1  0  0  0
 50 51  1  0  0  0
 50 96  1  0  0  0
 51 97  1  0  0  0
M  END
> <s_m_entry_id>
39033

> <s_m_entry_name>
dock_pv.16

> <s_m_Source_Path>
/home/csk/Desktop/cluster/DUD-E-result/cxcr4

> <s_m_Source_File>
dock_pv.maegz

> <i_m_Source_File_Index>
16

> <chembl_id>
CHEMBL414380

> <chembl_pref_name>
None

> <i_lp_mmshare_version>
53161

> <i_f3d_flags>
0

> <r_lp_tautomer_probability>
0.999999999997365

> <s_lp_Force_Field>
OPLS_2005

> <r_lp_Energy>
28.824679

> <b_lp_Chiralities_Consistent>
1

> <s_lp_Variant>
CHEMBL2107_lig130-1

> <s_i_glide_gridfile>
glide-grid_3odu

> <i_i_glide_lignum>
153

> <i_i_glide_rotatable_bonds>
14

> <r_i_docking_score>
-7.3981830035099

> <r_i_glide_ligand_efficiency>
-0.145062411833527

> <r_i_glide_ligand_efficiency_sa>
-0.537953765739958

> <r_i_glide_ligand_efficiency_ln>
-1.50009013993124

> <r_i_glide_gscore>
-7.3981830035099

> <r_i_glide_lipo>
-1.65296381102803

> <r_i_glide_hbond>
-0.516606774942568

> <r_i_glide_metal>
0

> <r_i_glide_rewards>
-0.0594483278565134

> <r_i_glide_evdw>
-51.3873023986816

> <r_i_glide_ecoul>
-17.8032207489014

> <r_i_glide_erotb>
0.39604405128115

> <r_i_glide_esite>
-0.325359908694654

> <r_i_glide_emodel>
-101.279574249874

> <r_i_glide_energy>
-69.190523147583

> <r_i_glide_einternal>
8.67986011505127

> <i_i_glide_confnum>
48

> <i_i_glide_posenum>
70

> <r_i_glide_eff_state_penalty>
0

> <s_user_duplicate_titles>
CHEMBL2107_lig130

> <s_m_subgroup_title>
dock_pv

> <s_m_subgroupid>
dock_pv

> <b_m_subgroup_collapsed>
0

$$$$
CHEMBL2107_lig198
                    3D
 Schrodinger Suite 2021-1.
103106  0  0  1  0            999 V2000
   17.2457   -9.8136   71.6840 N   0  0  0  0  0  0
   16.4015   -9.9863   72.8723 C   0  0  2  0  0  0
   14.9485  -10.0745   72.3553 C   0  0  0  0  0  0
   16.6337   -8.8782   73.9548 C   0  0  0  0  0  0
   18.1080   -8.6075   74.2338 C   0  0  0  0  0  0
   18.9110   -9.5954   74.8061 C   0  0  0  0  0  0
   20.0276   -7.1394   74.0301 C   0  0  0  0  0  0
   18.6656   -7.3771   73.8826 C   0  0  0  0  0  0
   20.8732   -8.1444   74.5484 C   0  0  0  0  0  0
   20.3042   -9.3866   74.9656 C   0  0  0  0  0  0
   21.1510  -10.3847   75.5059 C   0  0  0  0  0  0
   22.5243  -10.1663   75.5949 C   0  0  0  0  0  0
   23.0769   -8.9672   75.1573 C   0  0  0  0  0  0
   22.2715   -7.9552   74.6498 C   0  0  0  0  0  0
   18.2561  -10.6146   71.2965 C   0  0  0  0  0  0
   18.6564  -11.5568   71.9771 O   0  0  0  0  0  0
   18.9658  -10.3157   69.9592 C   0  0  0  0  0  0
   18.6928   -8.9625   69.4607 N   0  0  0  0  0  0
   19.2377   -7.8742   70.0291 C   0  0  0  0  0  0
   18.8208   -6.4720   69.5041 C   0  0  1  0  0  0
   19.9984   -7.9410   70.9915 O   0  0  0  0  0  0
   19.8193   -5.9223   68.4353 C   0  0  0  0  0  0
   17.3624   -6.3227   69.1638 N   0  0  0  0  0  0
   21.3078   -6.1530   68.7087 C   0  0  0  0  0  0
   21.8643   -5.9552   69.9940 C   0  0  0  0  0  0
   23.1693   -6.3955   70.2808 C   0  0  0  0  0  0
   23.9414   -6.9934   69.2667 C   0  0  0  0  0  0
   23.4467   -7.0669   67.9560 C   0  0  0  0  0  0
   22.1344   -6.6458   67.6807 C   0  0  0  0  0  0
   25.1445   -7.5512   69.5570 O   0  0  0  0  0  0
   14.0808   -9.1303   72.7621 N   0  0  0  0  0  0
   14.6559  -10.9646   71.5573 O   0  0  0  0  0  0
   12.8308   -8.7833   72.0652 C   0  0  2  0  0  0
   13.1304   -7.9386   70.8073 C   0  0  0  0  0  0
   11.9114   -7.9701   73.0039 C   0  0  0  0  0  0
   11.6676   -8.6070   74.3849 C   0  0  0  0  0  0
   10.7682   -7.7618   75.2972 C   0  0  0  0  0  0
   11.4150   -6.5116   75.6579 N   0  0  0  0  0  0
   12.5348   -6.3556   76.4644 C   0  0  0  0  0  0
   13.0629   -7.2688   77.1561 N   0  0  0  0  0  0
   13.0201   -5.0608   76.4133 N   0  0  0  0  0  0
   16.4226   -6.5477   70.1314 C   0  0  0  0  0  0
   14.9027   -6.3832   69.8666 C   0  0  2  0  0  0
   16.7347   -6.8727   71.2799 O   0  0  0  0  0  0
   14.4101   -4.9142   70.0219 C   0  0  0  0  0  0
   14.2477   -7.2042   70.8766 N   0  0  0  0  0  0
   12.3759   -7.9763   69.8380 O   0  0  0  0  0  0
   14.9834   -4.0701   71.1945 C   0  0  0  0  0  0
   14.5495   -4.4980   72.6088 C   0  0  0  0  0  0
   15.2204   -3.7108   73.6303 N   0  0  0  0  0  0
   14.9976   -2.3824   73.9703 C   0  0  0  0  0  0
   15.8546   -1.9555   74.9687 N   0  0  0  0  0  0
   14.1168   -1.6402   73.4574 N   0  0  0  0  0  0
   17.0014   -5.7804   67.8424 C   0  0  0  0  0  0
   17.0294   -9.0055   71.1177 H   0  0  0  0  0  0
   16.6231  -10.9534   73.3288 H   0  0  0  0  0  0
   16.1538   -9.1544   74.8934 H   0  0  0  0  0  0
   16.1834   -7.9315   73.6510 H   0  0  0  0  0  0
   18.4832  -10.5455   75.0958 H   0  0  0  0  0  0
   20.4467   -6.1940   73.7159 H   0  0  0  0  0  0
   18.0520   -6.5972   73.4554 H   0  0  0  0  0  0
   20.7248  -11.3209   75.8383 H   0  0  0  0  0  0
   23.1664  -10.9384   75.9907 H   0  0  0  0  0  0
   24.1465   -8.8157   75.2034 H   0  0  0  0  0  0
   22.7084   -7.0259   74.3121 H   0  0  0  0  0  0
   18.6552  -11.0437   69.2103 H   0  0  0  0  0  0
   20.0406  -10.4519   70.0872 H   0  0  0  0  0  0
   18.0693   -8.8824   68.6688 H   0  0  0  0  0  0
   18.9667   -5.7858   70.3401 H   0  0  0  0  0  0
   19.6746   -4.8502   68.3067 H   0  0  0  0  0  0
   19.5862   -6.3796   67.4734 H   0  0  0  0  0  0
   21.2611   -5.5518   70.7947 H   0  0  0  0  0  0
   23.5444   -6.3269   71.2919 H   0  0  0  0  0  0
   24.0504   -7.5095   67.1777 H   0  0  0  0  0  0
   21.7354   -6.7551   66.6872 H   0  0  0  0  0  0
   25.1714   -7.8373   70.4813 H   0  0  0  0  0  0
   14.3740   -8.4813   73.4758 H   0  0  0  0  0  0
   12.3163   -9.6971   71.7625 H   0  0  0  0  0  0
   10.9476   -7.8191   72.5134 H   0  0  0  0  0  0
   12.3375   -6.9765   73.1478 H   0  0  0  0  0  0
   12.6183   -8.7553   74.8969 H   0  0  0  0  0  0
   11.2160   -9.5914   74.2508 H   0  0  0  0  0  0
   10.5441   -8.3069   76.2141 H   0  0  0  0  0  0
    9.8145   -7.5514   74.8097 H   0  0  0  0  0  0
   11.1402   -5.7165   75.1030 H   0  0  0  0  0  0
   13.8823   -6.9468   77.6527 H   0  0  0  0  0  0
   13.5459   -4.7664   77.2217 H   0  0  0  0  0  0
   12.3214   -4.3610   76.2163 H   0  0  0  0  0  0
   14.6413   -6.7892   68.8880 H   0  0  0  0  0  0
   13.3201   -4.9053   70.0804 H   0  0  0  0  0  0
   14.6387   -4.3882   69.0977 H   0  0  0  0  0  0
   14.8185   -7.3022   71.7059 H   0  0  0  0  0  0
   14.6687   -3.0372   71.0518 H   0  0  0  0  0  0
   16.0729   -4.0482   71.1581 H   0  0  0  0  0  0
   14.8075   -5.5373   72.8020 H   0  0  0  0  0  0
   13.4700   -4.4064   72.7248 H   0  0  0  0  0  0
   16.0505   -4.1357   74.0290 H   0  0  0  0  0  0
   16.2919   -1.0631   74.7583 H   0  0  0  0  0  0
   16.6047   -2.6102   75.1613 H   0  0  0  0  0  0
   14.1252   -0.7180   73.8647 H   0  0  0  0  0  0
   17.3546   -6.4519   67.0580 H   0  0  0  0  0  0
   15.9349   -5.6427   67.6802 H   0  0  0  0  0  0
   17.4720   -4.8086   67.6899 H   0  0  0  0  0  0
  1  2  1  0  0  0
  1 15  1  0  0  0
  1 55  1  0  0  0
  2  4  1  0  0  0
  2  3  1  0  0  0
  2 56  1  0  0  0
  3 31  1  0  0  0
  3 32  2  0  0  0
  4  5  1  0  0  0
  4 57  1  0  0  0
  4 58  1  0  0  0
  5  8  1  0  0  0
  5  6  2  0  0  0
  6 10  1  0  0  0
  6 59  1  0  0  0
  7  9  1  0  0  0
  7  8  2  0  0  0
  7 60  1  0  0  0
  8 61  1  0  0  0
  9 14  2  0  0  0
  9 10  1  0  0  0
 10 11  2  0  0  0
 11 12  1  0  0  0
 11 62  1  0  0  0
 12 13  2  0  0  0
 12 63  1  0  0  0
 13 14  1  0  0  0
 13 64  1  0  0  0
 14 65  1  0  0  0
 15 16  2  0  0  0
 15 17  1  0  0  0
 17 18  1  0  0  0
 17 66  1  0  0  0
 17 67  1  0  0  0
 18 19  1  0  0  0
 18 68  1  0  0  0
 19 20  1  0  0  0
 19 21  2  0  0  0
 20 22  1  0  0  0
 20 23  1  0  0  0
 20 69  1  0  0  0
 22 24  1  0  0  0
 22 70  1  0  0  0
 22 71  1  0  0  0
 23 42  1  0  0  0
 23 54  1  0  0  0
 24 29  1  0  0  0
 24 25  2  0  0  0
 25 26  1  0  0  0
 25 72  1  0  0  0
 26 27  2  0  0  0
 26 73  1  0  0  0
 27 28  1  0  0  0
 27 30  1  0  0  0
 28 29  2  0  0  0
 28 74  1  0  0  0
 29 75  1  0  0  0
 30 76  1  0  0  0
 31 33  1  0  0  0
 31 77  1  0  0  0
 33 34  1  0  0  0
 33 35  1  0  0  0
 33 78  1  0  0  0
 34 47  2  0  0  0
 34 46  1  0  0  0
 35 36  1  0  0  0
 35 79  1  0  0  0
 35 80  1  0  0  0
 36 37  1  0  0  0
 36 81  1  0  0  0
 36 82  1  0  0  0
 37 38  1  0  0  0
 37 83  1  0  0  0
 37 84  1  0  0  0
 38 39  1  0  0  0
 38 85  1  0  0  0
 39 40  2  0  0  0
 39 41  1  0  0  0
 40 86  1  0  0  0
 41 87  1  0  0  0
 41 88  1  0  0  0
 42 43  1  0  0  0
 42 44  2  0  0  0
 43 45  1  0  0  0
 43 46  1  0  0  0
 43 89  1  0  0  0
 45 48  1  0  0  0
 45 90  1  0  0  0
 45 91  1  0  0  0
 46 92  1  0  0  0
 48 49  1  0  0  0
 48 93  1  0  0  0
 48 94  1  0  0  0
 49 50  1  0  0  0
 49 95  1  0  0  0
 49 96  1  0  0  0
 50 51  1  0  0  0
 50 97  1  0  0  0
 51 52  1  0  0  0
 51 53  2  0  0  0
 52 98  1  0  0  0
 52 99  1  0  0  0
 53100  1  0  0  0
 54101  1  0  0  0
 54102  1  0  0  0
 54103  1  0  0  0
M  END
> <s_m_entry_id>
39034

> <s_m_entry_name>
dock_pv.17

> <s_m_Source_Path>
/home/csk/Desktop/cluster/DUD-E-result/cxcr4

> <s_m_Source_File>
dock_pv.maegz

> <i_m_Source_File_Index>
17

> <chembl_id>
CHEMBL219096

> <chembl_pref_name>
None

> <i_lp_mmshare_version>
53161

> <i_f3d_flags>
0

> <r_lp_tautomer_probability>
0.999999999997365

> <s_lp_Force_Field>
OPLS_2005

> <r_lp_Energy>
43.487925

> <b_lp_Chiralities_Consistent>
1

> <s_lp_Variant>
CHEMBL2107_lig198-1

> <s_i_glide_gridfile>
glide-grid_3odu

> <i_i_glide_lignum>
227

> <i_i_glide_rotatable_bonds>
15

> <r_i_docking_score>
-7.37086688508074

> <r_i_glide_ligand_efficiency>
-0.136497534908903

> <r_i_glide_ligand_efficiency_sa>
-0.51592835178545

> <r_i_glide_ligand_efficiency_ln>
-1.47742843358194

> <r_i_glide_gscore>
-7.37086688508074

> <r_i_glide_lipo>
-1.87327728352268

> <r_i_glide_hbond>
-0.566474914514499

> <r_i_glide_metal>
0

> <r_i_glide_rewards>
-0.271962008230381

> <r_i_glide_evdw>
-56.8829002380371

> <r_i_glide_ecoul>
-12.9793071746826

> <r_i_glide_erotb>
0.35607604797874

> <r_i_glide_esite>
-0.224187638687667

> <r_i_glide_emodel>
-94.4797514304454

> <r_i_glide_energy>
-69.8622074127197

> <r_i_glide_einternal>
9.6738977432251

> <i_i_glide_confnum>
1

> <i_i_glide_posenum>
22

> <r_i_glide_eff_state_penalty>
0

> <s_user_duplicate_titles>
CHEMBL2107_lig198

> <s_m_subgroup_title>
dock_pv

> <s_m_subgroupid>
dock_pv

> <b_m_subgroup_collapsed>
0

$$$$
CHEMBL2107_lig418
                    3D
 Schrodinger Suite 2021-1.
124126  0  0  1  0            999 V2000
   16.0315   -3.3612   77.8765 N   0  0  0  0  0  0
   16.0775   -2.0411   77.4610 C   0  0  0  0  0  0
   16.2888   -1.9556   76.0975 N   0  0  0  0  0  0
   15.9279   -1.0349   78.2102 N   0  0  0  0  0  0
   11.9728   -6.1408   81.1925 N   0  0  0  0  0  0
   12.8511   -5.7017   80.0995 C   0  0  1  0  0  0
   12.6562   -7.0779   78.1367 O   0  0  0  0  0  0
   12.2964   -6.0387   78.6986 C   0  0  0  0  0  0
   13.1740   -4.1955   80.3232 C   0  0  0  0  0  0
   13.9868   -3.4628   79.2330 C   0  0  0  0  0  0
   15.4580   -3.8837   79.1034 C   0  0  0  0  0  0
   11.4533   -5.1426   78.1573 N   0  0  0  0  0  0
   10.9838   -5.1289   76.7706 C   0  0  1  0  0  0
   12.3677   -3.7101   75.4001 O   0  0  0  0  0  0
    9.8600   -4.0840   76.6559 C   0  0  0  0  0  0
   12.1399   -4.8567   75.7835 C   0  0  0  0  0  0
   12.8528   -5.9310   75.4235 N   0  0  0  0  0  0
   13.9580   -5.9679   74.4714 C   0  0  2  0  0  0
   13.8386   -8.3549   74.5031 O   0  0  0  0  0  0
   13.9579   -7.3487   73.8068 C   0  0  0  0  0  0
   15.2931   -5.6393   75.1724 C   0  0  0  0  0  0
   15.7475   -6.6646   76.6092 S   0  0  0  0  0  0
   10.0868   -6.0433   71.1576 N   0  0  0  0  0  0
    9.6063   -4.9805   71.9055 C   0  0  0  0  0  0
    8.8014   -4.1526   71.1568 N   0  0  0  0  0  0
    9.8962   -4.7565   73.1084 N   0  0  0  0  0  0
   14.0541   -7.3609   72.4710 N   0  0  0  0  0  0
   13.9565   -8.5598   71.6295 C   0  0  2  0  0  0
   15.5603  -10.2559   71.0840 O   0  0  0  0  0  0
   15.3557   -9.0486   71.2126 C   0  0  0  0  0  0
   13.1170   -8.2602   70.3624 C   0  0  0  0  0  0
   11.6249   -7.9001   70.5508 C   0  0  0  0  0  0
   11.3671   -6.6635   71.4261 C   0  0  0  0  0  0
   16.2723   -8.0894   71.0237 N   0  0  0  0  0  0
   17.6900   -8.2650   70.7334 C   0  0  2  0  0  0
   17.7113   -5.9044   71.1685 O   0  0  0  0  0  0
   18.3604   -6.9513   71.2115 C   0  0  0  0  0  0
   17.8975   -8.5749   69.2202 C   0  0  0  0  0  0
   19.6405   -6.9572   71.6324 N   0  0  0  0  0  0
   20.5465   -8.1017   71.7663 C   0  0  2  0  0  0
   20.9275  -10.0673   73.0704 O   0  0  0  0  0  0
   20.2628   -9.0401   72.9587 C   0  0  0  0  0  0
   22.0028   -7.6020   71.7971 C   0  0  0  0  0  0
   22.8200   -5.9153   70.0800 C   0  0  0  0  0  0
   22.6284   -7.2555   70.4542 C   0  0  0  0  0  0
   23.0084   -8.2773   69.5572 C   0  0  0  0  0  0
   23.6388   -7.9542   68.3612 C   0  0  0  0  0  0
   23.8547   -6.6263   68.0209 C   0  0  0  0  0  0
   23.4367   -5.6112   68.8691 C   0  0  0  0  0  0
   19.2639   -8.7005   73.7961 N   0  0  0  0  0  0
   18.6646   -9.5560   74.8284 C   0  0  2  0  0  0
   17.7445  -11.1542   73.2389 O   0  0  0  0  0  0
   18.3128  -10.9670   74.2948 C   0  0  0  0  0  0
   17.3841   -8.8696   75.3457 C   0  0  0  0  0  0
   17.6416   -7.3115   76.2285 S   0  0  0  0  0  0
   18.7325  -11.9377   75.1572 O   0  0  0  0  0  0
   18.2961   -7.4161   68.3084 C   0  0  0  0  0  0
   19.6590   -7.0854   68.1423 C   0  0  0  0  0  0
   20.0238   -5.9649   67.4086 C   0  0  0  0  0  0
   19.0407   -5.1549   66.8462 C   0  0  0  0  0  0
   17.6933   -5.4421   67.0409 C   0  0  0  0  0  0
   17.3121   -6.5611   67.7709 C   0  0  0  0  0  0
   11.5598   -7.3973   81.4466 C   0  0  0  0  0  0
   10.6757   -7.5823   82.6782 C   0  0  0  0  0  0
   11.8550   -8.3681   80.7605 O   0  0  0  0  0  0
   16.2026   -4.0562   77.1661 H   0  0  0  0  0  0
   16.6584   -1.0717   75.7741 H   0  0  0  0  0  0
   16.8877   -2.6847   75.7331 H   0  0  0  0  0  0
   15.9808   -0.1598   77.7070 H   0  0  0  0  0  0
   11.6752   -5.4095   81.8212 H   0  0  0  0  0  0
   13.7843   -6.2640   80.2042 H   0  0  0  0  0  0
   13.7066   -4.0908   81.2675 H   0  0  0  0  0  0
   12.2412   -3.6508   80.4574 H   0  0  0  0  0  0
   13.9586   -2.3936   79.4513 H   0  0  0  0  0  0
   13.5044   -3.5527   78.2621 H   0  0  0  0  0  0
   15.5350   -4.9724   79.0623 H   0  0  0  0  0  0
   16.0427   -3.5544   79.9634 H   0  0  0  0  0  0
   11.2023   -4.3337   78.7038 H   0  0  0  0  0  0
   10.5587   -6.1100   76.5407 H   0  0  0  0  0  0
    9.4534   -4.0612   75.6461 H   0  0  0  0  0  0
    9.0333   -4.3151   77.3308 H   0  0  0  0  0  0
   10.2175   -3.0817   76.8955 H   0  0  0  0  0  0
   12.6339   -6.8265   75.8425 H   0  0  0  0  0  0
   13.7758   -5.2131   73.7039 H   0  0  0  0  0  0
   15.2770   -4.5993   75.4966 H   0  0  0  0  0  0
   16.1075   -5.6918   74.4462 H   0  0  0  0  0  0
    9.8439   -6.0243   70.1751 H   0  0  0  0  0  0
    8.9011   -3.1811   71.4054 H   0  0  0  0  0  0
    8.9549   -4.2400   70.1612 H   0  0  0  0  0  0
    9.4752   -3.9230   73.4808 H   0  0  0  0  0  0
   14.1262   -6.4824   71.9811 H   0  0  0  0  0  0
   13.4753   -9.3659   72.1834 H   0  0  0  0  0  0
   13.1641   -9.1280   69.7005 H   0  0  0  0  0  0
   13.5919   -7.4498   69.8046 H   0  0  0  0  0  0
   11.0826   -8.7552   70.9596 H   0  0  0  0  0  0
   11.2073   -7.7264   69.5598 H   0  0  0  0  0  0
   12.1178   -5.9021   71.2255 H   0  0  0  0  0  0
   11.4268   -6.9198   72.4793 H   0  0  0  0  0  0
   16.0135   -7.1220   71.1744 H   0  0  0  0  0  0
   18.0251   -9.1185   71.3210 H   0  0  0  0  0  0
   16.9965   -9.0314   68.8019 H   0  0  0  0  0  0
   18.6658   -9.3463   69.1245 H   0  0  0  0  0  0
   20.0340   -6.0647   71.9022 H   0  0  0  0  0  0
   20.4410   -8.7276   70.8770 H   0  0  0  0  0  0
   22.6269   -8.3588   72.2587 H   0  0  0  0  0  0
   22.0863   -6.7504   72.4733 H   0  0  0  0  0  0
   22.5248   -5.1318   70.7569 H   0  0  0  0  0  0
   22.8642   -9.3156   69.8266 H   0  0  0  0  0  0
   23.9874   -8.7370   67.7105 H   0  0  0  0  0  0
   24.3510   -6.3864   67.0906 H   0  0  0  0  0  0
   23.6126   -4.5845   68.5895 H   0  0  0  0  0  0
   18.8135   -7.8072   73.6610 H   0  0  0  0  0  0
   19.3893   -9.6291   75.6477 H   0  0  0  0  0  0
   16.8572   -9.5339   76.0328 H   0  0  0  0  0  0
   16.6945   -8.6921   74.5154 H   0  0  0  0  0  0
   19.0554  -11.6258   76.0139 H   0  0  0  0  0  0
   20.4267   -7.7001   68.5906 H   0  0  0  0  0  0
   21.0665   -5.7184   67.2713 H   0  0  0  0  0  0
   19.3306   -4.2905   66.2607 H   0  0  0  0  0  0
   16.9432   -4.7997   66.6011 H   0  0  0  0  0  0
   16.2625   -6.7857   67.9198 H   0  0  0  0  0  0
   11.2879   -7.8077   83.5568 H   0  0  0  0  0  0
   10.0910   -6.6872   82.8890 H   0  0  0  0  0  0
    9.9815   -8.4096   82.5254 H   0  0  0  0  0  0
  1  2  1  0  0  0
  1 11  1  0  0  0
  1 66  1  0  0  0
  2  3  1  0  0  0
  2  4  2  0  0  0
  3 67  1  0  0  0
  3 68  1  0  0  0
  4 69  1  0  0  0
  5  6  1  0  0  0
  5 63  1  0  0  0
  5 70  1  0  0  0
  6  8  1  0  0  0
  6  9  1  0  0  0
  6 71  1  0  0  0
  7  8  2  0  0  0
  8 12  1  0  0  0
  9 10  1  0  0  0
  9 72  1  0  0  0
  9 73  1  0  0  0
 10 11  1  0  0  0
 10 74  1  0  0  0
 10 75  1  0  0  0
 11 76  1  0  0  0
 11 77  1  0  0  0
 12 13  1  0  0  0
 12 78  1  0  0  0
 13 16  1  0  0  0
 13 15  1  0  0  0
 13 79  1  0  0  0
 14 16  2  0  0  0
 15 80  1  0  0  0
 15 81  1  0  0  0
 15 82  1  0  0  0
 16 17  1  0  0  0
 17 18  1  0  0  0
 17 83  1  0  0  0
 18 20  1  0  0  0
 18 21  1  0  0  0
 18 84  1  0  0  0
 19 20  2  0  0  0
 20 27  1  0  0  0
 21 22  1  0  0  0
 21 85  1  0  0  0
 21 86  1  0  0  0
 22 55  1  0  0  0
 23 24  1  0  0  0
 23 33  1  0  0  0
 23 87  1  0  0  0
 24 25  1  0  0  0
 24 26  2  0  0  0
 25 88  1  0  0  0
 25 89  1  0  0  0
 26 90  1  0  0  0
 27 28  1  0  0  0
 27 91  1  0  0  0
 28 30  1  0  0  0
 28 31  1  0  0  0
 28 92  1  0  0  0
 29 30  2  0  0  0
 30 34  1  0  0  0
 31 32  1  0  0  0
 31 93  1  0  0  0
 31 94  1  0  0  0
 32 33  1  0  0  0
 32 95  1  0  0  0
 32 96  1  0  0  0
 33 97  1  0  0  0
 33 98  1  0  0  0
 34 35  1  0  0  0
 34 99  1  0  0  0
 35 37  1  0  0  0
 35 38  1  0  0  0
 35100  1  0  0  0
 36 37  2  0  0  0
 37 39  1  0  0  0
 38 57  1  0  0  0
 38101  1  0  0  0
 38102  1  0  0  0
 39 40  1  0  0  0
 39103  1  0  0  0
 40 42  1  0  0  0
 40 43  1  0  0  0
 40104  1  0  0  0
 41 42  2  0  0  0
 42 50  1  0  0  0
 43 45  1  0  0  0
 43105  1  0  0  0
 43106  1  0  0  0
 44 45  2  0  0  0
 44 49  1  0  0  0
 44107  1  0  0  0
 45 46  1  0  0  0
 46 47  2  0  0  0
 46108  1  0  0  0
 47 48  1  0  0  0
 47109  1  0  0  0
 48 49  2  0  0  0
 48110  1  0  0  0
 49111  1  0  0  0
 50 51  1  0  0  0
 50112  1  0  0  0
 51 53  1  0  0  0
 51 54  1  0  0  0
 51113  1  0  0  0
 52 53  2  0  0  0
 53 56  1  0  0  0
 54 55  1  0  0  0
 54114  1  0  0  0
 54115  1  0  0  0
 56116  1  0  0  0
 57 58  2  0  0  0
 57 62  1  0  0  0
 58 59  1  0  0  0
 58117  1  0  0  0
 59 60  2  0  0  0
 59118  1  0  0  0
 60 61  1  0  0  0
 60119  1  0  0  0
 61 62  2  0  0  0
 61120  1  0  0  0
 62121  1  0  0  0
 63 64  1  0  0  0
 63 65  2  0  0  0
 64122  1  0  0  0
 64123  1  0  0  0
 64124  1  0  0  0
M  END
> <s_m_entry_id>
39035

> <s_m_entry_name>
dock_pv.18

> <s_m_Source_Path>
/home/csk/Desktop/cluster/DUD-E-result/cxcr4

> <s_m_Source_File>
dock_pv.maegz

> <i_m_Source_File_Index>
18

> <chembl_id>
CHEMBL3896351

> <chembl_pref_name>
None

> <i_lp_mmshare_version>
53161

> <i_f3d_flags>
0

> <r_lp_tautomer_probability>
1

> <s_lp_Force_Field>
OPLS_2005

> <r_lp_Energy>
3.918074

> <b_lp_Chiralities_Consistent>
1

> <s_lp_Variant>
CHEMBL2107_lig418-1

> <s_i_glide_gridfile>
glide-grid_3odu

> <i_i_glide_lignum>
477

> <i_i_glide_rotatable_bonds>
24

> <r_i_docking_score>
-7.20568379380253

> <r_i_glide_ligand_efficiency>
-0.110856673750808

> <r_i_glide_ligand_efficiency_sa>
-0.445724283041169

> <r_i_glide_ligand_efficiency_ln>
-1.39256754818583

> <r_i_glide_gscore>
-7.20568379380253

> <r_i_glide_lipo>
-2.40859274913727

> <r_i_glide_hbond>
-0.784264289164008

> <r_i_glide_metal>
0

> <r_i_glide_rewards>
-0.0835843468300406

> <r_i_glide_evdw>
-62.1815185546875

> <r_i_glide_ecoul>
-6.81874084472656

> <r_i_glide_erotb>
0.328335231867971

> <r_i_glide_esite>
-0.125690586095819

> <r_i_glide_emodel>
-94.1560849272502

> <r_i_glide_energy>
-69.0002593994141

> <r_i_glide_einternal>
17.018497467041

> <i_i_glide_confnum>
1

> <i_i_glide_posenum>
49

> <r_i_glide_eff_state_penalty>
0

> <s_user_duplicate_titles>
CHEMBL2107_lig418

> <s_m_subgroup_title>
dock_pv

> <s_m_subgroupid>
dock_pv

> <b_m_subgroup_collapsed>
0

$$$$
CHEMBL2107_lig148
                    3D
 Schrodinger Suite 2021-1.
 90 93  0  0  1  0            999 V2000
   18.5675   -7.5717   73.9981 N   0  0  0  0  0  0
   17.3040   -8.0825   74.1363 C   0  0  0  0  0  0
   21.0512   -8.1123   74.3499 C   0  0  0  0  0  0
   21.8134  -10.9555   71.4148 N   0  0  0  0  0  0
   21.4844   -9.2464   73.7728 N   0  0  0  0  0  0
   16.1616   -7.9982   73.0638 C   0  0  2  0  0  0
   21.8836  -11.3591   72.6972 C   0  0  0  0  0  0
   15.8823   -9.3248   72.4833 N   0  0  0  0  0  0
   19.6394   -7.9494   74.9763 C   0  0  1  0  0  0
   19.8915  -10.7122   69.9848 C   0  0  0  0  0  0
   21.0012   -9.9323   70.7402 C   0  0  2  0  0  0
   18.5795  -10.4986   70.2071 N   0  0  0  0  0  0
   18.3308  -15.1296   75.2377 C   0  0  0  0  0  0
   21.0898  -10.6596   73.8166 C   0  0  2  0  0  0
   16.5959  -10.0721   71.6207 C   0  0  0  0  0  0
   18.2492  -15.9550   76.3571 N   0  0  0  0  0  0
   17.0024   -8.7558   75.1227 O   0  0  0  0  0  0
   21.7881   -7.1316   74.3517 O   0  0  0  0  0  0
   16.1161   -6.8584   71.9991 C   0  0  0  0  0  0
   21.9602   -9.1244   69.8032 C   0  0  0  0  0  0
   22.6218  -12.2867   73.0157 O   0  0  0  0  0  0
   19.6084   -6.5806   68.0793 C   0  0  0  0  0  0
   20.2549  -11.5525   69.1715 O   0  0  0  0  0  0
   21.4373   -7.9303   68.9935 C   0  0  0  0  0  0
   20.0851   -7.6005   68.9248 C   0  0  0  0  0  0
   17.9455   -9.5423   71.1185 C   0  0  0  0  0  0
   16.1573  -11.1471   71.2129 O   0  0  0  0  0  0
   19.4514  -14.7907   74.7578 N   0  0  0  0  0  0
   20.5413   -5.8620   67.2750 C   0  0  0  0  0  0
   17.0560  -14.7855   74.7569 N   0  0  0  0  0  0
   21.9231   -6.1473   67.4107 C   0  0  0  0  0  0
   18.9012   -6.4870   73.0611 C   0  0  0  0  0  0
   14.9468   -6.8756   71.0170 C   0  0  0  0  0  0
   22.3510   -7.1674   68.2590 C   0  0  0  0  0  0
   12.8398   -6.8036   69.1263 C   0  0  0  0  0  0
   13.7714   -6.1394   71.2885 C   0  0  0  0  0  0
   15.0414   -7.5901   69.7998 C   0  0  0  0  0  0
   12.7221   -6.1010   70.3451 C   0  0  0  0  0  0
   13.9938   -7.5591   68.8627 C   0  0  0  0  0  0
   11.8561   -6.7550   68.1837 O   0  0  0  0  0  0
   19.6378   -6.9509   76.1552 C   0  0  0  0  0  0
   19.5952  -11.0643   73.7347 C   0  0  0  0  0  0
   18.2300   -6.2722   67.9995 C   0  0  0  0  0  0
   19.5361  -13.6631   73.8458 C   0  0  0  0  0  0
   20.0490   -4.8830   66.3779 C   0  0  0  0  0  0
   19.2317  -12.3169   74.5541 C   0  0  0  0  0  0
   17.7869   -5.2629   67.1532 C   0  0  0  0  0  0
   18.6907   -4.5692   66.3588 C   0  0  0  0  0  0
   22.4096  -11.4592   70.7744 H   0  0  0  0  0  0
   22.3860   -9.1464   73.3207 H   0  0  0  0  0  0
   15.2759   -7.8113   73.6741 H   0  0  0  0  0  0
   15.0203   -9.7351   72.8089 H   0  0  0  0  0  0
   19.4087   -8.9043   75.4448 H   0  0  0  0  0  0
   20.5772   -9.2281   71.4447 H   0  0  0  0  0  0
   17.9277  -11.0446   69.6533 H   0  0  0  0  0  0
   21.4780  -11.0087   74.7727 H   0  0  0  0  0  0
   19.1180  -16.3987   76.6239 H   0  0  0  0  0  0
   17.5003  -16.6282   76.3581 H   0  0  0  0  0  0
   17.0086   -6.8287   71.3847 H   0  0  0  0  0  0
   16.0897   -5.8986   72.5187 H   0  0  0  0  0  0
   22.4471   -9.8054   69.1034 H   0  0  0  0  0  0
   22.7720   -8.7310   70.4178 H   0  0  0  0  0  0
   19.3672   -8.1423   69.4911 H   0  0  0  0  0  0
   17.7465   -8.6332   70.5716 H   0  0  0  0  0  0
   18.5714   -9.2909   71.9635 H   0  0  0  0  0  0
   17.0230  -14.3535   73.8412 H   0  0  0  0  0  0
   16.3257  -15.4718   74.8448 H   0  0  0  0  0  0
   22.6408   -5.5877   66.8285 H   0  0  0  0  0  0
   18.1281   -5.7235   73.0242 H   0  0  0  0  0  0
   19.7993   -5.9513   73.3708 H   0  0  0  0  0  0
   19.0871   -6.8712   72.0595 H   0  0  0  0  0  0
   23.4066   -7.3983   68.3110 H   0  0  0  0  0  0
   13.6791   -5.5870   72.2137 H   0  0  0  0  0  0
   15.9162   -8.1672   69.5514 H   0  0  0  0  0  0
   11.8335   -5.5220   70.5560 H   0  0  0  0  0  0
   14.0848   -8.1051   67.9329 H   0  0  0  0  0  0
   11.1580   -6.1068   68.3602 H   0  0  0  0  0  0
   20.3786   -7.2270   76.9053 H   0  0  0  0  0  0
   19.8577   -5.9334   75.8295 H   0  0  0  0  0  0
   18.6661   -6.9357   76.6533 H   0  0  0  0  0  0
   19.3041  -11.2663   72.7075 H   0  0  0  0  0  0
   18.9388  -10.2698   74.0430 H   0  0  0  0  0  0
   17.5203   -6.8244   68.5954 H   0  0  0  0  0  0
   18.8954  -13.8052   72.9725 H   0  0  0  0  0  0
   20.5472  -13.6713   73.4516 H   0  0  0  0  0  0
   20.7416   -4.3490   65.7448 H   0  0  0  0  0  0
   19.7158  -12.2772   75.5331 H   0  0  0  0  0  0
   18.1613  -12.2718   74.7579 H   0  0  0  0  0  0
   16.7321   -5.0313   67.0964 H   0  0  0  0  0  0
   18.3318   -3.7935   65.6992 H   0  0  0  0  0  0
  1  2  1  0  0  0
  1  9  1  0  0  0
  1 32  1  0  0  0
  2  6  1  0  0  0
  2 17  2  0  0  0
  3  9  1  0  0  0
  3  5  1  0  0  0
  3 18  2  0  0  0
  4  7  1  0  0  0
  4 11  1  0  0  0
  4 49  1  0  0  0
  5 14  1  0  0  0
  5 50  1  0  0  0
  6  8  1  0  0  0
  6 19  1  0  0  0
  6 51  1  0  0  0
  7 14  1  0  0  0
  7 21  2  0  0  0
  8 15  1  0  0  0
  8 52  1  0  0  0
  9 41  1  0  0  0
  9 53  1  0  0  0
 10 12  1  0  0  0
 10 23  2  0  0  0
 10 11  1  0  0  0
 11 20  1  0  0  0
 11 54  1  0  0  0
 12 26  1  0  0  0
 12 55  1  0  0  0
 13 28  2  0  0  0
 13 16  1  0  0  0
 13 30  1  0  0  0
 14 42  1  0  0  0
 14 56  1  0  0  0
 15 26  1  0  0  0
 15 27  2  0  0  0
 16 57  1  0  0  0
 16 58  1  0  0  0
 19 33  1  0  0  0
 19 59  1  0  0  0
 19 60  1  0  0  0
 20 24  1  0  0  0
 20 61  1  0  0  0
 20 62  1  0  0  0
 22 25  1  0  0  0
 22 43  2  0  0  0
 22 29  1  0  0  0
 24 25  2  0  0  0
 24 34  1  0  0  0
 25 63  1  0  0  0
 26 64  1  0  0  0
 26 65  1  0  0  0
 28 44  1  0  0  0
 29 31  1  0  0  0
 29 45  2  0  0  0
 30 66  1  0  0  0
 30 67  1  0  0  0
 31 34  2  0  0  0
 31 68  1  0  0  0
 32 69  1  0  0  0
 32 70  1  0  0  0
 32 71  1  0  0  0
 33 36  2  0  0  0
 33 37  1  0  0  0
 34 72  1  0  0  0
 35 39  1  0  0  0
 35 40  1  0  0  0
 35 38  2  0  0  0
 36 38  1  0  0  0
 36 73  1  0  0  0
 37 39  2  0  0  0
 37 74  1  0  0  0
 38 75  1  0  0  0
 39 76  1  0  0  0
 40 77  1  0  0  0
 41 78  1  0  0  0
 41 79  1  0  0  0
 41 80  1  0  0  0
 42 46  1  0  0  0
 42 81  1  0  0  0
 42 82  1  0  0  0
 43 47  1  0  0  0
 43 83  1  0  0  0
 44 46  1  0  0  0
 44 84  1  0  0  0
 44 85  1  0  0  0
 45 48  1  0  0  0
 45 86  1  0  0  0
 46 87  1  0  0  0
 46 88  1  0  0  0
 47 48  2  0  0  0
 47 89  1  0  0  0
 48 90  1  0  0  0
M  END
> <s_m_entry_id>
39036

> <s_m_entry_name>
dock_pv.19

> <s_m_Source_Path>
/home/csk/Desktop/cluster/DUD-E-result/cxcr4

> <s_m_Source_File>
dock_pv.maegz

> <i_m_Source_File_Index>
19

> <chembl_id>
CHEMBL371993

> <chembl_pref_name>
None

> <i_lp_mmshare_version>
53161

> <i_f3d_flags>
0

> <r_lp_tautomer_probability>
0.999999999997365

> <s_lp_Force_Field>
OPLS_2005

> <r_lp_Energy>
57.786562

> <b_lp_Chiralities_Consistent>
1

> <s_lp_Variant>
CHEMBL2107_lig148-1

> <s_i_glide_gridfile>
glide-grid_3odu

> <i_i_glide_lignum>
171

> <i_i_glide_rotatable_bonds>
9

> <r_i_docking_score>
-7.17122628214883

> <r_i_glide_ligand_efficiency>
-0.149400547544767

> <r_i_glide_ligand_efficiency_sa>
-0.542957622347355

> <r_i_glide_ligand_efficiency_ln>
-1.47216800663544

> <r_i_glide_gscore>
-7.17122628214883

> <r_i_glide_lipo>
-2.41265046825418

> <r_i_glide_hbond>
-0.613441931687361

> <r_i_glide_metal>
0

> <r_i_glide_rewards>
-0.177073663195161

> <r_i_glide_evdw>
-53.3668174743652

> <r_i_glide_ecoul>
-8.85668659210205

> <r_i_glide_erotb>
0.23651152932094

> <r_i_glide_esite>
-0.207727885799498

> <r_i_glide_emodel>
-85.1360617163851

> <r_i_glide_energy>
-62.2235040664673

> <r_i_glide_einternal>
13.2209253311157

> <i_i_glide_confnum>
26

> <i_i_glide_posenum>
233

> <r_i_glide_eff_state_penalty>
0

> <s_user_duplicate_titles>
CHEMBL2107_lig148

> <s_m_subgroup_title>
dock_pv

> <s_m_subgroupid>
dock_pv

> <b_m_subgroup_collapsed>
0

$$$$
CHEMBL2107_lig144
                    3D
 Schrodinger Suite 2021-1.
 91 95  0  0  1  0            999 V2000
   14.9314   -7.6007   72.1849 N   0  0  0  0  0  0
   15.6101   -6.4345   72.2911 C   0  0  0  0  0  0
   16.4541   -9.5431   72.0332 C   0  0  0  0  0  0
   17.6660   -9.8123   71.5250 N   0  0  0  0  0  0
   20.6555   -9.5595   71.2564 N   0  0  0  0  0  0
   15.6663   -5.7285   73.6630 C   0  0  2  0  0  0
   19.7928  -10.0612   70.3409 C   0  0  0  0  0  0
   15.3740   -8.7032   71.3123 C   0  0  1  0  0  0
   15.8801   -6.6374   74.7964 N   0  0  0  0  0  0
   19.8912   -9.1623   73.6414 C   0  0  0  0  0  0
   20.5792   -8.5862   72.3705 C   0  0  2  0  0  0
   19.0279   -8.4898   74.4288 N   0  0  0  0  0  0
   14.9382   -5.6332   66.7070 C   0  0  0  0  0  0
   18.3109   -9.6310   70.2271 C   0  0  2  0  0  0
   16.9764   -7.3672   75.0826 C   0  0  0  0  0  0
   14.6560   -4.6234   67.4109 N   0  0  0  0  0  0
   16.3242   -5.9806   71.4016 O   0  0  0  0  0  0
   16.1938   -9.9543   73.1570 O   0  0  0  0  0  0
   14.4488   -4.8172   73.9432 C   0  0  0  0  0  0
   20.4413   -7.0716   72.0045 C   0  0  0  0  0  0
   20.1848  -10.9220   69.5571 O   0  0  0  0  0  0
   21.3528   -5.9552   68.4579 C   0  0  0  0  0  0
   20.2191  -10.3043   73.9576 O   0  0  0  0  0  0
   21.2827   -6.6663   70.7903 C   0  0  0  0  0  0
   20.6564   -6.1144   69.6743 C   0  0  0  0  0  0
   18.2316   -7.2922   74.1819 C   0  0  0  0  0  0
   16.9798   -8.0874   76.0819 O   0  0  0  0  0  0
   15.9342   -6.5630   66.9697 N   0  0  0  0  0  0
   22.7559   -6.2016   68.4272 C   0  0  0  0  0  0
   14.2551   -5.9548   65.5544 N   0  0  0  0  0  0
   13.6513   -7.8989   72.8356 C   0  0  0  0  0  0
   23.3999   -6.6523   69.6053 C   0  0  0  0  0  0
   14.1421   -3.7777   72.8769 C   0  0  0  0  0  0
   22.6579   -6.8953   70.7576 C   0  0  0  0  0  0
   13.5920   -1.8256   70.9081 C   0  0  0  0  0  0
   14.9372   -2.6163   72.7878 C   0  0  0  0  0  0
   13.0707   -3.9575   71.9751 C   0  0  0  0  0  0
   14.6563   -1.6432   71.8109 C   0  0  0  0  0  0
   12.7994   -2.9874   70.9887 C   0  0  0  0  0  0
   14.0764   -9.4921   71.0870 C   0  0  0  0  0  0
   13.3395   -0.8780   69.9574 O   0  0  0  0  0  0
   13.2623   -9.2972   72.3608 C   0  0  0  0  0  0
   18.1808   -8.2291   69.5972 C   0  0  0  0  0  0
   20.6900   -5.5549   67.2724 C   0  0  0  0  0  0
   16.7460   -6.6639   68.1630 C   0  0  0  0  0  0
   23.4563   -5.9887   67.2183 C   0  0  0  0  0  0
   17.2832   -8.0910   68.3570 C   0  0  0  0  0  0
   21.4130   -5.3363   66.1055 C   0  0  0  0  0  0
   22.7857   -5.5547   66.0781 C   0  0  0  0  0  0
   15.7210   -8.3210   70.3648 H   0  0  0  0  0  0
   18.2522  -10.3417   72.1549 H   0  0  0  0  0  0
   21.5855   -9.9493   71.1845 H   0  0  0  0  0  0
   16.5419   -5.0780   73.6225 H   0  0  0  0  0  0
   15.1032   -6.7187   75.4326 H   0  0  0  0  0  0
   21.6132   -8.6321   72.7158 H   0  0  0  0  0  0
   18.7269   -8.9744   75.2649 H   0  0  0  0  0  0
   17.8331  -10.3505   69.5599 H   0  0  0  0  0  0
   13.8204   -4.1647   67.0738 H   0  0  0  0  0  0
   14.6203   -4.2795   74.8777 H   0  0  0  0  0  0
   13.5545   -5.4162   74.1134 H   0  0  0  0  0  0
   20.7338   -6.4429   72.8474 H   0  0  0  0  0  0
   19.4120   -6.8165   71.7808 H   0  0  0  0  0  0
   19.6036   -5.8739   69.6990 H   0  0  0  0  0  0
   17.9249   -7.2860   73.1456 H   0  0  0  0  0  0
   18.8000   -6.3873   74.3952 H   0  0  0  0  0  0
   15.9940   -7.3604   66.3486 H   0  0  0  0  0  0
   13.9546   -5.1530   65.0219 H   0  0  0  0  0  0
   14.7732   -6.5734   64.9416 H   0  0  0  0  0  0
   12.9124   -7.1722   72.4944 H   0  0  0  0  0  0
   13.6958   -7.8569   73.9229 H   0  0  0  0  0  0
   24.4622   -6.8488   69.5977 H   0  0  0  0  0  0
   23.1618   -7.2893   71.6292 H   0  0  0  0  0  0
   15.7695   -2.4740   73.4649 H   0  0  0  0  0  0
   12.4556   -4.8433   72.0323 H   0  0  0  0  0  0
   15.2674   -0.7559   71.7598 H   0  0  0  0  0  0
   11.9791   -3.1456   70.3030 H   0  0  0  0  0  0
   14.2561  -10.5440   70.8674 H   0  0  0  0  0  0
   13.5410   -9.0680   70.2368 H   0  0  0  0  0  0
   12.5615   -1.0901   69.4355 H   0  0  0  0  0  0
   12.1882   -9.4246   72.2174 H   0  0  0  0  0  0
   13.5844  -10.0252   73.1042 H   0  0  0  0  0  0
   19.1563   -7.9578   69.2182 H   0  0  0  0  0  0
   17.9220   -7.4969   70.3529 H   0  0  0  0  0  0
   19.6252   -5.3742   67.2892 H   0  0  0  0  0  0
   16.1166   -6.3764   69.0002 H   0  0  0  0  0  0
   17.5630   -5.9456   68.1032 H   0  0  0  0  0  0
   24.5191   -6.1814   67.1804 H   0  0  0  0  0  0
   17.8826   -8.3552   67.4872 H   0  0  0  0  0  0
   16.4566   -8.8022   68.3748 H   0  0  0  0  0  0
   20.9018   -5.0063   65.2127 H   0  0  0  0  0  0
   23.3314   -5.3993   65.1588 H   0  0  0  0  0  0
  1  2  1  0  0  0
  1  8  1  0  0  0
  1 31  1  0  0  0
  2  6  1  0  0  0
  2 17  2  0  0  0
  3  8  1  0  0  0
  3  4  1  0  0  0
  3 18  2  0  0  0
  4 14  1  0  0  0
  4 51  1  0  0  0
  5  7  1  0  0  0
  5 11  1  0  0  0
  5 52  1  0  0  0
  6  9  1  0  0  0
  6 19  1  0  0  0
  6 53  1  0  0  0
  7 14  1  0  0  0
  7 21  2  0  0  0
  8 40  1  0  0  0
  8 50  1  0  0  0
  9 15  1  0  0  0
  9 54  1  0  0  0
 10 12  1  0  0  0
 10 23  2  0  0  0
 10 11  1  0  0  0
 11 20  1  0  0  0
 11 55  1  0  0  0
 12 26  1  0  0  0
 12 56  1  0  0  0
 13 28  1  0  0  0
 13 16  2  0  0  0
 13 30  1  0  0  0
 14 43  1  0  0  0
 14 57  1  0  0  0
 15 26  1  0  0  0
 15 27  2  0  0  0
 16 58  1  0  0  0
 19 33  1  0  0  0
 19 59  1  0  0  0
 19 60  1  0  0  0
 20 24  1  0  0  0
 20 61  1  0  0  0
 20 62  1  0  0  0
 22 25  1  0  0  0
 22 44  2  0  0  0
 22 29  1  0  0  0
 24 25  2  0  0  0
 24 34  1  0  0  0
 25 63  1  0  0  0
 26 64  1  0  0  0
 26 65  1  0  0  0
 28 45  1  0  0  0
 28 66  1  0  0  0
 29 32  1  0  0  0
 29 46  2  0  0  0
 30 67  1  0  0  0
 30 68  1  0  0  0
 31 42  1  0  0  0
 31 69  1  0  0  0
 31 70  1  0  0  0
 32 34  2  0  0  0
 32 71  1  0  0  0
 33 36  2  0  0  0
 33 37  1  0  0  0
 34 72  1  0  0  0
 35 39  1  0  0  0
 35 41  1  0  0  0
 35 38  2  0  0  0
 36 38  1  0  0  0
 36 73  1  0  0  0
 37 39  2  0  0  0
 37 74  1  0  0  0
 38 75  1  0  0  0
 39 76  1  0  0  0
 40 42  1  0  0  0
 40 77  1  0  0  0
 40 78  1  0  0  0
 41 79  1  0  0  0
 42 80  1  0  0  0
 42 81  1  0  0  0
 43 47  1  0  0  0
 43 82  1  0  0  0
 43 83  1  0  0  0
 44 48  1  0  0  0
 44 84  1  0  0  0
 45 47  1  0  0  0
 45 85  1  0  0  0
 45 86  1  0  0  0
 46 49  1  0  0  0
 46 87  1  0  0  0
 47 88  1  0  0  0
 47 89  1  0  0  0
 48 49  2  0  0  0
 48 90  1  0  0  0
 49 91  1  0  0  0
M  END
> <s_m_entry_id>
39037

> <s_m_entry_name>
dock_pv.20

> <s_m_Source_Path>
/home/csk/Desktop/cluster/DUD-E-result/cxcr4

> <s_m_Source_File>
dock_pv.maegz

> <i_m_Source_File_Index>
20

> <chembl_id>
CHEMBL424826

> <chembl_pref_name>
None

> <i_lp_mmshare_version>
53161

> <i_f3d_flags>
0

> <r_lp_tautomer_probability>
0.999999999997365

> <s_lp_Force_Field>
OPLS_2005

> <r_lp_Energy>
66.75634

> <b_lp_Chiralities_Consistent>
1

> <s_lp_Variant>
CHEMBL2107_lig144-1

> <s_i_glide_gridfile>
glide-grid_3odu

> <i_i_glide_lignum>
167

> <i_i_glide_rotatable_bonds>
10

> <r_i_docking_score>
-7.03811855505015

> <r_i_glide_ligand_efficiency>
-0.143635072552044

> <r_i_glide_ligand_efficiency_sa>
-0.525604640467405

> <r_i_glide_ligand_efficiency_ln>
-1.43875247375062

> <r_i_glide_gscore>
-7.03811855505015

> <r_i_glide_lipo>
-2.34985829762276

> <r_i_glide_hbond>
-0.697091413507719

> <r_i_glide_metal>
0

> <r_i_glide_rewards>
-0.258555510465239

> <r_i_glide_evdw>
-52.405632019043

> <r_i_glide_ecoul>
-7.74534511566162

> <r_i_glide_erotb>
0.264662842757214

> <r_i_glide_esite>
-0.215192807910258

> <r_i_glide_emodel>
-85.7885422682142

> <r_i_glide_energy>
-60.1509771347046

> <r_i_glide_einternal>
6.501145362854

> <i_i_glide_confnum>
18

> <i_i_glide_posenum>
140

> <r_i_glide_eff_state_penalty>
0

> <s_user_duplicate_titles>
CHEMBL2107_lig144

> <s_m_subgroup_title>
dock_pv

> <s_m_subgroupid>
dock_pv

> <b_m_subgroup_collapsed>
0

$$$$
CHEMBL2107_lig132
                    3D
 Schrodinger Suite 2021-1.
105108  0  0  1  0            999 V2000
   20.8607   -9.6660   74.4882 N   0  0  0  0  0  0
   17.7324   -8.5088   75.7318 N   0  0  0  0  0  0
   15.6272  -10.3454   72.0866 C   0  0  0  0  0  0
   15.6176   -9.5217   73.1574 N   0  0  0  0  0  0
   20.1228   -9.1984   75.5131 C   0  0  0  0  0  0
   16.5464   -8.3954   75.0999 C   0  0  0  0  0  0
   20.8591   -9.2361   73.0925 C   0  0  1  0  0  0
   16.7012  -10.2608   70.9758 C   0  0  1  0  0  0
   19.0718   -8.0765   75.3228 C   0  0  2  0  0  0
   21.1545   -7.7551   72.8775 C   0  0  0  0  0  0
   16.9311   -8.9158   70.4414 N   0  0  0  0  0  0
   13.9897   -5.5566   67.5404 C   0  0  0  0  0  0
   13.7969   -4.0741   74.6632 C   0  0  0  0  0  0
   16.4112   -8.3513   73.5495 C   0  0  2  0  0  0
   16.0554   -8.2384   69.6802 C   0  0  0  0  0  0
   19.4624  -10.8572   70.3753 S   0  0  0  0  0  0
   20.9684  -11.6097   71.5365 S   0  0  0  0  0  0
   12.4639   -4.0702   75.1107 N   0  0  0  0  0  0
   14.2825   -4.3924   67.9181 N   0  0  0  0  0  0
   19.5707   -6.8343   76.1261 C   0  0  0  0  0  0
   14.7880  -11.2406   71.9825 O   0  0  0  0  0  0
   20.3600   -9.5558   76.6597 O   0  0  0  0  0  0
   15.5040   -8.3560   75.7560 O   0  0  0  0  0  0
   19.0220   -6.9461   79.9397 C   0  0  0  0  0  0
   16.4961   -6.8464   69.2000 C   0  0  0  0  0  0
   18.9481   -6.6396   77.5140 C   0  0  0  0  0  0
   21.7707  -10.1316   72.2292 C   0  0  0  0  0  0
   18.0153  -10.8980   71.4750 C   0  0  0  0  0  0
   19.5754   -7.1547   78.6503 C   0  0  0  0  0  0
   21.9362   -7.1548   73.6111 O   0  0  0  0  0  0
   14.9333   -8.6630   69.4015 O   0  0  0  0  0  0
   14.8896   -6.6244   67.2813 N   0  0  0  0  0  0
   20.4232   -7.2308   71.8863 N   0  0  0  0  0  0
   14.1002   -4.5063   73.5034 N   0  0  0  0  0  0
   17.8078   -6.2085   80.0657 C   0  0  0  0  0  0
   12.6561   -5.9533   67.3423 N   0  0  0  0  0  0
   14.6798   -3.5814   75.6469 N   0  0  0  0  0  0
   17.1843   -5.7121   78.8971 C   0  0  0  0  0  0
   16.2935   -6.5668   67.6925 C   0  0  0  0  0  0
   17.7542   -5.9331   77.6448 C   0  0  0  0  0  0
   24.3179   -6.7559   68.1510 C   0  0  0  0  0  0
   21.9023   -6.0550   69.3384 C   0  0  0  0  0  0
   23.2530   -6.3565   67.3520 C   0  0  0  0  0  0
   24.2117   -6.7541   69.5385 C   0  0  0  0  0  0
   22.0411   -6.0165   67.9474 C   0  0  0  0  0  0
   23.0104   -6.3868   70.1309 C   0  0  0  0  0  0
   20.3822   -5.8455   71.4609 C   0  0  0  0  0  0
   25.4789   -7.1684   67.5650 O   0  0  0  0  0  0
   15.6502   -7.0767   73.1104 C   0  0  0  0  0  0
   19.6471   -7.4480   81.1074 C   0  0  0  0  0  0
   20.5256   -5.7500   69.9362 C   0  0  0  0  0  0
   15.4839   -4.4843   73.0579 C   0  0  0  0  0  0
   17.2581   -5.9958   81.3589 C   0  0  0  0  0  0
   16.2684   -5.7300   73.5316 C   0  0  0  0  0  0
   19.0840   -7.2280   82.3604 C   0  0  0  0  0  0
   17.9009   -6.5059   82.4854 C   0  0  0  0  0  0
   21.5640  -10.3522   74.7203 H   0  0  0  0  0  0
   17.6875   -8.6836   76.7271 H   0  0  0  0  0  0
   14.9493   -9.7725   73.8752 H   0  0  0  0  0  0
   19.8386   -9.3597   72.7662 H   0  0  0  0  0  0
   16.3483  -10.8660   70.1362 H   0  0  0  0  0  0
   19.0048   -7.7769   74.2829 H   0  0  0  0  0  0
   17.8455   -8.5283   70.6168 H   0  0  0  0  0  0
   17.3840   -8.3950   73.0684 H   0  0  0  0  0  0
   11.7639   -4.2654   74.4152 H   0  0  0  0  0  0
   12.1710   -3.3253   75.7282 H   0  0  0  0  0  0
   13.4388   -3.8539   68.0435 H   0  0  0  0  0  0
   19.4207   -5.9548   75.5143 H   0  0  0  0  0  0
   20.6555   -6.8242   76.2281 H   0  0  0  0  0  0
   17.5393   -6.6793   69.4525 H   0  0  0  0  0  0
   15.9438   -6.1134   69.7863 H   0  0  0  0  0  0
   22.1596   -9.5709   71.3743 H   0  0  0  0  0  0
   22.6548  -10.4384   72.7910 H   0  0  0  0  0  0
   17.8555  -11.9553   71.6737 H   0  0  0  0  0  0
   18.2396  -10.5113   72.4605 H   0  0  0  0  0  0
   20.4895   -7.7237   78.5652 H   0  0  0  0  0  0
   14.5027   -7.5555   67.3406 H   0  0  0  0  0  0
   19.8349   -7.8600   71.3690 H   0  0  0  0  0  0
   11.9127   -5.3986   67.7404 H   0  0  0  0  0  0
   12.4473   -6.9435   67.3523 H   0  0  0  0  0  0
   15.6387   -3.4207   75.3587 H   0  0  0  0  0  0
   14.3567   -2.8397   76.2527 H   0  0  0  0  0  0
   16.2637   -5.1542   78.9763 H   0  0  0  0  0  0
   16.7576   -5.6218   67.4015 H   0  0  0  0  0  0
   16.8088   -7.3485   67.1278 H   0  0  0  0  0  0
   17.2664   -5.5435   76.7637 H   0  0  0  0  0  0
   23.3533   -6.3554   66.2765 H   0  0  0  0  0  0
   25.0437   -7.0498   70.1585 H   0  0  0  0  0  0
   21.2034   -5.7432   67.3235 H   0  0  0  0  0  0
   22.9559   -6.3961   71.2112 H   0  0  0  0  0  0
   21.0559   -5.1589   71.9740 H   0  0  0  0  0  0
   19.3830   -5.5069   71.7290 H   0  0  0  0  0  0
   26.0719   -7.5701   68.2025 H   0  0  0  0  0  0
   14.6358   -7.1275   73.5109 H   0  0  0  0  0  0
   15.5248   -7.0721   72.0320 H   0  0  0  0  0  0
   20.5590   -8.0213   81.0164 H   0  0  0  0  0  0
   19.7941   -6.3987   69.4570 H   0  0  0  0  0  0
   20.2310   -4.7551   69.6443 H   0  0  0  0  0  0
   15.9989   -3.5786   73.3876 H   0  0  0  0  0  0
   15.5000   -4.4259   71.9699 H   0  0  0  0  0  0
   16.3427   -5.4326   81.4621 H   0  0  0  0  0  0
   16.3531   -5.6845   74.6168 H   0  0  0  0  0  0
   17.2858   -5.6684   73.1476 H   0  0  0  0  0  0
   19.5675   -7.6251   83.2461 H   0  0  0  0  0  0
   17.4771   -6.3442   83.4645 H   0  0  0  0  0  0
  1  5  1  0  0  0
  1  7  1  0  0  0
  1 57  1  0  0  0
  2  9  1  0  0  0
  2  6  1  0  0  0
  2 58  1  0  0  0
  3  8  1  0  0  0
  3 21  2  0  0  0
  3  4  1  0  0  0
  4 14  1  0  0  0
  4 59  1  0  0  0
  5  9  1  0  0  0
  5 22  2  0  0  0
  6 14  1  0  0  0
  6 23  2  0  0  0
  7 10  1  0  0  0
  7 27  1  0  0  0
  7 60  1  0  0  0
  8 28  1  0  0  0
  8 11  1  0  0  0
  8 61  1  0  0  0
  9 20  1  0  0  0
  9 62  1  0  0  0
 10 30  2  0  0  0
 10 33  1  0  0  0
 11 15  1  0  0  0
 11 63  1  0  0  0
 12 32  1  0  0  0
 12 19  2  0  0  0
 12 36  1  0  0  0
 13 34  2  0  0  0
 13 18  1  0  0  0
 13 37  1  0  0  0
 14 49  1  0  0  0
 14 64  1  0  0  0
 15 25  1  0  0  0
 15 31  2  0  0  0
 16 17  1  0  0  0
 16 28  1  0  0  0
 17 27  1  0  0  0
 18 65  1  0  0  0
 18 66  1  0  0  0
 19 67  1  0  0  0
 20 26  1  0  0  0
 20 68  1  0  0  0
 20 69  1  0  0  0
 24 29  2  0  0  0
 24 50  1  0  0  0
 24 35  1  0  0  0
 25 39  1  0  0  0
 25 70  1  0  0  0
 25 71  1  0  0  0
 26 29  1  0  0  0
 26 40  2  0  0  0
 27 72  1  0  0  0
 27 73  1  0  0  0
 28 74  1  0  0  0
 28 75  1  0  0  0
 29 76  1  0  0  0
 32 39  1  0  0  0
 32 77  1  0  0  0
 33 47  1  0  0  0
 33 78  1  0  0  0
 34 52  1  0  0  0
 35 38  2  0  0  0
 35 53  1  0  0  0
 36 79  1  0  0  0
 36 80  1  0  0  0
 37 81  1  0  0  0
 37 82  1  0  0  0
 38 40  1  0  0  0
 38 83  1  0  0  0
 39 84  1  0  0  0
 39 85  1  0  0  0
 40 86  1  0  0  0
 41 44  1  0  0  0
 41 48  1  0  0  0
 41 43  2  0  0  0
 42 51  1  0  0  0
 42 45  2  0  0  0
 42 46  1  0  0  0
 43 45  1  0  0  0
 43 87  1  0  0  0
 44 46  2  0  0  0
 44 88  1  0  0  0
 45 89  1  0  0  0
 46 90  1  0  0  0
 47 51  1  0  0  0
 47 91  1  0  0  0
 47 92  1  0  0  0
 48 93  1  0  0  0
 49 54  1  0  0  0
 49 94  1  0  0  0
 49 95  1  0  0  0
 50 55  2  0  0  0
 50 96  1  0  0  0
 51 97  1  0  0  0
 51 98  1  0  0  0
 52 54  1  0  0  0
 52 99  1  0  0  0
 52100  1  0  0  0
 53 56  2  0  0  0
 53101  1  0  0  0
 54102  1  0  0  0
 54103  1  0  0  0
 55 56  1  0  0  0
 55104  1  0  0  0
 56105  1  0  0  0
M  END
> <s_m_entry_id>
39038

> <s_m_entry_name>
dock_pv.21

> <s_m_Source_Path>
/home/csk/Desktop/cluster/DUD-E-result/cxcr4

> <s_m_Source_File>
dock_pv.maegz

> <i_m_Source_File_Index>
21

> <chembl_id>
CHEMBL191639

> <chembl_pref_name>
None

> <i_lp_mmshare_version>
53161

> <i_f3d_flags>
0

> <r_lp_tautomer_probability>
0.999999999997365

> <s_lp_Force_Field>
OPLS_2005

> <r_lp_Energy>
-0.420738

> <b_lp_Chiralities_Consistent>
1

> <s_lp_Variant>
CHEMBL2107_lig132-1

> <s_i_glide_gridfile>
glide-grid_3odu

> <i_i_glide_lignum>
155

> <i_i_glide_rotatable_bonds>
18

> <r_i_docking_score>
-7.00045591763783

> <r_i_glide_ligand_efficiency>
-0.12500814138639

> <r_i_glide_ligand_efficiency_sa>
-0.478263942875163

> <r_i_glide_ligand_efficiency_ln>
-1.39302806021398

> <r_i_glide_gscore>
-7.00045591763783

> <r_i_glide_lipo>
-1.51405791842764

> <r_i_glide_hbond>
-0.582560188739813

> <r_i_glide_metal>
0

> <r_i_glide_rewards>
-0.214925969478113

> <r_i_glide_evdw>
-62.8740386962891

> <r_i_glide_ecoul>
-11.4278755187988

> <r_i_glide_erotb>
0.362010919175978

> <r_i_glide_esite>
-0.193039497533971

> <r_i_glide_emodel>
-95.2187967002834

> <r_i_glide_energy>
-74.3019142150879

> <r_i_glide_einternal>
16.4151992797852

> <i_i_glide_confnum>
10

> <i_i_glide_posenum>
120

> <r_i_glide_eff_state_penalty>
0

> <s_user_duplicate_titles>
CHEMBL2107_lig132

> <s_m_subgroup_title>
dock_pv

> <s_m_subgroupid>
dock_pv

> <b_m_subgroup_collapsed>
0

$$$$
CHEMBL2107_lig145
                    3D
 Schrodinger Suite 2021-1.
 87 90  0  0  1  0            999 V2000
   12.4735   -7.8795   69.9285 N   0  0  0  0  0  0
   13.5746   -8.8321   69.7083 C   0  0  2  0  0  0
   13.6448   -9.2650   72.0627 O   0  0  0  0  0  0
   14.2854   -9.2617   71.0115 C   0  0  0  0  0  0
   20.2317  -11.0990   69.9121 N   0  0  0  0  0  0
   21.5972  -11.2692   70.0857 C   0  0  0  0  0  0
   22.2563  -10.0697   69.8988 N   0  0  0  0  0  0
   22.1737  -12.3600   70.3569 N   0  0  0  0  0  0
   15.5721   -9.6532   70.9272 N   0  0  0  0  0  0
   16.4080   -9.9834   72.0930 C   0  0  2  0  0  0
   16.8951   -7.6603   72.3381 O   0  0  0  0  0  0
   16.6469   -8.7163   72.9228 C   0  0  0  0  0  0
   17.7885  -10.5591   71.6826 C   0  0  0  0  0  0
   17.8241  -11.3471   70.3689 C   0  0  0  0  0  0
   19.1626  -12.0613   70.1168 C   0  0  0  0  0  0
   16.6149   -8.8606   74.2561 N   0  0  0  0  0  0
   16.7730   -7.7713   75.2251 C   0  0  2  0  0  0
   14.4364   -7.2731   75.2891 O   0  0  0  0  0  0
   15.5671   -6.8197   75.0952 C   0  0  0  0  0  0
   15.8091   -5.5551   74.7217 N   0  0  0  0  0  0
   14.7888   -4.6828   74.1517 C   0  0  0  0  0  0
   15.8562   -4.5978   72.0071 O   0  0  0  0  0  0
   14.8435   -4.8980   72.6361 C   0  0  0  0  0  0
   13.7576   -5.4106   72.0413 N   0  0  0  0  0  0
   13.7042   -5.7818   70.6284 C   0  0  1  0  0  0
   12.4346   -6.6267   70.4242 C   0  0  0  0  0  0
   13.7186   -4.5018   69.7386 C   0  0  0  0  0  0
   12.7301   -4.4406   67.3961 C   0  0  0  0  0  0
   13.8108   -4.7562   68.2434 C   0  0  0  0  0  0
   14.9702   -5.3447   67.7041 C   0  0  0  0  0  0
   14.9945   -5.7366   66.3540 C   0  0  0  0  0  0
   13.8762   -5.5010   65.5276 C   0  0  0  0  0  0
   12.7612   -4.8129   66.0397 C   0  0  0  0  0  0
   13.8560   -5.9545   64.2409 O   0  0  0  0  0  0
   11.3629   -6.1145   70.7428 O   0  0  0  0  0  0
   18.1614   -7.0715   75.1423 C   0  0  0  0  0  0
   19.3113   -8.0524   75.3037 C   0  0  0  0  0  0
   19.7287   -8.3818   76.5858 C   0  0  0  0  0  0
   20.7523   -9.2982   76.7721 C   0  0  0  0  0  0
   19.9308   -8.6340   74.1941 C   0  0  0  0  0  0
   20.9642   -9.5925   74.3696 C   0  0  0  0  0  0
   21.3847   -9.9262   75.6883 C   0  0  0  0  0  0
   22.4180  -10.8738   75.8854 C   0  0  0  0  0  0
   23.0235  -11.4798   74.7919 C   0  0  0  0  0  0
   22.6111  -11.1635   73.5043 C   0  0  0  0  0  0
   21.5937  -10.2363   73.2814 C   0  0  0  0  0  0
   14.5147   -8.4379   68.5549 C   0  0  0  0  0  0
   11.5665   -8.3074   69.8240 H   0  0  0  0  0  0
   13.0561   -9.7153   69.3495 H   0  0  0  0  0  0
   19.9208  -10.1600   69.7091 H   0  0  0  0  0  0
   23.2210  -10.0584   70.2090 H   0  0  0  0  0  0
   22.2103   -9.6968   68.9605 H   0  0  0  0  0  0
   23.1743  -12.2460   70.4561 H   0  0  0  0  0  0
   16.0383   -9.6418   70.0326 H   0  0  0  0  0  0
   15.8735  -10.7179   72.7002 H   0  0  0  0  0  0
   18.1538  -11.1907   72.4950 H   0  0  0  0  0  0
   18.5204   -9.7543   71.5911 H   0  0  0  0  0  0
   17.6351  -10.6503   69.5571 H   0  0  0  0  0  0
   17.0082  -12.0638   70.3500 H   0  0  0  0  0  0
   19.0815  -12.6806   69.2231 H   0  0  0  0  0  0
   19.4089  -12.7232   70.9463 H   0  0  0  0  0  0
   16.3745   -9.7602   74.6528 H   0  0  0  0  0  0
   16.6873   -8.2321   76.2104 H   0  0  0  0  0  0
   16.7685   -5.2127   74.6552 H   0  0  0  0  0  0
   15.0358   -3.6446   74.3777 H   0  0  0  0  0  0
   13.7940   -4.8826   74.5557 H   0  0  0  0  0  0
   12.9406   -5.6521   72.5851 H   0  0  0  0  0  0
   14.5887   -6.3791   70.4201 H   0  0  0  0  0  0
   14.5633   -3.8637   69.9903 H   0  0  0  0  0  0
   12.8343   -3.8993   69.9481 H   0  0  0  0  0  0
   11.8560   -3.9547   67.7990 H   0  0  0  0  0  0
   15.8199   -5.5556   68.3357 H   0  0  0  0  0  0
   15.8631   -6.2512   65.9664 H   0  0  0  0  0  0
   11.9125   -4.6049   65.4035 H   0  0  0  0  0  0
   14.6221   -6.5073   64.0281 H   0  0  0  0  0  0
   18.2446   -6.3387   75.9439 H   0  0  0  0  0  0
   18.2962   -6.5247   74.2067 H   0  0  0  0  0  0
   19.2545   -7.9407   77.4502 H   0  0  0  0  0  0
   21.0563   -9.5550   77.7773 H   0  0  0  0  0  0
   19.6161   -8.3716   73.1954 H   0  0  0  0  0  0
   22.7303  -11.1191   76.8901 H   0  0  0  0  0  0
   23.8180  -12.1923   74.9438 H   0  0  0  0  0  0
   23.1065  -11.6274   72.6683 H   0  0  0  0  0  0
   21.2855   -9.9874   72.2809 H   0  0  0  0  0  0
   15.0028   -9.3188   68.1336 H   0  0  0  0  0  0
   13.9611   -7.9733   67.7401 H   0  0  0  0  0  0
   15.3097   -7.7673   68.8729 H   0  0  0  0  0  0
  1  2  1  0  0  0
  1 26  1  0  0  0
  1 48  1  0  0  0
  2  4  1  0  0  0
  2 47  1  0  0  0
  2 49  1  0  0  0
  3  4  2  0  0  0
  4  9  1  0  0  0
  5  6  1  0  0  0
  5 15  1  0  0  0
  5 50  1  0  0  0
  6  7  1  0  0  0
  6  8  2  0  0  0
  7 51  1  0  0  0
  7 52  1  0  0  0
  8 53  1  0  0  0
  9 10  1  0  0  0
  9 54  1  0  0  0
 10 12  1  0  0  0
 10 13  1  0  0  0
 10 55  1  0  0  0
 11 12  2  0  0  0
 12 16  1  0  0  0
 13 14  1  0  0  0
 13 56  1  0  0  0
 13 57  1  0  0  0
 14 15  1  0  0  0
 14 58  1  0  0  0
 14 59  1  0  0  0
 15 60  1  0  0  0
 15 61  1  0  0  0
 16 17  1  0  0  0
 16 62  1  0  0  0
 17 19  1  0  0  0
 17 36  1  0  0  0
 17 63  1  0  0  0
 18 19  2  0  0  0
 19 20  1  0  0  0
 20 21  1  0  0  0
 20 64  1  0  0  0
 21 23  1  0  0  0
 21 65  1  0  0  0
 21 66  1  0  0  0
 22 23  2  0  0  0
 23 24  1  0  0  0
 24 25  1  0  0  0
 24 67  1  0  0  0
 25 26  1  0  0  0
 25 27  1  0  0  0
 25 68  1  0  0  0
 26 35  2  0  0  0
 27 29  1  0  0  0
 27 69  1  0  0  0
 27 70  1  0  0  0
 28 29  2  0  0  0
 28 33  1  0  0  0
 28 71  1  0  0  0
 29 30  1  0  0  0
 30 31  2  0  0  0
 30 72  1  0  0  0
 31 32  1  0  0  0
 31 73  1  0  0  0
 32 33  2  0  0  0
 32 34  1  0  0  0
 33 74  1  0  0  0
 34 75  1  0  0  0
 36 37  1  0  0  0
 36 76  1  0  0  0
 36 77  1  0  0  0
 37 38  2  0  0  0
 37 40  1  0  0  0
 38 39  1  0  0  0
 38 78  1  0  0  0
 39 42  2  0  0  0
 39 79  1  0  0  0
 40 41  2  0  0  0
 40 80  1  0  0  0
 41 42  1  0  0  0
 41 46  1  0  0  0
 42 43  1  0  0  0
 43 44  2  0  0  0
 43 81  1  0  0  0
 44 45  1  0  0  0
 44 82  1  0  0  0
 45 46  2  0  0  0
 45 83  1  0  0  0
 46 84  1  0  0  0
 47 85  1  0  0  0
 47 86  1  0  0  0
 47 87  1  0  0  0
M  END
> <s_m_entry_id>
39039

> <s_m_entry_name>
dock_pv.22

> <s_m_Source_Path>
/home/csk/Desktop/cluster/DUD-E-result/cxcr4

> <s_m_Source_File>
dock_pv.maegz

> <i_m_Source_File_Index>
22

> <chembl_id>
CHEMBL192685

> <chembl_pref_name>
None

> <i_lp_mmshare_version>
53161

> <i_f3d_flags>
0

> <r_lp_tautomer_probability>
0.999999999997365

> <s_lp_Force_Field>
OPLS_2005

> <r_lp_Energy>
23.656925

> <b_lp_Chiralities_Consistent>
1

> <s_lp_Variant>
CHEMBL2107_lig145-1

> <s_i_glide_gridfile>
glide-grid_3odu

> <i_i_glide_lignum>
168

> <i_i_glide_rotatable_bonds>
10

> <r_i_docking_score>
-6.95786614142756

> <r_i_glide_ligand_efficiency>
-0.148039705136757

> <r_i_glide_ligand_efficiency_sa>
-0.534249548107923

> <r_i_glide_ligand_efficiency_ln>
-1.43456791685564

> <r_i_glide_gscore>
-6.95786614142756

> <r_i_glide_lipo>
-0.617515047784639

> <r_i_glide_hbond>
-1.13632474970289

> <r_i_glide_metal>
0

> <r_i_glide_rewards>
-0.196187052328318

> <r_i_glide_evdw>
-47.1006278991699

> <r_i_glide_ecoul>
-18.2773571014404

> <r_i_glide_erotb>
0.311550460427699

> <r_i_glide_esite>
-0.222754791864847

> <r_i_glide_emodel>
-91.6287266098599

> <r_i_glide_energy>
-65.3779850006104

> <r_i_glide_einternal>
6.9752836227417

> <i_i_glide_confnum>
1

> <i_i_glide_posenum>
267

> <r_i_glide_eff_state_penalty>
0

> <s_user_duplicate_titles>
CHEMBL2107_lig145

> <s_m_subgroup_title>
dock_pv

> <s_m_subgroupid>
dock_pv

> <b_m_subgroup_collapsed>
0

$$$$
CHEMBL2107_lig494
                    3D
 Schrodinger Suite 2021-1.
 63 67  0  0  1  0            999 V2000
   23.4553  -11.5551   70.5170 N   0  0  0  0  0  0
   22.3083  -12.0133   70.9979 C   0  0  0  0  0  0
   21.8932  -13.1442   70.7570 O   0  0  0  0  0  0
   21.6867  -11.1116   71.7644 N   0  0  0  0  0  0
   20.4277  -11.3483   72.4695 C   0  0  0  0  0  0
   19.1738  -10.9409   71.6695 C   0  0  0  0  0  0
   19.0616   -9.4260   71.3908 C   0  0  0  0  0  0
   19.5617   -8.9804   69.9967 C   0  0  0  0  0  0
   19.7708   -7.5239   69.8486 N   0  0  2  0  0  0
   18.7586   -6.6428   70.4765 C   0  0  0  0  0  0
   17.3192   -6.6554   69.9362 C   0  0  0  0  0  0
   17.0415   -7.5098   68.9104 N   0  0  0  0  0  0
   15.8054   -7.5537   68.3624 C   0  0  0  0  0  0
   14.7454   -6.7566   68.7862 C   0  0  0  0  0  0
   14.9934   -5.8720   69.8487 C   0  0  0  0  0  0
   14.1957   -4.9347   70.5269 C   0  0  0  0  0  0
   12.8568   -4.5351   70.3825 C   0  0  0  0  0  0
   12.3583   -3.5560   71.2387 C   0  0  0  0  0  0
   13.1625   -2.9809   72.2217 C   0  0  0  0  0  0
   14.4975   -3.3516   72.3925 C   0  0  0  0  0  0
   14.9990   -4.3357   71.5342 C   0  0  0  0  0  0
   16.2559   -4.9036   71.4522 N   0  0  0  0  0  0
   16.2905   -5.8354   70.4280 C   0  0  0  0  0  0
   20.3118   -7.1324   68.5166 C   0  0  1  0  0  0
   19.7736   -5.8167   67.8808 C   0  0  0  0  0  0
   20.3973   -5.5321   66.5111 C   0  0  0  0  0  0
   21.9049   -5.3047   66.6643 C   0  0  0  0  0  0
   22.5812   -6.3740   67.5122 C   0  0  0  0  0  0
   23.9630   -6.5614   67.4026 C   0  0  0  0  0  0
   24.6166   -7.5364   68.1451 C   0  0  0  0  0  0
   23.8517   -8.3180   68.9958 C   0  0  0  0  0  0
   22.5163   -8.1539   69.1425 N   0  0  0  0  0  0
   21.8617   -7.2000   68.4155 C   0  0  0  0  0  0
   23.8529  -10.7054   70.9212 H   0  0  0  0  0  0
   24.0420  -12.1535   69.9558 H   0  0  0  0  0  0
   22.1294  -10.2136   71.9017 H   0  0  0  0  0  0
   20.3433  -12.3839   72.8073 H   0  0  0  0  0  0
   20.4755  -10.7467   73.3785 H   0  0  0  0  0  0
   19.1085  -11.5133   70.7421 H   0  0  0  0  0  0
   18.3039  -11.2533   72.2508 H   0  0  0  0  0  0
   17.9932   -9.2055   71.4119 H   0  0  0  0  0  0
   19.4927   -8.8282   72.1942 H   0  0  0  0  0  0
   20.4728   -9.5283   69.7597 H   0  0  0  0  0  0
   18.8428   -9.3180   69.2484 H   0  0  0  0  0  0
   18.6998   -6.8665   71.5410 H   0  0  0  0  0  0
   19.1229   -5.6162   70.4539 H   0  0  0  0  0  0
   15.6776   -8.2626   67.5554 H   0  0  0  0  0  0
   13.7747   -6.8243   68.3180 H   0  0  0  0  0  0
   12.2208   -4.9767   69.6276 H   0  0  0  0  0  0
   11.3286   -3.2436   71.1422 H   0  0  0  0  0  0
   12.7359   -2.2319   72.8733 H   0  0  0  0  0  0
   15.1129   -2.8997   73.1585 H   0  0  0  0  0  0
   17.0356   -4.6490   72.0509 H   0  0  0  0  0  0
   19.9794   -7.9056   67.8214 H   0  0  0  0  0  0
   18.6934   -5.8503   67.7600 H   0  0  0  0  0  0
   19.9820   -4.9745   68.5363 H   0  0  0  0  0  0
   20.2010   -6.3549   65.8249 H   0  0  0  0  0  0
   19.9347   -4.6514   66.0633 H   0  0  0  0  0  0
   22.3750   -5.2297   65.6827 H   0  0  0  0  0  0
   22.0798   -4.3549   67.1585 H   0  0  0  0  0  0
   24.5321   -5.9592   66.7115 H   0  0  0  0  0  0
   25.6796   -7.6963   68.0451 H   0  0  0  0  0  0
   24.3117   -9.1128   69.5571 H   0  0  0  0  0  0
  1  2  1  0  0  0
  1 34  1  0  0  0
  1 35  1  0  0  0
  2  3  2  0  0  0
  2  4  1  0  0  0
  4  5  1  0  0  0
  4 36  1  0  0  0
  5  6  1  0  0  0
  5 37  1  0  0  0
  5 38  1  0  0  0
  6  7  1  0  0  0
  6 39  1  0  0  0
  6 40  1  0  0  0
  7  8  1  0  0  0
  7 41  1  0  0  0
  7 42  1  0  0  0
  8  9  1  0  0  0
  8 43  1  0  0  0
  8 44  1  0  0  0
  9 10  1  0  0  0
  9 24  1  0  0  0
 10 11  1  0  0  0
 10 45  1  0  0  0
 10 46  1  0  0  0
 11 12  2  0  0  0
 11 23  1  0  0  0
 12 13  1  0  0  0
 13 14  2  0  0  0
 13 47  1  0  0  0
 14 15  1  0  0  0
 14 48  1  0  0  0
 15 16  1  0  0  0
 15 23  2  0  0  0
 16 17  2  0  0  0
 16 21  1  0  0  0
 17 18  1  0  0  0
 17 49  1  0  0  0
 18 19  2  0  0  0
 18 50  1  0  0  0
 19 20  1  0  0  0
 19 51  1  0  0  0
 20 21  2  0  0  0
 20 52  1  0  0  0
 21 22  1  0  0  0
 22 23  1  0  0  0
 22 53  1  0  0  0
 24 25  1  0  0  0
 24 33  1  0  0  0
 24 54  1  0  0  0
 25 26  1  0  0  0
 25 55  1  0  0  0
 25 56  1  0  0  0
 26 27  1  0  0  0
 26 57  1  0  0  0
 26 58  1  0  0  0
 27 28  1  0  0  0
 27 59  1  0  0  0
 27 60  1  0  0  0
 28 29  2  0  0  0
 28 33  1  0  0  0
 29 30  1  0  0  0
 29 61  1  0  0  0
 30 31  2  0  0  0
 30 62  1  0  0  0
 31 32  1  0  0  0
 31 63  1  0  0  0
 32 33  2  0  0  0
M  END
> <s_m_entry_id>
39040

> <s_m_entry_name>
dock_pv.23

> <s_m_Source_Path>
/home/csk/Desktop/cluster/DUD-E-result/cxcr4

> <s_m_Source_File>
dock_pv.maegz

> <i_m_Source_File_Index>
23

> <chembl_id>
CHEMBL3966215

> <chembl_pref_name>
None

> <i_lp_mmshare_version>
53161

> <i_f3d_flags>
0

> <r_lp_tautomer_probability>
1

> <s_lp_Force_Field>
OPLS_2005

> <r_lp_Energy>
19.544129

> <b_lp_Chiralities_Consistent>
1

> <s_lp_Variant>
CHEMBL2107_lig494-1

> <s_i_glide_gridfile>
glide-grid_3odu

> <i_i_glide_lignum>
534

> <i_i_glide_rotatable_bonds>
9

> <r_i_docking_score>
-6.95206739858719

> <r_i_glide_ligand_efficiency>
-0.210668709048097

> <r_i_glide_ligand_efficiency_sa>
-0.675727115740111

> <r_i_glide_ligand_efficiency_ln>
-1.54610379356726

> <r_i_glide_gscore>
-6.95206739858719

> <r_i_glide_lipo>
-2.31445300089629

> <r_i_glide_hbond>
-0.715460856178047

> <r_i_glide_metal>
0

> <r_i_glide_rewards>
-0.452961732743426

> <r_i_glide_evdw>
-40.6628723144531

> <r_i_glide_ecoul>
-13.1724185943604

> <r_i_glide_erotb>
0.816287728434569

> <r_i_glide_esite>
-0.276473132327296

> <r_i_glide_emodel>
-74.7637848775492

> <r_i_glide_energy>
-53.8352909088135

> <r_i_glide_einternal>
8.14979267120361

> <i_i_glide_confnum>
58

> <i_i_glide_posenum>
308

> <r_i_glide_eff_state_penalty>
0

> <s_user_duplicate_titles>
CHEMBL2107_lig494

> <s_m_subgroup_title>
dock_pv

> <s_m_subgroupid>
dock_pv

> <b_m_subgroup_collapsed>
0

$$$$
CHEMBL2107_lig138
                    3D
 Schrodinger Suite 2021-1.
 93 95  0  0  1  0            999 V2000
   19.2862   -9.8340   72.3925 N   0  0  0  0  0  0
   17.7122   -8.2540   74.1233 N   0  0  0  0  0  0
   20.5822  -11.7775   73.8365 N   0  0  0  0  0  0
   20.9379  -11.7217   72.5382 C   0  0  0  0  0  0
   17.9556  -10.0001   72.2905 C   0  0  0  0  0  0
   18.2514   -8.7366   75.2546 C   0  0  0  0  0  0
   20.2906  -10.6219   71.6609 C   0  0  2  0  0  0
   14.8574   -5.8802   76.0381 C   0  0  0  0  0  0
   14.7539   -7.4399   68.7828 C   0  0  0  0  0  0
   17.0333   -9.0653   73.1053 C   0  0  2  0  0  0
   21.1475  -14.1002   74.6790 C   0  0  0  0  0  0
   21.2559  -12.5618   74.8844 C   0  0  1  0  0  0
   17.7857   -7.3741   77.1618 N   0  0  0  0  0  0
   18.8460   -7.6901   76.2150 C   0  0  1  0  0  0
   17.8003   -6.3997   78.0855 C   0  0  0  0  0  0
   14.6567   -8.4641   67.8264 N   0  0  0  0  0  0
   14.1631   -6.8411   76.4666 N   0  0  0  0  0  0
   21.4002   -9.7082   71.0584 C   0  0  0  0  0  0
   21.7665  -12.4742   72.0234 O   0  0  0  0  0  0
   18.2582   -9.9284   75.5571 O   0  0  0  0  0  0
   17.4332  -10.8529   71.5751 O   0  0  0  0  0  0
   21.6080   -6.8708   68.4842 C   0  0  0  0  0  0
   16.4835   -6.1868   78.8417 C   0  0  0  0  0  0
   20.9622   -8.6940   69.9906 C   0  0  0  0  0  0
   21.9180   -7.7862   69.5211 C   0  0  0  0  0  0
   20.0729  -14.6046   74.3611 O   0  0  0  0  0  0
   18.7732   -5.6873   78.3230 O   0  0  0  0  0  0
   15.5437   -4.9238   76.8325 N   0  0  0  0  0  0
   15.8713   -7.0746   69.2638 N   0  0  0  0  0  0
   20.2814   -6.8448   67.9560 C   0  0  0  0  0  0
   13.4820   -6.9103   69.0829 N   0  0  0  0  0  0
   15.0561   -5.6518   74.6650 N   0  0  0  0  0  0
   21.1857   -8.7305   75.9555 C   0  0  0  0  0  0
   21.8619   -9.8611   76.2246 C   0  0  0  0  0  0
   22.2251  -14.8640   74.9015 N   0  0  0  0  0  0
   19.3212   -7.7486   68.4673 C   0  0  0  0  0  0
   15.6029   -5.0275   78.2958 C   0  0  0  0  0  0
   19.6750   -8.6727   69.4443 C   0  0  0  0  0  0
   20.1745   -8.1065   76.9059 C   0  0  0  0  0  0
   16.1339   -8.2102   72.1783 C   0  0  0  0  0  0
   22.7010  -12.0470   75.1593 C   0  0  0  0  0  0
   22.5804   -5.9947   67.9364 C   0  0  0  0  0  0
   22.8535  -10.5155   75.2830 C   0  0  0  0  0  0
   15.9591   -6.2699   70.4735 C   0  0  0  0  0  0
   19.9701   -5.9559   66.9013 C   0  0  0  0  0  0
   16.8238   -6.9862   71.5305 C   0  0  0  0  0  0
   22.2545   -5.1568   66.8692 C   0  0  0  0  0  0
   20.9632   -5.1529   66.3551 C   0  0  0  0  0  0
   19.6406   -9.1013   72.9909 H   0  0  0  0  0  0
   17.7410   -7.2609   73.9525 H   0  0  0  0  0  0
   19.8492  -11.1599   74.1643 H   0  0  0  0  0  0
   19.8169  -11.1625   70.8404 H   0  0  0  0  0  0
   16.3635   -9.7419   73.6417 H   0  0  0  0  0  0
   20.6732  -12.3741   75.7875 H   0  0  0  0  0  0
   16.9417   -7.9130   77.0368 H   0  0  0  0  0  0
   19.0451   -6.7864   75.6331 H   0  0  0  0  0  0
   15.5282   -8.7969   67.4254 H   0  0  0  0  0  0
   13.9583   -8.3547   67.1017 H   0  0  0  0  0  0
   13.7785   -7.3829   75.7040 H   0  0  0  0  0  0
   21.8892   -9.1581   71.8656 H   0  0  0  0  0  0
   22.1806  -10.3167   70.5957 H   0  0  0  0  0  0
   15.9095   -7.1135   78.8251 H   0  0  0  0  0  0
   16.7240   -6.0095   79.8907 H   0  0  0  0  0  0
   22.9199   -7.8030   69.9265 H   0  0  0  0  0  0
   16.3435   -4.4692   76.4046 H   0  0  0  0  0  0
   13.4217   -6.3242   69.9008 H   0  0  0  0  0  0
   12.7058   -7.5542   69.0588 H   0  0  0  0  0  0
   14.7475   -6.3122   73.9715 H   0  0  0  0  0  0
   15.7811   -5.0209   74.3506 H   0  0  0  0  0  0
   21.3587   -8.2157   75.0217 H   0  0  0  0  0  0
   21.6851  -10.3738   77.1582 H   0  0  0  0  0  0
   22.1523  -15.8607   74.7593 H   0  0  0  0  0  0
   23.1135  -14.4549   75.1485 H   0  0  0  0  0  0
   18.3200   -7.7585   68.0578 H   0  0  0  0  0  0
   14.5884   -5.1273   78.6857 H   0  0  0  0  0  0
   15.9975   -4.0749   78.6547 H   0  0  0  0  0  0
   18.9187   -9.3735   69.7555 H   0  0  0  0  0  0
   19.9775   -8.7702   77.7471 H   0  0  0  0  0  0
   20.6456   -7.2180   77.3294 H   0  0  0  0  0  0
   15.7314   -8.8503   71.3910 H   0  0  0  0  0  0
   15.2596   -7.8846   72.7431 H   0  0  0  0  0  0
   23.0729  -12.5076   76.0745 H   0  0  0  0  0  0
   23.3689  -12.3588   74.3572 H   0  0  0  0  0  0
   23.5848   -6.0027   68.3321 H   0  0  0  0  0  0
   23.8550  -10.2861   75.6439 H   0  0  0  0  0  0
   22.7836  -10.0524   74.2973 H   0  0  0  0  0  0
   14.9938   -6.0016   70.9133 H   0  0  0  0  0  0
   16.4404   -5.3252   70.2136 H   0  0  0  0  0  0
   18.9694   -5.9407   66.4908 H   0  0  0  0  0  0
   17.0734   -6.2637   72.3075 H   0  0  0  0  0  0
   17.7733   -7.2777   71.0846 H   0  0  0  0  0  0
   23.0046   -4.5053   66.4473 H   0  0  0  0  0  0
   20.7208   -4.4966   65.5311 H   0  0  0  0  0  0
  1  5  1  0  0  0
  1  7  1  0  0  0
  1 49  1  0  0  0
  2 10  1  0  0  0
  2  6  1  0  0  0
  2 50  1  0  0  0
  3  4  1  0  0  0
  3 12  1  0  0  0
  3 51  1  0  0  0
  4  7  1  0  0  0
  4 19  2  0  0  0
  5 10  1  0  0  0
  5 21  2  0  0  0
  6 14  1  0  0  0
  6 20  2  0  0  0
  7 18  1  0  0  0
  7 52  1  0  0  0
  8 28  1  0  0  0
  8 17  2  0  0  0
  8 32  1  0  0  0
  9 29  2  0  0  0
  9 16  1  0  0  0
  9 31  1  0  0  0
 10 40  1  0  0  0
 10 53  1  0  0  0
 11 12  1  0  0  0
 11 26  2  0  0  0
 11 35  1  0  0  0
 12 41  1  0  0  0
 12 54  1  0  0  0
 13 14  1  0  0  0
 13 15  1  0  0  0
 13 55  1  0  0  0
 14 39  1  0  0  0
 14 56  1  0  0  0
 15 23  1  0  0  0
 15 27  2  0  0  0
 16 57  1  0  0  0
 16 58  1  0  0  0
 17 59  1  0  0  0
 18 24  1  0  0  0
 18 60  1  0  0  0
 18 61  1  0  0  0
 22 25  2  0  0  0
 22 42  1  0  0  0
 22 30  1  0  0  0
 23 37  1  0  0  0
 23 62  1  0  0  0
 23 63  1  0  0  0
 24 25  1  0  0  0
 24 38  2  0  0  0
 25 64  1  0  0  0
 28 37  1  0  0  0
 28 65  1  0  0  0
 29 44  1  0  0  0
 30 36  2  0  0  0
 30 45  1  0  0  0
 31 66  1  0  0  0
 31 67  1  0  0  0
 32 68  1  0  0  0
 32 69  1  0  0  0
 33 39  1  0  0  0
 33 34  2  0  0  0
 33 70  1  0  0  0
 34 43  1  0  0  0
 34 71  1  0  0  0
 35 72  1  0  0  0
 35 73  1  0  0  0
 36 38  1  0  0  0
 36 74  1  0  0  0
 37 75  1  0  0  0
 37 76  1  0  0  0
 38 77  1  0  0  0
 39 78  1  0  0  0
 39 79  1  0  0  0
 40 46  1  0  0  0
 40 80  1  0  0  0
 40 81  1  0  0  0
 41 43  1  0  0  0
 41 82  1  0  0  0
 41 83  1  0  0  0
 42 47  2  0  0  0
 42 84  1  0  0  0
 43 85  1  0  0  0
 43 86  1  0  0  0
 44 46  1  0  0  0
 44 87  1  0  0  0
 44 88  1  0  0  0
 45 48  2  0  0  0
 45 89  1  0  0  0
 46 90  1  0  0  0
 46 91  1  0  0  0
 47 48  1  0  0  0
 47 92  1  0  0  0
 48 93  1  0  0  0
M  END
> <s_m_entry_id>
39041

> <s_m_entry_name>
dock_pv.24

> <s_m_Source_Path>
/home/csk/Desktop/cluster/DUD-E-result/cxcr4

> <s_m_Source_File>
dock_pv.maegz

> <i_m_Source_File_Index>
24

> <chembl_id>
CHEMBL191651

> <chembl_pref_name>
None

> <i_lp_mmshare_version>
53161

> <i_f3d_flags>
0

> <r_lp_tautomer_probability>
1

> <s_lp_Force_Field>
OPLS_2005

> <r_lp_Energy>
5.808499

> <b_lp_Chiralities_Consistent>
1

> <s_lp_Variant>
CHEMBL2107_lig138-1

> <s_i_glide_gridfile>
glide-grid_3odu

> <i_i_glide_lignum>
161

> <i_i_glide_rotatable_bonds>
13

> <r_i_docking_score>
-6.91814385975909

> <r_i_glide_ligand_efficiency>
-0.144127997078314

> <r_i_glide_ligand_efficiency_sa>
-0.523795902313405

> <r_i_glide_ligand_efficiency_ln>
-1.42021317623058

> <r_i_glide_gscore>
-6.91814385975909

> <r_i_glide_lipo>
-2.35836399904412

> <r_i_glide_hbond>
-0.410989557481867

> <r_i_glide_metal>
0

> <r_i_glide_rewards>
-0.282550433461098

> <r_i_glide_evdw>
-57.5831756591797

> <r_i_glide_ecoul>
-8.14613819122314

> <r_i_glide_erotb>
0.42162903073884

> <r_i_glide_esite>
-0.186789388868392

> <r_i_glide_emodel>
-89.2321133650998

> <r_i_glide_energy>
-65.7293138504028

> <r_i_glide_einternal>
11.7738628387451

> <i_i_glide_confnum>
14

> <i_i_glide_posenum>
132

> <r_i_glide_eff_state_penalty>
0

> <s_user_duplicate_titles>
CHEMBL2107_lig138

> <s_m_subgroup_title>
dock_pv

> <s_m_subgroupid>
dock_pv

> <b_m_subgroup_collapsed>
0

$$$$
CHEMBL2107_lig156
                    3D
 Schrodinger Suite 2021-1.
 93 96  0  0  1  0            999 V2000
   18.8326  -10.1189   73.0796 N   0  0  0  0  0  0
   15.8884   -6.3296   71.4773 N   0  0  0  0  0  0
   17.5509   -6.9501   74.3028 N   0  0  0  0  0  0
   16.0828   -6.2514   70.1552 C   0  0  0  0  0  0
   16.3212   -6.8557   73.7654 C   0  0  0  0  0  0
   18.3872   -9.2425   73.9834 C   0  0  0  0  0  0
   17.2397   -7.3084   68.2630 N   0  0  0  0  0  0
   18.9004  -10.3473   70.6524 C   0  0  0  0  0  0
   19.7150   -9.9774   71.9167 C   0  0  2  0  0  0
   16.1999   -7.5207   69.2753 C   0  0  2  0  0  0
   18.7475   -9.4656   69.6529 N   0  0  0  0  0  0
   16.0265   -7.4639   72.3785 C   0  0  1  0  0  0
   19.1733   -6.7795   79.6175 C   0  0  0  0  0  0
   18.6975   -7.7402   73.8526 C   0  0  2  0  0  0
   18.5732   -7.3942   68.4157 C   0  0  0  0  0  0
   19.0637   -5.5249   79.6435 N   0  0  0  0  0  0
   12.2507   -8.7307   72.4600 C   0  0  0  0  0  0
   21.0166  -10.8526   72.0074 C   0  0  0  0  0  0
   16.1279   -5.1550   69.6024 O   0  0  0  0  0  0
   15.4300   -6.2271   74.3326 O   0  0  0  0  0  0
   17.7190   -9.6227   74.9422 O   0  0  0  0  0  0
   14.8728   -7.8396   68.5342 C   0  0  0  0  0  0
   19.8442  -13.8413   74.1635 C   0  0  0  0  0  0
   18.4238  -11.4757   70.5721 O   0  0  0  0  0  0
   21.0113  -12.0434   72.9833 C   0  0  0  0  0  0
   19.8760  -12.8416   73.1730 C   0  0  0  0  0  0
   19.1699   -8.0681   69.6518 C   0  0  0  0  0  0
   19.3294   -6.9535   67.5564 O   0  0  0  0  0  0
   12.3755   -9.9480   72.3575 O   0  0  0  0  0  0
   14.7937   -8.4086   72.3530 C   0  0  0  0  0  0
   19.2496   -7.5549   78.4680 N   0  0  0  0  0  0
   21.0365  -14.1368   74.8874 C   0  0  0  0  0  0
   19.2139   -7.5551   80.7589 N   0  0  0  0  0  0
   22.1988  -13.3693   74.6381 C   0  0  0  0  0  0
   13.4069   -7.7312   72.4075 C   0  0  0  0  0  0
   14.2327   -6.6682   67.7994 C   0  0  0  0  0  0
   22.1658  -12.3265   73.7145 C   0  0  0  0  0  0
   13.2134   -4.3632   66.5366 C   0  0  0  0  0  0
   11.0570   -8.1023   72.6546 O   0  0  0  0  0  0
   13.3030   -5.8425   68.4668 C   0  0  0  0  0  0
   14.6164   -6.3541   66.4791 C   0  0  0  0  0  0
   12.8204   -4.6785   67.8469 C   0  0  0  0  0  0
   14.1009   -5.2071   65.8429 C   0  0  0  0  0  0
   12.7261   -3.2304   65.9629 O   0  0  0  0  0  0
   19.9553   -7.3347   74.6644 C   0  0  0  0  0  0
   18.6551  -14.5490   74.4611 C   0  0  0  0  0  0
   19.0460   -7.1179   77.0973 C   0  0  0  0  0  0
   21.0161  -15.1884   75.8306 C   0  0  0  0  0  0
   20.0512   -7.7858   76.1442 C   0  0  0  0  0  0
   18.6598  -15.5557   75.4190 C   0  0  0  0  0  0
   19.8398  -15.8879   76.0743 C   0  0  0  0  0  0
   18.5476  -11.0744   73.2355 H   0  0  0  0  0  0
   15.7657   -5.4530   71.9677 H   0  0  0  0  0  0
   17.7133   -6.4298   75.1535 H   0  0  0  0  0  0
   16.9018   -6.9208   67.3943 H   0  0  0  0  0  0
   20.0587   -8.9515   71.8431 H   0  0  0  0  0  0
   16.4472   -8.3872   69.8808 H   0  0  0  0  0  0
   18.2314   -9.7845   68.8378 H   0  0  0  0  0  0
   16.8770   -8.0479   72.0404 H   0  0  0  0  0  0
   18.8730   -7.4650   72.8164 H   0  0  0  0  0  0
   19.0030   -5.1489   80.5773 H   0  0  0  0  0  0
   21.8252  -10.1859   72.3159 H   0  0  0  0  0  0
   21.3373  -11.2098   71.0269 H   0  0  0  0  0  0
   14.1463   -8.2070   69.2584 H   0  0  0  0  0  0
   15.0246   -8.6661   67.8360 H   0  0  0  0  0  0
   18.9705  -12.6760   72.6102 H   0  0  0  0  0  0
   18.8237   -7.5399   70.5380 H   0  0  0  0  0  0
   20.2582   -8.0068   69.6205 H   0  0  0  0  0  0
   14.8810   -9.1012   73.1934 H   0  0  0  0  0  0
   14.8496   -9.0481   71.4718 H   0  0  0  0  0  0
   19.3145   -8.5591   78.6073 H   0  0  0  0  0  0
   19.8212   -7.1934   81.4808 H   0  0  0  0  0  0
   19.4555   -8.5272   80.5932 H   0  0  0  0  0  0
   23.1059  -13.5864   75.1818 H   0  0  0  0  0  0
   13.3256   -7.0928   73.2858 H   0  0  0  0  0  0
   13.2599   -7.0883   71.5414 H   0  0  0  0  0  0
   23.0550  -11.7289   73.5658 H   0  0  0  0  0  0
   10.3124   -8.7186   72.7557 H   0  0  0  0  0  0
   13.0019   -6.0636   69.4781 H   0  0  0  0  0  0
   15.3187   -6.9890   65.9584 H   0  0  0  0  0  0
   12.1415   -4.0292   68.3783 H   0  0  0  0  0  0
   14.3971   -4.9768   64.8295 H   0  0  0  0  0  0
   13.0556   -3.0490   65.0769 H   0  0  0  0  0  0
   20.0794   -6.2499   74.6126 H   0  0  0  0  0  0
   20.8252   -7.7415   74.1434 H   0  0  0  0  0  0
   17.7365  -14.2952   73.9543 H   0  0  0  0  0  0
   19.1388   -6.0338   77.0360 H   0  0  0  0  0  0
   18.0222   -7.3715   76.8320 H   0  0  0  0  0  0
   21.9206  -15.4427   76.3570 H   0  0  0  0  0  0
   19.9712   -8.8714   76.2239 H   0  0  0  0  0  0
   21.0561   -7.5557   76.4924 H   0  0  0  0  0  0
   17.7531  -16.0993   75.6320 H   0  0  0  0  0  0
   19.8427  -16.7148   76.7624 H   0  0  0  0  0  0
  1  6  1  0  0  0
  1  9  1  0  0  0
  1 52  1  0  0  0
  2 12  1  0  0  0
  2  4  1  0  0  0
  2 53  1  0  0  0
  3 14  1  0  0  0
  3  5  1  0  0  0
  3 54  1  0  0  0
  4 19  2  0  0  0
  4 10  1  0  0  0
  5 12  1  0  0  0
  5 20  2  0  0  0
  6 14  1  0  0  0
  6 21  2  0  0  0
  7 15  1  0  0  0
  7 10  1  0  0  0
  7 55  1  0  0  0
  8  9  1  0  0  0
  8 11  1  0  0  0
  8 24  2  0  0  0
  9 18  1  0  0  0
  9 56  1  0  0  0
 10 22  1  0  0  0
 10 57  1  0  0  0
 11 27  1  0  0  0
 11 58  1  0  0  0
 12 30  1  0  0  0
 12 59  1  0  0  0
 13 31  1  0  0  0
 13 16  2  0  0  0
 13 33  1  0  0  0
 14 45  1  0  0  0
 14 60  1  0  0  0
 15 27  1  0  0  0
 15 28  2  0  0  0
 16 61  1  0  0  0
 17 35  1  0  0  0
 17 29  2  0  0  0
 17 39  1  0  0  0
 18 25  1  0  0  0
 18 62  1  0  0  0
 18 63  1  0  0  0
 22 36  1  0  0  0
 22 64  1  0  0  0
 22 65  1  0  0  0
 23 26  1  0  0  0
 23 46  2  0  0  0
 23 32  1  0  0  0
 25 26  2  0  0  0
 25 37  1  0  0  0
 26 66  1  0  0  0
 27 67  1  0  0  0
 27 68  1  0  0  0
 30 35  1  0  0  0
 30 69  1  0  0  0
 30 70  1  0  0  0
 31 47  1  0  0  0
 31 71  1  0  0  0
 32 34  1  0  0  0
 32 48  2  0  0  0
 33 72  1  0  0  0
 33 73  1  0  0  0
 34 37  2  0  0  0
 34 74  1  0  0  0
 35 75  1  0  0  0
 35 76  1  0  0  0
 36 40  2  0  0  0
 36 41  1  0  0  0
 37 77  1  0  0  0
 38 43  1  0  0  0
 38 44  1  0  0  0
 38 42  2  0  0  0
 39 78  1  0  0  0
 40 42  1  0  0  0
 40 79  1  0  0  0
 41 43  2  0  0  0
 41 80  1  0  0  0
 42 81  1  0  0  0
 43 82  1  0  0  0
 44 83  1  0  0  0
 45 49  1  0  0  0
 45 84  1  0  0  0
 45 85  1  0  0  0
 46 50  1  0  0  0
 46 86  1  0  0  0
 47 49  1  0  0  0
 47 87  1  0  0  0
 47 88  1  0  0  0
 48 51  1  0  0  0
 48 89  1  0  0  0
 49 90  1  0  0  0
 49 91  1  0  0  0
 50 51  2  0  0  0
 50 92  1  0  0  0
 51 93  1  0  0  0
M  END
> <s_m_entry_id>
39042

> <s_m_entry_name>
dock_pv.25

> <s_m_Source_Path>
/home/csk/Desktop/cluster/DUD-E-result/cxcr4

> <s_m_Source_File>
dock_pv.maegz

> <i_m_Source_File_Index>
25

> <chembl_id>
CHEMBL366033

> <chembl_pref_name>
None

> <i_lp_mmshare_version>
53161

> <i_f3d_flags>
0

> <r_lp_tautomer_probability>
0.999999999997365

> <s_lp_Force_Field>
OPLS_2005

> <r_lp_Energy>
30.241838

> <b_lp_Chiralities_Consistent>
1

> <s_lp_Variant>
CHEMBL2107_lig156-1

> <s_i_glide_gridfile>
glide-grid_3odu

> <i_i_glide_lignum>
179

> <i_i_glide_rotatable_bonds>
14

> <r_i_docking_score>
-6.90289312642372

> <r_i_glide_ligand_efficiency>
-0.135350845616151

> <r_i_glide_ligand_efficiency_sa>
-0.501939104520442

> <r_i_glide_ligand_efficiency_ln>
-1.39966285113989

> <r_i_glide_gscore>
-6.90289312642372

> <r_i_glide_lipo>
-1.41068981071735

> <r_i_glide_hbond>
-0.433239383553488

> <r_i_glide_metal>
0

> <r_i_glide_rewards>
-0.0419215472286682

> <r_i_glide_evdw>
-53.1356582641602

> <r_i_glide_ecoul>
-15.4127416610718

> <r_i_glide_erotb>
0.345035314121986

> <r_i_glide_esite>
-0.393383536677431

> <r_i_glide_emodel>
-93.1562673240174

> <r_i_glide_energy>
-68.5483999252319

> <r_i_glide_einternal>
16.6202144622803

> <i_i_glide_confnum>
79

> <i_i_glide_posenum>
69

> <r_i_glide_eff_state_penalty>
0

> <s_user_duplicate_titles>
CHEMBL2107_lig156

> <s_m_subgroup_title>
dock_pv

> <s_m_subgroupid>
dock_pv

> <b_m_subgroup_collapsed>
0

$$$$
