CHEMBL3880_lig860 
                    3D
 Schrodinger Suite 2021-1.
 63 67  0  0  1  0            999 V2000
    7.5470   11.7806   23.6043 C   0  0  0  0  0  0
    6.5080   10.9562   23.1803 C   0  0  0  0  0  0
    5.1928   11.2468   23.3282 N   0  0  0  0  0  0
    7.2694   13.0072   24.2239 C   0  0  0  0  0  0
    8.3845   13.8039   24.8017 C   0  0  0  0  0  0
    5.9077   13.3686   24.3670 C   0  0  0  0  0  0
    4.9397   12.4281   23.9057 C   0  0  0  0  0  0
    3.7049   12.9810   24.1760 N   0  0  0  0  0  0
    3.8522   14.1717   24.7672 N   0  0  0  0  0  0
    5.1193   14.4129   24.9814 C   0  0  0  0  0  0
    2.4009   12.4722   24.0595 C   0  0  0  0  0  0
    1.3923   13.3201   23.6039 C   0  0  0  0  0  0
    0.0845   12.8754   23.5654 C   0  0  0  0  0  0
   -0.2456   11.5749   23.9650 C   0  0  0  0  0  0
    0.7727   10.6975   24.4086 C   0  0  0  0  0  0
    2.0988   11.1561   24.4283 C   0  0  0  0  0  0
   -1.6910   11.1692   23.9005 C   0  0  0  0  0  0
   -2.3384   11.5693   22.8078 N   0  0  0  0  0  0
   -2.2171   10.4780   24.7680 O   0  0  0  0  0  0
    0.4615    9.3676   24.7670 N   0  0  0  0  0  0
    1.0700    8.7136   25.9229 C   0  0  1  0  0  0
    0.4618    9.3182   27.2063 C   0  0  0  0  0  0
    0.9415    8.5817   28.4723 C   0  0  0  0  0  0
    0.6622    7.0663   28.4027 C   0  0  1  0  0  0
    1.2092    6.4371   27.1020 C   0  0  0  0  0  0
    0.7624    7.2018   25.8351 C   0  0  0  0  0  0
    1.1803    6.4117   29.5434 O   0  0  0  0  0  0
    5.4892   15.6178   25.8601 C   0  0  0  0  0  0
    6.2724   15.1688   27.0969 C   0  0  0  0  0  0
    4.2446   16.3660   26.3865 C   0  0  0  0  0  0
    8.5806   15.1701   24.7408 C   0  0  0  0  0  0
    9.6041   15.5656   25.5448 O   0  0  0  0  0  0
   10.1665   14.4369   26.0292 C   0  0  0  0  0  0
    9.4630   13.3400   25.5671 C   0  0  0  0  0  0
    8.5666   11.4479   23.4821 H   0  0  0  0  0  0
    6.7277   10.0038   22.7186 H   0  0  0  0  0  0
    1.6127   14.3368   23.3078 H   0  0  0  0  0  0
   -0.6772   13.5691   23.2359 H   0  0  0  0  0  0
    2.8939   10.5042   24.7563 H   0  0  0  0  0  0
   -3.3079   11.3194   22.6832 H   0  0  0  0  0  0
   -1.8702   12.0997   22.0918 H   0  0  0  0  0  0
   -0.5256    9.1583   24.6805 H   0  0  0  0  0  0
    2.1486    8.8725   25.9193 H   0  0  0  0  0  0
   -0.6291    9.2869   27.1609 H   0  0  0  0  0  0
    0.7310   10.3694   27.2723 H   0  0  0  0  0  0
    0.4606    9.0113   29.3518 H   0  0  0  0  0  0
    2.0115    8.7498   28.6024 H   0  0  0  0  0  0
   -0.4164    6.9047   28.4345 H   0  0  0  0  0  0
    0.8893    5.3964   27.0309 H   0  0  0  0  0  0
    2.2993    6.4148   27.1434 H   0  0  0  0  0  0
    1.2529    6.7729   24.9592 H   0  0  0  0  0  0
   -0.3079    7.0449   25.6856 H   0  0  0  0  0  0
    1.1412    7.0298   30.2794 H   0  0  0  0  0  0
    6.0771   16.3324   25.2869 H   0  0  0  0  0  0
    7.2313   14.7118   26.8913 H   0  0  0  0  0  0
    6.4612   15.9688   27.8108 H   0  0  0  0  0  0
    5.6609   14.4084   27.5671 H   0  0  0  0  0  0
    3.6612   16.7693   25.5687 H   0  0  0  0  0  0
    3.5962   15.6967   26.9539 H   0  0  0  0  0  0
    4.4949   17.1689   27.0649 H   0  0  0  0  0  0
    8.0310   15.9679   24.2636 H   0  0  0  0  0  0
   11.0209   14.5640   26.6789 H   0  0  0  0  0  0
    9.6689   12.3109   25.8076 H   0  0  0  0  0  0
  1  2  2  0  0  0
  1  4  1  0  0  0
  1 35  1  0  0  0
  2  3  1  0  0  0
  2 36  1  0  0  0
  3  7  2  0  0  0
  4  6  2  0  0  0
  4  5  1  0  0  0
  5 31  2  0  0  0
  5 34  1  0  0  0
  6  7  1  0  0  0
  6 10  1  0  0  0
  7  8  1  0  0  0
  8  9  1  0  0  0
  8 11  1  0  0  0
  9 10  2  0  0  0
 10 28  1  0  0  0
 11 12  2  0  0  0
 11 16  1  0  0  0
 12 13  1  0  0  0
 12 37  1  0  0  0
 13 14  2  0  0  0
 13 38  1  0  0  0
 14 15  1  0  0  0
 14 17  1  0  0  0
 15 16  2  0  0  0
 15 20  1  0  0  0
 16 39  1  0  0  0
 17 18  1  0  0  0
 17 19  2  0  0  0
 18 40  1  0  0  0
 18 41  1  0  0  0
 20 21  1  0  0  0
 20 42  1  0  0  0
 21 22  1  0  0  0
 21 26  1  0  0  0
 21 43  1  0  0  0
 22 23  1  0  0  0
 22 44  1  0  0  0
 22 45  1  0  0  0
 23 24  1  0  0  0
 23 46  1  0  0  0
 23 47  1  0  0  0
 24 25  1  0  0  0
 24 27  1  0  0  0
 24 48  1  0  0  0
 25 26  1  0  0  0
 25 49  1  0  0  0
 25 50  1  0  0  0
 26 51  1  0  0  0
 26 52  1  0  0  0
 27 53  1  0  0  0
 28 29  1  0  0  0
 28 30  1  0  0  0
 28 54  1  0  0  0
 29 55  1  0  0  0
 29 56  1  0  0  0
 29 57  1  0  0  0
 30 58  1  0  0  0
 30 59  1  0  0  0
 30 60  1  0  0  0
 31 32  1  0  0  0
 31 61  1  0  0  0
 32 33  1  0  0  0
 33 34  2  0  0  0
 33 62  1  0  0  0
 34 63  1  0  0  0
M  END
> <s_m_entry_id>
4683

> <s_m_entry_name>
dock_pv.2

> <s_m_Source_Path>
/home/csk/Desktop/cluster/DUD-E-result/hs90a

> <s_m_Source_File>
dock_pv.maegz

> <i_m_Source_File_Index>
2

> <chembl_id>
CHEMBL4588884

> <chembl_pref_name>
None

> <i_lp_mmshare_version>
53161

> <r_lp_tautomer_probability>
1

> <s_lp_Force_Field>
OPLS_2005

> <r_lp_Energy>
23.987428

> <b_lp_Chiralities_Consistent>
1

> <s_lp_Variant>
CHEMBL3880_lig860 -1

> <s_i_glide_gridfile>
glide-grid_1uyg

> <i_i_glide_lignum>
961

> <i_i_glide_rotatable_bonds>
7

> <r_i_docking_score>
-10.3215512061094

> <r_i_glide_ligand_efficiency>
-0.303575035473805

> <r_i_glide_ligand_efficiency_sa>
-0.983465266338151

> <r_i_glide_ligand_efficiency_ln>
-2.28032017113454

> <r_i_glide_gscore>
-10.3215512061094

> <r_i_glide_lipo>
-5.38041255354228

> <r_i_glide_hbond>
-0.296198665312218

> <r_i_glide_metal>
0

> <r_i_glide_rewards>
-1.94817971052476

> <r_i_glide_evdw>
-50.4344863891602

> <r_i_glide_ecoul>
-3.63827800750732

> <r_i_glide_erotb>
0.381128426501835

> <r_i_glide_esite>
-0.010422682647838

> <r_i_glide_emodel>
-70.7726082691812

> <r_i_glide_energy>
-54.0727643966675

> <r_i_glide_einternal>
4.46407222747803

> <i_i_glide_confnum>
24

> <i_i_glide_posenum>
238

> <r_i_glide_eff_state_penalty>
0

> <s_user_duplicate_titles>
CHEMBL3880_lig860 

> <i_f3d_flags>
0

> <s_m_subgroup_title>
dock_pv

> <s_m_subgroupid>
dock_pv

> <b_m_subgroup_collapsed>
1

$$$$
CHEMBL3880_lig764
                    3D
 Schrodinger Suite 2021-1.
 51 54  0  0  1  0            999 V2000
    3.0697   12.9029   24.3181 C   0  0  0  0  0  0
    3.4546   14.1685   24.7660 C   0  0  0  0  0  0
    4.8138   14.3170   24.7093 N   0  0  0  0  0  0
    5.2855   13.1689   24.1339 C   0  0  0  0  0  0
    4.2719   12.2269   23.9664 C   0  0  0  0  0  0
    4.5198   10.8157   23.5061 C   0  0  0  0  0  0
    5.8242   10.2951   23.5456 C   0  0  0  0  0  0
    6.0952    8.9861   23.1480 C   0  0  0  0  0  0
    5.0434    8.1566   22.7397 C   0  0  0  0  0  0
    3.7476    8.6592   22.6915 C   0  0  0  0  0  0
    3.4950    9.9850   23.0361 C   0  0  0  0  0  0
    1.6512   12.4207   24.2839 C   0  0  0  0  0  0
    1.2801   11.2464   24.9457 C   0  0  0  0  0  0
   -0.0394   10.7942   24.9065 C   0  0  0  0  0  0
   -1.0197   11.5296   24.2278 C   0  0  0  0  0  0
   -0.6567   12.7037   23.5664 C   0  0  0  0  0  0
    0.6705   13.1458   23.5941 C   0  0  0  0  0  0
    5.5961   15.4786   25.1400 C   0  0  0  0  0  0
    7.0385   15.1479   25.5160 C   0  0  0  0  0  0
    7.3390   14.7715   26.8209 C   0  0  0  0  0  0
    8.6291   14.3857   27.1670 C   0  0  0  0  0  0
    9.6562   14.4331   26.2180 C   0  0  0  0  0  0
    9.3510   14.8186   24.9156 C   0  0  0  0  0  0
    8.0521   15.1685   24.5581 C   0  0  0  0  0  0
   -2.3284   11.0970   24.2222 O   0  0  0  0  0  0
    5.2608    6.8562   22.3668 O   0  0  0  0  0  0
   10.9755   14.1289   26.4856 O   0  0  0  0  0  0
    7.3920    8.5356   23.1697 O   0  0  0  0  0  0
   -0.3616    9.6189   25.5289 O   0  0  0  0  0  0
   11.3886   14.0261   27.8462 C   0  0  0  0  0  0
    2.8602   14.9808   25.1464 H   0  0  0  0  0  0
    6.3455   13.0770   23.9580 H   0  0  0  0  0  0
    6.6503   10.9009   23.8856 H   0  0  0  0  0  0
    2.9350    8.0261   22.3615 H   0  0  0  0  0  0
    2.4883   10.3477   22.9260 H   0  0  0  0  0  0
    2.0212   10.6777   25.4861 H   0  0  0  0  0  0
   -1.4033   13.2784   23.0406 H   0  0  0  0  0  0
    0.9423   14.0579   23.0843 H   0  0  0  0  0  0
    5.0961   15.9228   26.0015 H   0  0  0  0  0  0
    5.5666   16.2385   24.3631 H   0  0  0  0  0  0
    6.5583   14.7687   27.5687 H   0  0  0  0  0  0
    8.8083   14.0399   28.1727 H   0  0  0  0  0  0
   10.1431   14.8685   24.1870 H   0  0  0  0  0  0
    7.8328   15.4633   23.5451 H   0  0  0  0  0  0
   -3.0032   11.7440   23.9708 H   0  0  0  0  0  0
    5.9607    6.7654   21.7061 H   0  0  0  0  0  0
    7.4915    7.6832   22.7341 H   0  0  0  0  0  0
   -1.2556    9.3640   25.2781 H   0  0  0  0  0  0
   12.4706   13.9004   27.8882 H   0  0  0  0  0  0
   10.9359   13.1681   28.3435 H   0  0  0  0  0  0
   11.1478   14.9307   28.4063 H   0  0  0  0  0  0
  1  2  2  0  0  0
  1  5  1  0  0  0
  1 12  1  0  0  0
  2  3  1  0  0  0
  2 31  1  0  0  0
  3  4  1  0  0  0
  3 18  1  0  0  0
  4  5  2  0  0  0
  4 32  1  0  0  0
  5  6  1  0  0  0
  6  7  2  0  0  0
  6 11  1  0  0  0
  7  8  1  0  0  0
  7 33  1  0  0  0
  8  9  2  0  0  0
  8 28  1  0  0  0
  9 10  1  0  0  0
  9 26  1  0  0  0
 10 11  2  0  0  0
 10 34  1  0  0  0
 11 35  1  0  0  0
 12 13  2  0  0  0
 12 17  1  0  0  0
 13 14  1  0  0  0
 13 36  1  0  0  0
 14 15  2  0  0  0
 14 29  1  0  0  0
 15 16  1  0  0  0
 15 25  1  0  0  0
 16 17  2  0  0  0
 16 37  1  0  0  0
 17 38  1  0  0  0
 18 19  1  0  0  0
 18 39  1  0  0  0
 18 40  1  0  0  0
 19 20  2  0  0  0
 19 24  1  0  0  0
 20 21  1  0  0  0
 20 41  1  0  0  0
 21 22  2  0  0  0
 21 42  1  0  0  0
 22 23  1  0  0  0
 22 27  1  0  0  0
 23 24  2  0  0  0
 23 43  1  0  0  0
 24 44  1  0  0  0
 25 45  1  0  0  0
 26 46  1  0  0  0
 27 30  1  0  0  0
 28 47  1  0  0  0
 29 48  1  0  0  0
 30 49  1  0  0  0
 30 50  1  0  0  0
 30 51  1  0  0  0
M  END
> <s_m_entry_id>
4684

> <s_m_entry_name>
dock_pv.3

> <s_m_Source_Path>
/home/csk/Desktop/cluster/DUD-E-result/hs90a

> <s_m_Source_File>
dock_pv.maegz

> <i_m_Source_File_Index>
3

> <chembl_id>
CHEMBL4083873

> <chembl_pref_name>
None

> <i_lp_mmshare_version>
53161

> <r_lp_tautomer_probability>
0.999999999999552

> <s_lp_Force_Field>
OPLS_2005

> <r_lp_Energy>
20.086862

> <b_lp_Chiralities_Consistent>
1

> <s_lp_Variant>
CHEMBL3880_lig764-1

> <s_i_glide_gridfile>
glide-grid_1uyg

> <i_i_glide_lignum>
865

> <i_i_glide_rotatable_bonds>
9

> <r_i_docking_score>
-10.2729667929392

> <r_i_glide_ligand_efficiency>
-0.342432226431306

> <r_i_glide_ligand_efficiency_sa>
-1.0640165438472

> <r_i_glide_ligand_efficiency_ln>
-2.33412998829412

> <r_i_glide_gscore>
-10.2729667929392

> <r_i_glide_lipo>
-5.37050847471245

> <r_i_glide_hbond>
0

> <r_i_glide_metal>
0

> <r_i_glide_rewards>
-1.92507677833453

> <r_i_glide_evdw>
-47.4114799499512

> <r_i_glide_ecoul>
-7.26224899291992

> <r_i_glide_erotb>
0.482529806543348

> <r_i_glide_esite>
0

> <r_i_glide_emodel>
-81.1913380518742

> <r_i_glide_energy>
-54.6737289428711

> <r_i_glide_einternal>
13.6700315475464

> <i_i_glide_confnum>
16

> <i_i_glide_posenum>
256

> <r_i_glide_eff_state_penalty>
0

> <s_user_duplicate_titles>
CHEMBL3880_lig764

> <i_f3d_flags>
0

> <s_m_subgroup_title>
dock_pv

> <s_m_subgroupid>
dock_pv

> <b_m_subgroup_collapsed>
1

$$$$
CHEMBL3880_lig446
                    3D
 Schrodinger Suite 2021-1.
 68 72  0  0  1  0            999 V2000
    7.3015    6.3442   24.8801 C   0  0  0  0  0  0
    5.9576    5.9617   25.2135 O   0  0  0  0  0  0
    4.9706    6.5261   24.3800 C   0  0  2  0  0  0
    3.8602    6.9681   25.1065 O   0  0  0  0  0  0
    2.6405    6.4760   24.5497 C   0  0  2  0  0  0
    1.5933    6.2807   25.6703 C   0  0  0  0  0  0
    0.8956    7.4771   26.0307 O   0  0  0  0  0  0
    1.8043    8.4932   26.5033 N   0  0  0  0  0  0
    1.9764    9.5719   25.5948 C   0  0  0  0  0  0
    3.1763    9.7789   25.1944 N   0  0  0  0  0  0
    3.4033   10.8665   24.2342 C   0  0  2  0  0  0
    2.2281   11.0281   23.2143 C   0  0  0  0  0  0
    0.9004   11.0796   23.9695 C   0  0  0  0  0  0
   -0.1083   11.8354   23.4664 N   0  0  0  0  0  0
   -1.2815   11.8103   24.1333 C   0  0  0  0  0  0
   -2.3387   12.4869   23.5484 N   0  0  0  0  0  0
   -1.5068   11.1685   25.3001 N   0  0  0  0  0  0
   -0.4683   10.4684   25.8331 C   0  0  0  0  0  0
   -0.7773    9.9070   27.2171 C   0  0  0  0  0  0
    0.7761   10.3434   25.1642 C   0  0  0  0  0  0
    4.7673   10.7178   23.5126 C   0  0  0  0  0  0
    4.9321    9.5705   22.7315 C   0  0  0  0  0  0
    6.1536    9.2674   22.1555 C   0  0  0  0  0  0
    7.2462   10.0879   22.3800 C   0  0  0  0  0  0
    8.4620    9.7061   21.9488 F   0  0  0  0  0  0
    7.0868   11.2877   23.0480 C   0  0  0  0  0  0
    5.8409   11.6625   23.5714 C   0  0  0  0  0  0
    5.7073   13.0564   24.1060 C   0  0  0  0  0  0
    6.7295   13.7881   24.7433 C   0  0  0  0  0  0
    6.4217   15.0481   25.2664 C   0  0  0  0  0  0
    5.1128   15.5348   25.1740 C   0  0  0  0  0  0
    4.1614   14.7483   24.5203 C   0  0  0  0  0  0
    2.8637   15.1687   24.3924 O   0  0  0  0  0  0
    1.8188   14.2809   24.0380 C   0  0  0  0  0  0
    4.4714   13.5676   23.9671 N   0  0  0  0  0  0
    3.0962    5.1853   23.8911 C   0  0  1  0  0  0
    2.1348    4.6463   22.9865 O   0  0  0  0  0  0
    4.4748    5.5310   23.3186 C   0  0  1  0  0  0
    4.4614    6.1542   22.0407 O   0  0  0  0  0  0
    8.0463    5.9599   25.5793 H   0  0  0  0  0  0
    7.4173    7.4309   24.8927 H   0  0  0  0  0  0
    7.5649    5.9814   23.8801 H   0  0  0  0  0  0
    5.3739    7.4283   23.9272 H   0  0  0  0  0  0
    2.2528    7.1751   23.8046 H   0  0  0  0  0  0
    0.8197    5.6039   25.3007 H   0  0  0  0  0  0
    2.0309    5.7939   26.5471 H   0  0  0  0  0  0
    2.6695    7.9857   26.6372 H   0  0  0  0  0  0
    3.4476   11.7286   24.8931 H   0  0  0  0  0  0
    2.3743   11.8906   22.5620 H   0  0  0  0  0  0
    2.1915   10.1665   22.5518 H   0  0  0  0  0  0
   -3.2860   12.3684   23.9430 H   0  0  0  0  0  0
   -2.2158   12.8809   22.6288 H   0  0  0  0  0  0
    0.0979    9.9538   27.8587 H   0  0  0  0  0  0
   -1.5615   10.4818   27.7176 H   0  0  0  0  0  0
   -1.1216    8.8759   27.1594 H   0  0  0  0  0  0
    4.1135    8.8779   22.6093 H   0  0  0  0  0  0
    6.2664    8.3683   21.5750 H   0  0  0  0  0  0
    7.9388   11.9406   23.1110 H   0  0  0  0  0  0
    7.7253   13.3854   24.8579 H   0  0  0  0  0  0
    7.1805   15.6234   25.7719 H   0  0  0  0  0  0
    4.8393   16.4909   25.5951 H   0  0  0  0  0  0
    0.8592   14.7741   24.1569 H   0  0  0  0  0  0
    1.8905   13.9570   23.0066 H   0  0  0  0  0  0
    1.8094   13.4236   24.7082 H   0  0  0  0  0  0
    3.2612    4.4652   24.6915 H   0  0  0  0  0  0
    1.8574    5.2950   22.3335 H   0  0  0  0  0  0
    5.1363    4.6693   23.2951 H   0  0  0  0  0  0
    3.6100    6.5654   21.8945 H   0  0  0  0  0  0
  1  2  1  0  0  0
  1 40  1  0  0  0
  1 41  1  0  0  0
  1 42  1  0  0  0
  2  3  1  0  0  0
  3  4  1  0  0  0
  3 38  1  0  0  0
  3 43  1  0  0  0
  4  5  1  0  0  0
  5  6  1  0  0  0
  5 36  1  0  0  0
  5 44  1  0  0  0
  6  7  1  0  0  0
  6 45  1  0  0  0
  6 46  1  0  0  0
  7  8  1  0  0  0
  8  9  1  0  0  0
  8 47  1  0  0  0
  9 10  2  0  0  0
  9 20  1  0  0  0
 10 11  1  0  0  0
 11 12  1  0  0  0
 11 21  1  0  0  0
 11 48  1  0  0  0
 12 13  1  0  0  0
 12 49  1  0  0  0
 12 50  1  0  0  0
 13 14  2  0  0  0
 13 20  1  0  0  0
 14 15  1  0  0  0
 15 16  1  0  0  0
 15 17  2  0  0  0
 16 51  1  0  0  0
 16 52  1  0  0  0
 17 18  1  0  0  0
 18 19  1  0  0  0
 18 20  2  0  0  0
 19 53  1  0  0  0
 19 54  1  0  0  0
 19 55  1  0  0  0
 21 22  2  0  0  0
 21 27  1  0  0  0
 22 23  1  0  0  0
 22 56  1  0  0  0
 23 24  2  0  0  0
 23 57  1  0  0  0
 24 25  1  0  0  0
 24 26  1  0  0  0
 26 27  2  0  0  0
 26 58  1  0  0  0
 27 28  1  0  0  0
 28 29  2  0  0  0
 28 35  1  0  0  0
 29 30  1  0  0  0
 29 59  1  0  0  0
 30 31  2  0  0  0
 30 60  1  0  0  0
 31 32  1  0  0  0
 31 61  1  0  0  0
 32 33  1  0  0  0
 32 35  2  0  0  0
 33 34  1  0  0  0
 34 62  1  0  0  0
 34 63  1  0  0  0
 34 64  1  0  0  0
 36 37  1  0  0  0
 36 38  1  0  0  0
 36 65  1  0  0  0
 37 66  1  0  0  0
 38 39  1  0  0  0
 38 67  1  0  0  0
 39 68  1  0  0  0
M  END
> <s_m_entry_id>
4685

> <s_m_entry_name>
dock_pv.4

> <s_m_Source_Path>
/home/csk/Desktop/cluster/DUD-E-result/hs90a

> <s_m_Source_File>
dock_pv.maegz

> <i_m_Source_File_Index>
4

> <chembl_id>
CHEMBL3675261

> <chembl_pref_name>
None

> <i_lp_mmshare_version>
53161

> <r_lp_tautomer_probability>
1

> <s_lp_Force_Field>
OPLS_2005

> <r_lp_Energy>
45.102702

> <b_lp_Chiralities_Consistent>
1

> <s_lp_Variant>
CHEMBL3880_lig446-1

> <s_i_glide_gridfile>
glide-grid_1uyg

> <i_i_glide_lignum>
488

> <i_i_glide_rotatable_bonds>
10

> <r_i_docking_score>
-10.2488360379642

> <r_i_glide_ligand_efficiency>
-0.262790667640108

> <r_i_glide_ligand_efficiency_sa>
-0.891178718130171

> <r_i_glide_ligand_efficiency_ln>
-2.19764137705135

> <r_i_glide_gscore>
-10.2488360379642

> <r_i_glide_lipo>
-4.66399695655759

> <r_i_glide_hbond>
-0.16

> <r_i_glide_metal>
0

> <r_i_glide_rewards>
-1.18584401701717

> <r_i_glide_evdw>
-45.6844215393066

> <r_i_glide_ecoul>
-15.4542808532715

> <r_i_glide_erotb>
0.424559058682763

> <r_i_glide_esite>
-0.061190918116154

> <r_i_glide_emodel>
-90.0874062947746

> <r_i_glide_energy>
-61.1387023925781

> <r_i_glide_einternal>
8.25887107849121

> <i_i_glide_confnum>
19

> <i_i_glide_posenum>
16

> <r_i_glide_eff_state_penalty>
0

> <s_user_duplicate_titles>
CHEMBL3880_lig446

> <i_f3d_flags>
0

> <s_m_subgroup_title>
dock_pv

> <s_m_subgroupid>
dock_pv

> <b_m_subgroup_collapsed>
1

$$$$
CHEMBL3880_lig483
                    3D
 Schrodinger Suite 2021-1.
 63 67  0  0  1  0            999 V2000
    6.2920   15.1546   27.1337 C   0  0  0  0  0  0
    5.5487   15.6375   25.8888 C   0  0  0  0  0  0
    4.2928   16.3773   26.3961 C   0  0  0  0  0  0
    5.2043   14.4512   24.9733 C   0  0  0  0  0  0
    3.9438   14.2095   24.7242 N   0  0  0  0  0  0
    3.8163   13.0330   24.0979 N   0  0  0  0  0  0
    2.5250   12.4988   23.9784 C   0  0  0  0  0  0
    1.4833   13.3321   23.5763 C   0  0  0  0  0  0
    0.1864   12.8590   23.5905 C   0  0  0  0  0  0
   -0.0966   11.5551   24.0196 C   0  0  0  0  0  0
   -1.5392   11.1690   24.1524 C   0  0  0  0  0  0
   -1.9605   10.5592   25.1294 O   0  0  0  0  0  0
   -2.3390   11.5828   23.1776 N   0  0  0  0  0  0
    0.9588   10.6776   24.3669 C   0  0  0  0  0  0
    0.7014    9.3189   24.6653 N   0  0  0  0  0  0
    1.0951    8.6509   25.9127 C   0  0  2  0  0  0
    0.4895    9.3504   27.1460 C   0  0  0  0  0  0
    0.8028    8.5679   28.4428 C   0  0  0  0  0  0
    2.3025    8.2057   28.5937 C   0  0  1  0  0  0
    2.5074    7.3667   29.7128 O   0  0  0  0  0  0
    2.8945    7.5718   27.3148 C   0  0  0  0  0  0
    2.6164    8.4562   26.0830 C   0  0  0  0  0  0
    2.2706   11.1617   24.3005 C   0  0  0  0  0  0
    5.0566   12.4839   23.8556 C   0  0  0  0  0  0
    5.3196   11.3070   23.2729 N   0  0  0  0  0  0
    6.6338   11.0001   23.1757 C   0  0  0  0  0  0
    7.6612   11.8111   23.6453 C   0  0  0  0  0  0
    7.3705   13.0411   24.2538 C   0  0  0  0  0  0
    6.0092   13.4130   24.3668 C   0  0  0  0  0  0
    8.4070   13.8130   24.8102 N   0  0  0  0  0  0
    8.5895   15.1684   24.7473 C   0  0  0  0  0  0
    9.6609   15.4421   25.5825 C   0  0  0  0  0  0
   10.2266   14.3466   26.0410 N   0  0  0  0  0  0
    9.4778   13.3856   25.5673 C   0  0  0  0  0  0
    7.2556   14.7003   26.9364 H   0  0  0  0  0  0
    6.4612   15.9352   27.8735 H   0  0  0  0  0  0
    5.6607   14.3843   27.5674 H   0  0  0  0  0  0
    6.1538   16.3675   25.3547 H   0  0  0  0  0  0
    3.7413   16.8010   25.5675 H   0  0  0  0  0  0
    3.6225   15.7005   26.9268 H   0  0  0  0  0  0
    4.5281   17.1690   27.0982 H   0  0  0  0  0  0
    1.6674   14.3614   23.2994 H   0  0  0  0  0  0
   -0.6044   13.5489   23.3264 H   0  0  0  0  0  0
   -3.3367   11.5301   23.3528 H   0  0  0  0  0  0
   -1.9903   11.9706   22.3161 H   0  0  0  0  0  0
   -0.2619    9.0895   24.4573 H   0  0  0  0  0  0
    0.6320    7.6647   25.8419 H   0  0  0  0  0  0
    0.8710   10.3673   27.2139 H   0  0  0  0  0  0
   -0.5920    9.4397   27.0413 H   0  0  0  0  0  0
    0.2112    7.6514   28.4565 H   0  0  0  0  0  0
    0.4670    9.1450   29.3056 H   0  0  0  0  0  0
    2.8654    9.1184   28.7925 H   0  0  0  0  0  0
    3.0923    7.8159   30.3351 H   0  0  0  0  0  0
    2.4702    6.5782   27.1630 H   0  0  0  0  0  0
    3.9684    7.4228   27.4321 H   0  0  0  0  0  0
    3.0540    8.0149   25.1865 H   0  0  0  0  0  0
    3.1143    9.4081   26.2589 H   0  0  0  0  0  0
    3.0999   10.5126   24.5181 H   0  0  0  0  0  0
    6.8614   10.0490   22.7155 H   0  0  0  0  0  0
    8.6817   11.4680   23.5542 H   0  0  0  0  0  0
    7.9150   15.7973   24.1865 H   0  0  0  0  0  0
   10.0475   16.4154   25.8487 H   0  0  0  0  0  0
    9.6349   12.3355   25.7464 H   0  0  0  0  0  0
  1  2  1  0  0  0
  1 35  1  0  0  0
  1 36  1  0  0  0
  1 37  1  0  0  0
  2  3  1  0  0  0
  2  4  1  0  0  0
  2 38  1  0  0  0
  3 39  1  0  0  0
  3 40  1  0  0  0
  3 41  1  0  0  0
  4  5  2  0  0  0
  4 29  1  0  0  0
  5  6  1  0  0  0
  6  7  1  0  0  0
  6 24  1  0  0  0
  7  8  2  0  0  0
  7 23  1  0  0  0
  8  9  1  0  0  0
  8 42  1  0  0  0
  9 10  2  0  0  0
  9 43  1  0  0  0
 10 11  1  0  0  0
 10 14  1  0  0  0
 11 12  2  0  0  0
 11 13  1  0  0  0
 13 44  1  0  0  0
 13 45  1  0  0  0
 14 15  1  0  0  0
 14 23  2  0  0  0
 15 16  1  0  0  0
 15 46  1  0  0  0
 16 17  1  0  0  0
 16 22  1  0  0  0
 16 47  1  0  0  0
 17 18  1  0  0  0
 17 48  1  0  0  0
 17 49  1  0  0  0
 18 19  1  0  0  0
 18 50  1  0  0  0
 18 51  1  0  0  0
 19 20  1  0  0  0
 19 21  1  0  0  0
 19 52  1  0  0  0
 20 53  1  0  0  0
 21 22  1  0  0  0
 21 54  1  0  0  0
 21 55  1  0  0  0
 22 56  1  0  0  0
 22 57  1  0  0  0
 23 58  1  0  0  0
 24 25  2  0  0  0
 24 29  1  0  0  0
 25 26  1  0  0  0
 26 27  2  0  0  0
 26 59  1  0  0  0
 27 28  1  0  0  0
 27 60  1  0  0  0
 28 29  2  0  0  0
 28 30  1  0  0  0
 30 31  1  0  0  0
 30 34  1  0  0  0
 31 32  2  0  0  0
 31 61  1  0  0  0
 32 33  1  0  0  0
 32 62  1  0  0  0
 33 34  2  0  0  0
 34 63  1  0  0  0
M  END
> <s_m_entry_id>
4686

> <s_m_entry_name>
dock_pv.5

> <s_m_Source_Path>
/home/csk/Desktop/cluster/DUD-E-result/hs90a

> <s_m_Source_File>
dock_pv.maegz

> <i_m_Source_File_Index>
5

> <chembl_id>
CHEMBL3656947

> <chembl_pref_name>
None

> <i_lp_mmshare_version>
53161

> <r_lp_tautomer_probability>
1

> <s_lp_Force_Field>
OPLS_2005

> <r_lp_Energy>
26.907107

> <b_lp_Chiralities_Consistent>
1

> <s_lp_Variant>
CHEMBL3880_lig483-1

> <s_i_glide_gridfile>
glide-grid_1uyg

> <i_i_glide_lignum>
529

> <i_i_glide_rotatable_bonds>
7

> <r_i_docking_score>
-10.2155542473919

> <r_i_glide_ligand_efficiency>
-0.300457477864469

> <r_i_glide_ligand_efficiency_sa>
-0.973365589927655

> <r_i_glide_ligand_efficiency_ln>
-2.25690246983988

> <r_i_glide_gscore>
-10.2155542473919

> <r_i_glide_lipo>
-5.18441263615022

> <r_i_glide_hbond>
-0.178657661996811

> <r_i_glide_metal>
0

> <r_i_glide_rewards>
-1.89257197260188

> <r_i_glide_evdw>
-50.6331977844238

> <r_i_glide_ecoul>
-5.25579261779785

> <r_i_glide_erotb>
0.38112344185161

> <r_i_glide_esite>
-0.0210066366037662

> <r_i_glide_emodel>
-70.0647205006401

> <r_i_glide_energy>
-55.8889904022217

> <r_i_glide_einternal>
8.09950351715088

> <i_i_glide_confnum>
9

> <i_i_glide_posenum>
94

> <r_i_glide_eff_state_penalty>
0

> <s_user_duplicate_titles>
CHEMBL3880_lig483

> <i_f3d_flags>
0

> <s_m_subgroup_title>
dock_pv

> <s_m_subgroupid>
dock_pv

> <b_m_subgroup_collapsed>
1

$$$$
CHEMBL3880_lig861 
                    3D
 Schrodinger Suite 2021-1.
 63 67  0  0  1  0            999 V2000
    7.6612   11.7557   23.5662 C   0  0  0  0  0  0
    6.6116   10.9561   23.1240 C   0  0  0  0  0  0
    5.3020   11.2703   23.2661 N   0  0  0  0  0  0
    7.4029   12.9823   24.1962 C   0  0  0  0  0  0
    8.5124   13.7566   24.8153 C   0  0  0  0  0  0
    6.0488   13.3474   24.3669 C   0  0  0  0  0  0
    5.0698   12.4373   23.8812 C   0  0  0  0  0  0
    3.8476   12.9914   24.1921 N   0  0  0  0  0  0
    4.0097   14.1492   24.8513 N   0  0  0  0  0  0
    5.2860   14.3719   25.0439 C   0  0  0  0  0  0
    2.5505   12.4777   24.0622 C   0  0  0  0  0  0
    1.5376   13.3168   23.6036 C   0  0  0  0  0  0
    0.2319   12.8626   23.5754 C   0  0  0  0  0  0
   -0.0876   11.5694   24.0137 C   0  0  0  0  0  0
    0.9439   10.6877   24.4116 C   0  0  0  0  0  0
    2.2650   11.1531   24.4125 C   0  0  0  0  0  0
   -1.5394   11.2038   24.1359 C   0  0  0  0  0  0
   -2.3390   11.6671   23.1837 N   0  0  0  0  0  0
   -1.9683   10.5676   25.0930 O   0  0  0  0  0  0
    0.6499    9.3529   24.7661 N   0  0  0  0  0  0
    1.2390    8.7212   25.9449 C   0  0  1  0  0  0
    0.5658    9.3102   27.2035 C   0  0  0  0  0  0
    0.9965    8.5792   28.4904 C   0  0  0  0  0  0
    0.7551    7.0585   28.4036 C   0  0  1  0  0  0
    1.3844    6.4470   27.1319 C   0  0  0  0  0  0
    0.9779    7.2007   25.8459 C   0  0  0  0  0  0
    1.2314    6.4131   29.5674 O   0  0  0  0  0  0
    5.7215   15.5609   25.9181 C   0  0  0  0  0  0
    6.6056   15.1524   27.1228 C   0  0  0  0  0  0
    4.5298   16.4074   26.4121 C   0  0  0  0  0  0
    9.5271   13.1691   25.5669 C   0  0  0  0  0  0
   10.5553   14.2791   26.3909 S   0  0  0  0  0  0
    9.6615   15.5690   25.6899 C   0  0  0  0  0  0
    8.6991   15.1430   24.7838 C   0  0  0  0  0  0
    8.6740   11.4003   23.4496 H   0  0  0  0  0  0
    6.8177   10.0076   22.6481 H   0  0  0  0  0  0
    1.7514   14.3366   23.3137 H   0  0  0  0  0  0
   -0.5381   13.5601   23.2740 H   0  0  0  0  0  0
    3.0661   10.5009   24.7267 H   0  0  0  0  0  0
   -3.3379   11.6044   23.3589 H   0  0  0  0  0  0
   -1.9927   12.0734   22.3304 H   0  0  0  0  0  0
   -0.3326    9.1294   24.6704 H   0  0  0  0  0  0
    2.3119    8.9128   25.9777 H   0  0  0  0  0  0
   -0.5212    9.2574   27.1110 H   0  0  0  0  0  0
    0.8085   10.3682   27.2814 H   0  0  0  0  0  0
    0.4592    8.9964   29.3428 H   0  0  0  0  0  0
    2.0556    8.7686   28.6752 H   0  0  0  0  0  0
   -0.3207    6.8727   28.3818 H   0  0  0  0  0  0
    1.0985    5.3975   27.0444 H   0  0  0  0  0  0
    2.4718    6.4562   27.2266 H   0  0  0  0  0  0
    1.5223    6.7855   24.9960 H   0  0  0  0  0  0
   -0.0800    7.0124   25.6459 H   0  0  0  0  0  0
    1.1530    7.0321   30.3000 H   0  0  0  0  0  0
    6.2936   16.2425   25.2940 H   0  0  0  0  0  0
    7.3110   14.3693   26.8936 H   0  0  0  0  0  0
    7.1942   15.9690   27.5145 H   0  0  0  0  0  0
    6.0610   14.7690   27.9666 H   0  0  0  0  0  0
    4.0609   16.9183   25.5745 H   0  0  0  0  0  0
    3.7763   15.8041   26.9212 H   0  0  0  0  0  0
    4.8420   17.1678   27.1179 H   0  0  0  0  0  0
    9.6732   12.1116   25.7166 H   0  0  0  0  0  0
    9.9402   16.5827   25.9408 H   0  0  0  0  0  0
    8.0838   15.8138   24.2037 H   0  0  0  0  0  0
  1  2  2  0  0  0
  1  4  1  0  0  0
  1 35  1  0  0  0
  2  3  1  0  0  0
  2 36  1  0  0  0
  3  7  2  0  0  0
  4  6  2  0  0  0
  4  5  1  0  0  0
  5 31  2  0  0  0
  5 34  1  0  0  0
  6  7  1  0  0  0
  6 10  1  0  0  0
  7  8  1  0  0  0
  8  9  1  0  0  0
  8 11  1  0  0  0
  9 10  2  0  0  0
 10 28  1  0  0  0
 11 12  2  0  0  0
 11 16  1  0  0  0
 12 13  1  0  0  0
 12 37  1  0  0  0
 13 14  2  0  0  0
 13 38  1  0  0  0
 14 15  1  0  0  0
 14 17  1  0  0  0
 15 16  2  0  0  0
 15 20  1  0  0  0
 16 39  1  0  0  0
 17 18  1  0  0  0
 17 19  2  0  0  0
 18 40  1  0  0  0
 18 41  1  0  0  0
 20 21  1  0  0  0
 20 42  1  0  0  0
 21 22  1  0  0  0
 21 26  1  0  0  0
 21 43  1  0  0  0
 22 23  1  0  0  0
 22 44  1  0  0  0
 22 45  1  0  0  0
 23 24  1  0  0  0
 23 46  1  0  0  0
 23 47  1  0  0  0
 24 25  1  0  0  0
 24 27  1  0  0  0
 24 48  1  0  0  0
 25 26  1  0  0  0
 25 49  1  0  0  0
 25 50  1  0  0  0
 26 51  1  0  0  0
 26 52  1  0  0  0
 27 53  1  0  0  0
 28 29  1  0  0  0
 28 30  1  0  0  0
 28 54  1  0  0  0
 29 55  1  0  0  0
 29 56  1  0  0  0
 29 57  1  0  0  0
 30 58  1  0  0  0
 30 59  1  0  0  0
 30 60  1  0  0  0
 31 32  1  0  0  0
 31 61  1  0  0  0
 32 33  1  0  0  0
 33 34  2  0  0  0
 33 62  1  0  0  0
 34 63  1  0  0  0
M  END
> <s_m_entry_id>
4687

> <s_m_entry_name>
dock_pv.6

> <s_m_Source_Path>
/home/csk/Desktop/cluster/DUD-E-result/hs90a

> <s_m_Source_File>
dock_pv.maegz

> <i_m_Source_File_Index>
6

> <chembl_id>
CHEMBL4461643

> <chembl_pref_name>
None

> <i_lp_mmshare_version>
53161

> <r_lp_tautomer_probability>
1

> <s_lp_Force_Field>
OPLS_2005

> <r_lp_Energy>
23.272631

> <b_lp_Chiralities_Consistent>
1

> <s_lp_Variant>
CHEMBL3880_lig861 -1

> <s_i_glide_gridfile>
glide-grid_1uyg

> <i_i_glide_lignum>
962

> <i_i_glide_rotatable_bonds>
7

> <r_i_docking_score>
-10.193165708929

> <r_i_glide_ligand_efficiency>
-0.299798991439087

> <r_i_glide_ligand_efficiency_sa>
-0.971232349535516

> <r_i_glide_ligand_efficiency_ln>
-2.25195621371617

> <r_i_glide_gscore>
-10.193165708929

> <r_i_glide_lipo>
-5.44104567687389

> <r_i_glide_hbond>
-0.177495673385102

> <r_i_glide_metal>
0

> <r_i_glide_rewards>
-1.78399187482873

> <r_i_glide_evdw>
-50.6216468811035

> <r_i_glide_ecoul>
-3.99455904960632

> <r_i_glide_erotb>
0.357974565963868

> <r_i_glide_esite>
-0.0183408483089883

> <r_i_glide_emodel>
-64.2305557274762

> <r_i_glide_energy>
-54.6162059307098

> <r_i_glide_einternal>
8.03004360198975

> <i_i_glide_confnum>
19

> <i_i_glide_posenum>
276

> <r_i_glide_eff_state_penalty>
0

> <s_user_duplicate_titles>
CHEMBL3880_lig861 

> <i_f3d_flags>
0

> <s_m_subgroup_title>
dock_pv

> <s_m_subgroupid>
dock_pv

> <b_m_subgroup_collapsed>
1

$$$$
CHEMBL3880_lig973
                    3D
 Schrodinger Suite 2021-1.
 60 64  0  0  1  0            999 V2000
    5.3443   14.6846   26.7933 C   0  0  0  0  0  0
    5.1320   15.3533   25.4464 C   0  0  0  0  0  0
    4.4658   16.7045   25.6580 C   0  0  0  0  0  0
    1.4049   10.2543   25.0474 C   0  0  0  0  0  0
    2.7479   10.5352   24.7603 C   0  0  0  0  0  0
    3.1101   11.6190   23.9655 C   0  0  0  0  0  0
    2.1220   12.3892   23.3685 C   0  0  0  0  0  0
    4.4614   11.9895   23.8479 N   0  0  0  0  0  0
    5.0051   13.2346   24.0841 C   0  0  0  0  0  0
    6.3979   13.1485   24.0001 C   0  0  0  0  0  0
    7.2674   14.2837   24.3587 C   0  0  0  0  0  0
    6.5353   15.5677   24.8123 C   0  0  0  0  0  0
    4.2261   14.4617   24.5528 C   0  0  0  0  0  0
    8.4918   14.2247   24.3764 O   0  0  0  0  0  0
    6.7194   11.8276   23.5979 C   0  0  0  0  0  0
    5.5079   11.1549   23.5540 C   0  0  0  0  0  0
    8.0669   11.1686   23.4363 C   0  0  0  0  0  0
    0.4020   11.0756   24.4612 C   0  0  0  0  0  0
    0.7780   12.1427   23.6164 C   0  0  0  0  0  0
   -0.2893   13.0559   23.0430 C   0  0  0  0  0  0
   -1.5846   12.2584   22.8117 C   0  0  0  0  0  0
   -1.9391   11.5770   24.0649 N   0  0  0  0  0  0
   -1.0604   10.9500   24.8755 C   0  0  0  0  0  0
   -1.4883   10.4647   25.9194 O   0  0  0  0  0  0
    1.1536    9.1391   26.0116 C   0  0  0  0  0  0
    1.7991    9.1683   27.2485 C   0  0  0  0  0  0
    1.5589    8.1964   28.2073 C   0  0  0  0  0  0
    0.6664    7.1507   27.9423 C   0  0  0  0  0  0
    0.0613    7.0800   26.6852 C   0  0  0  0  0  0
    0.3040    8.0638   25.7244 C   0  0  0  0  0  0
    0.3445    6.1751   28.8671 O   0  0  0  0  0  0
    0.7865    6.3491   30.2134 C   0  0  0  0  0  0
    4.4543   14.1786   27.1668 H   0  0  0  0  0  0
    6.1266   13.9690   26.6486 H   0  0  0  0  0  0
    5.7135   15.3658   27.5617 H   0  0  0  0  0  0
    3.4437   16.6043   25.9780 H   0  0  0  0  0  0
    4.9548   17.1692   26.4993 H   0  0  0  0  0  0
    4.5271   17.3561   24.7890 H   0  0  0  0  0  0
    3.5233    9.9414   25.2257 H   0  0  0  0  0  0
    2.3983   13.2396   22.7666 H   0  0  0  0  0  0
    7.1967   16.0652   25.5195 H   0  0  0  0  0  0
    6.4487   16.2352   23.9671 H   0  0  0  0  0  0
    3.3031   14.2030   25.0745 H   0  0  0  0  0  0
    3.9353   15.0072   23.6611 H   0  0  0  0  0  0
    5.3090   10.1127   23.3508 H   0  0  0  0  0  0
    8.0224   10.1026   23.6608 H   0  0  0  0  0  0
    8.4606   11.2719   22.4262 H   0  0  0  0  0  0
    8.8101   11.5702   24.1237 H   0  0  0  0  0  0
   -0.4798   13.8665   23.7433 H   0  0  0  0  0  0
    0.0491   13.5335   22.1236 H   0  0  0  0  0  0
   -2.3929   12.9325   22.5244 H   0  0  0  0  0  0
   -1.4876   11.5657   21.9763 H   0  0  0  0  0  0
   -2.9078   11.6143   24.3705 H   0  0  0  0  0  0
    2.4834    9.9689   27.4855 H   0  0  0  0  0  0
    2.0688    8.2841   29.1544 H   0  0  0  0  0  0
   -0.6195    6.2723   26.4603 H   0  0  0  0  0  0
   -0.1967    8.0056   24.7675 H   0  0  0  0  0  0
    0.3679    5.5699   30.8467 H   0  0  0  0  0  0
    1.8728    6.2805   30.2870 H   0  0  0  0  0  0
    0.4619    7.3070   30.6258 H   0  0  0  0  0  0
  1  2  1  0  0  0
  1 33  1  0  0  0
  1 34  1  0  0  0
  1 35  1  0  0  0
  2  3  1  0  0  0
  2 12  1  0  0  0
  2 13  1  0  0  0
  3 36  1  0  0  0
  3 37  1  0  0  0
  3 38  1  0  0  0
  4  5  2  0  0  0
  4 18  1  0  0  0
  4 25  1  0  0  0
  5  6  1  0  0  0
  5 39  1  0  0  0
  6  7  2  0  0  0
  6  8  1  0  0  0
  7 19  1  0  0  0
  7 40  1  0  0  0
  8 16  1  0  0  0
  8  9  1  0  0  0
  9 10  2  0  0  0
  9 13  1  0  0  0
 10 15  1  0  0  0
 10 11  1  0  0  0
 11 12  1  0  0  0
 11 14  2  0  0  0
 12 41  1  0  0  0
 12 42  1  0  0  0
 13 43  1  0  0  0
 13 44  1  0  0  0
 15 16  2  0  0  0
 15 17  1  0  0  0
 16 45  1  0  0  0
 17 46  1  0  0  0
 17 47  1  0  0  0
 17 48  1  0  0  0
 18 19  2  0  0  0
 18 23  1  0  0  0
 19 20  1  0  0  0
 20 21  1  0  0  0
 20 49  1  0  0  0
 20 50  1  0  0  0
 21 22  1  0  0  0
 21 51  1  0  0  0
 21 52  1  0  0  0
 22 23  1  0  0  0
 22 53  1  0  0  0
 23 24  2  0  0  0
 25 26  2  0  0  0
 25 30  1  0  0  0
 26 27  1  0  0  0
 26 54  1  0  0  0
 27 28  2  0  0  0
 27 55  1  0  0  0
 28 29  1  0  0  0
 28 31  1  0  0  0
 29 30  2  0  0  0
 29 56  1  0  0  0
 30 57  1  0  0  0
 31 32  1  0  0  0
 32 58  1  0  0  0
 32 59  1  0  0  0
 32 60  1  0  0  0
M  END
> <s_m_entry_id>
4688

> <s_m_entry_name>
dock_pv.7

> <s_m_Source_Path>
/home/csk/Desktop/cluster/DUD-E-result/hs90a

> <s_m_Source_File>
dock_pv.maegz

> <i_m_Source_File_Index>
7

> <chembl_id>
CHEMBL3235363

> <chembl_pref_name>
None

> <i_lp_mmshare_version>
53161

> <r_lp_tautomer_probability>
0.99995

> <s_lp_Force_Field>
OPLS_2005

> <r_lp_Energy>
41.674524

> <b_lp_Chiralities_Consistent>
1

> <s_lp_Variant>
CHEMBL3880_lig973-1

> <s_i_glide_gridfile>
glide-grid_1uyg

> <i_i_glide_lignum>
1082

> <i_i_glide_rotatable_bonds>
3

> <r_i_docking_score>
-10.1864530235224

> <r_i_glide_ligand_efficiency>
-0.318326656985074

> <r_i_glide_ligand_efficiency_sa>
-1.01062413916773

> <r_i_glide_ligand_efficiency_ln>
-2.28102450418891

> <r_i_glide_gscore>
-10.1864530235224

> <r_i_glide_lipo>
-5.18169328921623

> <r_i_glide_hbond>
-0.228669435277228

> <r_i_glide_metal>
0

> <r_i_glide_rewards>
-2.2262442390292

> <r_i_glide_evdw>
-39.7669410705566

> <r_i_glide_ecoul>
-5.1523118019104

> <r_i_glide_erotb>
0.216350738632178

> <r_i_glide_esite>
-0.00500297481748535

> <r_i_glide_emodel>
-43.8873637076631

> <r_i_glide_energy>
-44.919252872467

> <r_i_glide_einternal>
5.37146854400635

> <i_i_glide_confnum>
19

> <i_i_glide_posenum>
203

> <r_i_glide_eff_state_penalty>
0

> <s_user_duplicate_titles>
CHEMBL3880_lig973

> <i_f3d_flags>
0

> <s_m_subgroup_title>
dock_pv

> <s_m_subgroupid>
dock_pv

> <b_m_subgroup_collapsed>
1

$$$$
CHEMBL3880_lig194
                    3D
 Schrodinger Suite 2021-1.
 67 70  0  0  1  0            999 V2000
    4.9227   14.6422   26.7669 C   0  0  0  0  0  0
    5.1038   15.1701   25.3657 C   0  0  0  0  0  0
    4.7068   16.6309   25.4085 C   0  0  0  0  0  0
    0.4256   12.2456   23.4225 C   0  0  0  0  0  0
    1.7791   12.4249   23.1457 C   0  0  0  0  0  0
    2.7299   11.7043   23.8639 C   0  0  0  0  0  0
    2.3091   10.7887   24.8213 C   0  0  0  0  0  0
    0.9598   10.5013   25.0256 C   0  0  0  0  0  0
   -0.0104   11.2946   24.3687 C   0  0  0  0  0  0
   -1.4882   11.1777   24.6837 C   0  0  0  0  0  0
   -2.3386   11.5354   23.7256 N   0  0  0  0  0  0
   -1.8956   10.8144   25.7851 O   0  0  0  0  0  0
    0.6063    9.4424   25.8862 N   0  0  0  0  0  0
    1.4183    8.2296   26.0644 C   0  0  2  0  0  0
    4.1156   11.9043   23.6945 N   0  0  0  0  0  0
    6.3298   11.4928   23.4434 C   0  0  0  0  0  0
    5.0471   10.9515   23.3044 C   0  0  0  0  0  0
    6.1554   12.7914   23.9670 C   0  0  0  0  0  0
    4.7902   13.0688   23.9822 C   0  0  0  0  0  0
    4.1351   14.3662   24.4573 C   0  0  0  0  0  0
    6.5859   15.1148   24.8846 C   0  0  0  0  0  0
    7.1415   13.7304   24.5194 C   0  0  0  0  0  0
    8.3089   13.4336   24.7666 O   0  0  0  0  0  0
    7.6323   10.7527   23.2091 C   0  0  0  0  0  0
    4.6193    9.5718   22.8080 C   0  0  0  0  0  0
    1.3827    7.2739   24.8356 C   0  0  0  0  0  0
    2.2206    7.6645   23.5894 C   0  0  0  0  0  0
    3.6729    7.3743   23.6586 N   0  0  0  0  0  0
    4.5691    8.5121   23.9321 C   0  0  0  0  0  0
    0.9612    7.4986   27.3371 C   0  0  0  0  0  0
    4.1351    6.1150   23.4375 C   0  0  0  0  0  0
    5.6445    5.8524   23.4067 C   0  0  0  0  0  0
    3.3896    5.1540   23.2514 O   0  0  0  0  0  0
    3.9706   14.9761   27.1799 H   0  0  0  0  0  0
    4.8604   13.5693   26.7694 H   0  0  0  0  0  0
    5.7271   14.9565   27.4336 H   0  0  0  0  0  0
    3.6614   16.7429   25.6914 H   0  0  0  0  0  0
    5.2604   17.1688   26.1712 H   0  0  0  0  0  0
    4.8618   17.1422   24.4575 H   0  0  0  0  0  0
   -0.2802   12.8701   22.8936 H   0  0  0  0  0  0
    2.0766   13.1437   22.3980 H   0  0  0  0  0  0
    3.0440   10.3183   25.4458 H   0  0  0  0  0  0
   -3.3313   11.6103   23.9663 H   0  0  0  0  0  0
   -2.0373   11.7148   22.7826 H   0  0  0  0  0  0
   -0.3779    9.3557   26.1037 H   0  0  0  0  0  0
    2.4556    8.5094   26.2433 H   0  0  0  0  0  0
    3.1685   14.2063   24.9373 H   0  0  0  0  0  0
    3.9252   14.9405   23.5693 H   0  0  0  0  0  0
    7.2549   15.5696   25.6161 H   0  0  0  0  0  0
    6.6923   15.7074   23.9792 H   0  0  0  0  0  0
    7.5074    9.6707   23.2489 H   0  0  0  0  0  0
    8.0708   11.0120   22.2465 H   0  0  0  0  0  0
    8.3798   10.9875   23.9658 H   0  0  0  0  0  0
    3.6689    9.6359   22.2777 H   0  0  0  0  0  0
    5.3182    9.2194   22.0481 H   0  0  0  0  0  0
    0.3405    7.1859   24.5214 H   0  0  0  0  0  0
    1.6620    6.2621   25.1349 H   0  0  0  0  0  0
    2.0554    8.7133   23.3609 H   0  0  0  0  0  0
    1.8078    7.1374   22.7268 H   0  0  0  0  0  0
    5.5909    8.1975   24.1427 H   0  0  0  0  0  0
    4.2602    8.9406   24.8761 H   0  0  0  0  0  0
    1.5850    6.6273   27.5397 H   0  0  0  0  0  0
    1.0244    8.1506   28.2097 H   0  0  0  0  0  0
   -0.0715    7.1572   27.2536 H   0  0  0  0  0  0
    6.1617    6.5798   22.7816 H   0  0  0  0  0  0
    6.0589    5.8868   24.4143 H   0  0  0  0  0  0
    5.8489    4.8690   22.9871 H   0  0  0  0  0  0
  1  2  1  0  0  0
  1 34  1  0  0  0
  1 35  1  0  0  0
  1 36  1  0  0  0
  2  3  1  0  0  0
  2 20  1  0  0  0
  2 21  1  0  0  0
  3 37  1  0  0  0
  3 38  1  0  0  0
  3 39  1  0  0  0
  4  9  1  0  0  0
  4  5  2  0  0  0
  4 40  1  0  0  0
  5  6  1  0  0  0
  5 41  1  0  0  0
  6 15  1  0  0  0
  6  7  2  0  0  0
  7  8  1  0  0  0
  7 42  1  0  0  0
  8 13  1  0  0  0
  8  9  2  0  0  0
  9 10  1  0  0  0
 10 11  1  0  0  0
 10 12  2  0  0  0
 11 43  1  0  0  0
 11 44  1  0  0  0
 13 14  1  0  0  0
 13 45  1  0  0  0
 14 26  1  0  0  0
 14 30  1  0  0  0
 14 46  1  0  0  0
 15 17  1  0  0  0
 15 19  1  0  0  0
 16 17  2  0  0  0
 16 24  1  0  0  0
 16 18  1  0  0  0
 17 25  1  0  0  0
 18 19  2  0  0  0
 18 22  1  0  0  0
 19 20  1  0  0  0
 20 47  1  0  0  0
 20 48  1  0  0  0
 21 22  1  0  0  0
 21 49  1  0  0  0
 21 50  1  0  0  0
 22 23  2  0  0  0
 24 51  1  0  0  0
 24 52  1  0  0  0
 24 53  1  0  0  0
 25 29  1  0  0  0
 25 54  1  0  0  0
 25 55  1  0  0  0
 26 27  1  0  0  0
 26 56  1  0  0  0
 26 57  1  0  0  0
 27 28  1  0  0  0
 27 58  1  0  0  0
 27 59  1  0  0  0
 28 29  1  0  0  0
 28 31  1  0  0  0
 29 60  1  0  0  0
 29 61  1  0  0  0
 30 62  1  0  0  0
 30 63  1  0  0  0
 30 64  1  0  0  0
 31 32  1  0  0  0
 31 33  2  0  0  0
 32 65  1  0  0  0
 32 66  1  0  0  0
 32 67  1  0  0  0
M  END
> <s_m_entry_id>
4689

> <s_m_entry_name>
dock_pv.8

> <s_m_Source_Path>
/home/csk/Desktop/cluster/DUD-E-result/hs90a

> <s_m_Source_File>
dock_pv.maegz

> <i_m_Source_File_Index>
8

> <chembl_id>
CHEMBL1760614

> <chembl_pref_name>
None

> <i_lp_mmshare_version>
53161

> <r_lp_tautomer_probability>
0.99995

> <s_lp_Force_Field>
OPLS_2005

> <r_lp_Energy>
44.243911

> <b_lp_Chiralities_Consistent>
1

> <s_lp_Variant>
CHEMBL3880_lig194-1

> <s_i_glide_gridfile>
glide-grid_1uyg

> <i_i_glide_lignum>
228

> <i_i_glide_rotatable_bonds>
2

> <r_i_docking_score>
-10.0410352792442

> <r_i_glide_ligand_efficiency>
-0.304273796340733

> <r_i_glide_ligand_efficiency_sa>
-0.975968646343566

> <r_i_glide_ligand_efficiency_ln>
-2.23307425640566

> <r_i_glide_gscore>
-10.0410352792442

> <r_i_glide_lipo>
-4.45812929433997

> <r_i_glide_hbond>
-0.16

> <r_i_glide_metal>
0

> <r_i_glide_rewards>
-2.0588168128624

> <r_i_glide_evdw>
-38.2407608032227

> <r_i_glide_ecoul>
-9.37121963500977

> <r_i_glide_erotb>
0

> <r_i_glide_esite>
-0.0463681866292286

> <r_i_glide_emodel>
-50.567777259043

> <r_i_glide_energy>
-47.6119804382324

> <r_i_glide_einternal>
1.86202788352966

> <i_i_glide_confnum>
5

> <i_i_glide_posenum>
82

> <r_i_glide_eff_state_penalty>
0

> <s_user_duplicate_titles>
CHEMBL3880_lig194

> <i_f3d_flags>
0

> <s_m_subgroup_title>
dock_pv

> <s_m_subgroupid>
dock_pv

> <b_m_subgroup_collapsed>
1

$$$$
CHEMBL3880_lig966
                    3D
 Schrodinger Suite 2021-1.
 56 60  0  0  1  0            999 V2000
    1.2419    7.8950   27.7773 C   0  0  0  0  0  0
    0.6319    8.6434   26.5734 C   0  0  0  0  0  0
    0.1147    7.6673   25.4842 C   0  0  0  0  0  0
    5.0586   13.0155   24.1565 C   0  0  0  0  0  0
    3.6833   12.8053   24.2939 C   0  0  0  0  0  0
    3.0982   11.5828   23.9762 C   0  0  0  0  0  0
    3.8807   10.5256   23.5313 C   0  0  0  0  0  0
    1.7193   11.4347   24.1623 N   0  0  0  0  0  0
    1.0813   10.6407   25.0867 C   0  0  0  0  0  0
   -0.2691   10.9855   25.0863 C   0  0  0  0  0  0
   -1.1876   10.4647   26.0973 C   0  0  0  0  0  0
   -0.5504    9.5024   27.1208 C   0  0  0  0  0  0
    1.7334    9.5689   25.9633 C   0  0  0  0  0  0
   -2.3751   10.7678   26.1495 O   0  0  0  0  0  0
   -0.5031   11.8618   24.0045 C   0  0  0  0  0  0
    0.7564   12.1748   23.5270 C   0  0  0  0  0  0
   -1.8013   12.4713   23.5304 C   0  0  0  0  0  0
    5.8538   11.9376   23.6694 C   0  0  0  0  0  0
    5.2583   10.6835   23.3961 C   0  0  0  0  0  0
    6.1408    9.5117   22.9859 C   0  0  0  0  0  0
    7.3308   10.0287   22.1609 C   0  0  0  0  0  0
    8.0057   11.0810   22.9332 N   0  0  0  0  0  0
    7.3672   12.0689   23.5999 C   0  0  0  0  0  0
    8.0565   12.8884   24.2062 O   0  0  0  0  0  0
    5.6225   14.4226   24.4959 C   0  0  0  0  0  0
    4.6929   15.5956   24.9045 C   0  0  0  0  0  0
    4.9685   15.2437   26.3667 C   0  0  0  0  0  0
    6.3211   14.7698   25.8369 C   0  0  0  0  0  0
    2.1122    7.3076   27.4811 H   0  0  0  0  0  0
    1.5632    8.5794   28.5647 H   0  0  0  0  0  0
    0.5214    7.2068   28.2190 H   0  0  0  0  0  0
    0.9242    7.0447   25.1022 H   0  0  0  0  0  0
   -0.6472    6.9949   25.8810 H   0  0  0  0  0  0
   -0.3229    8.1810   24.6277 H   0  0  0  0  0  0
    3.0429   13.5859   24.6717 H   0  0  0  0  0  0
    3.4258    9.5702   23.3078 H   0  0  0  0  0  0
   -0.1907   10.1363   27.9270 H   0  0  0  0  0  0
   -1.3352    8.8877   27.5641 H   0  0  0  0  0  0
    2.2616   10.0799   26.7671 H   0  0  0  0  0  0
    2.4769    8.9807   25.4277 H   0  0  0  0  0  0
    1.0494   12.8788   22.7616 H   0  0  0  0  0  0
   -1.6479   13.3770   22.9433 H   0  0  0  0  0  0
   -2.3858   11.7686   22.9368 H   0  0  0  0  0  0
   -2.4329   12.7618   24.3655 H   0  0  0  0  0  0
    6.5087    9.0047   23.8805 H   0  0  0  0  0  0
    5.5846    8.7577   22.4246 H   0  0  0  0  0  0
    8.0306    9.2157   21.9674 H   0  0  0  0  0  0
    7.0134   10.3727   21.1765 H   0  0  0  0  0  0
    9.0153   11.1138   22.9642 H   0  0  0  0  0  0
    6.2760   14.7476   23.6912 H   0  0  0  0  0  0
    5.0782   16.5785   24.6173 H   0  0  0  0  0  0
    3.6643   15.5688   24.5542 H   0  0  0  0  0  0
    4.9941   16.0869   27.0552 H   0  0  0  0  0  0
    4.3308   14.4524   26.7705 H   0  0  0  0  0  0
    6.8222   13.9690   26.3661 H   0  0  0  0  0  0
    7.0627   15.5677   25.7461 H   0  0  0  0  0  0
  1  2  1  0  0  0
  1 29  1  0  0  0
  1 30  1  0  0  0
  1 31  1  0  0  0
  2  3  1  0  0  0
  2 12  1  0  0  0
  2 13  1  0  0  0
  3 32  1  0  0  0
  3 33  1  0  0  0
  3 34  1  0  0  0
  4  5  2  0  0  0
  4 18  1  0  0  0
  4 25  1  0  0  0
  5  6  1  0  0  0
  5 35  1  0  0  0
  6  7  2  0  0  0
  6  8  1  0  0  0
  7 19  1  0  0  0
  7 36  1  0  0  0
  8 16  1  0  0  0
  8  9  1  0  0  0
  9 10  2  0  0  0
  9 13  1  0  0  0
 10 15  1  0  0  0
 10 11  1  0  0  0
 11 12  1  0  0  0
 11 14  2  0  0  0
 12 37  1  0  0  0
 12 38  1  0  0  0
 13 39  1  0  0  0
 13 40  1  0  0  0
 15 16  2  0  0  0
 15 17  1  0  0  0
 16 41  1  0  0  0
 17 42  1  0  0  0
 17 43  1  0  0  0
 17 44  1  0  0  0
 18 19  2  0  0  0
 18 23  1  0  0  0
 19 20  1  0  0  0
 20 21  1  0  0  0
 20 45  1  0  0  0
 20 46  1  0  0  0
 21 22  1  0  0  0
 21 47  1  0  0  0
 21 48  1  0  0  0
 22 23  1  0  0  0
 22 49  1  0  0  0
 23 24  2  0  0  0
 25 26  1  0  0  0
 25 28  1  0  0  0
 25 50  1  0  0  0
 26 27  1  0  0  0
 26 51  1  0  0  0
 26 52  1  0  0  0
 27 28  1  0  0  0
 27 53  1  0  0  0
 27 54  1  0  0  0
 28 55  1  0  0  0
 28 56  1  0  0  0
M  END
> <s_m_entry_id>
4690

> <s_m_entry_name>
dock_pv.9

> <s_m_Source_Path>
/home/csk/Desktop/cluster/DUD-E-result/hs90a

> <s_m_Source_File>
dock_pv.maegz

> <i_m_Source_File_Index>
9

> <chembl_id>
CHEMBL3235356

> <chembl_pref_name>
None

> <i_lp_mmshare_version>
53161

> <r_lp_tautomer_probability>
0.99995

> <s_lp_Force_Field>
OPLS_2005

> <r_lp_Energy>
40.497089

> <b_lp_Chiralities_Consistent>
1

> <s_lp_Variant>
CHEMBL3880_lig966-1

> <s_i_glide_gridfile>
glide-grid_1uyg

> <i_i_glide_lignum>
1075

> <i_i_glide_rotatable_bonds>
2

> <r_i_docking_score>
-10.0410048467377

> <r_i_glide_ligand_efficiency>
-0.358607315954918

> <r_i_glide_ligand_efficiency_sa>
-1.08894301965311

> <r_i_glide_ligand_efficiency_ln>
-2.31775873533995

> <r_i_glide_gscore>
-10.0410048467377

> <r_i_glide_lipo>
-5.09237142394923

> <r_i_glide_hbond>
-0.144815417834048

> <r_i_glide_metal>
0

> <r_i_glide_rewards>
-2.52048760372294

> <r_i_glide_evdw>
-45.6503143310547

> <r_i_glide_ecoul>
-1.82636797428131

> <r_i_glide_erotb>
0.273140511463448

> <r_i_glide_esite>
0

> <r_i_glide_emodel>
-68.4573956914836

> <r_i_glide_energy>
-47.476682305336

> <r_i_glide_einternal>
3.35422134399414

> <i_i_glide_confnum>
54

> <i_i_glide_posenum>
376

> <r_i_glide_eff_state_penalty>
0

> <s_user_duplicate_titles>
CHEMBL3880_lig966

> <i_f3d_flags>
0

> <s_m_subgroup_title>
dock_pv

> <s_m_subgroupid>
dock_pv

> <b_m_subgroup_collapsed>
1

$$$$
CHEMBL3880_lig321
                    3D
 Schrodinger Suite 2021-1.
 45 49  0  0  1  0            999 V2000
   -1.0367   11.1783   24.5134 C   0  0  0  0  0  0
   -0.7010   11.9686   23.4188 C   0  0  0  0  0  0
    0.6171   12.0159   22.9682 C   0  0  0  0  0  0
    1.6144   11.2739   23.6291 C   0  0  0  0  0  0
    1.2675   10.4907   24.7267 C   0  0  0  0  0  0
   -0.0470   10.4455   25.1820 C   0  0  0  0  0  0
   -2.3390   11.1207   24.9149 O   0  0  0  0  0  0
    0.8610   12.7690   21.8534 O   0  0  0  0  0  0
    3.0650   11.2806   23.2421 C   0  0  0  0  0  0
    3.5453   10.2873   22.6967 O   0  0  0  0  0  0
   -0.3390    9.6378   26.2980 N   0  0  0  0  0  0
   -1.1390    9.0785   28.3295 C   0  0  0  0  0  0
   -1.1147   10.0421   27.3619 C   0  0  0  0  0  0
   -0.3285    7.9988   27.8627 C   0  0  0  0  0  0
    0.1458    8.3583   26.5663 C   0  0  0  0  0  0
    0.9383    7.4713   25.8160 C   0  0  0  0  0  0
    1.2374    6.2498   26.4223 C   0  0  0  0  0  0
    0.8272    5.8854   27.6602 N   0  0  0  0  0  0
    0.0610    6.7496   28.3670 C   0  0  0  0  0  0
    3.8140   12.3290   23.6517 N   0  0  0  0  0  0
    3.2965   13.4935   24.3672 C   0  0  0  0  0  0
    5.2758   12.3184   23.5670 C   0  0  0  0  0  0
    5.6768   13.5234   24.3670 C   0  0  0  0  0  0
    4.5473   14.1370   24.8993 C   0  0  0  0  0  0
    4.6825   15.1690   25.8230 C   0  0  0  0  0  0
    5.9573   15.5692   26.2139 C   0  0  0  0  0  0
    7.0928   14.9942   25.6428 C   0  0  0  0  0  0
    6.9543   13.9690   24.7096 C   0  0  0  0  0  0
   -1.4740   12.5239   22.9073 H   0  0  0  0  0  0
    2.0355    9.9348   25.2504 H   0  0  0  0  0  0
   -2.9865   11.5883   24.3707 H   0  0  0  0  0  0
    0.0591   13.1911   21.5374 H   0  0  0  0  0  0
   -1.6920    9.1690   29.2449 H   0  0  0  0  0  0
   -1.5957   11.0077   27.3416 H   0  0  0  0  0  0
    1.2879    7.6998   24.8197 H   0  0  0  0  0  0
    1.8351    5.5200   25.8951 H   0  0  0  0  0  0
   -0.2521    6.4261   29.3464 H   0  0  0  0  0  0
    2.6184   13.1920   25.1667 H   0  0  0  0  0  0
    2.7457   14.1490   23.6914 H   0  0  0  0  0  0
    5.6267   12.3687   22.5397 H   0  0  0  0  0  0
    5.6746   11.3928   23.9856 H   0  0  0  0  0  0
    3.8174   15.6439   26.2616 H   0  0  0  0  0  0
    6.0610   16.3615   26.9407 H   0  0  0  0  0  0
    8.0749   15.3299   25.9407 H   0  0  0  0  0  0
    7.8348   13.4906   24.3067 H   0  0  0  0  0  0
  1  2  2  0  0  0
  1  6  1  0  0  0
  1  7  1  0  0  0
  2  3  1  0  0  0
  2 29  1  0  0  0
  3  4  2  0  0  0
  3  8  1  0  0  0
  4  5  1  0  0  0
  4  9  1  0  0  0
  5  6  2  0  0  0
  5 30  1  0  0  0
  6 11  1  0  0  0
  7 31  1  0  0  0
  8 32  1  0  0  0
  9 10  2  0  0  0
  9 20  1  0  0  0
 11 15  1  0  0  0
 11 13  1  0  0  0
 12 14  1  0  0  0
 12 13  2  0  0  0
 12 33  1  0  0  0
 13 34  1  0  0  0
 14 15  2  0  0  0
 14 19  1  0  0  0
 15 16  1  0  0  0
 16 17  2  0  0  0
 16 35  1  0  0  0
 17 18  1  0  0  0
 17 36  1  0  0  0
 18 19  2  0  0  0
 19 37  1  0  0  0
 20 21  1  0  0  0
 20 22  1  0  0  0
 21 24  1  0  0  0
 21 38  1  0  0  0
 21 39  1  0  0  0
 22 23  1  0  0  0
 22 40  1  0  0  0
 22 41  1  0  0  0
 23 24  2  0  0  0
 23 28  1  0  0  0
 24 25  1  0  0  0
 25 26  2  0  0  0
 25 42  1  0  0  0
 26 27  1  0  0  0
 26 43  1  0  0  0
 27 28  2  0  0  0
 27 44  1  0  0  0
 28 45  1  0  0  0
M  END
> <s_m_entry_id>
4691

> <s_m_entry_name>
dock_pv.10

> <s_m_Source_Path>
/home/csk/Desktop/cluster/DUD-E-result/hs90a

> <s_m_Source_File>
dock_pv.maegz

> <i_m_Source_File_Index>
10

> <chembl_id>
CHEMBL3260482

> <chembl_pref_name>
None

> <i_lp_mmshare_version>
53161

> <r_lp_tautomer_probability>
1

> <s_lp_Force_Field>
OPLS_2005

> <r_lp_Energy>
36.299713

> <b_lp_Chiralities_Consistent>
1

> <s_lp_Variant>
CHEMBL3880_lig321-1

> <s_i_glide_gridfile>
glide-grid_1uyg

> <i_i_glide_lignum>
358

> <i_i_glide_rotatable_bonds>
5

> <r_i_docking_score>
-9.86146496600543

> <r_i_glide_ligand_efficiency>
-0.352195177357337

> <r_i_glide_ligand_efficiency_sa>
-1.06947199032318

> <r_i_glide_ligand_efficiency_ln>
-2.27631565934698

> <r_i_glide_gscore>
-9.86146496600543

> <r_i_glide_lipo>
-4.90565316648785

> <r_i_glide_hbond>
-0.138156367033548

> <r_i_glide_metal>
0

> <r_i_glide_rewards>
-2.55005655662778

> <r_i_glide_evdw>
-44.5937881469727

> <r_i_glide_ecoul>
-3.05163550376892

> <r_i_glide_erotb>
0.419835857057713

> <r_i_glide_esite>
0

> <r_i_glide_emodel>
-72.3362989210468

> <r_i_glide_energy>
-47.6454236507416

> <r_i_glide_einternal>
4.7235369682312

> <i_i_glide_confnum>
14

> <i_i_glide_posenum>
317

> <r_i_glide_eff_state_penalty>
0

> <s_user_duplicate_titles>
CHEMBL3880_lig321

> <i_f3d_flags>
0

> <s_m_subgroup_title>
dock_pv

> <s_m_subgroupid>
dock_pv

> <b_m_subgroup_collapsed>
1

$$$$
CHEMBL3880_lig319
                    3D
 Schrodinger Suite 2021-1.
 46 50  0  0  1  0            999 V2000
   -1.0323   11.1923   24.5407 C   0  0  0  0  0  0
   -0.7003   11.9691   23.4345 C   0  0  0  0  0  0
    0.6193   12.0338   22.9922 C   0  0  0  0  0  0
    1.6255   11.3281   23.6767 C   0  0  0  0  0  0
    1.2856   10.5642   24.7906 C   0  0  0  0  0  0
   -0.0349   10.4920   25.2329 C   0  0  0  0  0  0
   -2.3389   11.1116   24.9236 O   0  0  0  0  0  0
    0.8621   12.7690   21.8640 O   0  0  0  0  0  0
    3.0697   11.3283   23.2648 C   0  0  0  0  0  0
    3.5113   10.3678   22.6358 O   0  0  0  0  0  0
   -0.3288    9.6753   26.3454 N   0  0  0  0  0  0
   -1.1389    9.0832   28.3656 C   0  0  0  0  0  0
   -1.1342   10.0515   27.3985 C   0  0  0  0  0  0
   -0.3138    8.0171   27.8978 C   0  0  0  0  0  0
    0.1744    8.4026   26.6111 C   0  0  0  0  0  0
    0.9943    7.5489   25.8523 C   0  0  0  0  0  0
    1.3342    6.3193   26.4136 C   0  0  0  0  0  0
    0.8850    5.9388   27.6737 C   0  0  0  0  0  0
    0.0611    6.7728   28.4245 C   0  0  0  0  0  0
    3.8542   12.3327   23.7164 N   0  0  0  0  0  0
    3.3804   13.4710   24.4972 C   0  0  0  0  0  0
    5.3105   12.3110   23.5669 C   0  0  0  0  0  0
    5.7565   13.5035   24.3670 C   0  0  0  0  0  0
    4.6568   14.1251   24.9495 C   0  0  0  0  0  0
    4.8399   15.1685   25.8516 C   0  0  0  0  0  0
    6.1332   15.5690   26.1739 C   0  0  0  0  0  0
    7.2381   14.9767   25.5624 C   0  0  0  0  0  0
    7.0513   13.9434   24.6471 C   0  0  0  0  0  0
   -1.4790   12.4988   22.9039 H   0  0  0  0  0  0
    2.0594   10.0313   25.3291 H   0  0  0  0  0  0
   -2.9837   11.5690   24.3684 H   0  0  0  0  0  0
    0.0567   13.1709   21.5321 H   0  0  0  0  0  0
   -1.7018    9.1689   29.2762 H   0  0  0  0  0  0
   -1.6347   11.0073   27.3781 H   0  0  0  0  0  0
    1.3451    7.8141   24.8654 H   0  0  0  0  0  0
    1.9624    5.6410   25.8532 H   0  0  0  0  0  0
    1.1795    4.9799   28.0711 H   0  0  0  0  0  0
   -0.2838    6.4676   29.3991 H   0  0  0  0  0  0
    2.7826   13.1298   25.3414 H   0  0  0  0  0  0
    2.7575   14.1285   23.8890 H   0  0  0  0  0  0
    5.6186   12.3655   22.5263 H   0  0  0  0  0  0
    5.7152   11.3773   23.9596 H   0  0  0  0  0  0
    3.9990   15.6517   26.3264 H   0  0  0  0  0  0
    6.2821   16.3685   26.8859 H   0  0  0  0  0  0
    8.2347   15.3089   25.8125 H   0  0  0  0  0  0
    7.9095   13.4591   24.2054 H   0  0  0  0  0  0
  1  2  2  0  0  0
  1  6  1  0  0  0
  1  7  1  0  0  0
  2  3  1  0  0  0
  2 29  1  0  0  0
  3  4  2  0  0  0
  3  8  1  0  0  0
  4  5  1  0  0  0
  4  9  1  0  0  0
  5  6  2  0  0  0
  5 30  1  0  0  0
  6 11  1  0  0  0
  7 31  1  0  0  0
  8 32  1  0  0  0
  9 10  2  0  0  0
  9 20  1  0  0  0
 11 15  1  0  0  0
 11 13  1  0  0  0
 12 14  1  0  0  0
 12 13  2  0  0  0
 12 33  1  0  0  0
 13 34  1  0  0  0
 14 15  2  0  0  0
 14 19  1  0  0  0
 15 16  1  0  0  0
 16 17  2  0  0  0
 16 35  1  0  0  0
 17 18  1  0  0  0
 17 36  1  0  0  0
 18 19  2  0  0  0
 18 37  1  0  0  0
 19 38  1  0  0  0
 20 21  1  0  0  0
 20 22  1  0  0  0
 21 24  1  0  0  0
 21 39  1  0  0  0
 21 40  1  0  0  0
 22 23  1  0  0  0
 22 41  1  0  0  0
 22 42  1  0  0  0
 23 24  2  0  0  0
 23 28  1  0  0  0
 24 25  1  0  0  0
 25 26  2  0  0  0
 25 43  1  0  0  0
 26 27  1  0  0  0
 26 44  1  0  0  0
 27 28  2  0  0  0
 27 45  1  0  0  0
 28 46  1  0  0  0
M  END
> <s_m_entry_id>
4692

> <s_m_entry_name>
dock_pv.11

> <s_m_Source_Path>
/home/csk/Desktop/cluster/DUD-E-result/hs90a

> <s_m_Source_File>
dock_pv.maegz

> <i_m_Source_File_Index>
11

> <chembl_id>
CHEMBL3260480

> <chembl_pref_name>
None

> <i_lp_mmshare_version>
53161

> <r_lp_tautomer_probability>
1

> <s_lp_Force_Field>
OPLS_2005

> <r_lp_Energy>
40.049356

> <b_lp_Chiralities_Consistent>
1

> <s_lp_Variant>
CHEMBL3880_lig319-1

> <s_i_glide_gridfile>
glide-grid_1uyg

> <i_i_glide_lignum>
356

> <i_i_glide_rotatable_bonds>
5

> <r_i_docking_score>
-9.82031646410338

> <r_i_glide_ligand_efficiency>
-0.350725588003692

> <r_i_glide_ligand_efficiency_sa>
-1.06500945150368

> <r_i_glide_ligand_efficiency_ln>
-2.26681737693547

> <r_i_glide_gscore>
-9.82031646410338

> <r_i_glide_lipo>
-4.89449877911865

> <r_i_glide_hbond>
-0.137216181013783

> <r_i_glide_metal>
0

> <r_i_glide_rewards>
-2.58000172434784

> <r_i_glide_evdw>
-42.7075881958008

> <r_i_glide_ecoul>
-3.30040240287781

> <r_i_glide_erotb>
0.421839990598611

> <r_i_glide_esite>
0

> <r_i_glide_emodel>
-69.7003441310457

> <r_i_glide_energy>
-46.0079905986786

> <r_i_glide_einternal>
5.43841314315796

> <i_i_glide_confnum>
8

> <i_i_glide_posenum>
258

> <r_i_glide_eff_state_penalty>
0

> <s_user_duplicate_titles>
CHEMBL3880_lig319

> <i_f3d_flags>
0

> <s_m_subgroup_title>
dock_pv

> <s_m_subgroupid>
dock_pv

> <b_m_subgroup_collapsed>
1

$$$$
CHEMBL3880_lig320
                    3D
 Schrodinger Suite 2021-1.
 45 49  0  0  1  0            999 V2000
   -1.0357   11.1858   24.5334 C   0  0  0  0  0  0
   -0.7027   11.9690   23.4322 C   0  0  0  0  0  0
    0.6157   12.0201   22.9824 C   0  0  0  0  0  0
    1.6146   11.2874   23.6499 C   0  0  0  0  0  0
    1.2723   10.5201   24.7595 C   0  0  0  0  0  0
   -0.0425   10.4686   25.2139 C   0  0  0  0  0  0
   -2.3390   11.1203   24.9291 O   0  0  0  0  0  0
    0.8610   12.7690   21.8646 O   0  0  0  0  0  0
    3.0633   11.2879   23.2566 C   0  0  0  0  0  0
    3.5389   10.2900   22.7156 O   0  0  0  0  0  0
   -0.3295    9.6645   26.3350 N   0  0  0  0  0  0
   -1.1390    9.0949   28.3658 C   0  0  0  0  0  0
   -1.1346   10.0499   27.3861 C   0  0  0  0  0  0
   -0.2815    8.0458   27.9193 C   0  0  0  0  0  0
    0.1953    8.4061   26.6239 C   0  0  0  0  0  0
    1.0242    7.5288   25.9049 C   0  0  0  0  0  0
    1.3560    6.3314   26.5392 C   0  0  0  0  0  0
    0.8706    6.0608   27.8162 C   0  0  0  0  0  0
    0.0610    6.8970   28.5131 N   0  0  0  0  0  0
    3.8154   12.3373   23.6562 N   0  0  0  0  0  0
    3.3003   13.5055   24.3670 C   0  0  0  0  0  0
    5.2768   12.3237   23.5670 C   0  0  0  0  0  0
    5.6804   13.5283   24.3670 C   0  0  0  0  0  0
    4.5520   14.1445   24.8990 C   0  0  0  0  0  0
    4.6871   15.1739   25.8250 C   0  0  0  0  0  0
    5.9614   15.5690   26.2207 C   0  0  0  0  0  0
    7.0970   14.9918   25.6511 C   0  0  0  0  0  0
    6.9583   13.9690   24.7147 C   0  0  0  0  0  0
   -1.4782   12.5151   22.9144 H   0  0  0  0  0  0
    2.0454    9.9798   25.2913 H   0  0  0  0  0  0
   -2.9869   11.5824   24.3808 H   0  0  0  0  0  0
    0.0586   13.1868   21.5440 H   0  0  0  0  0  0
   -1.7043    9.1690   29.2750 H   0  0  0  0  0  0
   -1.6481   10.9982   27.3506 H   0  0  0  0  0  0
    1.3828    7.7488   24.9095 H   0  0  0  0  0  0
    1.9882    5.6132   26.0369 H   0  0  0  0  0  0
    1.1290    5.1357   28.3088 H   0  0  0  0  0  0
    2.6197   13.2097   25.1663 H   0  0  0  0  0  0
    2.7538   14.1612   23.6879 H   0  0  0  0  0  0
    5.6261   12.3690   22.5389 H   0  0  0  0  0  0
    5.6740   11.3982   23.9872 H   0  0  0  0  0  0
    3.8221   15.6492   26.2633 H   0  0  0  0  0  0
    6.0610   16.3566   26.9525 H   0  0  0  0  0  0
    8.0792   15.3229   25.9537 H   0  0  0  0  0  0
    7.8386   13.4882   24.3140 H   0  0  0  0  0  0
  1  2  2  0  0  0
  1  6  1  0  0  0
  1  7  1  0  0  0
  2  3  1  0  0  0
  2 29  1  0  0  0
  3  4  2  0  0  0
  3  8  1  0  0  0
  4  5  1  0  0  0
  4  9  1  0  0  0
  5  6  2  0  0  0
  5 30  1  0  0  0
  6 11  1  0  0  0
  7 31  1  0  0  0
  8 32  1  0  0  0
  9 10  2  0  0  0
  9 20  1  0  0  0
 11 15  1  0  0  0
 11 13  1  0  0  0
 12 14  1  0  0  0
 12 13  2  0  0  0
 12 33  1  0  0  0
 13 34  1  0  0  0
 14 15  2  0  0  0
 14 19  1  0  0  0
 15 16  1  0  0  0
 16 17  2  0  0  0
 16 35  1  0  0  0
 17 18  1  0  0  0
 17 36  1  0  0  0
 18 19  2  0  0  0
 18 37  1  0  0  0
 20 21  1  0  0  0
 20 22  1  0  0  0
 21 24  1  0  0  0
 21 38  1  0  0  0
 21 39  1  0  0  0
 22 23  1  0  0  0
 22 40  1  0  0  0
 22 41  1  0  0  0
 23 24  2  0  0  0
 23 28  1  0  0  0
 24 25  1  0  0  0
 25 26  2  0  0  0
 25 42  1  0  0  0
 26 27  1  0  0  0
 26 43  1  0  0  0
 27 28  2  0  0  0
 27 44  1  0  0  0
 28 45  1  0  0  0
M  END
> <s_m_entry_id>
4693

> <s_m_entry_name>
dock_pv.12

> <s_m_Source_Path>
/home/csk/Desktop/cluster/DUD-E-result/hs90a

> <s_m_Source_File>
dock_pv.maegz

> <i_m_Source_File_Index>
12

> <chembl_id>
CHEMBL3260481

> <chembl_pref_name>
None

> <i_lp_mmshare_version>
53161

> <r_lp_tautomer_probability>
1

> <s_lp_Force_Field>
OPLS_2005

> <r_lp_Energy>
38.956141

> <b_lp_Chiralities_Consistent>
1

> <s_lp_Variant>
CHEMBL3880_lig320-1

> <s_i_glide_gridfile>
glide-grid_1uyg

> <i_i_glide_lignum>
357

> <i_i_glide_rotatable_bonds>
5

> <r_i_docking_score>
-9.80886514456909

> <r_i_glide_ligand_efficiency>
-0.350316612306039

> <r_i_glide_ligand_efficiency_sa>
-1.0637675604118

> <r_i_glide_ligand_efficiency_ln>
-2.26417407616161

> <r_i_glide_gscore>
-9.80886514456909

> <r_i_glide_lipo>
-4.80684362075504

> <r_i_glide_hbond>
-0.138896111650758

> <r_i_glide_metal>
0

> <r_i_glide_rewards>
-2.56403973897428

> <r_i_glide_evdw>
-44.5456848144531

> <r_i_glide_ecoul>
-3.27758193016052

> <r_i_glide_erotb>
0.419835857057713

> <r_i_glide_esite>
0

> <r_i_glide_emodel>
-70.86009496522

> <r_i_glide_energy>
-47.8232667446136

> <r_i_glide_einternal>
5.20561170578003

> <i_i_glide_confnum>
8

> <i_i_glide_posenum>
185

> <r_i_glide_eff_state_penalty>
0

> <s_user_duplicate_titles>
CHEMBL3880_lig320

> <i_f3d_flags>
0

> <s_m_subgroup_title>
dock_pv

> <s_m_subgroupid>
dock_pv

> <b_m_subgroup_collapsed>
1

$$$$
CHEMBL3880_lig242
                    3D
 Schrodinger Suite 2021-1.
 75 78  0  0  1  0            999 V2000
    0.4307   12.2568   23.3987 C   0  0  0  0  0  0
    1.7859   12.4772   23.1629 C   0  0  0  0  0  0
   -0.0016   11.3113   24.3503 C   0  0  0  0  0  0
    0.9785   10.5578   25.0398 C   0  0  0  0  0  0
    1.4469    8.2417   25.9460 C   0  0  2  0  0  0
    0.6464    9.4762   25.8779 N   0  0  0  0  0  0
    2.3196   10.9107   24.9007 C   0  0  0  0  0  0
    2.7406   11.8218   23.9381 C   0  0  0  0  0  0
    1.3786    7.3737   24.6310 C   0  0  1  0  0  0
    4.7298    9.7697   22.9130 C   0  0  0  0  0  0
    4.6206    8.7321   24.0524 C   0  0  0  0  0  0
    3.8269    7.5415   23.7076 N   0  0  0  0  0  0
    2.3731    7.7923   23.4963 C   0  0  0  0  0  0
    6.3532   11.7799   23.4946 C   0  0  0  0  0  0
    5.0968   11.1673   23.4005 C   0  0  0  0  0  0
    4.1235   12.0738   23.7972 N   0  0  0  0  0  0
    7.6847   11.1054   23.2333 C   0  0  0  0  0  0
    4.3917    6.3320   23.4145 C   0  0  0  0  0  0
    1.3867    5.8414   24.8529 C   0  0  0  0  0  0
    1.0850    7.4973   27.2475 C   0  0  0  0  0  0
    6.1273   13.0903   23.9674 C   0  0  0  0  0  0
    4.7499   13.2690   24.0663 C   0  0  0  0  0  0
    4.0513   14.5367   24.5429 C   0  0  0  0  0  0
    5.0164   15.3698   25.4314 C   0  0  0  0  0  0
    6.4464   15.4716   24.8244 C   0  0  0  0  0  0
    7.0816   14.1393   24.3670 C   0  0  0  0  0  0
    5.1173   14.7524   26.8148 C   0  0  0  0  0  0
    4.4737   16.7684   25.6046 C   0  0  0  0  0  0
    8.2981   13.9761   24.4102 O   0  0  0  0  0  0
   -1.4806   11.1687   24.6526 C   0  0  0  0  0  0
   -1.8865   10.7690   25.7414 O   0  0  0  0  0  0
   -2.3390   11.5569   23.7119 N   0  0  0  0  0  0
    3.7543    5.4192   22.8848 O   0  0  0  0  0  0
    5.8626    5.9873   23.8158 C   0  0  1  0  0  0
    6.8340    6.8890   23.1671 N   0  0  0  0  0  0
    6.0347    5.8985   25.3444 C   0  0  0  0  0  0
   -0.2768   12.8439   22.8302 H   0  0  0  0  0  0
    2.0780   13.1740   22.3942 H   0  0  0  0  0  0
    2.4887    8.5259   26.0800 H   0  0  0  0  0  0
   -0.3482    9.3501   26.0225 H   0  0  0  0  0  0
    3.0378   10.4999   25.5856 H   0  0  0  0  0  0
    0.3893    7.5654   24.2060 H   0  0  0  0  0  0
    3.8171    9.8117   22.3189 H   0  0  0  0  0  0
    5.4851    9.4115   22.2115 H   0  0  0  0  0  0
    5.6311    8.4956   24.3674 H   0  0  0  0  0  0
    4.1976    9.1496   24.9502 H   0  0  0  0  0  0
    2.2028    8.8456   23.2832 H   0  0  0  0  0  0
    2.0714    7.2837   22.5780 H   0  0  0  0  0  0
    7.6223   10.0182   23.3009 H   0  0  0  0  0  0
    8.0848   11.3666   22.2536 H   0  0  0  0  0  0
    8.4393   11.3977   23.9605 H   0  0  0  0  0  0
    2.3074    5.5080   25.3332 H   0  0  0  0  0  0
    0.5500    5.5167   25.4709 H   0  0  0  0  0  0
    1.2925    5.3054   23.9067 H   0  0  0  0  0  0
    1.7435    6.6469   27.4232 H   0  0  0  0  0  0
    1.1854    8.1525   28.1158 H   0  0  0  0  0  0
    0.0562    7.1343   27.2321 H   0  0  0  0  0  0
    3.1087   14.3379   25.0536 H   0  0  0  0  0  0
    3.8053   15.0953   23.6448 H   0  0  0  0  0  0
    7.1354   15.9448   25.5249 H   0  0  0  0  0  0
    6.4182   16.1290   23.9670 H   0  0  0  0  0  0
    4.1606   14.3685   27.1674 H   0  0  0  0  0  0
    5.8197   13.9690   26.7630 H   0  0  0  0  0  0
    5.5453   15.4224   27.5656 H   0  0  0  0  0  0
    3.4596   16.7689   25.9673 H   0  0  0  0  0  0
    5.0516   17.1692   26.4191 H   0  0  0  0  0  0
    4.5782   17.3982   24.7248 H   0  0  0  0  0  0
   -3.3304   11.6154   23.9653 H   0  0  0  0  0  0
   -2.0450   11.7753   22.7750 H   0  0  0  0  0  0
    6.0702    4.9857   23.4368 H   0  0  0  0  0  0
    7.7734    6.7056   23.4860 H   0  0  0  0  0  0
    6.8591    6.7684   22.1519 H   0  0  0  0  0  0
    5.3419    5.1787   25.7810 H   0  0  0  0  0  0
    7.0429    5.5753   25.6032 H   0  0  0  0  0  0
    5.8653    6.8548   25.8383 H   0  0  0  0  0  0
  1  3  1  0  0  0
  1  2  2  0  0  0
  1 37  1  0  0  0
  2  8  1  0  0  0
  2 38  1  0  0  0
  3  4  2  0  0  0
  3 30  1  0  0  0
  4  7  1  0  0  0
  4  6  1  0  0  0
  5 20  1  0  0  0
  5  9  1  0  0  0
  5  6  1  0  0  0
  5 39  1  0  0  0
  6 40  1  0  0  0
  7  8  2  0  0  0
  7 41  1  0  0  0
  8 16  1  0  0  0
  9 19  1  0  0  0
  9 13  1  0  0  0
  9 42  1  0  0  0
 10 15  1  0  0  0
 10 11  1  0  0  0
 10 43  1  0  0  0
 10 44  1  0  0  0
 11 12  1  0  0  0
 11 45  1  0  0  0
 11 46  1  0  0  0
 12 18  1  0  0  0
 12 13  1  0  0  0
 13 47  1  0  0  0
 13 48  1  0  0  0
 14 17  1  0  0  0
 14 21  1  0  0  0
 14 15  2  0  0  0
 15 16  1  0  0  0
 16 22  1  0  0  0
 17 49  1  0  0  0
 17 50  1  0  0  0
 17 51  1  0  0  0
 18 33  2  0  0  0
 18 34  1  0  0  0
 19 52  1  0  0  0
 19 53  1  0  0  0
 19 54  1  0  0  0
 20 55  1  0  0  0
 20 56  1  0  0  0
 20 57  1  0  0  0
 21 22  2  0  0  0
 21 26  1  0  0  0
 22 23  1  0  0  0
 23 24  1  0  0  0
 23 58  1  0  0  0
 23 59  1  0  0  0
 24 25  1  0  0  0
 24 27  1  0  0  0
 24 28  1  0  0  0
 25 26  1  0  0  0
 25 60  1  0  0  0
 25 61  1  0  0  0
 26 29  2  0  0  0
 27 62  1  0  0  0
 27 63  1  0  0  0
 27 64  1  0  0  0
 28 65  1  0  0  0
 28 66  1  0  0  0
 28 67  1  0  0  0
 30 31  2  0  0  0
 30 32  1  0  0  0
 32 68  1  0  0  0
 32 69  1  0  0  0
 34 35  1  0  0  0
 34 36  1  0  0  0
 34 70  1  0  0  0
 35 71  1  0  0  0
 35 72  1  0  0  0
 36 73  1  0  0  0
 36 74  1  0  0  0
 36 75  1  0  0  0
M  END
> <s_m_entry_id>
4694

> <s_m_entry_name>
dock_pv.13

> <s_m_Source_Path>
/home/csk/Desktop/cluster/DUD-E-result/hs90a

> <s_m_Source_File>
dock_pv.maegz

> <i_m_Source_File_Index>
13

> <chembl_id>
CHEMBL1807804

> <chembl_pref_name>
None

> <i_lp_mmshare_version>
53161

> <r_lp_tautomer_probability>
0.99995

> <s_lp_Force_Field>
OPLS_2005

> <r_lp_Energy>
54.812458

> <b_lp_Chiralities_Consistent>
1

> <s_lp_Variant>
CHEMBL3880_lig242-1

> <s_i_glide_gridfile>
glide-grid_1uyg

> <i_i_glide_lignum>
276

> <i_i_glide_rotatable_bonds>
3

> <r_i_docking_score>
-9.76051469906256

> <r_i_glide_ligand_efficiency>
-0.271125408307293

> <r_i_glide_ligand_efficiency_sa>
-0.895236372488168

> <r_i_glide_ligand_efficiency_ln>
-2.12948060870241

> <r_i_glide_gscore>
-9.76051469906256

> <r_i_glide_lipo>
-4.37698430297

> <r_i_glide_hbond>
-0.477297382313492

> <r_i_glide_metal>
0

> <r_i_glide_rewards>
-1.82666376552742

> <r_i_glide_evdw>
-35.9053726196289

> <r_i_glide_ecoul>
-8.81194686889648

> <r_i_glide_erotb>
0.0836047663337289

> <r_i_glide_esite>
-0.0461133532694604

> <r_i_glide_emodel>
-44.4152282295261

> <r_i_glide_energy>
-44.7173194885254

> <r_i_glide_einternal>
6.22566080093384

> <i_i_glide_confnum>
7

> <i_i_glide_posenum>
395

> <r_i_glide_eff_state_penalty>
0

> <s_user_duplicate_titles>
CHEMBL3880_lig242

> <i_f3d_flags>
0

> <s_m_subgroup_title>
dock_pv

> <s_m_subgroupid>
dock_pv

> <b_m_subgroup_collapsed>
1

$$$$
CHEMBL3880_lig968
                    3D
 Schrodinger Suite 2021-1.
 58 61  0  0  1  0            999 V2000
    4.4910   16.6987   25.6866 C   0  0  0  0  0  0
    5.1346   15.3467   25.4487 C   0  0  0  0  0  0
    5.3525   14.6674   26.7891 C   0  0  0  0  0  0
    1.4932   10.0906   25.0439 C   0  0  0  0  0  0
    2.8099   10.5109   24.7850 C   0  0  0  0  0  0
    3.1069   11.6112   23.9915 C   0  0  0  0  0  0
    2.0752   12.3195   23.3943 C   0  0  0  0  0  0
    4.4502   12.0030   23.8372 N   0  0  0  0  0  0
    4.9938   13.2464   24.0708 C   0  0  0  0  0  0
    6.3884   13.1574   23.9783 C   0  0  0  0  0  0
    7.2614   14.2874   24.3433 C   0  0  0  0  0  0
    6.5325   15.5690   24.8058 C   0  0  0  0  0  0
    4.2169   14.4686   24.5543 C   0  0  0  0  0  0
    8.4856   14.2242   24.3670 O   0  0  0  0  0  0
    6.7108   11.8400   23.5670 C   0  0  0  0  0  0
    5.4969   11.1724   23.5228 C   0  0  0  0  0  0
    8.0610   11.1799   23.3974 C   0  0  0  0  0  0
    0.4372   10.9112   24.5193 C   0  0  0  0  0  0
    0.7483   11.9881   23.6504 C   0  0  0  0  0  0
   -0.3729   12.8033   23.0172 C   0  0  0  0  0  0
   -1.6449   11.9463   22.8921 C   0  0  0  0  0  0
   -1.9390   11.3793   24.2093 N   0  0  0  0  0  0
   -1.0119   10.7954   24.9984 C   0  0  0  0  0  0
   -1.4074   10.3927   26.0857 O   0  0  0  0  0  0
    1.3305    8.7326   25.8260 C   0  0  0  0  0  0
    2.6137    7.8392   25.7768 C   0  0  0  0  0  0
    0.2634    7.8126   25.1746 C   0  0  0  0  0  0
    1.0730    8.9736   27.3356 C   0  0  0  0  0  0
    5.0653   17.1690   26.4670 H   0  0  0  0  0  0
    4.4634   17.3363   24.8059 H   0  0  0  0  0  0
    3.5044   16.6034   26.1095 H   0  0  0  0  0  0
    5.7172   15.3500   27.5573 H   0  0  0  0  0  0
    4.4680   14.1514   27.1669 H   0  0  0  0  0  0
    6.1486   13.9690   26.6390 H   0  0  0  0  0  0
    3.6511    9.9951   25.2174 H   0  0  0  0  0  0
    2.2998   13.1690   22.7670 H   0  0  0  0  0  0
    6.4398   16.2432   23.9670 H   0  0  0  0  0  0
    7.1991   16.0630   25.5109 H   0  0  0  0  0  0
    3.9187   15.0236   23.6711 H   0  0  0  0  0  0
    3.2969   14.2055   25.0788 H   0  0  0  0  0  0
    5.2967   10.1312   23.3169 H   0  0  0  0  0  0
    8.8079   11.5778   24.0824 H   0  0  0  0  0  0
    8.0159   10.1130   23.6174 H   0  0  0  0  0  0
    8.4472   11.2869   22.3849 H   0  0  0  0  0  0
   -0.0824   13.1690   22.0324 H   0  0  0  0  0  0
   -0.5788   13.6863   23.6210 H   0  0  0  0  0  0
   -1.5402   11.1690   22.1366 H   0  0  0  0  0  0
   -2.4839   12.5576   22.5551 H   0  0  0  0  0  0
   -2.8848   11.4644   24.5692 H   0  0  0  0  0  0
    3.4351    8.2470   26.3662 H   0  0  0  0  0  0
    2.4385    6.8449   26.1915 H   0  0  0  0  0  0
    2.9704    7.6945   24.7554 H   0  0  0  0  0  0
   -0.7390    8.2014   25.2225 H   0  0  0  0  0  0
    0.4785    7.6392   24.1187 H   0  0  0  0  0  0
    0.2119    6.8358   25.6577 H   0  0  0  0  0  0
    0.1516    9.4950   27.5646 H   0  0  0  0  0  0
    1.0290    8.0336   27.8873 H   0  0  0  0  0  0
    1.8773    9.5646   27.7753 H   0  0  0  0  0  0
  1  2  1  0  0  0
  1 29  1  0  0  0
  1 30  1  0  0  0
  1 31  1  0  0  0
  2  3  1  0  0  0
  2 12  1  0  0  0
  2 13  1  0  0  0
  3 32  1  0  0  0
  3 33  1  0  0  0
  3 34  1  0  0  0
  4  5  2  0  0  0
  4 18  1  0  0  0
  4 25  1  0  0  0
  5  6  1  0  0  0
  5 35  1  0  0  0
  6  7  2  0  0  0
  6  8  1  0  0  0
  7 19  1  0  0  0
  7 36  1  0  0  0
  8 16  1  0  0  0
  8  9  1  0  0  0
  9 10  2  0  0  0
  9 13  1  0  0  0
 10 15  1  0  0  0
 10 11  1  0  0  0
 11 12  1  0  0  0
 11 14  2  0  0  0
 12 37  1  0  0  0
 12 38  1  0  0  0
 13 39  1  0  0  0
 13 40  1  0  0  0
 15 16  2  0  0  0
 15 17  1  0  0  0
 16 41  1  0  0  0
 17 42  1  0  0  0
 17 43  1  0  0  0
 17 44  1  0  0  0
 18 19  2  0  0  0
 18 23  1  0  0  0
 19 20  1  0  0  0
 20 21  1  0  0  0
 20 45  1  0  0  0
 20 46  1  0  0  0
 21 22  1  0  0  0
 21 47  1  0  0  0
 21 48  1  0  0  0
 22 23  1  0  0  0
 22 49  1  0  0  0
 23 24  2  0  0  0
 25 26  1  0  0  0
 25 27  1  0  0  0
 25 28  1  0  0  0
 26 50  1  0  0  0
 26 51  1  0  0  0
 26 52  1  0  0  0
 27 53  1  0  0  0
 27 54  1  0  0  0
 27 55  1  0  0  0
 28 56  1  0  0  0
 28 57  1  0  0  0
 28 58  1  0  0  0
M  END
> <s_m_entry_id>
4695

> <s_m_entry_name>
dock_pv.14

> <s_m_Source_Path>
/home/csk/Desktop/cluster/DUD-E-result/hs90a

> <s_m_Source_File>
dock_pv.maegz

> <i_m_Source_File_Index>
14

> <chembl_id>
CHEMBL3235358

> <chembl_pref_name>
None

> <i_lp_mmshare_version>
53161

> <r_lp_tautomer_probability>
0.99995

> <s_lp_Force_Field>
OPLS_2005

> <r_lp_Energy>
43.537408

> <b_lp_Chiralities_Consistent>
1

> <s_lp_Variant>
CHEMBL3880_lig968-1

> <s_i_glide_gridfile>
glide-grid_1uyg

> <i_i_glide_lignum>
1077

> <i_i_glide_rotatable_bonds>
2

> <r_i_docking_score>
-9.74450021549082

> <r_i_glide_ligand_efficiency>
-0.348017864838958

> <r_i_glide_ligand_efficiency_sa>
-1.05678720921188

> <r_i_glide_ligand_efficiency_ln>
-2.24931676069391

> <r_i_glide_gscore>
-9.74450021549082

> <r_i_glide_lipo>
-4.67352791497223

> <r_i_glide_hbond>
-0.19224429711772

> <r_i_glide_metal>
0

> <r_i_glide_rewards>
-2.56629270513532

> <r_i_glide_evdw>
-35.2704162597656

> <r_i_glide_ecoul>
-4.56123399734497

> <r_i_glide_erotb>
0.135270614324481

> <r_i_glide_esite>
0

> <r_i_glide_emodel>
-39.8217025555294

> <r_i_glide_energy>
-39.8316502571106

> <r_i_glide_einternal>
0.800133466720581

> <i_i_glide_confnum>
16

> <i_i_glide_posenum>
206

> <r_i_glide_eff_state_penalty>
0

> <s_user_duplicate_titles>
CHEMBL3880_lig968

> <i_f3d_flags>
0

> <s_m_subgroup_title>
dock_pv

> <s_m_subgroupid>
dock_pv

> <b_m_subgroup_collapsed>
1

$$$$
CHEMBL3880_lig28
                    3D
 Schrodinger Suite 2021-1.
 34 36  0  0  1  0            999 V2000
    9.8880   14.9863   26.0193 S   0  0  0  0  0  0
   10.6807   14.7664   24.8059 O   0  0  0  0  0  0
    9.8687   16.2999   26.6684 O   0  0  0  0  0  0
   -1.9984   13.1684   22.7709 O   0  0  0  0  0  0
   -2.3389   11.5415   24.3364 O   0  0  0  0  0  0
    2.0794   13.2021   24.1192 N   0  0  0  0  0  0
    4.0250   12.0665   24.3672 N   0  0  0  0  0  0
    4.2526   13.3649   24.4656 C   0  0  0  0  0  0
    2.6867   11.9428   24.2172 C   0  0  0  0  0  0
    5.6283   13.8580   24.7667 C   0  0  0  0  0  0
    3.0816   14.1099   24.3365 C   0  0  0  0  0  0
    0.7379   13.3500   23.8914 C   0  0  0  0  0  0
    8.2089   14.5180   25.6058 C   0  0  0  0  0  0
   -0.0784   12.2160   23.8322 C   0  0  0  0  0  0
    1.8771   10.7973   24.1627 C   0  0  0  0  0  0
    5.8195   14.8791   25.6992 C   0  0  0  0  0  0
    6.7374   13.1695   24.2597 C   0  0  0  0  0  0
    0.4992   10.9559   24.0030 C   0  0  0  0  0  0
    7.1062   15.1869   26.1328 C   0  0  0  0  0  0
    8.0157   13.4799   24.7034 C   0  0  0  0  0  0
   -1.5516   12.3510   23.5681 C   0  0  0  0  0  0
   10.4264   13.7137   27.2680 C   0  0  0  0  0  0
   -3.2879   11.7620   24.2503 H   0  0  0  0  0  0
    2.9124   15.1724   24.3638 H   0  0  0  0  0  0
    0.3691   14.3620   23.8063 H   0  0  0  0  0  0
    2.3116    9.8131   24.2612 H   0  0  0  0  0  0
    4.9741   15.3962   26.1287 H   0  0  0  0  0  0
    6.6018   12.3464   23.5730 H   0  0  0  0  0  0
   -0.1272   10.0723   23.9862 H   0  0  0  0  0  0
    7.2387   15.9687   26.8640 H   0  0  0  0  0  0
    8.8562   12.8989   24.3641 H   0  0  0  0  0  0
   11.4099   13.9882   27.6470 H   0  0  0  0  0  0
    9.7002   13.6739   28.0765 H   0  0  0  0  0  0
   10.4609   12.7716   26.7312 H   0  0  0  0  0  0
  1  2  2  0  0  0
  1  3  2  0  0  0
  1 13  1  0  0  0
  1 22  1  0  0  0
  4 21  2  0  0  0
  5 21  1  0  0  0
  5 23  1  0  0  0
  6  9  1  0  0  0
  6 11  1  0  0  0
  6 12  1  0  0  0
  7  8  1  0  0  0
  7  9  2  0  0  0
  8 10  1  0  0  0
  8 11  2  0  0  0
  9 15  1  0  0  0
 10 16  2  0  0  0
 10 17  1  0  0  0
 11 24  1  0  0  0
 12 14  2  0  0  0
 12 25  1  0  0  0
 13 19  2  0  0  0
 13 20  1  0  0  0
 14 18  1  0  0  0
 14 21  1  0  0  0
 15 18  2  0  0  0
 15 26  1  0  0  0
 16 19  1  0  0  0
 16 27  1  0  0  0
 17 20  2  0  0  0
 17 28  1  0  0  0
 18 29  1  0  0  0
 19 30  1  0  0  0
 20 31  1  0  0  0
 22 32  1  0  0  0
 22 33  1  0  0  0
 22 34  1  0  0  0
M  END
> <s_m_entry_id>
4696

> <s_m_entry_name>
dock_pv.15

> <s_m_Source_Path>
/home/csk/Desktop/cluster/DUD-E-result/hs90a

> <s_m_Source_File>
dock_pv.maegz

> <i_m_Source_File_Index>
15

> <chembl_id>
CHEMBL1318777

> <chembl_pref_name>
None

> <i_lp_mmshare_version>
53161

> <r_lp_tautomer_probability>
1

> <s_lp_Force_Field>
OPLS_2005

> <r_lp_Energy>
8.241497

> <b_lp_Chiralities_Consistent>
1

> <s_lp_Variant>
CHEMBL3880_lig28-1

> <s_i_glide_gridfile>
glide-grid_1uyg

> <i_i_glide_lignum>
33

> <i_i_glide_rotatable_bonds>
4

> <r_i_docking_score>
-9.697924407104

> <r_i_glide_ligand_efficiency>
-0.440814745777455

> <r_i_glide_ligand_efficiency_sa>
-1.23518025392862

> <r_i_glide_ligand_efficiency_ln>
-2.37052646548388

> <r_i_glide_gscore>
-9.697924407104

> <r_i_glide_lipo>
-3.41118594867647

> <r_i_glide_hbond>
0

> <r_i_glide_metal>
0

> <r_i_glide_rewards>
-3.20323560825824

> <r_i_glide_evdw>
-31.2468738555908

> <r_i_glide_ecoul>
-12.1740942001343

> <r_i_glide_erotb>
0.372058538313494

> <r_i_glide_esite>
-0.0671035656831038

> <r_i_glide_emodel>
-56.9819289877201

> <r_i_glide_energy>
-43.4209680557251

> <r_i_glide_einternal>
8.82269668579102

> <i_i_glide_confnum>
1

> <i_i_glide_posenum>
170

> <r_i_glide_eff_state_penalty>
0

> <s_user_duplicate_titles>
CHEMBL3880_lig28

> <i_f3d_flags>
0

> <s_m_subgroup_title>
dock_pv

> <s_m_subgroupid>
dock_pv

> <b_m_subgroup_collapsed>
1

$$$$
CHEMBL3880_lig241
                    3D
 Schrodinger Suite 2021-1.
 72 75  0  0  1  0            999 V2000
    0.4398   12.2903   23.3202 C   0  0  0  0  0  0
    1.8026   12.4967   23.1213 C   0  0  0  0  0  0
    2.7327   11.8081   23.8983 C   0  0  0  0  0  0
    2.2754   10.8975   24.8448 C   0  0  0  0  0  0
    0.9241   10.5742   24.9664 C   0  0  0  0  0  0
   -0.0278   11.3360   24.2448 C   0  0  0  0  0  0
   -1.5190   11.1879   24.4786 C   0  0  0  0  0  0
   -2.3385   11.5702   23.4995 N   0  0  0  0  0  0
   -1.9665   10.7813   25.5483 O   0  0  0  0  0  0
    0.5524    9.5104   25.8143 N   0  0  0  0  0  0
    1.3605    8.2940   25.9832 C   0  0  2  0  0  0
    1.3750    7.3745   24.7266 C   0  0  0  0  0  0
    0.8681    7.5257   27.2194 C   0  0  0  0  0  0
    2.3230    7.7600   23.5588 C   0  0  0  0  0  0
    3.7667    7.4926   23.7780 N   0  0  0  0  0  0
    4.5946    8.6744   24.0701 C   0  0  0  0  0  0
    4.6877    9.6956   22.9146 C   0  0  0  0  0  0
    5.0791   11.0917   23.3875 C   0  0  0  0  0  0
    4.1237   12.0225   23.7742 N   0  0  0  0  0  0
    6.3487   11.6744   23.4792 C   0  0  0  0  0  0
    6.1535   12.9863   23.9670 C   0  0  0  0  0  0
    4.7797   13.1984   24.0543 C   0  0  0  0  0  0
    4.1071   14.4780   24.5325 C   0  0  0  0  0  0
    5.0959   15.3099   25.3936 C   0  0  0  0  0  0
    6.5370   15.3605   24.8094 C   0  0  0  0  0  0
    7.1329   14.0091   24.3685 C   0  0  0  0  0  0
    7.6616   10.9675   23.2132 C   0  0  0  0  0  0
    8.3414   13.8095   24.4473 O   0  0  0  0  0  0
    5.1639   14.7558   26.7975 C   0  0  0  0  0  0
    4.6074   16.7239   25.5155 C   0  0  0  0  0  0
    4.2491    6.2161   23.7001 C   0  0  0  0  0  0
    3.5154    5.2544   23.4538 O   0  0  0  0  0  0
    5.7464    5.8666   23.9782 C   0  0  2  0  0  0
    6.0679    5.8847   25.4848 C   0  0  0  0  0  0
    6.6671    6.6850   23.1670 N   0  0  0  0  0  0
   -0.2472   12.8918   22.7411 H   0  0  0  0  0  0
    2.1158   13.2080   22.3749 H   0  0  0  0  0  0
    2.9758   10.4581   25.5276 H   0  0  0  0  0  0
   -2.0116   11.7934   22.5738 H   0  0  0  0  0  0
   -3.3356   11.6153   23.7184 H   0  0  0  0  0  0
   -0.4453    9.3939   25.9421 H   0  0  0  0  0  0
    2.3895    8.5742   26.2025 H   0  0  0  0  0  0
    0.3582    7.3372   24.3319 H   0  0  0  0  0  0
    1.5846    6.3424   25.0122 H   0  0  0  0  0  0
    1.4928    6.6541   27.4210 H   0  0  0  0  0  0
    0.9000    8.1540   28.1107 H   0  0  0  0  0  0
   -0.1590    7.1813   27.0939 H   0  0  0  0  0  0
    2.1624    8.8097   23.3255 H   0  0  0  0  0  0
    2.0043    7.2260   22.6609 H   0  0  0  0  0  0
    5.6075    8.4245   24.3690 H   0  0  0  0  0  0
    4.2013    9.1164   24.9717 H   0  0  0  0  0  0
    3.7666    9.7381   22.3338 H   0  0  0  0  0  0
    5.4274    9.3228   22.2059 H   0  0  0  0  0  0
    3.1695   14.2964   25.0603 H   0  0  0  0  0  0
    3.8519   15.0323   23.6360 H   0  0  0  0  0  0
    7.2305   15.7966   25.5289 H   0  0  0  0  0  0
    6.5573   16.0322   23.9650 H   0  0  0  0  0  0
    7.5734    9.8823   23.2800 H   0  0  0  0  0  0
    8.0542   11.2220   22.2275 H   0  0  0  0  0  0
    8.4268   11.2409   23.9423 H   0  0  0  0  0  0
    4.2049   14.3911   27.1670 H   0  0  0  0  0  0
    5.8600   13.9690   26.7666 H   0  0  0  0  0  0
    5.5989   15.4564   27.5111 H   0  0  0  0  0  0
    3.6200   16.7705   25.9545 H   0  0  0  0  0  0
    5.2602   17.1689   26.2460 H   0  0  0  0  0  0
    4.6679   17.2863   24.5864 H   0  0  0  0  0  0
    5.9008    4.8386   23.6517 H   0  0  0  0  0  0
    5.4179    5.2057   26.0380 H   0  0  0  0  0  0
    7.0950    5.5688   25.6679 H   0  0  0  0  0  0
    5.9531    6.8753   25.9225 H   0  0  0  0  0  0
    7.6299    6.4680   23.3771 H   0  0  0  0  0  0
    6.5686    6.5439   22.1636 H   0  0  0  0  0  0
  1  6  1  0  0  0
  1  2  2  0  0  0
  1 36  1  0  0  0
  2  3  1  0  0  0
  2 37  1  0  0  0
  3 19  1  0  0  0
  3  4  2  0  0  0
  4  5  1  0  0  0
  4 38  1  0  0  0
  5 10  1  0  0  0
  5  6  2  0  0  0
  6  7  1  0  0  0
  7  9  2  0  0  0
  7  8  1  0  0  0
  8 39  1  0  0  0
  8 40  1  0  0  0
 10 11  1  0  0  0
 10 41  1  0  0  0
 11 12  1  0  0  0
 11 13  1  0  0  0
 11 42  1  0  0  0
 12 14  1  0  0  0
 12 43  1  0  0  0
 12 44  1  0  0  0
 13 45  1  0  0  0
 13 46  1  0  0  0
 13 47  1  0  0  0
 14 15  1  0  0  0
 14 48  1  0  0  0
 14 49  1  0  0  0
 15 31  1  0  0  0
 15 16  1  0  0  0
 16 17  1  0  0  0
 16 50  1  0  0  0
 16 51  1  0  0  0
 17 18  1  0  0  0
 17 52  1  0  0  0
 17 53  1  0  0  0
 18 19  1  0  0  0
 18 20  2  0  0  0
 19 22  1  0  0  0
 20 21  1  0  0  0
 20 27  1  0  0  0
 21 22  2  0  0  0
 21 26  1  0  0  0
 22 23  1  0  0  0
 23 24  1  0  0  0
 23 54  1  0  0  0
 23 55  1  0  0  0
 24 25  1  0  0  0
 24 29  1  0  0  0
 24 30  1  0  0  0
 25 26  1  0  0  0
 25 56  1  0  0  0
 25 57  1  0  0  0
 26 28  2  0  0  0
 27 58  1  0  0  0
 27 59  1  0  0  0
 27 60  1  0  0  0
 29 61  1  0  0  0
 29 62  1  0  0  0
 29 63  1  0  0  0
 30 64  1  0  0  0
 30 65  1  0  0  0
 30 66  1  0  0  0
 31 32  2  0  0  0
 31 33  1  0  0  0
 33 34  1  0  0  0
 33 35  1  0  0  0
 33 67  1  0  0  0
 34 68  1  0  0  0
 34 69  1  0  0  0
 34 70  1  0  0  0
 35 71  1  0  0  0
 35 72  1  0  0  0
M  END
> <s_m_entry_id>
4697

> <s_m_entry_name>
dock_pv.16

> <s_m_Source_Path>
/home/csk/Desktop/cluster/DUD-E-result/hs90a

> <s_m_Source_File>
dock_pv.maegz

> <i_m_Source_File_Index>
16

> <chembl_id>
CHEMBL1778194

> <chembl_pref_name>
None

> <i_lp_mmshare_version>
53161

> <r_lp_tautomer_probability>
0.99995

> <s_lp_Force_Field>
OPLS_2005

> <r_lp_Energy>
50.719174

> <b_lp_Chiralities_Consistent>
1

> <s_lp_Variant>
CHEMBL3880_lig241-1

> <s_i_glide_gridfile>
glide-grid_1uyg

> <i_i_glide_lignum>
275

> <i_i_glide_rotatable_bonds>
3

> <r_i_docking_score>
-9.66461898424866

> <r_i_glide_ligand_efficiency>
-0.276131970978533

> <r_i_glide_ligand_efficiency_sa>
-0.903245986363402

> <r_i_glide_ligand_efficiency_ln>
-2.12159836170427

> <r_i_glide_gscore>
-9.66461898424866

> <r_i_glide_lipo>
-4.47996161072754

> <r_i_glide_hbond>
-0.465544448825599

> <r_i_glide_metal>
0

> <r_i_glide_rewards>
-1.93238902422556

> <r_i_glide_evdw>
-36.7107772827148

> <r_i_glide_ecoul>
-6.70402002334595

> <r_i_glide_erotb>
0.0881322254892723

> <r_i_glide_esite>
-0.0337142583215921

> <r_i_glide_emodel>
-43.0316276286405

> <r_i_glide_energy>
-43.4147973060608

> <r_i_glide_einternal>
6.58445405960083

> <i_i_glide_confnum>
8

> <i_i_glide_posenum>
258

> <r_i_glide_eff_state_penalty>
0

> <s_user_duplicate_titles>
CHEMBL3880_lig241

> <i_f3d_flags>
0

> <s_m_subgroup_title>
dock_pv

> <s_m_subgroupid>
dock_pv

> <b_m_subgroup_collapsed>
1

$$$$
CHEMBL3880_lig447
                    3D
 Schrodinger Suite 2021-1.
 63 67  0  0  1  0            999 V2000
    9.2033   14.8704   25.4377 C   0  0  0  0  0  0
    7.9708   15.5454   25.6673 O   0  0  0  0  0  0
    6.7876   14.9474   25.2712 C   0  0  0  0  0  0
    5.5976   15.6180   25.5312 C   0  0  0  0  0  0
    4.4080   15.0723   25.0657 C   0  0  0  0  0  0
    4.4306   13.8712   24.3665 C   0  0  0  0  0  0
    5.6358   13.1702   24.2110 C   0  0  0  0  0  0
    6.8083   13.7379   24.6389 N   0  0  0  0  0  0
    5.7532   11.7746   23.6233 C   0  0  0  0  0  0
    6.9749   11.4298   23.0078 C   0  0  0  0  0  0
    7.2297   10.1549   22.5155 C   0  0  0  0  0  0
    8.4290    9.8648   21.9670 F   0  0  0  0  0  0
    6.2525    9.1770   22.5991 C   0  0  0  0  0  0
    5.0299    9.4767   23.1852 C   0  0  0  0  0  0
    4.7597   10.7493   23.7197 C   0  0  0  0  0  0
    3.3630   10.9329   24.3592 C   0  0  1  0  0  0
    2.3029   11.1926   23.2261 C   0  0  0  0  0  0
    0.8918   11.2027   23.7991 C   0  0  0  0  0  0
   -0.0634   11.9880   23.2231 N   0  0  0  0  0  0
   -1.2940   11.9687   23.7905 C   0  0  0  0  0  0
   -2.3271   12.6554   23.1668 N   0  0  0  0  0  0
   -1.6196   11.3226   24.9294 N   0  0  0  0  0  0
   -0.6453   10.5908   25.5197 C   0  0  0  0  0  0
   -1.0241   10.0894   26.9027 C   0  0  0  0  0  0
    0.6359   10.4298   24.9439 C   0  0  0  0  0  0
    1.7476    9.5957   25.4695 C   0  0  0  0  0  0
    2.9943    9.8132   25.2482 N   0  0  0  0  0  0
    1.3036    8.4097   26.1255 N   0  0  0  0  0  0
    2.2827    7.5021   26.6646 O   0  0  0  0  0  0
    1.8574    7.0890   27.9684 C   0  0  2  0  0  0
    1.7906    8.2525   28.9785 C   0  0  0  0  0  0
    2.0535    7.6162   30.3438 C   0  0  1  0  0  0
    0.8645    7.0446   30.8758 O   0  0  0  0  0  0
    3.1269    6.5631   30.0062 C   0  0  1  0  0  0
    3.3921    5.5690   30.9783 O   0  0  0  0  0  0
    2.8165    6.0539   28.5879 C   0  0  0  0  0  0
   10.0197   15.4496   25.8708 H   0  0  0  0  0  0
    9.2185   13.8820   25.9017 H   0  0  0  0  0  0
    9.3965   14.7684   24.3680 H   0  0  0  0  0  0
    5.6043   16.5630   26.0535 H   0  0  0  0  0  0
    3.4668   15.5712   25.2203 H   0  0  0  0  0  0
    3.4991   13.5192   23.9624 H   0  0  0  0  0  0
    7.7684   12.1572   22.9177 H   0  0  0  0  0  0
    6.4465    8.1850   22.2185 H   0  0  0  0  0  0
    4.2865    8.6939   23.2411 H   0  0  0  0  0  0
    3.4187   11.7669   25.0505 H   0  0  0  0  0  0
    2.5068   12.1001   22.6599 H   0  0  0  0  0  0
    2.3544   10.3767   22.5039 H   0  0  0  0  0  0
   -3.2649   12.5605   23.5671 H   0  0  0  0  0  0
   -2.1816   13.0724   22.2623 H   0  0  0  0  0  0
   -0.2172   10.3629   27.5749 H   0  0  0  0  0  0
   -1.9439   10.5405   27.2791 H   0  0  0  0  0  0
   -1.1384    9.0109   26.9284 H   0  0  0  0  0  0
    0.6089    7.8522   25.6520 H   0  0  0  0  0  0
    0.8635    6.6449   27.8595 H   0  0  0  0  0  0
    0.8313    8.7710   28.9706 H   0  0  0  0  0  0
    2.5608    8.9894   28.7444 H   0  0  0  0  0  0
    2.4311    8.3689   31.0372 H   0  0  0  0  0  0
    0.3124    7.7631   31.1988 H   0  0  0  0  0  0
    4.0587    7.1297   29.9301 H   0  0  0  0  0  0
    3.8418    6.0149   31.7066 H   0  0  0  0  0  0
    3.7378    5.9193   28.0178 H   0  0  0  0  0  0
    2.3170    5.0867   28.6314 H   0  0  0  0  0  0
  1  2  1  0  0  0
  1 37  1  0  0  0
  1 38  1  0  0  0
  1 39  1  0  0  0
  2  3  1  0  0  0
  3  4  2  0  0  0
  3  8  1  0  0  0
  4  5  1  0  0  0
  4 40  1  0  0  0
  5  6  2  0  0  0
  5 41  1  0  0  0
  6  7  1  0  0  0
  6 42  1  0  0  0
  7  8  2  0  0  0
  7  9  1  0  0  0
  9 10  2  0  0  0
  9 15  1  0  0  0
 10 11  1  0  0  0
 10 43  1  0  0  0
 11 12  1  0  0  0
 11 13  2  0  0  0
 13 14  1  0  0  0
 13 44  1  0  0  0
 14 15  2  0  0  0
 14 45  1  0  0  0
 15 16  1  0  0  0
 16 17  1  0  0  0
 16 27  1  0  0  0
 16 46  1  0  0  0
 17 18  1  0  0  0
 17 47  1  0  0  0
 17 48  1  0  0  0
 18 19  2  0  0  0
 18 25  1  0  0  0
 19 20  1  0  0  0
 20 21  1  0  0  0
 20 22  2  0  0  0
 21 49  1  0  0  0
 21 50  1  0  0  0
 22 23  1  0  0  0
 23 24  1  0  0  0
 23 25  2  0  0  0
 24 51  1  0  0  0
 24 52  1  0  0  0
 24 53  1  0  0  0
 25 26  1  0  0  0
 26 27  2  0  0  0
 26 28  1  0  0  0
 28 29  1  0  0  0
 28 54  1  0  0  0
 29 30  1  0  0  0
 30 31  1  0  0  0
 30 36  1  0  0  0
 30 55  1  0  0  0
 31 32  1  0  0  0
 31 56  1  0  0  0
 31 57  1  0  0  0
 32 33  1  0  0  0
 32 34  1  0  0  0
 32 58  1  0  0  0
 33 59  1  0  0  0
 34 35  1  0  0  0
 34 36  1  0  0  0
 34 60  1  0  0  0
 35 61  1  0  0  0
 36 62  1  0  0  0
 36 63  1  0  0  0
M  END
> <s_m_entry_id>
4698

> <s_m_entry_name>
dock_pv.17

> <s_m_Source_Path>
/home/csk/Desktop/cluster/DUD-E-result/hs90a

> <s_m_Source_File>
dock_pv.maegz

> <i_m_Source_File_Index>
17

> <chembl_id>
CHEMBL3675262

> <chembl_pref_name>
None

> <i_lp_mmshare_version>
53161

> <r_lp_tautomer_probability>
1

> <s_lp_Force_Field>
OPLS_2005

> <r_lp_Energy>
45.563985

> <b_lp_Chiralities_Consistent>
1

> <s_lp_Variant>
CHEMBL3880_lig447-1

> <s_i_glide_gridfile>
glide-grid_1uyg

> <i_i_glide_lignum>
490

> <i_i_glide_rotatable_bonds>
8

> <r_i_docking_score>
-9.63893651444195

> <r_i_glide_ligand_efficiency>
-0.267748236512277

> <r_i_glide_ligand_efficiency_sa>
-0.884085196927324

> <r_i_glide_ligand_efficiency_ln>
-2.10295553348116

> <r_i_glide_gscore>
-9.63893651444195

> <r_i_glide_lipo>
-4.6732023374568

> <r_i_glide_hbond>
-0.16

> <r_i_glide_metal>
0

> <r_i_glide_rewards>
-1.29143988474438

> <r_i_glide_evdw>
-53.1017875671387

> <r_i_glide_ecoul>
-8.29130554199219

> <r_i_glide_erotb>
0.416666747854331

> <r_i_glide_esite>
-0.03217583043935

> <r_i_glide_emodel>
-94.1788582198324

> <r_i_glide_energy>
-61.3930931091309

> <r_i_glide_einternal>
6.97604846954346

> <i_i_glide_confnum>
198

> <i_i_glide_posenum>
373

> <r_i_glide_eff_state_penalty>
0

> <s_user_duplicate_titles>
CHEMBL3880_lig447

> <i_f3d_flags>
0

> <s_m_subgroup_title>
dock_pv

> <s_m_subgroupid>
dock_pv

> <b_m_subgroup_collapsed>
1

$$$$
CHEMBL3880_lig179
                    3D
 Schrodinger Suite 2021-1.
 68 71  0  0  1  0            999 V2000
    0.2892    8.3541   25.5347 C   0  0  0  0  0  0
    1.0717    7.1096   26.0331 C   0  0  0  0  0  0
    4.1399   11.7970   23.6479 N   0  0  0  0  0  0
    2.6060    7.2780   25.8846 C   0  0  0  0  0  0
    5.0432   10.8527   23.1888 C   0  0  0  0  0  0
    4.5722    9.5598   22.5044 C   0  0  0  0  0  0
    4.4413    7.9563   24.5565 C   0  0  0  0  0  0
    5.0387    8.2489   23.1712 C   0  0  0  0  0  0
    2.3415   10.8119   24.8884 C   0  0  0  0  0  0
    0.9886   10.5965   25.1305 C   0  0  0  0  0  0
    0.0157   11.2871   24.3688 C   0  0  0  0  0  0
    0.4555   12.0748   23.2876 C   0  0  0  0  0  0
    1.8137   12.2072   23.0014 C   0  0  0  0  0  0
    2.7594   11.6085   23.8282 C   0  0  0  0  0  0
   -1.4537   11.2691   24.7405 C   0  0  0  0  0  0
   -1.8220   11.1668   25.9079 O   0  0  0  0  0  0
    0.7551    6.8664   27.5296 C   0  0  0  0  0  0
    0.5822    5.8795   25.2308 C   0  0  0  0  0  0
    6.3354   11.3386   23.4386 C   0  0  0  0  0  0
    6.1868   12.6429   23.9670 C   0  0  0  0  0  0
    4.8312   12.9422   23.9786 C   0  0  0  0  0  0
    4.1976   14.2478   24.4624 C   0  0  0  0  0  0
    5.2082   15.1168   25.2801 C   0  0  0  0  0  0
    6.6950   14.9753   24.8332 C   0  0  0  0  0  0
    7.1957   13.5619   24.5053 C   0  0  0  0  0  0
    7.6326   10.6320   23.0978 C   0  0  0  0  0  0
    8.3462   13.2193   24.7671 O   0  0  0  0  0  0
    4.8646   16.5818   25.1612 C   0  0  0  0  0  0
    5.0402   14.7658   26.7420 C   0  0  0  0  0  0
    0.6824    9.6404   26.1095 N   0  0  0  0  0  0
    3.0455    7.5499   24.5162 N   0  0  2  0  0  0
   -2.3385   11.4651   23.7632 N   0  0  0  0  0  0
    0.2789    8.3774   24.4416 H   0  0  0  0  0  0
   -0.7373    8.2111   25.8418 H   0  0  0  0  0  0
    3.0980    6.3642   26.2218 H   0  0  0  0  0  0
    2.9342    8.0699   26.5601 H   0  0  0  0  0  0
    4.9529    9.5610   21.4818 H   0  0  0  0  0  0
    3.4887    9.5194   22.3819 H   0  0  0  0  0  0
    5.0421    7.1938   25.0572 H   0  0  0  0  0  0
    4.4703    8.8618   25.1572 H   0  0  0  0  0  0
    6.1237    8.2675   23.2640 H   0  0  0  0  0  0
    4.8256    7.4077   22.5084 H   0  0  0  0  0  0
    3.0709   10.3462   25.5320 H   0  0  0  0  0  0
   -0.2485   12.6115   22.6670 H   0  0  0  0  0  0
    2.1280   12.7799   22.1482 H   0  0  0  0  0  0
    1.2522    5.9734   27.9079 H   0  0  0  0  0  0
    1.0766    7.7027   28.1506 H   0  0  0  0  0  0
   -0.3158    6.7310   27.6936 H   0  0  0  0  0  0
    1.1097    4.9771   25.5351 H   0  0  0  0  0  0
   -0.4872    5.7057   25.3749 H   0  0  0  0  0  0
    0.7487    5.9991   24.1590 H   0  0  0  0  0  0
    3.2630   14.0888   25.0045 H   0  0  0  0  0  0
    3.9159   14.7801   23.5671 H   0  0  0  0  0  0
    7.3708   15.4076   25.5729 H   0  0  0  0  0  0
    6.8601   15.5450   23.9247 H   0  0  0  0  0  0
    8.4218   11.3309   22.8202 H   0  0  0  0  0  0
    8.0025   10.0394   23.9352 H   0  0  0  0  0  0
    7.5231    9.9680   22.2397 H   0  0  0  0  0  0
    5.5566   17.1513   25.7613 H   0  0  0  0  0  0
    4.9238   16.9753   24.1555 H   0  0  0  0  0  0
    3.8765   16.7845   25.5694 H   0  0  0  0  0  0
    5.9027   15.0250   27.3572 H   0  0  0  0  0  0
    4.1439   15.2191   27.1666 H   0  0  0  0  0  0
    4.8606   13.6971   26.7671 H   0  0  0  0  0  0
    1.3853    9.5355   26.8255 H   0  0  0  0  0  0
    2.4703    8.2689   24.0992 H   0  0  0  0  0  0
   -3.3228   11.5901   24.0194 H   0  0  0  0  0  0
   -2.0732   11.4515   22.7937 H   0  0  0  0  0  0
  1 30  1  0  0  0
  1  2  1  0  0  0
  1 33  1  0  0  0
  1 34  1  0  0  0
  2 17  1  0  0  0
  2 18  1  0  0  0
  2  4  1  0  0  0
  3 21  1  0  0  0
  3 14  1  0  0  0
  3  5  1  0  0  0
  4 31  1  0  0  0
  4 35  1  0  0  0
  4 36  1  0  0  0
  5  6  1  0  0  0
  5 19  2  0  0  0
  6  8  1  0  0  0
  6 37  1  0  0  0
  6 38  1  0  0  0
  7 31  1  0  0  0
  7  8  1  0  0  0
  7 39  1  0  0  0
  7 40  1  0  0  0
  8 41  1  0  0  0
  8 42  1  0  0  0
  9 10  2  0  0  0
  9 14  1  0  0  0
  9 43  1  0  0  0
 10 30  1  0  0  0
 10 11  1  0  0  0
 11 12  2  0  0  0
 11 15  1  0  0  0
 12 13  1  0  0  0
 12 44  1  0  0  0
 13 14  2  0  0  0
 13 45  1  0  0  0
 15 32  1  0  0  0
 15 16  2  0  0  0
 17 46  1  0  0  0
 17 47  1  0  0  0
 17 48  1  0  0  0
 18 49  1  0  0  0
 18 50  1  0  0  0
 18 51  1  0  0  0
 19 20  1  0  0  0
 19 26  1  0  0  0
 20 21  2  0  0  0
 20 25  1  0  0  0
 21 22  1  0  0  0
 22 23  1  0  0  0
 22 52  1  0  0  0
 22 53  1  0  0  0
 23 24  1  0  0  0
 23 28  1  0  0  0
 23 29  1  0  0  0
 24 25  1  0  0  0
 24 54  1  0  0  0
 24 55  1  0  0  0
 25 27  2  0  0  0
 26 56  1  0  0  0
 26 57  1  0  0  0
 26 58  1  0  0  0
 28 59  1  0  0  0
 28 60  1  0  0  0
 28 61  1  0  0  0
 29 62  1  0  0  0
 29 63  1  0  0  0
 29 64  1  0  0  0
 30 65  1  0  0  0
 31 66  1  0  0  0
 32 67  1  0  0  0
 32 68  1  0  0  0
M  END
> <s_m_entry_id>
4699

> <s_m_entry_name>
dock_pv.18

> <s_m_Source_Path>
/home/csk/Desktop/cluster/DUD-E-result/hs90a

> <s_m_Source_File>
dock_pv.maegz

> <i_m_Source_File_Index>
18

> <chembl_id>
CHEMBL1760600

> <chembl_pref_name>
None

> <i_lp_mmshare_version>
53161

> <r_lp_tautomer_probability>
0.99995

> <s_lp_Force_Field>
OPLS_2005

> <r_lp_Energy>
45.229547

> <b_lp_Chiralities_Consistent>
1

> <s_lp_Variant>
CHEMBL3880_lig179-1

> <s_i_glide_gridfile>
glide-grid_1uyg

> <i_i_glide_lignum>
210

> <i_i_glide_rotatable_bonds>
1

> <r_i_docking_score>
-9.63651664637682

> <r_i_glide_ligand_efficiency>
-0.301141145199276

> <r_i_glide_ligand_efficiency_sa>
-0.956063540255989

> <r_i_glide_ligand_efficiency_ln>
-2.15787875864655

> <r_i_glide_gscore>
-9.63651664637682

> <r_i_glide_lipo>
-4.65685543310891

> <r_i_glide_hbond>
-0.215520576068711

> <r_i_glide_metal>
0

> <r_i_glide_rewards>
-2.07075164843262

> <r_i_glide_evdw>
-38.1969833374023

> <r_i_glide_ecoul>
-4.9326057434082

> <r_i_glide_erotb>
0

> <r_i_glide_esite>
-0.0436489603852293

> <r_i_glide_emodel>
-51.4901989909747

> <r_i_glide_energy>
-43.1295890808105

> <r_i_glide_einternal>
0.214438393712044

> <i_i_glide_confnum>
1

> <i_i_glide_posenum>
30

> <r_i_glide_eff_state_penalty>
0

> <s_user_duplicate_titles>
CHEMBL3880_lig179

> <i_f3d_flags>
0

> <s_m_subgroup_title>
dock_pv

> <s_m_subgroupid>
dock_pv

> <b_m_subgroup_collapsed>
1

$$$$
CHEMBL3880_lig186
                    3D
 Schrodinger Suite 2021-1.
 60 63  0  0  1  0            999 V2000
    4.7180   16.6406   25.3263 C   0  0  0  0  0  0
    5.1820   15.2159   25.3274 C   0  0  0  0  0  0
    5.1727   14.7689   26.7660 C   0  0  0  0  0  0
    0.4176   12.3602   23.6423 C   0  0  0  0  0  0
    1.7723   12.5708   23.3864 C   0  0  0  0  0  0
    2.7290   11.7364   23.9664 C   0  0  0  0  0  0
    2.3140   10.7157   24.8125 C   0  0  0  0  0  0
    0.9649   10.4537   25.0317 C   0  0  0  0  0  0
   -0.0162   11.2997   24.4619 C   0  0  0  0  0  0
   -1.4914   11.1497   24.7651 C   0  0  0  0  0  0
   -2.3384   11.4917   23.7921 N   0  0  0  0  0  0
   -1.8946   10.7827   25.8657 O   0  0  0  0  0  0
    0.7180    9.2924   25.7803 N   0  0  0  0  0  0
    0.3151    8.1464   24.9638 C   0  0  0  0  0  0
    1.4024    7.6068   23.9899 C   0  0  1  0  0  0
    4.1171   11.9111   23.7679 N   0  0  0  0  0  0
    6.3188   11.4829   23.4591 C   0  0  0  0  0  0
    5.0245   10.9455   23.3494 C   0  0  0  0  0  0
    6.1769   12.7955   23.9670 C   0  0  0  0  0  0
    4.8164   13.0660   24.0305 C   0  0  0  0  0  0
    4.1847   14.3675   24.4946 C   0  0  0  0  0  0
    6.6524   15.1605   24.8109 C   0  0  0  0  0  0
    7.1861   13.7566   24.4473 C   0  0  0  0  0  0
    8.3519   13.4543   24.6905 O   0  0  0  0  0  0
    7.6120   10.7474   23.1759 C   0  0  0  0  0  0
    2.7708    7.2623   24.6337 C   0  0  0  0  0  0
    3.8868    7.2899   23.6767 N   0  0  2  0  0  0
    4.8064    8.4188   23.8455 C   0  0  0  0  0  0
    4.5580    9.5694   22.8442 C   0  0  0  0  0  0
    0.8673    6.4512   23.3751 O   0  0  0  0  0  0
    4.8625   17.1500   24.3752 H   0  0  0  0  0  0
    3.6672   16.7040   25.6132 H   0  0  0  0  0  0
    5.2612   17.1690   26.0914 H   0  0  0  0  0  0
    5.8483   13.9691   26.7670 H   0  0  0  0  0  0
    5.6151   15.4969   27.4482 H   0  0  0  0  0  0
    4.2007   14.4508   27.1467 H   0  0  0  0  0  0
   -0.2920   13.0510   23.2070 H   0  0  0  0  0  0
    2.0698   13.4014   22.7657 H   0  0  0  0  0  0
    3.0589   10.0993   25.2906 H   0  0  0  0  0  0
   -3.3376   11.5698   23.9996 H   0  0  0  0  0  0
   -2.0127   11.6783   22.8584 H   0  0  0  0  0  0
    1.4583    9.0535   26.4232 H   0  0  0  0  0  0
   -0.5424    8.4529   24.3678 H   0  0  0  0  0  0
   -0.0552    7.3557   25.6177 H   0  0  0  0  0  0
    1.5418    8.3581   23.2115 H   0  0  0  0  0  0
    3.2431   14.2276   25.0271 H   0  0  0  0  0  0
    3.9432   14.8885   23.5723 H   0  0  0  0  0  0
    7.3315   15.5739   25.5576 H   0  0  0  0  0  0
    6.7722   15.8095   23.9600 H   0  0  0  0  0  0
    7.4836    9.6681   23.1064 H   0  0  0  0  0  0
    8.0733   11.1004   22.2545 H   0  0  0  0  0  0
    8.3475   10.9120   23.9634 H   0  0  0  0  0  0
    2.7199    6.2716   25.0888 H   0  0  0  0  0  0
    2.9715    7.9257   25.4734 H   0  0  0  0  0  0
    3.5413    7.2738   22.7261 H   0  0  0  0  0  0
    5.8190    8.0397   23.6985 H   0  0  0  0  0  0
    4.7784    8.7875   24.8651 H   0  0  0  0  0  0
    3.5079    9.5977   22.5512 H   0  0  0  0  0  0
    5.0811    9.3269   21.9182 H   0  0  0  0  0  0
    1.4891    6.1022   22.7304 H   0  0  0  0  0  0
  1  2  1  0  0  0
  1 31  1  0  0  0
  1 32  1  0  0  0
  1 33  1  0  0  0
  2  3  1  0  0  0
  2 21  1  0  0  0
  2 22  1  0  0  0
  3 34  1  0  0  0
  3 35  1  0  0  0
  3 36  1  0  0  0
  4  5  2  0  0  0
  4  9  1  0  0  0
  4 37  1  0  0  0
  5  6  1  0  0  0
  5 38  1  0  0  0
  6 16  1  0  0  0
  6  7  2  0  0  0
  7  8  1  0  0  0
  7 39  1  0  0  0
  8  9  2  0  0  0
  8 13  1  0  0  0
  9 10  1  0  0  0
 10 11  1  0  0  0
 10 12  2  0  0  0
 11 40  1  0  0  0
 11 41  1  0  0  0
 13 14  1  0  0  0
 13 42  1  0  0  0
 14 15  1  0  0  0
 14 43  1  0  0  0
 14 44  1  0  0  0
 15 26  1  0  0  0
 15 30  1  0  0  0
 15 45  1  0  0  0
 16 20  1  0  0  0
 16 18  1  0  0  0
 17 19  1  0  0  0
 17 18  2  0  0  0
 17 25  1  0  0  0
 18 29  1  0  0  0
 19 20  2  0  0  0
 19 23  1  0  0  0
 20 21  1  0  0  0
 21 46  1  0  0  0
 21 47  1  0  0  0
 22 23  1  0  0  0
 22 48  1  0  0  0
 22 49  1  0  0  0
 23 24  2  0  0  0
 25 50  1  0  0  0
 25 51  1  0  0  0
 25 52  1  0  0  0
 26 27  1  0  0  0
 26 53  1  0  0  0
 26 54  1  0  0  0
 27 28  1  0  0  0
 27 55  1  0  0  0
 28 29  1  0  0  0
 28 56  1  0  0  0
 28 57  1  0  0  0
 29 58  1  0  0  0
 29 59  1  0  0  0
 30 60  1  0  0  0
M  END
> <s_m_entry_id>
4700

> <s_m_entry_name>
dock_pv.19

> <s_m_Source_Path>
/home/csk/Desktop/cluster/DUD-E-result/hs90a

> <s_m_Source_File>
dock_pv.maegz

> <i_m_Source_File_Index>
19

> <chembl_id>
CHEMBL1760606

> <chembl_pref_name>
None

> <i_lp_mmshare_version>
53161

> <r_lp_tautomer_probability>
0.99995

> <s_lp_Force_Field>
OPLS_2005

> <r_lp_Energy>
46.780274

> <b_lp_Chiralities_Consistent>
1

> <s_lp_Variant>
CHEMBL3880_lig186-1

> <s_i_glide_gridfile>
glide-grid_1uyg

> <i_i_glide_lignum>
218

> <i_i_glide_rotatable_bonds>
2

> <r_i_docking_score>
-9.58641407341016

> <r_i_glide_ligand_efficiency>
-0.319547135780339

> <r_i_glide_ligand_efficiency_sa>
-0.992907246355429

> <r_i_glide_ligand_efficiency_ln>
-2.1781377298261

> <r_i_glide_gscore>
-9.58641407341016

> <r_i_glide_lipo>
-4.34932490105077

> <r_i_glide_hbond>
-0.166397420385372

> <r_i_glide_metal>
0

> <r_i_glide_rewards>
-2.35241765263005

> <r_i_glide_evdw>
-33.5714645385742

> <r_i_glide_ecoul>
-6.61846971511841

> <r_i_glide_erotb>
0

> <r_i_glide_esite>
-0.0469304151474976

> <r_i_glide_emodel>
-49.0208019689275

> <r_i_glide_energy>
-40.1899342536926

> <r_i_glide_einternal>
0.14048607647419

> <i_i_glide_confnum>
1

> <i_i_glide_posenum>
127

> <r_i_glide_eff_state_penalty>
0

> <s_user_duplicate_titles>
CHEMBL3880_lig186

> <i_f3d_flags>
0

> <s_m_subgroup_title>
dock_pv

> <s_m_subgroupid>
dock_pv

> <b_m_subgroup_collapsed>
1

$$$$
CHEMBL3880_lig188
                    3D
 Schrodinger Suite 2021-1.
 59 62  0  0  1  0            999 V2000
    4.8613   16.5124   25.0007 C   0  0  0  0  0  0
    5.2671   15.0864   25.2655 C   0  0  0  0  0  0
    5.2163   14.9712   26.7670 C   0  0  0  0  0  0
    0.4561   12.2310   23.5413 C   0  0  0  0  0  0
    1.8188   12.3846   23.2885 C   0  0  0  0  0  0
    2.7458   11.5564   23.9212 C   0  0  0  0  0  0
    2.2921   10.5734   24.7973 C   0  0  0  0  0  0
    0.9301   10.3826   25.0320 C   0  0  0  0  0  0
   -0.0149   11.2376   24.4199 C   0  0  0  0  0  0
   -1.4923   11.1685   24.7423 C   0  0  0  0  0  0
   -2.3362   11.4614   23.7524 N   0  0  0  0  0  0
   -1.8996   10.9179   25.8737 O   0  0  0  0  0  0
    0.5974    9.3252   25.8911 N   0  0  0  0  0  0
    0.3801    8.0435   25.2264 C   0  0  0  0  0  0
    4.1389   11.7235   23.7461 N   0  0  0  0  0  0
    6.3400   11.2846   23.4315 C   0  0  0  0  0  0
    5.0431   10.7716   23.3001 C   0  0  0  0  0  0
    6.2058   12.5856   23.9669 C   0  0  0  0  0  0
    4.8461   12.8648   24.0564 C   0  0  0  0  0  0
    4.2154   14.1387   24.6069 C   0  0  0  0  0  0
    6.7357   14.9261   24.7670 C   0  0  0  0  0  0
    7.2267   13.5057   24.4813 C   0  0  0  0  0  0
    8.3734   13.1680   24.7668 O   0  0  0  0  0  0
    7.6239   10.5287   23.1526 C   0  0  0  0  0  0
    4.5691    9.4323   22.7506 C   0  0  0  0  0  0
    1.6898    7.2712   24.9416 C   0  0  0  0  0  0
    2.2137    7.4274   23.4935 C   0  0  0  0  0  0
    3.7415    7.2364   23.3394 C   0  0  0  0  0  0
    4.5031    8.4045   23.7861 N   0  0  1  0  0  0
    4.6594   16.7001   23.9670 H   0  0  0  0  0  0
    3.9905   16.8238   25.5734 H   0  0  0  0  0  0
    5.6610   17.1689   25.2752 H   0  0  0  0  0  0
    5.2610   13.9690   27.1080 H   0  0  0  0  0  0
    6.0172   15.5282   27.2575 H   0  0  0  0  0  0
    4.2710   15.3410   27.1669 H   0  0  0  0  0  0
   -0.2288   12.9202   23.0668 H   0  0  0  0  0  0
    2.1476   13.1671   22.6247 H   0  0  0  0  0  0
    3.0091    9.9397   25.2998 H   0  0  0  0  0  0
   -3.3310   11.5691   23.9676 H   0  0  0  0  0  0
   -2.0170   11.5698   22.8041 H   0  0  0  0  0  0
    1.2302    9.2285   26.6714 H   0  0  0  0  0  0
   -0.2610    7.4478   25.8773 H   0  0  0  0  0  0
   -0.2050    8.1643   24.3132 H   0  0  0  0  0  0
    3.3807   13.9323   25.2791 H   0  0  0  0  0  0
    3.7667   14.6350   23.7498 H   0  0  0  0  0  0
    7.4413   15.3877   25.4586 H   0  0  0  0  0  0
    6.8694   15.4577   23.8311 H   0  0  0  0  0  0
    7.4760    9.4495   23.1131 H   0  0  0  0  0  0
    8.0827   10.8495   22.2178 H   0  0  0  0  0  0
    8.3675   10.6959   23.9317 H   0  0  0  0  0  0
    3.6037    9.5502   22.2558 H   0  0  0  0  0  0
    5.2500    9.0828   21.9724 H   0  0  0  0  0  0
    1.5258    6.2105   25.1362 H   0  0  0  0  0  0
    2.4583    7.5675   25.6578 H   0  0  0  0  0  0
    1.9145    8.3871   23.0745 H   0  0  0  0  0  0
    1.7076    6.6881   22.8708 H   0  0  0  0  0  0
    4.0033    6.9724   22.3126 H   0  0  0  0  0  0
    4.0436    6.3832   23.9485 H   0  0  0  0  0  0
    5.4395    8.1102   24.0295 H   0  0  0  0  0  0
  1  2  1  0  0  0
  1 30  1  0  0  0
  1 31  1  0  0  0
  1 32  1  0  0  0
  2  3  1  0  0  0
  2 20  1  0  0  0
  2 21  1  0  0  0
  3 33  1  0  0  0
  3 34  1  0  0  0
  3 35  1  0  0  0
  4  5  2  0  0  0
  4  9  1  0  0  0
  4 36  1  0  0  0
  5  6  1  0  0  0
  5 37  1  0  0  0
  6 15  1  0  0  0
  6  7  2  0  0  0
  7  8  1  0  0  0
  7 38  1  0  0  0
  8  9  2  0  0  0
  8 13  1  0  0  0
  9 10  1  0  0  0
 10 11  1  0  0  0
 10 12  2  0  0  0
 11 39  1  0  0  0
 11 40  1  0  0  0
 13 14  1  0  0  0
 13 41  1  0  0  0
 14 26  1  0  0  0
 14 42  1  0  0  0
 14 43  1  0  0  0
 15 17  1  0  0  0
 15 19  1  0  0  0
 16 18  1  0  0  0
 16 17  2  0  0  0
 16 24  1  0  0  0
 17 25  1  0  0  0
 18 19  2  0  0  0
 18 22  1  0  0  0
 19 20  1  0  0  0
 20 44  1  0  0  0
 20 45  1  0  0  0
 21 22  1  0  0  0
 21 46  1  0  0  0
 21 47  1  0  0  0
 22 23  2  0  0  0
 24 48  1  0  0  0
 24 49  1  0  0  0
 24 50  1  0  0  0
 25 29  1  0  0  0
 25 51  1  0  0  0
 25 52  1  0  0  0
 26 27  1  0  0  0
 26 53  1  0  0  0
 26 54  1  0  0  0
 27 28  1  0  0  0
 27 55  1  0  0  0
 27 56  1  0  0  0
 28 29  1  0  0  0
 28 57  1  0  0  0
 28 58  1  0  0  0
 29 59  1  0  0  0
M  END
> <s_m_entry_id>
4701

> <s_m_entry_name>
dock_pv.20

> <s_m_Source_Path>
/home/csk/Desktop/cluster/DUD-E-result/hs90a

> <s_m_Source_File>
dock_pv.maegz

> <i_m_Source_File_Index>
20

> <chembl_id>
CHEMBL1760608

> <chembl_pref_name>
None

> <i_lp_mmshare_version>
53161

> <r_lp_tautomer_probability>
0.99995

> <s_lp_Force_Field>
OPLS_2005

> <r_lp_Energy>
38.523582

> <b_lp_Chiralities_Consistent>
1

> <s_lp_Variant>
CHEMBL3880_lig188-1

> <s_i_glide_gridfile>
glide-grid_1uyg

> <i_i_glide_lignum>
221

> <i_i_glide_rotatable_bonds>
1

> <r_i_docking_score>
-9.58433117544478

> <r_i_glide_ligand_efficiency>
-0.330494178463613

> <r_i_glide_ligand_efficiency_sa>
-1.01538282414528

> <r_i_glide_ligand_efficiency_ln>
-2.19456880150811

> <r_i_glide_gscore>
-9.58433117544478

> <r_i_glide_lipo>
-4.29393993893434

> <r_i_glide_hbond>
-0.160279218052193

> <r_i_glide_metal>
0

> <r_i_glide_rewards>
-2.43890110981172

> <r_i_glide_evdw>
-35.4685325622559

> <r_i_glide_ecoul>
-5.83592748641968

> <r_i_glide_erotb>
0

> <r_i_glide_esite>
-0.0423951575707913

> <r_i_glide_emodel>
-43.3107614317921

> <r_i_glide_energy>
-41.3044600486755

> <r_i_glide_einternal>
0.446035087108612

> <i_i_glide_confnum>
1

> <i_i_glide_posenum>
12

> <r_i_glide_eff_state_penalty>
0

> <s_user_duplicate_titles>
CHEMBL3880_lig188

> <i_f3d_flags>
0

> <s_m_subgroup_title>
dock_pv

> <s_m_subgroupid>
dock_pv

> <b_m_subgroup_collapsed>
1

$$$$
CHEMBL3880_lig322
                    3D
 Schrodinger Suite 2021-1.
 58 62  0  0  1  0            999 V2000
    2.6302    8.4334   23.7168 C   0  0  0  0  0  0
    3.8425    7.7886   23.5078 C   0  0  0  0  0  0
    5.0052    8.5204   23.2729 C   0  0  0  0  0  0
    4.9696    9.9333   23.1837 C   0  0  0  0  0  0
    3.7134   10.5485   23.3064 C   0  0  0  0  0  0
    2.5703    9.8317   23.6511 C   0  0  0  0  0  0
    1.5159    7.6675   23.9399 O   0  0  0  0  0  0
    6.1612    7.7911   23.1681 O   0  0  0  0  0  0
    6.2466   10.7455   22.9691 C   0  0  0  0  0  0
    7.2205   10.1943   22.4492 O   0  0  0  0  0  0
    1.3949   10.5487   23.9668 N   0  0  0  0  0  0
   -0.3824   11.9425   23.6738 C   0  0  0  0  0  0
    0.8603   11.5694   23.2071 C   0  0  0  0  0  0
   -0.5752   11.1736   24.8650 C   0  0  0  0  0  0
    0.5776   10.3656   25.0733 C   0  0  0  0  0  0
    0.7223    9.5748   26.2242 C   0  0  0  0  0  0
   -0.3037    9.6289   27.1678 C   0  0  0  0  0  0
   -1.4632   10.3699   26.9653 C   0  0  0  0  0  0
   -1.6198   11.1003   25.7859 C   0  0  0  0  0  0
    6.3518   12.0450   23.3779 N   0  0  0  0  0  0
    5.3493   12.9445   23.9661 C   0  0  0  0  0  0
    7.6612   12.6961   23.4080 C   0  0  0  0  0  0
    7.5152   13.6931   24.5249 C   0  0  0  0  0  0
    6.1685   13.9065   24.7671 C   0  0  0  0  0  0
    5.7500   14.7712   25.7732 C   0  0  0  0  0  0
    6.7059   15.3510   26.6000 C   0  0  0  0  0  0
    8.0680   15.1338   26.3721 C   0  0  0  0  0  0
    8.4779   14.3231   25.3141 C   0  0  0  0  0  0
   -1.3478   12.9538   23.0961 C   0  0  0  0  0  0
   -1.7424   12.6262   21.6492 C   0  0  0  0  0  0
   -2.7334   13.5690   21.1676 N   0  0  0  0  0  0
   -2.4087   10.3589   27.9671 O   0  0  0  0  0  0
   -3.7451   10.7391   27.6523 C   0  0  0  0  0  0
    3.8868    6.7105   23.5585 H   0  0  0  0  0  0
    3.5808   11.6024   23.1473 H   0  0  0  0  0  0
    1.6787    6.7290   23.8237 H   0  0  0  0  0  0
    6.0089    6.8514   23.0543 H   0  0  0  0  0  0
    1.3794   11.8979   22.3200 H   0  0  0  0  0  0
    1.6022    8.9713   26.3953 H   0  0  0  0  0  0
   -0.2049    9.0661   28.0851 H   0  0  0  0  0  0
   -2.5326   11.6278   25.5806 H   0  0  0  0  0  0
    4.6811   12.4174   24.6465 H   0  0  0  0  0  0
    4.7571   13.4492   23.2030 H   0  0  0  0  0  0
    7.8752   13.1695   22.4536 H   0  0  0  0  0  0
    8.4604   11.9789   23.6137 H   0  0  0  0  0  0
    4.7016   14.9176   25.9873 H   0  0  0  0  0  0
    6.3879   15.9689   27.4262 H   0  0  0  0  0  0
    8.8041   15.5688   27.0306 H   0  0  0  0  0  0
    9.5318   14.1459   25.1640 H   0  0  0  0  0  0
   -2.2556   13.0019   23.6997 H   0  0  0  0  0  0
   -0.9035   13.9435   23.1677 H   0  0  0  0  0  0
   -0.8749   12.6427   20.9887 H   0  0  0  0  0  0
   -2.1673   11.6219   21.5994 H   0  0  0  0  0  0
   -3.1764   13.1332   20.3676 H   0  0  0  0  0  0
   -3.4748   13.6318   21.8539 H   0  0  0  0  0  0
   -4.4230   10.2819   28.3676 H   0  0  0  0  0  0
   -3.9389   11.8085   27.6845 H   0  0  0  0  0  0
   -4.0168   10.3691   26.6670 H   0  0  0  0  0  0
  1  2  2  0  0  0
  1  6  1  0  0  0
  1  7  1  0  0  0
  2  3  1  0  0  0
  2 34  1  0  0  0
  3  4  2  0  0  0
  3  8  1  0  0  0
  4  5  1  0  0  0
  4  9  1  0  0  0
  5  6  2  0  0  0
  5 35  1  0  0  0
  6 11  1  0  0  0
  7 36  1  0  0  0
  8 37  1  0  0  0
  9 10  2  0  0  0
  9 20  1  0  0  0
 11 15  1  0  0  0
 11 13  1  0  0  0
 12 14  1  0  0  0
 12 13  2  0  0  0
 12 29  1  0  0  0
 13 38  1  0  0  0
 14 15  2  0  0  0
 14 19  1  0  0  0
 15 16  1  0  0  0
 16 17  2  0  0  0
 16 39  1  0  0  0
 17 18  1  0  0  0
 17 40  1  0  0  0
 18 19  2  0  0  0
 18 32  1  0  0  0
 19 41  1  0  0  0
 20 21  1  0  0  0
 20 22  1  0  0  0
 21 24  1  0  0  0
 21 42  1  0  0  0
 21 43  1  0  0  0
 22 23  1  0  0  0
 22 44  1  0  0  0
 22 45  1  0  0  0
 23 24  2  0  0  0
 23 28  1  0  0  0
 24 25  1  0  0  0
 25 26  2  0  0  0
 25 46  1  0  0  0
 26 27  1  0  0  0
 26 47  1  0  0  0
 27 28  2  0  0  0
 27 48  1  0  0  0
 28 49  1  0  0  0
 29 30  1  0  0  0
 29 50  1  0  0  0
 29 51  1  0  0  0
 30 31  1  0  0  0
 30 52  1  0  0  0
 30 53  1  0  0  0
 31 54  1  0  0  0
 31 55  1  0  0  0
 32 33  1  0  0  0
 33 56  1  0  0  0
 33 57  1  0  0  0
 33 58  1  0  0  0
M  END
> <s_m_entry_id>
4702

> <s_m_entry_name>
dock_pv.21

> <s_m_Source_Path>
/home/csk/Desktop/cluster/DUD-E-result/hs90a

> <s_m_Source_File>
dock_pv.maegz

> <i_m_Source_File_Index>
21

> <chembl_id>
CHEMBL3260483

> <chembl_pref_name>
None

> <i_lp_mmshare_version>
53161

> <r_lp_tautomer_probability>
1

> <s_lp_Force_Field>
OPLS_2005

> <r_lp_Energy>
44.582237

> <b_lp_Chiralities_Consistent>
1

> <s_lp_Variant>
CHEMBL3880_lig322-1

> <s_i_glide_gridfile>
glide-grid_1uyg

> <i_i_glide_lignum>
359

> <i_i_glide_rotatable_bonds>
8

> <r_i_docking_score>
-9.57930477987401

> <r_i_glide_ligand_efficiency>
-0.290281963026485

> <r_i_glide_ligand_efficiency_sa>
-0.931089360700844

> <r_i_glide_ligand_efficiency_ln>
-2.13038778405831

> <r_i_glide_gscore>
-9.57930477987401

> <r_i_glide_lipo>
-4.85954367142743

> <r_i_glide_hbond>
-0.170760491992758

> <r_i_glide_metal>
0

> <r_i_glide_rewards>
-1.93484408468165

> <r_i_glide_evdw>
-49.9106254577637

> <r_i_glide_ecoul>
-3.50134873390198

> <r_i_glide_erotb>
0.406577051201302

> <r_i_glide_esite>
0

> <r_i_glide_emodel>
-73.8337513901467

> <r_i_glide_energy>
-53.4119741916656

> <r_i_glide_einternal>
10.8946189880371

> <i_i_glide_confnum>
21

> <i_i_glide_posenum>
183

> <r_i_glide_eff_state_penalty>
0

> <s_user_duplicate_titles>
CHEMBL3880_lig322

> <i_f3d_flags>
0

> <s_m_subgroup_title>
dock_pv

> <s_m_subgroupid>
dock_pv

> <b_m_subgroup_collapsed>
1

$$$$
CHEMBL3880_lig453
                    3D
 Schrodinger Suite 2021-1.
 61 64  0  0  1  0            999 V2000
    9.4459   14.3252   25.9986 C   0  0  0  0  0  0
    8.2955   15.1522   26.1507 O   0  0  0  0  0  0
    7.1062   14.7836   25.5486 C   0  0  0  0  0  0
    5.9767   15.5624   25.7826 C   0  0  0  0  0  0
    4.7790   15.2136   25.1677 C   0  0  0  0  0  0
    4.7285   14.0748   24.3670 C   0  0  0  0  0  0
    5.8678   13.2659   24.2340 C   0  0  0  0  0  0
    7.0593   13.6671   24.7687 N   0  0  0  0  0  0
    5.8889   11.9090   23.5671 C   0  0  0  0  0  0
    7.0956   11.5029   22.9606 C   0  0  0  0  0  0
    7.2616   10.2417   22.4048 C   0  0  0  0  0  0
    8.4581    9.8797   21.8937 F   0  0  0  0  0  0
    6.2027    9.3505   22.3939 C   0  0  0  0  0  0
    4.9920    9.7157   22.9670 C   0  0  0  0  0  0
    4.8144   10.9673   23.5821 C   0  0  0  0  0  0
    3.4413   11.2012   24.2546 C   0  0  1  0  0  0
    2.3382   11.4825   23.1712 C   0  0  0  0  0  0
    0.9380   11.4311   23.7748 C   0  0  0  0  0  0
   -0.0534   12.1801   23.2142 N   0  0  0  0  0  0
   -1.2796   12.0936   23.7823 C   0  0  0  0  0  0
   -2.3388   12.7481   23.1675 N   0  0  0  0  0  0
   -1.5731   11.4157   24.9104 N   0  0  0  0  0  0
   -0.5675   10.7179   25.4923 C   0  0  0  0  0  0
   -0.9510   10.1399   26.8471 C   0  0  0  0  0  0
    0.7218   10.6315   24.9155 C   0  0  0  0  0  0
    1.8788    9.8451   25.4144 C   0  0  0  0  0  0
    3.1085   10.0864   25.1545 N   0  0  0  0  0  0
    1.5769    8.6849   26.1766 N   0  0  0  0  0  0
    2.0442    8.7721   27.5273 O   0  0  0  0  0  0
    2.3207    7.4724   28.0278 C   0  0  0  0  0  0
    2.7552    7.5974   29.5002 C   0  0  0  0  0  0
    1.6243    8.0261   30.4664 C   0  0  0  0  0  0
    0.7277    6.8947   30.9969 C   0  0  0  0  0  0
    1.4952    5.9698   31.7398 O   0  0  0  0  0  0
   10.2695   14.7417   26.5784 H   0  0  0  0  0  0
    9.2647   13.3124   26.3614 H   0  0  0  0  0  0
    9.7606   14.2781   24.9562 H   0  0  0  0  0  0
    6.0345   16.4235   26.4270 H   0  0  0  0  0  0
    3.8938   15.8127   25.3122 H   0  0  0  0  0  0
    3.8015   13.8359   23.8728 H   0  0  0  0  0  0
    7.9494   12.1638   22.9395 H   0  0  0  0  0  0
    6.3279    8.3691   21.9637 H   0  0  0  0  0  0
    4.1873    8.9939   22.9640 H   0  0  0  0  0  0
    3.5245   12.0405   24.9359 H   0  0  0  0  0  0
    2.3835   10.7074   22.4051 H   0  0  0  0  0  0
    2.5101   12.4268   22.6551 H   0  0  0  0  0  0
   -3.2723   12.6174   23.5664 H   0  0  0  0  0  0
   -2.2055   13.1928   22.2739 H   0  0  0  0  0  0
   -0.1609   10.3373   27.5677 H   0  0  0  0  0  0
   -1.8629   10.5903   27.2438 H   0  0  0  0  0  0
   -1.1170    9.0684   26.7901 H   0  0  0  0  0  0
    0.5874    8.5300   26.2881 H   0  0  0  0  0  0
    3.1305    7.0257   27.4474 H   0  0  0  0  0  0
    1.4517    6.8161   27.9436 H   0  0  0  0  0  0
    3.5697    8.3220   29.5655 H   0  0  0  0  0  0
    3.1951    6.6571   29.8332 H   0  0  0  0  0  0
    0.9908    8.7704   29.9844 H   0  0  0  0  0  0
    2.0606    8.5441   31.3186 H   0  0  0  0  0  0
    0.2690    6.3514   30.1701 H   0  0  0  0  0  0
   -0.0686    7.2972   31.6238 H   0  0  0  0  0  0
    1.9976    6.4717   32.3916 H   0  0  0  0  0  0
  1  2  1  0  0  0
  1 35  1  0  0  0
  1 36  1  0  0  0
  1 37  1  0  0  0
  2  3  1  0  0  0
  3  4  2  0  0  0
  3  8  1  0  0  0
  4  5  1  0  0  0
  4 38  1  0  0  0
  5  6  2  0  0  0
  5 39  1  0  0  0
  6  7  1  0  0  0
  6 40  1  0  0  0
  7  8  2  0  0  0
  7  9  1  0  0  0
  9 10  2  0  0  0
  9 15  1  0  0  0
 10 11  1  0  0  0
 10 41  1  0  0  0
 11 12  1  0  0  0
 11 13  2  0  0  0
 13 14  1  0  0  0
 13 42  1  0  0  0
 14 15  2  0  0  0
 14 43  1  0  0  0
 15 16  1  0  0  0
 16 17  1  0  0  0
 16 27  1  0  0  0
 16 44  1  0  0  0
 17 18  1  0  0  0
 17 45  1  0  0  0
 17 46  1  0  0  0
 18 19  2  0  0  0
 18 25  1  0  0  0
 19 20  1  0  0  0
 20 21  1  0  0  0
 20 22  2  0  0  0
 21 47  1  0  0  0
 21 48  1  0  0  0
 22 23  1  0  0  0
 23 24  1  0  0  0
 23 25  2  0  0  0
 24 49  1  0  0  0
 24 50  1  0  0  0
 24 51  1  0  0  0
 25 26  1  0  0  0
 26 27  2  0  0  0
 26 28  1  0  0  0
 28 29  1  0  0  0
 28 52  1  0  0  0
 29 30  1  0  0  0
 30 31  1  0  0  0
 30 53  1  0  0  0
 30 54  1  0  0  0
 31 32  1  0  0  0
 31 55  1  0  0  0
 31 56  1  0  0  0
 32 33  1  0  0  0
 32 57  1  0  0  0
 32 58  1  0  0  0
 33 34  1  0  0  0
 33 59  1  0  0  0
 33 60  1  0  0  0
 34 61  1  0  0  0
M  END
> <s_m_entry_id>
4703

> <s_m_entry_name>
dock_pv.22

> <s_m_Source_Path>
/home/csk/Desktop/cluster/DUD-E-result/hs90a

> <s_m_Source_File>
dock_pv.maegz

> <i_m_Source_File_Index>
22

> <chembl_id>
CHEMBL3675268

> <chembl_pref_name>
None

> <i_lp_mmshare_version>
53161

> <r_lp_tautomer_probability>
1

> <s_lp_Force_Field>
OPLS_2005

> <r_lp_Energy>
16.33935

> <b_lp_Chiralities_Consistent>
1

> <s_lp_Variant>
CHEMBL3880_lig453-1

> <s_i_glide_gridfile>
glide-grid_1uyg

> <i_i_glide_lignum>
499

> <i_i_glide_rotatable_bonds>
10

> <r_i_docking_score>
-9.55951918521102

> <r_i_glide_ligand_efficiency>
-0.281162328976795

> <r_i_glide_ligand_efficiency_sa>
-0.910856797957217

> <r_i_glide_ligand_efficiency_ln>
-2.11196592344391

> <r_i_glide_gscore>
-9.55951918521102

> <r_i_glide_lipo>
-4.62063469511961

> <r_i_glide_hbond>
-0.32

> <r_i_glide_metal>
0

> <r_i_glide_rewards>
-1.44690604020021

> <r_i_glide_evdw>
-54.4562606811523

> <r_i_glide_ecoul>
-7.71315956115723

> <r_i_glide_erotb>
0.741636263718675

> <r_i_glide_esite>
-0.0338277453786779

> <r_i_glide_emodel>
-91.0035581292385

> <r_i_glide_energy>
-62.1694202423096

> <r_i_glide_einternal>
8.462721824646

> <i_i_glide_confnum>
44

> <i_i_glide_posenum>
303

> <r_i_glide_eff_state_penalty>
0

> <s_user_duplicate_titles>
CHEMBL3880_lig453

> <i_f3d_flags>
0

> <s_m_subgroup_title>
dock_pv

> <s_m_subgroupid>
dock_pv

> <b_m_subgroup_collapsed>
1

$$$$
CHEMBL3880_lig447
                    3D
 Schrodinger Suite 2021-1.
 63 67  0  0  1  0            999 V2000
    9.4638   14.2990   26.0100 C   0  0  0  0  0  0
    8.3162   15.1276   26.1717 O   0  0  0  0  0  0
    7.1275   14.7728   25.5604 C   0  0  0  0  0  0
    6.0035   15.5604   25.7931 C   0  0  0  0  0  0
    4.8070   15.2306   25.1673 C   0  0  0  0  0  0
    4.7489   14.0914   24.3671 C   0  0  0  0  0  0
    5.8814   13.2719   24.2357 C   0  0  0  0  0  0
    7.0749   13.6607   24.7729 N   0  0  0  0  0  0
    5.8951   11.9158   23.5669 C   0  0  0  0  0  0
    7.0960   11.5052   22.9517 C   0  0  0  0  0  0
    7.2532   10.2439   22.3919 C   0  0  0  0  0  0
    8.4424    9.8788   21.8661 F   0  0  0  0  0  0
    6.1918    9.3551   22.3918 C   0  0  0  0  0  0
    4.9866    9.7247   22.9735 C   0  0  0  0  0  0
    4.8167   10.9790   23.5861 C   0  0  0  0  0  0
    3.4470   11.2233   24.2601 C   0  0  1  0  0  0
    2.3411   11.5027   23.1803 C   0  0  0  0  0  0
    0.9441   11.4688   23.7926 C   0  0  0  0  0  0
   -0.0471   12.2095   23.2202 N   0  0  0  0  0  0
   -1.2739   12.1300   23.7884 C   0  0  0  0  0  0
   -2.3350   12.7755   23.1668 N   0  0  0  0  0  0
   -1.5679   11.4654   24.9237 N   0  0  0  0  0  0
   -0.5640   10.7757   25.5160 C   0  0  0  0  0  0
   -0.9632   10.1920   26.8632 C   0  0  0  0  0  0
    0.7292   10.6878   24.9467 C   0  0  0  0  0  0
    1.8831    9.8976   25.4503 C   0  0  0  0  0  0
    3.1124   10.1187   25.1687 N   0  0  0  0  0  0
    1.5592    8.7816   26.2694 N   0  0  0  0  0  0
    2.3017    8.7014   27.5012 O   0  0  0  0  0  0
    2.2544    7.3628   27.9909 C   0  0  1  0  0  0
    3.2974    7.1475   29.1011 C   0  0  0  0  0  0
    2.6300    6.1534   30.0566 C   0  0  1  0  0  0
    3.2684    5.9747   31.3076 O   0  0  0  0  0  0
    1.1349    6.5245   30.0466 C   0  0  1  0  0  0
    0.8609    7.5426   30.9945 O   0  0  0  0  0  0
    0.8790    6.9962   28.6036 C   0  0  0  0  0  0
   10.2860   14.7023   26.6019 H   0  0  0  0  0  0
    9.2774   13.2800   26.3519 H   0  0  0  0  0  0
    9.7846   14.2716   24.9682 H   0  0  0  0  0  0
    6.0605   16.4171   26.4439 H   0  0  0  0  0  0
    3.9322   15.8474   25.3056 H   0  0  0  0  0  0
    3.8224   13.8617   23.8675 H   0  0  0  0  0  0
    7.9522   12.1632   22.9245 H   0  0  0  0  0  0
    6.3104    8.3715   21.9629 H   0  0  0  0  0  0
    4.1786    9.0062   22.9779 H   0  0  0  0  0  0
    3.5351   12.0669   24.9347 H   0  0  0  0  0  0
    2.5180   12.4417   22.6563 H   0  0  0  0  0  0
    2.3748   10.7206   22.4210 H   0  0  0  0  0  0
   -3.2675   12.6442   23.5680 H   0  0  0  0  0  0
   -2.2034   13.2118   22.2686 H   0  0  0  0  0  0
   -0.1766   10.3684   27.5924 H   0  0  0  0  0  0
   -1.8740   10.6461   27.2584 H   0  0  0  0  0  0
   -1.1385    9.1232   26.7858 H   0  0  0  0  0  0
    0.5988    8.7916   26.5709 H   0  0  0  0  0  0
    2.5091    6.6868   27.1685 H   0  0  0  0  0  0
    3.5534    8.0760   29.6151 H   0  0  0  0  0  0
    4.2306    6.7397   28.7106 H   0  0  0  0  0  0
    2.7321    5.1812   29.5707 H   0  0  0  0  0  0
    3.6738    6.8173   31.5672 H   0  0  0  0  0  0
    0.4987    5.6646   30.2574 H   0  0  0  0  0  0
    0.9641    8.4048   30.5831 H   0  0  0  0  0  0
    0.4436    6.1869   28.0158 H   0  0  0  0  0  0
    0.1626    7.8200   28.5898 H   0  0  0  0  0  0
  1  2  1  0  0  0
  1 37  1  0  0  0
  1 38  1  0  0  0
  1 39  1  0  0  0
  2  3  1  0  0  0
  3  4  2  0  0  0
  3  8  1  0  0  0
  4  5  1  0  0  0
  4 40  1  0  0  0
  5  6  2  0  0  0
  5 41  1  0  0  0
  6  7  1  0  0  0
  6 42  1  0  0  0
  7  8  2  0  0  0
  7  9  1  0  0  0
  9 10  2  0  0  0
  9 15  1  0  0  0
 10 11  1  0  0  0
 10 43  1  0  0  0
 11 12  1  0  0  0
 11 13  2  0  0  0
 13 14  1  0  0  0
 13 44  1  0  0  0
 14 15  2  0  0  0
 14 45  1  0  0  0
 15 16  1  0  0  0
 16 17  1  0  0  0
 16 27  1  0  0  0
 16 46  1  0  0  0
 17 18  1  0  0  0
 17 47  1  0  0  0
 17 48  1  0  0  0
 18 19  2  0  0  0
 18 25  1  0  0  0
 19 20  1  0  0  0
 20 21  1  0  0  0
 20 22  2  0  0  0
 21 49  1  0  0  0
 21 50  1  0  0  0
 22 23  1  0  0  0
 23 24  1  0  0  0
 23 25  2  0  0  0
 24 51  1  0  0  0
 24 52  1  0  0  0
 24 53  1  0  0  0
 25 26  1  0  0  0
 26 27  2  0  0  0
 26 28  1  0  0  0
 28 29  1  0  0  0
 28 54  1  0  0  0
 29 30  1  0  0  0
 30 31  1  0  0  0
 30 36  1  0  0  0
 30 55  1  0  0  0
 31 32  1  0  0  0
 31 56  1  0  0  0
 31 57  1  0  0  0
 32 33  1  0  0  0
 32 34  1  0  0  0
 32 58  1  0  0  0
 33 59  1  0  0  0
 34 35  1  0  0  0
 34 36  1  0  0  0
 34 60  1  0  0  0
 35 61  1  0  0  0
 36 62  1  0  0  0
 36 63  1  0  0  0
M  END
> <s_m_entry_id>
4704

> <s_m_entry_name>
dock_pv.23

> <s_m_Source_Path>
/home/csk/Desktop/cluster/DUD-E-result/hs90a

> <s_m_Source_File>
dock_pv.maegz

> <i_m_Source_File_Index>
23

> <chembl_id>
CHEMBL3675262

> <chembl_pref_name>
None

> <i_lp_mmshare_version>
53161

> <r_lp_tautomer_probability>
1

> <s_lp_Force_Field>
OPLS_2005

> <r_lp_Energy>
49.378363

> <b_lp_Chiralities_Consistent>
1

> <s_lp_Variant>
CHEMBL3880_lig447-2

> <s_i_glide_gridfile>
glide-grid_1uyg

> <i_i_glide_lignum>
491

> <i_i_glide_rotatable_bonds>
8

> <r_i_docking_score>
-9.52873814543074

> <r_i_glide_ligand_efficiency>
-0.26468717070641

> <r_i_glide_ligand_efficiency_sa>
-0.873977780344345

> <r_i_glide_ligand_efficiency_ln>
-2.07891322657878

> <r_i_glide_gscore>
-9.52873814543074

> <r_i_glide_lipo>
-4.69949603093091

> <r_i_glide_hbond>
-0.153294155134226

> <r_i_glide_metal>
0

> <r_i_glide_rewards>
-1.23781150145628

> <r_i_glide_evdw>
-55.7830085754395

> <r_i_glide_ecoul>
-6.88520240783691

> <r_i_glide_erotb>
0.416666747854331

> <r_i_glide_esite>
-0.0328724158161451

> <r_i_glide_emodel>
-90.7107268494113

> <r_i_glide_energy>
-62.6682109832764

> <r_i_glide_einternal>
10.3597784042358

> <i_i_glide_confnum>
242

> <i_i_glide_posenum>
154

> <r_i_glide_eff_state_penalty>
0

> <s_user_duplicate_titles>
CHEMBL3880_lig447

> <i_f3d_flags>
0

> <s_m_subgroup_title>
dock_pv

> <s_m_subgroupid>
dock_pv

> <b_m_subgroup_collapsed>
1

$$$$
CHEMBL3880_lig44
                    3D
 Schrodinger Suite 2021-1.
 34 36  0  0  1  0            999 V2000
   10.3353   14.3692   25.1673 O   0  0  0  0  0  0
    9.6195   15.2111   27.1634 O   0  0  0  0  0  0
    3.9466   13.7205   24.4647 N   0  0  0  0  0  0
    3.1187   14.7690   24.3670 N   0  0  0  0  0  0
    3.8692   11.2920   24.3711 N   0  0  0  0  0  0
    3.2673   12.5206   24.2985 C   0  0  0  0  0  0
    1.9275   12.8719   24.1270 C   0  0  0  0  0  0
    5.3033   13.9714   24.7877 C   0  0  0  0  0  0
    0.6882   12.0480   24.1112 C   0  0  0  0  0  0
    1.9483   14.2661   24.0794 C   0  0  0  0  0  0
    6.3395   13.3169   24.1169 C   0  0  0  0  0  0
    5.6043   14.8726   25.8176 C   0  0  0  0  0  0
    7.9693   14.4229   25.5483 C   0  0  0  0  0  0
    7.6608   13.5481   24.4942 C   0  0  0  0  0  0
    6.9240   15.0955   26.1958 C   0  0  0  0  0  0
    0.5261   11.0289   25.0540 C   0  0  0  0  0  0
   -0.3684   12.3856   23.2604 C   0  0  0  0  0  0
    9.4124   14.6627   25.9283 C   0  0  0  0  0  0
   -0.7038   10.3894   25.1831 C   0  0  0  0  0  0
   -1.5977   11.7476   23.3910 C   0  0  0  0  0  0
   -1.7665   10.7692   24.3670 C   0  0  0  0  0  0
    8.8625   15.1685   27.7514 H   0  0  0  0  0  0
    3.3344   10.4422   24.2627 H   0  0  0  0  0  0
    4.8459   11.1898   24.6061 H   0  0  0  0  0  0
    1.0842   14.9021   23.9667 H   0  0  0  0  0  0
    6.1260   12.6330   23.3079 H   0  0  0  0  0  0
    4.8158   15.3922   26.3440 H   0  0  0  0  0  0
    8.4424   13.0192   23.9668 H   0  0  0  0  0  0
    7.1042   15.7991   26.9947 H   0  0  0  0  0  0
    1.3317   10.7723   25.7271 H   0  0  0  0  0  0
   -0.2549   13.1689   22.5270 H   0  0  0  0  0  0
   -0.8403    9.6197   25.9278 H   0  0  0  0  0  0
   -2.4286   12.0229   22.7563 H   0  0  0  0  0  0
   -2.7322   10.2939   24.4772 H   0  0  0  0  0  0
  1 18  2  0  0  0
  2 18  1  0  0  0
  2 22  1  0  0  0
  3  4  1  0  0  0
  3  6  1  0  0  0
  3  8  1  0  0  0
  4 10  2  0  0  0
  5  6  1  0  0  0
  5 23  1  0  0  0
  5 24  1  0  0  0
  6  7  2  0  0  0
  7  9  1  0  0  0
  7 10  1  0  0  0
  8 11  2  0  0  0
  8 12  1  0  0  0
  9 16  2  0  0  0
  9 17  1  0  0  0
 10 25  1  0  0  0
 11 14  1  0  0  0
 11 26  1  0  0  0
 12 15  2  0  0  0
 12 27  1  0  0  0
 13 14  2  0  0  0
 13 15  1  0  0  0
 13 18  1  0  0  0
 14 28  1  0  0  0
 15 29  1  0  0  0
 16 19  1  0  0  0
 16 30  1  0  0  0
 17 20  2  0  0  0
 17 31  1  0  0  0
 19 21  2  0  0  0
 19 32  1  0  0  0
 20 21  1  0  0  0
 20 33  1  0  0  0
 21 34  1  0  0  0
M  END
> <s_m_entry_id>
4705

> <s_m_entry_name>
dock_pv.24

> <s_m_Source_Path>
/home/csk/Desktop/cluster/DUD-E-result/hs90a

> <s_m_Source_File>
dock_pv.maegz

> <i_m_Source_File_Index>
24

> <chembl_id>
CHEMBL1535810

> <chembl_pref_name>
None

> <i_lp_mmshare_version>
53161

> <r_lp_tautomer_probability>
1

> <s_lp_Force_Field>
OPLS_2005

> <r_lp_Energy>
21.097389

> <b_lp_Chiralities_Consistent>
1

> <s_lp_Variant>
CHEMBL3880_lig44-1

> <s_i_glide_gridfile>
glide-grid_1uyg

> <i_i_glide_lignum>
49

> <i_i_glide_rotatable_bonds>
4

> <r_i_docking_score>
-9.51800554129196

> <r_i_glide_ligand_efficiency>
-0.453238359109141

> <r_i_glide_ligand_efficiency_sa>
-1.25045026534051

> <r_i_glide_ligand_efficiency_ln>
-2.3533076371433

> <r_i_glide_gscore>
-9.51800554129196

> <r_i_glide_lipo>
-4.09551856550172

> <r_i_glide_hbond>
-0.32

> <r_i_glide_metal>
0

> <r_i_glide_rewards>
-2.89769689448586

> <r_i_glide_evdw>
-38.5407028198242

> <r_i_glide_ecoul>
-6.47721719741821

> <r_i_glide_erotb>
0.693827639299557

> <r_i_glide_esite>
0

> <r_i_glide_emodel>
-63.799485446469

> <r_i_glide_energy>
-45.0179200172424

> <r_i_glide_einternal>
3.87031316757202

> <i_i_glide_confnum>
25

> <i_i_glide_posenum>
260

> <r_i_glide_eff_state_penalty>
0

> <s_user_duplicate_titles>
CHEMBL3880_lig44

> <i_f3d_flags>
0

> <s_m_subgroup_title>
dock_pv

> <s_m_subgroupid>
dock_pv

> <b_m_subgroup_collapsed>
1

$$$$
CHEMBL3880_lig258
                    3D
 Schrodinger Suite 2021-1.
 53 55  0  0  1  0            999 V2000
    7.8146   11.5364   23.5605 Cl  0  0  0  0  0  0
    6.2479   10.9620   23.1350 C   0  0  0  0  0  0
    6.1727    9.8604   22.3417 N   0  0  0  0  0  0
    4.9402    9.4330   21.9883 C   0  0  0  0  0  0
    4.8611    8.3691   21.1069 N   0  0  0  0  0  0
    3.7560    9.9512   22.3773 N   0  0  0  0  0  0
    3.8628   11.0272   23.1672 C   0  0  0  0  0  0
    5.0828   11.6406   23.5528 C   0  0  0  0  0  0
    2.8249   11.7423   23.7348 N   0  0  0  0  0  0
    1.4072   11.4103   23.6752 C   0  0  0  0  0  0
    0.7908   10.7409   24.9171 C   0  0  0  0  0  0
    1.3381    9.6396   25.6202 C   0  0  0  0  0  0
    2.6130    8.9287   25.1874 C   0  0  0  0  0  0
    0.6372    9.1477   26.7358 C   0  0  0  0  0  0
    1.1029    8.0595   27.4418 O   0  0  0  0  0  0
    2.0068    8.3692   28.4977 C   0  0  0  0  0  0
   -0.5938    9.7124   27.0815 C   0  0  0  0  0  0
   -1.3962    9.1564   28.2387 C   0  0  0  0  0  0
   -1.0892   10.7589   26.3073 C   0  0  0  0  0  0
   -0.4107   11.2790   25.2581 N   0  0  0  0  0  0
    3.3601   12.8609   24.3315 C   0  0  0  0  0  0
    4.7398   12.8535   24.2425 C   0  0  0  0  0  0
    5.6531   13.8472   24.7674 C   0  0  0  0  0  0
    6.4844   14.5600   25.3024 C   0  0  0  0  0  0
    7.5280   15.3629   25.9684 C   0  0  0  0  0  0
    9.0126   14.9537   25.7588 C   0  0  0  0  0  0
    9.9833   15.9889   26.3634 C   0  0  0  0  0  0
    9.3392   13.5689   26.3383 C   0  0  0  0  0  0
    9.2605   14.8755   24.3675 O   0  0  0  0  0  0
    5.7122    7.8339   20.9514 H   0  0  0  0  0  0
    3.9486    7.9688   20.9306 H   0  0  0  0  0  0
    0.8767   12.3358   23.4355 H   0  0  0  0  0  0
    1.2608   10.7695   22.8129 H   0  0  0  0  0  0
    2.7779    7.9879   25.7121 H   0  0  0  0  0  0
    2.5368    8.6627   24.1363 H   0  0  0  0  0  0
    3.4879    9.5563   25.3504 H   0  0  0  0  0  0
    2.5123    7.4583   28.8180 H   0  0  0  0  0  0
    2.7758    9.0849   28.1971 H   0  0  0  0  0  0
    1.4735    8.7688   29.3610 H   0  0  0  0  0  0
   -1.5392    8.0889   28.0705 H   0  0  0  0  0  0
   -0.8350    9.2518   29.1647 H   0  0  0  0  0  0
   -2.3668    9.6354   28.3646 H   0  0  0  0  0  0
   -2.0707   11.1688   26.4924 H   0  0  0  0  0  0
    2.7012   13.5926   24.7682 H   0  0  0  0  0  0
    7.2843   15.4095   27.0298 H   0  0  0  0  0  0
    7.3680   16.3548   25.5654 H   0  0  0  0  0  0
    9.8779   16.0448   27.4484 H   0  0  0  0  0  0
    9.8219   16.9898   25.9671 H   0  0  0  0  0  0
   11.0217   15.7304   26.1573 H   0  0  0  0  0  0
    9.2203   13.5759   27.4222 H   0  0  0  0  0  0
    8.6971   12.7867   25.9337 H   0  0  0  0  0  0
   10.3706   13.2785   26.1290 H   0  0  0  0  0  0
    8.5116   14.4091   23.9811 H   0  0  0  0  0  0
  1  2  1  0  0  0
  2  3  1  0  0  0
  2  8  2  0  0  0
  3  4  2  0  0  0
  4  5  1  0  0  0
  4  6  1  0  0  0
  5 30  1  0  0  0
  5 31  1  0  0  0
  6  7  2  0  0  0
  7  9  1  0  0  0
  7  8  1  0  0  0
  8 22  1  0  0  0
  9 10  1  0  0  0
  9 21  1  0  0  0
 10 11  1  0  0  0
 10 32  1  0  0  0
 10 33  1  0  0  0
 11 20  1  0  0  0
 11 12  2  0  0  0
 12 13  1  0  0  0
 12 14  1  0  0  0
 13 34  1  0  0  0
 13 35  1  0  0  0
 13 36  1  0  0  0
 14 17  2  0  0  0
 14 15  1  0  0  0
 15 16  1  0  0  0
 16 37  1  0  0  0
 16 38  1  0  0  0
 16 39  1  0  0  0
 17 19  1  0  0  0
 17 18  1  0  0  0
 18 40  1  0  0  0
 18 41  1  0  0  0
 18 42  1  0  0  0
 19 20  2  0  0  0
 19 43  1  0  0  0
 21 22  2  0  0  0
 21 44  1  0  0  0
 22 23  1  0  0  0
 23 24  3  0  0  0
 24 25  1  0  0  0
 25 26  1  0  0  0
 25 45  1  0  0  0
 25 46  1  0  0  0
 26 28  1  0  0  0
 26 29  1  0  0  0
 26 27  1  0  0  0
 27 47  1  0  0  0
 27 48  1  0  0  0
 27 49  1  0  0  0
 28 50  1  0  0  0
 28 51  1  0  0  0
 28 52  1  0  0  0
 29 53  1  0  0  0
M  END
> <s_m_entry_id>
4706

> <s_m_entry_name>
dock_pv.25

> <s_m_Source_Path>
/home/csk/Desktop/cluster/DUD-E-result/hs90a

> <s_m_Source_File>
dock_pv.maegz

> <i_m_Source_File_Index>
25

> <chembl_id>
CHEMBL1230584

> <chembl_pref_name>
None

> <i_lp_mmshare_version>
53161

> <r_lp_tautomer_probability>
1

> <s_lp_Force_Field>
OPLS_2005

> <r_lp_Energy>
9.633253

> <b_lp_Chiralities_Consistent>
1

> <s_lp_Variant>
CHEMBL3880_lig258-1

> <s_i_glide_gridfile>
glide-grid_1uyg

> <i_i_glide_lignum>
292

> <i_i_glide_rotatable_bonds>
7

> <r_i_docking_score>
-9.51422697581836

> <r_i_glide_ligand_efficiency>
-0.328076792269599

> <r_i_glide_ligand_efficiency_sa>
-1.00795584787557

> <r_i_glide_ligand_efficiency_ln>
-2.17851671748278

> <r_i_glide_gscore>
-9.51422697581836

> <r_i_glide_lipo>
-4.40037356264709

> <r_i_glide_hbond>
-0.6207760082111

> <r_i_glide_metal>
0

> <r_i_glide_rewards>
-1.80476973134838

> <r_i_glide_evdw>
-42.0396041870117

> <r_i_glide_ecoul>
-7.49092388153076

> <r_i_glide_erotb>
0.575919193095985

> <r_i_glide_esite>
-0.0386080751275842

> <r_i_glide_emodel>
-74.9380713303242

> <r_i_glide_energy>
-49.5305280685425

> <r_i_glide_einternal>
2.57760953903198

> <i_i_glide_confnum>
6

> <i_i_glide_posenum>
151

> <r_i_glide_eff_state_penalty>
0

> <s_user_duplicate_titles>
CHEMBL3880_lig258

> <i_f3d_flags>
0

> <s_m_subgroup_title>
dock_pv

> <s_m_subgroupid>
dock_pv

> <b_m_subgroup_collapsed>
1

$$$$
CHEMBL3880_lig195
                    3D
 Schrodinger Suite 2021-1.
 61 64  0  0  1  0            999 V2000
    0.4217   12.3689   23.6327 C   0  0  0  0  0  0
    1.7751   12.5802   23.3736 C   0  0  0  0  0  0
    2.7306   11.7262   23.9262 C   0  0  0  0  0  0
    2.3015   10.6734   24.7208 C   0  0  0  0  0  0
    0.9571   10.3563   24.8781 C   0  0  0  0  0  0
   -0.0123   11.2642   24.3900 C   0  0  0  0  0  0
   -1.4839   11.1248   24.7050 C   0  0  0  0  0  0
   -1.8706   10.7689   25.8147 O   0  0  0  0  0  0
   -2.3389   11.4791   23.7441 N   0  0  0  0  0  0
    0.6425    9.1031   25.4455 N   0  0  0  0  0  0
    1.4990    7.9149   25.5046 C   0  0  1  0  0  0
    1.0110    6.8805   26.5351 C   0  0  0  0  0  0
    1.5273    7.2985   24.0743 C   0  0  0  0  0  0
    2.6626    7.1038   23.3729 N   0  0  0  0  0  0
    4.0678    7.0762   23.7824 C   0  0  0  0  0  0
    4.7870    8.4290   23.9666 C   0  0  0  0  0  0
    4.5810    9.5152   22.8816 C   0  0  0  0  0  0
    5.0326   10.9094   23.3439 C   0  0  0  0  0  0
    4.1257   11.8894   23.7425 N   0  0  0  0  0  0
    6.3288   11.4330   23.4513 C   0  0  0  0  0  0
    6.1961   12.7394   23.9670 C   0  0  0  0  0  0
    4.8386   13.0365   24.0145 C   0  0  0  0  0  0
    4.2228   14.3481   24.4853 C   0  0  0  0  0  0
    5.2485   15.2180   25.2675 C   0  0  0  0  0  0
    6.7227   15.0857   24.7671 C   0  0  0  0  0  0
    7.2192   13.6608   24.4779 C   0  0  0  0  0  0
    4.8610   16.6566   25.1672 C   0  0  0  0  0  0
    5.1841   14.8927   26.7442 C   0  0  0  0  0  0
    8.3654   13.3221   24.7668 O   0  0  0  0  0  0
    7.6178   10.6882   23.1670 C   0  0  0  0  0  0
    0.4610    6.9755   23.5671 O   0  0  0  0  0  0
   -0.2874   13.0861   23.2424 H   0  0  0  0  0  0
    2.0603   13.4279   22.7768 H   0  0  0  0  0  0
    3.0391   10.0864   25.2215 H   0  0  0  0  0  0
   -2.0276   11.6392   22.8007 H   0  0  0  0  0  0
   -3.3338   11.5693   23.9673 H   0  0  0  0  0  0
   -0.3467    8.8942   25.4284 H   0  0  0  0  0  0
    2.5176    8.1742   25.7752 H   0  0  0  0  0  0
    1.6475    5.9946   26.5465 H   0  0  0  0  0  0
    1.0203    7.3022   27.5409 H   0  0  0  0  0  0
   -0.0099    6.5538   26.3281 H   0  0  0  0  0  0
    2.5033    6.7707   22.4310 H   0  0  0  0  0  0
    4.1645    6.4696   24.6847 H   0  0  0  0  0  0
    4.5774    6.5351   22.9837 H   0  0  0  0  0  0
    4.5123    8.7987   24.9458 H   0  0  0  0  0  0
    5.8553    8.2307   24.0603 H   0  0  0  0  0  0
    5.1359    9.2208   21.9896 H   0  0  0  0  0  0
    3.5405    9.5274   22.5546 H   0  0  0  0  0  0
    3.9453   14.8554   23.5672 H   0  0  0  0  0  0
    3.2978   14.2127   25.0478 H   0  0  0  0  0  0
    6.8625   15.6299   23.8425 H   0  0  0  0  0  0
    7.4163   15.5414   25.4748 H   0  0  0  0  0  0
    5.5239   17.1690   25.8327 H   0  0  0  0  0  0
    4.9671   17.1017   24.1869 H   0  0  0  0  0  0
    3.8623   16.8186   25.5670 H   0  0  0  0  0  0
    5.7688   15.5677   27.3714 H   0  0  0  0  0  0
    4.1731   14.8009   27.1449 H   0  0  0  0  0  0
    5.6609   13.9690   26.7680 H   0  0  0  0  0  0
    8.0986   11.0644   22.2652 H   0  0  0  0  0  0
    8.3450   10.8219   23.9669 H   0  0  0  0  0  0
    7.4809    9.6132   23.0596 H   0  0  0  0  0  0
  1  6  1  0  0  0
  1  2  2  0  0  0
  1 32  1  0  0  0
  2  3  1  0  0  0
  2 33  1  0  0  0
  3  4  2  0  0  0
  3 19  1  0  0  0
  4  5  1  0  0  0
  4 34  1  0  0  0
  5 10  1  0  0  0
  5  6  2  0  0  0
  6  7  1  0  0  0
  7  8  2  0  0  0
  7  9  1  0  0  0
  9 35  1  0  0  0
  9 36  1  0  0  0
 10 11  1  0  0  0
 10 37  1  0  0  0
 11 12  1  0  0  0
 11 13  1  0  0  0
 11 38  1  0  0  0
 12 39  1  0  0  0
 12 40  1  0  0  0
 12 41  1  0  0  0
 13 14  1  0  0  0
 13 31  2  0  0  0
 14 15  1  0  0  0
 14 42  1  0  0  0
 15 16  1  0  0  0
 15 43  1  0  0  0
 15 44  1  0  0  0
 16 17  1  0  0  0
 16 45  1  0  0  0
 16 46  1  0  0  0
 17 18  1  0  0  0
 17 47  1  0  0  0
 17 48  1  0  0  0
 18 19  1  0  0  0
 18 20  2  0  0  0
 19 22  1  0  0  0
 20 21  1  0  0  0
 20 30  1  0  0  0
 21 22  2  0  0  0
 21 26  1  0  0  0
 22 23  1  0  0  0
 23 24  1  0  0  0
 23 49  1  0  0  0
 23 50  1  0  0  0
 24 25  1  0  0  0
 24 27  1  0  0  0
 24 28  1  0  0  0
 25 26  1  0  0  0
 25 51  1  0  0  0
 25 52  1  0  0  0
 26 29  2  0  0  0
 27 53  1  0  0  0
 27 54  1  0  0  0
 27 55  1  0  0  0
 28 56  1  0  0  0
 28 57  1  0  0  0
 28 58  1  0  0  0
 30 59  1  0  0  0
 30 60  1  0  0  0
 30 61  1  0  0  0
M  END
> <s_m_entry_id>
4707

> <s_m_entry_name>
dock_pv.26

> <s_m_Source_Path>
/home/csk/Desktop/cluster/DUD-E-result/hs90a

> <s_m_Source_File>
dock_pv.maegz

> <i_m_Source_File_Index>
26

> <chembl_id>
CHEMBL1778208

> <chembl_pref_name>
None

> <i_lp_mmshare_version>
53161

> <r_lp_tautomer_probability>
0.99995

> <s_lp_Force_Field>
OPLS_2005

> <r_lp_Energy>
35.063422

> <b_lp_Chiralities_Consistent>
1

> <s_lp_Variant>
CHEMBL3880_lig195-1

> <s_i_glide_gridfile>
glide-grid_1uyg

> <i_i_glide_lignum>
229

> <i_i_glide_rotatable_bonds>
1

> <r_i_docking_score>
-9.49068407440634

> <r_i_glide_ligand_efficiency>
-0.306151099174398

> <r_i_glide_ligand_efficiency_sa>
-0.961737138553948

> <r_i_glide_ligand_efficiency_ln>
-2.1404401133152

> <r_i_glide_gscore>
-9.49068407440634

> <r_i_glide_lipo>
-4.29494754931773

> <r_i_glide_hbond>
-0.162138371939635

> <r_i_glide_metal>
0

> <r_i_glide_rewards>
-2.39748840749398

> <r_i_glide_evdw>
-36.522102355957

> <r_i_glide_ecoul>
-5.02030420303345

> <r_i_glide_erotb>
0

> <r_i_glide_esite>
-0.0569589974021269

> <r_i_glide_emodel>
-53.2211882904055

> <r_i_glide_energy>
-41.5424065589905

> <r_i_glide_einternal>
1.44077682495117

> <i_i_glide_confnum>
2

> <i_i_glide_posenum>
345

> <r_i_glide_eff_state_penalty>
0

> <s_user_duplicate_titles>
CHEMBL3880_lig195

> <i_f3d_flags>
0

> <s_m_subgroup_title>
dock_pv

> <s_m_subgroupid>
dock_pv

> <b_m_subgroup_collapsed>
1

$$$$
CHEMBL3880_lig379
                    3D
 Schrodinger Suite 2021-1.
 49 52  0  0  1  0            999 V2000
   -1.6211   11.4819   24.9096 N   0  0  0  0  0  0
   -1.3018   12.1559   23.7829 C   0  0  0  0  0  0
   -0.0699   12.2026   23.2164 N   0  0  0  0  0  0
   -0.6362   10.7669   25.5068 C   0  0  0  0  0  0
    0.6687   10.7123   24.9730 C   0  0  0  0  0  0
    0.9058   11.4452   23.7975 C   0  0  0  0  0  0
    2.2896   11.3984   23.1658 C   0  0  0  0  0  0
    3.3997   11.1205   24.2255 C   0  0  1  0  0  0
    2.9730    9.9806   25.0601 N   0  0  0  0  0  0
    1.7360    9.8128   25.5679 C   0  0  0  0  0  0
    4.7773   10.9332   23.5608 C   0  0  0  0  0  0
    5.8282   11.8956   23.5667 C   0  0  0  0  0  0
    7.0504   11.5203   22.9704 C   0  0  0  0  0  0
    7.2530   10.2649   22.4126 C   0  0  0  0  0  0
    6.2172    9.3486   22.3947 C   0  0  0  0  0  0
    4.9921    9.6841   22.9533 C   0  0  0  0  0  0
   -1.0585   10.1135   26.8149 C   0  0  0  0  0  0
    1.5611    8.9037   26.3747 O   0  0  0  0  0  0
   -2.3384   12.8478   23.1667 N   0  0  0  0  0  0
    5.7620   13.2506   24.2319 C   0  0  0  0  0  0
    6.9425   13.6756   24.7673 N   0  0  0  0  0  0
    6.9658   14.7897   25.5484 C   0  0  0  0  0  0
    5.8232   15.5497   25.7797 C   0  0  0  0  0  0
    4.6323   15.1760   25.1660 C   0  0  0  0  0  0
    4.6031   14.0299   24.3685 C   0  0  0  0  0  0
    8.1508   15.1690   26.1536 O   0  0  0  0  0  0
    9.3442   14.4290   25.9061 C   0  0  0  0  0  0
    8.4596    9.9343   21.9055 F   0  0  0  0  0  0
   10.5053   15.1183   26.6328 C   0  0  0  0  0  0
    2.4868   12.3182   22.6152 H   0  0  0  0  0  0
    2.2861   10.5934   22.4309 H   0  0  0  0  0  0
    3.4592   11.9241   24.9538 H   0  0  0  0  0  0
    3.6803    9.3568   25.4198 H   0  0  0  0  0  0
    7.8878   12.2022   22.9539 H   0  0  0  0  0  0
    6.3698    8.3716   21.9669 H   0  0  0  0  0  0
    4.2072    8.9411   22.9385 H   0  0  0  0  0  0
   -0.3968   10.4504   27.6068 H   0  0  0  0  0  0
   -2.0796   10.3683   27.0988 H   0  0  0  0  0  0
   -0.9811    9.0305   26.7603 H   0  0  0  0  0  0
   -2.1826   13.3008   22.2813 H   0  0  0  0  0  0
   -3.2762   12.7653   23.5678 H   0  0  0  0  0  0
    5.8674   16.4189   26.4169 H   0  0  0  0  0  0
    3.7354   15.7598   25.3069 H   0  0  0  0  0  0
    3.6803   13.7693   23.8787 H   0  0  0  0  0  0
    9.5543   14.3942   24.8341 H   0  0  0  0  0  0
    9.2374   13.4018   26.2624 H   0  0  0  0  0  0
   11.4466   14.6035   26.4428 H   0  0  0  0  0  0
   10.6206   16.1546   26.3111 H   0  0  0  0  0  0
   10.3444   15.1226   27.7106 H   0  0  0  0  0  0
  1  2  2  0  0  0
  1  4  1  0  0  0
  2  3  1  0  0  0
  2 19  1  0  0  0
  3  6  2  0  0  0
  4  5  2  0  0  0
  4 17  1  0  0  0
  5  6  1  0  0  0
  5 10  1  0  0  0
  6  7  1  0  0  0
  7  8  1  0  0  0
  7 30  1  0  0  0
  7 31  1  0  0  0
  8  9  1  0  0  0
  8 11  1  0  0  0
  8 32  1  0  0  0
  9 10  1  0  0  0
  9 33  1  0  0  0
 10 18  2  0  0  0
 11 12  2  0  0  0
 11 16  1  0  0  0
 12 13  1  0  0  0
 12 20  1  0  0  0
 13 14  2  0  0  0
 13 34  1  0  0  0
 14 15  1  0  0  0
 14 28  1  0  0  0
 15 16  2  0  0  0
 15 35  1  0  0  0
 16 36  1  0  0  0
 17 37  1  0  0  0
 17 38  1  0  0  0
 17 39  1  0  0  0
 19 40  1  0  0  0
 19 41  1  0  0  0
 20 21  2  0  0  0
 20 25  1  0  0  0
 21 22  1  0  0  0
 22 23  2  0  0  0
 22 26  1  0  0  0
 23 24  1  0  0  0
 23 42  1  0  0  0
 24 25  2  0  0  0
 24 43  1  0  0  0
 25 44  1  0  0  0
 26 27  1  0  0  0
 27 29  1  0  0  0
 27 45  1  0  0  0
 27 46  1  0  0  0
 29 47  1  0  0  0
 29 48  1  0  0  0
 29 49  1  0  0  0
M  END
> <s_m_entry_id>
4708

> <s_m_entry_name>
dock_pv.27

> <s_m_Source_Path>
/home/csk/Desktop/cluster/DUD-E-result/hs90a

> <s_m_Source_File>
dock_pv.maegz

> <i_m_Source_File_Index>
27

> <chembl_id>
CHEMBL3360310

> <chembl_pref_name>
None

> <i_lp_mmshare_version>
53161

> <r_lp_tautomer_probability>
0.999999987636

> <s_lp_Force_Field>
OPLS_2005

> <r_lp_Energy>
20.899197

> <b_lp_Chiralities_Consistent>
1

> <s_lp_Variant>
CHEMBL3880_lig379-1

> <s_i_glide_gridfile>
glide-grid_1uyg

> <i_i_glide_lignum>
421

> <i_i_glide_rotatable_bonds>
4

> <r_i_docking_score>
-9.49054942986655

> <r_i_glide_ligand_efficiency>
-0.327260325167812

> <r_i_glide_ligand_efficiency_sa>
-1.00544740226394

> <r_i_glide_ligand_efficiency_ln>
-2.17309515987057

> <r_i_glide_gscore>
-9.49054942986655

> <r_i_glide_lipo>
-4.7856767821002

> <r_i_glide_hbond>
-0.16

> <r_i_glide_metal>
0

> <r_i_glide_rewards>
-1.9282155622365

> <r_i_glide_evdw>
-48.8428535461426

> <r_i_glide_ecoul>
-3.46748113632202

> <r_i_glide_erotb>
0.378639273172121

> <r_i_glide_esite>
-0.0330315109465433

> <r_i_glide_emodel>
-79.5457876034481

> <r_i_glide_energy>
-52.3103346824646

> <r_i_glide_einternal>
2.13472676277161

> <i_i_glide_confnum>
1

> <i_i_glide_posenum>
49

> <r_i_glide_eff_state_penalty>
0

> <s_user_duplicate_titles>
CHEMBL3880_lig379

> <i_f3d_flags>
0

> <s_m_subgroup_title>
dock_pv

> <s_m_subgroupid>
dock_pv

> <b_m_subgroup_collapsed>
1

$$$$
CHEMBL3880_lig972
                    3D
 Schrodinger Suite 2021-1.
 56 60  0  0  1  0            999 V2000
    5.2619    8.8433   21.2361 C   0  0  0  0  0  0
    5.4948    8.3186   22.6859 C   0  0  0  0  0  0
    5.2600    6.8007   22.8598 C   0  0  0  0  0  0
    0.7596   10.3205   25.1702 C   0  0  0  0  0  0
    2.1364   10.4855   25.0242 C   0  0  0  0  0  0
    2.6695   11.4601   24.1804 C   0  0  0  0  0  0
    1.8180   12.3162   23.4961 C   0  0  0  0  0  0
    4.0579   11.5440   23.9899 N   0  0  0  0  0  0
    4.9124   10.4900   23.7809 C   0  0  0  0  0  0
    6.2048   10.9821   23.6048 C   0  0  0  0  0  0
    7.3250   10.1029   23.2667 C   0  0  0  0  0  0
    6.9533    8.6123   23.1641 C   0  0  0  0  0  0
    4.4858    9.0345   23.6147 C   0  0  0  0  0  0
    8.4605   10.5024   23.0305 O   0  0  0  0  0  0
    6.1744   12.3689   23.8562 C   0  0  0  0  0  0
    4.8258   12.6828   23.9692 C   0  0  0  0  0  0
    7.3262   13.3388   23.9600 C   0  0  0  0  0  0
   -0.1051   11.1981   24.4761 C   0  0  0  0  0  0
    0.4399   12.1990   23.6462 C   0  0  0  0  0  0
   -0.5016   13.1246   22.9158 C   0  0  0  0  0  0
   -1.7750   12.3522   22.5271 C   0  0  0  0  0  0
   -2.3390   11.7879   23.7552 N   0  0  0  0  0  0
   -1.6100   11.1615   24.7053 C   0  0  0  0  0  0
   -2.1842   10.7684   25.7156 O   0  0  0  0  0  0
    0.3249    9.1702   26.0031 C   0  0  0  0  0  0
    0.3966    7.8646   25.5000 C   0  0  0  0  0  0
    0.0620    6.7756   26.3056 C   0  0  0  0  0  0
   -0.3332    6.9832   27.6263 C   0  0  0  0  0  0
   -0.4030    8.2793   28.1354 C   0  0  0  0  0  0
   -0.0889    9.3638   27.3215 C   0  0  0  0  0  0
    0.1265    5.5193   25.8111 F   0  0  0  0  0  0
    4.4622    8.2917   20.7393 H   0  0  0  0  0  0
    4.9781    9.8952   21.2037 H   0  0  0  0  0  0
    6.1509    8.7689   20.6161 H   0  0  0  0  0  0
    4.2941    6.4986   22.4520 H   0  0  0  0  0  0
    6.0220    6.2031   22.3671 H   0  0  0  0  0  0
    5.2755    6.5020   23.9089 H   0  0  0  0  0  0
    2.7968    9.8265   25.5709 H   0  0  0  0  0  0
    2.2215   13.0751   22.8408 H   0  0  0  0  0  0
    7.6895    8.1149   22.5313 H   0  0  0  0  0  0
    7.0932    8.2078   24.1663 H   0  0  0  0  0  0
    3.4697    8.9245   23.2305 H   0  0  0  0  0  0
    4.4999    8.5826   24.6077 H   0  0  0  0  0  0
    4.3549   13.6411   24.1302 H   0  0  0  0  0  0
    7.0035   14.3797   23.9822 H   0  0  0  0  0  0
    7.9313   13.1417   24.8447 H   0  0  0  0  0  0
    8.0019   13.2331   23.1139 H   0  0  0  0  0  0
   -0.7511   13.9683   23.5635 H   0  0  0  0  0  0
   -0.0164   13.5282   22.0280 H   0  0  0  0  0  0
   -2.5024   13.0238   22.0686 H   0  0  0  0  0  0
   -1.5808   11.5754   21.7858 H   0  0  0  0  0  0
   -3.3287   11.9631   23.9679 H   0  0  0  0  0  0
    0.7130    7.6898   24.4817 H   0  0  0  0  0  0
   -0.5889    6.1403   28.2496 H   0  0  0  0  0  0
   -0.7112    8.4505   29.1565 H   0  0  0  0  0  0
   -0.1692   10.3663   27.7080 H   0  0  0  0  0  0
  1  2  1  0  0  0
  1 32  1  0  0  0
  1 33  1  0  0  0
  1 34  1  0  0  0
  2  3  1  0  0  0
  2 12  1  0  0  0
  2 13  1  0  0  0
  3 35  1  0  0  0
  3 36  1  0  0  0
  3 37  1  0  0  0
  4  5  2  0  0  0
  4 18  1  0  0  0
  4 25  1  0  0  0
  5  6  1  0  0  0
  5 38  1  0  0  0
  6  7  2  0  0  0
  6  8  1  0  0  0
  7 19  1  0  0  0
  7 39  1  0  0  0
  8 16  1  0  0  0
  8  9  1  0  0  0
  9 10  2  0  0  0
  9 13  1  0  0  0
 10 15  1  0  0  0
 10 11  1  0  0  0
 11 12  1  0  0  0
 11 14  2  0  0  0
 12 40  1  0  0  0
 12 41  1  0  0  0
 13 42  1  0  0  0
 13 43  1  0  0  0
 15 16  2  0  0  0
 15 17  1  0  0  0
 16 44  1  0  0  0
 17 45  1  0  0  0
 17 46  1  0  0  0
 17 47  1  0  0  0
 18 19  2  0  0  0
 18 23  1  0  0  0
 19 20  1  0  0  0
 20 21  1  0  0  0
 20 48  1  0  0  0
 20 49  1  0  0  0
 21 22  1  0  0  0
 21 50  1  0  0  0
 21 51  1  0  0  0
 22 23  1  0  0  0
 22 52  1  0  0  0
 23 24  2  0  0  0
 25 26  2  0  0  0
 25 30  1  0  0  0
 26 27  1  0  0  0
 26 53  1  0  0  0
 27 28  2  0  0  0
 27 31  1  0  0  0
 28 29  1  0  0  0
 28 54  1  0  0  0
 29 30  2  0  0  0
 29 55  1  0  0  0
 30 56  1  0  0  0
M  END
> <s_m_entry_id>
4709

> <s_m_entry_name>
dock_pv.28

> <s_m_Source_Path>
/home/csk/Desktop/cluster/DUD-E-result/hs90a

> <s_m_Source_File>
dock_pv.maegz

> <i_m_Source_File_Index>
28

> <chembl_id>
CHEMBL3235362

> <chembl_pref_name>
None

> <i_lp_mmshare_version>
53161

> <r_lp_tautomer_probability>
0.99995

> <s_lp_Force_Field>
OPLS_2005

> <r_lp_Energy>
37.570438

> <b_lp_Chiralities_Consistent>
1

> <s_lp_Variant>
CHEMBL3880_lig972-1

> <s_i_glide_gridfile>
glide-grid_1uyg

> <i_i_glide_lignum>
1081

> <i_i_glide_rotatable_bonds>
2

> <r_i_docking_score>
-9.4732851167855

> <r_i_glide_ligand_efficiency>
-0.305589842476951

> <r_i_glide_ligand_efficiency_sa>
-0.959974017625583

> <r_i_glide_ligand_efficiency_ln>
-2.13651611515769

> <r_i_glide_gscore>
-9.4732851167855

> <r_i_glide_lipo>
-4.4863572396724

> <r_i_glide_hbond>
-0.16

> <r_i_glide_metal>
0

> <r_i_glide_rewards>
-2.08195687328424

> <r_i_glide_evdw>
-47.1554298400879

> <r_i_glide_ecoul>
-3.68258213996887

> <r_i_glide_erotb>
0.227790005135418

> <r_i_glide_esite>
-0.0626021959645452

> <r_i_glide_emodel>
-63.7690309657845

> <r_i_glide_energy>
-50.8380119800568

> <r_i_glide_einternal>
2.35116457939148

> <i_i_glide_confnum>
29

> <i_i_glide_posenum>
96

> <r_i_glide_eff_state_penalty>
0

> <s_user_duplicate_titles>
CHEMBL3880_lig972

> <i_f3d_flags>
0

> <s_m_subgroup_title>
dock_pv

> <s_m_subgroupid>
dock_pv

> <b_m_subgroup_collapsed>
1

$$$$
CHEMBL3880_lig611
                    3D
 Schrodinger Suite 2021-1.
 57 60  0  0  1  0            999 V2000
    8.6265   14.7042   26.0060 C   0  0  0  0  0  0
    8.1821   14.7315   24.6552 O   0  0  0  0  0  0
    7.0857   13.9341   24.4111 C   0  0  0  0  0  0
    7.3083   12.6980   23.8111 C   0  0  0  0  0  0
    6.2380   11.8384   23.5682 C   0  0  0  0  0  0
    6.1323   10.5212   23.0248 C   0  0  0  0  0  0
    4.8019   10.1740   23.0909 C   0  0  0  0  0  0
    4.0624   11.2097   23.6218 N   0  0  0  0  0  0
    2.6708   11.1723   23.8185 C   0  0  0  0  0  0
    1.8713   12.2434   23.4255 C   0  0  0  0  0  0
    0.5062   12.2230   23.6863 C   0  0  0  0  0  0
   -0.0854   11.1447   24.3676 C   0  0  0  0  0  0
   -1.5625   11.2054   24.6760 C   0  0  0  0  0  0
   -2.0167   10.7870   25.7398 O   0  0  0  0  0  0
   -2.3380   11.7746   23.7522 N   0  0  0  0  0  0
    0.7275   10.0619   24.7867 C   0  0  0  0  0  0
    0.1752    8.9875   25.5183 N   0  0  0  0  0  0
    0.9566    8.1326   26.4141 C   0  0  2  0  0  0
    0.0394    6.9961   26.9179 C   0  0  0  0  0  0
    0.7241    6.1164   27.9894 C   0  0  0  0  0  0
    1.3061    6.9429   29.1595 C   0  0  1  0  0  0
    2.0293    6.1171   30.0520 O   0  0  0  0  0  0
    2.1915    8.1045   28.6630 C   0  0  0  0  0  0
    1.4836    8.9731   27.5994 C   0  0  0  0  0  0
    2.0953   10.0857   24.4802 C   0  0  0  0  0  0
    4.9203   12.2630   23.9235 C   0  0  0  0  0  0
    4.6848   13.5190   24.5058 C   0  0  0  0  0  0
    5.7947   14.3463   24.7670 C   0  0  0  0  0  0
    5.6880   15.5721   25.3979 O   0  0  0  0  0  0
    4.4326   15.9753   25.9310 C   0  0  0  0  0  0
    9.4964   15.3500   26.1146 H   0  0  0  0  0  0
    7.8643   15.0615   26.6996 H   0  0  0  0  0  0
    8.9209   13.6986   26.3084 H   0  0  0  0  0  0
    8.3113   12.3873   23.5668 H   0  0  0  0  0  0
    6.9294    9.8930   22.6481 H   0  0  0  0  0  0
    4.3043    9.2624   22.7894 H   0  0  0  0  0  0
    2.3031   13.0973   22.9233 H   0  0  0  0  0  0
   -0.0782   13.0781   23.3792 H   0  0  0  0  0  0
   -3.3276   11.9488   23.9694 H   0  0  0  0  0  0
   -1.9861   11.9825   22.8321 H   0  0  0  0  0  0
   -0.7622    9.1881   25.8479 H   0  0  0  0  0  0
    1.7949    7.7083   25.8623 H   0  0  0  0  0  0
   -0.2758    6.3691   26.0815 H   0  0  0  0  0  0
   -0.8759    7.4143   27.3436 H   0  0  0  0  0  0
    0.0076    5.3894   28.3711 H   0  0  0  0  0  0
    1.5231    5.5383   27.5217 H   0  0  0  0  0  0
    0.4738    7.3493   29.7384 H   0  0  0  0  0  0
    2.6218    6.6818   30.5618 H   0  0  0  0  0  0
    2.4978    8.7282   29.5020 H   0  0  0  0  0  0
    3.1135    7.7074   28.2386 H   0  0  0  0  0  0
    0.6618    9.5217   28.0605 H   0  0  0  0  0  0
    2.1889    9.7258   27.2456 H   0  0  0  0  0  0
    2.7328    9.2755   24.7938 H   0  0  0  0  0  0
    3.6867   13.8037   24.7920 H   0  0  0  0  0  0
    4.5050   16.9894   26.3263 H   0  0  0  0  0  0
    3.6599   15.9692   25.1671 H   0  0  0  0  0  0
    4.1240   15.3240   26.7506 H   0  0  0  0  0  0
  1  2  1  0  0  0
  1 31  1  0  0  0
  1 32  1  0  0  0
  1 33  1  0  0  0
  2  3  1  0  0  0
  3  4  2  0  0  0
  3 28  1  0  0  0
  4  5  1  0  0  0
  4 34  1  0  0  0
  5  6  1  0  0  0
  5 26  2  0  0  0
  6  7  2  0  0  0
  6 35  1  0  0  0
  7  8  1  0  0  0
  7 36  1  0  0  0
  8  9  1  0  0  0
  8 26  1  0  0  0
  9 10  2  0  0  0
  9 25  1  0  0  0
 10 11  1  0  0  0
 10 37  1  0  0  0
 11 12  2  0  0  0
 11 38  1  0  0  0
 12 13  1  0  0  0
 12 16  1  0  0  0
 13 14  2  0  0  0
 13 15  1  0  0  0
 15 39  1  0  0  0
 15 40  1  0  0  0
 16 17  1  0  0  0
 16 25  2  0  0  0
 17 18  1  0  0  0
 17 41  1  0  0  0
 18 19  1  0  0  0
 18 24  1  0  0  0
 18 42  1  0  0  0
 19 20  1  0  0  0
 19 43  1  0  0  0
 19 44  1  0  0  0
 20 21  1  0  0  0
 20 45  1  0  0  0
 20 46  1  0  0  0
 21 22  1  0  0  0
 21 23  1  0  0  0
 21 47  1  0  0  0
 22 48  1  0  0  0
 23 24  1  0  0  0
 23 49  1  0  0  0
 23 50  1  0  0  0
 24 51  1  0  0  0
 24 52  1  0  0  0
 25 53  1  0  0  0
 26 27  1  0  0  0
 27 28  2  0  0  0
 27 54  1  0  0  0
 28 29  1  0  0  0
 29 30  1  0  0  0
 30 55  1  0  0  0
 30 56  1  0  0  0
 30 57  1  0  0  0
M  END
> <s_m_entry_id>
4710

> <s_m_entry_name>
dock_pv.29

> <s_m_Source_Path>
/home/csk/Desktop/cluster/DUD-E-result/hs90a

> <s_m_Source_File>
dock_pv.maegz

> <i_m_Source_File_Index>
29

> <chembl_id>
CHEMBL3661198

> <chembl_pref_name>
None

> <i_lp_mmshare_version>
53161

> <r_lp_tautomer_probability>
1

> <s_lp_Force_Field>
OPLS_2005

> <r_lp_Energy>
32.504575

> <b_lp_Chiralities_Consistent>
1

> <s_lp_Variant>
CHEMBL3880_lig611-2

> <s_i_glide_gridfile>
glide-grid_1uyg

> <i_i_glide_lignum>
668

> <i_i_glide_rotatable_bonds>
7

> <r_i_docking_score>
-9.4363667827833

> <r_i_glide_ligand_efficiency>
-0.31454555942611

> <r_i_glide_ligand_efficiency_sa>
-0.977366185744179

> <r_i_glide_ligand_efficiency_ln>
-2.1440453504995

> <r_i_glide_gscore>
-9.4363667827833

> <r_i_glide_lipo>
-4.66470164967254

> <r_i_glide_hbond>
-0.16

> <r_i_glide_metal>
0

> <r_i_glide_rewards>
-1.38990748375516

> <r_i_glide_evdw>
-46.9512825012207

> <r_i_glide_ecoul>
-7.76705980300903

> <r_i_glide_erotb>
0.35231488006066

> <r_i_glide_esite>
-0.0614494339038672

> <r_i_glide_emodel>
-82.0346423136254

> <r_i_glide_energy>
-54.7183423042297

> <r_i_glide_einternal>
9.1586332321167

> <i_i_glide_confnum>
18

> <i_i_glide_posenum>
305

> <r_i_glide_eff_state_penalty>
0

> <s_user_duplicate_titles>
CHEMBL3880_lig611

> <i_f3d_flags>
0

> <s_m_subgroup_title>
dock_pv

> <s_m_subgroupid>
dock_pv

> <b_m_subgroup_collapsed>
1

$$$$
CHEMBL3880_lig252
                    3D
 Schrodinger Suite 2021-1.
 80 83  0  0  1  0            999 V2000
    0.3123   12.3686   23.2690 C   0  0  0  0  0  0
    1.6759   12.5765   23.1695 C   0  0  0  0  0  0
   -0.2266   11.5055   24.2463 C   0  0  0  0  0  0
    0.6507   10.9008   25.1730 C   0  0  0  0  0  0
    0.9834    8.7716   26.4901 C   0  0  2  0  0  0
    0.2065    9.9637   26.1247 N   0  0  0  0  0  0
    2.0017   11.2428   25.1370 C   0  0  0  0  0  0
    2.5258   12.0053   24.1005 C   0  0  0  0  0  0
    0.8972    7.6381   25.4033 C   0  0  1  0  0  0
    4.3090    9.8101   23.1367 C   0  0  0  0  0  0
    3.9677    8.8589   24.3145 C   0  0  0  0  0  0
    3.1374    7.6824   24.0080 N   0  0  0  0  0  0
    1.6679    7.9076   24.0632 C   0  0  0  0  0  0
    6.0973   11.7562   23.5672 C   0  0  0  0  0  0
    4.8063   11.1957   23.5616 C   0  0  0  0  0  0
    3.9122   12.1649   23.9716 N   0  0  0  0  0  0
    7.3864   11.0201   23.2616 C   0  0  0  0  0  0
    3.6508    6.4722   23.6316 C   0  0  0  0  0  0
    1.1571    6.2133   25.9449 C   0  0  0  0  0  0
    0.5659    8.3374   27.9098 C   0  0  0  0  0  0
    5.9598   13.0913   24.0249 C   0  0  0  0  0  0
    4.6022   13.3284   24.1843 C   0  0  0  0  0  0
    3.9747   14.6257   24.6512 C   0  0  0  0  0  0
    4.9985   15.4276   25.4972 C   0  0  0  0  0  0
    6.4029   15.4803   24.8293 C   0  0  0  0  0  0
    6.9687   14.1127   24.3670 C   0  0  0  0  0  0
    5.1373   14.7964   26.8619 C   0  0  0  0  0  0
    4.4568   16.8243   25.6866 C   0  0  0  0  0  0
    8.1777   13.9001   24.3670 O   0  0  0  0  0  0
   -1.7144   11.2410   24.2496 C   0  0  0  0  0  0
   -2.3353   10.7706   25.2037 O   0  0  0  0  0  0
   -2.3390   11.5692   23.1288 N   0  0  0  0  0  0
    2.9457    5.4618   23.5805 O   0  0  0  0  0  0
    5.1277    6.3040   23.1697 C   0  0  1  0  0  0
    5.2609    7.0397   21.9672 O   0  0  0  0  0  0
    6.2841    6.6130   24.1855 C   0  0  0  0  0  0
    7.6529    6.0854   23.7253 C   0  0  0  0  0  0
    5.9994    6.1381   25.6284 C   0  0  0  0  0  0
   -0.3055   12.8675   22.5373 H   0  0  0  0  0  0
    2.0643   13.1707   22.3670 H   0  0  0  0  0  0
    2.0319    9.0403   26.5825 H   0  0  0  0  0  0
   -0.7976    9.8278   26.1253 H   0  0  0  0  0  0
    2.6609   10.9119   25.9230 H   0  0  0  0  0  0
   -0.1529    7.6266   25.1038 H   0  0  0  0  0  0
    3.4407    9.8980   22.4818 H   0  0  0  0  0  0
    5.0814    9.3676   22.5171 H   0  0  0  0  0  0
    4.8612    8.5715   24.8357 H   0  0  0  0  0  0
    3.4554    9.3821   25.0940 H   0  0  0  0  0  0
    1.4559    8.9146   23.7097 H   0  0  0  0  0  0
    1.2128    7.2659   23.3056 H   0  0  0  0  0  0
    7.2813    9.9389   23.3523 H   0  0  0  0  0  0
    7.7569   11.2480   22.2621 H   0  0  0  0  0  0
    8.1798   11.2967   23.9565 H   0  0  0  0  0  0
    2.1785    6.1000   26.3053 H   0  0  0  0  0  0
    0.4839    5.9530   26.7612 H   0  0  0  0  0  0
    0.9844    5.4635   25.1733 H   0  0  0  0  0  0
    1.2181    7.5582   28.3024 H   0  0  0  0  0  0
    0.6225    9.1690   28.6123 H   0  0  0  0  0  0
   -0.4592    7.9648   27.9288 H   0  0  0  0  0  0
    3.0348   14.4745   25.1817 H   0  0  0  0  0  0
    3.7253   15.1709   23.7517 H   0  0  0  0  0  0
    7.1356   15.9392   25.4934 H   0  0  0  0  0  0
    6.3559   16.1305   23.9671 H   0  0  0  0  0  0
    4.1787   14.4598   27.2576 H   0  0  0  0  0  0
    5.7811   13.9691   26.7658 H   0  0  0  0  0  0
    5.6478   15.4521   27.5669 H   0  0  0  0  0  0
    3.4163   16.7690   25.9670 H   0  0  0  0  0  0
    4.8610   17.2830   26.5698 H   0  0  0  0  0  0
    4.5787   17.4699   24.8193 H   0  0  0  0  0  0
   -3.3497   11.5295   23.1391 H   0  0  0  0  0  0
   -1.8523   11.8504   22.2954 H   0  0  0  0  0  0
    5.2310    5.2527   22.8936 H   0  0  0  0  0  0
    6.0559    6.7692   21.4830 H   0  0  0  0  0  0
    6.4511    7.6864   24.2170 H   0  0  0  0  0  0
    7.6596    4.9999   23.6371 H   0  0  0  0  0  0
    7.9386    6.5070   22.7665 H   0  0  0  0  0  0
    8.4360    6.3850   24.4251 H   0  0  0  0  0  0
    5.8372    5.0607   25.6642 H   0  0  0  0  0  0
    6.8308    6.3697   26.2956 H   0  0  0  0  0  0
    5.1154    6.6165   26.0513 H   0  0  0  0  0  0
  1  3  1  0  0  0
  1  2  2  0  0  0
  1 39  1  0  0  0
  2  8  1  0  0  0
  2 40  1  0  0  0
  3 30  1  0  0  0
  3  4  2  0  0  0
  4  7  1  0  0  0
  4  6  1  0  0  0
  5 20  1  0  0  0
  5  9  1  0  0  0
  5  6  1  0  0  0
  5 41  1  0  0  0
  6 42  1  0  0  0
  7  8  2  0  0  0
  7 43  1  0  0  0
  8 16  1  0  0  0
  9 19  1  0  0  0
  9 13  1  0  0  0
  9 44  1  0  0  0
 10 15  1  0  0  0
 10 11  1  0  0  0
 10 45  1  0  0  0
 10 46  1  0  0  0
 11 12  1  0  0  0
 11 47  1  0  0  0
 11 48  1  0  0  0
 12 18  1  0  0  0
 12 13  1  0  0  0
 13 49  1  0  0  0
 13 50  1  0  0  0
 14 21  1  0  0  0
 14 15  2  0  0  0
 14 17  1  0  0  0
 15 16  1  0  0  0
 16 22  1  0  0  0
 17 51  1  0  0  0
 17 52  1  0  0  0
 17 53  1  0  0  0
 18 33  2  0  0  0
 18 34  1  0  0  0
 19 54  1  0  0  0
 19 55  1  0  0  0
 19 56  1  0  0  0
 20 57  1  0  0  0
 20 58  1  0  0  0
 20 59  1  0  0  0
 21 22  2  0  0  0
 21 26  1  0  0  0
 22 23  1  0  0  0
 23 24  1  0  0  0
 23 60  1  0  0  0
 23 61  1  0  0  0
 24 25  1  0  0  0
 24 27  1  0  0  0
 24 28  1  0  0  0
 25 26  1  0  0  0
 25 62  1  0  0  0
 25 63  1  0  0  0
 26 29  2  0  0  0
 27 64  1  0  0  0
 27 65  1  0  0  0
 27 66  1  0  0  0
 28 67  1  0  0  0
 28 68  1  0  0  0
 28 69  1  0  0  0
 30 31  2  0  0  0
 30 32  1  0  0  0
 32 70  1  0  0  0
 32 71  1  0  0  0
 34 35  1  0  0  0
 34 36  1  0  0  0
 34 72  1  0  0  0
 35 73  1  0  0  0
 36 37  1  0  0  0
 36 38  1  0  0  0
 36 74  1  0  0  0
 37 75  1  0  0  0
 37 76  1  0  0  0
 37 77  1  0  0  0
 38 78  1  0  0  0
 38 79  1  0  0  0
 38 80  1  0  0  0
M  END
> <s_m_entry_id>
4711

> <s_m_entry_name>
dock_pv.30

> <s_m_Source_Path>
/home/csk/Desktop/cluster/DUD-E-result/hs90a

> <s_m_Source_File>
dock_pv.maegz

> <i_m_Source_File_Index>
30

> <chembl_id>
CHEMBL1807813

> <chembl_pref_name>
None

> <i_lp_mmshare_version>
53161

> <r_lp_tautomer_probability>
0.99995

> <s_lp_Force_Field>
OPLS_2005

> <r_lp_Energy>
58.464081

> <b_lp_Chiralities_Consistent>
1

> <s_lp_Variant>
CHEMBL3880_lig252-1

> <s_i_glide_gridfile>
glide-grid_1uyg

> <i_i_glide_lignum>
286

> <i_i_glide_rotatable_bonds>
5

> <r_i_docking_score>
-9.4285669948482

> <r_i_glide_ligand_efficiency>
-0.248120184074953

> <r_i_glide_ligand_efficiency_sa>
-0.834173955778963

> <r_i_glide_ligand_efficiency_ln>
-2.03307640442943

> <r_i_glide_gscore>
-9.4285669948482

> <r_i_glide_lipo>
-4.93310130057701

> <r_i_glide_hbond>
-0.242523892424681

> <r_i_glide_metal>
0

> <r_i_glide_rewards>
-1.77614174192213

> <r_i_glide_evdw>
-34.1595344543457

> <r_i_glide_ecoul>
-6.02944278717041

> <r_i_glide_erotb>
0.15055562726395

> <r_i_glide_esite>
-0.0149625463954854

> <r_i_glide_emodel>
-38.7900209070894

> <r_i_glide_energy>
-40.1889772415161

> <r_i_glide_einternal>
10.5773820877075

> <i_i_glide_confnum>
8

> <i_i_glide_posenum>
307

> <r_i_glide_eff_state_penalty>
0

> <s_user_duplicate_titles>
CHEMBL3880_lig252

> <i_f3d_flags>
0

> <s_m_subgroup_title>
dock_pv

> <s_m_subgroupid>
dock_pv

> <b_m_subgroup_collapsed>
1

$$$$
CHEMBL3880_lig181
                    3D
 Schrodinger Suite 2021-1.
 59 62  0  0  1  0            999 V2000
    1.4903    7.4894   23.5993 C   0  0  0  0  0  0
    4.7013   16.3697   25.1802 C   0  0  0  0  0  0
    5.4109   15.0366   25.2739 C   0  0  0  0  0  0
    5.6286   14.7691   26.7666 C   0  0  0  0  0  0
    0.8399   11.9830   23.7937 C   0  0  0  0  0  0
    2.1860   12.1607   23.4774 C   0  0  0  0  0  0
    3.1600   11.3419   24.0589 C   0  0  0  0  0  0
    2.7561   10.3111   24.9029 C   0  0  0  0  0  0
    1.4074   10.0461   25.1271 C   0  0  0  0  0  0
    0.4248   10.9382   24.6385 C   0  0  0  0  0  0
   -1.0231   10.8566   25.0653 C   0  0  0  0  0  0
   -1.9393   11.1702   24.1481 N   0  0  0  0  0  0
   -1.3384   10.5824   26.2206 O   0  0  0  0  0  0
    1.1591    8.8181   25.7590 N   0  0  0  0  0  0
    0.6286    7.7906   24.8574 C   0  0  0  0  0  0
    4.5417   11.5708   23.8426 N   0  0  0  0  0  0
    6.7772   11.3060   23.5628 C   0  0  0  0  0  0
    5.5397   10.6425   23.5490 C   0  0  0  0  0  0
    6.5301   12.6351   23.9669 C   0  0  0  0  0  0
    5.1548   12.7911   24.0442 C   0  0  0  0  0  0
    4.4398   14.0277   24.5761 C   0  0  0  0  0  0
    6.8139   15.0744   24.6000 C   0  0  0  0  0  0
    7.4510   13.6882   24.4262 C   0  0  0  0  0  0
    8.6134   13.4938   24.7669 O   0  0  0  0  0  0
    8.1253   10.6385   23.3870 C   0  0  0  0  0  0
    5.2928    9.1331   23.3838 C   0  0  0  0  0  0
    2.8793    7.1178   23.8734 N   0  0  2  0  0  0
    4.1994    8.6779   22.3878 C   0  0  0  0  0  0
    3.7043    7.2299   22.6629 C   0  0  0  0  0  0
    1.0181    6.6905   23.0245 H   0  0  0  0  0  0
    1.4736    8.3675   22.9577 H   0  0  0  0  0  0
    5.2721   17.1680   25.6257 H   0  0  0  0  0  0
    4.4624   16.6586   24.1694 H   0  0  0  0  0  0
    3.7530   16.3428   25.7218 H   0  0  0  0  0  0
    5.6151   15.6813   27.3611 H   0  0  0  0  0  0
    4.8620   14.1032   27.1658 H   0  0  0  0  0  0
    6.6188   14.3692   26.9702 H   0  0  0  0  0  0
    0.1246   12.6868   23.3905 H   0  0  0  0  0  0
    2.4691   12.9699   22.8209 H   0  0  0  0  0  0
    3.4931    9.6674   25.3554 H   0  0  0  0  0  0
   -2.9163   11.2303   24.4110 H   0  0  0  0  0  0
   -1.6826   11.2923   23.1827 H   0  0  0  0  0  0
    1.9889    8.4804   26.2244 H   0  0  0  0  0  0
    0.4506    6.8802   25.4294 H   0  0  0  0  0  0
   -0.3422    8.1218   24.4947 H   0  0  0  0  0  0
    4.0213   14.4852   23.6796 H   0  0  0  0  0  0
    3.5907   13.7911   25.2193 H   0  0  0  0  0  0
    6.8041   15.4981   23.6055 H   0  0  0  0  0  0
    7.5019   15.6948   25.1751 H   0  0  0  0  0  0
    8.4430   10.6452   22.3442 H   0  0  0  0  0  0
    8.9145   11.1128   23.9683 H   0  0  0  0  0  0
    8.1244    9.6015   23.7233 H   0  0  0  0  0  0
    5.0915    8.7001   24.3604 H   0  0  0  0  0  0
    6.2121    8.6329   23.0807 H   0  0  0  0  0  0
    2.9149    6.1671   24.2167 H   0  0  0  0  0  0
    4.6180    8.7190   21.3813 H   0  0  0  0  0  0
    3.3508    9.3580   22.3603 H   0  0  0  0  0  0
    4.5821    6.5964   22.8029 H   0  0  0  0  0  0
    3.1819    6.8189   21.7958 H   0  0  0  0  0  0
  1 15  1  0  0  0
  1 27  1  0  0  0
  1 30  1  0  0  0
  1 31  1  0  0  0
  2  3  1  0  0  0
  2 32  1  0  0  0
  2 33  1  0  0  0
  2 34  1  0  0  0
  3  4  1  0  0  0
  3 21  1  0  0  0
  3 22  1  0  0  0
  4 35  1  0  0  0
  4 36  1  0  0  0
  4 37  1  0  0  0
  5  6  2  0  0  0
  5 10  1  0  0  0
  5 38  1  0  0  0
  6  7  1  0  0  0
  6 39  1  0  0  0
  7  8  2  0  0  0
  7 16  1  0  0  0
  8  9  1  0  0  0
  8 40  1  0  0  0
  9 10  2  0  0  0
  9 14  1  0  0  0
 10 11  1  0  0  0
 11 12  1  0  0  0
 11 13  2  0  0  0
 12 41  1  0  0  0
 12 42  1  0  0  0
 14 15  1  0  0  0
 14 43  1  0  0  0
 15 44  1  0  0  0
 15 45  1  0  0  0
 16 20  1  0  0  0
 16 18  1  0  0  0
 17 19  1  0  0  0
 17 18  2  0  0  0
 17 25  1  0  0  0
 18 26  1  0  0  0
 19 20  2  0  0  0
 19 23  1  0  0  0
 20 21  1  0  0  0
 21 46  1  0  0  0
 21 47  1  0  0  0
 22 23  1  0  0  0
 22 48  1  0  0  0
 22 49  1  0  0  0
 23 24  2  0  0  0
 25 50  1  0  0  0
 25 51  1  0  0  0
 25 52  1  0  0  0
 26 28  1  0  0  0
 26 53  1  0  0  0
 26 54  1  0  0  0
 27 29  1  0  0  0
 27 55  1  0  0  0
 28 29  1  0  0  0
 28 56  1  0  0  0
 28 57  1  0  0  0
 29 58  1  0  0  0
 29 59  1  0  0  0
M  END
> <s_m_entry_id>
4712

> <s_m_entry_name>
dock_pv.31

> <s_m_Source_Path>
/home/csk/Desktop/cluster/DUD-E-result/hs90a

> <s_m_Source_File>
dock_pv.maegz

> <i_m_Source_File_Index>
31

> <chembl_id>
CHEMBL1760602

> <chembl_pref_name>
None

> <i_lp_mmshare_version>
53161

> <r_lp_tautomer_probability>
0.99995

> <s_lp_Force_Field>
OPLS_2005

> <r_lp_Energy>
45.015143

> <b_lp_Chiralities_Consistent>
1

> <s_lp_Variant>
CHEMBL3880_lig181-1

> <s_i_glide_gridfile>
glide-grid_1uyg

> <i_i_glide_lignum>
212

> <i_i_glide_rotatable_bonds>
1

> <r_i_docking_score>
-9.40182454438353

> <r_i_glide_ligand_efficiency>
-0.324200846358053

> <r_i_glide_ligand_efficiency_sa>
-0.996047714049442

> <r_i_glide_ligand_efficiency_ln>
-2.15277941096394

> <r_i_glide_gscore>
-9.40182454438353

> <r_i_glide_lipo>
-4.24126410598185

> <r_i_glide_hbond>
-0.141755507676271

> <r_i_glide_metal>
0

> <r_i_glide_rewards>
-2.40776414779694

> <r_i_glide_evdw>
-37.5990028381348

> <r_i_glide_ecoul>
-4.87393760681152

> <r_i_glide_erotb>
0

> <r_i_glide_esite>
0

> <r_i_glide_emodel>
-44.8430422353406

> <r_i_glide_energy>
-42.4729404449463

> <r_i_glide_einternal>
2.32646703720093

> <i_i_glide_confnum>
4

> <i_i_glide_posenum>
18

> <r_i_glide_eff_state_penalty>
0

> <s_user_duplicate_titles>
CHEMBL3880_lig181

> <i_f3d_flags>
0

> <s_m_subgroup_title>
dock_pv

> <s_m_subgroupid>
dock_pv

> <b_m_subgroup_collapsed>
1

$$$$
CHEMBL3880_lig219
                    3D
 Schrodinger Suite 2021-1.
 38 40  0  0  1  0            999 V2000
    4.6921   14.4763   24.8147 C   0  0  0  0  0  0
    5.9985   14.0398   24.5328 C   0  0  0  0  0  0
    6.2028   12.7720   23.9657 C   0  0  0  0  0  0
    3.5930   13.6532   24.5488 C   0  0  0  0  0  0
    3.8203   12.3889   24.0036 C   0  0  0  0  0  0
    5.0901   11.9686   23.7159 C   0  0  0  0  0  0
    4.9686   10.7043   23.2014 N   0  0  0  0  0  0
    3.6810   10.3057   23.1618 C   0  0  0  0  0  0
    2.9659   11.3560   23.6535 N   0  0  0  0  0  0
    3.2697    9.2126   22.7787 O   0  0  0  0  0  0
    1.6129   11.2935   24.0313 C   0  0  0  0  0  0
    1.2769   10.5533   25.1701 C   0  0  0  0  0  0
   -0.0419   10.4945   25.6139 C   0  0  0  0  0  0
   -1.0418   11.1690   24.9060 C   0  0  0  0  0  0
   -0.7194   11.9015   23.7636 C   0  0  0  0  0  0
    0.6038   11.9698   23.3227 C   0  0  0  0  0  0
    0.8695   12.6945   22.1909 O   0  0  0  0  0  0
   -0.4035    9.6013   27.0521 Cl  0  0  0  0  0  0
   -2.3390   11.1246   25.3359 O   0  0  0  0  0  0
    7.1801   14.9679   24.7703 C   0  0  0  0  0  0
    8.0600   14.5149   25.8485 N   0  0  0  0  0  0
    9.3983   14.4579   25.7784 C   0  0  0  0  0  0
   10.1334   13.9780   27.0240 C   0  0  0  0  0  0
   10.0400   14.7689   24.7752 O   0  0  0  0  0  0
    4.5240   15.4589   25.2310 H   0  0  0  0  0  0
    7.2030   12.4349   23.7325 H   0  0  0  0  0  0
    2.5937   14.0012   24.7623 H   0  0  0  0  0  0
    5.7374   10.1160   22.9171 H   0  0  0  0  0  0
    2.0452   10.0364   25.7289 H   0  0  0  0  0  0
   -1.5010   12.4149   23.2226 H   0  0  0  0  0  0
    0.0829   13.1309   21.8574 H   0  0  0  0  0  0
   -2.9914   11.5594   24.7701 H   0  0  0  0  0  0
    6.8270   15.9691   25.0233 H   0  0  0  0  0  0
    7.7127   15.0861   23.8235 H   0  0  0  0  0  0
    7.6168   14.3139   26.7320 H   0  0  0  0  0  0
    9.4470   13.6101   27.7882 H   0  0  0  0  0  0
   10.7149   14.7948   27.4538 H   0  0  0  0  0  0
   10.8167   13.1693   26.7646 H   0  0  0  0  0  0
  1  2  2  0  0  0
  1  4  1  0  0  0
  1 25  1  0  0  0
  2  3  1  0  0  0
  2 20  1  0  0  0
  3  6  2  0  0  0
  3 26  1  0  0  0
  4  5  2  0  0  0
  4 27  1  0  0  0
  5  9  1  0  0  0
  5  6  1  0  0  0
  6  7  1  0  0  0
  7  8  1  0  0  0
  7 28  1  0  0  0
  8  9  1  0  0  0
  8 10  2  0  0  0
  9 11  1  0  0  0
 11 12  2  0  0  0
 11 16  1  0  0  0
 12 13  1  0  0  0
 12 29  1  0  0  0
 13 14  2  0  0  0
 13 18  1  0  0  0
 14 15  1  0  0  0
 14 19  1  0  0  0
 15 16  2  0  0  0
 15 30  1  0  0  0
 16 17  1  0  0  0
 17 31  1  0  0  0
 19 32  1  0  0  0
 20 21  1  0  0  0
 20 33  1  0  0  0
 20 34  1  0  0  0
 21 22  1  0  0  0
 21 35  1  0  0  0
 22 23  1  0  0  0
 22 24  2  0  0  0
 23 36  1  0  0  0
 23 37  1  0  0  0
 23 38  1  0  0  0
M  END
> <s_m_entry_id>
4713

> <s_m_entry_name>
dock_pv.32

> <s_m_Source_Path>
/home/csk/Desktop/cluster/DUD-E-result/hs90a

> <s_m_Source_File>
dock_pv.maegz

> <i_m_Source_File_Index>
32

> <chembl_id>
CHEMBL1801572

> <chembl_pref_name>
None

> <i_lp_mmshare_version>
53161

> <r_lp_tautomer_probability>
1

> <s_lp_Force_Field>
OPLS_2005

> <r_lp_Energy>
47.290293

> <b_lp_Chiralities_Consistent>
1

> <s_lp_Variant>
CHEMBL3880_lig219-1

> <s_i_glide_gridfile>
glide-grid_1uyg

> <i_i_glide_lignum>
253

> <i_i_glide_rotatable_bonds>
6

> <r_i_docking_score>
-9.40157228312374

> <r_i_glide_ligand_efficiency>
-0.391732178463489

> <r_i_glide_ligand_efficiency_sa>
-1.12995113093209

> <r_i_glide_ligand_efficiency_ln>
-2.25022765739253

> <r_i_glide_gscore>
-9.40157228312374

> <r_i_glide_lipo>
-3.6940706325123

> <r_i_glide_hbond>
-0.455180317560667

> <r_i_glide_metal>
0

> <r_i_glide_rewards>
-2.27674750784767

> <r_i_glide_evdw>
-44.4066352844238

> <r_i_glide_ecoul>
-8.18187808990479

> <r_i_glide_erotb>
0.472039652503809

> <r_i_glide_esite>
0

> <r_i_glide_emodel>
-80.3643215558843

> <r_i_glide_energy>
-52.5885133743286

> <r_i_glide_einternal>
2.69341039657593

> <i_i_glide_confnum>
16

> <i_i_glide_posenum>
171

> <r_i_glide_eff_state_penalty>
0

> <s_user_duplicate_titles>
CHEMBL3880_lig219

> <i_f3d_flags>
0

> <s_m_subgroup_title>
dock_pv

> <s_m_subgroupid>
dock_pv

> <b_m_subgroup_collapsed>
1

$$$$
CHEMBL3880_lig970
                    3D
 Schrodinger Suite 2021-1.
 56 60  0  0  1  0            999 V2000
    5.2610    8.9065   21.2617 C   0  0  0  0  0  0
    5.4972    8.3842   22.7074 C   0  0  0  0  0  0
    5.2608    6.8643   22.8660 C   0  0  0  0  0  0
    0.7587   10.3229   25.1996 C   0  0  0  0  0  0
    2.1348   10.5072   25.0799 C   0  0  0  0  0  0
    2.6684   11.4952   24.2530 C   0  0  0  0  0  0
    1.8181   12.3432   23.5565 C   0  0  0  0  0  0
    4.0575   11.5917   24.0827 N   0  0  0  0  0  0
    4.9142   10.5438   23.8487 C   0  0  0  0  0  0
    6.2039   11.0439   23.6838 C   0  0  0  0  0  0
    7.3239   10.1742   23.3152 C   0  0  0  0  0  0
    6.9588    8.6826   23.1726 C   0  0  0  0  0  0
    4.4885    9.0908   23.6465 C   0  0  0  0  0  0
    8.4585   10.5846   23.0895 O   0  0  0  0  0  0
    6.1695   12.4287   23.9653 C   0  0  0  0  0  0
    4.8190   12.7358   24.0932 C   0  0  0  0  0  0
    7.3140   13.4116   24.0054 C   0  0  0  0  0  0
   -0.1051   11.1973   24.5010 C   0  0  0  0  0  0
    0.4388   12.2058   23.6802 C   0  0  0  0  0  0
   -0.5029   13.1182   22.9326 C   0  0  0  0  0  0
   -1.7756   12.3455   22.5422 C   0  0  0  0  0  0
   -2.3387   11.7596   23.7625 N   0  0  0  0  0  0
   -1.6088   11.1526   24.7239 C   0  0  0  0  0  0
   -2.1813   10.7681   25.7385 O   0  0  0  0  0  0
    0.3265    9.1491   26.0003 C   0  0  0  0  0  0
    0.3799    7.8659   25.4445 C   0  0  0  0  0  0
    0.0612    6.7520   26.2179 C   0  0  0  0  0  0
   -0.2996    6.9219   27.5531 C   0  0  0  0  0  0
   -0.3502    8.1960   28.1138 C   0  0  0  0  0  0
   -0.0546    9.3049   27.3314 C   0  0  0  0  0  0
    4.4192    8.3978   20.7899 H   0  0  0  0  0  0
    5.0368    9.9692   21.2306 H   0  0  0  0  0  0
    6.1289    8.7690   20.6216 H   0  0  0  0  0  0
    4.2969    6.5637   22.4526 H   0  0  0  0  0  0
    6.0309    6.2782   22.3670 H   0  0  0  0  0  0
    5.2758    6.5547   23.9119 H   0  0  0  0  0  0
    2.7944    9.8488   25.6278 H   0  0  0  0  0  0
    2.2236   13.1085   22.9101 H   0  0  0  0  0  0
    7.6912    8.2087   22.5183 H   0  0  0  0  0  0
    7.1136    8.2533   24.1625 H   0  0  0  0  0  0
    3.4729    8.9881   23.2602 H   0  0  0  0  0  0
    4.5030    8.6211   24.6313 H   0  0  0  0  0  0
    4.3414   13.6893   24.2620 H   0  0  0  0  0  0
    6.9799   14.4486   23.9639 H   0  0  0  0  0  0
    7.9198   13.2774   24.9009 H   0  0  0  0  0  0
    7.9893   13.2644   23.1644 H   0  0  0  0  0  0
   -0.7592   13.9683   23.5664 H   0  0  0  0  0  0
   -0.0143   13.5135   22.0435 H   0  0  0  0  0  0
   -2.5049   13.0185   22.0894 H   0  0  0  0  0  0
   -1.5764   11.5843   21.7882 H   0  0  0  0  0  0
   -3.3318   11.9174   23.9692 H   0  0  0  0  0  0
    0.6737    7.7321   24.4128 H   0  0  0  0  0  0
    0.0963    5.7635   25.7833 H   0  0  0  0  0  0
   -0.5443    6.0606   28.1564 H   0  0  0  0  0  0
   -0.6313    8.3353   29.1466 H   0  0  0  0  0  0
   -0.1194   10.2930   27.7538 H   0  0  0  0  0  0
  1  2  1  0  0  0
  1 31  1  0  0  0
  1 32  1  0  0  0
  1 33  1  0  0  0
  2  3  1  0  0  0
  2 12  1  0  0  0
  2 13  1  0  0  0
  3 34  1  0  0  0
  3 35  1  0  0  0
  3 36  1  0  0  0
  4  5  2  0  0  0
  4 18  1  0  0  0
  4 25  1  0  0  0
  5  6  1  0  0  0
  5 37  1  0  0  0
  6  7  2  0  0  0
  6  8  1  0  0  0
  7 19  1  0  0  0
  7 38  1  0  0  0
  8 16  1  0  0  0
  8  9  1  0  0  0
  9 10  2  0  0  0
  9 13  1  0  0  0
 10 15  1  0  0  0
 10 11  1  0  0  0
 11 12  1  0  0  0
 11 14  2  0  0  0
 12 39  1  0  0  0
 12 40  1  0  0  0
 13 41  1  0  0  0
 13 42  1  0  0  0
 15 16  2  0  0  0
 15 17  1  0  0  0
 16 43  1  0  0  0
 17 44  1  0  0  0
 17 45  1  0  0  0
 17 46  1  0  0  0
 18 19  2  0  0  0
 18 23  1  0  0  0
 19 20  1  0  0  0
 20 21  1  0  0  0
 20 47  1  0  0  0
 20 48  1  0  0  0
 21 22  1  0  0  0
 21 49  1  0  0  0
 21 50  1  0  0  0
 22 23  1  0  0  0
 22 51  1  0  0  0
 23 24  2  0  0  0
 25 26  2  0  0  0
 25 30  1  0  0  0
 26 27  1  0  0  0
 26 52  1  0  0  0
 27 28  2  0  0  0
 27 53  1  0  0  0
 28 29  1  0  0  0
 28 54  1  0  0  0
 29 30  2  0  0  0
 29 55  1  0  0  0
 30 56  1  0  0  0
M  END
> <s_m_entry_id>
4714

> <s_m_entry_name>
dock_pv.33

> <s_m_Source_Path>
/home/csk/Desktop/cluster/DUD-E-result/hs90a

> <s_m_Source_File>
dock_pv.maegz

> <i_m_Source_File_Index>
33

> <chembl_id>
CHEMBL3235360

> <chembl_pref_name>
None

> <i_lp_mmshare_version>
53161

> <r_lp_tautomer_probability>
0.99995

> <s_lp_Force_Field>
OPLS_2005

> <r_lp_Energy>
38.337435

> <b_lp_Chiralities_Consistent>
1

> <s_lp_Variant>
CHEMBL3880_lig970-1

> <s_i_glide_gridfile>
glide-grid_1uyg

> <i_i_glide_lignum>
1079

> <i_i_glide_rotatable_bonds>
2

> <r_i_docking_score>
-9.3987057059997

> <r_i_glide_ligand_efficiency>
-0.31329019019999

> <r_i_glide_ligand_efficiency_sa>
-0.973465461682227

> <r_i_glide_ligand_efficiency_ln>
-2.13548834350396

> <r_i_glide_gscore>
-9.3987057059997

> <r_i_glide_lipo>
-4.56629711091982

> <r_i_glide_hbond>
-0.16

> <r_i_glide_metal>
0

> <r_i_glide_rewards>
-2.00947141127013

> <r_i_glide_evdw>
-45.7854194641113

> <r_i_glide_ecoul>
-3.72654843330383

> <r_i_glide_erotb>
0.246665714465544

> <r_i_glide_esite>
-0.0613496600741519

> <r_i_glide_emodel>
-61.8427046921921

> <r_i_glide_energy>
-49.5119678974152

> <r_i_glide_einternal>
2.01384902000427

> <i_i_glide_confnum>
31

> <i_i_glide_posenum>
357

> <r_i_glide_eff_state_penalty>
0

> <s_user_duplicate_titles>
CHEMBL3880_lig970

> <i_f3d_flags>
0

> <s_m_subgroup_title>
dock_pv

> <s_m_subgroupid>
dock_pv

> <b_m_subgroup_collapsed>
1

$$$$
CHEMBL3880_lig758
                    3D
 Schrodinger Suite 2021-1.
 41 42  0  0  1  0            999 V2000
    6.8610   13.2015   24.1669 C   0  0  0  0  0  0
    5.5548   12.7701   23.9393 C   0  0  0  0  0  0
    4.4484   13.5305   24.3670 C   0  0  0  0  0  0
    4.7055   14.7649   24.9867 C   0  0  0  0  0  0
    6.0034   15.2129   25.1806 C   0  0  0  0  0  0
    7.0914   14.4051   24.8374 C   0  0  0  0  0  0
    8.4992   14.8016   25.2172 C   0  0  0  0  0  0
    8.7586   15.1690   26.4967 N   0  0  0  0  0  0
    3.0916   13.0953   24.1775 N   0  0  0  0  0  0
    2.7220   11.7761   24.3668 C   0  0  0  0  0  0
    2.0855   14.1593   23.9670 C   0  0  0  0  0  0
    1.2543   11.3743   24.5213 C   0  0  0  0  0  0
    3.5484   10.8796   24.5647 O   0  0  0  0  0  0
    0.2242   11.9380   23.7425 C   0  0  0  0  0  0
   -1.1164   11.7205   24.0517 C   0  0  0  0  0  0
   -1.4472   10.8978   25.1196 C   0  0  0  0  0  0
   -0.4580   10.2071   25.8025 C   0  0  0  0  0  0
    0.8808   10.4131   25.4914 C   0  0  0  0  0  0
    1.7976    9.6742   26.1955 O   0  0  0  0  0  0
   -2.7390   10.7690   25.5231 O   0  0  0  0  0  0
    9.3847   14.7690   24.3670 O   0  0  0  0  0  0
    7.8191   15.0338   27.6050 C   0  0  0  0  0  0
   10.1012   15.5645   26.9387 C   0  0  0  0  0  0
    7.6866   12.5763   23.8543 H   0  0  0  0  0  0
    5.4212   11.8370   23.4137 H   0  0  0  0  0  0
    3.9161   15.3926   25.3685 H   0  0  0  0  0  0
    6.1533   16.1658   25.6698 H   0  0  0  0  0  0
    1.2666   14.1022   24.6841 H   0  0  0  0  0  0
    2.4785   15.1694   24.0182 H   0  0  0  0  0  0
    1.6860   14.0995   22.9566 H   0  0  0  0  0  0
    0.4280   12.5668   22.8931 H   0  0  0  0  0  0
   -1.8916   12.2119   23.4810 H   0  0  0  0  0  0
   -0.7291    9.5249   26.5945 H   0  0  0  0  0  0
    2.6883    9.8769   25.8840 H   0  0  0  0  0  0
   -3.3887   11.2922   25.0262 H   0  0  0  0  0  0
    6.7995   14.7686   27.3525 H   0  0  0  0  0  0
    7.7516   15.9690   28.1610 H   0  0  0  0  0  0
    8.1753   14.2571   28.2826 H   0  0  0  0  0  0
   10.7947   15.7319   26.1133 H   0  0  0  0  0  0
   10.0610   16.4853   27.5208 H   0  0  0  0  0  0
   10.5264   14.7918   27.5805 H   0  0  0  0  0  0
  1  2  2  0  0  0
  1  6  1  0  0  0
  1 24  1  0  0  0
  2  3  1  0  0  0
  2 25  1  0  0  0
  3  4  2  0  0  0
  3  9  1  0  0  0
  4  5  1  0  0  0
  4 26  1  0  0  0
  5  6  2  0  0  0
  5 27  1  0  0  0
  6  7  1  0  0  0
  7  8  1  0  0  0
  7 21  2  0  0  0
  8 22  1  0  0  0
  8 23  1  0  0  0
  9 10  1  0  0  0
  9 11  1  0  0  0
 10 12  1  0  0  0
 10 13  2  0  0  0
 11 28  1  0  0  0
 11 29  1  0  0  0
 11 30  1  0  0  0
 12 14  2  0  0  0
 12 18  1  0  0  0
 14 15  1  0  0  0
 14 31  1  0  0  0
 15 16  2  0  0  0
 15 32  1  0  0  0
 16 17  1  0  0  0
 16 20  1  0  0  0
 17 18  2  0  0  0
 17 33  1  0  0  0
 18 19  1  0  0  0
 19 34  1  0  0  0
 20 35  1  0  0  0
 22 36  1  0  0  0
 22 37  1  0  0  0
 22 38  1  0  0  0
 23 39  1  0  0  0
 23 40  1  0  0  0
 23 41  1  0  0  0
M  END
> <s_m_entry_id>
4715

> <s_m_entry_name>
dock_pv.34

> <s_m_Source_Path>
/home/csk/Desktop/cluster/DUD-E-result/hs90a

> <s_m_Source_File>
dock_pv.maegz

> <i_m_Source_File_Index>
34

> <chembl_id>
CHEMBL4089806

> <chembl_pref_name>
None

> <i_lp_mmshare_version>
53161

> <r_lp_tautomer_probability>
0.999999999898

> <s_lp_Force_Field>
OPLS_2005

> <r_lp_Energy>
47.824699

> <b_lp_Chiralities_Consistent>
1

> <s_lp_Variant>
CHEMBL3880_lig758-1

> <s_i_glide_gridfile>
glide-grid_1uyg

> <i_i_glide_lignum>
859

> <i_i_glide_rotatable_bonds>
7

> <r_i_docking_score>
-9.38135408839347

> <r_i_glide_ligand_efficiency>
-0.407884960364934

> <r_i_glide_ligand_efficiency_sa>
-1.15997056914754

> <r_i_glide_ligand_efficiency_ln>
-2.26849648398933

> <r_i_glide_gscore>
-9.38135408839347

> <r_i_glide_lipo>
-3.70710253571655

> <r_i_glide_hbond>
-0.422343822151433

> <r_i_glide_metal>
0

> <r_i_glide_rewards>
-2.7449373069645

> <r_i_glide_evdw>
-40.3047676086426

> <r_i_glide_ecoul>
-8.29457092285156

> <r_i_glide_erotb>
0.752453595298867

> <r_i_glide_esite>
0

> <r_i_glide_emodel>
-69.690798678188

> <r_i_glide_energy>
-48.5993385314941

> <r_i_glide_einternal>
11.8894853591919

> <i_i_glide_confnum>
73

> <i_i_glide_posenum>
86

> <r_i_glide_eff_state_penalty>
0

> <s_user_duplicate_titles>
CHEMBL3880_lig758

> <i_f3d_flags>
0

> <s_m_subgroup_title>
dock_pv

> <s_m_subgroupid>
dock_pv

> <b_m_subgroup_collapsed>
1

$$$$
CHEMBL3880_lig274
                    3D
 Schrodinger Suite 2021-1.
 69 73  0  0  1  0            999 V2000
   -1.5422   11.0834   24.7692 C   0  0  0  0  0  0
   -1.5386   11.8100   23.5848 C   0  0  0  0  0  0
   -0.3320   12.1929   23.0140 C   0  0  0  0  0  0
    0.8730   11.9398   23.6876 C   0  0  0  0  0  0
    0.8539   11.1783   24.8605 C   0  0  0  0  0  0
   -0.3416   10.6863   25.3679 C   0  0  0  0  0  0
   -0.3671   12.7690   21.7737 O   0  0  0  0  0  0
    2.2070   12.4615   23.1764 C   0  0  0  0  0  0
    3.2704   11.3580   23.1671 C   0  0  0  0  0  0
    2.6472   13.6911   23.9861 C   0  0  0  0  0  0
   -2.7390   10.7689   25.3231 O   0  0  0  0  0  0
   -0.3024    9.7718   26.4426 N   0  0  0  0  0  0
    0.4694    8.6239   26.5984 C   0  0  0  0  0  0
    0.0622    8.1470   27.8376 C   0  0  0  0  0  0
   -0.8619    8.9141   28.3670 N   0  0  0  0  0  0
   -1.0817    9.9690   27.5156 N   0  0  0  0  0  0
    1.4944    8.0588   25.6607 C   0  0  0  0  0  0
    1.3303    8.0666   24.2727 C   0  0  0  0  0  0
    2.3467    7.5968   23.4390 C   0  0  0  0  0  0
    3.5279    7.0859   23.9846 C   0  0  0  0  0  0
    3.6471    6.9879   25.3749 C   0  0  0  0  0  0
    2.6481    7.4891   26.2055 C   0  0  0  0  0  0
    4.6856    6.6403   23.0690 C   0  0  0  0  0  0
    5.7988    7.6038   22.9154 N   0  0  0  0  0  0
    5.4009    8.8307   22.2180 C   0  0  0  0  0  0
    6.5452    9.8851   22.1533 C   0  0  0  0  0  0
    7.0263   10.2451   23.5004 N   0  0  0  0  0  0
    7.5706    8.9935   24.0579 C   0  0  0  0  0  0
    6.4353    7.9427   24.1868 C   0  0  0  0  0  0
    8.0300   11.3322   23.4789 C   0  0  0  0  0  0
    7.6610   12.5993   24.2855 C   0  0  0  0  0  0
    6.4624   13.2770   24.0636 C   0  0  0  0  0  0
    6.1698   14.4473   24.7670 C   0  0  0  0  0  0
    7.0918   14.9691   25.6671 C   0  0  0  0  0  0
    8.3139   14.3388   25.8652 C   0  0  0  0  0  0
    8.5974   13.1690   25.1670 C   0  0  0  0  0  0
   -2.4750   12.0480   23.0996 H   0  0  0  0  0  0
    1.7713   10.9421   25.3798 H   0  0  0  0  0  0
   -1.2673   12.8259   21.4427 H   0  0  0  0  0  0
    2.0796   12.7690   22.1405 H   0  0  0  0  0  0
    2.9223   10.5324   22.5464 H   0  0  0  0  0  0
    3.5061   10.9688   24.1571 H   0  0  0  0  0  0
    4.2103   11.7086   22.7670 H   0  0  0  0  0  0
    1.8792   14.4658   23.9833 H   0  0  0  0  0  0
    2.8610   13.4337   25.0244 H   0  0  0  0  0  0
    3.5477   14.1299   23.5670 H   0  0  0  0  0  0
   -3.4848   11.2368   24.9145 H   0  0  0  0  0  0
    0.4199    7.2587   28.3364 H   0  0  0  0  0  0
    0.4195    8.4518   23.8398 H   0  0  0  0  0  0
    2.2196    7.6401   22.3673 H   0  0  0  0  0  0
    4.5375    6.5660   25.8174 H   0  0  0  0  0  0
    2.7857    7.4505   27.2764 H   0  0  0  0  0  0
    5.0879    5.7035   23.4572 H   0  0  0  0  0  0
    4.2892    6.3954   22.0820 H   0  0  0  0  0  0
    5.0735    8.5800   21.2084 H   0  0  0  0  0  0
    4.5471    9.2481   22.7351 H   0  0  0  0  0  0
    6.1715   10.7690   21.6509 H   0  0  0  0  0  0
    7.3660    9.5049   21.5420 H   0  0  0  0  0  0
    8.0091    9.1689   25.0405 H   0  0  0  0  0  0
    8.3752    8.6016   23.4318 H   0  0  0  0  0  0
    5.6349    8.3690   24.7670 H   0  0  0  0  0  0
    6.7929    7.0454   24.6930 H   0  0  0  0  0  0
    8.9885   10.9640   23.8505 H   0  0  0  0  0  0
    8.2348   11.6444   22.4549 H   0  0  0  0  0  0
    5.7655   12.9076   23.3355 H   0  0  0  0  0  0
    5.2442   14.9747   24.6010 H   0  0  0  0  0  0
    6.8615   15.8789   26.2032 H   0  0  0  0  0  0
    9.0330   14.7508   26.5584 H   0  0  0  0  0  0
    9.5489   12.6827   25.3268 H   0  0  0  0  0  0
  1  2  2  0  0  0
  1  6  1  0  0  0
  1 11  1  0  0  0
  2  3  1  0  0  0
  2 37  1  0  0  0
  3  4  2  0  0  0
  3  7  1  0  0  0
  4  5  1  0  0  0
  4  8  1  0  0  0
  5  6  2  0  0  0
  5 38  1  0  0  0
  6 12  1  0  0  0
  7 39  1  0  0  0
  8  9  1  0  0  0
  8 10  1  0  0  0
  8 40  1  0  0  0
  9 41  1  0  0  0
  9 42  1  0  0  0
  9 43  1  0  0  0
 10 44  1  0  0  0
 10 45  1  0  0  0
 10 46  1  0  0  0
 11 47  1  0  0  0
 12 13  1  0  0  0
 12 16  1  0  0  0
 13 14  2  0  0  0
 13 17  1  0  0  0
 14 15  1  0  0  0
 14 48  1  0  0  0
 15 16  2  0  0  0
 17 18  2  0  0  0
 17 22  1  0  0  0
 18 19  1  0  0  0
 18 49  1  0  0  0
 19 20  2  0  0  0
 19 50  1  0  0  0
 20 21  1  0  0  0
 20 23  1  0  0  0
 21 22  2  0  0  0
 21 51  1  0  0  0
 22 52  1  0  0  0
 23 24  1  0  0  0
 23 53  1  0  0  0
 23 54  1  0  0  0
 24 25  1  0  0  0
 24 29  1  0  0  0
 25 26  1  0  0  0
 25 55  1  0  0  0
 25 56  1  0  0  0
 26 27  1  0  0  0
 26 57  1  0  0  0
 26 58  1  0  0  0
 27 28  1  0  0  0
 27 30  1  0  0  0
 28 29  1  0  0  0
 28 59  1  0  0  0
 28 60  1  0  0  0
 29 61  1  0  0  0
 29 62  1  0  0  0
 30 31  1  0  0  0
 30 63  1  0  0  0
 30 64  1  0  0  0
 31 32  2  0  0  0
 31 36  1  0  0  0
 32 33  1  0  0  0
 32 65  1  0  0  0
 33 34  2  0  0  0
 33 66  1  0  0  0
 34 35  1  0  0  0
 34 67  1  0  0  0
 35 36  2  0  0  0
 35 68  1  0  0  0
 36 69  1  0  0  0
M  END
> <s_m_entry_id>
4716

> <s_m_entry_name>
dock_pv.35

> <s_m_Source_Path>
/home/csk/Desktop/cluster/DUD-E-result/hs90a

> <s_m_Source_File>
dock_pv.maegz

> <i_m_Source_File_Index>
35

> <chembl_id>
CHEMBL3234761

> <chembl_pref_name>
None

> <i_lp_mmshare_version>
53161

> <r_lp_tautomer_probability>
1

> <s_lp_Force_Field>
OPLS_2005

> <r_lp_Energy>
48.474385

> <b_lp_Chiralities_Consistent>
1

> <s_lp_Variant>
CHEMBL3880_lig274-1

> <s_i_glide_gridfile>
glide-grid_1uyg

> <i_i_glide_lignum>
308

> <i_i_glide_rotatable_bonds>
9

> <r_i_docking_score>
-9.37682004459367

> <r_i_glide_ligand_efficiency>
-0.260467223460935

> <r_i_glide_ligand_efficiency_sa>
-0.86004382156226

> <r_i_glide_ligand_efficiency_ln>
-2.0457688013289

> <r_i_glide_gscore>
-9.37682004459367

> <r_i_glide_lipo>
-5.23940284746808

> <r_i_glide_hbond>
-0.16

> <r_i_glide_metal>
0

> <r_i_glide_rewards>
-1.17117461716668

> <r_i_glide_evdw>
-52.526798248291

> <r_i_glide_ecoul>
-4.67164850234985

> <r_i_glide_erotb>
0.520844607808123

> <r_i_glide_esite>
0

> <r_i_glide_emodel>
-73.8966760698815

> <r_i_glide_energy>
-57.1984467506409

> <r_i_glide_einternal>
12.9385204315186

> <i_i_glide_confnum>
23

> <i_i_glide_posenum>
315

> <r_i_glide_eff_state_penalty>
0

> <s_user_duplicate_titles>
CHEMBL3880_lig274

> <i_f3d_flags>
0

> <s_m_subgroup_title>
dock_pv

> <s_m_subgroupid>
dock_pv

> <b_m_subgroup_collapsed>
1

$$$$
CHEMBL3880_lig251
                    3D
 Schrodinger Suite 2021-1.
 74 77  0  0  1  0            999 V2000
    0.3953   12.3216   23.3619 C   0  0  0  0  0  0
    1.7531   12.5439   23.1663 C   0  0  0  0  0  0
   -0.0626   11.4336   24.3563 C   0  0  0  0  0  0
    0.8912   10.7800   25.1671 C   0  0  0  0  0  0
    1.2239    8.5219   26.1835 C   0  0  2  0  0  0
    0.5368    9.8180   26.1271 N   0  0  0  0  0  0
    2.2365   11.1056   25.0317 C   0  0  0  0  0  0
    2.6780   11.9303   24.0069 C   0  0  0  0  0  0
    0.9989    7.6546   24.8878 C   0  0  1  0  0  0
    4.5411    9.7979   22.9958 C   0  0  0  0  0  0
    4.2674    8.7510   24.1101 C   0  0  0  0  0  0
    3.3459    7.6635   23.7095 N   0  0  0  0  0  0
    1.9049    8.0274   23.6623 C   0  0  0  0  0  0
    6.2699   11.7600   23.5652 C   0  0  0  0  0  0
    4.9911   11.1802   23.4844 C   0  0  0  0  0  0
    4.0602   12.1303   23.8652 N   0  0  0  0  0  0
    7.5797   11.0413   23.3134 C   0  0  0  0  0  0
    3.7547    6.4197   23.3098 C   0  0  0  0  0  0
    0.9443    6.1282   25.1338 C   0  0  0  0  0  0
    0.8599    7.8367   27.5165 C   0  0  0  0  0  0
    6.0880   13.0954   24.0051 C   0  0  0  0  0  0
    4.7183   13.3065   24.1130 C   0  0  0  0  0  0
    4.0438   14.5833   24.5849 C   0  0  0  0  0  0
    5.0288   15.3939   25.4588 C   0  0  0  0  0  0
    6.4478   15.4899   24.8229 C   0  0  0  0  0  0
    7.0634   14.1424   24.3672 C   0  0  0  0  0  0
    5.1692   14.7484   26.8201 C   0  0  0  0  0  0
    4.4657   16.7775   25.6595 C   0  0  0  0  0  0
    8.2787   13.9680   24.3791 O   0  0  0  0  0  0
   -1.5467   11.2225   24.5521 C   0  0  0  0  0  0
   -2.0200   10.7854   25.5989 O   0  0  0  0  0  0
   -2.3390   11.5814   23.5499 N   0  0  0  0  0  0
    2.9512    5.5612   22.9445 O   0  0  0  0  0  0
    5.2434    5.9869   23.2937 C   0  0  1  0  0  0
    6.0664    7.0046   22.7671 O   0  0  0  0  0  0
    5.7545    5.6081   24.6967 C   0  0  0  0  0  0
   -0.2921   12.8530   22.7188 H   0  0  0  0  0  0
    2.0673   13.2009   22.3713 H   0  0  0  0  0  0
    2.2920    8.7156   26.2582 H   0  0  0  0  0  0
   -0.4655    9.7489   26.2613 H   0  0  0  0  0  0
    2.9412   10.7289   25.7546 H   0  0  0  0  0  0
   -0.0142    7.8948   24.5535 H   0  0  0  0  0  0
    3.6590    9.9021   22.3630 H   0  0  0  0  0  0
    5.2969    9.3974   22.3229 H   0  0  0  0  0  0
    5.2193    8.3690   24.4680 H   0  0  0  0  0  0
    3.8648    9.2148   24.9953 H   0  0  0  0  0  0
    1.8146    9.0904   23.4536 H   0  0  0  0  0  0
    1.4671    7.5529   22.7805 H   0  0  0  0  0  0
    7.4982    9.9692   23.4929 H   0  0  0  0  0  0
    7.9297   11.1860   22.2919 H   0  0  0  0  0  0
    8.3751   11.3853   23.9733 H   0  0  0  0  0  0
    1.8876    5.7459   25.5257 H   0  0  0  0  0  0
    0.1554    5.8584   25.8358 H   0  0  0  0  0  0
    0.7176    5.5899   24.2128 H   0  0  0  0  0  0
    1.4483    6.9346   27.6847 H   0  0  0  0  0  0
    1.0558    8.4991   28.3632 H   0  0  0  0  0  0
   -0.1975    7.5681   27.5505 H   0  0  0  0  0  0
    3.1048   14.3993   25.1091 H   0  0  0  0  0  0
    3.7916   15.1500   23.6961 H   0  0  0  0  0  0
    7.1525   15.9605   25.5095 H   0  0  0  0  0  0
    6.4019   16.1482   23.9670 H   0  0  0  0  0  0
    4.2246   14.3494   27.1885 H   0  0  0  0  0  0
    5.8705   13.9690   26.7082 H   0  0  0  0  0  0
    5.6290   15.4002   27.5650 H   0  0  0  0  0  0
    3.4335   16.7669   25.9673 H   0  0  0  0  0  0
    4.9906   17.1690   26.5142 H   0  0  0  0  0  0
    4.5949   17.4314   24.7988 H   0  0  0  0  0  0
   -3.3425   11.6089   23.7427 H   0  0  0  0  0  0
   -1.9890   11.8213   22.6367 H   0  0  0  0  0  0
    5.3399    5.1218   22.6343 H   0  0  0  0  0  0
    6.3758    6.7715   21.8739 H   0  0  0  0  0  0
    5.1154    4.8582   25.1625 H   0  0  0  0  0  0
    6.7618    5.1920   24.6443 H   0  0  0  0  0  0
    5.7912    6.4631   25.3719 H   0  0  0  0  0  0
  1  3  1  0  0  0
  1  2  2  0  0  0
  1 37  1  0  0  0
  2  8  1  0  0  0
  2 38  1  0  0  0
  3  4  2  0  0  0
  3 30  1  0  0  0
  4  7  1  0  0  0
  4  6  1  0  0  0
  5 20  1  0  0  0
  5  9  1  0  0  0
  5  6  1  0  0  0
  5 39  1  0  0  0
  6 40  1  0  0  0
  7  8  2  0  0  0
  7 41  1  0  0  0
  8 16  1  0  0  0
  9 19  1  0  0  0
  9 13  1  0  0  0
  9 42  1  0  0  0
 10 15  1  0  0  0
 10 11  1  0  0  0
 10 43  1  0  0  0
 10 44  1  0  0  0
 11 12  1  0  0  0
 11 45  1  0  0  0
 11 46  1  0  0  0
 12 18  1  0  0  0
 12 13  1  0  0  0
 13 47  1  0  0  0
 13 48  1  0  0  0
 14 17  1  0  0  0
 14 21  1  0  0  0
 14 15  2  0  0  0
 15 16  1  0  0  0
 16 22  1  0  0  0
 17 49  1  0  0  0
 17 50  1  0  0  0
 17 51  1  0  0  0
 18 33  2  0  0  0
 18 34  1  0  0  0
 19 52  1  0  0  0
 19 53  1  0  0  0
 19 54  1  0  0  0
 20 55  1  0  0  0
 20 56  1  0  0  0
 20 57  1  0  0  0
 21 22  2  0  0  0
 21 26  1  0  0  0
 22 23  1  0  0  0
 23 24  1  0  0  0
 23 58  1  0  0  0
 23 59  1  0  0  0
 24 25  1  0  0  0
 24 27  1  0  0  0
 24 28  1  0  0  0
 25 26  1  0  0  0
 25 60  1  0  0  0
 25 61  1  0  0  0
 26 29  2  0  0  0
 27 62  1  0  0  0
 27 63  1  0  0  0
 27 64  1  0  0  0
 28 65  1  0  0  0
 28 66  1  0  0  0
 28 67  1  0  0  0
 30 31  2  0  0  0
 30 32  1  0  0  0
 32 68  1  0  0  0
 32 69  1  0  0  0
 34 35  1  0  0  0
 34 36  1  0  0  0
 34 70  1  0  0  0
 35 71  1  0  0  0
 36 72  1  0  0  0
 36 73  1  0  0  0
 36 74  1  0  0  0
M  END
> <s_m_entry_id>
4717

> <s_m_entry_name>
dock_pv.36

> <s_m_Source_Path>
/home/csk/Desktop/cluster/DUD-E-result/hs90a

> <s_m_Source_File>
dock_pv.maegz

> <i_m_Source_File_Index>
36

> <chembl_id>
CHEMBL1807812

> <chembl_pref_name>
None

> <i_lp_mmshare_version>
53161

> <r_lp_tautomer_probability>
0.99995

> <s_lp_Force_Field>
OPLS_2005

> <r_lp_Energy>
56.637813

> <b_lp_Chiralities_Consistent>
1

> <s_lp_Variant>
CHEMBL3880_lig251-1

> <s_i_glide_gridfile>
glide-grid_1uyg

> <i_i_glide_lignum>
285

> <i_i_glide_rotatable_bonds>
4

> <r_i_docking_score>
-9.36592054537467

> <r_i_glide_ligand_efficiency>
-0.260164459593741

> <r_i_glide_ligand_efficiency_sa>
-0.859044117300385

> <r_i_glide_ligand_efficiency_ln>
-2.04339082506975

> <r_i_glide_gscore>
-9.36592054537467

> <r_i_glide_lipo>
-4.59767119777789

> <r_i_glide_hbond>
-0.17266021193027

> <r_i_glide_metal>
0

> <r_i_glide_rewards>
-1.81058496385231

> <r_i_glide_evdw>
-35.3817024230957

> <r_i_glide_ecoul>
-7.61506843566895

> <r_i_glide_erotb>
0.166600267458276

> <r_i_glide_esite>
-0.0402590527673491

> <r_i_glide_emodel>
-43.2891055306754

> <r_i_glide_energy>
-42.9967708587646

> <r_i_glide_einternal>
6.46172904968262

> <i_i_glide_confnum>
17

> <i_i_glide_posenum>
143

> <r_i_glide_eff_state_penalty>
0

> <s_user_duplicate_titles>
CHEMBL3880_lig251

> <i_f3d_flags>
0

> <s_m_subgroup_title>
dock_pv

> <s_m_subgroupid>
dock_pv

> <b_m_subgroup_collapsed>
1

$$$$
CHEMBL3880_lig963
                    3D
 Schrodinger Suite 2021-1.
 62 66  0  0  1  0            999 V2000
    4.7068    7.0912   22.2910 C   0  0  0  0  0  0
    5.1816    8.5643   22.2753 C   0  0  0  0  0  0
    5.1954    9.1685   20.8493 C   0  0  0  0  0  0
    5.8302   14.8295   25.4161 C   0  0  0  0  0  0
    0.4497   12.6831   23.7820 C   0  0  0  0  0  0
    1.8303   12.7909   23.6599 C   0  0  0  0  0  0
    2.6477   11.7954   24.1897 C   0  0  0  0  0  0
    2.0733   10.7247   24.8816 C   0  0  0  0  0  0
    0.6887   10.5678   24.9689 C   0  0  0  0  0  0
   -0.1370   11.5718   24.4154 C   0  0  0  0  0  0
    4.0394   11.8047   23.9783 N   0  0  0  0  0  0
    4.9268   12.8508   24.1686 C   0  0  0  0  0  0
    6.2279   12.3794   23.9408 C   0  0  0  0  0  0
    7.4668   13.2284   24.1830 C   0  0  0  0  0  0
    7.1113   14.6784   24.5759 C   0  0  0  0  0  0
    4.5757   14.2178   24.7559 C   0  0  0  0  0  0
    6.1099   11.0408   23.5253 C   0  0  0  0  0  0
    4.7665   10.7061   23.5670 C   0  0  0  0  0  0
    4.1766    9.3550   23.1550 C   0  0  0  0  0  0
    6.6038    8.6454   22.9215 C   0  0  0  0  0  0
    7.1410   10.0762   23.1365 C   0  0  0  0  0  0
    8.3184   10.3694   22.9629 O   0  0  0  0  0  0
   -1.6370   11.4922   24.5212 C   0  0  0  0  0  0
   -2.1856   11.0574   25.5324 O   0  0  0  0  0  0
   -2.3387   11.9282   23.4818 N   0  0  0  0  0  0
    0.1375    9.4115   25.5615 N   0  0  0  0  0  0
    0.9143    8.2876   26.0853 C   0  0  1  0  0  0
    1.4138    8.5369   27.4945 C   0  0  0  0  0  0
    0.2196    8.1496   28.3651 C   0  0  0  0  0  0
   -0.4740    7.1516   27.6130 O   0  0  0  0  0  0
    0.0611    7.0325   26.2912 C   0  0  0  0  0  0
    5.2610    6.4722   21.5880 H   0  0  0  0  0  0
    4.8065    6.6396   23.2803 H   0  0  0  0  0  0
    3.6554    7.0125   22.0027 H   0  0  0  0  0  0
    5.8582    8.6197   20.1824 H   0  0  0  0  0  0
    4.2008    9.1431   20.4003 H   0  0  0  0  0  0
    5.5280   10.2019   20.8446 H   0  0  0  0  0  0
    5.6542   15.8837   25.6382 H   0  0  0  0  0  0
    5.9934   14.3562   26.3761 H   0  0  0  0  0  0
   -0.1644   13.4768   23.3775 H   0  0  0  0  0  0
    2.2580   13.6389   23.1475 H   0  0  0  0  0  0
    2.7209    9.9918   25.3354 H   0  0  0  0  0  0
    8.0849   12.7707   24.9538 H   0  0  0  0  0  0
    8.0601   13.2432   23.2722 H   0  0  0  0  0  0
    7.0043   15.2554   23.6644 H   0  0  0  0  0  0
    7.9535   15.1357   25.0971 H   0  0  0  0  0  0
    4.2255   14.8789   23.9675 H   0  0  0  0  0  0
    3.7620   14.1498   25.4780 H   0  0  0  0  0  0
    4.0202    8.7945   24.0773 H   0  0  0  0  0  0
    3.2060    9.4388   22.6620 H   0  0  0  0  0  0
    6.5774    8.1946   23.9147 H   0  0  0  0  0  0
    7.3451    8.0733   22.3668 H   0  0  0  0  0  0
   -3.3523   11.9693   23.6119 H   0  0  0  0  0  0
   -1.9201   12.1844   22.6037 H   0  0  0  0  0  0
   -0.8701    9.3745   25.6505 H   0  0  0  0  0  0
    1.7440    8.0357   25.4233 H   0  0  0  0  0  0
    1.7209    9.5688   27.6672 H   0  0  0  0  0  0
    2.2710    7.9000   27.7112 H   0  0  0  0  0  0
   -0.4308    9.0165   28.5042 H   0  0  0  0  0  0
    0.5501    7.7722   29.3331 H   0  0  0  0  0  0
    0.6900    6.1429   26.2244 H   0  0  0  0  0  0
   -0.7376    6.9490   25.5521 H   0  0  0  0  0  0
  1  2  1  0  0  0
  1 32  1  0  0  0
  1 33  1  0  0  0
  1 34  1  0  0  0
  2  3  1  0  0  0
  2 19  1  0  0  0
  2 20  1  0  0  0
  3 35  1  0  0  0
  3 36  1  0  0  0
  3 37  1  0  0  0
  4 15  1  0  0  0
  4 16  1  0  0  0
  4 38  1  0  0  0
  4 39  1  0  0  0
  5  6  2  0  0  0
  5 10  1  0  0  0
  5 40  1  0  0  0
  6  7  1  0  0  0
  6 41  1  0  0  0
  7  8  2  0  0  0
  7 11  1  0  0  0
  8  9  1  0  0  0
  8 42  1  0  0  0
  9 10  2  0  0  0
  9 26  1  0  0  0
 10 23  1  0  0  0
 11 18  1  0  0  0
 11 12  1  0  0  0
 12 13  2  0  0  0
 12 16  1  0  0  0
 13 17  1  0  0  0
 13 14  1  0  0  0
 14 15  1  0  0  0
 14 43  1  0  0  0
 14 44  1  0  0  0
 15 45  1  0  0  0
 15 46  1  0  0  0
 16 47  1  0  0  0
 16 48  1  0  0  0
 17 18  2  0  0  0
 17 21  1  0  0  0
 18 19  1  0  0  0
 19 49  1  0  0  0
 19 50  1  0  0  0
 20 21  1  0  0  0
 20 51  1  0  0  0
 20 52  1  0  0  0
 21 22  2  0  0  0
 23 24  2  0  0  0
 23 25  1  0  0  0
 25 53  1  0  0  0
 25 54  1  0  0  0
 26 27  1  0  0  0
 26 55  1  0  0  0
 27 28  1  0  0  0
 27 31  1  0  0  0
 27 56  1  0  0  0
 28 29  1  0  0  0
 28 57  1  0  0  0
 28 58  1  0  0  0
 29 30  1  0  0  0
 29 59  1  0  0  0
 29 60  1  0  0  0
 30 31  1  0  0  0
 31 61  1  0  0  0
 31 62  1  0  0  0
M  END
> <s_m_entry_id>
4718

> <s_m_entry_name>
dock_pv.37

> <s_m_Source_Path>
/home/csk/Desktop/cluster/DUD-E-result/hs90a

> <s_m_Source_File>
dock_pv.maegz

> <i_m_Source_File_Index>
37

> <chembl_id>
CHEMBL3235351

> <chembl_pref_name>
None

> <i_lp_mmshare_version>
53161

> <r_lp_tautomer_probability>
0.99995

> <s_lp_Force_Field>
OPLS_2005

> <r_lp_Energy>
46.901375

> <b_lp_Chiralities_Consistent>
1

> <s_lp_Variant>
CHEMBL3880_lig963-1

> <s_i_glide_gridfile>
glide-grid_1uyg

> <i_i_glide_lignum>
1072

> <i_i_glide_rotatable_bonds>
4

> <r_i_docking_score>
-9.35180524114666

> <r_i_glide_ligand_efficiency>
-0.301671136811183

> <r_i_glide_ligand_efficiency_sa>
-0.947663871478811

> <r_i_glide_ligand_efficiency_ln>
-2.10911868029005

> <r_i_glide_gscore>
-9.35180524114666

> <r_i_glide_lipo>
-4.40721955408827

> <r_i_glide_hbond>
-0.16

> <r_i_glide_metal>
0

> <r_i_glide_rewards>
-1.93608782840828

> <r_i_glide_evdw>
-51.2880516052246

> <r_i_glide_ecoul>
-3.78343677520752

> <r_i_glide_erotb>
0.334330456193862

> <r_i_glide_esite>
-0.0509102183016165

> <r_i_glide_emodel>
-79.1206877772095

> <r_i_glide_energy>
-55.0714883804321

> <r_i_glide_einternal>
0.336826056241989

> <i_i_glide_confnum>
48

> <i_i_glide_posenum>
45

> <r_i_glide_eff_state_penalty>
0

> <s_user_duplicate_titles>
CHEMBL3880_lig963

> <i_f3d_flags>
0

> <s_m_subgroup_title>
dock_pv

> <s_m_subgroupid>
dock_pv

> <b_m_subgroup_collapsed>
1

$$$$
CHEMBL3880_lig445
                    3D
 Schrodinger Suite 2021-1.
 63 67  0  0  1  0            999 V2000
    9.4809   14.3261   26.0074 C   0  0  0  0  0  0
    8.3297   15.1485   26.1721 O   0  0  0  0  0  0
    7.1404   14.7837   25.5675 C   0  0  0  0  0  0
    6.0164   15.5694   25.8059 C   0  0  0  0  0  0
    4.8235   15.2582   25.1679 C   0  0  0  0  0  0
    4.7628   14.1235   24.3670 C   0  0  0  0  0  0
    5.8882   13.2947   24.2381 C   0  0  0  0  0  0
    7.0869   13.6731   24.7759 N   0  0  0  0  0  0
    5.8814   11.9400   23.5673 C   0  0  0  0  0  0
    7.0706   11.5083   22.9458 C   0  0  0  0  0  0
    7.2009   10.2433   22.3846 C   0  0  0  0  0  0
    8.3764    9.8607   21.8455 F   0  0  0  0  0  0
    6.1243    9.3707   22.3897 C   0  0  0  0  0  0
    4.9300    9.7651   22.9766 C   0  0  0  0  0  0
    4.7885   11.0226   23.5901 C   0  0  0  0  0  0
    3.4261   11.2959   24.2634 C   0  0  1  0  0  0
    2.3240   11.5559   23.1755 C   0  0  0  0  0  0
    0.9273   11.5072   23.7794 C   0  0  0  0  0  0
   -0.0641   12.2475   23.2098 N   0  0  0  0  0  0
   -1.2874   12.1670   23.7804 C   0  0  0  0  0  0
   -2.3390   12.8322   23.1660 N   0  0  0  0  0  0
   -1.5823   11.4940   24.9121 N   0  0  0  0  0  0
   -0.5752   10.8030   25.5008 C   0  0  0  0  0  0
   -0.9548   10.2147   26.8520 C   0  0  0  0  0  0
    0.7157   10.7217   24.9283 C   0  0  0  0  0  0
    1.8738    9.9519   25.4506 C   0  0  0  0  0  0
    3.0996   10.2148   25.1953 N   0  0  0  0  0  0
    1.5469    8.7686   26.1802 N   0  0  0  0  0  0
    2.5657    7.9257   26.7604 O   0  0  0  0  0  0
    3.1912    7.0962   25.7780 C   0  0  0  0  0  0
    2.3126    6.0294   25.0646 C   0  0  1  0  0  0
    1.2624    6.5421   24.0445 C   0  0  0  0  0  0
    1.9676    7.2543   23.0316 O   0  0  0  0  0  0
    2.8302    6.3944   22.2844 C   0  0  0  0  0  0
    3.8273    5.6786   23.2254 C   0  0  0  0  0  0
    3.1269    5.1010   24.3376 O   0  0  0  0  0  0
   10.3051   14.7404   26.5881 H   0  0  0  0  0  0
    9.3049   13.3097   26.3630 H   0  0  0  0  0  0
    9.7960   14.2925   24.9644 H   0  0  0  0  0  0
    6.0644   16.4232   26.4617 H   0  0  0  0  0  0
    3.9551   15.8855   25.3020 H   0  0  0  0  0  0
    3.8403   13.9068   23.8557 H   0  0  0  0  0  0
    7.9386   12.1498   22.9147 H   0  0  0  0  0  0
    6.2234    8.3852   21.9579 H   0  0  0  0  0  0
    4.1051    9.0651   22.9804 H   0  0  0  0  0  0
    3.5095   12.1488   24.9233 H   0  0  0  0  0  0
    2.4936   12.4961   22.6515 H   0  0  0  0  0  0
    2.3704   10.7725   22.4187 H   0  0  0  0  0  0
   -3.2726   12.7071   23.5660 H   0  0  0  0  0  0
   -2.2026   13.2779   22.2732 H   0  0  0  0  0  0
   -0.1497   10.3686   27.5670 H   0  0  0  0  0  0
   -1.8541   10.6779   27.2645 H   0  0  0  0  0  0
   -1.1386    9.1484   26.7676 H   0  0  0  0  0  0
    0.6342    8.3523   26.2685 H   0  0  0  0  0  0
    3.9835    6.5693   26.3104 H   0  0  0  0  0  0
    3.7125    7.7184   25.0531 H   0  0  0  0  0  0
    1.7993    5.4538   25.8356 H   0  0  0  0  0  0
    0.5064    7.1804   24.4966 H   0  0  0  0  0  0
    0.7171    5.7044   23.6020 H   0  0  0  0  0  0
    3.3783    7.0045   21.5665 H   0  0  0  0  0  0
    2.2418    5.6730   21.7108 H   0  0  0  0  0  0
    4.6176    6.3542   23.5554 H   0  0  0  0  0  0
    4.3292    4.8841   22.6800 H   0  0  0  0  0  0
  1  2  1  0  0  0
  1 37  1  0  0  0
  1 38  1  0  0  0
  1 39  1  0  0  0
  2  3  1  0  0  0
  3  4  2  0  0  0
  3  8  1  0  0  0
  4  5  1  0  0  0
  4 40  1  0  0  0
  5  6  2  0  0  0
  5 41  1  0  0  0
  6  7  1  0  0  0
  6 42  1  0  0  0
  7  8  2  0  0  0
  7  9  1  0  0  0
  9 10  2  0  0  0
  9 15  1  0  0  0
 10 11  1  0  0  0
 10 43  1  0  0  0
 11 12  1  0  0  0
 11 13  2  0  0  0
 13 14  1  0  0  0
 13 44  1  0  0  0
 14 15  2  0  0  0
 14 45  1  0  0  0
 15 16  1  0  0  0
 16 17  1  0  0  0
 16 27  1  0  0  0
 16 46  1  0  0  0
 17 18  1  0  0  0
 17 47  1  0  0  0
 17 48  1  0  0  0
 18 19  2  0  0  0
 18 25  1  0  0  0
 19 20  1  0  0  0
 20 21  1  0  0  0
 20 22  2  0  0  0
 21 49  1  0  0  0
 21 50  1  0  0  0
 22 23  1  0  0  0
 23 24  1  0  0  0
 23 25  2  0  0  0
 24 51  1  0  0  0
 24 52  1  0  0  0
 24 53  1  0  0  0
 25 26  1  0  0  0
 26 27  2  0  0  0
 26 28  1  0  0  0
 28 29  1  0  0  0
 28 54  1  0  0  0
 29 30  1  0  0  0
 30 31  1  0  0  0
 30 55  1  0  0  0
 30 56  1  0  0  0
 31 32  1  0  0  0
 31 36  1  0  0  0
 31 57  1  0  0  0
 32 33  1  0  0  0
 32 58  1  0  0  0
 32 59  1  0  0  0
 33 34  1  0  0  0
 34 35  1  0  0  0
 34 60  1  0  0  0
 34 61  1  0  0  0
 35 36  1  0  0  0
 35 62  1  0  0  0
 35 63  1  0  0  0
M  END
> <s_m_entry_id>
4719

> <s_m_entry_name>
dock_pv.38

> <s_m_Source_Path>
/home/csk/Desktop/cluster/DUD-E-result/hs90a

> <s_m_Source_File>
dock_pv.maegz

> <i_m_Source_File_Index>
38

> <chembl_id>
CHEMBL3675260

> <chembl_pref_name>
None

> <i_lp_mmshare_version>
53161

> <r_lp_tautomer_probability>
1

> <s_lp_Force_Field>
OPLS_2005

> <r_lp_Energy>
28.087823

> <b_lp_Chiralities_Consistent>
1

> <s_lp_Variant>
CHEMBL3880_lig445-1

> <s_i_glide_gridfile>
glide-grid_1uyg

> <i_i_glide_lignum>
487

> <i_i_glide_rotatable_bonds>
7

> <r_i_docking_score>
-9.34813651860344

> <r_i_glide_ligand_efficiency>
-0.259670458850095

> <r_i_glide_ligand_efficiency_sa>
-0.857412962785916

> <r_i_glide_ligand_efficiency_ln>
-2.03951083089715

> <r_i_glide_gscore>
-9.34813651860344

> <r_i_glide_lipo>
-4.65002025319889

> <r_i_glide_hbond>
-0.16

> <r_i_glide_metal>
0

> <r_i_glide_rewards>
-1.24142133997084

> <r_i_glide_evdw>
-52.8344612121582

> <r_i_glide_ecoul>
-6.92309713363647

> <r_i_glide_erotb>
0.416666747854331

> <r_i_glide_esite>
-0.0331740426346604

> <r_i_glide_emodel>
-83.2121989394823

> <r_i_glide_energy>
-59.7575583457947

> <r_i_glide_einternal>
6.2799916267395

> <i_i_glide_confnum>
12

> <i_i_glide_posenum>
189

> <r_i_glide_eff_state_penalty>
0

> <s_user_duplicate_titles>
CHEMBL3880_lig445

> <i_f3d_flags>
0

> <s_m_subgroup_title>
dock_pv

> <s_m_subgroupid>
dock_pv

> <b_m_subgroup_collapsed>
1

$$$$
CHEMBL3880_lig229
                    3D
 Schrodinger Suite 2021-1.
 68 71  0  0  1  0            999 V2000
    0.4077   12.3324   23.5807 C   0  0  0  0  0  0
    1.7639   12.5207   23.3372 C   0  0  0  0  0  0
   -0.0424   11.3029   24.4274 C   0  0  0  0  0  0
    0.9094   10.4491   25.0250 C   0  0  0  0  0  0
    1.3872    8.1316   25.9226 C   0  0  2  0  0  0
    0.5315    9.3179   25.7765 N   0  0  0  0  0  0
    1.9334    7.5711   24.5582 C   0  0  1  0  0  0
    4.8752    8.5011   24.0832 C   0  0  0  0  0  0
    4.2411    7.1200   23.7922 C   0  0  0  0  0  0
    3.1755    6.7879   24.7533 N   0  0  2  0  0  0
    2.2654   10.7288   24.8511 C   0  0  0  0  0  0
    2.7053   11.7177   23.9792 C   0  0  0  0  0  0
    4.6464    9.5662   22.9868 C   0  0  0  0  0  0
    5.0377   10.9777   23.4286 C   0  0  0  0  0  0
    4.0916   11.9202   23.8137 N   0  0  0  0  0  0
    6.3031   11.5712   23.4999 C   0  0  0  0  0  0
    7.6209   10.9099   23.1641 C   0  0  0  0  0  0
    6.1113   12.8882   23.9674 C   0  0  0  0  0  0
    4.7448   13.1071   24.0500 C   0  0  0  0  0  0
    4.0699   14.3954   24.4881 C   0  0  0  0  0  0
    5.0417   15.2605   25.3272 C   0  0  0  0  0  0
    6.5117   15.2626   24.8009 C   0  0  0  0  0  0
    7.0923   13.8959   24.3904 C   0  0  0  0  0  0
    8.2879   13.6544   24.5447 O   0  0  0  0  0  0
    4.5631   16.6803   25.3465 C   0  0  0  0  0  0
    5.0451   14.8026   26.7669 C   0  0  0  0  0  0
    0.8720    6.8990   23.6593 C   0  0  0  0  0  0
    0.6559    7.0865   26.7890 C   0  0  0  0  0  0
   -1.5200   11.1693   24.7073 C   0  0  0  0  0  0
   -1.9509   10.7698   25.7863 O   0  0  0  0  0  0
   -2.3383   11.5644   23.7419 N   0  0  0  0  0  0
    2.9893    5.3367   24.7860 C   0  0  0  0  0  0
   -0.2865   13.0117   23.1095 H   0  0  0  0  0  0
    2.0690   13.3209   22.6878 H   0  0  0  0  0  0
    2.2440    8.4534   26.5165 H   0  0  0  0  0  0
   -0.4590    9.1897   25.9243 H   0  0  0  0  0  0
    2.2237    8.4269   23.9619 H   0  0  0  0  0  0
    4.4609    8.8715   25.0170 H   0  0  0  0  0  0
    5.9390    8.3820   24.3030 H   0  0  0  0  0  0
    5.0435    6.3818   23.8662 H   0  0  0  0  0  0
    3.8659    7.0561   22.7691 H   0  0  0  0  0  0
    2.9868   10.1704   25.4174 H   0  0  0  0  0  0
    3.6095    9.5362   22.6364 H   0  0  0  0  0  0
    5.2268    9.2787   22.1092 H   0  0  0  0  0  0
    8.1194   11.4564   22.3654 H   0  0  0  0  0  0
    8.3196   10.9405   23.9996 H   0  0  0  0  0  0
    7.5217    9.8691   22.8536 H   0  0  0  0  0  0
    3.1302   14.2339   25.0168 H   0  0  0  0  0  0
    3.8237   14.9065   23.5666 H   0  0  0  0  0  0
    7.1867   15.6775   25.5525 H   0  0  0  0  0  0
    6.5979   15.9369   23.9662 H   0  0  0  0  0  0
    5.2946   17.1692   25.9422 H   0  0  0  0  0  0
    4.4790   17.1487   24.3705 H   0  0  0  0  0  0
    3.6589   16.7831   25.9250 H   0  0  0  0  0  0
    5.5298   15.5195   27.4309 H   0  0  0  0  0  0
    4.0646   14.5360   27.1651 H   0  0  0  0  0  0
    5.6703   13.9690   26.7740 H   0  0  0  0  0  0
    0.0611    7.5981   23.4589 H   0  0  0  0  0  0
    1.2946    6.5964   22.7014 H   0  0  0  0  0  0
    0.4325    6.0190   24.1276 H   0  0  0  0  0  0
    1.3075    6.2568   27.0539 H   0  0  0  0  0  0
    0.3149    7.5268   27.7270 H   0  0  0  0  0  0
   -0.2222    6.6825   26.2846 H   0  0  0  0  0  0
   -3.3351   11.6470   23.9656 H   0  0  0  0  0  0
   -2.0175   11.7470   22.8062 H   0  0  0  0  0  0
    3.9092    4.8570   25.1167 H   0  0  0  0  0  0
    2.2022    5.0452   25.4785 H   0  0  0  0  0  0
    2.7431    4.9443   23.7970 H   0  0  0  0  0  0
  1  3  1  0  0  0
  1  2  2  0  0  0
  1 33  1  0  0  0
  2 12  1  0  0  0
  2 34  1  0  0  0
  3  4  2  0  0  0
  3 29  1  0  0  0
  4 11  1  0  0  0
  4  6  1  0  0  0
  5 28  1  0  0  0
  5  7  1  0  0  0
  5  6  1  0  0  0
  5 35  1  0  0  0
  6 36  1  0  0  0
  7 10  1  0  0  0
  7 27  1  0  0  0
  7 37  1  0  0  0
  8 13  1  0  0  0
  8  9  1  0  0  0
  8 38  1  0  0  0
  8 39  1  0  0  0
  9 10  1  0  0  0
  9 40  1  0  0  0
  9 41  1  0  0  0
 10 32  1  0  0  0
 11 12  2  0  0  0
 11 42  1  0  0  0
 12 15  1  0  0  0
 13 14  1  0  0  0
 13 43  1  0  0  0
 13 44  1  0  0  0
 14 16  2  0  0  0
 14 15  1  0  0  0
 15 19  1  0  0  0
 16 18  1  0  0  0
 16 17  1  0  0  0
 17 45  1  0  0  0
 17 46  1  0  0  0
 17 47  1  0  0  0
 18 19  2  0  0  0
 18 23  1  0  0  0
 19 20  1  0  0  0
 20 21  1  0  0  0
 20 48  1  0  0  0
 20 49  1  0  0  0
 21 22  1  0  0  0
 21 25  1  0  0  0
 21 26  1  0  0  0
 22 23  1  0  0  0
 22 50  1  0  0  0
 22 51  1  0  0  0
 23 24  2  0  0  0
 25 52  1  0  0  0
 25 53  1  0  0  0
 25 54  1  0  0  0
 26 55  1  0  0  0
 26 56  1  0  0  0
 26 57  1  0  0  0
 27 58  1  0  0  0
 27 59  1  0  0  0
 27 60  1  0  0  0
 28 61  1  0  0  0
 28 62  1  0  0  0
 28 63  1  0  0  0
 29 30  2  0  0  0
 29 31  1  0  0  0
 31 64  1  0  0  0
 31 65  1  0  0  0
 32 66  1  0  0  0
 32 67  1  0  0  0
 32 68  1  0  0  0
M  END
> <s_m_entry_id>
4720

> <s_m_entry_name>
dock_pv.39

> <s_m_Source_Path>
/home/csk/Desktop/cluster/DUD-E-result/hs90a

> <s_m_Source_File>
dock_pv.maegz

> <i_m_Source_File_Index>
39

> <chembl_id>
CHEMBL1807792

> <chembl_pref_name>
None

> <i_lp_mmshare_version>
53161

> <r_lp_tautomer_probability>
0.99995

> <s_lp_Force_Field>
OPLS_2005

> <r_lp_Energy>
46.202498

> <b_lp_Chiralities_Consistent>
1

> <s_lp_Variant>
CHEMBL3880_lig229-1

> <s_i_glide_gridfile>
glide-grid_1uyg

> <i_i_glide_lignum>
263

> <i_i_glide_rotatable_bonds>
1

> <r_i_docking_score>
-9.34482203841713

> <r_i_glide_ligand_efficiency>
-0.292025688700535

> <r_i_glide_ligand_efficiency_sa>
-0.92712376981888

> <r_i_glide_ligand_efficiency_ln>
-2.09256038462967

> <r_i_glide_gscore>
-9.34482203841713

> <r_i_glide_lipo>
-4.42351278073287

> <r_i_glide_hbond>
-0.170624143705409

> <r_i_glide_metal>
0

> <r_i_glide_rewards>
-2.18701315606129

> <r_i_glide_evdw>
-36.6990928649902

> <r_i_glide_ecoul>
-4.53625583648682

> <r_i_glide_erotb>
0

> <r_i_glide_esite>
-0.0482789391950292

> <r_i_glide_emodel>
-46.7123937195849

> <r_i_glide_energy>
-41.2353487014771

> <r_i_glide_einternal>
0.171098411083221

> <i_i_glide_confnum>
1

> <i_i_glide_posenum>
82

> <r_i_glide_eff_state_penalty>
0

> <s_user_duplicate_titles>
CHEMBL3880_lig229

> <i_f3d_flags>
0

> <s_m_subgroup_title>
dock_pv

> <s_m_subgroupid>
dock_pv

> <b_m_subgroup_collapsed>
1

$$$$
CHEMBL3880_lig611
                    3D
 Schrodinger Suite 2021-1.
 57 60  0  0  1  0            999 V2000
    8.6700   14.7353   25.8983 C   0  0  0  0  0  0
    8.1716   14.7491   24.5652 O   0  0  0  0  0  0
    7.0732   13.9467   24.3672 C   0  0  0  0  0  0
    7.2798   12.7078   23.7641 C   0  0  0  0  0  0
    6.2029   11.8429   23.5664 C   0  0  0  0  0  0
    6.0834   10.5186   23.0376 C   0  0  0  0  0  0
    4.7587   10.1696   23.1636 C   0  0  0  0  0  0
    4.0428   11.2108   23.7123 N   0  0  0  0  0  0
    2.6708   11.1801   23.9819 C   0  0  0  0  0  0
    1.8351   12.1351   23.4141 C   0  0  0  0  0  0
    0.4750   12.1037   23.6894 C   0  0  0  0  0  0
   -0.0689   11.1307   24.5451 C   0  0  0  0  0  0
   -1.5516   11.1667   24.8211 C   0  0  0  0  0  0
   -2.0057   10.9166   25.9364 O   0  0  0  0  0  0
   -2.3351   11.5034   23.7984 N   0  0  0  0  0  0
    0.7902   10.1827   25.1587 C   0  0  0  0  0  0
    0.2749    9.2281   26.0654 N   0  0  0  0  0  0
    1.0674    8.7580   27.2012 C   0  0  2  0  0  0
    1.8383    7.4592   26.8454 C   0  0  0  0  0  0
    2.6289    6.9462   28.0738 C   0  0  0  0  0  0
    1.7324    6.7130   29.3128 C   0  0  2  0  0  0
    0.9116    5.5726   29.1122 O   0  0  0  0  0  0
    0.8719    7.9664   29.6163 C   0  0  0  0  0  0
    0.1028    8.4868   28.3789 C   0  0  0  0  0  0
    2.1570   10.2191   24.8514 C   0  0  0  0  0  0
    4.9036   12.2692   23.9669 C   0  0  0  0  0  0
    4.6784   13.5294   24.5444 C   0  0  0  0  0  0
    5.7923   14.3611   24.7671 C   0  0  0  0  0  0
    5.7005   15.5955   25.3792 O   0  0  0  0  0  0
    4.4531   16.0112   25.9196 C   0  0  0  0  0  0
    9.5554   15.3681   25.9585 H   0  0  0  0  0  0
    7.9388   15.1213   26.6109 H   0  0  0  0  0  0
    8.9586   13.7293   26.2104 H   0  0  0  0  0  0
    8.2749   12.3939   23.5018 H   0  0  0  0  0  0
    6.8709    9.8906   22.6407 H   0  0  0  0  0  0
    4.2515    9.2505   22.9011 H   0  0  0  0  0  0
    2.2345   12.9027   22.7666 H   0  0  0  0  0  0
   -0.1498   12.8603   23.2347 H   0  0  0  0  0  0
   -3.3369   11.6326   23.9670 H   0  0  0  0  0  0
   -1.9640   11.6227   22.8678 H   0  0  0  0  0  0
   -0.6708    9.4806   26.3290 H   0  0  0  0  0  0
    1.7548    9.5548   27.5045 H   0  0  0  0  0  0
    2.5245    7.6021   26.0152 H   0  0  0  0  0  0
    1.1366    6.6914   26.5114 H   0  0  0  0  0  0
    3.1525    6.0247   27.8110 H   0  0  0  0  0  0
    3.4084    7.6666   28.3312 H   0  0  0  0  0  0
    2.3624    6.4932   30.1760 H   0  0  0  0  0  0
    0.3596    5.7411   28.3434 H   0  0  0  0  0  0
    0.1698    7.7446   30.4209 H   0  0  0  0  0  0
    1.5077    8.7668   30.0051 H   0  0  0  0  0  0
   -0.6614    7.7612   28.0904 H   0  0  0  0  0  0
   -0.4342    9.3991   28.6493 H   0  0  0  0  0  0
    2.8444    9.5251   25.3062 H   0  0  0  0  0  0
    3.6817   13.8077   24.8507 H   0  0  0  0  0  0
    4.5200   17.0390   26.2729 H   0  0  0  0  0  0
    3.6632   15.9675   25.1692 H   0  0  0  0  0  0
    4.1657   15.3845   26.7660 H   0  0  0  0  0  0
  1  2  1  0  0  0
  1 31  1  0  0  0
  1 32  1  0  0  0
  1 33  1  0  0  0
  2  3  1  0  0  0
  3  4  2  0  0  0
  3 28  1  0  0  0
  4  5  1  0  0  0
  4 34  1  0  0  0
  5  6  1  0  0  0
  5 26  2  0  0  0
  6  7  2  0  0  0
  6 35  1  0  0  0
  7  8  1  0  0  0
  7 36  1  0  0  0
  8  9  1  0  0  0
  8 26  1  0  0  0
  9 10  2  0  0  0
  9 25  1  0  0  0
 10 11  1  0  0  0
 10 37  1  0  0  0
 11 12  2  0  0  0
 11 38  1  0  0  0
 12 13  1  0  0  0
 12 16  1  0  0  0
 13 14  2  0  0  0
 13 15  1  0  0  0
 15 39  1  0  0  0
 15 40  1  0  0  0
 16 17  1  0  0  0
 16 25  2  0  0  0
 17 18  1  0  0  0
 17 41  1  0  0  0
 18 19  1  0  0  0
 18 24  1  0  0  0
 18 42  1  0  0  0
 19 20  1  0  0  0
 19 43  1  0  0  0
 19 44  1  0  0  0
 20 21  1  0  0  0
 20 45  1  0  0  0
 20 46  1  0  0  0
 21 22  1  0  0  0
 21 23  1  0  0  0
 21 47  1  0  0  0
 22 48  1  0  0  0
 23 24  1  0  0  0
 23 49  1  0  0  0
 23 50  1  0  0  0
 24 51  1  0  0  0
 24 52  1  0  0  0
 25 53  1  0  0  0
 26 27  1  0  0  0
 27 28  2  0  0  0
 27 54  1  0  0  0
 28 29  1  0  0  0
 29 30  1  0  0  0
 30 55  1  0  0  0
 30 56  1  0  0  0
 30 57  1  0  0  0
M  END
> <s_m_entry_id>
4721

> <s_m_entry_name>
dock_pv.40

> <s_m_Source_Path>
/home/csk/Desktop/cluster/DUD-E-result/hs90a

> <s_m_Source_File>
dock_pv.maegz

> <i_m_Source_File_Index>
40

> <chembl_id>
CHEMBL3661198

> <chembl_pref_name>
None

> <i_lp_mmshare_version>
53161

> <r_lp_tautomer_probability>
1

> <s_lp_Force_Field>
OPLS_2005

> <r_lp_Energy>
33.963779

> <b_lp_Chiralities_Consistent>
1

> <s_lp_Variant>
CHEMBL3880_lig611-1

> <s_i_glide_gridfile>
glide-grid_1uyg

> <i_i_glide_lignum>
667

> <i_i_glide_rotatable_bonds>
7

> <r_i_docking_score>
-9.33806009182566

> <r_i_glide_ligand_efficiency>
-0.311268669727522

> <r_i_glide_ligand_efficiency_sa>
-0.967184127565844

> <r_i_glide_ligand_efficiency_ln>
-2.12170899917673

> <r_i_glide_gscore>
-9.33806009182566

> <r_i_glide_lipo>
-4.6668944178433

> <r_i_glide_hbond>
-0.16

> <r_i_glide_metal>
0

> <r_i_glide_rewards>
-1.41075022345392

> <r_i_glide_evdw>
-47.5131721496582

> <r_i_glide_ecoul>
-6.86404657363892

> <r_i_glide_erotb>
0.35231488006066

> <r_i_glide_esite>
-0.0474647370603604

> <r_i_glide_emodel>
-80.1292015745066

> <r_i_glide_energy>
-54.3772187232971

> <r_i_glide_einternal>
11.6145181655884

> <i_i_glide_confnum>
11

> <i_i_glide_posenum>
380

> <r_i_glide_eff_state_penalty>
0

> <s_user_duplicate_titles>
CHEMBL3880_lig611

> <i_f3d_flags>
0

> <s_m_subgroup_title>
dock_pv

> <s_m_subgroupid>
dock_pv

> <b_m_subgroup_collapsed>
1

$$$$
CHEMBL3880_lig449
                    3D
 Schrodinger Suite 2021-1.
 48 51  0  0  1  0            999 V2000
    9.4377   14.3444   25.9917 C   0  0  0  0  0  0
    8.2792   15.1596   26.1446 O   0  0  0  0  0  0
    7.0931   14.7805   25.5434 C   0  0  0  0  0  0
    5.9585   15.5539   25.7719 C   0  0  0  0  0  0
    4.7621   15.1943   25.1598 C   0  0  0  0  0  0
    4.7181   14.0476   24.3671 C   0  0  0  0  0  0
    5.8662   13.2511   24.2348 C   0  0  0  0  0  0
    7.0545   13.6594   24.7696 N   0  0  0  0  0  0
    5.9029   11.8982   23.5670 C   0  0  0  0  0  0
    7.0982   11.5258   22.9193 C   0  0  0  0  0  0
    7.2767   10.2696   22.3561 C   0  0  0  0  0  0
    8.4598    9.9404   21.7968 F   0  0  0  0  0  0
    6.2433    9.3499   22.3824 C   0  0  0  0  0  0
    5.0423    9.6850   22.9905 C   0  0  0  0  0  0
    4.8531   10.9323   23.6124 C   0  0  0  0  0  0
    3.5033   11.1286   24.3387 C   0  0  1  0  0  0
    2.3457   11.3596   23.3044 C   0  0  0  0  0  0
    0.9780   11.2358   23.9681 C   0  0  0  0  0  0
   -0.0587   11.9737   23.4836 N   0  0  0  0  0  0
   -1.2542   11.8373   24.1034 C   0  0  0  0  0  0
   -2.3389   12.5181   23.5624 N   0  0  0  0  0  0
   -1.4840   11.0947   25.2090 N   0  0  0  0  0  0
   -0.4314   10.3965   25.7123 C   0  0  0  0  0  0
   -0.7405    9.6988   27.0317 C   0  0  0  0  0  0
    0.8417   10.3951   25.0907 C   0  0  0  0  0  0
    2.0575    9.6692   25.5421 C   0  0  0  0  0  0
    3.2600    9.9997   25.2460 N   0  0  0  0  0  0
    1.8141    8.4398   26.2267 N   0  0  0  0  0  0
    2.8135    7.4862   26.2162 O   0  0  0  0  0  0
   10.2582   14.7716   26.5685 H   0  0  0  0  0  0
    9.2682   13.3302   26.3563 H   0  0  0  0  0  0
    9.7513   14.2995   24.9487 H   0  0  0  0  0  0
    6.0124   16.4200   26.4099 H   0  0  0  0  0  0
    3.8779   15.7974   25.2998 H   0  0  0  0  0  0
    3.7924   13.7893   23.8799 H   0  0  0  0  0  0
    7.9322   12.2102   22.8697 H   0  0  0  0  0  0
    6.3818    8.3687   21.9563 H   0  0  0  0  0  0
    4.2581    8.9410   23.0162 H   0  0  0  0  0  0
    3.5827   11.9772   25.0100 H   0  0  0  0  0  0
    2.3939   10.5917   22.5317 H   0  0  0  0  0  0
    2.4514   12.3131   22.7873 H   0  0  0  0  0  0
   -3.2770   12.3690   23.9666 H   0  0  0  0  0  0
   -2.2248   13.0210   22.6975 H   0  0  0  0  0  0
    0.0087    9.9588   27.7784 H   0  0  0  0  0  0
   -1.7134    9.9848   27.4351 H   0  0  0  0  0  0
   -0.7388    8.6173   26.9084 H   0  0  0  0  0  0
    0.9302    7.9695   26.0934 H   0  0  0  0  0  0
    3.1116    7.5027   27.1311 H   0  0  0  0  0  0
  1  2  1  0  0  0
  1 30  1  0  0  0
  1 31  1  0  0  0
  1 32  1  0  0  0
  2  3  1  0  0  0
  3  4  2  0  0  0
  3  8  1  0  0  0
  4  5  1  0  0  0
  4 33  1  0  0  0
  5  6  2  0  0  0
  5 34  1  0  0  0
  6  7  1  0  0  0
  6 35  1  0  0  0
  7  8  2  0  0  0
  7  9  1  0  0  0
  9 10  2  0  0  0
  9 15  1  0  0  0
 10 11  1  0  0  0
 10 36  1  0  0  0
 11 12  1  0  0  0
 11 13  2  0  0  0
 13 14  1  0  0  0
 13 37  1  0  0  0
 14 15  2  0  0  0
 14 38  1  0  0  0
 15 16  1  0  0  0
 16 17  1  0  0  0
 16 27  1  0  0  0
 16 39  1  0  0  0
 17 18  1  0  0  0
 17 40  1  0  0  0
 17 41  1  0  0  0
 18 19  2  0  0  0
 18 25  1  0  0  0
 19 20  1  0  0  0
 20 21  1  0  0  0
 20 22  2  0  0  0
 21 42  1  0  0  0
 21 43  1  0  0  0
 22 23  1  0  0  0
 23 24  1  0  0  0
 23 25  2  0  0  0
 24 44  1  0  0  0
 24 45  1  0  0  0
 24 46  1  0  0  0
 25 26  1  0  0  0
 26 27  2  0  0  0
 26 28  1  0  0  0
 28 29  1  0  0  0
 28 47  1  0  0  0
 29 48  1  0  0  0
M  END
> <s_m_entry_id>
4722

> <s_m_entry_name>
dock_pv.41

> <s_m_Source_Path>
/home/csk/Desktop/cluster/DUD-E-result/hs90a

> <s_m_Source_File>
dock_pv.maegz

> <i_m_Source_File_Index>
41

> <chembl_id>
CHEMBL3675264

> <chembl_pref_name>
None

> <i_lp_mmshare_version>
53161

> <r_lp_tautomer_probability>
1

> <s_lp_Force_Field>
OPLS_2005

> <r_lp_Energy>
17.041662

> <b_lp_Chiralities_Consistent>
1

> <s_lp_Variant>
CHEMBL3880_lig449-1

> <s_i_glide_gridfile>
glide-grid_1uyg

> <i_i_glide_lignum>
494

> <i_i_glide_rotatable_bonds>
5

> <r_i_docking_score>
-9.33717001662711

> <r_i_glide_ligand_efficiency>
-0.321971379883693

> <r_i_glide_ligand_efficiency_sa>
-0.989198086695654

> <r_i_glide_ligand_efficiency_ln>
-2.13797516360508

> <r_i_glide_gscore>
-9.33717001662711

> <r_i_glide_lipo>
-4.52354740452131

> <r_i_glide_hbond>
-0.16

> <r_i_glide_metal>
0

> <r_i_glide_rewards>
-1.89398971011659

> <r_i_glide_evdw>
-45.0630111694336

> <r_i_glide_ecoul>
-5.48006343841553

> <r_i_glide_erotb>
0.37693589011538

> <r_i_glide_esite>
-0.0614087178705805

> <r_i_glide_emodel>
-75.6964969581157

> <r_i_glide_energy>
-50.5430746078491

> <r_i_glide_einternal>
1.215252161026

> <i_i_glide_confnum>
6

> <i_i_glide_posenum>
245

> <r_i_glide_eff_state_penalty>
0

> <s_user_duplicate_titles>
CHEMBL3880_lig449

> <i_f3d_flags>
0

> <s_m_subgroup_title>
dock_pv

> <s_m_subgroupid>
dock_pv

> <b_m_subgroup_collapsed>
1

$$$$
CHEMBL3880_lig962
                    3D
 Schrodinger Suite 2021-1.
 67 71  0  0  1  0            999 V2000
    5.2435    7.1000   22.7632 C   0  0  0  0  0  0
    5.5024    8.6164   22.6075 C   0  0  0  0  0  0
    5.3700    9.1315   21.1501 C   0  0  0  0  0  0
    0.4018   12.2818   23.6719 C   0  0  0  0  0  0
    1.7694   12.4527   23.4954 C   0  0  0  0  0  0
    2.6682   11.6998   24.2347 C   0  0  0  0  0  0
    2.2006   10.7621   25.1533 C   0  0  0  0  0  0
    0.8353   10.5350   25.3242 C   0  0  0  0  0  0
   -0.0823   11.2986   24.5602 C   0  0  0  0  0  0
   -1.5827   11.1670   24.7670 C   0  0  0  0  0  0
   -2.1494   10.7691   25.7796 O   0  0  0  0  0  0
   -2.3390   11.6883   23.7770 N   0  0  0  0  0  0
    4.0475   11.8331   24.0286 N   0  0  0  0  0  0
    4.8919   10.7885   23.7354 C   0  0  0  0  0  0
    6.1913   11.2681   23.6372 C   0  0  0  0  0  0
    7.3108   10.3811   23.3206 C   0  0  0  0  0  0
    6.9359    8.8950   23.1548 C   0  0  0  0  0  0
    4.4464    9.3505   23.4758 C   0  0  0  0  0  0
    8.4609   10.7690   23.1680 O   0  0  0  0  0  0
    6.1567   12.6428   23.9670 C   0  0  0  0  0  0
    4.8184   12.9688   24.1642 C   0  0  0  0  0  0
    4.3166   14.3594   24.5182 C   0  0  0  0  0  0
    5.3198   15.1359   25.2576 N   0  0  2  0  0  0
    6.7083   15.0353   24.7827 C   0  0  0  0  0  0
    7.2502   13.6644   24.2515 C   0  0  0  0  0  0
    5.1853   15.0005   26.6982 C   0  0  0  0  0  0
   -0.5869   13.1432   22.9201 C   0  0  0  0  0  0
   -1.8207   12.3054   22.5506 C   0  0  0  0  0  0
    0.4577    9.4006   26.2885 C   0  0  0  0  0  0
    0.1054    8.0690   25.5768 C   0  0  0  0  0  0
   -0.3317    6.9955   26.5918 C   0  0  0  0  0  0
    1.2418    7.5346   24.6816 C   0  0  0  0  0  0
    6.0607    6.5002   22.3670 H   0  0  0  0  0  0
    5.1398    6.8067   23.8087 H   0  0  0  0  0  0
    4.3295    6.7969   22.2501 H   0  0  0  0  0  0
    6.1671    8.7690   20.5091 H   0  0  0  0  0  0
    4.4250    8.8167   20.7052 H   0  0  0  0  0  0
    5.4061   10.2163   21.0952 H   0  0  0  0  0  0
    2.1242   13.1692   22.7727 H   0  0  0  0  0  0
    2.9095   10.1806   25.7262 H   0  0  0  0  0  0
   -3.3366   11.8008   23.9855 H   0  0  0  0  0  0
    7.0283    8.4626   24.1513 H   0  0  0  0  0  0
    7.6982    8.4108   22.5432 H   0  0  0  0  0  0
    4.3796    8.8708   24.4532 H   0  0  0  0  0  0
    3.4558    9.2873   23.0222 H   0  0  0  0  0  0
    4.2112   14.8671   23.5670 H   0  0  0  0  0  0
    3.3302   14.3786   24.9842 H   0  0  0  0  0  0
    6.7352   15.7413   23.9670 H   0  0  0  0  0  0
    7.4136   15.5141   25.4640 H   0  0  0  0  0  0
    7.8431   13.2280   25.0555 H   0  0  0  0  0  0
    7.9644   13.8088   23.4411 H   0  0  0  0  0  0
    5.9429   15.5823   27.2251 H   0  0  0  0  0  0
    4.2086   15.3671   27.0167 H   0  0  0  0  0  0
    5.2589   13.9690   27.0045 H   0  0  0  0  0  0
   -0.1272   13.5685   22.0301 H   0  0  0  0  0  0
   -0.8840   13.9690   23.5668 H   0  0  0  0  0  0
   -1.5931   11.5689   21.7830 H   0  0  0  0  0  0
   -2.5910   12.9435   22.1142 H   0  0  0  0  0  0
    1.2867    9.2202   26.9757 H   0  0  0  0  0  0
   -0.3473    9.7167   26.9488 H   0  0  0  0  0  0
   -0.7390    8.2621   24.9167 H   0  0  0  0  0  0
    0.4938    6.7022   27.2417 H   0  0  0  0  0  0
   -1.1390    7.3523   27.2313 H   0  0  0  0  0  0
   -0.6920    6.0983   26.0863 H   0  0  0  0  0  0
    2.1597    7.3747   25.2485 H   0  0  0  0  0  0
    0.9670    6.5858   24.2185 H   0  0  0  0  0  0
    1.4661    8.2251   23.8685 H   0  0  0  0  0  0
  1  2  1  0  0  0
  1 33  1  0  0  0
  1 34  1  0  0  0
  1 35  1  0  0  0
  2  3  1  0  0  0
  2 17  1  0  0  0
  2 18  1  0  0  0
  3 36  1  0  0  0
  3 37  1  0  0  0
  3 38  1  0  0  0
  4  5  2  0  0  0
  4  9  1  0  0  0
  4 27  1  0  0  0
  5  6  1  0  0  0
  5 39  1  0  0  0
  6  7  2  0  0  0
  6 13  1  0  0  0
  7  8  1  0  0  0
  7 40  1  0  0  0
  8  9  2  0  0  0
  8 29  1  0  0  0
  9 10  1  0  0  0
 10 11  2  0  0  0
 10 12  1  0  0  0
 12 28  1  0  0  0
 12 41  1  0  0  0
 13 21  1  0  0  0
 13 14  1  0  0  0
 14 15  2  0  0  0
 14 18  1  0  0  0
 15 20  1  0  0  0
 15 16  1  0  0  0
 16 17  1  0  0  0
 16 19  2  0  0  0
 17 42  1  0  0  0
 17 43  1  0  0  0
 18 44  1  0  0  0
 18 45  1  0  0  0
 20 21  2  0  0  0
 20 25  1  0  0  0
 21 22  1  0  0  0
 22 23  1  0  0  0
 22 46  1  0  0  0
 22 47  1  0  0  0
 23 24  1  0  0  0
 23 26  1  0  0  0
 24 25  1  0  0  0
 24 48  1  0  0  0
 24 49  1  0  0  0
 25 50  1  0  0  0
 25 51  1  0  0  0
 26 52  1  0  0  0
 26 53  1  0  0  0
 26 54  1  0  0  0
 27 28  1  0  0  0
 27 55  1  0  0  0
 27 56  1  0  0  0
 28 57  1  0  0  0
 28 58  1  0  0  0
 29 30  1  0  0  0
 29 59  1  0  0  0
 29 60  1  0  0  0
 30 31  1  0  0  0
 30 32  1  0  0  0
 30 61  1  0  0  0
 31 62  1  0  0  0
 31 63  1  0  0  0
 31 64  1  0  0  0
 32 65  1  0  0  0
 32 66  1  0  0  0
 32 67  1  0  0  0
M  END
> <s_m_entry_id>
4723

> <s_m_entry_name>
dock_pv.42

> <s_m_Source_Path>
/home/csk/Desktop/cluster/DUD-E-result/hs90a

> <s_m_Source_File>
dock_pv.maegz

> <i_m_Source_File_Index>
42

> <chembl_id>
CHEMBL3235350

> <chembl_pref_name>
None

> <i_lp_mmshare_version>
53161

> <r_lp_tautomer_probability>
0.99995

> <s_lp_Force_Field>
OPLS_2005

> <r_lp_Energy>
48.343406

> <b_lp_Chiralities_Consistent>
1

> <s_lp_Variant>
CHEMBL3880_lig962-1

> <s_i_glide_gridfile>
glide-grid_1uyg

> <i_i_glide_lignum>
1071

> <i_i_glide_rotatable_bonds>
3

> <r_i_docking_score>
-9.33298570987771

> <r_i_glide_ligand_efficiency>
-0.291655803433679

> <r_i_glide_ligand_efficiency_sa>
-0.925949457296805

> <r_i_glide_ligand_efficiency_ln>
-2.08990990802357

> <r_i_glide_gscore>
-9.33298570987771

> <r_i_glide_lipo>
-4.90762991159115

> <r_i_glide_hbond>
-0.16

> <r_i_glide_metal>
0

> <r_i_glide_rewards>
-1.77720649260153

> <r_i_glide_evdw>
-45.9254417419434

> <r_i_glide_ecoul>
-2.30408906936646

> <r_i_glide_erotb>
0.211795606866438

> <r_i_glide_esite>
-0.0580594650493349

> <r_i_glide_emodel>
-52.0869682566807

> <r_i_glide_energy>
-48.2295308113098

> <r_i_glide_einternal>
3.54731106758118

> <i_i_glide_confnum>
1

> <i_i_glide_posenum>
213

> <r_i_glide_eff_state_penalty>
0

> <s_user_duplicate_titles>
CHEMBL3880_lig962

> <i_f3d_flags>
0

> <s_m_subgroup_title>
dock_pv

> <s_m_subgroupid>
dock_pv

> <b_m_subgroup_collapsed>
1

$$$$
CHEMBL3880_lig182
                    3D
 Schrodinger Suite 2021-1.
 62 65  0  0  1  0            999 V2000
    7.5332   10.5415   23.2287 C   0  0  0  0  0  0
    6.2580   11.3080   23.5205 C   0  0  0  0  0  0
    4.9516   10.8359   23.3225 C   0  0  0  0  0  0
    4.0723   11.8424   23.6849 N   0  0  0  0  0  0
    4.7966   12.9706   23.9911 C   0  0  0  0  0  0
    6.1463   12.6452   23.9670 C   0  0  0  0  0  0
    7.1741   13.5543   24.4935 C   0  0  0  0  0  0
    8.3183   13.1962   24.7655 O   0  0  0  0  0  0
    6.6884   14.9702   24.8445 C   0  0  0  0  0  0
    5.2058   15.1169   25.3074 C   0  0  0  0  0  0
    4.1899   14.2886   24.4654 C   0  0  0  0  0  0
    4.8607   16.5900   25.2104 C   0  0  0  0  0  0
    5.0259   14.7384   26.7666 C   0  0  0  0  0  0
    2.6753   11.7373   23.7788 C   0  0  0  0  0  0
    1.8370   12.2889   22.8220 C   0  0  0  0  0  0
    0.4566   12.2122   22.9717 C   0  0  0  0  0  0
   -0.1165   11.5190   24.0542 C   0  0  0  0  0  0
    0.7484   10.8850   24.9826 C   0  0  0  0  0  0
    2.1271   11.0761   24.8649 C   0  0  0  0  0  0
    0.2657   10.0662   26.0214 N   0  0  0  0  0  0
    1.0131    8.9101   26.5354 C   0  0  2  0  0  0
    1.2710    7.7919   25.4764 C   0  0  0  0  0  0
    2.2513    8.0894   24.4267 N   0  0  2  0  0  0
    3.6404    8.1130   24.8843 C   0  0  0  0  0  0
    4.6244    8.2691   23.7010 C   0  0  0  0  0  0
    4.4591    9.4956   22.7664 C   0  0  0  0  0  0
    0.2669    8.3307   27.7494 C   0  0  0  0  0  0
   -1.6257   11.4500   24.1804 C   0  0  0  0  0  0
   -2.1930   10.5902   24.8493 O   0  0  0  0  0  0
   -2.3389   12.4013   23.5799 N   0  0  0  0  0  0
    8.2809   11.1797   22.7550 H   0  0  0  0  0  0
    7.9921   10.1533   24.1414 H   0  0  0  0  0  0
    7.3764    9.7065   22.5424 H   0  0  0  0  0  0
    6.8537   15.5671   23.9532 H   0  0  0  0  0  0
    7.3700   15.3806   25.5905 H   0  0  0  0  0  0
    3.9439   14.8362   23.5671 H   0  0  0  0  0  0
    3.2428   14.1536   24.9907 H   0  0  0  0  0  0
    5.4781   17.1688   25.8815 H   0  0  0  0  0  0
    4.9857   17.0160   24.2234 H   0  0  0  0  0  0
    3.8475   16.7698   25.5670 H   0  0  0  0  0  0
    5.8718   15.0393   27.3871 H   0  0  0  0  0  0
    4.1210   15.1939   27.1669 H   0  0  0  0  0  0
    4.8593   13.6741   26.8769 H   0  0  0  0  0  0
    2.2615   12.7689   21.9669 H   0  0  0  0  0  0
   -0.1582   12.6705   22.2098 H   0  0  0  0  0  0
    2.7909   10.7029   25.6265 H   0  0  0  0  0  0
   -0.7430    9.9605   26.0252 H   0  0  0  0  0  0
    1.9713    9.2554   26.9224 H   0  0  0  0  0  0
    1.5693    6.8625   25.9647 H   0  0  0  0  0  0
    0.3235    7.5674   24.9831 H   0  0  0  0  0  0
    2.0202    8.9838   24.0134 H   0  0  0  0  0  0
    3.8038    8.9155   25.5994 H   0  0  0  0  0  0
    3.8624    7.1778   25.4001 H   0  0  0  0  0  0
    5.6448    8.2497   24.0845 H   0  0  0  0  0  0
    4.5394    7.3689   23.0895 H   0  0  0  0  0  0
    5.0286    9.2867   21.8599 H   0  0  0  0  0  0
    3.4290    9.5489   22.4118 H   0  0  0  0  0  0
    0.8144    7.4993   28.1931 H   0  0  0  0  0  0
    0.1379    9.0813   28.5304 H   0  0  0  0  0  0
   -0.7250    7.9676   27.4754 H   0  0  0  0  0  0
   -3.3500   12.3715   23.7453 H   0  0  0  0  0  0
   -1.9220   13.1414   23.0421 H   0  0  0  0  0  0
  1  2  1  0  0  0
  1 31  1  0  0  0
  1 32  1  0  0  0
  1 33  1  0  0  0
  2  3  2  0  0  0
  2  6  1  0  0  0
  3 26  1  0  0  0
  3  4  1  0  0  0
  4  5  1  0  0  0
  4 14  1  0  0  0
  5  6  2  0  0  0
  5 11  1  0  0  0
  6  7  1  0  0  0
  7  8  2  0  0  0
  7  9  1  0  0  0
  9 10  1  0  0  0
  9 34  1  0  0  0
  9 35  1  0  0  0
 10 11  1  0  0  0
 10 12  1  0  0  0
 10 13  1  0  0  0
 11 36  1  0  0  0
 11 37  1  0  0  0
 12 38  1  0  0  0
 12 39  1  0  0  0
 12 40  1  0  0  0
 13 41  1  0  0  0
 13 42  1  0  0  0
 13 43  1  0  0  0
 14 15  1  0  0  0
 14 19  2  0  0  0
 15 16  2  0  0  0
 15 44  1  0  0  0
 16 17  1  0  0  0
 16 45  1  0  0  0
 17 28  1  0  0  0
 17 18  2  0  0  0
 18 19  1  0  0  0
 18 20  1  0  0  0
 19 46  1  0  0  0
 20 21  1  0  0  0
 20 47  1  0  0  0
 21 22  1  0  0  0
 21 27  1  0  0  0
 21 48  1  0  0  0
 22 23  1  0  0  0
 22 49  1  0  0  0
 22 50  1  0  0  0
 23 24  1  0  0  0
 23 51  1  0  0  0
 24 25  1  0  0  0
 24 52  1  0  0  0
 24 53  1  0  0  0
 25 26  1  0  0  0
 25 54  1  0  0  0
 25 55  1  0  0  0
 26 56  1  0  0  0
 26 57  1  0  0  0
 27 58  1  0  0  0
 27 59  1  0  0  0
 27 60  1  0  0  0
 28 30  1  0  0  0
 28 29  2  0  0  0
 30 61  1  0  0  0
 30 62  1  0  0  0
M  END
> <s_m_entry_id>
4724

> <s_m_entry_name>
dock_pv.43

> <s_m_Source_Path>
/home/csk/Desktop/cluster/DUD-E-result/hs90a

> <s_m_Source_File>
dock_pv.maegz

> <i_m_Source_File_Index>
43

> <chembl_id>
CHEMBL1738703

> <chembl_pref_name>
None

> <i_lp_mmshare_version>
53161

> <r_lp_tautomer_probability>
0.99995

> <s_lp_Force_Field>
OPLS_2005

> <r_lp_Energy>
40.845127

> <b_lp_Chiralities_Consistent>
1

> <s_lp_Variant>
CHEMBL3880_lig182-1

> <s_i_glide_gridfile>
glide-grid_1uyg

> <i_i_glide_lignum>
213

> <i_i_glide_rotatable_bonds>
1

> <r_i_docking_score>
-9.3185918519246

> <r_i_glide_ligand_efficiency>
-0.310619728397487

> <r_i_glide_ligand_efficiency_sa>
-0.965167715972987

> <r_i_glide_ligand_efficiency_ln>
-2.11728560294775

> <r_i_glide_gscore>
-9.3185918519246

> <r_i_glide_lipo>
-4.64532857770162

> <r_i_glide_hbond>
-0.16

> <r_i_glide_metal>
0

> <r_i_glide_rewards>
-2.16898575392083

> <r_i_glide_evdw>
-35.9607467651367

> <r_i_glide_ecoul>
-3.20529508590698

> <r_i_glide_erotb>
0

> <r_i_glide_esite>
-0.0654459191592679

> <r_i_glide_emodel>
-41.9305251804742

> <r_i_glide_energy>
-39.1660418510437

> <r_i_glide_einternal>
1.19048762321472

> <i_i_glide_confnum>
1

> <i_i_glide_posenum>
153

> <r_i_glide_eff_state_penalty>
0

> <s_user_duplicate_titles>
CHEMBL3880_lig182

> <i_f3d_flags>
0

> <s_m_subgroup_title>
dock_pv

> <s_m_subgroupid>
dock_pv

> <b_m_subgroup_collapsed>
1

$$$$
CHEMBL3880_lig798
                    3D
 Schrodinger Suite 2021-1.
 62 64  0  0  1  0            999 V2000
   -0.3518   10.7848   24.9131 C   0  0  0  0  0  0
    0.3591   11.6220   24.0640 C   0  0  0  0  0  0
   -0.5865   11.9745   23.0597 C   0  0  0  0  0  0
   -1.7705   11.4838   23.3573 N   0  0  0  0  0  0
   -1.6416   10.7404   24.5161 O   0  0  0  0  0  0
    1.4176    8.3327   27.1988 C   0  0  0  0  0  0
    0.5789    8.3812   28.3278 C   0  0  0  0  0  0
   -0.5703    9.1646   28.3180 C   0  0  0  0  0  0
   -0.8814    9.9536   27.2200 C   0  0  0  0  0  0
   -0.0343    9.9656   26.1081 C   0  0  0  0  0  0
    1.0994    9.1492   26.1004 C   0  0  0  0  0  0
    0.8589    7.6902   29.4768 O   0  0  0  0  0  0
   -2.0346   10.6907   27.2569 O   0  0  0  0  0  0
    2.6442    7.3992   27.1717 C   0  0  0  0  0  0
    3.6423    7.6615   26.0221 C   0  0  0  0  0  0
    2.2290    5.9130   27.1648 C   0  0  0  0  0  0
    1.7048   11.9693   24.2093 N   0  0  0  0  0  0
    2.1431   13.2493   24.1837 C   0  0  0  0  0  0
    3.6125   13.4748   24.4495 C   0  0  0  0  0  0
    1.4099   14.2244   23.9942 O   0  0  0  0  0  0
   -0.2963   12.6560   21.8068 C   0  0  0  0  0  0
    0.8555   12.7251   21.3859 O   0  0  0  0  0  0
   -1.2859   13.1687   21.0485 N   0  0  0  0  0  0
   -2.7341   13.2249   21.2184 C   0  0  0  0  0  0
   -3.2702   14.1341   22.3171 C   0  0  0  0  0  0
    4.5946   12.6819   23.8460 C   0  0  0  0  0  0
    5.9428   13.0224   23.9671 C   0  0  0  0  0  0
    6.3264   14.1094   24.7675 C   0  0  0  0  0  0
    5.3512   14.8584   25.4309 C   0  0  0  0  0  0
    4.0061   14.5511   25.2548 C   0  0  0  0  0  0
    7.7722   14.5151   24.8407 C   0  0  0  0  0  0
    8.3956   14.7844   23.8163 O   0  0  0  0  0  0
    8.3336   14.6486   26.1031 N   0  0  0  0  0  0
    9.4605   14.1023   26.3656 C   0  0  0  0  0  0
   10.1428   14.3511   27.5662 N   0  0  0  0  0  0
   10.2030   13.1902   25.5753 N   0  0  0  0  0  0
   -1.2348    9.1701   29.1667 H   0  0  0  0  0  0
    1.7140    9.1379   25.2134 H   0  0  0  0  0  0
    0.3365    8.0264   30.2110 H   0  0  0  0  0  0
   -2.3099   10.9827   26.3818 H   0  0  0  0  0  0
    3.1873    7.5891   28.1001 H   0  0  0  0  0  0
    3.9134    8.7151   25.9612 H   0  0  0  0  0  0
    3.2325    7.3661   25.0549 H   0  0  0  0  0  0
    4.5643    7.0983   26.1697 H   0  0  0  0  0  0
    1.5957    5.6589   28.0138 H   0  0  0  0  0  0
    1.6774    5.6616   26.2573 H   0  0  0  0  0  0
    3.1007    5.2594   27.2109 H   0  0  0  0  0  0
    2.3356   11.2706   24.5704 H   0  0  0  0  0  0
   -0.9631   13.5859   20.1897 H   0  0  0  0  0  0
   -3.1386   13.6150   20.2981 H   0  0  0  0  0  0
   -3.1381   12.2341   21.2890 H   0  0  0  0  0  0
   -4.3404   13.9754   22.4573 H   0  0  0  0  0  0
   -2.7844   13.9690   23.2786 H   0  0  0  0  0  0
   -3.1514   15.1676   21.9994 H   0  0  0  0  0  0
    4.3202   11.8540   23.2082 H   0  0  0  0  0  0
    6.6847   12.4431   23.4351 H   0  0  0  0  0  0
    5.6259   15.7082   26.0422 H   0  0  0  0  0  0
    3.2650   15.1701   25.7378 H   0  0  0  0  0  0
    9.6418   14.8593   28.2876 H   0  0  0  0  0  0
   10.6729   13.6045   27.9834 H   0  0  0  0  0  0
    9.7085   12.7508   24.8113 H   0  0  0  0  0  0
   10.7592   12.5070   26.0653 H   0  0  0  0  0  0
  1  2  2  0  0  0
  1  5  1  0  0  0
  1 10  1  0  0  0
  2  3  1  0  0  0
  2 17  1  0  0  0
  3  4  2  0  0  0
  3 21  1  0  0  0
  4  5  1  0  0  0
  6  7  2  0  0  0
  6 11  1  0  0  0
  6 14  1  0  0  0
  7  8  1  0  0  0
  7 12  1  0  0  0
  8  9  2  0  0  0
  8 37  1  0  0  0
  9 10  1  0  0  0
  9 13  1  0  0  0
 10 11  2  0  0  0
 11 38  1  0  0  0
 12 39  1  0  0  0
 13 40  1  0  0  0
 14 15  1  0  0  0
 14 16  1  0  0  0
 14 41  1  0  0  0
 15 42  1  0  0  0
 15 43  1  0  0  0
 15 44  1  0  0  0
 16 45  1  0  0  0
 16 46  1  0  0  0
 16 47  1  0  0  0
 17 18  1  0  0  0
 17 48  1  0  0  0
 18 19  1  0  0  0
 18 20  2  0  0  0
 19 26  2  0  0  0
 19 30  1  0  0  0
 21 22  2  0  0  0
 21 23  1  0  0  0
 23 24  1  0  0  0
 23 49  1  0  0  0
 24 25  1  0  0  0
 24 50  1  0  0  0
 24 51  1  0  0  0
 25 52  1  0  0  0
 25 53  1  0  0  0
 25 54  1  0  0  0
 26 27  1  0  0  0
 26 55  1  0  0  0
 27 28  2  0  0  0
 27 56  1  0  0  0
 28 29  1  0  0  0
 28 31  1  0  0  0
 29 30  2  0  0  0
 29 57  1  0  0  0
 30 58  1  0  0  0
 31 33  1  0  0  0
 31 32  2  0  0  0
 33 34  2  0  0  0
 34 36  1  0  0  0
 34 35  1  0  0  0
 35 60  1  0  0  0
 35 59  1  0  0  0
 36 62  1  0  0  0
 36 61  1  0  0  0
M  END
> <s_m_entry_id>
4725

> <s_m_entry_name>
dock_pv.44

> <s_m_Source_Path>
/home/csk/Desktop/cluster/DUD-E-result/hs90a

> <s_m_Source_File>
dock_pv.maegz

> <i_m_Source_File_Index>
44

> <chembl_id>
CHEMBL4126250

> <chembl_pref_name>
None

> <i_lp_mmshare_version>
53161

> <r_lp_tautomer_probability>
0.499994999949001

> <s_lp_Force_Field>
OPLS_2005

> <r_lp_Energy>
39.270799

> <b_lp_Chiralities_Consistent>
1

> <s_lp_Variant>
CHEMBL3880_lig798-1

> <s_i_glide_gridfile>
glide-grid_1uyg

> <i_i_glide_lignum>
899

> <i_i_glide_rotatable_bonds>
12

> <r_i_docking_score>
-9.30479319858329

> <r_i_glide_ligand_efficiency>
-0.258466477738425

> <r_i_glide_ligand_efficiency_sa>
-0.853437504750884

> <r_i_glide_ligand_efficiency_ln>
-2.03005448946993

> <r_i_glide_gscore>
-9.30479319858329

> <r_i_glide_lipo>
-4.43638409722438

> <r_i_glide_hbond>
-0.723848917003141

> <r_i_glide_metal>
0

> <r_i_glide_rewards>
-0.209788402632896

> <r_i_glide_evdw>
-53.8320693969727

> <r_i_glide_ecoul>
-12.7325344085693

> <r_i_glide_erotb>
0.666711849411161

> <r_i_glide_esite>
0

> <r_i_glide_emodel>
-82.3861926898461

> <r_i_glide_energy>
-66.564603805542

> <r_i_glide_einternal>
8.46043491363525

> <i_i_glide_confnum>
17

> <i_i_glide_posenum>
220

> <r_i_glide_eff_state_penalty>
0

> <s_user_duplicate_titles>
CHEMBL3880_lig798

> <i_f3d_flags>
1

> <s_m_subgroup_title>
dock_pv

> <s_m_subgroupid>
dock_pv

> <b_m_subgroup_collapsed>
1

$$$$
CHEMBL3880_lig384
                    3D
 Schrodinger Suite 2021-1.
 46 49  0  0  1  0            999 V2000
   -1.5526   11.2876   24.9577 N   0  0  0  0  0  0
   -1.2549   11.9691   23.8281 C   0  0  0  0  0  0
   -0.0247   12.0681   23.2712 N   0  0  0  0  0  0
   -0.5382   10.6143   25.5596 C   0  0  0  0  0  0
    0.7699   10.6112   25.0296 C   0  0  0  0  0  0
    0.9765   11.3511   23.8533 C   0  0  0  0  0  0
    2.3559   11.3523   23.2138 C   0  0  0  0  0  0
    3.4847   11.1068   24.2613 C   0  0  1  0  0  0
    3.1016    9.9673   25.1164 N   0  0  0  0  0  0
    1.8720    9.7538   25.6235 C   0  0  0  0  0  0
    4.8459   10.9301   23.5681 C   0  0  0  0  0  0
    5.8957   11.8935   23.5636 C   0  0  0  0  0  0
    7.1000   11.5278   22.9287 C   0  0  0  0  0  0
    7.2803   10.2820   22.3426 C   0  0  0  0  0  0
    6.2513    9.3566   22.3494 C   0  0  0  0  0  0
    5.0456    9.6843   22.9480 C   0  0  0  0  0  0
   -0.9382    9.9175   26.8530 C   0  0  0  0  0  0
    1.7406    8.8531   26.4465 O   0  0  0  0  0  0
   -2.3139   12.5912   23.1785 N   0  0  0  0  0  0
    5.8454   13.2415   24.2427 C   0  0  0  0  0  0
    7.0266   13.6560   24.7885 N   0  0  0  0  0  0
    7.0544   14.7800   25.5591 C   0  0  0  0  0  0
    5.9123   15.5431   25.7805 C   0  0  0  0  0  0
    4.7218   15.1727   25.1630 C   0  0  0  0  0  0
    4.6897   14.0277   24.3681 C   0  0  0  0  0  0
    8.2359   15.1681   26.1633 O   0  0  0  0  0  0
    9.4100   14.3794   25.9937 C   0  0  0  0  0  0
    8.4601    9.9672   21.7749 F   0  0  0  0  0  0
    2.5200   12.2791   22.6634 H   0  0  0  0  0  0
    2.3692   10.5513   22.4732 H   0  0  0  0  0  0
    3.5400   11.9242   24.9743 H   0  0  0  0  0  0
    3.8339    9.3795   25.4870 H   0  0  0  0  0  0
    7.9359   12.2123   22.9003 H   0  0  0  0  0  0
    6.3955    8.3823   21.9045 H   0  0  0  0  0  0
    4.2614    8.9402   22.9464 H   0  0  0  0  0  0
   -0.3457   10.3101   27.6776 H   0  0  0  0  0  0
   -1.9923   10.0651   27.0951 H   0  0  0  0  0  0
   -0.7538    8.8461   26.7804 H   0  0  0  0  0  0
   -2.1659   13.0417   22.2905 H   0  0  0  0  0  0
   -3.2528   12.4653   23.5688 H   0  0  0  0  0  0
    5.9577   16.4150   26.4143 H   0  0  0  0  0  0
    3.8330   15.7701   25.2983 H   0  0  0  0  0  0
    3.7696   13.7703   23.8744 H   0  0  0  0  0  0
   10.2280   14.8244   26.5611 H   0  0  0  0  0  0
    9.2673   13.3603   26.3550 H   0  0  0  0  0  0
    9.7111   14.3428   24.9470 H   0  0  0  0  0  0
  1  2  2  0  0  0
  1  4  1  0  0  0
  2  3  1  0  0  0
  2 19  1  0  0  0
  3  6  2  0  0  0
  4  5  2  0  0  0
  4 17  1  0  0  0
  5  6  1  0  0  0
  5 10  1  0  0  0
  6  7  1  0  0  0
  7  8  1  0  0  0
  7 29  1  0  0  0
  7 30  1  0  0  0
  8  9  1  0  0  0
  8 11  1  0  0  0
  8 31  1  0  0  0
  9 10  1  0  0  0
  9 32  1  0  0  0
 10 18  2  0  0  0
 11 12  2  0  0  0
 11 16  1  0  0  0
 12 13  1  0  0  0
 12 20  1  0  0  0
 13 14  2  0  0  0
 13 33  1  0  0  0
 14 15  1  0  0  0
 14 28  1  0  0  0
 15 16  2  0  0  0
 15 34  1  0  0  0
 16 35  1  0  0  0
 17 36  1  0  0  0
 17 37  1  0  0  0
 17 38  1  0  0  0
 19 39  1  0  0  0
 19 40  1  0  0  0
 20 21  2  0  0  0
 20 25  1  0  0  0
 21 22  1  0  0  0
 22 23  2  0  0  0
 22 26  1  0  0  0
 23 24  1  0  0  0
 23 41  1  0  0  0
 24 25  2  0  0  0
 24 42  1  0  0  0
 25 43  1  0  0  0
 26 27  1  0  0  0
 27 44  1  0  0  0
 27 45  1  0  0  0
 27 46  1  0  0  0
M  END
> <s_m_entry_id>
4726

> <s_m_entry_name>
dock_pv.45

> <s_m_Source_Path>
/home/csk/Desktop/cluster/DUD-E-result/hs90a

> <s_m_Source_File>
dock_pv.maegz

> <i_m_Source_File_Index>
45

> <chembl_id>
CHEMBL3360305

> <chembl_pref_name>
None

> <i_lp_mmshare_version>
53161

> <r_lp_tautomer_probability>
0.999999987636

> <s_lp_Force_Field>
OPLS_2005

> <r_lp_Energy>
21.117399

> <b_lp_Chiralities_Consistent>
1

> <s_lp_Variant>
CHEMBL3880_lig384-1

> <s_i_glide_gridfile>
glide-grid_1uyg

> <i_i_glide_lignum>
426

> <i_i_glide_rotatable_bonds>
3

> <r_i_docking_score>
-9.2981762158967

> <r_i_glide_ligand_efficiency>
-0.332077721996311

> <r_i_glide_ligand_efficiency_sa>
-1.00838354729954

> <r_i_glide_ligand_efficiency_ln>
-2.14629207694552

> <r_i_glide_gscore>
-9.2981762158967

> <r_i_glide_lipo>
-4.50928666936636

> <r_i_glide_hbond>
-0.16

> <r_i_glide_metal>
0

> <r_i_glide_rewards>
-2.01356898552698

> <r_i_glide_evdw>
-45.8214836120605

> <r_i_glide_ecoul>
-3.75233221054077

> <r_i_glide_erotb>
0.269417687691059

> <r_i_glide_esite>
-0.0308142365102804

> <r_i_glide_emodel>
-74.2279818382804

> <r_i_glide_energy>
-49.5738158226013

> <r_i_glide_einternal>
1.87652122974396

> <i_i_glide_confnum>
4

> <i_i_glide_posenum>
186

> <r_i_glide_eff_state_penalty>
0

> <s_user_duplicate_titles>
CHEMBL3880_lig384

> <i_f3d_flags>
0

> <s_m_subgroup_title>
dock_pv

> <s_m_subgroupid>
dock_pv

> <b_m_subgroup_collapsed>
1

$$$$
CHEMBL3880_lig969
                    3D
 Schrodinger Suite 2021-1.
 59 63  0  0  1  0            999 V2000
    0.0602    7.4113   25.7679 C   0  0  0  0  0  0
    0.5031    8.4275   26.8519 C   0  0  0  0  0  0
    0.9003    7.7385   28.1738 C   0  0  0  0  0  0
    5.7045   11.2485   23.6725 C   0  0  0  0  0  0
    4.3455   11.4485   23.9628 C   0  0  0  0  0  0
    3.4258   10.4102   23.9738 C   0  0  0  0  0  0
    3.8481    9.1137   23.7069 C   0  0  0  0  0  0
    2.0743   10.6959   24.2370 N   0  0  0  0  0  0
    1.2958   10.2128   25.2638 C   0  0  0  0  0  0
    0.0056   10.7239   25.1230 C   0  0  0  0  0  0
   -1.0741   10.3699   26.0453 C   0  0  0  0  0  0
   -0.6593    9.4165   27.1838 C   0  0  0  0  0  0
    1.7419    9.2199   26.3354 C   0  0  0  0  0  0
   -2.2289   10.7692   25.9257 O   0  0  0  0  0  0
   -0.0138   11.5807   24.0035 C   0  0  0  0  0  0
    1.2875   11.5688   23.5218 C   0  0  0  0  0  0
   -1.1907   12.3056   23.3809 C   0  0  0  0  0  0
    6.1298    9.9121   23.4233 C   0  0  0  0  0  0
    5.1881    8.8554   23.4233 C   0  0  0  0  0  0
    5.6590    7.4431   23.1170 C   0  0  0  0  0  0
    7.0759    7.2501   23.6921 C   0  0  0  0  0  0
    7.9474    8.3101   23.1669 N   0  0  0  0  0  0
    7.5731    9.6010   23.0352 C   0  0  0  0  0  0
    8.3729   10.3690   22.5144 O   0  0  0  0  0  0
    6.6801   12.4651   23.6962 C   0  0  0  0  0  0
    6.3563   13.7120   24.5473 C   0  0  0  0  0  0
    5.1737   14.4373   24.3674 C   0  0  0  0  0  0
    4.8121   15.4518   25.2406 C   0  0  0  0  0  0
    5.6634   15.7899   26.2793 C   0  0  0  0  0  0
    6.9005   15.1644   26.4123 C   0  0  0  0  0  0
    7.2514   14.1295   25.5449 C   0  0  0  0  0  0
   -0.7397    6.7693   26.1337 H   0  0  0  0  0  0
   -0.3001    7.8875   24.8556 H   0  0  0  0  0  0
    0.8841    6.7572   25.4800 H   0  0  0  0  0  0
    0.0620    7.1856   28.5998 H   0  0  0  0  0  0
    1.7143    7.0289   28.0238 H   0  0  0  0  0  0
    1.2283    8.4568   28.9277 H   0  0  0  0  0  0
    3.9432   12.4039   24.2225 H   0  0  0  0  0  0
    3.1314    8.3043   23.6956 H   0  0  0  0  0  0
   -1.5398    8.9001   27.5671 H   0  0  0  0  0  0
   -0.3388   10.0789   27.9804 H   0  0  0  0  0  0
    2.5336    8.5467   26.0064 H   0  0  0  0  0  0
    2.1641    9.8133   27.1477 H   0  0  0  0  0  0
    1.7126   12.0787   22.6698 H   0  0  0  0  0  0
   -1.5065   13.1698   23.9677 H   0  0  0  0  0  0
   -0.9863   12.6358   22.3597 H   0  0  0  0  0  0
   -2.0648   11.6532   23.3214 H   0  0  0  0  0  0
    4.9792    6.6914   23.5214 H   0  0  0  0  0  0
    5.6609    7.2905   22.0367 H   0  0  0  0  0  0
    7.0642    7.2401   24.7829 H   0  0  0  0  0  0
    7.4710    6.2789   23.3934 H   0  0  0  0  0  0
    8.8285    8.0570   22.7484 H   0  0  0  0  0  0
    6.8631   12.7689   22.6696 H   0  0  0  0  0  0
    7.6434   12.1106   24.0630 H   0  0  0  0  0  0
    4.5022   14.2158   23.5576 H   0  0  0  0  0  0
    3.8743   15.9689   25.1225 H   0  0  0  0  0  0
    5.3844   16.5795   26.9590 H   0  0  0  0  0  0
    7.5710   15.4606   27.2059 H   0  0  0  0  0  0
    8.1893   13.6138   25.6938 H   0  0  0  0  0  0
  1  2  1  0  0  0
  1 32  1  0  0  0
  1 33  1  0  0  0
  1 34  1  0  0  0
  2  3  1  0  0  0
  2 12  1  0  0  0
  2 13  1  0  0  0
  3 35  1  0  0  0
  3 36  1  0  0  0
  3 37  1  0  0  0
  4  5  2  0  0  0
  4 18  1  0  0  0
  4 25  1  0  0  0
  5  6  1  0  0  0
  5 38  1  0  0  0
  6  7  2  0  0  0
  6  8  1  0  0  0
  7 19  1  0  0  0
  7 39  1  0  0  0
  8 16  1  0  0  0
  8  9  1  0  0  0
  9 10  2  0  0  0
  9 13  1  0  0  0
 10 15  1  0  0  0
 10 11  1  0  0  0
 11 12  1  0  0  0
 11 14  2  0  0  0
 12 40  1  0  0  0
 12 41  1  0  0  0
 13 42  1  0  0  0
 13 43  1  0  0  0
 15 16  2  0  0  0
 15 17  1  0  0  0
 16 44  1  0  0  0
 17 45  1  0  0  0
 17 46  1  0  0  0
 17 47  1  0  0  0
 18 19  2  0  0  0
 18 23  1  0  0  0
 19 20  1  0  0  0
 20 21  1  0  0  0
 20 48  1  0  0  0
 20 49  1  0  0  0
 21 22  1  0  0  0
 21 50  1  0  0  0
 21 51  1  0  0  0
 22 23  1  0  0  0
 22 52  1  0  0  0
 23 24  2  0  0  0
 25 26  1  0  0  0
 25 53  1  0  0  0
 25 54  1  0  0  0
 26 27  2  0  0  0
 26 31  1  0  0  0
 27 28  1  0  0  0
 27 55  1  0  0  0
 28 29  2  0  0  0
 28 56  1  0  0  0
 29 30  1  0  0  0
 29 57  1  0  0  0
 30 31  2  0  0  0
 30 58  1  0  0  0
 31 59  1  0  0  0
M  END
> <s_m_entry_id>
4727

> <s_m_entry_name>
dock_pv.46

> <s_m_Source_Path>
/home/csk/Desktop/cluster/DUD-E-result/hs90a

> <s_m_Source_File>
dock_pv.maegz

> <i_m_Source_File_Index>
46

> <chembl_id>
CHEMBL3235359

> <chembl_pref_name>
None

> <i_lp_mmshare_version>
53161

> <r_lp_tautomer_probability>
0.99995

> <s_lp_Force_Field>
OPLS_2005

> <r_lp_Energy>
36.97828

> <b_lp_Chiralities_Consistent>
1

> <s_lp_Variant>
CHEMBL3880_lig969-1

> <s_i_glide_gridfile>
glide-grid_1uyg

> <i_i_glide_lignum>
1078

> <i_i_glide_rotatable_bonds>
3

> <r_i_docking_score>
-9.27008307161731

> <r_i_glide_ligand_efficiency>
-0.299034937794107

> <r_i_glide_ligand_efficiency_sa>
-0.939382566900195

> <r_i_glide_ligand_efficiency_ln>
-2.09068782657746

> <r_i_glide_gscore>
-9.27008307161731

> <r_i_glide_lipo>
-5.04130790020812

> <r_i_glide_hbond>
0

> <r_i_glide_metal>
0

> <r_i_glide_rewards>
-2.12398984740341

> <r_i_glide_evdw>
-47.4717178344727

> <r_i_glide_ecoul>
-0.52557098865509

> <r_i_glide_erotb>
0.347636216016116

> <r_i_glide_esite>
0

> <r_i_glide_emodel>
-70.7397872837291

> <r_i_glide_energy>
-47.9972888231277

> <r_i_glide_einternal>
5.8920578956604

> <i_i_glide_confnum>
24

> <i_i_glide_posenum>
37

> <r_i_glide_eff_state_penalty>
0

> <s_user_duplicate_titles>
CHEMBL3880_lig969

> <i_f3d_flags>
0

> <s_m_subgroup_title>
dock_pv

> <s_m_subgroupid>
dock_pv

> <b_m_subgroup_collapsed>
1

$$$$
CHEMBL3880_lig935
                    3D
 Schrodinger Suite 2021-1.
 55 58  0  0  1  0            999 V2000
    1.9566    8.8801   25.6993 C   0  0  0  0  0  0
    2.7785    7.5811   25.5482 C   0  0  0  0  0  0
    1.6124    9.1691   27.1753 C   0  0  0  0  0  0
    0.0982   12.3821   23.9760 C   0  0  0  0  0  0
    1.2235   13.2031   23.9604 C   0  0  0  0  0  0
    2.3480   12.5140   24.3603 N   0  0  0  0  0  0
    0.5544   11.1500   24.4608 C   0  0  0  0  0  0
    1.9332   11.2167   24.6253 C   0  0  0  0  0  0
    2.8070   10.0547   25.1027 C   0  0  0  0  0  0
    0.6289    8.6807   24.9098 C   0  0  0  0  0  0
   -0.2200    9.9553   24.7671 C   0  0  0  0  0  0
    3.6693   13.0247   24.4153 C   0  0  0  0  0  0
    4.7020   12.3139   23.8149 C   0  0  0  0  0  0
    6.0495   12.6774   23.9667 C   0  0  0  0  0  0
    6.3484   13.8797   24.6620 C   0  0  0  0  0  0
    5.2953   14.6498   25.1794 C   0  0  0  0  0  0
    3.9812   14.2115   25.0778 C   0  0  0  0  0  0
    7.0709   11.8385   23.4542 N   0  0  0  0  0  0
    7.7547   14.3673   24.8835 C   0  0  0  0  0  0
    8.1761   14.3692   26.1464 N   0  0  0  0  0  0
    8.4606   14.7688   23.9669 O   0  0  0  0  0  0
    6.8291   10.5724   22.7264 C   0  0  1  0  0  0
   -1.2993   12.6952   23.4859 C   0  0  0  0  0  0
   -1.4374    9.9697   24.9205 O   0  0  0  0  0  0
    8.1082    9.7869   22.5548 C   0  0  0  0  0  0
    8.0610    8.7563   23.6768 C   0  0  0  0  0  0
    6.7038    8.3775   23.7007 O   0  0  0  0  0  0
    5.9187    9.5272   23.4170 C   0  0  0  0  0  0
    5.5294   15.8127   25.8344 F   0  0  0  0  0  0
    2.2489    6.7245   25.9676 H   0  0  0  0  0  0
    2.9908    7.3487   24.5035 H   0  0  0  0  0  0
    3.7355    7.6552   26.0657 H   0  0  0  0  0  0
    1.0553    8.3455   27.6240 H   0  0  0  0  0  0
    2.5142    9.3095   27.7731 H   0  0  0  0  0  0
    1.0047   10.0655   27.2899 H   0  0  0  0  0  0
    1.3213   14.2330   23.6508 H   0  0  0  0  0  0
    3.2759    9.6864   24.1927 H   0  0  0  0  0  0
    3.6045   10.3673   25.7791 H   0  0  0  0  0  0
    0.8354    8.3435   23.8941 H   0  0  0  0  0  0
    0.0064    7.9058   25.3585 H   0  0  0  0  0  0
    4.4227   11.4568   23.2299 H   0  0  0  0  0  0
    3.2355   14.8089   25.5568 H   0  0  0  0  0  0
    7.8952   12.3450   23.1562 H   0  0  0  0  0  0
    9.1014   14.7037   26.3641 H   0  0  0  0  0  0
    7.5581   14.0754   26.8859 H   0  0  0  0  0  0
    6.4454   10.7688   21.7274 H   0  0  0  0  0  0
   -1.6879   11.8726   22.8833 H   0  0  0  0  0  0
   -2.0108   12.7972   24.3054 H   0  0  0  0  0  0
   -1.3462   13.5690   22.8437 H   0  0  0  0  0  0
    9.0059   10.4025   22.6162 H   0  0  0  0  0  0
    8.1235    9.2862   21.5852 H   0  0  0  0  0  0
    8.3556    9.1574   24.6488 H   0  0  0  0  0  0
    8.6997    7.8920   23.4901 H   0  0  0  0  0  0
    5.0784    9.2443   22.7832 H   0  0  0  0  0  0
    5.5432    9.8941   24.3667 H   0  0  0  0  0  0
  1  2  1  0  0  0
  1  3  1  0  0  0
  1  9  1  0  0  0
  1 10  1  0  0  0
  2 30  1  0  0  0
  2 31  1  0  0  0
  2 32  1  0  0  0
  3 33  1  0  0  0
  3 34  1  0  0  0
  3 35  1  0  0  0
  4  7  1  0  0  0
  4  5  2  0  0  0
  4 23  1  0  0  0
  5  6  1  0  0  0
  5 36  1  0  0  0
  6  8  1  0  0  0
  6 12  1  0  0  0
  7  8  2  0  0  0
  7 11  1  0  0  0
  8  9  1  0  0  0
  9 37  1  0  0  0
  9 38  1  0  0  0
 10 11  1  0  0  0
 10 39  1  0  0  0
 10 40  1  0  0  0
 11 24  2  0  0  0
 12 13  2  0  0  0
 12 17  1  0  0  0
 13 14  1  0  0  0
 13 41  1  0  0  0
 14 15  2  0  0  0
 14 18  1  0  0  0
 15 16  1  0  0  0
 15 19  1  0  0  0
 16 17  2  0  0  0
 16 29  1  0  0  0
 17 42  1  0  0  0
 18 22  1  0  0  0
 18 43  1  0  0  0
 19 20  1  0  0  0
 19 21  2  0  0  0
 20 44  1  0  0  0
 20 45  1  0  0  0
 22 25  1  0  0  0
 22 28  1  0  0  0
 22 46  1  0  0  0
 23 47  1  0  0  0
 23 48  1  0  0  0
 23 49  1  0  0  0
 25 26  1  0  0  0
 25 50  1  0  0  0
 25 51  1  0  0  0
 26 27  1  0  0  0
 26 52  1  0  0  0
 26 53  1  0  0  0
 27 28  1  0  0  0
 28 54  1  0  0  0
 28 55  1  0  0  0
M  END
> <s_m_entry_id>
4728

> <s_m_entry_name>
dock_pv.47

> <s_m_Source_Path>
/home/csk/Desktop/cluster/DUD-E-result/hs90a

> <s_m_Source_File>
dock_pv.maegz

> <i_m_Source_File_Index>
47

> <chembl_id>
CHEMBL3104858

> <chembl_pref_name>
None

> <i_lp_mmshare_version>
53161

> <r_lp_tautomer_probability>
0.99995

> <s_lp_Force_Field>
OPLS_2005

> <r_lp_Energy>
42.980464

> <b_lp_Chiralities_Consistent>
1

> <s_lp_Variant>
CHEMBL3880_lig935-1

> <s_i_glide_gridfile>
glide-grid_1uyg

> <i_i_glide_lignum>
1041

> <i_i_glide_rotatable_bonds>
4

> <r_i_docking_score>
-9.25828236209246

> <r_i_glide_ligand_efficiency>
-0.319251115934223

> <r_i_glide_ligand_efficiency_sa>
-0.980840574002768

> <r_i_glide_ligand_efficiency_ln>
-2.11991189113496

> <r_i_glide_gscore>
-9.25828236209246

> <r_i_glide_lipo>
-4.52186317271317

> <r_i_glide_hbond>
-0.0518050811931528

> <r_i_glide_metal>
0

> <r_i_glide_rewards>
-2.44467175657942

> <r_i_glide_evdw>
-49.741756439209

> <r_i_glide_ecoul>
-0.808344066143036

> <r_i_glide_erotb>
0.368397080275197

> <r_i_glide_esite>
0

> <r_i_glide_emodel>
-71.947255574457

> <r_i_glide_energy>
-50.550100505352

> <r_i_glide_einternal>
4.08336019515991

> <i_i_glide_confnum>
69

> <i_i_glide_posenum>
284

> <r_i_glide_eff_state_penalty>
0

> <s_user_duplicate_titles>
CHEMBL3880_lig935

> <i_f3d_flags>
0

> <s_m_subgroup_title>
dock_pv

> <s_m_subgroupid>
dock_pv

> <b_m_subgroup_collapsed>
1

$$$$
CHEMBL3880_lig227
                    3D
 Schrodinger Suite 2021-1.
 65 68  0  0  1  0            999 V2000
    0.4386   12.2430   22.9077 C   0  0  0  0  0  0
    1.8221   12.2847   22.7986 C   0  0  0  0  0  0
   -0.1837   11.5720   23.9775 C   0  0  0  0  0  0
    0.6340   10.9218   24.9356 C   0  0  0  0  0  0
    0.7774    8.9849   26.5657 C   0  0  2  0  0  0
    0.0910   10.1422   25.9742 N   0  0  0  0  0  0
    1.0339    7.8149   25.5418 C   0  0  1  0  0  0
    4.4985    8.2147   23.8848 C   0  0  0  0  0  0
    3.4797    8.0940   25.0441 C   0  0  0  0  0  0
    2.0975    8.0703   24.5542 N   0  0  2  0  0  0
    2.0202   11.0679   24.8520 C   0  0  0  0  0  0
    2.6150   11.7073   23.7764 C   0  0  0  0  0  0
    4.3714    9.3975   22.8878 C   0  0  0  0  0  0
    4.8824   10.7559   23.3841 C   0  0  0  0  0  0
    4.0142   11.7833   23.7088 N   0  0  0  0  0  0
    6.1943   11.2246   23.5561 C   0  0  0  0  0  0
    7.4621   10.4432   23.2789 C   0  0  0  0  0  0
    6.0961   12.5737   23.9670 C   0  0  0  0  0  0
    4.7482   12.9116   23.9863 C   0  0  0  0  0  0
    4.1496   14.2391   24.4496 C   0  0  0  0  0  0
    5.1693   15.0452   25.2985 C   0  0  0  0  0  0
    6.6506   14.8949   24.8296 C   0  0  0  0  0  0
    7.1329   13.4823   24.4795 C   0  0  0  0  0  0
    8.2746   13.1276   24.7651 O   0  0  0  0  0  0
    4.8616   16.5230   25.2118 C   0  0  0  0  0  0
    4.9772   14.6375   26.7508 C   0  0  0  0  0  0
    1.2358    6.4161   26.1668 C   0  0  0  0  0  0
   -0.0180    8.5491   27.8151 C   0  0  0  0  0  0
   -1.6963   11.5683   24.0684 C   0  0  0  0  0  0
   -2.3271   10.7572   24.7440 O   0  0  0  0  0  0
   -2.3381   12.5466   23.4339 N   0  0  0  0  0  0
   -0.1372   12.7220   22.1289 H   0  0  0  0  0  0
    2.2863   12.7686   21.9668 H   0  0  0  0  0  0
    1.7404    9.3159   26.9528 H   0  0  0  0  0  0
   -0.9208   10.0755   25.9398 H   0  0  0  0  0  0
    0.1188    7.7307   24.9525 H   0  0  0  0  0  0
    5.5055    8.2087   24.3050 H   0  0  0  0  0  0
    4.4322    7.2905   23.3084 H   0  0  0  0  0  0
    3.6324    8.9050   25.7521 H   0  0  0  0  0  0
    3.6960    7.1695   25.5787 H   0  0  0  0  0  0
    1.8962    8.9403   24.0796 H   0  0  0  0  0  0
    2.6518   10.6853   25.6351 H   0  0  0  0  0  0
    4.9508    9.1308   22.0026 H   0  0  0  0  0  0
    3.3491    9.4514   22.5103 H   0  0  0  0  0  0
    8.2488   11.0835   22.8791 H   0  0  0  0  0  0
    7.8561    9.9735   24.1797 H   0  0  0  0  0  0
    7.3116    9.6633   22.5332 H   0  0  0  0  0  0
    3.9050   14.8051   23.5668 H   0  0  0  0  0  0
    3.2006   14.1129   24.9734 H   0  0  0  0  0  0
    6.8167   15.4881   23.9366 H   0  0  0  0  0  0
    7.3347   15.3023   25.5749 H   0  0  0  0  0  0
    5.5208   17.0351   25.8973 H   0  0  0  0  0  0
    5.0144   16.9650   24.2361 H   0  0  0  0  0  0
    3.8577   16.7467   25.5668 H   0  0  0  0  0  0
    5.8178   14.9334   27.3794 H   0  0  0  0  0  0
    4.0651   15.0664   27.1667 H   0  0  0  0  0  0
    4.8455   13.5696   26.8163 H   0  0  0  0  0  0
    0.3202    6.0625   26.6417 H   0  0  0  0  0  0
    1.5036    5.6749   25.4127 H   0  0  0  0  0  0
    2.0188    6.4199   26.9240 H   0  0  0  0  0  0
    0.5138    7.7917   28.3895 H   0  0  0  0  0  0
   -0.1806    9.3886   28.4914 H   0  0  0  0  0  0
   -0.9999    8.1501   27.5585 H   0  0  0  0  0  0
   -3.3496   12.5703   23.5684 H   0  0  0  0  0  0
   -1.8688   13.2444   22.8835 H   0  0  0  0  0  0
  1  3  1  0  0  0
  1  2  2  0  0  0
  1 32  1  0  0  0
  2 12  1  0  0  0
  2 33  1  0  0  0
  3  4  2  0  0  0
  3 29  1  0  0  0
  4 11  1  0  0  0
  4  6  1  0  0  0
  5  6  1  0  0  0
  5 28  1  0  0  0
  5  7  1  0  0  0
  5 34  1  0  0  0
  6 35  1  0  0  0
  7 10  1  0  0  0
  7 27  1  0  0  0
  7 36  1  0  0  0
  8 13  1  0  0  0
  8  9  1  0  0  0
  8 37  1  0  0  0
  8 38  1  0  0  0
  9 10  1  0  0  0
  9 39  1  0  0  0
  9 40  1  0  0  0
 10 41  1  0  0  0
 11 12  2  0  0  0
 11 42  1  0  0  0
 12 15  1  0  0  0
 13 14  1  0  0  0
 13 43  1  0  0  0
 13 44  1  0  0  0
 14 16  2  0  0  0
 14 15  1  0  0  0
 15 19  1  0  0  0
 16 18  1  0  0  0
 16 17  1  0  0  0
 17 45  1  0  0  0
 17 46  1  0  0  0
 17 47  1  0  0  0
 18 19  2  0  0  0
 18 23  1  0  0  0
 19 20  1  0  0  0
 20 21  1  0  0  0
 20 48  1  0  0  0
 20 49  1  0  0  0
 21 22  1  0  0  0
 21 25  1  0  0  0
 21 26  1  0  0  0
 22 23  1  0  0  0
 22 50  1  0  0  0
 22 51  1  0  0  0
 23 24  2  0  0  0
 25 52  1  0  0  0
 25 53  1  0  0  0
 25 54  1  0  0  0
 26 55  1  0  0  0
 26 56  1  0  0  0
 26 57  1  0  0  0
 27 58  1  0  0  0
 27 59  1  0  0  0
 27 60  1  0  0  0
 28 61  1  0  0  0
 28 62  1  0  0  0
 28 63  1  0  0  0
 29 30  2  0  0  0
 29 31  1  0  0  0
 31 64  1  0  0  0
 31 65  1  0  0  0
M  END
> <s_m_entry_id>
4729

> <s_m_entry_name>
dock_pv.48

> <s_m_Source_Path>
/home/csk/Desktop/cluster/DUD-E-result/hs90a

> <s_m_Source_File>
dock_pv.maegz

> <i_m_Source_File_Index>
48

> <chembl_id>
CHEMBL1807790

> <chembl_pref_name>
None

> <i_lp_mmshare_version>
53161

> <r_lp_tautomer_probability>
0.99995

> <s_lp_Force_Field>
OPLS_2005

> <r_lp_Energy>
40.013526

> <b_lp_Chiralities_Consistent>
1

> <s_lp_Variant>
CHEMBL3880_lig227-1

> <s_i_glide_gridfile>
glide-grid_1uyg

> <i_i_glide_lignum>
261

> <i_i_glide_rotatable_bonds>
1

> <r_i_docking_score>
-9.25050842547987

> <r_i_glide_ligand_efficiency>
-0.298403497596125

> <r_i_glide_ligand_efficiency_sa>
-0.937398972881383

> <r_i_glide_ligand_efficiency_ln>
-2.08627314398261

> <r_i_glide_gscore>
-9.25050842547987

> <r_i_glide_lipo>
-4.74563244944354

> <r_i_glide_hbond>
-0.16

> <r_i_glide_metal>
0

> <r_i_glide_rewards>
-2.0150102301098

> <r_i_glide_evdw>
-38.3230628967285

> <r_i_glide_ecoul>
-2.4095447063446

> <r_i_glide_erotb>
0

> <r_i_glide_esite>
-0.052280895138416

> <r_i_glide_emodel>
-41.4224403230951

> <r_i_glide_energy>
-40.7326076030731

> <r_i_glide_einternal>
1.6618617773056

> <i_i_glide_confnum>
1

> <i_i_glide_posenum>
97

> <r_i_glide_eff_state_penalty>
0

> <s_user_duplicate_titles>
CHEMBL3880_lig227

> <i_f3d_flags>
0

> <s_m_subgroup_title>
dock_pv

> <s_m_subgroupid>
dock_pv

> <b_m_subgroup_collapsed>
1

$$$$
CHEMBL3880_lig6
                    3D
 Schrodinger Suite 2021-1.
 34 35  0  0  1  0            999 V2000
    0.9808    8.3592   27.0231 S   0  0  0  0  0  0
    3.2154   12.1270   24.4968 O   0  0  0  0  0  0
    9.8659   14.7527   24.7671 O   0  0  0  0  0  0
    9.1571   15.3239   26.8561 O   0  0  0  0  0  0
    0.1162   10.4087   24.5424 N   0  0  0  0  0  0
   -0.3389    9.1311   24.7674 N   0  0  0  0  0  0
   -0.3388    6.9116   25.1673 N   0  0  0  0  0  0
    3.4960   13.4466   24.3614 C   0  0  0  0  0  0
    4.8948   13.8463   24.6248 C   0  0  0  0  0  0
    1.8847   11.9595   24.3006 C   0  0  0  0  0  0
    2.3351   14.1291   24.0245 C   0  0  0  0  0  0
    1.3163   13.1801   23.9672 C   0  0  0  0  0  0
    5.9484   13.1831   23.9893 C   0  0  0  0  0  0
    5.1507   14.8532   25.5542 C   0  0  0  0  0  0
    7.5315   14.5082   25.2651 C   0  0  0  0  0  0
    7.2623   13.5274   24.2994 C   0  0  0  0  0  0
    6.4636   15.1730   25.8825 C   0  0  0  0  0  0
    1.3713   10.6261   24.5086 C   0  0  0  0  0  0
    8.9564   14.8748   25.5861 C   0  0  0  0  0  0
    0.0880    8.1296   25.6114 C   0  0  0  0  0  0
   -0.1130    5.6373   25.8493 C   0  0  0  0  0  0
    8.3921   15.1691   27.4123 H   0  0  0  0  0  0
   -1.1109    8.8909   24.1555 H   0  0  0  0  0  0
   -0.8611    6.8783   24.3006 H   0  0  0  0  0  0
    2.2407   15.1897   23.8528 H   0  0  0  0  0  0
    0.2733   13.3608   23.7469 H   0  0  0  0  0  0
    5.7514   12.4081   23.2623 H   0  0  0  0  0  0
    4.3329   15.3665   26.0420 H   0  0  0  0  0  0
    8.0630   13.0123   23.7887 H   0  0  0  0  0  0
    6.6324   15.9596   26.6059 H   0  0  0  0  0  0
    2.1435    9.8687   24.6299 H   0  0  0  0  0  0
   -0.6967    4.8605   25.3551 H   0  0  0  0  0  0
   -0.4285    5.6801   26.8932 H   0  0  0  0  0  0
    0.9403    5.3511   25.8122 H   0  0  0  0  0  0
  1 20  2  0  0  0
  2  8  1  0  0  0
  2 10  1  0  0  0
  3 19  2  0  0  0
  4 19  1  0  0  0
  4 22  1  0  0  0
  5  6  1  0  0  0
  5 18  2  0  0  0
  6 20  1  0  0  0
  6 23  1  0  0  0
  7 20  1  0  0  0
  7 21  1  0  0  0
  7 24  1  0  0  0
  8  9  1  0  0  0
  8 11  2  0  0  0
  9 13  2  0  0  0
  9 14  1  0  0  0
 10 12  2  0  0  0
 10 18  1  0  0  0
 11 12  1  0  0  0
 11 25  1  0  0  0
 12 26  1  0  0  0
 13 16  1  0  0  0
 13 27  1  0  0  0
 14 17  2  0  0  0
 14 28  1  0  0  0
 15 16  2  0  0  0
 15 17  1  0  0  0
 15 19  1  0  0  0
 16 29  1  0  0  0
 17 30  1  0  0  0
 18 31  1  0  0  0
 21 32  1  0  0  0
 21 33  1  0  0  0
 21 34  1  0  0  0
M  END
> <s_m_entry_id>
4730

> <s_m_entry_name>
dock_pv.49

> <s_m_Source_Path>
/home/csk/Desktop/cluster/DUD-E-result/hs90a

> <s_m_Source_File>
dock_pv.maegz

> <i_m_Source_File_Index>
49

> <chembl_id>
CHEMBL1985165

> <chembl_pref_name>
None

> <i_lp_mmshare_version>
53161

> <r_lp_tautomer_probability>
1

> <s_lp_Force_Field>
OPLS_2005

> <r_lp_Energy>
11.752055

> <b_lp_Chiralities_Consistent>
1

> <s_lp_Variant>
CHEMBL3880_lig6-1

> <s_i_glide_gridfile>
glide-grid_1uyg

> <i_i_glide_lignum>
8

> <i_i_glide_rotatable_bonds>
7

> <r_i_docking_score>
-9.25036335241611

> <r_i_glide_ligand_efficiency>
-0.440493492972196

> <r_i_glide_ligand_efficiency_sa>
-1.21528814606623

> <r_i_glide_ligand_efficiency_ln>
-2.28713364676571

> <r_i_glide_gscore>
-9.25036335241611

> <r_i_glide_lipo>
-3.2241559344155

> <r_i_glide_hbond>
-0.81974636753354

> <r_i_glide_metal>
0

> <r_i_glide_rewards>
-3.2452929890086

> <r_i_glide_evdw>
-35.6209945678711

> <r_i_glide_ecoul>
-7.83328628540039

> <r_i_glide_erotb>
1.00124839978508

> <r_i_glide_esite>
-0.0063737900399399

> <r_i_glide_emodel>
-62.1979016288041

> <r_i_glide_energy>
-43.4542808532715

> <r_i_glide_einternal>
8.92635917663574

> <i_i_glide_confnum>
16

> <i_i_glide_posenum>
310

> <r_i_glide_eff_state_penalty>
0

> <s_user_duplicate_titles>
CHEMBL3880_lig6

> <i_f3d_flags>
0

> <s_m_subgroup_title>
dock_pv

> <s_m_subgroupid>
dock_pv

> <b_m_subgroup_collapsed>
1

$$$$
CHEMBL3880_lig971
                    3D
 Schrodinger Suite 2021-1.
 56 60  0  0  1  0            999 V2000
    5.5330    8.9116   21.4694 C   0  0  0  0  0  0
    5.6840    8.4426   22.9450 C   0  0  0  0  0  0
    5.5177    6.9227   23.1646 C   0  0  0  0  0  0
    0.8007   10.2377   25.1756 C   0  0  0  0  0  0
    2.1643   10.4994   25.0961 C   0  0  0  0  0  0
    2.6658   11.5167   24.2833 C   0  0  0  0  0  0
    1.7876   12.3487   23.6003 C   0  0  0  0  0  0
    4.0522   11.6543   24.1142 N   0  0  0  0  0  0
    4.9476   10.6266   23.9395 C   0  0  0  0  0  0
    6.2236   11.1638   23.8034 C   0  0  0  0  0  0
    7.3889   10.3210   23.5666 C   0  0  0  0  0  0
    7.0968    8.8132   23.4915 C   0  0  0  0  0  0
    4.5834    9.1500   23.7745 C   0  0  0  0  0  0
    8.5104   10.7690   23.3804 O   0  0  0  0  0  0
    6.1383   12.5611   23.9663 C   0  0  0  0  0  0
    4.7764   12.8235   24.0756 C   0  0  0  0  0  0
    7.2609   13.5739   23.9950 C   0  0  0  0  0  0
   -0.0906   11.0834   24.4764 C   0  0  0  0  0  0
    0.4136   12.1542   23.7076 C   0  0  0  0  0  0
   -0.5586   13.0645   22.9891 C   0  0  0  0  0  0
   -1.8047   12.2696   22.5613 C   0  0  0  0  0  0
   -2.3390   11.5814   23.7425 N   0  0  0  0  0  0
   -1.5905   10.9190   24.6478 C   0  0  0  0  0  0
   -2.1541   10.3695   25.5887 O   0  0  0  0  0  0
    0.4099    9.0046   25.9127 C   0  0  0  0  0  0
    0.1547    9.0382   27.2857 C   0  0  0  0  0  0
   -0.1482    7.8671   27.9723 C   0  0  0  0  0  0
   -0.1945    6.6557   27.2888 C   0  0  0  0  0  0
    0.0524    6.6083   25.9193 C   0  0  0  0  0  0
    0.3513    7.7832   25.2324 C   0  0  0  0  0  0
   -0.4777    5.5188   27.9649 F   0  0  0  0  0  0
    4.7419    8.3609   20.9613 H   0  0  0  0  0  0
    5.2896    9.9703   21.3798 H   0  0  0  0  0  0
    6.4526    8.7690   20.9057 H   0  0  0  0  0  0
    4.6102    6.5490   22.6904 H   0  0  0  0  0  0
    6.3582    6.3604   22.7618 H   0  0  0  0  0  0
    5.4600    6.6655   24.2226 H   0  0  0  0  0  0
    2.8393    9.8623   25.6481 H   0  0  0  0  0  0
    2.1668   13.1455   22.9769 H   0  0  0  0  0  0
    7.8862    8.3389   22.9076 H   0  0  0  0  0  0
    7.2061    8.4374   24.5085 H   0  0  0  0  0  0
    3.6032    8.9969   23.3209 H   0  0  0  0  0  0
    4.5381    8.7141   24.7716 H   0  0  0  0  0  0
    4.2660   13.7682   24.1955 H   0  0  0  0  0  0
    6.9040   14.6033   23.9639 H   0  0  0  0  0  0
    7.8740   13.4524   24.8867 H   0  0  0  0  0  0
    7.9384   13.4392   23.1555 H   0  0  0  0  0  0
   -0.8564   13.8806   23.6462 H   0  0  0  0  0  0
   -0.0846   13.5402   22.1297 H   0  0  0  0  0  0
   -2.5628   12.9432   22.1562 H   0  0  0  0  0  0
   -1.5847   11.5707   21.7544 H   0  0  0  0  0  0
   -3.3335   11.6906   23.9671 H   0  0  0  0  0  0
    0.1952    9.9697   27.8232 H   0  0  0  0  0  0
   -0.3370    7.8973   29.0344 H   0  0  0  0  0  0
    0.0048    5.6662   25.3932 H   0  0  0  0  0  0
    0.5437    7.7424   24.1701 H   0  0  0  0  0  0
  1  2  1  0  0  0
  1 32  1  0  0  0
  1 33  1  0  0  0
  1 34  1  0  0  0
  2  3  1  0  0  0
  2 12  1  0  0  0
  2 13  1  0  0  0
  3 35  1  0  0  0
  3 36  1  0  0  0
  3 37  1  0  0  0
  4  5  2  0  0  0
  4 18  1  0  0  0
  4 25  1  0  0  0
  5  6  1  0  0  0
  5 38  1  0  0  0
  6  7  2  0  0  0
  6  8  1  0  0  0
  7 19  1  0  0  0
  7 39  1  0  0  0
  8 16  1  0  0  0
  8  9  1  0  0  0
  9 10  2  0  0  0
  9 13  1  0  0  0
 10 15  1  0  0  0
 10 11  1  0  0  0
 11 12  1  0  0  0
 11 14  2  0  0  0
 12 40  1  0  0  0
 12 41  1  0  0  0
 13 42  1  0  0  0
 13 43  1  0  0  0
 15 16  2  0  0  0
 15 17  1  0  0  0
 16 44  1  0  0  0
 17 45  1  0  0  0
 17 46  1  0  0  0
 17 47  1  0  0  0
 18 19  2  0  0  0
 18 23  1  0  0  0
 19 20  1  0  0  0
 20 21  1  0  0  0
 20 48  1  0  0  0
 20 49  1  0  0  0
 21 22  1  0  0  0
 21 50  1  0  0  0
 21 51  1  0  0  0
 22 23  1  0  0  0
 22 52  1  0  0  0
 23 24  2  0  0  0
 25 26  2  0  0  0
 25 30  1  0  0  0
 26 27  1  0  0  0
 26 53  1  0  0  0
 27 28  2  0  0  0
 27 54  1  0  0  0
 28 29  1  0  0  0
 28 31  1  0  0  0
 29 30  2  0  0  0
 29 55  1  0  0  0
 30 56  1  0  0  0
M  END
> <s_m_entry_id>
4731

> <s_m_entry_name>
dock_pv.50

> <s_m_Source_Path>
/home/csk/Desktop/cluster/DUD-E-result/hs90a

> <s_m_Source_File>
dock_pv.maegz

> <i_m_Source_File_Index>
50

> <chembl_id>
CHEMBL3235361

> <chembl_pref_name>
None

> <i_lp_mmshare_version>
53161

> <r_lp_tautomer_probability>
0.99995

> <s_lp_Force_Field>
OPLS_2005

> <r_lp_Energy>
38.181674

> <b_lp_Chiralities_Consistent>
1

> <s_lp_Variant>
CHEMBL3880_lig971-1

> <s_i_glide_gridfile>
glide-grid_1uyg

> <i_i_glide_lignum>
1080

> <i_i_glide_rotatable_bonds>
2

> <r_i_docking_score>
-9.24095448480213

> <r_i_glide_ligand_efficiency>
-0.298095305961359

> <r_i_glide_ligand_efficiency_sa>
-0.936430825643809

> <r_i_glide_ligand_efficiency_ln>
-2.08411843756666

> <r_i_glide_gscore>
-9.24095448480213

> <r_i_glide_lipo>
-4.52640590689518

> <r_i_glide_hbond>
-0.16

> <r_i_glide_metal>
0

> <r_i_glide_rewards>
-2.00240730146147

> <r_i_glide_evdw>
-45.0048408508301

> <r_i_glide_ecoul>
-3.20163822174072

> <r_i_glide_erotb>
0.227790005135418

> <r_i_glide_esite>
-0.0494435057782836

> <r_i_glide_emodel>
-57.1204362067075

> <r_i_glide_energy>
-48.2064790725708

> <r_i_glide_einternal>
0.826898097991943

> <i_i_glide_confnum>
27

> <i_i_glide_posenum>
273

> <r_i_glide_eff_state_penalty>
0

> <s_user_duplicate_titles>
CHEMBL3880_lig971

> <i_f3d_flags>
0

> <s_m_subgroup_title>
dock_pv

> <s_m_subgroupid>
dock_pv

> <b_m_subgroup_collapsed>
1

$$$$
CHEMBL3880_lig420
                    3D
 Schrodinger Suite 2021-1.
 57 59  0  0  1  0            999 V2000
   -0.5899   10.0433   26.7675 C   0  0  0  0  0  0
   -0.3801   10.9283   25.7134 C   0  0  0  0  0  0
    0.6112   10.6800   24.7675 C   0  0  0  0  0  0
    1.4125    9.5336   24.8722 C   0  0  0  0  0  0
    1.1632    8.6264   25.9075 C   0  0  0  0  0  0
    0.1604    8.8601   26.8595 C   0  0  0  0  0  0
   -0.0960    7.8406   27.9812 C   0  0  0  0  0  0
    0.7595    8.1498   29.2190 C   0  0  0  0  0  0
    0.0485    6.3675   27.5429 C   0  0  0  0  0  0
   -1.5387   10.3687   27.7038 O   0  0  0  0  0  0
    0.7596   11.5714   23.7377 O   0  0  0  0  0  0
    2.5228    9.2274   23.9175 C   0  0  0  0  0  0
    2.5651    7.9598   23.4333 O   0  0  0  0  0  0
    3.6289    7.8401   22.5431 N   0  0  0  0  0  0
    4.1934    9.0259   22.4901 C   0  0  0  0  0  0
    3.5894    9.9416   23.3847 C   0  0  0  0  0  0
    3.9726   11.3226   23.6853 C   0  0  0  0  0  0
    5.3253    9.3103   21.6552 C   0  0  0  0  0  0
    6.4704    9.4396   22.3438 N   0  0  0  0  0  0
    5.2012    9.5581   20.4536 O   0  0  0  0  0  0
    4.3176   12.4650   23.9575 C   0  0  0  0  0  0
    4.6913   13.8439   24.3467 C   0  0  0  0  0  0
    7.6003   10.2336   21.8880 C   0  0  0  0  0  0
    7.4613   11.6330   22.4806 C   0  0  0  0  0  0
    3.9173   14.2004   25.6298 C   0  0  0  0  0  0
    4.3020   15.5676   26.2127 C   0  0  0  0  0  0
    5.8191   15.6718   26.4075 C   0  0  0  0  0  0
    6.5826   15.3996   25.1021 C   0  0  0  0  0  0
    6.2248   14.0192   24.5231 C   0  0  0  0  0  0
   -0.9889   11.8167   25.6370 H   0  0  0  0  0  0
    1.7703    7.7359   25.9756 H   0  0  0  0  0  0
   -1.1397    7.9403   28.2767 H   0  0  0  0  0  0
    0.5925    9.1688   29.5667 H   0  0  0  0  0  0
    0.5165    7.4828   30.0464 H   0  0  0  0  0  0
    1.8254    8.0467   29.0105 H   0  0  0  0  0  0
   -0.5181    6.1645   26.6323 H   0  0  0  0  0  0
    1.0881    6.0939   27.3570 H   0  0  0  0  0  0
   -0.3287    5.6922   28.3127 H   0  0  0  0  0  0
   -1.4783    9.8156   28.4862 H   0  0  0  0  0  0
    0.1204   12.2838   23.7812 H   0  0  0  0  0  0
    6.5509    8.9934   23.2453 H   0  0  0  0  0  0
    4.3732   14.5354   23.5685 H   0  0  0  0  0  0
    8.5258    9.7647   22.2259 H   0  0  0  0  0  0
    7.6596   10.3167   20.8009 H   0  0  0  0  0  0
    8.0610   12.3671   21.9689 H   0  0  0  0  0  0
    6.4459   11.9992   22.3717 H   0  0  0  0  0  0
    7.7217   11.6467   23.5403 H   0  0  0  0  0  0
    4.0788   13.4509   26.4024 H   0  0  0  0  0  0
    2.8611   14.2135   25.3910 H   0  0  0  0  0  0
    3.7863   15.7227   27.1611 H   0  0  0  0  0  0
    3.9685   16.3690   25.5558 H   0  0  0  0  0  0
    6.1443   14.9764   27.1826 H   0  0  0  0  0  0
    6.0564   16.6647   26.7670 H   0  0  0  0  0  0
    7.6570   15.4657   25.2785 H   0  0  0  0  0  0
    6.3471   16.1751   24.3697 H   0  0  0  0  0  0
    6.7284   13.9425   23.5667 H   0  0  0  0  0  0
    6.6533   13.2558   25.1670 H   0  0  0  0  0  0
  1  2  2  0  0  0
  1  6  1  0  0  0
  1 10  1  0  0  0
  2  3  1  0  0  0
  2 30  1  0  0  0
  3  4  2  0  0  0
  3 11  1  0  0  0
  4  5  1  0  0  0
  4 12  1  0  0  0
  5  6  2  0  0  0
  5 31  1  0  0  0
  6  7  1  0  0  0
  7  8  1  0  0  0
  7  9  1  0  0  0
  7 32  1  0  0  0
  8 33  1  0  0  0
  8 34  1  0  0  0
  8 35  1  0  0  0
  9 36  1  0  0  0
  9 37  1  0  0  0
  9 38  1  0  0  0
 10 39  1  0  0  0
 11 40  1  0  0  0
 12 13  1  0  0  0
 12 16  2  0  0  0
 13 14  1  0  0  0
 14 15  2  0  0  0
 15 16  1  0  0  0
 15 18  1  0  0  0
 16 17  1  0  0  0
 17 21  3  0  0  0
 18 19  1  0  0  0
 18 20  2  0  0  0
 19 23  1  0  0  0
 19 41  1  0  0  0
 21 22  1  0  0  0
 22 25  1  0  0  0
 22 29  1  0  0  0
 22 42  1  0  0  0
 23 24  1  0  0  0
 23 43  1  0  0  0
 23 44  1  0  0  0
 24 45  1  0  0  0
 24 46  1  0  0  0
 24 47  1  0  0  0
 25 26  1  0  0  0
 25 48  1  0  0  0
 25 49  1  0  0  0
 26 27  1  0  0  0
 26 50  1  0  0  0
 26 51  1  0  0  0
 27 28  1  0  0  0
 27 52  1  0  0  0
 27 53  1  0  0  0
 28 29  1  0  0  0
 28 54  1  0  0  0
 28 55  1  0  0  0
 29 56  1  0  0  0
 29 57  1  0  0  0
M  END
> <s_m_entry_id>
4732

> <s_m_entry_name>
dock_pv.51

> <s_m_Source_Path>
/home/csk/Desktop/cluster/DUD-E-result/hs90a

> <s_m_Source_File>
dock_pv.maegz

> <i_m_Source_File_Index>
51

> <chembl_id>
CHEMBL3600497

> <chembl_pref_name>
None

> <i_lp_mmshare_version>
53161

> <r_lp_tautomer_probability>
0.999999999898

> <s_lp_Force_Field>
OPLS_2005

> <r_lp_Energy>
22.351538

> <b_lp_Chiralities_Consistent>
1

> <s_lp_Variant>
CHEMBL3880_lig420-1

> <s_i_glide_gridfile>
glide-grid_1uyg

> <i_i_glide_lignum>
462

> <i_i_glide_rotatable_bonds>
9

> <r_i_docking_score>
-9.23176935289479

> <r_i_glide_ligand_efficiency>
-0.318336874237751

> <r_i_glide_ligand_efficiency_sa>
-0.978031733859109

> <r_i_glide_ligand_efficiency_ln>
-2.1138410843406

> <r_i_glide_gscore>
-9.23176935289479

> <r_i_glide_lipo>
-5.02817837691878

> <r_i_glide_hbond>
-0.309586844395551

> <r_i_glide_metal>
0

> <r_i_glide_rewards>
-1.49190857642144

> <r_i_glide_evdw>
-44.6984100341797

> <r_i_glide_ecoul>
-5.2284107208252

> <r_i_glide_erotb>
0.622320616102721

> <r_i_glide_esite>
-0.0052340614289822

> <r_i_glide_emodel>
-68.4994927545357

> <r_i_glide_energy>
-49.9268207550049

> <r_i_glide_einternal>
14.3712015151978

> <i_i_glide_confnum>
5

> <i_i_glide_posenum>
212

> <r_i_glide_eff_state_penalty>
0

> <s_user_duplicate_titles>
CHEMBL3880_lig420

> <i_f3d_flags>
0

> <s_m_subgroup_title>
dock_pv

> <s_m_subgroupid>
dock_pv

> <b_m_subgroup_collapsed>
1

$$$$
CHEMBL3880_lig434
                    3D
 Schrodinger Suite 2021-1.
 45 49  0  0  1  0            999 V2000
    6.7988   10.0064   22.8158 C   0  0  0  0  0  0
    6.3397   11.2274   23.1670 N   0  0  0  0  0  0
    5.1375   11.2107   23.7568 C   0  0  0  0  0  0
    4.3661   10.0378   23.9984 C   0  0  0  0  0  0
    4.9571    8.8314   23.5662 C   0  0  0  0  0  0
    6.1774    8.8201   22.9750 N   0  0  0  0  0  0
    4.4253   12.2995   24.2386 N   0  0  0  0  0  0
    3.1501   10.4339   24.6581 C   0  0  0  0  0  0
    3.2425   11.8163   24.7648 C   0  0  0  0  0  0
    8.0575    9.9690   22.2467 N   0  0  0  0  0  0
    4.1657    7.3141   23.7910 Cl  0  0  0  0  0  0
    2.0554    9.4829   25.1221 C   0  0  0  0  0  0
    0.7003   10.0765   25.4934 C   0  0  0  0  0  0
   -0.0479   10.7754   24.5420 C   0  0  0  0  0  0
   -1.3517   11.1690   24.8317 C   0  0  0  0  0  0
   -1.8957   10.8770   26.0797 C   0  0  0  0  0  0
   -1.1390   10.2321   27.0553 C   0  0  0  0  0  0
    0.1557    9.8192   26.7556 C   0  0  0  0  0  0
    4.8146   13.7170   24.1882 C   0  0  0  0  0  0
    9.4574   15.0087   27.1456 O   0  0  0  0  0  0
   10.3771   14.2828   26.3821 C   0  0  0  0  0  0
    9.7533   13.9690   25.1670 O   0  0  0  0  0  0
    8.4220   14.1453   25.3792 C   0  0  0  0  0  0
    8.2486   14.7717   26.5744 C   0  0  0  0  0  0
    6.9952   15.1690   27.0081 C   0  0  0  0  0  0
    5.8943   14.8948   26.1893 C   0  0  0  0  0  0
    6.0426   14.1515   24.9990 C   0  0  0  0  0  0
    7.3435   13.8244   24.5599 C   0  0  0  0  0  0
    4.0610   15.7021   26.7670 I   0  0  0  0  0  0
    2.5357   12.5097   25.1975 H   0  0  0  0  0  0
    8.4610    9.0559   22.1018 H   0  0  0  0  0  0
    8.6266   10.7997   22.3195 H   0  0  0  0  0  0
    2.4288    8.8525   25.9304 H   0  0  0  0  0  0
    1.8388    8.8004   24.2994 H   0  0  0  0  0  0
    0.3675   10.9772   23.5670 H   0  0  0  0  0  0
   -1.9500   11.6794   24.0897 H   0  0  0  0  0  0
   -2.9151   11.1690   26.2942 H   0  0  0  0  0  0
   -1.5645   10.0218   28.0260 H   0  0  0  0  0  0
    0.7246    9.2787   27.4983 H   0  0  0  0  0  0
    5.0318   13.9352   23.1670 H   0  0  0  0  0  0
    3.9361   14.3227   24.3980 H   0  0  0  0  0  0
   11.2845   14.8661   26.2207 H   0  0  0  0  0  0
   10.6326   13.3610   26.9089 H   0  0  0  0  0  0
    6.8727   15.7291   27.9231 H   0  0  0  0  0  0
    7.5123   13.3396   23.6122 H   0  0  0  0  0  0
  1  2  1  0  0  0
  1  6  2  0  0  0
  1 10  1  0  0  0
  2  3  2  0  0  0
  3  4  1  0  0  0
  3  7  1  0  0  0
  4  5  2  0  0  0
  4  8  1  0  0  0
  5  6  1  0  0  0
  5 11  1  0  0  0
  7  9  1  0  0  0
  7 19  1  0  0  0
  8  9  2  0  0  0
  8 12  1  0  0  0
  9 30  1  0  0  0
 10 31  1  0  0  0
 10 32  1  0  0  0
 12 13  1  0  0  0
 12 33  1  0  0  0
 12 34  1  0  0  0
 13 14  1  0  0  0
 13 18  2  0  0  0
 14 15  2  0  0  0
 14 35  1  0  0  0
 15 16  1  0  0  0
 15 36  1  0  0  0
 16 17  2  0  0  0
 16 37  1  0  0  0
 17 18  1  0  0  0
 17 38  1  0  0  0
 18 39  1  0  0  0
 19 27  1  0  0  0
 19 40  1  0  0  0
 19 41  1  0  0  0
 20 21  1  0  0  0
 20 24  1  0  0  0
 21 22  1  0  0  0
 21 42  1  0  0  0
 21 43  1  0  0  0
 22 23  1  0  0  0
 23 24  1  0  0  0
 23 28  2  0  0  0
 24 25  2  0  0  0
 25 26  1  0  0  0
 25 44  1  0  0  0
 26 27  2  0  0  0
 26 29  1  0  0  0
 27 28  1  0  0  0
 28 45  1  0  0  0
M  END
> <s_m_entry_id>
4733

> <s_m_entry_name>
dock_pv.52

> <s_m_Source_Path>
/home/csk/Desktop/cluster/DUD-E-result/hs90a

> <s_m_Source_File>
dock_pv.maegz

> <i_m_Source_File_Index>
52

> <chembl_id>
CHEMBL3922571

> <chembl_pref_name>
None

> <i_lp_mmshare_version>
53161

> <r_lp_tautomer_probability>
1

> <s_lp_Force_Field>
OPLS_2005

> <r_lp_Energy>
21.490005

> <b_lp_Chiralities_Consistent>
1

> <s_lp_Variant>
CHEMBL3880_lig434-1

> <s_i_glide_gridfile>
glide-grid_1uyg

> <i_i_glide_lignum>
476

> <i_i_glide_rotatable_bonds>
4

> <r_i_docking_score>
-9.22859766659822

> <r_i_glide_ligand_efficiency>
-0.318227505744766

> <r_i_glide_ligand_efficiency_sa>
-0.977695719198288

> <r_i_glide_ligand_efficiency_ln>
-2.11311484860571

> <r_i_glide_gscore>
-9.22859766659822

> <r_i_glide_lipo>
-4.38289893421974

> <r_i_glide_hbond>
-0.234526288415102

> <r_i_glide_metal>
0

> <r_i_glide_rewards>
-2.21659766523123

> <r_i_glide_evdw>
-45.4767074584961

> <r_i_glide_ecoul>
-2.84049606323242

> <r_i_glide_erotb>
0.305335003677522

> <r_i_glide_esite>
0

> <r_i_glide_emodel>
-70.9042947838149

> <r_i_glide_energy>
-48.3172035217285

> <r_i_glide_einternal>
3.73992967605591

> <i_i_glide_confnum>
36

> <i_i_glide_posenum>
225

> <r_i_glide_eff_state_penalty>
0

> <s_user_duplicate_titles>
CHEMBL3880_lig434

> <i_f3d_flags>
0

> <s_m_subgroup_title>
dock_pv

> <s_m_subgroupid>
dock_pv

> <b_m_subgroup_collapsed>
1

$$$$
CHEMBL3880_lig13
                    3D
 Schrodinger Suite 2021-1.
 50 53  0  0  1  0            999 V2000
    1.4274   12.0778   23.0591 S   0  0  0  0  0  0
    7.9751   12.8254   23.9662 O   0  0  0  0  0  0
    2.0615   10.9649   22.3671 O   0  0  0  0  0  0
    0.3409   12.7274   22.3190 O   0  0  0  0  0  0
   -2.2462    9.9686   28.3499 O   0  0  0  0  0  0
   -0.3380    8.8170   28.7653 O   0  0  0  0  0  0
    2.4815   13.1363   23.9674 N   0  0  0  0  0  0
    6.5836   10.5242   23.1681 N   0  0  0  0  0  0
    4.5697   13.9024   24.7672 C   0  0  0  0  0  0
    3.7310   12.8840   24.0824 C   0  0  0  0  0  0
    5.9855   13.8738   24.7340 C   0  0  0  0  0  0
    6.7479   12.8039   23.9944 C   0  0  0  0  0  0
    5.8942   11.6715   23.5627 C   0  0  0  0  0  0
    4.5390   11.7537   23.6546 C   0  0  0  0  0  0
    0.6330   11.2704   24.4465 C   0  0  0  0  0  0
    3.9379   14.8805   25.5486 C   0  0  0  0  0  0
    6.7027   14.7753   25.5312 C   0  0  0  0  0  0
    6.0997    9.2094   23.0094 C   0  0  0  0  0  0
    1.3585   10.3516   25.2090 C   0  0  0  0  0  0
   -0.7006   11.5402   24.7547 C   0  0  0  0  0  0
    4.6546   15.7456   26.3549 C   0  0  0  0  0  0
    6.0332   15.6557   26.3680 C   0  0  0  0  0  0
   -0.5375   10.0831   26.6854 C   0  0  0  0  0  0
    0.7793    9.7630   26.3285 C   0  0  0  0  0  0
   -1.2846   10.9370   25.8609 C   0  0  0  0  0  0
    6.7321    8.1309   23.6638 C   0  0  0  0  0  0
    4.9914    8.9491   22.1905 C   0  0  0  0  0  0
   -1.1393    9.5905   27.9748 C   0  0  0  0  0  0
    6.1838    6.8471   23.5669 C   0  0  0  0  0  0
    4.4610    7.6652   22.0915 C   0  0  0  0  0  0
    5.0489    6.6166   22.7927 C   0  0  0  0  0  0
    7.9918    8.3063   24.5071 C   0  0  0  0  0  0
   -0.7147    8.7992   29.6546 H   0  0  0  0  0  0
    7.5820   10.5370   23.3287 H   0  0  0  0  0  0
    4.0174   10.8488   23.4394 H   0  0  0  0  0  0
    2.8611   14.9399   25.5680 H   0  0  0  0  0  0
    7.7824   14.7549   25.5717 H   0  0  0  0  0  0
    2.3832   10.1191   24.9606 H   0  0  0  0  0  0
   -1.2858   12.2196   24.1516 H   0  0  0  0  0  0
    4.1453   16.4649   26.9797 H   0  0  0  0  0  0
    6.5751   16.3019   27.0301 H   0  0  0  0  0  0
    1.3811    9.0952   26.9310 H   0  0  0  0  0  0
   -2.3177   11.1727   26.0879 H   0  0  0  0  0  0
    4.5201    9.7447   21.6334 H   0  0  0  0  0  0
    6.6453    6.0161   24.0780 H   0  0  0  0  0  0
    3.5946    7.4830   21.4725 H   0  0  0  0  0  0
    4.6371    5.6204   22.7182 H   0  0  0  0  0  0
    8.1756    7.4448   25.1501 H   0  0  0  0  0  0
    8.8608    8.4500   23.8674 H   0  0  0  0  0  0
    7.9140    9.1682   25.1659 H   0  0  0  0  0  0
  1  3  2  0  0  0
  1  4  2  0  0  0
  1  7  1  0  0  0
  1 15  1  0  0  0
  2 12  2  0  0  0
  5 28  2  0  0  0
  6 28  1  0  0  0
  6 33  1  0  0  0
  7 10  2  0  0  0
  8 13  1  0  0  0
  8 18  1  0  0  0
  8 34  1  0  0  0
  9 10  1  0  0  0
  9 11  1  0  0  0
  9 16  2  0  0  0
 10 14  1  0  0  0
 11 12  1  0  0  0
 11 17  2  0  0  0
 12 13  1  0  0  0
 13 14  2  0  0  0
 14 35  1  0  0  0
 15 19  2  0  0  0
 15 20  1  0  0  0
 16 21  1  0  0  0
 16 36  1  0  0  0
 17 22  1  0  0  0
 17 37  1  0  0  0
 18 26  1  0  0  0
 18 27  2  0  0  0
 19 24  1  0  0  0
 19 38  1  0  0  0
 20 25  2  0  0  0
 20 39  1  0  0  0
 21 22  2  0  0  0
 21 40  1  0  0  0
 22 41  1  0  0  0
 23 24  2  0  0  0
 23 25  1  0  0  0
 23 28  1  0  0  0
 24 42  1  0  0  0
 25 43  1  0  0  0
 26 29  2  0  0  0
 26 32  1  0  0  0
 27 30  1  0  0  0
 27 44  1  0  0  0
 29 31  1  0  0  0
 29 45  1  0  0  0
 30 31  2  0  0  0
 30 46  1  0  0  0
 31 47  1  0  0  0
 32 48  1  0  0  0
 32 49  1  0  0  0
 32 50  1  0  0  0
M  END
> <s_m_entry_id>
4734

> <s_m_entry_name>
dock_pv.53

> <s_m_Source_Path>
/home/csk/Desktop/cluster/DUD-E-result/hs90a

> <s_m_Source_File>
dock_pv.maegz

> <i_m_Source_File_Index>
53

> <chembl_id>
CHEMBL1999630

> <chembl_pref_name>
None

> <i_lp_mmshare_version>
53161

> <r_lp_tautomer_probability>
1

> <s_lp_Force_Field>
OPLS_2005

> <r_lp_Energy>
30.373609

> <b_lp_Chiralities_Consistent>
1

> <s_lp_Variant>
CHEMBL3880_lig13-1

> <s_i_glide_gridfile>
glide-grid_1uyg

> <i_i_glide_lignum>
16

> <i_i_glide_rotatable_bonds>
6

> <r_i_docking_score>
-9.22807601267129

> <r_i_glide_ligand_efficiency>
-0.288377375395978

> <r_i_glide_ligand_efficiency_sa>
-0.915541097077132

> <r_i_glide_ligand_efficiency_ln>
-2.06641776708871

> <r_i_glide_gscore>
-9.22807601267129

> <r_i_glide_lipo>
-3.9958062384886

> <r_i_glide_hbond>
-0.10717317223949

> <r_i_glide_metal>
0

> <r_i_glide_rewards>
-2.37468740664975

> <r_i_glide_evdw>
-41.8960342407227

> <r_i_glide_ecoul>
-7.71786832809448

> <r_i_glide_erotb>
0.502072765956866

> <r_i_glide_esite>
0

> <r_i_glide_emodel>
-73.3898261147235

> <r_i_glide_energy>
-49.6139025688171

> <r_i_glide_einternal>
7.36223554611206

> <i_i_glide_confnum>
3

> <i_i_glide_posenum>
117

> <r_i_glide_eff_state_penalty>
0

> <s_user_duplicate_titles>
CHEMBL3880_lig13

> <i_f3d_flags>
0

> <s_m_subgroup_title>
dock_pv

> <s_m_subgroupid>
dock_pv

> <b_m_subgroup_collapsed>
1

$$$$
CHEMBL3880_lig982
                    3D
 Schrodinger Suite 2021-1.
 60 63  0  0  1  0            999 V2000
   -0.1462    7.4126   25.9992 C   0  0  0  0  0  0
    0.3882    8.3851   27.0816 C   0  0  0  0  0  0
    0.8883    7.6362   28.3344 C   0  0  0  0  0  0
    4.8542    9.2817   23.4236 C   0  0  0  0  0  0
    3.5419    9.5163   23.8121 C   0  0  0  0  0  0
    5.3802   11.5829   23.9546 C   0  0  0  0  0  0
    5.7919   10.3215   23.5033 C   0  0  0  0  0  0
    3.1456   10.7737   24.2778 C   0  0  0  0  0  0
    4.0632   11.8454   24.3655 C   0  0  0  0  0  0
    3.6226   13.1176   24.8005 N   0  0  0  0  0  0
    2.5947   13.8349   24.0350 C   0  0  0  0  0  0
    1.5948   13.0018   23.1979 C   0  0  0  0  0  0
    0.9679   11.9137   24.0466 C   0  0  0  0  0  0
    1.7855   10.9515   24.6004 N   0  0  0  0  0  0
   -0.3456   11.6596   24.4269 C   0  0  0  0  0  0
   -0.2420   10.7734   25.5212 C   0  0  0  0  0  0
    1.0581   10.2834   25.5554 C   0  0  0  0  0  0
    1.5834    9.1949   26.4935 C   0  0  0  0  0  0
   -0.7399    9.3560   27.5553 C   0  0  0  0  0  0
   -1.2426   10.3687   26.5044 C   0  0  0  0  0  0
    7.2140   10.1376   23.0615 C   0  0  0  0  0  0
    7.6593   10.7290   22.0825 O   0  0  0  0  0  0
    7.9517    9.3201   23.8116 N   0  0  0  0  0  0
   -2.4025   10.7688   26.5021 O   0  0  0  0  0  0
   -1.5715   12.3756   23.9025 C   0  0  0  0  0  0
    5.2516    7.7002   22.8343 Cl  0  0  0  0  0  0
    4.4552   14.0207   25.6202 C   0  0  0  0  0  0
    5.6128   14.7670   24.9203 C   0  0  0  0  0  0
    6.9656   14.5610   25.6230 C   0  0  0  0  0  0
    5.2892   16.2524   24.7824 C   0  0  0  0  0  0
   -0.5424    7.9258   25.1220 H   0  0  0  0  0  0
    0.6427    6.7494   25.6444 H   0  0  0  0  0  0
   -0.9348    6.7733   26.3960 H   0  0  0  0  0  0
    1.2535    8.3181   29.1044 H   0  0  0  0  0  0
    0.0905    7.0427   28.7852 H   0  0  0  0  0  0
    1.7052    6.9546   28.0899 H   0  0  0  0  0  0
    2.8201    8.7151   23.7240 H   0  0  0  0  0  0
    6.1169   12.3656   23.9798 H   0  0  0  0  0  0
    3.0755   14.5902   23.4303 H   0  0  0  0  0  0
    2.0020   14.3989   24.7580 H   0  0  0  0  0  0
    2.0890   12.6106   22.3100 H   0  0  0  0  0  0
    0.8422   13.6778   22.7941 H   0  0  0  0  0  0
    2.1020    9.7091   27.3033 H   0  0  0  0  0  0
    2.3120    8.5308   26.0289 H   0  0  0  0  0  0
   -0.3620    9.9674   28.3719 H   0  0  0  0  0  0
   -1.5926    8.8118   27.9612 H   0  0  0  0  0  0
    8.9247    9.1841   23.5870 H   0  0  0  0  0  0
    7.5281    8.8025   24.5656 H   0  0  0  0  0  0
   -2.3389   12.4941   24.6578 H   0  0  0  0  0  0
   -1.3491   13.3792   23.5454 H   0  0  0  0  0  0
   -2.0279   11.8325   23.0748 H   0  0  0  0  0  0
    4.7789   13.5688   26.5468 H   0  0  0  0  0  0
    3.7747   14.7689   26.0318 H   0  0  0  0  0  0
    5.7159   14.3986   23.9051 H   0  0  0  0  0  0
    6.9363   14.9102   26.6554 H   0  0  0  0  0  0
    7.2548   13.5093   25.6305 H   0  0  0  0  0  0
    7.7632   15.1042   25.1144 H   0  0  0  0  0  0
    5.1355   16.7433   25.7444 H   0  0  0  0  0  0
    6.0783   16.7714   24.2534 H   0  0  0  0  0  0
    4.3933   16.3563   24.1888 H   0  0  0  0  0  0
  1  2  1  0  0  0
  1 31  1  0  0  0
  1 32  1  0  0  0
  1 33  1  0  0  0
  2  3  1  0  0  0
  2 18  1  0  0  0
  2 19  1  0  0  0
  3 34  1  0  0  0
  3 35  1  0  0  0
  3 36  1  0  0  0
  4  5  2  0  0  0
  4  7  1  0  0  0
  4 26  1  0  0  0
  5  8  1  0  0  0
  5 37  1  0  0  0
  6  9  1  0  0  0
  6  7  2  0  0  0
  6 38  1  0  0  0
  7 21  1  0  0  0
  8  9  2  0  0  0
  8 14  1  0  0  0
  9 10  1  0  0  0
 10 11  1  0  0  0
 10 27  1  0  0  0
 11 12  1  0  0  0
 11 39  1  0  0  0
 11 40  1  0  0  0
 12 13  1  0  0  0
 12 41  1  0  0  0
 12 42  1  0  0  0
 13 14  1  0  0  0
 13 15  2  0  0  0
 14 17  1  0  0  0
 15 16  1  0  0  0
 15 25  1  0  0  0
 16 17  2  0  0  0
 16 20  1  0  0  0
 17 18  1  0  0  0
 18 43  1  0  0  0
 18 44  1  0  0  0
 19 20  1  0  0  0
 19 45  1  0  0  0
 19 46  1  0  0  0
 20 24  2  0  0  0
 21 22  2  0  0  0
 21 23  1  0  0  0
 23 47  1  0  0  0
 23 48  1  0  0  0
 25 49  1  0  0  0
 25 50  1  0  0  0
 25 51  1  0  0  0
 27 28  1  0  0  0
 27 52  1  0  0  0
 27 53  1  0  0  0
 28 29  1  0  0  0
 28 30  1  0  0  0
 28 54  1  0  0  0
 29 55  1  0  0  0
 29 56  1  0  0  0
 29 57  1  0  0  0
 30 58  1  0  0  0
 30 59  1  0  0  0
 30 60  1  0  0  0
M  END
> <s_m_entry_id>
4735

> <s_m_entry_name>
dock_pv.54

> <s_m_Source_Path>
/home/csk/Desktop/cluster/DUD-E-result/hs90a

> <s_m_Source_File>
dock_pv.maegz

> <i_m_Source_File_Index>
54

> <chembl_id>
CHEMBL3401151

> <chembl_pref_name>
None

> <i_lp_mmshare_version>
53161

> <r_lp_tautomer_probability>
0.99995

> <s_lp_Force_Field>
OPLS_2005

> <r_lp_Energy>
36.296571

> <b_lp_Chiralities_Consistent>
1

> <s_lp_Variant>
CHEMBL3880_lig982-1

> <s_i_glide_gridfile>
glide-grid_1uyg

> <i_i_glide_lignum>
1091

> <i_i_glide_rotatable_bonds>
3

> <r_i_docking_score>
-9.22693779564055

> <r_i_glide_ligand_efficiency>
-0.307564593188018

> <r_i_glide_ligand_efficiency_sa>
-0.955674700550806

> <r_i_glide_ligand_efficiency_ln>
-2.09646080270908

> <r_i_glide_gscore>
-9.22693779564055

> <r_i_glide_lipo>
-4.82398095699232

> <r_i_glide_hbond>
-0.00741519257705747

> <r_i_glide_metal>
0

> <r_i_glide_rewards>
-2.19865180845418

> <r_i_glide_evdw>
-45.3920516967773

> <r_i_glide_ecoul>
-0.238115519285202

> <r_i_glide_erotb>
0.108430075114655

> <r_i_glide_esite>
0

> <r_i_glide_emodel>
-48.9185990186968

> <r_i_glide_energy>
-45.6301672160625

> <r_i_glide_einternal>
5.39817047119141

> <i_i_glide_confnum>
3

> <i_i_glide_posenum>
12

> <r_i_glide_eff_state_penalty>
0

> <s_user_duplicate_titles>
CHEMBL3880_lig982

> <i_f3d_flags>
0

> <s_m_subgroup_title>
dock_pv

> <s_m_subgroupid>
dock_pv

> <b_m_subgroup_collapsed>
1

$$$$
CHEMBL3880_lig433
                    3D
 Schrodinger Suite 2021-1.
 45 49  0  0  1  0            999 V2000
    6.2268    9.6876   22.8991 C   0  0  0  0  0  0
    6.2748   10.9857   23.2727 N   0  0  0  0  0  0
    5.1300   11.4271   23.8118 C   0  0  0  0  0  0
    3.9493   10.6541   24.0004 C   0  0  0  0  0  0
    4.0299    9.3252   23.5369 C   0  0  0  0  0  0
    5.1741    8.8443   22.9867 N   0  0  0  0  0  0
    4.8601   12.7174   24.2320 N   0  0  0  0  0  0
    2.9683   11.5054   24.6262 C   0  0  0  0  0  0
    3.5943   12.7343   24.7658 C   0  0  0  0  0  0
    7.3903    9.1680   22.3635 N   0  0  0  0  0  0
    2.6719    8.2628   23.6261 Cl  0  0  0  0  0  0
    1.5412   11.1612   25.0143 C   0  0  0  0  0  0
    0.4773   11.5909   24.0057 C   0  0  0  0  0  0
   -0.8392   11.1854   24.2267 C   0  0  0  0  0  0
   -1.8413   11.5693   23.3441 C   0  0  0  0  0  0
   -1.5377   12.3685   22.2450 C   0  0  0  0  0  0
   -0.2268   12.7688   22.0088 C   0  0  0  0  0  0
    0.7795   12.3840   22.8879 C   0  0  0  0  0  0
    5.7381   13.8686   24.0958 C   0  0  0  0  0  0
   10.1921   14.8900   27.3551 O   0  0  0  0  0  0
   11.0889   14.0071   26.7444 C   0  0  0  0  0  0
   10.4871   13.5427   25.5668 O   0  0  0  0  0  0
    9.1716   13.8654   25.6765 C   0  0  0  0  0  0
    8.9905   14.6616   26.7657 C   0  0  0  0  0  0
    7.7413   15.1674   27.1002 C   0  0  0  0  0  0
    6.6640   14.8887   26.2480 C   0  0  0  0  0  0
    6.8503   14.0743   25.1113 C   0  0  0  0  0  0
    8.1177   13.5343   24.8354 C   0  0  0  0  0  0
    4.9652   15.6584   26.6474 Br  0  0  0  0  0  0
    3.2039   13.6579   25.1683 H   0  0  0  0  0  0
    7.3664    8.2283   21.9821 H   0  0  0  0  0  0
    8.2023    9.7615   22.2981 H   0  0  0  0  0  0
    1.2617   11.6212   25.9641 H   0  0  0  0  0  0
    1.4294   10.0985   25.2244 H   0  0  0  0  0  0
   -1.0889   10.5672   25.0767 H   0  0  0  0  0  0
   -2.8527   11.2360   23.5096 H   0  0  0  0  0  0
   -2.3250   12.6541   21.5607 H   0  0  0  0  0  0
    0.0086   13.3696   21.1455 H   0  0  0  0  0  0
    1.7887   12.7102   22.6883 H   0  0  0  0  0  0
    6.2580   13.6966   23.1671 H   0  0  0  0  0  0
    5.1360   14.7686   23.9673 H   0  0  0  0  0  0
   12.0330   14.5101   26.5306 H   0  0  0  0  0  0
   11.2656   13.1701   27.4204 H   0  0  0  0  0  0
    7.6055   15.7942   27.9678 H   0  0  0  0  0  0
    8.2776   12.9092   23.9685 H   0  0  0  0  0  0
  1  2  1  0  0  0
  1  6  2  0  0  0
  1 10  1  0  0  0
  2  3  2  0  0  0
  3  4  1  0  0  0
  3  7  1  0  0  0
  4  5  2  0  0  0
  4  8  1  0  0  0
  5  6  1  0  0  0
  5 11  1  0  0  0
  7  9  1  0  0  0
  7 19  1  0  0  0
  8  9  2  0  0  0
  8 12  1  0  0  0
  9 30  1  0  0  0
 10 31  1  0  0  0
 10 32  1  0  0  0
 12 13  1  0  0  0
 12 33  1  0  0  0
 12 34  1  0  0  0
 13 14  1  0  0  0
 13 18  2  0  0  0
 14 15  2  0  0  0
 14 35  1  0  0  0
 15 16  1  0  0  0
 15 36  1  0  0  0
 16 17  2  0  0  0
 16 37  1  0  0  0
 17 18  1  0  0  0
 17 38  1  0  0  0
 18 39  1  0  0  0
 19 27  1  0  0  0
 19 40  1  0  0  0
 19 41  1  0  0  0
 20 21  1  0  0  0
 20 24  1  0  0  0
 21 22  1  0  0  0
 21 42  1  0  0  0
 21 43  1  0  0  0
 22 23  1  0  0  0
 23 24  1  0  0  0
 23 28  2  0  0  0
 24 25  2  0  0  0
 25 26  1  0  0  0
 25 44  1  0  0  0
 26 27  2  0  0  0
 26 29  1  0  0  0
 27 28  1  0  0  0
 28 45  1  0  0  0
M  END
> <s_m_entry_id>
4736

> <s_m_entry_name>
dock_pv.55

> <s_m_Source_Path>
/home/csk/Desktop/cluster/DUD-E-result/hs90a

> <s_m_Source_File>
dock_pv.maegz

> <i_m_Source_File_Index>
55

> <chembl_id>
CHEMBL3958985

> <chembl_pref_name>
None

> <i_lp_mmshare_version>
53161

> <r_lp_tautomer_probability>
1

> <s_lp_Force_Field>
OPLS_2005

> <r_lp_Energy>
21.819496

> <b_lp_Chiralities_Consistent>
1

> <s_lp_Variant>
CHEMBL3880_lig433-1

> <s_i_glide_gridfile>
glide-grid_1uyg

> <i_i_glide_lignum>
475

> <i_i_glide_rotatable_bonds>
4

> <r_i_docking_score>
-9.21721745533341

> <r_i_glide_ligand_efficiency>
-0.317835084666669

> <r_i_glide_ligand_efficiency_sa>
-0.976490077318651

> <r_i_glide_ligand_efficiency_ln>
-2.11050906880333

> <r_i_glide_gscore>
-9.21721745533341

> <r_i_glide_lipo>
-4.29470441306786

> <r_i_glide_hbond>
-0.465963976837332

> <r_i_glide_metal>
0

> <r_i_glide_rewards>
-2.05230864926921

> <r_i_glide_evdw>
-44.682445526123

> <r_i_glide_ecoul>
-3.55650806427002

> <r_i_glide_erotb>
0.363358069787644

> <r_i_glide_esite>
0

> <r_i_glide_emodel>
-72.2699572498462

> <r_i_glide_energy>
-48.2389535903931

> <r_i_glide_einternal>
6.13875865936279

> <i_i_glide_confnum>
34

> <i_i_glide_posenum>
226

> <r_i_glide_eff_state_penalty>
0

> <s_user_duplicate_titles>
CHEMBL3880_lig433

> <i_f3d_flags>
0

> <s_m_subgroup_title>
dock_pv

> <s_m_subgroupid>
dock_pv

> <b_m_subgroup_collapsed>
1

$$$$
CHEMBL3880_lig378
                    3D
 Schrodinger Suite 2021-1.
 43 46  0  0  1  0            999 V2000
   -1.5711   11.5150   24.8928 N   0  0  0  0  0  0
   -1.2409   12.1918   23.7735 C   0  0  0  0  0  0
   -0.0048   12.2359   23.2151 N   0  0  0  0  0  0
   -0.5956   10.7878   25.4879 C   0  0  0  0  0  0
    0.7126   10.7273   24.9660 C   0  0  0  0  0  0
    0.9612   11.4673   23.7966 C   0  0  0  0  0  0
    2.3475   11.4089   23.1724 C   0  0  0  0  0  0
    3.4521   11.1111   24.2316 C   0  0  1  0  0  0
    3.0098    9.9777   25.0680 N   0  0  0  0  0  0
    1.7697    9.8211   25.5670 C   0  0  0  0  0  0
    4.8207   10.9011   23.5599 C   0  0  0  0  0  0
    5.8949   11.8409   23.5670 C   0  0  0  0  0  0
    7.1032   11.4456   22.9536 C   0  0  0  0  0  0
    7.2712   10.1859   22.3943 C   0  0  0  0  0  0
    6.2186    9.2884   22.3882 C   0  0  0  0  0  0
    5.0047    9.6491   22.9499 C   0  0  0  0  0  0
   -1.0319   10.1227   26.7814 C   0  0  0  0  0  0
    1.5859    8.9244   26.3859 O   0  0  0  0  0  0
   -2.2751   12.8848   23.1612 N   0  0  0  0  0  0
    5.8613   13.1972   24.2210 C   0  0  0  0  0  0
    7.0674   13.6109   24.7670 N   0  0  0  0  0  0
    7.2685   14.7688   25.4507 C   0  0  0  0  0  0
    6.0470   15.5157   25.7120 C   0  0  0  0  0  0
    4.8570   15.1853   25.1671 C   0  0  0  0  0  0
    4.7587   13.9759   24.3670 C   0  0  0  0  0  0
    8.3972   15.1409   25.7561 O   0  0  0  0  0  0
    8.4606    9.8303   21.8699 F   0  0  0  0  0  0
    2.5603   12.3289   22.6290 H   0  0  0  0  0  0
    2.3353   10.6116   22.4301 H   0  0  0  0  0  0
    3.5267   11.9118   24.9598 H   0  0  0  0  0  0
    3.7082    9.3486   25.4317 H   0  0  0  0  0  0
    7.9523   12.1118   22.9100 H   0  0  0  0  0  0
    6.3503    8.3038   21.9670 H   0  0  0  0  0  0
    4.2035    8.9241   22.9368 H   0  0  0  0  0  0
   -0.3755   10.4667   27.5709 H   0  0  0  0  0  0
   -2.0603   10.3619   27.0578 H   0  0  0  0  0  0
   -0.9382    9.0410   26.7191 H   0  0  0  0  0  0
   -2.1199   13.3349   22.2744 H   0  0  0  0  0  0
   -3.2136   12.7688   23.5483 H   0  0  0  0  0  0
    6.1172   16.3694   26.3635 H   0  0  0  0  0  0
    3.9740   15.7691   25.3861 H   0  0  0  0  0  0
    3.8099   13.7287   23.9204 H   0  0  0  0  0  0
    7.9007   13.0586   24.6550 H   0  0  0  0  0  0
  1  2  2  0  0  0
  1  4  1  0  0  0
  2  3  1  0  0  0
  2 19  1  0  0  0
  3  6  2  0  0  0
  4  5  2  0  0  0
  4 17  1  0  0  0
  5  6  1  0  0  0
  5 10  1  0  0  0
  6  7  1  0  0  0
  7  8  1  0  0  0
  7 28  1  0  0  0
  7 29  1  0  0  0
  8  9  1  0  0  0
  8 11  1  0  0  0
  8 30  1  0  0  0
  9 10  1  0  0  0
  9 31  1  0  0  0
 10 18  2  0  0  0
 11 12  2  0  0  0
 11 16  1  0  0  0
 12 13  1  0  0  0
 12 20  1  0  0  0
 13 14  2  0  0  0
 13 32  1  0  0  0
 14 15  1  0  0  0
 14 27  1  0  0  0
 15 16  2  0  0  0
 15 33  1  0  0  0
 16 34  1  0  0  0
 17 35  1  0  0  0
 17 36  1  0  0  0
 17 37  1  0  0  0
 19 38  1  0  0  0
 19 39  1  0  0  0
 20 21  1  0  0  0
 20 25  2  0  0  0
 21 22  1  0  0  0
 21 43  1  0  0  0
 22 26  2  0  0  0
 22 23  1  0  0  0
 23 24  2  0  0  0
 23 40  1  0  0  0
 24 25  1  0  0  0
 24 41  1  0  0  0
 25 42  1  0  0  0
M  END
> <s_m_entry_id>
4737

> <s_m_entry_name>
dock_pv.56

> <s_m_Source_Path>
/home/csk/Desktop/cluster/DUD-E-result/hs90a

> <s_m_Source_File>
dock_pv.maegz

> <i_m_Source_File_Index>
56

> <chembl_id>
CHEMBL3360311

> <chembl_pref_name>
None

> <i_lp_mmshare_version>
53161

> <r_lp_tautomer_probability>
0.998999987648364

> <s_lp_Force_Field>
OPLS_2005

> <r_lp_Energy>
29.297872

> <b_lp_Chiralities_Consistent>
1

> <s_lp_Variant>
CHEMBL3880_lig378-1

> <s_i_glide_gridfile>
glide-grid_1uyg

> <i_i_glide_lignum>
420

> <i_i_glide_rotatable_bonds>
2

> <r_i_docking_score>
-9.20675506445698

> <r_i_glide_ligand_efficiency>
-0.340990928313221

> <r_i_glide_ligand_efficiency_sa>
-1.02297278381581

> <r_i_glide_ligand_efficiency_ln>
-2.14318079378569

> <r_i_glide_gscore>
-9.20675506445698

> <r_i_glide_lipo>
-4.32462280956567

> <r_i_glide_hbond>
-0.16

> <r_i_glide_metal>
0

> <r_i_glide_rewards>
-2.00680631713209

> <r_i_glide_evdw>
-45.9227981567383

> <r_i_glide_ecoul>
-4.57886266708374

> <r_i_glide_erotb>
0.288193258516729

> <r_i_glide_esite>
-0.0205498883764698

> <r_i_glide_emodel>
-75.3571505801445

> <r_i_glide_energy>
-50.501660823822

> <r_i_glide_einternal>
2.0438494682312

> <i_i_glide_confnum>
1

> <i_i_glide_posenum>
339

> <r_i_glide_eff_state_penalty>
0

> <s_user_duplicate_titles>
CHEMBL3880_lig378

> <i_f3d_flags>
0

> <s_m_subgroup_title>
dock_pv

> <s_m_subgroupid>
dock_pv

> <b_m_subgroup_collapsed>
1

$$$$
CHEMBL3880_lig976
                    3D
 Schrodinger Suite 2021-1.
 59 62  0  0  1  0            999 V2000
    0.8837    6.5484   27.0105 C   0  0  0  0  0  0
    1.4693    7.6102   27.9765 C   0  0  0  0  0  0
    2.3136    6.9768   29.1030 C   0  0  0  0  0  0
    4.9146    8.6026   23.5436 C   0  0  0  0  0  0
    3.6845    8.7597   24.1732 C   0  0  0  0  0  0
    5.1596   11.0045   23.5225 C   0  0  0  0  0  0
    5.6821    9.7387   23.2326 C   0  0  0  0  0  0
    3.1937   10.0278   24.5056 C   0  0  0  0  0  0
    3.9264   11.1887   24.1688 C   0  0  0  0  0  0
    3.4000   12.4766   24.4189 N   0  0  0  0  0  0
    2.1535   12.8494   23.7223 C   0  0  0  0  0  0
    1.0780   11.7666   23.4823 C   0  0  0  0  0  0
    0.8631   10.8686   24.6860 C   0  0  0  0  0  0
    1.9276   10.1107   25.1372 N   0  0  0  0  0  0
   -0.2597   10.6129   25.4764 C   0  0  0  0  0  0
    0.1906    9.7950   26.5337 C   0  0  0  0  0  0
    1.5290    9.4942   26.3030 C   0  0  0  0  0  0
    2.3849    8.5964   27.1954 C   0  0  0  0  0  0
    0.3196    8.4083   28.6570 C   0  0  0  0  0  0
   -0.5205    9.3009   27.7187 C   0  0  0  0  0  0
    7.0157    9.6644   22.5369 C   0  0  0  0  0  0
    7.2661   10.3659   21.5614 O   0  0  0  0  0  0
    7.9278    8.8594   23.0793 N   0  0  0  0  0  0
   -1.6917    9.5699   27.9684 O   0  0  0  0  0  0
   -1.6377   11.2180   25.2926 C   0  0  0  0  0  0
    5.4170    6.9876   23.1657 Cl  0  0  0  0  0  0
    4.3480   13.6034   24.4951 C   0  0  0  0  0  0
    3.9109   14.7075   25.4780 C   0  0  0  0  0  0
    4.9355   15.8467   25.6621 C   0  0  0  0  0  0
    6.1613   15.4646   26.3869 C   0  0  0  0  0  0
    7.1700   15.1690   27.0091 C   0  0  0  0  0  0
    0.3057    6.9850   26.1951 H   0  0  0  0  0  0
    1.6756    5.9526   26.5556 H   0  0  0  0  0  0
    0.2240    5.8585   27.5388 H   0  0  0  0  0  0
    2.7239    7.7302   29.7799 H   0  0  0  0  0  0
    1.7196    6.2880   29.7067 H   0  0  0  0  0  0
    3.1561    6.4131   28.6999 H   0  0  0  0  0  0
    3.0987    7.8777   24.3913 H   0  0  0  0  0  0
    5.7311   11.8687   23.2171 H   0  0  0  0  0  0
    2.3901   13.3170   22.7672 H   0  0  0  0  0  0
    1.6697   13.6277   24.3134 H   0  0  0  0  0  0
    1.3745   11.1762   22.6155 H   0  0  0  0  0  0
    0.1564   12.2429   23.1460 H   0  0  0  0  0  0
    2.8626    9.2657   27.9106 H   0  0  0  0  0  0
    3.1800    8.0660   26.6761 H   0  0  0  0  0  0
    0.7474    9.0938   29.3884 H   0  0  0  0  0  0
   -0.3393    7.7482   29.2144 H   0  0  0  0  0  0
    8.8405    8.7987   22.6591 H   0  0  0  0  0  0
    7.6714    8.2395   23.8321 H   0  0  0  0  0  0
   -2.1225   11.4361   26.2427 H   0  0  0  0  0  0
   -1.6098   12.1668   24.7587 H   0  0  0  0  0  0
   -2.3035   10.5479   24.7464 H   0  0  0  0  0  0
    4.4676   14.0466   23.5078 H   0  0  0  0  0  0
    5.3529   13.2798   24.7669 H   0  0  0  0  0  0
    3.6601   14.2735   26.4462 H   0  0  0  0  0  0
    3.0089   15.1686   25.0817 H   0  0  0  0  0  0
    4.4844   16.6641   26.2267 H   0  0  0  0  0  0
    5.2323   16.2641   24.6987 H   0  0  0  0  0  0
    8.0434   14.9095   27.5655 H   0  0  0  0  0  0
  1  2  1  0  0  0
  1 32  1  0  0  0
  1 33  1  0  0  0
  1 34  1  0  0  0
  2  3  1  0  0  0
  2 18  1  0  0  0
  2 19  1  0  0  0
  3 35  1  0  0  0
  3 36  1  0  0  0
  3 37  1  0  0  0
  4  5  2  0  0  0
  4  7  1  0  0  0
  4 26  1  0  0  0
  5  8  1  0  0  0
  5 38  1  0  0  0
  6  9  1  0  0  0
  6  7  2  0  0  0
  6 39  1  0  0  0
  7 21  1  0  0  0
  8  9  2  0  0  0
  8 14  1  0  0  0
  9 10  1  0  0  0
 10 11  1  0  0  0
 10 27  1  0  0  0
 11 12  1  0  0  0
 11 40  1  0  0  0
 11 41  1  0  0  0
 12 13  1  0  0  0
 12 42  1  0  0  0
 12 43  1  0  0  0
 13 14  1  0  0  0
 13 15  2  0  0  0
 14 17  1  0  0  0
 15 16  1  0  0  0
 15 25  1  0  0  0
 16 17  2  0  0  0
 16 20  1  0  0  0
 17 18  1  0  0  0
 18 44  1  0  0  0
 18 45  1  0  0  0
 19 20  1  0  0  0
 19 46  1  0  0  0
 19 47  1  0  0  0
 20 24  2  0  0  0
 21 22  2  0  0  0
 21 23  1  0  0  0
 23 48  1  0  0  0
 23 49  1  0  0  0
 25 50  1  0  0  0
 25 51  1  0  0  0
 25 52  1  0  0  0
 27 28  1  0  0  0
 27 53  1  0  0  0
 27 54  1  0  0  0
 28 29  1  0  0  0
 28 55  1  0  0  0
 28 56  1  0  0  0
 29 30  1  0  0  0
 29 57  1  0  0  0
 29 58  1  0  0  0
 30 31  3  0  0  0
 31 59  1  0  0  0
M  END
> <s_m_entry_id>
4738

> <s_m_entry_name>
dock_pv.57

> <s_m_Source_Path>
/home/csk/Desktop/cluster/DUD-E-result/hs90a

> <s_m_Source_File>
dock_pv.maegz

> <i_m_Source_File_Index>
57

> <chembl_id>
CHEMBL3401157

> <chembl_pref_name>
None

> <i_lp_mmshare_version>
53161

> <r_lp_tautomer_probability>
0.99995

> <s_lp_Force_Field>
OPLS_2005

> <r_lp_Energy>
34.526394

> <b_lp_Chiralities_Consistent>
1

> <s_lp_Variant>
CHEMBL3880_lig976-1

> <s_i_glide_gridfile>
glide-grid_1uyg

> <i_i_glide_lignum>
1085

> <i_i_glide_rotatable_bonds>
5

> <r_i_docking_score>
-9.20619138142752

> <r_i_glide_ligand_efficiency>
-0.29697391552992

> <r_i_glide_ligand_efficiency_sa>
-0.932908111442742

> <r_i_glide_ligand_efficiency_ln>
-2.07627829239451

> <r_i_glide_gscore>
-9.20619138142752

> <r_i_glide_lipo>
-4.64366884812548

> <r_i_glide_hbond>
0

> <r_i_glide_metal>
0

> <r_i_glide_rewards>
-2.10711312715533

> <r_i_glide_evdw>
-51.6605949401855

> <r_i_glide_ecoul>
-1.92218470573425

> <r_i_glide_erotb>
0.415948046722697

> <r_i_glide_esite>
0

> <r_i_glide_emodel>
-78.5496218646268

> <r_i_glide_energy>
-53.5827796459198

> <r_i_glide_einternal>
1.44598734378815

> <i_i_glide_confnum>
12

> <i_i_glide_posenum>
392

> <r_i_glide_eff_state_penalty>
0

> <s_user_duplicate_titles>
CHEMBL3880_lig976

> <i_f3d_flags>
0

> <s_m_subgroup_title>
dock_pv

> <s_m_subgroupid>
dock_pv

> <b_m_subgroup_collapsed>
1

$$$$
CHEMBL3880_lig184
                    3D
 Schrodinger Suite 2021-1.
 65 68  0  0  1  0            999 V2000
    2.1341    8.9844   27.4562 C   0  0  0  0  0  0
    1.1214    8.4966   26.3964 C   0  0  0  0  0  0
    0.0631    7.6891   27.1825 C   0  0  0  0  0  0
    1.7319    7.4845   25.3543 C   0  0  0  0  0  0
    4.5525   16.6266   25.5364 C   0  0  0  0  0  0
    4.9801   15.1751   25.3799 C   0  0  0  0  0  0
    4.8608   14.6254   26.7672 C   0  0  0  0  0  0
    0.4645   12.1518   23.0521 C   0  0  0  0  0  0
    1.8328   12.2430   22.8249 C   0  0  0  0  0  0
    2.7145   11.6583   23.7212 C   0  0  0  0  0  0
    2.2287   10.8590   24.7449 C   0  0  0  0  0  0
    0.8652   10.6087   24.8893 C   0  0  0  0  0  0
   -0.0388   11.3632   24.1040 C   0  0  0  0  0  0
   -1.5189   11.3775   24.4006 C   0  0  0  0  0  0
   -2.3388   11.6803   23.4002 N   0  0  0  0  0  0
   -1.9467   11.1752   25.5342 O   0  0  0  0  0  0
    0.3976    9.6227   25.7846 N   0  0  0  0  0  0
    4.0957   11.8748   23.6378 N   0  0  0  0  0  0
    6.3124   11.4986   23.4926 C   0  0  0  0  0  0
    5.0475   10.9430   23.2587 C   0  0  0  0  0  0
    6.0976   12.8139   23.9670 C   0  0  0  0  0  0
    4.7268   13.0522   23.9818 C   0  0  0  0  0  0
    4.0321   14.3409   24.4611 C   0  0  0  0  0  0
    6.4545   15.1655   24.8681 C   0  0  0  0  0  0
    7.0543   13.7931   24.5027 C   0  0  0  0  0  0
    8.2314   13.5322   24.7471 O   0  0  0  0  0  0
    7.6379   10.8334   23.1813 C   0  0  0  0  0  0
    4.6565    9.5965   22.6327 C   0  0  0  0  0  0
    2.6489    7.9564   24.3105 N   0  0  2  0  0  0
    4.9594    8.3284   23.4710 C   0  0  0  0  0  0
    4.0581    8.0301   24.6891 C   0  0  0  0  0  0
    2.3391    8.2302   28.2176 H   0  0  0  0  0  0
    3.0999    9.2578   27.0603 H   0  0  0  0  0  0
    1.7553    9.8755   27.9619 H   0  0  0  0  0  0
    0.5050    6.8387   27.7035 H   0  0  0  0  0  0
   -0.4390    8.2997   27.9358 H   0  0  0  0  0  0
   -0.7072    7.2866   26.5243 H   0  0  0  0  0  0
    2.1787    6.6328   25.8704 H   0  0  0  0  0  0
    0.8946    7.0638   24.7949 H   0  0  0  0  0  0
    5.2644   17.1680   26.1448 H   0  0  0  0  0  0
    4.4709   17.1344   24.5796 H   0  0  0  0  0  0
    3.6131   16.7491   26.0547 H   0  0  0  0  0  0
    5.6610   14.9685   27.4247 H   0  0  0  0  0  0
    3.8994   14.8771   27.2144 H   0  0  0  0  0  0
    4.8610   13.5691   26.7476 H   0  0  0  0  0  0
   -0.1945   12.7055   22.3974 H   0  0  0  0  0  0
    2.2145   12.7684   21.9710 H   0  0  0  0  0  0
    2.9403   10.4266   25.4156 H   0  0  0  0  0  0
   -3.3232   11.8164   23.6417 H   0  0  0  0  0  0
   -2.0455   11.6789   22.4370 H   0  0  0  0  0  0
   -0.6098    9.6053   25.8999 H   0  0  0  0  0  0
    3.8219   14.9144   23.5709 H   0  0  0  0  0  0
    3.0675   14.1521   24.9335 H   0  0  0  0  0  0
    6.5231   15.7662   23.9671 H   0  0  0  0  0  0
    7.1230   15.6415   25.5864 H   0  0  0  0  0  0
    8.3901   11.5597   22.8747 H   0  0  0  0  0  0
    8.0370   10.2882   24.0349 H   0  0  0  0  0  0
    7.5583   10.1299   22.3527 H   0  0  0  0  0  0
    5.2095    9.5000   21.6968 H   0  0  0  0  0  0
    3.6144    9.5789   22.3111 H   0  0  0  0  0  0
    2.3333    8.8624   23.9891 H   0  0  0  0  0  0
    5.9973    8.3594   23.8038 H   0  0  0  0  0  0
    4.9058    7.4644   22.8060 H   0  0  0  0  0  0
    4.2274    8.8048   25.4276 H   0  0  0  0  0  0
    4.3657    7.0838   25.1373 H   0  0  0  0  0  0
  1  2  1  0  0  0
  1 32  1  0  0  0
  1 33  1  0  0  0
  1 34  1  0  0  0
  2  3  1  0  0  0
  2 17  1  0  0  0
  2  4  1  0  0  0
  3 35  1  0  0  0
  3 36  1  0  0  0
  3 37  1  0  0  0
  4 29  1  0  0  0
  4 38  1  0  0  0
  4 39  1  0  0  0
  5  6  1  0  0  0
  5 40  1  0  0  0
  5 41  1  0  0  0
  5 42  1  0  0  0
  6  7  1  0  0  0
  6 23  1  0  0  0
  6 24  1  0  0  0
  7 43  1  0  0  0
  7 44  1  0  0  0
  7 45  1  0  0  0
  8  9  2  0  0  0
  8 13  1  0  0  0
  8 46  1  0  0  0
  9 10  1  0  0  0
  9 47  1  0  0  0
 10 11  2  0  0  0
 10 18  1  0  0  0
 11 12  1  0  0  0
 11 48  1  0  0  0
 12 13  2  0  0  0
 12 17  1  0  0  0
 13 14  1  0  0  0
 14 15  1  0  0  0
 14 16  2  0  0  0
 15 49  1  0  0  0
 15 50  1  0  0  0
 17 51  1  0  0  0
 18 22  1  0  0  0
 18 20  1  0  0  0
 19 21  1  0  0  0
 19 20  2  0  0  0
 19 27  1  0  0  0
 20 28  1  0  0  0
 21 22  2  0  0  0
 21 25  1  0  0  0
 22 23  1  0  0  0
 23 52  1  0  0  0
 23 53  1  0  0  0
 24 25  1  0  0  0
 24 54  1  0  0  0
 24 55  1  0  0  0
 25 26  2  0  0  0
 27 56  1  0  0  0
 27 57  1  0  0  0
 27 58  1  0  0  0
 28 30  1  0  0  0
 28 59  1  0  0  0
 28 60  1  0  0  0
 29 31  1  0  0  0
 29 61  1  0  0  0
 30 31  1  0  0  0
 30 62  1  0  0  0
 30 63  1  0  0  0
 31 64  1  0  0  0
 31 65  1  0  0  0
M  END
> <s_m_entry_id>
4739

> <s_m_entry_name>
dock_pv.58

> <s_m_Source_Path>
/home/csk/Desktop/cluster/DUD-E-result/hs90a

> <s_m_Source_File>
dock_pv.maegz

> <i_m_Source_File_Index>
58

> <chembl_id>
CHEMBL1760604

> <chembl_pref_name>
None

> <i_lp_mmshare_version>
53161

> <r_lp_tautomer_probability>
0.99995

> <s_lp_Force_Field>
OPLS_2005

> <r_lp_Energy>
45.371072

> <b_lp_Chiralities_Consistent>
1

> <s_lp_Variant>
CHEMBL3880_lig184-1

> <s_i_glide_gridfile>
glide-grid_1uyg

> <i_i_glide_lignum>
215

> <i_i_glide_rotatable_bonds>
1

> <r_i_docking_score>
-9.20563072417167

> <r_i_glide_ligand_efficiency>
-0.296955829811989

> <r_i_glide_ligand_efficiency_sa>
-0.932851297318415

> <r_i_glide_ligand_efficiency_ln>
-2.07615184700123

> <r_i_glide_gscore>
-9.20563072417167

> <r_i_glide_lipo>
-4.57066006131517

> <r_i_glide_hbond>
-0.16

> <r_i_glide_metal>
0

> <r_i_glide_rewards>
-2.11840326780962

> <r_i_glide_evdw>
-34.4161987304688

> <r_i_glide_ecoul>
-4.01861381530762

> <r_i_glide_erotb>
0

> <r_i_glide_esite>
-0.0329653862272969

> <r_i_glide_emodel>
-57.0782776264732

> <r_i_glide_energy>
-38.4348125457764

> <r_i_glide_einternal>
1.72019386291504

> <i_i_glide_confnum>
2

> <i_i_glide_posenum>
55

> <r_i_glide_eff_state_penalty>
0

> <s_user_duplicate_titles>
CHEMBL3880_lig184

> <i_f3d_flags>
0

> <s_m_subgroup_title>
dock_pv

> <s_m_subgroupid>
dock_pv

> <b_m_subgroup_collapsed>
1

$$$$
CHEMBL3880_lig981
                    3D
 Schrodinger Suite 2021-1.
 53 56  0  0  1  0            999 V2000
    0.2705    7.1039   26.4148 C   0  0  0  0  0  0
    0.9067    8.0627   27.4556 C   0  0  0  0  0  0
    1.6037    7.2985   28.6007 C   0  0  0  0  0  0
    4.9147    9.1886   23.4480 C   0  0  0  0  0  0
    3.6272    9.3449   23.9509 C   0  0  0  0  0  0
    5.2176   11.5840   23.5680 C   0  0  0  0  0  0
    5.7283   10.3161   23.2647 C   0  0  0  0  0  0
    3.1297   10.6077   24.2937 C   0  0  0  0  0  0
    3.9230   11.7611   24.0784 C   0  0  0  0  0  0
    3.4790   13.0668   24.3608 N   0  0  0  0  0  0
    2.1830   13.5857   23.8934 C   0  0  0  0  0  0
    1.1796   12.5810   23.2964 C   0  0  0  0  0  0
    0.8208   11.5235   24.3191 C   0  0  0  0  0  0
    1.8081   10.6849   24.8016 N   0  0  0  0  0  0
   -0.3907   11.2104   24.9308 C   0  0  0  0  0  0
   -0.0586   10.3881   26.0227 C   0  0  0  0  0  0
    1.2679    9.9936   25.8713 C   0  0  0  0  0  0
    1.9741    8.9692   26.7639 C   0  0  0  0  0  0
   -0.1991    8.9488   28.1047 C   0  0  0  0  0  0
   -0.8745    9.9684   27.1673 C   0  0  0  0  0  0
    7.1204   10.1965   22.7210 C   0  0  0  0  0  0
    7.3654   10.3695   21.5334 O   0  0  0  0  0  0
    8.0604    9.9015   23.6136 N   0  0  0  0  0  0
   -2.0164   10.3691   27.3797 O   0  0  0  0  0  0
   -1.7394   11.8040   24.5898 C   0  0  0  0  0  0
    5.4495    7.5834   23.0718 Cl  0  0  0  0  0  0
    4.1785   13.8206   25.4159 C   0  0  0  0  0  0
    4.4289   15.2138   25.0722 C   0  0  0  0  0  0
    4.8611   16.3062   24.7672 C   0  0  0  0  0  0
   -0.2037    7.6263   25.5838 H   0  0  0  0  0  0
    1.0193    6.4378   25.9848 H   0  0  0  0  0  0
   -0.4941    6.4763   26.8745 H   0  0  0  0  0  0
    2.0392    7.9742   29.3391 H   0  0  0  0  0  0
    0.9044    6.6488   29.1280 H   0  0  0  0  0  0
    2.4101    6.6684   28.2235 H   0  0  0  0  0  0
    3.0079    8.4653   24.0588 H   0  0  0  0  0  0
    5.8318   12.4593   23.4020 H   0  0  0  0  0  0
    2.3817   14.3685   23.1671 H   0  0  0  0  0  0
    1.6918   14.1010   24.7195 H   0  0  0  0  0  0
    1.5539   12.1771   22.3548 H   0  0  0  0  0  0
    0.2896   13.1382   23.0037 H   0  0  0  0  0  0
    2.5107    9.5381   27.5256 H   0  0  0  0  0  0
    2.7152    8.3601   26.2499 H   0  0  0  0  0  0
    0.2473    9.5422   28.9001 H   0  0  0  0  0  0
   -0.9764    8.3489   28.5776 H   0  0  0  0  0  0
    9.0200    9.8317   23.3143 H   0  0  0  0  0  0
    7.8114    9.6940   24.5680 H   0  0  0  0  0  0
   -2.3389   11.9682   25.4771 H   0  0  0  0  0  0
   -1.6725   12.7713   24.0956 H   0  0  0  0  0  0
   -2.3161   11.1418   23.9439 H   0  0  0  0  0  0
    5.2133   13.5445   25.5662 H   0  0  0  0  0  0
    3.6611   13.7701   26.3681 H   0  0  0  0  0  0
    5.3214   17.1690   24.3790 H   0  0  0  0  0  0
  1  2  1  0  0  0
  1 30  1  0  0  0
  1 31  1  0  0  0
  1 32  1  0  0  0
  2  3  1  0  0  0
  2 18  1  0  0  0
  2 19  1  0  0  0
  3 33  1  0  0  0
  3 34  1  0  0  0
  3 35  1  0  0  0
  4  5  2  0  0  0
  4  7  1  0  0  0
  4 26  1  0  0  0
  5  8  1  0  0  0
  5 36  1  0  0  0
  6  9  1  0  0  0
  6  7  2  0  0  0
  6 37  1  0  0  0
  7 21  1  0  0  0
  8  9  2  0  0  0
  8 14  1  0  0  0
  9 10  1  0  0  0
 10 11  1  0  0  0
 10 27  1  0  0  0
 11 12  1  0  0  0
 11 38  1  0  0  0
 11 39  1  0  0  0
 12 13  1  0  0  0
 12 40  1  0  0  0
 12 41  1  0  0  0
 13 14  1  0  0  0
 13 15  2  0  0  0
 14 17  1  0  0  0
 15 16  1  0  0  0
 15 25  1  0  0  0
 16 17  2  0  0  0
 16 20  1  0  0  0
 17 18  1  0  0  0
 18 42  1  0  0  0
 18 43  1  0  0  0
 19 20  1  0  0  0
 19 44  1  0  0  0
 19 45  1  0  0  0
 20 24  2  0  0  0
 21 22  2  0  0  0
 21 23  1  0  0  0
 23 46  1  0  0  0
 23 47  1  0  0  0
 25 48  1  0  0  0
 25 49  1  0  0  0
 25 50  1  0  0  0
 27 28  1  0  0  0
 27 51  1  0  0  0
 27 52  1  0  0  0
 28 29  3  0  0  0
 29 53  1  0  0  0
M  END
> <s_m_entry_id>
4740

> <s_m_entry_name>
dock_pv.59

> <s_m_Source_Path>
/home/csk/Desktop/cluster/DUD-E-result/hs90a

> <s_m_Source_File>
dock_pv.maegz

> <i_m_Source_File_Index>
59

> <chembl_id>
CHEMBL3401152

> <chembl_pref_name>
None

> <i_lp_mmshare_version>
53161

> <r_lp_tautomer_probability>
0.99995

> <s_lp_Force_Field>
OPLS_2005

> <r_lp_Energy>
34.843127

> <b_lp_Chiralities_Consistent>
1

> <s_lp_Variant>
CHEMBL3880_lig981-1

> <s_i_glide_gridfile>
glide-grid_1uyg

> <i_i_glide_lignum>
1090

> <i_i_glide_rotatable_bonds>
3

> <r_i_docking_score>
-9.20188892210489

> <r_i_glide_ligand_efficiency>
-0.317306514555341

> <r_i_glide_ligand_efficiency_sa>
-0.974866142473884

> <r_i_glide_ligand_efficiency_ln>
-2.10699922339206

> <r_i_glide_gscore>
-9.20188892210489

> <r_i_glide_lipo>
-4.37245788574803

> <r_i_glide_hbond>
0

> <r_i_glide_metal>
0

> <r_i_glide_rewards>
-2.49394708964895

> <r_i_glide_evdw>
-45.6760520935059

> <r_i_glide_ecoul>
-1.9074239730835

> <r_i_glide_erotb>
0.234432253929901

> <r_i_glide_esite>
0

> <r_i_glide_emodel>
-54.0058517376556

> <r_i_glide_energy>
-47.5834760665894

> <r_i_glide_einternal>
5.61248397827148

> <i_i_glide_confnum>
2

> <i_i_glide_posenum>
189

> <r_i_glide_eff_state_penalty>
0

> <s_user_duplicate_titles>
CHEMBL3880_lig981

> <i_f3d_flags>
0

> <s_m_subgroup_title>
dock_pv

> <s_m_subgroupid>
dock_pv

> <b_m_subgroup_collapsed>
1

$$$$
CHEMBL3880_lig221
                    3D
 Schrodinger Suite 2021-1.
 39 41  0  0  1  0            999 V2000
    4.9475   14.4640   24.9602 C   0  0  0  0  0  0
    6.2191   14.0295   24.5502 C   0  0  0  0  0  0
    6.3622   12.7686   23.9520 C   0  0  0  0  0  0
    3.8229   13.6485   24.7784 C   0  0  0  0  0  0
    3.9853   12.3933   24.1873 C   0  0  0  0  0  0
    5.2251   11.9760   23.7831 C   0  0  0  0  0  0
    5.0590   10.7192   23.2624 N   0  0  0  0  0  0
    3.7731   10.3193   23.3232 C   0  0  0  0  0  0
    3.1007   11.3606   23.8896 N   0  0  0  0  0  0
    3.3296    9.2356   22.9477 O   0  0  0  0  0  0
    1.7284   11.3314   24.2167 C   0  0  0  0  0  0
    1.3053   10.5635   25.3079 C   0  0  0  0  0  0
   -0.0463   10.4923   25.6474 C   0  0  0  0  0  0
   -0.9993   11.1710   24.8762 C   0  0  0  0  0  0
   -0.5835   11.9362   23.7839 C   0  0  0  0  0  0
    0.7724   12.0209   23.4529 C   0  0  0  0  0  0
    1.1411   12.7686   22.3674 O   0  0  0  0  0  0
   -0.5089    9.5706   27.0373 Cl  0  0  0  0  0  0
   -2.3331   11.0945   25.1965 O   0  0  0  0  0  0
    7.4322   14.9340   24.6985 C   0  0  0  0  0  0
    8.1122   14.7705   26.0030 N   0  0  1  0  0  0
    9.8462   15.0562   26.1226 S   0  0  0  0  0  0
   10.4176   13.7249   27.3043 C   0  0  0  0  0  0
   10.0609   16.3556   26.7665 O   0  0  0  0  0  0
   10.4329   14.7674   24.8103 O   0  0  0  0  0  0
    4.8286   15.4368   25.4154 H   0  0  0  0  0  0
    7.3357   12.4272   23.6314 H   0  0  0  0  0  0
    2.8602   13.9980   25.1121 H   0  0  0  0  0  0
    5.8019   10.1369   22.9077 H   0  0  0  0  0  0
    2.0270   10.0253   25.9064 H   0  0  0  0  0  0
   -1.3135   12.4619   23.1841 H   0  0  0  0  0  0
    2.0816   12.9621   22.3739 H   0  0  0  0  0  0
   -2.9508   11.5694   24.6255 H   0  0  0  0  0  0
    7.0892   15.9686   24.6426 H   0  0  0  0  0  0
    8.1399   14.8283   23.8754 H   0  0  0  0  0  0
    7.5445   14.9955   26.8225 H   0  0  0  0  0  0
   11.4807   13.8642   27.4935 H   0  0  0  0  0  0
   10.2364   12.7691   26.8241 H   0  0  0  0  0  0
    9.8547   13.8118   28.2339 H   0  0  0  0  0  0
  1  2  2  0  0  0
  1  4  1  0  0  0
  1 26  1  0  0  0
  2  3  1  0  0  0
  2 20  1  0  0  0
  3  6  2  0  0  0
  3 27  1  0  0  0
  4  5  2  0  0  0
  4 28  1  0  0  0
  5  9  1  0  0  0
  5  6  1  0  0  0
  6  7  1  0  0  0
  7  8  1  0  0  0
  7 29  1  0  0  0
  8  9  1  0  0  0
  8 10  2  0  0  0
  9 11  1  0  0  0
 11 12  2  0  0  0
 11 16  1  0  0  0
 12 13  1  0  0  0
 12 30  1  0  0  0
 13 14  2  0  0  0
 13 18  1  0  0  0
 14 15  1  0  0  0
 14 19  1  0  0  0
 15 16  2  0  0  0
 15 31  1  0  0  0
 16 17  1  0  0  0
 17 32  1  0  0  0
 19 33  1  0  0  0
 20 21  1  0  0  0
 20 34  1  0  0  0
 20 35  1  0  0  0
 21 22  1  0  0  0
 21 36  1  0  0  0
 22 23  1  0  0  0
 22 24  2  0  0  0
 22 25  2  0  0  0
 23 37  1  0  0  0
 23 38  1  0  0  0
 23 39  1  0  0  0
M  END
> <s_m_entry_id>
4741

> <s_m_entry_name>
dock_pv.60

> <s_m_Source_Path>
/home/csk/Desktop/cluster/DUD-E-result/hs90a

> <s_m_Source_File>
dock_pv.maegz

> <i_m_Source_File_Index>
60

> <chembl_id>
CHEMBL1801574

> <chembl_pref_name>
None

> <i_lp_mmshare_version>
53161

> <r_lp_tautomer_probability>
1

> <s_lp_Force_Field>
OPLS_2005

> <r_lp_Energy>
46.897477

> <b_lp_Chiralities_Consistent>
1

> <s_lp_Variant>
CHEMBL3880_lig221-1

> <s_i_glide_gridfile>
glide-grid_1uyg

> <i_i_glide_lignum>
255

> <i_i_glide_rotatable_bonds>
6

> <r_i_docking_score>
-9.19694948268291

> <r_i_glide_ligand_efficiency>
-0.367877979307316

> <r_i_glide_ligand_efficiency_sa>
-1.07568173583834

> <r_i_glide_ligand_efficiency_ln>
-2.17995263773146

> <r_i_glide_gscore>
-9.19694948268291

> <r_i_glide_lipo>
-3.59113476219327

> <r_i_glide_hbond>
-0.146322222858901

> <r_i_glide_metal>
0

> <r_i_glide_rewards>
-2.19976911120134

> <r_i_glide_evdw>
-44.3866958618164

> <r_i_glide_ecoul>
-9.11651992797852

> <r_i_glide_erotb>
0.395823310445203

> <r_i_glide_esite>
-0.0687339145870059

> <r_i_glide_emodel>
-79.5998487395052

> <r_i_glide_energy>
-53.5032157897949

> <r_i_glide_einternal>
4.5176568031311

> <i_i_glide_confnum>
27

> <i_i_glide_posenum>
395

> <r_i_glide_eff_state_penalty>
0

> <s_user_duplicate_titles>
CHEMBL3880_lig221

> <i_f3d_flags>
0

> <s_m_subgroup_title>
dock_pv

> <s_m_subgroupid>
dock_pv

> <b_m_subgroup_collapsed>
1

$$$$
CHEMBL3880_lig198
                    3D
 Schrodinger Suite 2021-1.
 69 73  0  0  1  0            999 V2000
    0.5051   12.2624   22.9007 C   0  0  0  0  0  0
    1.8923   12.3283   22.8086 C   0  0  0  0  0  0
    2.6936   11.8248   23.8224 C   0  0  0  0  0  0
    2.1044   11.2533   24.9373 C   0  0  0  0  0  0
    0.7193   11.1201   25.0230 C   0  0  0  0  0  0
   -0.1165   11.6479   24.0030 C   0  0  0  0  0  0
   -1.6307   11.5701   24.0706 C   0  0  0  0  0  0
   -2.2174   10.7604   24.7797 O   0  0  0  0  0  0
   -2.3378   12.4513   23.3615 N   0  0  0  0  0  0
    0.2589   10.4195   26.1451 N   0  0  0  0  0  0
    4.9901   10.9237   23.4283 C   0  0  0  0  0  0
    4.0937   11.9250   23.7515 N   0  0  0  0  0  0
    6.2912   11.4469   23.5409 C   0  0  0  0  0  0
    6.1576   12.7844   23.9883 C   0  0  0  0  0  0
    4.7996   13.0704   24.0245 C   0  0  0  0  0  0
    4.1595   14.3734   24.4785 C   0  0  0  0  0  0
    5.1471   15.2257   25.3204 C   0  0  0  0  0  0
    6.6273   15.1543   24.8268 C   0  0  0  0  0  0
    7.1627   13.7455   24.4839 C   0  0  0  0  0  0
    4.7095   16.6573   25.3125 C   0  0  0  0  0  0
    5.0925   14.8092   26.7657 C   0  0  0  0  0  0
    8.3259   13.4447   24.7391 O   0  0  0  0  0  0
    7.5747   10.6633   23.3454 C   0  0  0  0  0  0
    4.5117    9.5354   22.9905 C   0  0  0  0  0  0
    3.8981    8.6438   24.1073 C   0  0  0  0  0  0
    2.4329    8.2100   23.8397 C   0  0  0  0  0  0
    0.0716    8.9985   25.8736 C   0  0  0  0  0  0
    1.3442    8.1293   26.1078 C   0  0  2  0  0  0
    1.8779    7.4006   24.9336 N   0  0  1  0  0  0
    0.9674    6.3529   24.4399 C   0  0  0  0  0  0
    0.5731    5.3534   25.5447 C   0  0  0  0  0  0
    0.0845    6.0225   26.8366 C   0  0  0  0  0  0
    1.0931    7.1091   27.2467 C   0  0  0  0  0  0
    2.1536    8.7653   26.4718 H   0  0  0  0  0  0
   -0.0758   12.6707   22.0865 H   0  0  0  0  0  0
    2.3600   12.7689   21.9590 H   0  0  0  0  0  0
    2.7345   10.8780   25.7321 H   0  0  0  0  0  0
   -3.3471   12.4276   23.5112 H   0  0  0  0  0  0
   -1.9166   13.1570   22.7815 H   0  0  0  0  0  0
    0.7991   10.5718   26.9866 H   0  0  0  0  0  0
    3.2092   14.2301   24.9944 H   0  0  0  0  0  0
    3.9161   14.9042   23.5674 H   0  0  0  0  0  0
    7.2951   15.5723   25.5786 H   0  0  0  0  0  0
    6.7663   15.7894   23.9663 H   0  0  0  0  0  0
    5.2628   17.1691   26.0810 H   0  0  0  0  0  0
    4.8635   17.1698   24.3672 H   0  0  0  0  0  0
    3.6640   16.7460   25.6090 H   0  0  0  0  0  0
    5.5887   15.5120   27.4374 H   0  0  0  0  0  0
    4.0970   14.5699   27.1434 H   0  0  0  0  0  0
    5.7015   13.9690   26.7671 H   0  0  0  0  0  0
    8.3984   11.0238   23.9645 H   0  0  0  0  0  0
    7.4576    9.6113   23.6139 H   0  0  0  0  0  0
    7.9062   10.6881   22.3051 H   0  0  0  0  0  0
    5.3445    8.9909   22.5409 H   0  0  0  0  0  0
    3.7973    9.6363   22.1708 H   0  0  0  0  0  0
    4.0107    9.0962   25.0920 H   0  0  0  0  0  0
    4.4979    7.7333   24.1501 H   0  0  0  0  0  0
    2.4367    7.6290   22.9148 H   0  0  0  0  0  0
    1.7946    9.0587   23.5979 H   0  0  0  0  0  0
   -0.3175    8.8423   24.8664 H   0  0  0  0  0  0
   -0.7403    8.6839   26.5251 H   0  0  0  0  0  0
    1.4791    5.7905   23.6539 H   0  0  0  0  0  0
    0.0902    6.7985   23.9674 H   0  0  0  0  0  0
    1.4240    4.7037   25.7361 H   0  0  0  0  0  0
   -0.2161    4.7073   25.1629 H   0  0  0  0  0  0
   -0.0237    5.2833   27.6294 H   0  0  0  0  0  0
   -0.9049    6.4509   26.6739 H   0  0  0  0  0  0
    0.7827    7.6120   28.1620 H   0  0  0  0  0  0
    2.0330    6.6008   27.4726 H   0  0  0  0  0  0
  1  6  1  0  0  0
  1  2  2  0  0  0
  1 35  1  0  0  0
  2  3  1  0  0  0
  2 36  1  0  0  0
  3 12  1  0  0  0
  3  4  2  0  0  0
  4  5  1  0  0  0
  4 37  1  0  0  0
  5 10  1  0  0  0
  5  6  2  0  0  0
  6  7  1  0  0  0
  7  9  1  0  0  0
  7  8  2  0  0  0
  9 38  1  0  0  0
  9 39  1  0  0  0
 10 27  1  0  0  0
 10 40  1  0  0  0
 11 12  1  0  0  0
 11 24  1  0  0  0
 11 13  2  0  0  0
 12 15  1  0  0  0
 13 23  1  0  0  0
 13 14  1  0  0  0
 14 19  1  0  0  0
 14 15  2  0  0  0
 15 16  1  0  0  0
 16 17  1  0  0  0
 16 41  1  0  0  0
 16 42  1  0  0  0
 17 18  1  0  0  0
 17 20  1  0  0  0
 17 21  1  0  0  0
 18 19  1  0  0  0
 18 43  1  0  0  0
 18 44  1  0  0  0
 19 22  2  0  0  0
 20 45  1  0  0  0
 20 46  1  0  0  0
 20 47  1  0  0  0
 21 48  1  0  0  0
 21 49  1  0  0  0
 21 50  1  0  0  0
 23 51  1  0  0  0
 23 52  1  0  0  0
 23 53  1  0  0  0
 24 25  1  0  0  0
 24 54  1  0  0  0
 24 55  1  0  0  0
 25 26  1  0  0  0
 25 56  1  0  0  0
 25 57  1  0  0  0
 26 29  1  0  0  0
 26 58  1  0  0  0
 26 59  1  0  0  0
 27 28  1  0  0  0
 27 60  1  0  0  0
 27 61  1  0  0  0
 28 29  1  0  0  0
 28 33  1  0  0  0
 28 34  1  0  0  0
 29 30  1  0  0  0
 30 31  1  0  0  0
 30 62  1  0  0  0
 30 63  1  0  0  0
 31 32  1  0  0  0
 31 64  1  0  0  0
 31 65  1  0  0  0
 32 33  1  0  0  0
 32 66  1  0  0  0
 32 67  1  0  0  0
 33 68  1  0  0  0
 33 69  1  0  0  0
M  END
> <s_m_entry_id>
4742

> <s_m_entry_name>
dock_pv.61

> <s_m_Source_Path>
/home/csk/Desktop/cluster/DUD-E-result/hs90a

> <s_m_Source_File>
dock_pv.maegz

> <i_m_Source_File_Index>
61

> <chembl_id>
CHEMBL1779532

> <chembl_pref_name>
None

> <i_lp_mmshare_version>
53161

> <r_lp_tautomer_probability>
0.99995

> <s_lp_Force_Field>
OPLS_2005

> <r_lp_Energy>
54.805719

> <b_lp_Chiralities_Consistent>
1

> <s_lp_Variant>
CHEMBL3880_lig198-1

> <s_i_glide_gridfile>
glide-grid_1uyg

> <i_i_glide_lignum>
232

> <i_i_glide_rotatable_bonds>
1

> <r_i_docking_score>
-9.1953278404223

> <r_i_glide_ligand_efficiency>
-0.278646298194615

> <r_i_glide_ligand_efficiency_sa>
-0.893767566343794

> <r_i_glide_ligand_efficiency_ln>
-2.04499330085044

> <r_i_glide_gscore>
-9.1953278404223

> <r_i_glide_lipo>
-4.80016954132586

> <r_i_glide_hbond>
-0.162485875746295

> <r_i_glide_metal>
0

> <r_i_glide_rewards>
-1.87410466813938

> <r_i_glide_evdw>
-38.3828392028809

> <r_i_glide_ecoul>
-2.60293817520142

> <r_i_glide_erotb>
0

> <r_i_glide_esite>
-0.0489850687865192

> <r_i_glide_emodel>
-53.2158531623228

> <r_i_glide_energy>
-40.9857773780823

> <r_i_glide_einternal>
0.42758846282959

> <i_i_glide_confnum>
1

> <i_i_glide_posenum>
9

> <r_i_glide_eff_state_penalty>
0

> <s_user_duplicate_titles>
CHEMBL3880_lig198

> <i_f3d_flags>
0

> <s_m_subgroup_title>
dock_pv

> <s_m_subgroupid>
dock_pv

> <b_m_subgroup_collapsed>
1

$$$$
CHEMBL3880_lig957
                    3D
 Schrodinger Suite 2021-1.
 66 70  0  0  1  0            999 V2000
    5.2591    7.1148   22.7932 C   0  0  0  0  0  0
    5.5394    8.6306   22.6842 C   0  0  0  0  0  0
    5.5028    9.1631   21.2278 C   0  0  0  0  0  0
    0.3924   12.2907   23.6659 C   0  0  0  0  0  0
    1.7587   12.4637   23.5003 C   0  0  0  0  0  0
    2.6455   11.7020   24.2419 C   0  0  0  0  0  0
    2.1725   10.7688   25.1665 C   0  0  0  0  0  0
    0.8029   10.5660   25.3548 C   0  0  0  0  0  0
   -0.0959   11.3169   24.5619 C   0  0  0  0  0  0
   -1.5950   11.1771   24.7579 C   0  0  0  0  0  0
   -2.1585   10.7674   25.7698 O   0  0  0  0  0  0
   -2.3390   11.6945   23.7603 N   0  0  0  0  0  0
    4.0221   11.8424   24.0420 N   0  0  0  0  0  0
    4.8719   10.7992   23.7711 C   0  0  0  0  0  0
    6.1701   11.2813   23.7162 C   0  0  0  0  0  0
    7.3033   10.3835   23.5188 C   0  0  0  0  0  0
    6.9384    8.8976   23.3212 C   0  0  0  0  0  0
    4.4429    9.3570   23.5084 C   0  0  0  0  0  0
    8.4621   10.7686   23.5012 O   0  0  0  0  0  0
    6.1237   12.6709   23.9670 C   0  0  0  0  0  0
    4.7837   12.9863   24.1651 C   0  0  0  0  0  0
    4.2731   14.3748   24.5156 C   0  0  0  0  0  0
    5.2703   15.1537   25.2602 N   0  0  2  0  0  0
    6.6577   15.0690   24.7786 C   0  0  0  0  0  0
    7.2087   13.7068   24.2342 C   0  0  0  0  0  0
    5.1458   15.0000   26.6996 C   0  0  0  0  0  0
   -0.5906   13.1466   22.9044 C   0  0  0  0  0  0
   -1.8197   12.3073   22.5327 C   0  0  0  0  0  0
    0.3401    9.6255   26.3015 N   0  0  0  0  0  0
    1.1774    8.8015   27.1660 C   0  0  0  0  0  0
    1.7714    7.6033   26.4052 C   0  0  0  0  0  0
    0.3764    8.3266   28.3873 C   0  0  0  0  0  0
    6.0613    6.5170   22.3671 H   0  0  0  0  0  0
    5.1576    6.7927   23.8301 H   0  0  0  0  0  0
    4.3375    6.8428   22.2772 H   0  0  0  0  0  0
    6.3254    8.7691   20.6388 H   0  0  0  0  0  0
    4.5763    8.8771   20.7275 H   0  0  0  0  0  0
    5.5773   10.2471   21.1767 H   0  0  0  0  0  0
    2.1266   13.1931   22.7934 H   0  0  0  0  0  0
    2.8879   10.2124   25.7516 H   0  0  0  0  0  0
   -3.3366   11.8080   23.9678 H   0  0  0  0  0  0
    6.9625    8.4634   24.3218 H   0  0  0  0  0  0
    7.7370    8.4144   22.7569 H   0  0  0  0  0  0
    4.3500    8.8795   24.4844 H   0  0  0  0  0  0
    3.4686    9.2839   23.0208 H   0  0  0  0  0  0
    4.1672   14.8852   23.5669 H   0  0  0  0  0  0
    3.2859   14.3883   24.9803 H   0  0  0  0  0  0
    6.6715   15.7798   23.9665 H   0  0  0  0  0  0
    7.3622   15.5501   25.4590 H   0  0  0  0  0  0
    7.8300   13.2746   25.0189 H   0  0  0  0  0  0
    7.8983   13.8659   23.4056 H   0  0  0  0  0  0
    5.8863   15.6042   27.2257 H   0  0  0  0  0  0
    4.1589   15.3293   27.0270 H   0  0  0  0  0  0
    5.2605   13.9690   26.9950 H   0  0  0  0  0  0
   -0.1248   13.5685   22.0166 H   0  0  0  0  0  0
   -0.8945   13.9690   23.5506 H   0  0  0  0  0  0
   -1.5881   11.5686   21.7689 H   0  0  0  0  0  0
   -2.5895   12.9426   22.0921 H   0  0  0  0  0  0
   -0.6636    9.5897   26.4403 H   0  0  0  0  0  0
    1.9958    9.4162   27.5445 H   0  0  0  0  0  0
    2.4197    7.0099   27.0503 H   0  0  0  0  0  0
    0.9880    6.9460   26.0237 H   0  0  0  0  0  0
    2.3700    7.9201   25.5513 H   0  0  0  0  0  0
    0.9978    7.7379   29.0627 H   0  0  0  0  0  0
   -0.0082    9.1690   28.9614 H   0  0  0  0  0  0
   -0.4754    7.7096   28.0968 H   0  0  0  0  0  0
  1  2  1  0  0  0
  1 33  1  0  0  0
  1 34  1  0  0  0
  1 35  1  0  0  0
  2  3  1  0  0  0
  2 17  1  0  0  0
  2 18  1  0  0  0
  3 36  1  0  0  0
  3 37  1  0  0  0
  3 38  1  0  0  0
  4  5  2  0  0  0
  4  9  1  0  0  0
  4 27  1  0  0  0
  5  6  1  0  0  0
  5 39  1  0  0  0
  6  7  2  0  0  0
  6 13  1  0  0  0
  7  8  1  0  0  0
  7 40  1  0  0  0
  8  9  2  0  0  0
  8 29  1  0  0  0
  9 10  1  0  0  0
 10 11  2  0  0  0
 10 12  1  0  0  0
 12 28  1  0  0  0
 12 41  1  0  0  0
 13 21  1  0  0  0
 13 14  1  0  0  0
 14 15  2  0  0  0
 14 18  1  0  0  0
 15 20  1  0  0  0
 15 16  1  0  0  0
 16 17  1  0  0  0
 16 19  2  0  0  0
 17 42  1  0  0  0
 17 43  1  0  0  0
 18 44  1  0  0  0
 18 45  1  0  0  0
 20 21  2  0  0  0
 20 25  1  0  0  0
 21 22  1  0  0  0
 22 23  1  0  0  0
 22 46  1  0  0  0
 22 47  1  0  0  0
 23 24  1  0  0  0
 23 26  1  0  0  0
 24 25  1  0  0  0
 24 48  1  0  0  0
 24 49  1  0  0  0
 25 50  1  0  0  0
 25 51  1  0  0  0
 26 52  1  0  0  0
 26 53  1  0  0  0
 26 54  1  0  0  0
 27 28  1  0  0  0
 27 55  1  0  0  0
 27 56  1  0  0  0
 28 57  1  0  0  0
 28 58  1  0  0  0
 29 30  1  0  0  0
 29 59  1  0  0  0
 30 31  1  0  0  0
 30 32  1  0  0  0
 30 60  1  0  0  0
 31 61  1  0  0  0
 31 62  1  0  0  0
 31 63  1  0  0  0
 32 64  1  0  0  0
 32 65  1  0  0  0
 32 66  1  0  0  0
M  END
> <s_m_entry_id>
4743

> <s_m_entry_name>
dock_pv.62

> <s_m_Source_Path>
/home/csk/Desktop/cluster/DUD-E-result/hs90a

> <s_m_Source_File>
dock_pv.maegz

> <i_m_Source_File_Index>
62

> <chembl_id>
CHEMBL3235345

> <chembl_pref_name>
None

> <i_lp_mmshare_version>
53161

> <r_lp_tautomer_probability>
0.99995

> <s_lp_Force_Field>
OPLS_2005

> <r_lp_Energy>
50.482383

> <b_lp_Chiralities_Consistent>
1

> <s_lp_Variant>
CHEMBL3880_lig957-1

> <s_i_glide_gridfile>
glide-grid_1uyg

> <i_i_glide_lignum>
1066

> <i_i_glide_rotatable_bonds>
3

> <r_i_docking_score>
-9.18513552085264

> <r_i_glide_ligand_efficiency>
-0.287035485026645

> <r_i_glide_ligand_efficiency_sa>
-0.911280860714244

> <r_i_glide_ligand_efficiency_ln>
-2.05680222045691

> <r_i_glide_gscore>
-9.18513552085264

> <r_i_glide_lipo>
-4.78944248954243

> <r_i_glide_hbond>
-0.16

> <r_i_glide_metal>
0

> <r_i_glide_rewards>
-1.74506054684928

> <r_i_glide_evdw>
-45.9211082458496

> <r_i_glide_ecoul>
-2.32108902931213

> <r_i_glide_erotb>
0.210923487316464

> <r_i_glide_esite>
-0.0573372050880905

> <r_i_glide_emodel>
-56.0069859942922

> <r_i_glide_energy>
-48.2421972751617

> <r_i_glide_einternal>
0.705507338047028

> <i_i_glide_confnum>
2

> <i_i_glide_posenum>
317

> <r_i_glide_eff_state_penalty>
0

> <s_user_duplicate_titles>
CHEMBL3880_lig957

> <i_f3d_flags>
0

> <s_m_subgroup_title>
dock_pv

> <s_m_subgroupid>
dock_pv

> <b_m_subgroup_collapsed>
1

$$$$
CHEMBL3880_lig180
                    3D
 Schrodinger Suite 2021-1.
 65 68  0  0  1  0            999 V2000
    2.1885    6.3596   26.6060 C   0  0  0  0  0  0
    1.6214    7.4870   25.7099 C   0  0  0  0  0  0
    0.3136    6.9706   25.0639 C   0  0  0  0  0  0
    4.8609   16.5968   25.1669 C   0  0  0  0  0  0
    5.2559   15.1437   25.2410 C   0  0  0  0  0  0
    5.2163   14.7891   26.7087 C   0  0  0  0  0  0
    0.4727   12.1266   23.0779 C   0  0  0  0  0  0
    1.8417   12.2488   22.8504 C   0  0  0  0  0  0
    2.7361   11.6883   23.7562 C   0  0  0  0  0  0
    2.2575   10.9499   24.8261 C   0  0  0  0  0  0
    0.8954   10.7088   25.0023 C   0  0  0  0  0  0
   -0.0335   11.3658   24.1540 C   0  0  0  0  0  0
   -1.5360   11.2847   24.3875 C   0  0  0  0  0  0
   -2.3389   11.8477   23.4853 N   0  0  0  0  0  0
   -2.0177   10.7815   25.3997 O   0  0  0  0  0  0
    0.4830    9.7826   25.9810 N   0  0  0  0  0  0
    1.3660    8.7675   26.5746 C   0  0  0  0  0  0
    4.1301   11.8265   23.6442 N   0  0  0  0  0  0
    6.3199   11.2972   23.5240 C   0  0  0  0  0  0
    5.0183   10.8196   23.3060 C   0  0  0  0  0  0
    6.1988   12.6373   23.9669 C   0  0  0  0  0  0
    4.8456   12.9536   23.9807 C   0  0  0  0  0  0
    4.2262   14.2643   24.4628 C   0  0  0  0  0  0
    6.7272   15.0060   24.7185 C   0  0  0  0  0  0
    7.2222   13.5691   24.4616 C   0  0  0  0  0  0
    8.3637   13.2286   24.7666 O   0  0  0  0  0  0
    7.5994   10.5362   23.2384 C   0  0  0  0  0  0
    4.5258    9.4735   22.7518 C   0  0  0  0  0  0
    2.5371    7.7589   24.5838 N   0  0  2  0  0  0
    4.8144    8.2293   23.6286 C   0  0  0  0  0  0
    3.9522    7.9976   24.8921 C   0  0  0  0  0  0
    1.4506    6.0240   27.3352 H   0  0  0  0  0  0
    2.4797    5.4887   26.0155 H   0  0  0  0  0  0
    3.0687    6.6806   27.1640 H   0  0  0  0  0  0
   -0.4623    6.7774   25.8072 H   0  0  0  0  0  0
   -0.0966    7.6874   24.3514 H   0  0  0  0  0  0
    0.4759    6.0446   24.5076 H   0  0  0  0  0  0
    5.5146   17.1687   25.8008 H   0  0  0  0  0  0
    4.9349   17.0272   24.1780 H   0  0  0  0  0  0
    3.8616   16.7581   25.5673 H   0  0  0  0  0  0
    5.6558   15.5529   27.3522 H   0  0  0  0  0  0
    4.2291   14.5213   27.0888 H   0  0  0  0  0  0
    5.8633   13.9690   26.7670 H   0  0  0  0  0  0
   -0.1862   12.6235   22.3804 H   0  0  0  0  0  0
    2.1912   12.7690   21.9727 H   0  0  0  0  0  0
    2.9740   10.5602   25.5254 H   0  0  0  0  0  0
   -3.3270   11.9469   23.7391 H   0  0  0  0  0  0
   -2.0288   12.0994   22.5637 H   0  0  0  0  0  0
   -0.5101    9.5802   25.9779 H   0  0  0  0  0  0
    2.3129    9.2006   26.8911 H   0  0  0  0  0  0
    0.8912    8.4816   27.5140 H   0  0  0  0  0  0
    3.9252   14.7886   23.5669 H   0  0  0  0  0  0
    3.3064   14.1105   25.0286 H   0  0  0  0  0  0
    6.8635   15.5278   23.7791 H   0  0  0  0  0  0
    7.4280   15.4774   25.4088 H   0  0  0  0  0  0
    8.4007   11.1925   22.8976 H   0  0  0  0  0  0
    7.9636   10.0080   24.1205 H   0  0  0  0  0  0
    7.4663    9.8002   22.4439 H   0  0  0  0  0  0
    5.0230    9.3135   21.7949 H   0  0  0  0  0  0
    3.4673    9.4881   22.4890 H   0  0  0  0  0  0
    2.1685    8.5344   24.0507 H   0  0  0  0  0  0
    5.8629    8.2502   23.9289 H   0  0  0  0  0  0
    4.7227    7.3408   23.0007 H   0  0  0  0  0  0
    4.0567    8.8398   25.5695 H   0  0  0  0  0  0
    4.3650    7.1288   25.4038 H   0  0  0  0  0  0
  1  2  1  0  0  0
  1 32  1  0  0  0
  1 33  1  0  0  0
  1 34  1  0  0  0
  2  3  1  0  0  0
  2 17  1  0  0  0
  2 29  1  0  0  0
  3 35  1  0  0  0
  3 36  1  0  0  0
  3 37  1  0  0  0
  4  5  1  0  0  0
  4 38  1  0  0  0
  4 39  1  0  0  0
  4 40  1  0  0  0
  5  6  1  0  0  0
  5 23  1  0  0  0
  5 24  1  0  0  0
  6 41  1  0  0  0
  6 42  1  0  0  0
  6 43  1  0  0  0
  7  8  2  0  0  0
  7 12  1  0  0  0
  7 44  1  0  0  0
  8  9  1  0  0  0
  8 45  1  0  0  0
  9 10  2  0  0  0
  9 18  1  0  0  0
 10 11  1  0  0  0
 10 46  1  0  0  0
 11 12  2  0  0  0
 11 16  1  0  0  0
 12 13  1  0  0  0
 13 14  1  0  0  0
 13 15  2  0  0  0
 14 47  1  0  0  0
 14 48  1  0  0  0
 16 17  1  0  0  0
 16 49  1  0  0  0
 17 50  1  0  0  0
 17 51  1  0  0  0
 18 22  1  0  0  0
 18 20  1  0  0  0
 19 21  1  0  0  0
 19 20  2  0  0  0
 19 27  1  0  0  0
 20 28  1  0  0  0
 21 22  2  0  0  0
 21 25  1  0  0  0
 22 23  1  0  0  0
 23 52  1  0  0  0
 23 53  1  0  0  0
 24 25  1  0  0  0
 24 54  1  0  0  0
 24 55  1  0  0  0
 25 26  2  0  0  0
 27 56  1  0  0  0
 27 57  1  0  0  0
 27 58  1  0  0  0
 28 30  1  0  0  0
 28 59  1  0  0  0
 28 60  1  0  0  0
 29 31  1  0  0  0
 29 61  1  0  0  0
 30 31  1  0  0  0
 30 62  1  0  0  0
 30 63  1  0  0  0
 31 64  1  0  0  0
 31 65  1  0  0  0
M  END
> <s_m_entry_id>
4744

> <s_m_entry_name>
dock_pv.63

> <s_m_Source_Path>
/home/csk/Desktop/cluster/DUD-E-result/hs90a

> <s_m_Source_File>
dock_pv.maegz

> <i_m_Source_File_Index>
63

> <chembl_id>
CHEMBL1760601

> <chembl_pref_name>
None

> <i_lp_mmshare_version>
53161

> <r_lp_tautomer_probability>
0.99995

> <s_lp_Force_Field>
OPLS_2005

> <r_lp_Energy>
47.294467

> <b_lp_Chiralities_Consistent>
1

> <s_lp_Variant>
CHEMBL3880_lig180-1

> <s_i_glide_gridfile>
glide-grid_1uyg

> <i_i_glide_lignum>
211

> <i_i_glide_rotatable_bonds>
1

> <r_i_docking_score>
-9.18329431110998

> <r_i_glide_ligand_efficiency>
-0.296235300358387

> <r_i_glide_ligand_efficiency_sa>
-0.93058784003598

> <r_i_glide_ligand_efficiency_ln>
-2.07111430132697

> <r_i_glide_gscore>
-9.18329431110998

> <r_i_glide_lipo>
-4.47988132318123

> <r_i_glide_hbond>
-0.160718605726221

> <r_i_glide_metal>
0

> <r_i_glide_rewards>
-2.18051193485829

> <r_i_glide_evdw>
-34.2655601501465

> <r_i_glide_ecoul>
-4.01210594177246

> <r_i_glide_erotb>
0

> <r_i_glide_esite>
-0.0470885485710436

> <r_i_glide_emodel>
-40.12448166306

> <r_i_glide_energy>
-38.2776660919189

> <r_i_glide_einternal>
1.62191700935364

> <i_i_glide_confnum>
1

> <i_i_glide_posenum>
339

> <r_i_glide_eff_state_penalty>
0

> <s_user_duplicate_titles>
CHEMBL3880_lig180

> <i_f3d_flags>
0

> <s_m_subgroup_title>
dock_pv

> <s_m_subgroupid>
dock_pv

> <b_m_subgroup_collapsed>
1

$$$$
CHEMBL3880_lig192
                    3D
 Schrodinger Suite 2021-1.
 65 68  0  0  1  0            999 V2000
    4.8611   16.5999   25.1670 C   0  0  0  0  0  0
    5.2498   15.1477   25.2404 C   0  0  0  0  0  0
    5.2133   14.7921   26.7093 C   0  0  0  0  0  0
    0.4457   12.1424   23.0264 C   0  0  0  0  0  0
    1.8204   12.2688   22.8414 C   0  0  0  0  0  0
    2.6930   11.7211   23.7754 C   0  0  0  0  0  0
    2.1900   11.0025   24.8471 C   0  0  0  0  0  0
    0.8222   10.7704   24.9961 C   0  0  0  0  0  0
   -0.0822   11.4023   24.1035 C   0  0  0  0  0  0
   -1.5882   11.2857   24.2601 C   0  0  0  0  0  0
   -2.3380   12.2597   23.7467 N   0  0  0  0  0  0
   -2.1151   10.3694   24.8812 O   0  0  0  0  0  0
    0.3808    9.8810   25.9957 N   0  0  0  0  0  0
    1.2556    8.8809   26.6268 C   0  0  0  0  0  0
    4.0891   11.8371   23.6735 N   0  0  0  0  0  0
    6.2723   11.2829   23.5591 C   0  0  0  0  0  0
    4.9637   10.8125   23.3544 C   0  0  0  0  0  0
    6.1675   12.6356   23.9669 C   0  0  0  0  0  0
    4.8173   12.9611   23.9890 C   0  0  0  0  0  0
    4.2113   14.2785   24.4652 C   0  0  0  0  0  0
    6.7190   15.0038   24.7167 C   0  0  0  0  0  0
    7.2010   13.5645   24.4542 C   0  0  0  0  0  0
    8.3373   13.2130   24.7675 O   0  0  0  0  0  0
    7.5457   10.5064   23.2895 C   0  0  0  0  0  0
    4.4481    9.4623   22.8279 C   0  0  0  0  0  0
    1.5255    7.5996   25.7829 C   0  0  2  0  0  0
    2.4719    7.7985   24.6711 N   0  0  2  0  0  0
    3.8920    7.9959   25.0038 C   0  0  2  0  0  0
    4.7322    8.2212   23.7120 C   0  0  0  0  0  0
    0.2360    6.9798   25.2132 C   0  0  0  0  0  0
    4.4436    6.7672   25.7643 C   0  0  0  0  0  0
    5.5215   17.1680   25.7968 H   0  0  0  0  0  0
    4.9197   17.0325   24.1779 H   0  0  0  0  0  0
    3.8619   16.7544   25.5677 H   0  0  0  0  0  0
    5.6603   15.5540   27.3495 H   0  0  0  0  0  0
    4.2264   14.5315   27.0946 H   0  0  0  0  0  0
    5.8562   13.9691   26.7672 H   0  0  0  0  0  0
   -0.2023   12.5935   22.2889 H   0  0  0  0  0  0
    2.1973   12.7690   21.9669 H   0  0  0  0  0  0
    2.8937   10.6162   25.5628 H   0  0  0  0  0  0
   -3.3458   12.2523   23.9590 H   0  0  0  0  0  0
   -1.9408   13.0122   23.2123 H   0  0  0  0  0  0
   -0.5961    9.6244   25.9030 H   0  0  0  0  0  0
    2.1975    9.3159   26.9532 H   0  0  0  0  0  0
    0.7708    8.5963   27.5603 H   0  0  0  0  0  0
    3.9171   14.8008   23.5669 H   0  0  0  0  0  0
    3.2886   14.1381   25.0311 H   0  0  0  0  0  0
    6.8588   15.5286   23.7792 H   0  0  0  0  0  0
    7.4226   15.4669   25.4099 H   0  0  0  0  0  0
    8.3557   11.1547   22.9550 H   0  0  0  0  0  0
    7.8921    9.9752   24.1755 H   0  0  0  0  0  0
    7.4109    9.7700   22.4975 H   0  0  0  0  0  0
    4.9325    9.2870   21.8659 H   0  0  0  0  0  0
    3.3878    9.4856   22.5747 H   0  0  0  0  0  0
    1.9330    6.8431   26.4498 H   0  0  0  0  0  0
    2.1472    8.5581   24.0890 H   0  0  0  0  0  0
    4.0115    8.8686   25.6399 H   0  0  0  0  0  0
    5.7928    8.2285   23.9696 H   0  0  0  0  0  0
    4.6079    7.3404   23.0799 H   0  0  0  0  0  0
   -0.4316    6.6673   26.0167 H   0  0  0  0  0  0
   -0.3194    7.6866   24.5973 H   0  0  0  0  0  0
    0.4471    6.0995   24.6022 H   0  0  0  0  0  0
    5.5242    6.8357   25.8904 H   0  0  0  0  0  0
    4.0280    6.6833   26.7673 H   0  0  0  0  0  0
    4.2386    5.8386   25.2298 H   0  0  0  0  0  0
  1  2  1  0  0  0
  1 32  1  0  0  0
  1 33  1  0  0  0
  1 34  1  0  0  0
  2  3  1  0  0  0
  2 20  1  0  0  0
  2 21  1  0  0  0
  3 35  1  0  0  0
  3 36  1  0  0  0
  3 37  1  0  0  0
  4  9  1  0  0  0
  4  5  2  0  0  0
  4 38  1  0  0  0
  5  6  1  0  0  0
  5 39  1  0  0  0
  6 15  1  0  0  0
  6  7  2  0  0  0
  7  8  1  0  0  0
  7 40  1  0  0  0
  8  9  2  0  0  0
  8 13  1  0  0  0
  9 10  1  0  0  0
 10 11  1  0  0  0
 10 12  2  0  0  0
 11 41  1  0  0  0
 11 42  1  0  0  0
 13 14  1  0  0  0
 13 43  1  0  0  0
 14 26  1  0  0  0
 14 44  1  0  0  0
 14 45  1  0  0  0
 15 17  1  0  0  0
 15 19  1  0  0  0
 16 18  1  0  0  0
 16 17  2  0  0  0
 16 24  1  0  0  0
 17 25  1  0  0  0
 18 19  2  0  0  0
 18 22  1  0  0  0
 19 20  1  0  0  0
 20 46  1  0  0  0
 20 47  1  0  0  0
 21 22  1  0  0  0
 21 48  1  0  0  0
 21 49  1  0  0  0
 22 23  2  0  0  0
 24 50  1  0  0  0
 24 51  1  0  0  0
 24 52  1  0  0  0
 25 29  1  0  0  0
 25 53  1  0  0  0
 25 54  1  0  0  0
 26 27  1  0  0  0
 26 30  1  0  0  0
 26 55  1  0  0  0
 27 28  1  0  0  0
 27 56  1  0  0  0
 28 29  1  0  0  0
 28 31  1  0  0  0
 28 57  1  0  0  0
 29 58  1  0  0  0
 29 59  1  0  0  0
 30 60  1  0  0  0
 30 61  1  0  0  0
 30 62  1  0  0  0
 31 63  1  0  0  0
 31 64  1  0  0  0
 31 65  1  0  0  0
M  END
> <s_m_entry_id>
4745

> <s_m_entry_name>
dock_pv.64

> <s_m_Source_Path>
/home/csk/Desktop/cluster/DUD-E-result/hs90a

> <s_m_Source_File>
dock_pv.maegz

> <i_m_Source_File_Index>
64

> <chembl_id>
CHEMBL1760612

> <chembl_pref_name>
None

> <i_lp_mmshare_version>
53161

> <r_lp_tautomer_probability>
0.99995

> <s_lp_Force_Field>
OPLS_2005

> <r_lp_Energy>
42.629497

> <b_lp_Chiralities_Consistent>
1

> <s_lp_Variant>
CHEMBL3880_lig192-1

> <s_i_glide_gridfile>
glide-grid_1uyg

> <i_i_glide_lignum>
226

> <i_i_glide_rotatable_bonds>
1

> <r_i_docking_score>
-9.17036402019573

> <r_i_glide_ligand_efficiency>
-0.295818194199862

> <r_i_glide_ligand_efficiency_sa>
-0.929277550821098

> <r_i_glide_ligand_efficiency_ln>
-2.06819812445998

> <r_i_glide_gscore>
-9.17036402019573

> <r_i_glide_lipo>
-4.53561878652118

> <r_i_glide_hbond>
-0.16

> <r_i_glide_metal>
0

> <r_i_glide_rewards>
-2.18916123536566

> <r_i_glide_evdw>
-31.7774047851562

> <r_i_glide_ecoul>
-4.10001230239868

> <r_i_glide_erotb>
0

> <r_i_glide_esite>
-0.081711913691269

> <r_i_glide_emodel>
-39.4014893419602

> <r_i_glide_energy>
-35.8774170875549

> <r_i_glide_einternal>
1.80714356899261

> <i_i_glide_confnum>
2

> <i_i_glide_posenum>
5

> <r_i_glide_eff_state_penalty>
0

> <s_user_duplicate_titles>
CHEMBL3880_lig192

> <i_f3d_flags>
0

> <s_m_subgroup_title>
dock_pv

> <s_m_subgroupid>
dock_pv

> <b_m_subgroup_collapsed>
1

$$$$
CHEMBL3880_lig193
                    3D
 Schrodinger Suite 2021-1.
 65 68  0  0  1  0            999 V2000
    4.6885   16.7594   25.5621 C   0  0  0  0  0  0
    5.1723   15.3411   25.4325 C   0  0  0  0  0  0
    5.2479   14.7508   26.8214 C   0  0  0  0  0  0
    0.4510   12.6289   23.4704 C   0  0  0  0  0  0
    1.8195   12.8109   23.3081 C   0  0  0  0  0  0
    2.7215   11.9064   23.8699 C   0  0  0  0  0  0
    2.2256   10.8104   24.5713 C   0  0  0  0  0  0
    0.8542   10.5480   24.6491 C   0  0  0  0  0  0
   -0.0569   11.5036   24.1409 C   0  0  0  0  0  0
   -1.5508   11.3672   24.3322 C   0  0  0  0  0  0
   -2.3382   11.8857   23.3884 N   0  0  0  0  0  0
   -2.0255   10.8387   25.3347 O   0  0  0  0  0  0
    0.4189    9.3225   25.1954 N   0  0  0  0  0  0
    1.2185    8.0947   25.1154 C   0  0  2  0  0  0
    4.1223   12.0872   23.7640 N   0  0  0  0  0  0
    6.3377   11.7088   23.4573 C   0  0  0  0  0  0
    5.0549   11.1646   23.3016 C   0  0  0  0  0  0
    6.1704   13.0124   23.9673 C   0  0  0  0  0  0
    4.8037   13.2428   24.0776 C   0  0  0  0  0  0
    4.1618   14.5284   24.5838 C   0  0  0  0  0  0
    6.6012   15.3755   24.8202 C   0  0  0  0  0  0
    7.1708   14.0149   24.3710 C   0  0  0  0  0  0
    8.3750   13.7916   24.4474 O   0  0  0  0  0  0
    7.6444   11.0105   23.1536 C   0  0  0  0  0  0
    4.6307    9.8482   22.6440 C   0  0  0  0  0  0
    1.7457    7.7881   23.6789 C   0  0  0  0  0  0
    2.8991    6.8718   23.7002 N   0  0  2  0  0  0
    4.0561    7.3448   22.9208 C   0  0  0  0  0  0
    4.7710    8.5846   23.5246 C   0  0  0  0  0  0
    0.4084    6.9195   25.6890 C   0  0  0  0  0  0
    2.4940    5.5601   23.1947 C   0  0  0  0  0  0
    4.8478   17.3480   24.6595 H   0  0  0  0  0  0
    3.6586   16.7799   25.8877 H   0  0  0  0  0  0
    5.2567   17.1690   26.3771 H   0  0  0  0  0  0
    5.9516   13.9690   26.7633 H   0  0  0  0  0  0
    5.6620   15.4302   27.5676 H   0  0  0  0  0  0
    4.2910   14.3628   27.1700 H   0  0  0  0  0  0
   -0.2110   13.3848   23.0723 H   0  0  0  0  0  0
    2.1650   13.6777   22.7695 H   0  0  0  0  0  0
    2.9174   10.1384   25.0465 H   0  0  0  0  0  0
   -3.3352   11.9513   23.6004 H   0  0  0  0  0  0
   -1.9833   12.1959   22.4991 H   0  0  0  0  0  0
   -0.5841    9.1996   25.2603 H   0  0  0  0  0  0
    2.0751    8.2419   25.7754 H   0  0  0  0  0  0
    3.2321   14.3553   25.1279 H   0  0  0  0  0  0
    3.8995   15.1082   23.7073 H   0  0  0  0  0  0
    7.3118   15.8121   25.5231 H   0  0  0  0  0  0
    6.6098   16.0369   23.9672 H   0  0  0  0  0  0
    7.5363    9.9388   22.9994 H   0  0  0  0  0  0
    8.1117   11.4435   22.2724 H   0  0  0  0  0  0
    8.3595   11.1328   23.9661 H   0  0  0  0  0  0
    3.6142    9.9242   22.2591 H   0  0  0  0  0  0
    5.2312    9.6920   21.7471 H   0  0  0  0  0  0
    2.0292    8.7069   23.1729 H   0  0  0  0  0  0
    0.9282    7.4041   23.0649 H   0  0  0  0  0  0
    3.7421    7.5395   21.8921 H   0  0  0  0  0  0
    4.7918    6.5403   22.8609 H   0  0  0  0  0  0
    4.3781    8.7833   24.5181 H   0  0  0  0  0  0
    5.8238    8.3543   23.6931 H   0  0  0  0  0  0
    1.0183    6.0194   25.7693 H   0  0  0  0  0  0
    0.0419    7.1441   26.6917 H   0  0  0  0  0  0
   -0.4573    6.6864   25.0654 H   0  0  0  0  0  0
    3.3200    4.8547   23.2729 H   0  0  0  0  0  0
    1.6612    5.1493   23.7651 H   0  0  0  0  0  0
    2.1871    5.6078   22.1481 H   0  0  0  0  0  0
  1  2  1  0  0  0
  1 32  1  0  0  0
  1 33  1  0  0  0
  1 34  1  0  0  0
  2  3  1  0  0  0
  2 20  1  0  0  0
  2 21  1  0  0  0
  3 35  1  0  0  0
  3 36  1  0  0  0
  3 37  1  0  0  0
  4  9  1  0  0  0
  4  5  2  0  0  0
  4 38  1  0  0  0
  5  6  1  0  0  0
  5 39  1  0  0  0
  6 15  1  0  0  0
  6  7  2  0  0  0
  7  8  1  0  0  0
  7 40  1  0  0  0
  8  9  2  0  0  0
  8 13  1  0  0  0
  9 10  1  0  0  0
 10 11  1  0  0  0
 10 12  2  0  0  0
 11 41  1  0  0  0
 11 42  1  0  0  0
 13 14  1  0  0  0
 13 43  1  0  0  0
 14 26  1  0  0  0
 14 30  1  0  0  0
 14 44  1  0  0  0
 15 17  1  0  0  0
 15 19  1  0  0  0
 16 18  1  0  0  0
 16 17  2  0  0  0
 16 24  1  0  0  0
 17 25  1  0  0  0
 18 19  2  0  0  0
 18 22  1  0  0  0
 19 20  1  0  0  0
 20 45  1  0  0  0
 20 46  1  0  0  0
 21 22  1  0  0  0
 21 47  1  0  0  0
 21 48  1  0  0  0
 22 23  2  0  0  0
 24 49  1  0  0  0
 24 50  1  0  0  0
 24 51  1  0  0  0
 25 29  1  0  0  0
 25 52  1  0  0  0
 25 53  1  0  0  0
 26 27  1  0  0  0
 26 54  1  0  0  0
 26 55  1  0  0  0
 27 28  1  0  0  0
 27 31  1  0  0  0
 28 29  1  0  0  0
 28 56  1  0  0  0
 28 57  1  0  0  0
 29 58  1  0  0  0
 29 59  1  0  0  0
 30 60  1  0  0  0
 30 61  1  0  0  0
 30 62  1  0  0  0
 31 63  1  0  0  0
 31 64  1  0  0  0
 31 65  1  0  0  0
M  END
> <s_m_entry_id>
4746

> <s_m_entry_name>
dock_pv.65

> <s_m_Source_Path>
/home/csk/Desktop/cluster/DUD-E-result/hs90a

> <s_m_Source_File>
dock_pv.maegz

> <i_m_Source_File_Index>
65

> <chembl_id>
CHEMBL1760613

> <chembl_pref_name>
None

> <i_lp_mmshare_version>
53161

> <r_lp_tautomer_probability>
0.99995

> <s_lp_Force_Field>
OPLS_2005

> <r_lp_Energy>
40.631218

> <b_lp_Chiralities_Consistent>
1

> <s_lp_Variant>
CHEMBL3880_lig193-1

> <s_i_glide_gridfile>
glide-grid_1uyg

> <i_i_glide_lignum>
227

> <i_i_glide_rotatable_bonds>
1

> <r_i_docking_score>
-9.15748973991843

> <r_i_glide_ligand_efficiency>
-0.295402894836078

> <r_i_glide_ligand_efficiency_sa>
-0.92797293743625

> <r_i_glide_ligand_efficiency_ln>
-2.06529457970814

> <r_i_glide_gscore>
-9.15748973991843

> <r_i_glide_lipo>
-4.33264451683902

> <r_i_glide_hbond>
-0.190117461282898

> <r_i_glide_metal>
0

> <r_i_glide_rewards>
-2.1806510492279

> <r_i_glide_evdw>
-35.6667900085449

> <r_i_glide_ecoul>
-4.19192361831665

> <r_i_glide_erotb>
0

> <r_i_glide_esite>
-0.0419486693938651

> <r_i_glide_emodel>
-41.168783862443

> <r_i_glide_energy>
-39.8587136268616

> <r_i_glide_einternal>
0.122003518044949

> <i_i_glide_confnum>
1

> <i_i_glide_posenum>
3

> <r_i_glide_eff_state_penalty>
0

> <s_user_duplicate_titles>
CHEMBL3880_lig193

> <i_f3d_flags>
0

> <s_m_subgroup_title>
dock_pv

> <s_m_subgroupid>
dock_pv

> <b_m_subgroup_collapsed>
1

$$$$
CHEMBL3880_lig177
                    3D
 Schrodinger Suite 2021-1.
 57 61  0  0  1  0            999 V2000
    1.3802    9.5795   25.1099 C   0  0  0  0  0  0
    1.6969   10.5455   24.2146 N   0  0  0  0  0  0
    0.1305    9.6461   25.5041 N   0  0  0  0  0  0
   -0.3931   10.6604   24.7974 C   0  0  0  0  0  0
    0.5508   11.2419   23.9710 C   0  0  0  0  0  0
    7.7121   13.8707   24.3330 N   0  0  0  0  0  0
    6.3659   13.6078   24.2505 N   0  0  0  0  0  0
    2.5580    8.3608   25.6264 S   0  0  0  0  0  0
    7.8451   14.8304   25.2428 N   0  0  0  0  0  0
    1.7872    7.7379   27.0921 C   0  0  0  0  0  0
   -1.6938   11.2055   24.7599 C   0  0  0  0  0  0
    0.3424   12.2747   23.1152 N   0  0  0  0  0  0
    5.7087   14.3678   25.1133 C   0  0  0  0  0  0
    6.6284   15.1689   25.7771 C   0  0  0  0  0  0
    2.2780    8.1877   28.3244 C   0  0  0  0  0  0
   -1.9382   12.2313   23.9060 N   0  0  0  0  0  0
    0.2388    6.2285   28.2278 C   0  0  0  0  0  0
    1.7301    7.6450   29.4772 C   0  0  0  0  0  0
    0.7552    6.6914   29.4341 C   0  0  0  0  0  0
    0.7619    6.7620   27.0394 C   0  0  0  0  0  0
   -0.9331   12.6838   23.1521 C   0  0  0  0  0  0
    0.4610    6.3003   30.7039 O   0  0  0  0  0  0
    2.0604    7.8942   30.7672 O   0  0  0  0  0  0
    1.0905    7.2394   31.5351 C   0  0  0  0  0  0
    3.0187   10.8228   23.6244 C   0  0  0  0  0  0
   -2.7381   10.7691   25.5663 N   0  0  0  0  0  0
    0.0598    6.1212   25.3821 Br  0  0  0  0  0  0
    9.1725   15.2320   25.6720 C   0  0  0  0  0  0
    9.6397   14.3217   26.8220 C   0  0  0  0  0  0
    4.2075   14.2432   25.3300 C   0  0  0  0  0  0
   11.2634   13.9641   28.5373 O   0  0  0  0  0  0
   11.0257   14.6915   27.3565 C   0  0  0  0  0  0
    3.8376   11.7614   24.5334 C   0  0  0  0  0  0
    3.4533   13.2568   24.4014 C   0  0  0  0  0  0
    6.5351   15.8979   26.5702 H   0  0  0  0  0  0
    3.0649    8.9248   28.3757 H   0  0  0  0  0  0
   -0.5342    5.4758   28.1956 H   0  0  0  0  0  0
   -1.1871   13.4974   22.4899 H   0  0  0  0  0  0
    0.3570    7.9692   31.8818 H   0  0  0  0  0  0
    1.5520    6.7704   32.4053 H   0  0  0  0  0  0
    2.8397   11.2511   22.6374 H   0  0  0  0  0  0
    3.5064    9.8593   23.4727 H   0  0  0  0  0  0
   -2.6216    9.9430   26.1303 H   0  0  0  0  0  0
   -3.6579   11.1735   25.3768 H   0  0  0  0  0  0
    9.1452   16.2796   25.9687 H   0  0  0  0  0  0
    9.8573   15.1672   24.8243 H   0  0  0  0  0  0
    9.6565   13.2823   26.4906 H   0  0  0  0  0  0
    8.9089   14.3718   27.6342 H   0  0  0  0  0  0
    4.0257   13.9567   26.3662 H   0  0  0  0  0  0
    3.7526   15.2277   25.2219 H   0  0  0  0  0  0
   10.6750   14.3159   29.2172 H   0  0  0  0  0  0
   11.0733   15.7598   27.5708 H   0  0  0  0  0  0
   11.7987   14.5073   26.6085 H   0  0  0  0  0  0
    4.8828   11.6156   24.2776 H   0  0  0  0  0  0
    3.7471   11.4449   25.5737 H   0  0  0  0  0  0
    2.3881   13.3660   24.6020 H   0  0  0  0  0  0
    3.5855   13.5696   23.3653 H   0  0  0  0  0  0
  1  2  1  0  0  0
  1  3  2  0  0  0
  1  8  1  0  0  0
  2  5  1  0  0  0
  2 25  1  0  0  0
  3  4  1  0  0  0
  4 11  1  0  0  0
  4  5  2  0  0  0
  5 12  1  0  0  0
  6  7  2  0  0  0
  6  9  1  0  0  0
  7 13  1  0  0  0
  8 10  1  0  0  0
  9 14  1  0  0  0
  9 28  1  0  0  0
 10 15  2  0  0  0
 10 20  1  0  0  0
 11 16  2  0  0  0
 11 26  1  0  0  0
 12 21  2  0  0  0
 13 30  1  0  0  0
 13 14  2  0  0  0
 14 35  1  0  0  0
 15 18  1  0  0  0
 15 36  1  0  0  0
 16 21  1  0  0  0
 17 20  2  0  0  0
 17 19  1  0  0  0
 17 37  1  0  0  0
 18 23  1  0  0  0
 18 19  2  0  0  0
 19 22  1  0  0  0
 20 27  1  0  0  0
 21 38  1  0  0  0
 22 24  1  0  0  0
 23 24  1  0  0  0
 24 39  1  0  0  0
 24 40  1  0  0  0
 25 33  1  0  0  0
 25 41  1  0  0  0
 25 42  1  0  0  0
 26 43  1  0  0  0
 26 44  1  0  0  0
 28 29  1  0  0  0
 28 45  1  0  0  0
 28 46  1  0  0  0
 29 32  1  0  0  0
 29 47  1  0  0  0
 29 48  1  0  0  0
 30 34  1  0  0  0
 30 49  1  0  0  0
 30 50  1  0  0  0
 31 32  1  0  0  0
 31 51  1  0  0  0
 32 52  1  0  0  0
 32 53  1  0  0  0
 33 34  1  0  0  0
 33 54  1  0  0  0
 33 55  1  0  0  0
 34 56  1  0  0  0
 34 57  1  0  0  0
M  END
> <s_m_entry_id>
4747

> <s_m_entry_name>
dock_pv.66

> <s_m_Source_Path>
/home/csk/Desktop/cluster/DUD-E-result/hs90a

> <s_m_Source_File>
dock_pv.maegz

> <i_m_Source_File_Index>
66

> <chembl_id>
CHEMBL1213899

> <chembl_pref_name>
None

> <i_lp_mmshare_version>
53161

> <r_lp_tautomer_probability>
0.999997216410988

> <s_lp_Force_Field>
OPLS_2005

> <r_lp_Energy>
21.626492

> <b_lp_Chiralities_Consistent>
1

> <s_lp_Variant>
CHEMBL3880_lig177-1

> <s_i_glide_gridfile>
glide-grid_1uyg

> <i_i_glide_lignum>
208

> <i_i_glide_rotatable_bonds>
11

> <r_i_docking_score>
-9.15281746173849

> <r_i_glide_ligand_efficiency>
-0.269200513580544

> <r_i_glide_ligand_efficiency_sa>
-0.87210515968037

> <r_i_glide_ligand_efficiency_ln>
-2.02211410513188

> <r_i_glide_gscore>
-9.15281746173849

> <r_i_glide_lipo>
-3.7527898857843

> <r_i_glide_hbond>
-0.467264977801351

> <r_i_glide_metal>
0

> <r_i_glide_rewards>
-1.86310034967344

> <r_i_glide_evdw>
-60.8614692687988

> <r_i_glide_ecoul>
-3.77365207672119

> <r_i_glide_erotb>
0.691267214516495

> <r_i_glide_esite>
-0.151808188047779

> <r_i_glide_emodel>
-96.7318173030786

> <r_i_glide_energy>
-64.63512134552

> <r_i_glide_einternal>
3.46368002891541

> <i_i_glide_confnum>
70

> <i_i_glide_posenum>
299

> <r_i_glide_eff_state_penalty>
0

> <s_user_duplicate_titles>
CHEMBL3880_lig177,685747

> <i_f3d_flags>
0

> <s_m_subgroup_title>
dock_pv

> <s_m_subgroupid>
dock_pv

> <b_m_subgroup_collapsed>
1

$$$$
CHEMBL3880_lig383
                    3D
 Schrodinger Suite 2021-1.
 49 52  0  0  1  0            999 V2000
   -1.5859   11.1688   25.3055 N   0  0  0  0  0  0
   -1.3032   11.8616   24.1760 C   0  0  0  0  0  0
   -0.1010   11.9274   23.5678 N   0  0  0  0  0  0
   -0.5688   10.4546   25.8598 C   0  0  0  0  0  0
    0.7179   10.4305   25.2812 C   0  0  0  0  0  0
    0.8906   11.1692   24.0983 C   0  0  0  0  0  0
    2.2279   11.1399   23.3960 C   0  0  0  0  0  0
    3.3815   10.9507   24.4122 C   0  0  1  0  0  0
    3.0500    9.8050   25.2872 N   0  0  0  0  0  0
    1.8396    9.5720   25.8364 C   0  0  0  0  0  0
    4.7086   10.8148   23.6608 C   0  0  0  0  0  0
    5.7049   11.8283   23.5813 C   0  0  0  0  0  0
    6.9011   11.5008   22.9241 C   0  0  0  0  0  0
    7.1203   10.2459   22.3716 C   0  0  0  0  0  0
    6.1250    9.2828   22.4139 C   0  0  0  0  0  0
    4.9309    9.5700   23.0517 C   0  0  0  0  0  0
   -0.9379    9.7284   27.1493 C   0  0  0  0  0  0
    1.7312    8.6597   26.6505 O   0  0  0  0  0  0
   -2.3390   12.5450   23.5630 N   0  0  0  0  0  0
    5.6223   13.1831   24.2378 C   0  0  0  0  0  0
    6.7993   13.6338   24.7667 N   0  0  0  0  0  0
    6.8116   14.7697   25.5162 C   0  0  0  0  0  0
    5.6610   15.5277   25.7194 C   0  0  0  0  0  0
    4.4722   15.1112   25.1261 C   0  0  0  0  0  0
    4.4503   13.9413   24.3670 C   0  0  0  0  0  0
    7.9879   15.1689   26.1225 O   0  0  0  0  0  0
    9.1651   14.3809   25.9717 C   0  0  0  0  0  0
    8.4530    9.9327   21.7570 C   0  0  0  0  0  0
    2.3684   12.0362   22.7904 H   0  0  0  0  0  0
    2.2118   10.2988   22.7032 H   0  0  0  0  0  0
    3.4389   11.7902   25.1011 H   0  0  0  0  0  0
    3.8013    9.2136   25.6077 H   0  0  0  0  0  0
    7.6977   12.2288   22.8588 H   0  0  0  0  0  0
    6.2792    8.3092   21.9733 H   0  0  0  0  0  0
    4.1771    8.7958   23.0927 H   0  0  0  0  0  0
   -0.2587    9.9971   27.9555 H   0  0  0  0  0  0
   -1.9522    9.9573   27.4798 H   0  0  0  0  0  0
   -0.8552    8.6511   27.0150 H   0  0  0  0  0  0
   -2.1824   12.9803   22.6687 H   0  0  0  0  0  0
   -3.2945   12.3901   23.9179 H   0  0  0  0  0  0
    5.6928   16.4194   26.3266 H   0  0  0  0  0  0
    3.5704   15.6846   25.2574 H   0  0  0  0  0  0
    3.5265   13.6374   23.9035 H   0  0  0  0  0  0
    9.9782   14.8340   26.5383 H   0  0  0  0  0  0
    9.0210   13.3683   26.3501 H   0  0  0  0  0  0
    9.4738   14.3289   24.9271 H   0  0  0  0  0  0
    8.6222    8.8572   21.7050 H   0  0  0  0  0  0
    8.4609   10.3688   20.7600 H   0  0  0  0  0  0
    9.2496   10.3680   22.3669 H   0  0  0  0  0  0
  1  2  2  0  0  0
  1  4  1  0  0  0
  2  3  1  0  0  0
  2 19  1  0  0  0
  3  6  2  0  0  0
  4  5  2  0  0  0
  4 17  1  0  0  0
  5  6  1  0  0  0
  5 10  1  0  0  0
  6  7  1  0  0  0
  7  8  1  0  0  0
  7 29  1  0  0  0
  7 30  1  0  0  0
  8  9  1  0  0  0
  8 11  1  0  0  0
  8 31  1  0  0  0
  9 10  1  0  0  0
  9 32  1  0  0  0
 10 18  2  0  0  0
 11 12  2  0  0  0
 11 16  1  0  0  0
 12 13  1  0  0  0
 12 20  1  0  0  0
 13 14  2  0  0  0
 13 33  1  0  0  0
 14 15  1  0  0  0
 14 28  1  0  0  0
 15 16  2  0  0  0
 15 34  1  0  0  0
 16 35  1  0  0  0
 17 36  1  0  0  0
 17 37  1  0  0  0
 17 38  1  0  0  0
 19 39  1  0  0  0
 19 40  1  0  0  0
 20 21  2  0  0  0
 20 25  1  0  0  0
 21 22  1  0  0  0
 22 23  2  0  0  0
 22 26  1  0  0  0
 23 24  1  0  0  0
 23 41  1  0  0  0
 24 25  2  0  0  0
 24 42  1  0  0  0
 25 43  1  0  0  0
 26 27  1  0  0  0
 27 44  1  0  0  0
 27 45  1  0  0  0
 27 46  1  0  0  0
 28 47  1  0  0  0
 28 48  1  0  0  0
 28 49  1  0  0  0
M  END
> <s_m_entry_id>
4748

> <s_m_entry_name>
dock_pv.67

> <s_m_Source_Path>
/home/csk/Desktop/cluster/DUD-E-result/hs90a

> <s_m_Source_File>
dock_pv.maegz

> <i_m_Source_File_Index>
67

> <chembl_id>
CHEMBL3360306

> <chembl_pref_name>
None

> <i_lp_mmshare_version>
53161

> <r_lp_tautomer_probability>
0.999999987636

> <s_lp_Force_Field>
OPLS_2005

> <r_lp_Energy>
19.471246

> <b_lp_Chiralities_Consistent>
1

> <s_lp_Variant>
CHEMBL3880_lig383-1

> <s_i_glide_gridfile>
glide-grid_1uyg

> <i_i_glide_lignum>
425

> <i_i_glide_rotatable_bonds>
3

> <r_i_docking_score>
-9.14389968083802

> <r_i_glide_ligand_efficiency>
-0.326567845744215

> <r_i_glide_ligand_efficiency_sa>
-0.991652317854613

> <r_i_glide_ligand_efficiency_ln>
-2.11068052289808

> <r_i_glide_gscore>
-9.14389968083802

> <r_i_glide_lipo>
-4.70962967925786

> <r_i_glide_hbond>
-0.16

> <r_i_glide_metal>
0

> <r_i_glide_rewards>
-1.6242414626216

> <r_i_glide_evdw>
-42.9384536743164

> <r_i_glide_ecoul>
-4.77882528305054

> <r_i_glide_erotb>
0.274532322407495

> <r_i_glide_esite>
-0.0608143851926523

> <r_i_glide_emodel>
-69.4945828948857

> <r_i_glide_energy>
-47.7172789573669

> <r_i_glide_einternal>
2.16418957710266

> <i_i_glide_confnum>
2

> <i_i_glide_posenum>
316

> <r_i_glide_eff_state_penalty>
0

> <s_user_duplicate_titles>
CHEMBL3880_lig383

> <i_f3d_flags>
0

> <s_m_subgroup_title>
dock_pv

> <s_m_subgroupid>
dock_pv

> <b_m_subgroup_collapsed>
1

$$$$
CHEMBL3880_lig238
                    3D
 Schrodinger Suite 2021-1.
 71 74  0  0  1  0            999 V2000
    0.4391   12.2631   23.3924 C   0  0  0  0  0  0
    1.7968   12.4868   23.1659 C   0  0  0  0  0  0
   -0.0008   11.3425   24.3660 C   0  0  0  0  0  0
    0.9776   10.6257   25.0960 C   0  0  0  0  0  0
    1.4197    8.3389   26.0648 C   0  0  2  0  0  0
    0.6424    9.5849   25.9822 N   0  0  0  0  0  0
    1.3046    7.4489   24.7697 C   0  0  1  0  0  0
    4.5407    8.7087   24.0497 C   0  0  0  0  0  0
    3.6699    7.5874   23.6501 N   0  0  0  0  0  0
    2.2131    7.8838   23.5710 C   0  0  0  0  0  0
    2.3217   10.9655   24.9451 C   0  0  0  0  0  0
    2.7485   11.8503   23.9617 C   0  0  0  0  0  0
    4.7115    9.7723   22.9393 C   0  0  0  0  0  0
    5.0980   11.1643   23.4396 C   0  0  0  0  0  0
    4.1349   12.0873   23.8213 N   0  0  0  0  0  0
    6.3635   11.7588   23.5469 C   0  0  0  0  0  0
    7.6859   11.0565   23.3210 C   0  0  0  0  0  0
    6.1558   13.0839   23.9878 C   0  0  0  0  0  0
    4.7783   13.2754   24.0824 C   0  0  0  0  0  0
    4.0951   14.5499   24.5578 C   0  0  0  0  0  0
    5.0773   15.3732   25.4338 C   0  0  0  0  0  0
    6.5009   15.4726   24.8165 C   0  0  0  0  0  0
    7.1235   14.1328   24.3669 C   0  0  0  0  0  0
    8.3398   13.9668   24.4040 O   0  0  0  0  0  0
    5.2018   14.7426   26.8053 C   0  0  0  0  0  0
    4.5462   16.7690   25.6138 C   0  0  0  0  0  0
    1.3880    5.9241   25.0135 C   0  0  0  0  0  0
    1.0549    7.6271   27.3827 C   0  0  0  0  0  0
   -1.4865   11.1821   24.6435 C   0  0  0  0  0  0
   -1.9070   10.7742   25.7239 O   0  0  0  0  0  0
   -2.3389   11.5670   23.6945 N   0  0  0  0  0  0
    4.1812    6.4131   23.1858 C   0  0  0  0  0  0
    3.4688    5.5497   22.6662 O   0  0  0  0  0  0
    5.7050    6.1583   23.3077 C   0  0  0  0  0  0
    6.0618    4.8980   22.7666 O   0  0  0  0  0  0
   -0.2661   12.8276   22.7987 H   0  0  0  0  0  0
    2.0928   13.1702   22.3868 H   0  0  0  0  0  0
    2.4691    8.6015   26.1769 H   0  0  0  0  0  0
   -0.3502    9.4772   26.1497 H   0  0  0  0  0  0
    0.2850    7.6024   24.4080 H   0  0  0  0  0  0
    5.5293    8.3765   24.3641 H   0  0  0  0  0  0
    4.1320    9.1344   24.9527 H   0  0  0  0  0  0
    2.0646    8.9415   23.3729 H   0  0  0  0  0  0
    1.8185    7.3979   22.6760 H   0  0  0  0  0  0
    3.0420   10.5598   25.6330 H   0  0  0  0  0  0
    3.8085    9.8394   22.3309 H   0  0  0  0  0  0
    5.4697    9.4088   22.2444 H   0  0  0  0  0  0
    7.6122    9.9802   23.4788 H   0  0  0  0  0  0
    8.0603   11.2247   22.3123 H   0  0  0  0  0  0
    8.4574   11.3984   24.0101 H   0  0  0  0  0  0
    3.1563   14.3582   25.0794 H   0  0  0  0  0  0
    3.8397   15.1141   23.6683 H   0  0  0  0  0  0
    7.1949   15.9400   25.5163 H   0  0  0  0  0  0
    6.4695   16.1378   23.9671 H   0  0  0  0  0  0
    4.2579   14.3398   27.1695 H   0  0  0  0  0  0
    5.9104   13.9690   26.7046 H   0  0  0  0  0  0
    5.6457   15.4027   27.5539 H   0  0  0  0  0  0
    3.5300   16.7689   25.9714 H   0  0  0  0  0  0
    5.1253   17.1689   26.4271 H   0  0  0  0  0  0
    4.6399   17.3968   24.7307 H   0  0  0  0  0  0
    2.3510    5.6336   25.4329 H   0  0  0  0  0  0
    0.6081    5.5783   25.6921 H   0  0  0  0  0  0
    1.2482    5.3693   24.0845 H   0  0  0  0  0  0
    1.7003    6.7695   27.5709 H   0  0  0  0  0  0
    1.1707    8.2957   28.2378 H   0  0  0  0  0  0
    0.0200    7.2809   27.3769 H   0  0  0  0  0  0
   -3.3313   11.6243   23.9432 H   0  0  0  0  0  0
   -2.0436   11.7758   22.7555 H   0  0  0  0  0  0
    6.2576    6.9291   22.7699 H   0  0  0  0  0  0
    6.0094    6.1858   24.3546 H   0  0  0  0  0  0
    5.6435    4.8349   21.9024 H   0  0  0  0  0  0
  1  3  1  0  0  0
  1  2  2  0  0  0
  1 36  1  0  0  0
  2 12  1  0  0  0
  2 37  1  0  0  0
  3 29  1  0  0  0
  3  4  2  0  0  0
  4 11  1  0  0  0
  4  6  1  0  0  0
  5 28  1  0  0  0
  5  7  1  0  0  0
  5  6  1  0  0  0
  5 38  1  0  0  0
  6 39  1  0  0  0
  7 10  1  0  0  0
  7 27  1  0  0  0
  7 40  1  0  0  0
  8 13  1  0  0  0
  8  9  1  0  0  0
  8 41  1  0  0  0
  8 42  1  0  0  0
  9 10  1  0  0  0
  9 32  1  0  0  0
 10 43  1  0  0  0
 10 44  1  0  0  0
 11 12  2  0  0  0
 11 45  1  0  0  0
 12 15  1  0  0  0
 13 14  1  0  0  0
 13 46  1  0  0  0
 13 47  1  0  0  0
 14 16  2  0  0  0
 14 15  1  0  0  0
 15 19  1  0  0  0
 16 17  1  0  0  0
 16 18  1  0  0  0
 17 48  1  0  0  0
 17 49  1  0  0  0
 17 50  1  0  0  0
 18 19  2  0  0  0
 18 23  1  0  0  0
 19 20  1  0  0  0
 20 21  1  0  0  0
 20 51  1  0  0  0
 20 52  1  0  0  0
 21 22  1  0  0  0
 21 25  1  0  0  0
 21 26  1  0  0  0
 22 23  1  0  0  0
 22 53  1  0  0  0
 22 54  1  0  0  0
 23 24  2  0  0  0
 25 55  1  0  0  0
 25 56  1  0  0  0
 25 57  1  0  0  0
 26 58  1  0  0  0
 26 59  1  0  0  0
 26 60  1  0  0  0
 27 61  1  0  0  0
 27 62  1  0  0  0
 27 63  1  0  0  0
 28 64  1  0  0  0
 28 65  1  0  0  0
 28 66  1  0  0  0
 29 30  2  0  0  0
 29 31  1  0  0  0
 31 67  1  0  0  0
 31 68  1  0  0  0
 32 33  2  0  0  0
 32 34  1  0  0  0
 34 35  1  0  0  0
 34 69  1  0  0  0
 34 70  1  0  0  0
 35 71  1  0  0  0
M  END
> <s_m_entry_id>
4749

> <s_m_entry_name>
dock_pv.68

> <s_m_Source_Path>
/home/csk/Desktop/cluster/DUD-E-result/hs90a

> <s_m_Source_File>
dock_pv.maegz

> <i_m_Source_File_Index>
68

> <chembl_id>
CHEMBL1807801

> <chembl_pref_name>
None

> <i_lp_mmshare_version>
53161

> <r_lp_tautomer_probability>
0.99995

> <s_lp_Force_Field>
OPLS_2005

> <r_lp_Energy>
55.494929

> <b_lp_Chiralities_Consistent>
1

> <s_lp_Variant>
CHEMBL3880_lig238-1

> <s_i_glide_gridfile>
glide-grid_1uyg

> <i_i_glide_lignum>
272

> <i_i_glide_rotatable_bonds>
4

> <r_i_docking_score>
-9.12865238741128

> <r_i_glide_ligand_efficiency>
-0.260818639640322

> <r_i_glide_ligand_efficiency_sa>
-0.853155064185589

> <r_i_glide_ligand_efficiency_ln>
-2.00394179856074

> <r_i_glide_gscore>
-9.12865238741128

> <r_i_glide_lipo>
-4.32863599543207

> <r_i_glide_hbond>
-0.192250935202422

> <r_i_glide_metal>
0

> <r_i_glide_rewards>
-1.93146936459743

> <r_i_glide_evdw>
-37.3388137817383

> <r_i_glide_ecoul>
-6.26235151290894

> <r_i_glide_erotb>
0.175604929273547

> <r_i_glide_esite>
-0.0456076054296455

> <r_i_glide_emodel>
-44.5403533452225

> <r_i_glide_energy>
-43.6011652946472

> <r_i_glide_einternal>
5.7306227684021

> <i_i_glide_confnum>
17

> <i_i_glide_posenum>
400

> <r_i_glide_eff_state_penalty>
0

> <s_user_duplicate_titles>
CHEMBL3880_lig238

> <i_f3d_flags>
0

> <s_m_subgroup_title>
dock_pv

> <s_m_subgroupid>
dock_pv

> <b_m_subgroup_collapsed>
1

$$$$
CHEMBL3880_lig756
                    3D
 Schrodinger Suite 2021-1.
 50 53  0  0  1  0            999 V2000
   -3.3744   10.5346   27.5541 C   0  0  0  0  0  0
   -2.0235   10.1032   27.7318 O   0  0  0  0  0  0
   -1.0779   10.3133   26.7417 C   0  0  0  0  0  0
   -1.2947   11.1686   25.6535 C   0  0  0  0  0  0
   -0.2610   11.4077   24.7389 C   0  0  0  0  0  0
   -0.1265   12.2647   23.6031 C   0  0  0  0  0  0
    1.1581   12.0980   23.1326 C   0  0  0  0  0  0
    1.8142   11.1325   23.8634 N   0  0  0  0  0  0
    3.1248   10.6913   23.5934 C   0  0  0  0  0  0
    3.3507    9.3858   23.1674 C   0  0  0  0  0  0
    4.6432    8.9779   22.8521 C   0  0  0  0  0  0
    5.7351    9.8568   22.9678 C   0  0  0  0  0  0
    7.1202    9.3341   22.6507 C   0  0  0  0  0  0
    7.9168    9.9699   21.9691 O   0  0  0  0  0  0
    7.4410    8.1504   23.1700 N   0  0  0  0  0  0
    5.5127   11.1893   23.4024 C   0  0  0  0  0  0
    6.6175   12.0599   23.5679 N   0  0  0  0  0  0
    6.8542   13.1927   24.3668 C   0  0  0  0  0  0
    5.9081   14.1907   24.6281 C   0  0  0  0  0  0
    6.1728   15.1695   25.5787 C   0  0  0  0  0  0
    7.3936   15.1688   26.2430 C   0  0  0  0  0  0
    8.3814   14.2456   25.9207 C   0  0  0  0  0  0
    8.1090   13.2637   24.9729 C   0  0  0  0  0  0
    4.1965   11.5792   23.7065 C   0  0  0  0  0  0
    0.9711   10.7046   24.8856 C   0  0  0  0  0  0
    1.1729    9.7919   25.9294 C   0  0  0  0  0  0
    0.1393    9.6262   26.8704 C   0  0  0  0  0  0
    0.2568    8.7923   27.9703 O   0  0  0  0  0  0
    1.4812    8.1098   28.2170 C   0  0  0  0  0  0
   -4.0171    9.9694   28.2281 H   0  0  0  0  0  0
   -3.5389   11.5689   27.8160 H   0  0  0  0  0  0
   -3.7448   10.3690   26.5419 H   0  0  0  0  0  0
   -2.2349   11.6810   25.5270 H   0  0  0  0  0  0
   -0.8667   12.9393   23.1968 H   0  0  0  0  0  0
    1.6673   12.5702   22.3051 H   0  0  0  0  0  0
    2.5262    8.6945   23.0573 H   0  0  0  0  0  0
    4.7824    7.9610   22.5019 H   0  0  0  0  0  0
    8.3403    7.7466   22.9522 H   0  0  0  0  0  0
    6.7801    7.6390   23.7312 H   0  0  0  0  0  0
    7.4790   11.5825   23.3427 H   0  0  0  0  0  0
    4.9751   14.2511   24.0975 H   0  0  0  0  0  0
    5.4339   15.9246   25.8025 H   0  0  0  0  0  0
    7.5793   15.9053   27.0059 H   0  0  0  0  0  0
    9.3383   14.2683   26.4256 H   0  0  0  0  0  0
    8.8568   12.5138   24.7679 H   0  0  0  0  0  0
    3.9637   12.5639   24.0600 H   0  0  0  0  0  0
    2.1158    9.2760   26.0220 H   0  0  0  0  0  0
    1.3858    7.5339   29.1364 H   0  0  0  0  0  0
    1.7229    7.4156   27.4111 H   0  0  0  0  0  0
    2.3089    8.8081   28.3514 H   0  0  0  0  0  0
  1  2  1  0  0  0
  1 30  1  0  0  0
  1 31  1  0  0  0
  1 32  1  0  0  0
  2  3  1  0  0  0
  3  4  2  0  0  0
  3 27  1  0  0  0
  4  5  1  0  0  0
  4 33  1  0  0  0
  5  6  1  0  0  0
  5 25  2  0  0  0
  6  7  2  0  0  0
  6 34  1  0  0  0
  7  8  1  0  0  0
  7 35  1  0  0  0
  8  9  1  0  0  0
  8 25  1  0  0  0
  9 10  2  0  0  0
  9 24  1  0  0  0
 10 11  1  0  0  0
 10 36  1  0  0  0
 11 12  2  0  0  0
 11 37  1  0  0  0
 12 13  1  0  0  0
 12 16  1  0  0  0
 13 14  2  0  0  0
 13 15  1  0  0  0
 15 38  1  0  0  0
 15 39  1  0  0  0
 16 17  1  0  0  0
 16 24  2  0  0  0
 17 18  1  0  0  0
 17 40  1  0  0  0
 18 19  2  0  0  0
 18 23  1  0  0  0
 19 20  1  0  0  0
 19 41  1  0  0  0
 20 21  2  0  0  0
 20 42  1  0  0  0
 21 22  1  0  0  0
 21 43  1  0  0  0
 22 23  2  0  0  0
 22 44  1  0  0  0
 23 45  1  0  0  0
 24 46  1  0  0  0
 25 26  1  0  0  0
 26 27  2  0  0  0
 26 47  1  0  0  0
 27 28  1  0  0  0
 28 29  1  0  0  0
 29 48  1  0  0  0
 29 49  1  0  0  0
 29 50  1  0  0  0
M  END
> <s_m_entry_id>
4750

> <s_m_entry_name>
dock_pv.69

> <s_m_Source_Path>
/home/csk/Desktop/cluster/DUD-E-result/hs90a

> <s_m_Source_File>
dock_pv.maegz

> <i_m_Source_File_Index>
69

> <chembl_id>
CHEMBL3931779

> <chembl_pref_name>
None

> <i_lp_mmshare_version>
53161

> <r_lp_tautomer_probability>
1

> <s_lp_Force_Field>
OPLS_2005

> <r_lp_Energy>
34.320195

> <b_lp_Chiralities_Consistent>
1

> <s_lp_Variant>
CHEMBL3880_lig756-1

> <s_i_glide_gridfile>
glide-grid_1uyg

> <i_i_glide_lignum>
857

> <i_i_glide_rotatable_bonds>
6

> <r_i_docking_score>
-9.12086788470593

> <r_i_glide_ligand_efficiency>
-0.314512685679515

> <r_i_glide_ligand_efficiency_sa>
-0.966282615020231

> <r_i_glide_ligand_efficiency_ln>
-2.08844746034394

> <r_i_glide_gscore>
-9.12086788470593

> <r_i_glide_lipo>
-4.86031880495078

> <r_i_glide_hbond>
0

> <r_i_glide_metal>
0

> <r_i_glide_rewards>
-1.78497194352662

> <r_i_glide_evdw>
-48.8896598815918

> <r_i_glide_ecoul>
-2.72173619270325

> <r_i_glide_erotb>
0.389206015099695

> <r_i_glide_esite>
-0.012039728343153

> <r_i_glide_emodel>
-71.3107269561118

> <r_i_glide_energy>
-51.611396074295

> <r_i_glide_einternal>
12.1577634811401

> <i_i_glide_confnum>
2

> <i_i_glide_posenum>
19

> <r_i_glide_eff_state_penalty>
0

> <s_user_duplicate_titles>
CHEMBL3880_lig756

> <i_f3d_flags>
0

> <s_m_subgroup_title>
dock_pv

> <s_m_subgroupid>
dock_pv

> <b_m_subgroup_collapsed>
1

$$$$
CHEMBL3880_lig945
                    3D
 Schrodinger Suite 2021-1.
 64 68  0  0  1  0            999 V2000
    5.2391    7.1360   22.6861 C   0  0  0  0  0  0
    5.5444    8.6503   22.5652 C   0  0  0  0  0  0
    5.4845    9.1993   21.1161 C   0  0  0  0  0  0
    0.8246   10.3877   25.2467 C   0  0  0  0  0  0
    2.1950   10.6105   25.0760 C   0  0  0  0  0  0
    2.6715   11.6785   24.3047 C   0  0  0  0  0  0
    1.7678   12.5645   23.7353 C   0  0  0  0  0  0
    0.4067   12.3646   23.8949 C   0  0  0  0  0  0
   -0.0866   11.2862   24.6494 C   0  0  0  0  0  0
   -1.5699   11.1665   24.8716 C   0  0  0  0  0  0
   -2.0363   10.9178   25.9800 O   0  0  0  0  0  0
   -2.3389   11.3960   23.8142 N   0  0  0  0  0  0
    4.0545   11.8273   24.0729 N   0  0  0  0  0  0
    4.9039   10.7974   23.7304 C   0  0  0  0  0  0
    6.2057   11.2750   23.6604 C   0  0  0  0  0  0
    7.3383   10.3856   23.3936 C   0  0  0  0  0  0
    6.9648    8.9051   23.1572 C   0  0  0  0  0  0
    4.4681    9.3695   23.4189 C   0  0  0  0  0  0
    8.5010   10.7694   23.3479 O   0  0  0  0  0  0
    6.1640   12.6520   23.9670 C   0  0  0  0  0  0
    4.8256   12.9713   24.1852 C   0  0  0  0  0  0
    4.3343   14.3698   24.5272 C   0  0  0  0  0  0
    5.3423   15.1435   25.2620 N   0  0  2  0  0  0
    6.7265   15.0436   24.7772 C   0  0  0  0  0  0
    7.2605   13.6762   24.2341 C   0  0  0  0  0  0
    5.2158   15.0042   26.7037 C   0  0  0  0  0  0
   -0.4264   13.2346   23.2859 F   0  0  0  0  0  0
    0.3597    9.2831   25.9936 N   0  0  0  0  0  0
    1.1928    8.1922   26.5016 C   0  0  1  0  0  0
    1.8638    8.5369   27.8169 C   0  0  0  0  0  0
    0.7710    8.2357   28.8377 C   0  0  0  0  0  0
    0.1269    7.0790   28.3106 O   0  0  0  0  0  0
    0.3546    6.9641   26.9018 C   0  0  0  0  0  0
    6.0667    6.5106   22.3677 H   0  0  0  0  0  0
    5.0377    6.8349   23.7154 H   0  0  0  0  0  0
    4.3667    6.8580   22.0932 H   0  0  0  0  0  0
    6.2726    8.7753   20.4978 H   0  0  0  0  0  0
    4.5316    8.9586   20.6423 H   0  0  0  0  0  0
    5.6016   10.2844   21.0806 H   0  0  0  0  0  0
    2.9008    9.9529   25.5571 H   0  0  0  0  0  0
    2.1072   13.4135   23.1668 H   0  0  0  0  0  0
   -3.3407   11.5416   23.9672 H   0  0  0  0  0  0
   -1.9394   11.5889   22.9098 H   0  0  0  0  0  0
    7.0283    8.4292   24.1327 H   0  0  0  0  0  0
    7.7409    8.4450   22.5453 H   0  0  0  0  0  0
    4.3884    8.8639   24.3812 H   0  0  0  0  0  0
    3.4871    9.3148   22.9422 H   0  0  0  0  0  0
    4.2350   14.8675   23.5677 H   0  0  0  0  0  0
    3.3511   14.4077   24.9968 H   0  0  0  0  0  0
    6.7444   15.7508   23.9620 H   0  0  0  0  0  0
    7.4391   15.5198   25.4527 H   0  0  0  0  0  0
    7.8701   13.2388   25.0250 H   0  0  0  0  0  0
    7.9563   13.8262   23.4086 H   0  0  0  0  0  0
    5.9908   15.5626   27.2310 H   0  0  0  0  0  0
    4.2496   15.3931   27.0313 H   0  0  0  0  0  0
    5.2598   13.9690   27.0052 H   0  0  0  0  0  0
   -0.6355    9.2390   26.1715 H   0  0  0  0  0  0
    1.9390    7.8906   25.7632 H   0  0  0  0  0  0
    2.2008    9.5703   27.8774 H   0  0  0  0  0  0
    2.7339    7.9015   27.9845 H   0  0  0  0  0  0
    0.0539    9.0543   28.9006 H   0  0  0  0  0  0
    1.1690    8.0583   29.8365 H   0  0  0  0  0  0
    0.9256    6.0594   26.6941 H   0  0  0  0  0  0
   -0.5939    6.9371   26.3635 H   0  0  0  0  0  0
  1  2  1  0  0  0
  1 34  1  0  0  0
  1 35  1  0  0  0
  1 36  1  0  0  0
  2  3  1  0  0  0
  2 17  1  0  0  0
  2 18  1  0  0  0
  3 37  1  0  0  0
  3 38  1  0  0  0
  3 39  1  0  0  0
  4  5  2  0  0  0
  4  9  1  0  0  0
  4 28  1  0  0  0
  5  6  1  0  0  0
  5 40  1  0  0  0
  6  7  2  0  0  0
  6 13  1  0  0  0
  7  8  1  0  0  0
  7 41  1  0  0  0
  8  9  2  0  0  0
  8 27  1  0  0  0
  9 10  1  0  0  0
 10 11  2  0  0  0
 10 12  1  0  0  0
 12 42  1  0  0  0
 12 43  1  0  0  0
 13 21  1  0  0  0
 13 14  1  0  0  0
 14 15  2  0  0  0
 14 18  1  0  0  0
 15 20  1  0  0  0
 15 16  1  0  0  0
 16 17  1  0  0  0
 16 19  2  0  0  0
 17 44  1  0  0  0
 17 45  1  0  0  0
 18 46  1  0  0  0
 18 47  1  0  0  0
 20 21  2  0  0  0
 20 25  1  0  0  0
 21 22  1  0  0  0
 22 23  1  0  0  0
 22 48  1  0  0  0
 22 49  1  0  0  0
 23 24  1  0  0  0
 23 26  1  0  0  0
 24 25  1  0  0  0
 24 50  1  0  0  0
 24 51  1  0  0  0
 25 52  1  0  0  0
 25 53  1  0  0  0
 26 54  1  0  0  0
 26 55  1  0  0  0
 26 56  1  0  0  0
 28 29  1  0  0  0
 28 57  1  0  0  0
 29 30  1  0  0  0
 29 33  1  0  0  0
 29 58  1  0  0  0
 30 31  1  0  0  0
 30 59  1  0  0  0
 30 60  1  0  0  0
 31 32  1  0  0  0
 31 61  1  0  0  0
 31 62  1  0  0  0
 32 33  1  0  0  0
 33 63  1  0  0  0
 33 64  1  0  0  0
M  END
> <s_m_entry_id>
4751

> <s_m_entry_name>
dock_pv.70

> <s_m_Source_Path>
/home/csk/Desktop/cluster/DUD-E-result/hs90a

> <s_m_Source_File>
dock_pv.maegz

> <i_m_Source_File_Index>
70

> <chembl_id>
CHEMBL3235333

> <chembl_pref_name>
None

> <i_lp_mmshare_version>
53161

> <r_lp_tautomer_probability>
0.99995

> <s_lp_Force_Field>
OPLS_2005

> <r_lp_Energy>
58.023465

> <b_lp_Chiralities_Consistent>
1

> <s_lp_Variant>
CHEMBL3880_lig945-1

> <s_i_glide_gridfile>
glide-grid_1uyg

> <i_i_glide_lignum>
1054

> <i_i_glide_rotatable_bonds>
4

> <r_i_docking_score>
-9.10158220009674

> <r_i_glide_ligand_efficiency>
-0.275805521215053

> <r_i_glide_ligand_efficiency_sa>
-0.884655676668605

> <r_i_glide_ligand_efficiency_ln>
-2.02414475583098

> <r_i_glide_gscore>
-9.10158220009674

> <r_i_glide_lipo>
-4.40672779630146

> <r_i_glide_hbond>
-0.16

> <r_i_glide_metal>
0

> <r_i_glide_rewards>
-1.9445848343937

> <r_i_glide_evdw>
-47.1227226257324

> <r_i_glide_ecoul>
-3.22210931777954

> <r_i_glide_erotb>
0.291599983120614

> <r_i_glide_esite>
-0.0424170235686401

> <r_i_glide_emodel>
-60.4946739806349

> <r_i_glide_energy>
-50.344831943512

> <r_i_glide_einternal>
0.335610687732697

> <i_i_glide_confnum>
42

> <i_i_glide_posenum>
51

> <r_i_glide_eff_state_penalty>
0

> <s_user_duplicate_titles>
CHEMBL3880_lig945

> <i_f3d_flags>
0

> <s_m_subgroup_title>
dock_pv

> <s_m_subgroupid>
dock_pv

> <b_m_subgroup_collapsed>
1

$$$$
CHEMBL3880_lig202
                    3D
 Schrodinger Suite 2021-1.
 66 70  0  0  1  0            999 V2000
    1.1098    6.9321   25.1738 C   0  0  2  0  0  0
    2.6213    7.1651   25.0668 C   0  0  0  0  0  0
    2.9142    7.1790   23.6397 N   0  0  2  0  0  0
    2.1688    6.0203   23.1685 C   0  0  0  0  0  0
    0.8613    6.0152   23.9670 C   0  0  0  0  0  0
    0.5098   12.2489   23.5047 C   0  0  0  0  0  0
    1.8672   12.4386   23.2562 C   0  0  0  0  0  0
    2.8168   11.6644   23.9180 C   0  0  0  0  0  0
    2.3899   10.6766   24.8056 C   0  0  0  0  0  0
    1.0314   10.4334   25.0265 C   0  0  0  0  0  0
    0.0634   11.2588   24.3986 C   0  0  0  0  0  0
   -1.4156   11.1720   24.7263 C   0  0  0  0  0  0
   -1.8145   10.9121   25.8588 O   0  0  0  0  0  0
   -2.2719   11.4656   23.7459 N   0  0  0  0  0  0
    5.1287   10.9393   23.2923 C   0  0  0  0  0  0
    4.2049   11.8728   23.7391 N   0  0  0  0  0  0
    6.4146   11.4548   23.4769 C   0  0  0  0  0  0
    6.2554   12.7662   23.9670 C   0  0  0  0  0  0
    4.8911   13.0387   24.0109 C   0  0  0  0  0  0
    4.2609   14.3454   24.4819 C   0  0  0  0  0  0
    5.2749   15.2040   25.2995 C   0  0  0  0  0  0
    6.7413   15.1241   24.7670 C   0  0  0  0  0  0
    7.2611   13.7067   24.4756 C   0  0  0  0  0  0
    4.8609   16.6483   25.2841 C   0  0  0  0  0  0
    5.2442   14.7691   26.7489 C   0  0  0  0  0  0
    8.4122   13.3847   24.7670 O   0  0  0  0  0  0
    7.7078   10.7516   23.1250 C   0  0  0  0  0  0
    4.6981    9.5894   22.7259 C   0  0  0  0  0  0
    5.0750    8.4132   23.6463 C   0  0  0  0  0  0
    4.3388    7.1015   23.3105 C   0  0  0  0  0  0
    0.1775    8.1791   25.1939 C   0  0  0  0  0  0
    0.7011    9.3624   25.8774 N   0  0  0  0  0  0
    0.9354    6.4000   26.1100 H   0  0  0  0  0  0
    3.1891    6.3762   25.5659 H   0  0  0  0  0  0
    2.9661    8.0527   25.5862 H   0  0  0  0  0  0
    1.9972    6.1150   22.0945 H   0  0  0  0  0  0
    2.7241    5.0885   23.2910 H   0  0  0  0  0  0
    0.5961    5.0067   24.2822 H   0  0  0  0  0  0
    0.0610    6.3805   23.3289 H   0  0  0  0  0  0
   -0.1911   12.9076   23.0110 H   0  0  0  0  0  0
    2.1743   13.2033   22.5667 H   0  0  0  0  0  0
    3.1317   10.0970   25.3303 H   0  0  0  0  0  0
   -3.2658   11.5681   23.9677 H   0  0  0  0  0  0
   -1.9623   11.5715   22.7944 H   0  0  0  0  0  0
    3.3213   14.2002   25.0177 H   0  0  0  0  0  0
    4.0048   14.8685   23.5671 H   0  0  0  0  0  0
    7.4318   15.5903   25.4708 H   0  0  0  0  0  0
    6.8595   15.6798   23.8473 H   0  0  0  0  0  0
    5.3805   17.1690   26.0697 H   0  0  0  0  0  0
    5.0418   17.1688   24.3522 H   0  0  0  0  0  0
    3.8148   16.7458   25.5670 H   0  0  0  0  0  0
    5.6627   15.5036   27.4387 H   0  0  0  0  0  0
    4.2666   14.4477   27.1118 H   0  0  0  0  0  0
    5.9194   13.9690   26.7670 H   0  0  0  0  0  0
    8.4606   11.4520   22.7671 H   0  0  0  0  0  0
    8.1358   10.2279   23.9791 H   0  0  0  0  0  0
    7.5776   10.0278   22.3202 H   0  0  0  0  0  0
    5.1613    9.4303   21.7515 H   0  0  0  0  0  0
    3.6272    9.5656   22.5181 H   0  0  0  0  0  0
    4.8609    8.6830   24.6790 H   0  0  0  0  0  0
    6.1511    8.2449   23.5954 H   0  0  0  0  0  0
    4.4137    6.9351   22.2340 H   0  0  0  0  0  0
    4.8185    6.2482   23.7930 H   0  0  0  0  0  0
   -0.7258    7.8913   25.7335 H   0  0  0  0  0  0
   -0.1645    8.4319   24.1888 H   0  0  0  0  0  0
    1.3957    9.1360   26.5737 H   0  0  0  0  0  0
  1  5  1  0  0  0
  1  2  1  0  0  0
  1 31  1  0  0  0
  1 33  1  0  0  0
  2  3  1  0  0  0
  2 34  1  0  0  0
  2 35  1  0  0  0
  3 30  1  0  0  0
  3  4  1  0  0  0
  4  5  1  0  0  0
  4 36  1  0  0  0
  4 37  1  0  0  0
  5 38  1  0  0  0
  5 39  1  0  0  0
  6 11  1  0  0  0
  6  7  2  0  0  0
  6 40  1  0  0  0
  7  8  1  0  0  0
  7 41  1  0  0  0
  8  9  2  0  0  0
  8 16  1  0  0  0
  9 10  1  0  0  0
  9 42  1  0  0  0
 10 11  2  0  0  0
 10 32  1  0  0  0
 11 12  1  0  0  0
 12 13  2  0  0  0
 12 14  1  0  0  0
 14 43  1  0  0  0
 14 44  1  0  0  0
 15 17  2  0  0  0
 15 28  1  0  0  0
 15 16  1  0  0  0
 16 19  1  0  0  0
 17 18  1  0  0  0
 17 27  1  0  0  0
 18 19  2  0  0  0
 18 23  1  0  0  0
 19 20  1  0  0  0
 20 21  1  0  0  0
 20 45  1  0  0  0
 20 46  1  0  0  0
 21 22  1  0  0  0
 21 24  1  0  0  0
 21 25  1  0  0  0
 22 23  1  0  0  0
 22 47  1  0  0  0
 22 48  1  0  0  0
 23 26  2  0  0  0
 24 49  1  0  0  0
 24 50  1  0  0  0
 24 51  1  0  0  0
 25 52  1  0  0  0
 25 53  1  0  0  0
 25 54  1  0  0  0
 27 55  1  0  0  0
 27 56  1  0  0  0
 27 57  1  0  0  0
 28 29  1  0  0  0
 28 58  1  0  0  0
 28 59  1  0  0  0
 29 30  1  0  0  0
 29 60  1  0  0  0
 29 61  1  0  0  0
 30 62  1  0  0  0
 30 63  1  0  0  0
 31 32  1  0  0  0
 31 64  1  0  0  0
 31 65  1  0  0  0
 32 66  1  0  0  0
M  END
> <s_m_entry_id>
4752

> <s_m_entry_name>
dock_pv.71

> <s_m_Source_Path>
/home/csk/Desktop/cluster/DUD-E-result/hs90a

> <s_m_Source_File>
dock_pv.maegz

> <i_m_Source_File_Index>
71

> <chembl_id>
CHEMBL1779536

> <chembl_pref_name>
None

> <i_lp_mmshare_version>
53161

> <r_lp_tautomer_probability>
0.99995

> <s_lp_Force_Field>
OPLS_2005

> <r_lp_Energy>
58.535538

> <b_lp_Chiralities_Consistent>
1

> <s_lp_Variant>
CHEMBL3880_lig202-1

> <s_i_glide_gridfile>
glide-grid_1uyg

> <i_i_glide_lignum>
236

> <i_i_glide_rotatable_bonds>
1

> <r_i_docking_score>
-9.10155342555853

> <r_i_glide_ligand_efficiency>
-0.284423544548704

> <r_i_glide_ligand_efficiency_sa>
-0.9029884665991

> <r_i_glide_ligand_efficiency_ln>
-2.03808591095869

> <r_i_glide_gscore>
-9.10155342555853

> <r_i_glide_lipo>
-4.34029972802895

> <r_i_glide_hbond>
-0.166623995601032

> <r_i_glide_metal>
0

> <r_i_glide_rewards>
-2.18727679786688

> <r_i_glide_evdw>
-35.3444366455078

> <r_i_glide_ecoul>
-4.05963468551636

> <r_i_glide_erotb>
0

> <r_i_glide_esite>
-0.0311858689588218

> <r_i_glide_emodel>
-49.335000270891

> <r_i_glide_energy>
-39.4040713310242

> <r_i_glide_einternal>
0.317228078842163

> <i_i_glide_confnum>
1

> <i_i_glide_posenum>
71

> <r_i_glide_eff_state_penalty>
0

> <s_user_duplicate_titles>
CHEMBL3880_lig202

> <i_f3d_flags>
0

> <s_m_subgroup_title>
dock_pv

> <s_m_subgroupid>
dock_pv

> <b_m_subgroup_collapsed>
1

$$$$
CHEMBL3880_lig234
                    3D
 Schrodinger Suite 2021-1.
 70 73  0  0  1  0            999 V2000
    0.4576   12.2650   23.3348 C   0  0  0  0  0  0
    1.8214   12.4561   23.1188 C   0  0  0  0  0  0
   -0.0074   11.3205   24.2705 C   0  0  0  0  0  0
    0.9438   10.5508   24.9858 C   0  0  0  0  0  0
    1.3397    8.2707   26.0318 C   0  0  2  0  0  0
    0.5733    9.5128   25.8623 N   0  0  0  0  0  0
    1.2304    7.3130   24.7874 C   0  0  1  0  0  0
    4.4713    8.5173   23.9793 C   0  0  0  0  0  0
    3.5824    7.4001   23.6133 N   0  0  0  0  0  0
    2.1256    7.7019   23.5631 C   0  0  0  0  0  0
    2.2953   10.8431   24.8348 C   0  0  0  0  0  0
    2.7464   11.7432   23.8792 C   0  0  0  0  0  0
    4.6241    9.5832   22.8662 C   0  0  0  0  0  0
    5.0638   10.9616   23.3694 C   0  0  0  0  0  0
    4.1369   11.9233   23.7455 N   0  0  0  0  0  0
    6.3471   11.5125   23.4872 C   0  0  0  0  0  0
    7.6469   10.7761   23.2325 C   0  0  0  0  0  0
    6.1801   12.8334   23.9664 C   0  0  0  0  0  0
    4.8141   13.0850   24.0264 C   0  0  0  0  0  0
    4.1565   14.3735   24.4917 C   0  0  0  0  0  0
    5.1438   15.2257   25.3356 C   0  0  0  0  0  0
    6.6106   15.2046   24.8059 C   0  0  0  0  0  0
    7.1735   13.8324   24.3789 C   0  0  0  0  0  0
    8.3687   13.5882   24.5122 O   0  0  0  0  0  0
    5.1375   14.7704   26.7668 C   0  0  0  0  0  0
    4.6844   16.6479   25.3786 C   0  0  0  0  0  0
    1.3288    5.8041   25.1143 C   0  0  0  0  0  0
    0.9454    7.6405   27.3814 C   0  0  0  0  0  0
   -1.4922   11.1949   24.5363 C   0  0  0  0  0  0
   -1.9062   10.7760   25.6143 O   0  0  0  0  0  0
   -2.3349   11.5934   23.5851 N   0  0  0  0  0  0
    4.0720    6.2067   23.1801 C   0  0  0  0  0  0
    3.3536    5.2928   22.7754 O   0  0  0  0  0  0
    5.5820    5.9515   23.1859 C   0  0  0  0  0  0
   -0.2302   12.8766   22.7663 H   0  0  0  0  0  0
    2.1452   13.1781   22.3816 H   0  0  0  0  0  0
    2.3885    8.5225   26.1478 H   0  0  0  0  0  0
   -0.4212    9.4370   26.0324 H   0  0  0  0  0  0
    0.2086    7.4382   24.4208 H   0  0  0  0  0  0
    5.4660    8.1763   24.2706 H   0  0  0  0  0  0
    4.0929    8.9391   24.8998 H   0  0  0  0  0  0
    1.9820    8.7544   23.3316 H   0  0  0  0  0  0
    1.7159    7.1924   22.6871 H   0  0  0  0  0  0
    3.0054   10.3936   25.5057 H   0  0  0  0  0  0
    3.7032    9.6678   22.2877 H   0  0  0  0  0  0
    5.3509    9.2095   22.1436 H   0  0  0  0  0  0
    7.5354    9.6931   23.2915 H   0  0  0  0  0  0
    8.0591   11.0232   22.2551 H   0  0  0  0  0  0
    8.4130   11.0344   23.9636 H   0  0  0  0  0  0
    3.2146   14.2161   25.0182 H   0  0  0  0  0  0
    3.9084   14.8983   23.5725 H   0  0  0  0  0  0
    7.2890   15.6125   25.5550 H   0  0  0  0  0  0
    6.6993   15.8765   23.9667 H   0  0  0  0  0  0
    4.1655   14.4579   27.1528 H   0  0  0  0  0  0
    5.8052   13.9690   26.7667 H   0  0  0  0  0  0
    5.5948   15.4892   27.4503 H   0  0  0  0  0  0
    3.6633   16.7327   25.7487 H   0  0  0  0  0  0
    5.2689   17.1697   26.1166 H   0  0  0  0  0  0
    4.8146   17.1639   24.4260 H   0  0  0  0  0  0
    2.3011    5.5467   25.5328 H   0  0  0  0  0  0
    0.5599    5.4861   25.8210 H   0  0  0  0  0  0
    1.1753    5.2031   24.2195 H   0  0  0  0  0  0
    1.5862    6.7968   27.6368 H   0  0  0  0  0  0
    1.0457    8.3623   28.1954 H   0  0  0  0  0  0
   -0.0901    7.2959   27.3788 H   0  0  0  0  0  0
   -3.3289   11.6508   23.8135 H   0  0  0  0  0  0
   -2.0259   11.7858   22.6491 H   0  0  0  0  0  0
    5.9459    5.8344   24.2073 H   0  0  0  0  0  0
    5.8158    5.0416   22.6315 H   0  0  0  0  0  0
    6.1214    6.7664   22.7033 H   0  0  0  0  0  0
  1  3  1  0  0  0
  1  2  2  0  0  0
  1 35  1  0  0  0
  2 12  1  0  0  0
  2 36  1  0  0  0
  3 29  1  0  0  0
  3  4  2  0  0  0
  4 11  1  0  0  0
  4  6  1  0  0  0
  5 28  1  0  0  0
  5  7  1  0  0  0
  5  6  1  0  0  0
  5 37  1  0  0  0
  6 38  1  0  0  0
  7 10  1  0  0  0
  7 27  1  0  0  0
  7 39  1  0  0  0
  8 13  1  0  0  0
  8  9  1  0  0  0
  8 40  1  0  0  0
  8 41  1  0  0  0
  9 10  1  0  0  0
  9 32  1  0  0  0
 10 42  1  0  0  0
 10 43  1  0  0  0
 11 12  2  0  0  0
 11 44  1  0  0  0
 12 15  1  0  0  0
 13 14  1  0  0  0
 13 45  1  0  0  0
 13 46  1  0  0  0
 14 16  2  0  0  0
 14 15  1  0  0  0
 15 19  1  0  0  0
 16 18  1  0  0  0
 16 17  1  0  0  0
 17 47  1  0  0  0
 17 48  1  0  0  0
 17 49  1  0  0  0
 18 19  2  0  0  0
 18 23  1  0  0  0
 19 20  1  0  0  0
 20 21  1  0  0  0
 20 50  1  0  0  0
 20 51  1  0  0  0
 21 22  1  0  0  0
 21 25  1  0  0  0
 21 26  1  0  0  0
 22 23  1  0  0  0
 22 52  1  0  0  0
 22 53  1  0  0  0
 23 24  2  0  0  0
 25 54  1  0  0  0
 25 55  1  0  0  0
 25 56  1  0  0  0
 26 57  1  0  0  0
 26 58  1  0  0  0
 26 59  1  0  0  0
 27 60  1  0  0  0
 27 61  1  0  0  0
 27 62  1  0  0  0
 28 63  1  0  0  0
 28 64  1  0  0  0
 28 65  1  0  0  0
 29 30  2  0  0  0
 29 31  1  0  0  0
 31 66  1  0  0  0
 31 67  1  0  0  0
 32 33  2  0  0  0
 32 34  1  0  0  0
 34 68  1  0  0  0
 34 69  1  0  0  0
 34 70  1  0  0  0
M  END
> <s_m_entry_id>
4753

> <s_m_entry_name>
dock_pv.72

> <s_m_Source_Path>
/home/csk/Desktop/cluster/DUD-E-result/hs90a

> <s_m_Source_File>
dock_pv.maegz

> <i_m_Source_File_Index>
72

> <chembl_id>
CHEMBL1807797

> <chembl_pref_name>
None

> <i_lp_mmshare_version>
53161

> <r_lp_tautomer_probability>
0.99995

> <s_lp_Force_Field>
OPLS_2005

> <r_lp_Energy>
51.484903

> <b_lp_Chiralities_Consistent>
1

> <s_lp_Variant>
CHEMBL3880_lig234-1

> <s_i_glide_gridfile>
glide-grid_1uyg

> <i_i_glide_lignum>
268

> <i_i_glide_rotatable_bonds>
2

> <r_i_docking_score>
-9.10035707806607

> <r_i_glide_ligand_efficiency>
-0.26765756111959

> <r_i_glide_ligand_efficiency_sa>
-0.867106592684931

> <r_i_glide_ligand_efficiency_ln>
-2.01052413491473

> <r_i_glide_gscore>
-9.10035707806607

> <r_i_glide_lipo>
-4.469504270766

> <r_i_glide_hbond>
-0.176827289206782

> <r_i_glide_metal>
0

> <r_i_glide_rewards>
-2.00374942233465

> <r_i_glide_evdw>
-38.10302734375

> <r_i_glide_ecoul>
-3.36118721961975

> <r_i_glide_erotb>
0

> <r_i_glide_esite>
-0.0409466456281784

> <r_i_glide_emodel>
-43.8179231264407

> <r_i_glide_energy>
-41.4642145633698

> <r_i_glide_einternal>
1.77957653999329

> <i_i_glide_confnum>
6

> <i_i_glide_posenum>
323

> <r_i_glide_eff_state_penalty>
0

> <s_user_duplicate_titles>
CHEMBL3880_lig234

> <i_f3d_flags>
0

> <s_m_subgroup_title>
dock_pv

> <s_m_subgroupid>
dock_pv

> <b_m_subgroup_collapsed>
1

$$$$
CHEMBL3880_lig317
                    3D
 Schrodinger Suite 2021-1.
 49 53  0  0  1  0            999 V2000
    6.5739   10.4730   22.4535 C   0  0  0  0  0  0
    6.0262    9.2661   22.0346 C   0  0  0  0  0  0
    4.9255    8.7082   22.6856 C   0  0  0  0  0  0
    4.3356    9.3770   23.7760 C   0  0  0  0  0  0
    4.9115   10.5909   24.1758 C   0  0  0  0  0  0
    5.9966   11.1699   23.5195 C   0  0  0  0  0  0
    7.6610   10.9465   21.7811 O   0  0  0  0  0  0
    4.4610    7.5129   22.2056 O   0  0  0  0  0  0
    3.1738    8.7980   24.5780 C   0  0  0  0  0  0
    3.0914    7.5771   24.7230 O   0  0  0  0  0  0
    6.4382   12.4430   23.9670 N   0  0  0  0  0  0
    7.8040   13.9751   24.9438 C   0  0  0  0  0  0
    7.7321   12.7478   24.3216 C   0  0  0  0  0  0
    6.4635   14.4544   25.0454 C   0  0  0  0  0  0
    5.6319   13.5111   24.3670 C   0  0  0  0  0  0
    4.2506   13.7088   24.2489 C   0  0  0  0  0  0
    3.7031   14.8278   24.8627 C   0  0  0  0  0  0
    4.4886   15.7341   25.5670 C   0  0  0  0  0  0
    5.8678   15.5690   25.6522 C   0  0  0  0  0  0
    2.3005    9.6516   25.1919 N   0  0  0  0  0  0
    2.0826   11.0448   24.7670 C   0  0  0  0  0  0
   -0.0890    9.2173   25.5861 C   0  0  0  0  0  0
    1.3313    9.1732   26.1865 C   0  0  0  0  0  0
   -0.3876   10.4717   24.7669 C   0  0  0  0  0  0
    0.6543   11.3272   24.3670 C   0  0  0  0  0  0
    0.3784   12.4453   23.5727 C   0  0  0  0  0  0
   -0.9135   12.7081   23.1420 C   0  0  0  0  0  0
   -1.9390   11.8599   23.5238 C   0  0  0  0  0  0
   -1.6875   10.7690   24.3527 C   0  0  0  0  0  0
    6.4702    8.7690   21.1874 H   0  0  0  0  0  0
    4.5325   11.0880   25.0567 H   0  0  0  0  0  0
    7.9878   11.7799   22.1280 H   0  0  0  0  0  0
    5.0358    7.1505   21.5275 H   0  0  0  0  0  0
    8.6958   14.4313   25.3474 H   0  0  0  0  0  0
    8.5090   12.0159   24.1492 H   0  0  0  0  0  0
    3.6302   13.0436   23.6764 H   0  0  0  0  0  0
    2.6421   15.0026   24.7670 H   0  0  0  0  0  0
    4.0292   16.5950   26.0312 H   0  0  0  0  0  0
    6.4610   16.2900   26.1919 H   0  0  0  0  0  0
    2.6556   11.2819   23.8772 H   0  0  0  0  0  0
    2.3731   11.7282   25.5659 H   0  0  0  0  0  0
   -0.8032    9.1327   26.4033 H   0  0  0  0  0  0
   -0.2419    8.3351   24.9620 H   0  0  0  0  0  0
    1.5944    8.2194   26.6472 H   0  0  0  0  0  0
    1.3688    9.8544   27.0382 H   0  0  0  0  0  0
    1.1758   13.1073   23.2683 H   0  0  0  0  0  0
   -1.1275   13.5575   22.5121 H   0  0  0  0  0  0
   -2.9381   12.0531   23.1670 H   0  0  0  0  0  0
   -2.5067   10.1227   24.6335 H   0  0  0  0  0  0
  1  2  2  0  0  0
  1  6  1  0  0  0
  1  7  1  0  0  0
  2  3  1  0  0  0
  2 30  1  0  0  0
  3  4  2  0  0  0
  3  8  1  0  0  0
  4  5  1  0  0  0
  4  9  1  0  0  0
  5  6  2  0  0  0
  5 31  1  0  0  0
  6 11  1  0  0  0
  7 32  1  0  0  0
  8 33  1  0  0  0
  9 10  2  0  0  0
  9 20  1  0  0  0
 11 15  1  0  0  0
 11 13  1  0  0  0
 12 14  1  0  0  0
 12 13  2  0  0  0
 12 34  1  0  0  0
 13 35  1  0  0  0
 14 15  2  0  0  0
 14 19  1  0  0  0
 15 16  1  0  0  0
 16 17  2  0  0  0
 16 36  1  0  0  0
 17 18  1  0  0  0
 17 37  1  0  0  0
 18 19  2  0  0  0
 18 38  1  0  0  0
 19 39  1  0  0  0
 20 21  1  0  0  0
 20 23  1  0  0  0
 21 25  1  0  0  0
 21 40  1  0  0  0
 21 41  1  0  0  0
 22 24  1  0  0  0
 22 23  1  0  0  0
 22 42  1  0  0  0
 22 43  1  0  0  0
 23 44  1  0  0  0
 23 45  1  0  0  0
 24 25  2  0  0  0
 24 29  1  0  0  0
 25 26  1  0  0  0
 26 27  2  0  0  0
 26 46  1  0  0  0
 27 28  1  0  0  0
 27 47  1  0  0  0
 28 29  2  0  0  0
 28 48  1  0  0  0
 29 49  1  0  0  0
M  END
> <s_m_entry_id>
4754

> <s_m_entry_name>
dock_pv.73

> <s_m_Source_Path>
/home/csk/Desktop/cluster/DUD-E-result/hs90a

> <s_m_Source_File>
dock_pv.maegz

> <i_m_Source_File_Index>
73

> <chembl_id>
CHEMBL3260478

> <chembl_pref_name>
None

> <i_lp_mmshare_version>
53161

> <r_lp_tautomer_probability>
1

> <s_lp_Force_Field>
OPLS_2005

> <r_lp_Energy>
39.123666

> <b_lp_Chiralities_Consistent>
1

> <s_lp_Variant>
CHEMBL3880_lig317-1

> <s_i_glide_gridfile>
glide-grid_1uyg

> <i_i_glide_lignum>
354

> <i_i_glide_rotatable_bonds>
5

> <r_i_docking_score>
-9.08769458468247

> <r_i_glide_ligand_efficiency>
-0.313368778782154

> <r_i_glide_ligand_efficiency_sa>
-0.962768170616396

> <r_i_glide_ligand_efficiency_ln>
-2.08085161584087

> <r_i_glide_gscore>
-9.08769458468247

> <r_i_glide_lipo>
-4.85410670187389

> <r_i_glide_hbond>
0

> <r_i_glide_metal>
0

> <r_i_glide_rewards>
-1.99243497477316

> <r_i_glide_evdw>
-43.061882019043

> <r_i_glide_ecoul>
-3.21825623512268

> <r_i_glide_erotb>
0.39467962818513

> <r_i_glide_esite>
0

> <r_i_glide_emodel>
-70.3750477813267

> <r_i_glide_energy>
-46.2801382541656

> <r_i_glide_einternal>
0.701898574829102

> <i_i_glide_confnum>
88

> <i_i_glide_posenum>
41

> <r_i_glide_eff_state_penalty>
0

> <s_user_duplicate_titles>
CHEMBL3880_lig317

> <i_f3d_flags>
0

> <s_m_subgroup_title>
dock_pv

> <s_m_subgroupid>
dock_pv

> <b_m_subgroup_collapsed>
1

$$$$
CHEMBL3880_lig245
                    3D
 Schrodinger Suite 2021-1.
 78 81  0  0  1  0            999 V2000
    0.3454   12.3765   23.2717 C   0  0  0  0  0  0
    1.7125   12.5624   23.1615 C   0  0  0  0  0  0
   -0.1939   11.5236   24.2567 C   0  0  0  0  0  0
    0.6829   10.9108   25.1765 C   0  0  0  0  0  0
    0.9213    8.7436   26.4154 C   0  0  2  0  0  0
    0.2350   10.0188   26.1677 N   0  0  0  0  0  0
    2.0442   11.1989   25.1105 C   0  0  0  0  0  0
    2.5656   11.9551   24.0697 C   0  0  0  0  0  0
    0.7708    7.7445   25.2131 C   0  0  1  0  0  0
    4.3180    9.7187   23.1628 C   0  0  0  0  0  0
    4.0514    8.7655   24.3631 C   0  0  0  0  0  0
    3.1300    7.6645   24.0577 N   0  0  0  0  0  0
    1.6908    8.0370   23.9723 C   0  0  0  0  0  0
    6.1402   11.6335   23.5626 C   0  0  0  0  0  0
    4.8403   11.0986   23.5552 C   0  0  0  0  0  0
    3.9572   12.0880   23.9371 N   0  0  0  0  0  0
    7.4075   10.8651   23.2702 C   0  0  0  0  0  0
    3.5381    6.4034   23.7310 C   0  0  0  0  0  0
    0.7803    6.2463   25.6020 C   0  0  0  0  0  0
    0.4693    8.2109   27.7884 C   0  0  0  0  0  0
    6.0156   12.9770   23.9868 C   0  0  0  0  0  0
    4.6605   13.2475   24.1160 C   0  0  0  0  0  0
    4.0464   14.5605   24.5434 C   0  0  0  0  0  0
    5.0568   15.3568   25.3909 C   0  0  0  0  0  0
    6.4966   15.3471   24.8013 C   0  0  0  0  0  0
    7.0411   13.9673   24.3651 C   0  0  0  0  0  0
    5.1218   14.7694   26.7671 C   0  0  0  0  0  0
    4.5788   16.7680   25.5671 C   0  0  0  0  0  0
    8.2386   13.7090   24.4544 O   0  0  0  0  0  0
   -1.6827   11.2780   24.2814 C   0  0  0  0  0  0
   -2.2772   10.8492   25.2702 O   0  0  0  0  0  0
   -2.3388   11.5701   23.1674 N   0  0  0  0  0  0
    2.7109    5.5646   23.3451 O   0  0  0  0  0  0
    5.0456    5.9532   23.8652 C   0  0  0  0  0  0
    5.1703    4.6698   23.2092 N   0  0  0  0  0  0
    6.0712    6.8059   23.0915 C   0  0  0  0  0  0
    5.4549    5.7223   25.3394 C   0  0  0  0  0  0
   -0.2776   12.8951   22.5587 H   0  0  0  0  0  0
    2.1044   13.1691   22.3679 H   0  0  0  0  0  0
    1.9849    8.9447   26.5310 H   0  0  0  0  0  0
   -0.7758    9.9538   26.1993 H   0  0  0  0  0  0
    2.7025   10.8352   25.8834 H   0  0  0  0  0  0
   -0.2447    7.9013   24.8383 H   0  0  0  0  0  0
    3.4130    9.8259   22.5585 H   0  0  0  0  0  0
    5.0230    9.2593   22.4784 H   0  0  0  0  0  0
    4.9844    8.4056   24.7649 H   0  0  0  0  0  0
    3.6442    9.2989   25.2087 H   0  0  0  0  0  0
    1.6009    9.0826   23.6842 H   0  0  0  0  0  0
    1.2520    7.5131   23.1146 H   0  0  0  0  0  0
    7.2708    9.7839   23.3334 H   0  0  0  0  0  0
    7.8029   11.0992   22.2804 H   0  0  0  0  0  0
    8.2001   11.1103   23.9721 H   0  0  0  0  0  0
    1.7465    5.9403   26.0093 H   0  0  0  0  0  0
    0.0175    6.0052   26.3431 H   0  0  0  0  0  0
    0.5694    5.6129   24.7419 H   0  0  0  0  0  0
    1.0395    7.3323   28.0976 H   0  0  0  0  0  0
    0.6199    8.9631   28.5694 H   0  0  0  0  0  0
   -0.5921    7.9454   27.7860 H   0  0  0  0  0  0
    3.0971   14.4284   25.0657 H   0  0  0  0  0  0
    3.8136   15.1030   23.6383 H   0  0  0  0  0  0
    7.2092   15.7551   25.5150 H   0  0  0  0  0  0
    6.5489   16.0228   23.9674 H   0  0  0  0  0  0
    4.1759   14.3714   27.1349 H   0  0  0  0  0  0
    5.8334   13.9963   26.7218 H   0  0  0  0  0  0
    5.5386   15.4262   27.5446 H   0  0  0  0  0  0
    3.6161   16.7732   26.0500 H   0  0  0  0  0  0
    5.2569   17.1694   26.2916 H   0  0  0  0  0  0
    4.5358   17.3649   24.6538 H   0  0  0  0  0  0
   -3.3535   11.5562   23.2330 H   0  0  0  0  0  0
   -1.8758   11.7954   22.3030 H   0  0  0  0  0  0
    5.5521    4.8377   22.2850 H   0  0  0  0  0  0
    4.1958    4.4175   23.0535 H   0  0  0  0  0  0
    6.4661    7.6422   23.6765 H   0  0  0  0  0  0
    6.9611    6.2540   22.7880 H   0  0  0  0  0  0
    5.6523    7.2038   22.1723 H   0  0  0  0  0  0
    5.4964    6.6504   25.9082 H   0  0  0  0  0  0
    4.7507    5.0593   25.8489 H   0  0  0  0  0  0
    6.4435    5.2672   25.4088 H   0  0  0  0  0  0
  1  3  1  0  0  0
  1  2  2  0  0  0
  1 38  1  0  0  0
  2  8  1  0  0  0
  2 39  1  0  0  0
  3 30  1  0  0  0
  3  4  2  0  0  0
  4  7  1  0  0  0
  4  6  1  0  0  0
  5 20  1  0  0  0
  5  9  1  0  0  0
  5  6  1  0  0  0
  5 40  1  0  0  0
  6 41  1  0  0  0
  7  8  2  0  0  0
  7 42  1  0  0  0
  8 16  1  0  0  0
  9 19  1  0  0  0
  9 13  1  0  0  0
  9 43  1  0  0  0
 10 15  1  0  0  0
 10 11  1  0  0  0
 10 44  1  0  0  0
 10 45  1  0  0  0
 11 12  1  0  0  0
 11 46  1  0  0  0
 11 47  1  0  0  0
 12 18  1  0  0  0
 12 13  1  0  0  0
 13 48  1  0  0  0
 13 49  1  0  0  0
 14 17  1  0  0  0
 14 21  1  0  0  0
 14 15  2  0  0  0
 15 16  1  0  0  0
 16 22  1  0  0  0
 17 50  1  0  0  0
 17 51  1  0  0  0
 17 52  1  0  0  0
 18 33  2  0  0  0
 18 34  1  0  0  0
 19 53  1  0  0  0
 19 54  1  0  0  0
 19 55  1  0  0  0
 20 56  1  0  0  0
 20 57  1  0  0  0
 20 58  1  0  0  0
 21 22  2  0  0  0
 21 26  1  0  0  0
 22 23  1  0  0  0
 23 24  1  0  0  0
 23 59  1  0  0  0
 23 60  1  0  0  0
 24 25  1  0  0  0
 24 27  1  0  0  0
 24 28  1  0  0  0
 25 26  1  0  0  0
 25 61  1  0  0  0
 25 62  1  0  0  0
 26 29  2  0  0  0
 27 63  1  0  0  0
 27 64  1  0  0  0
 27 65  1  0  0  0
 28 66  1  0  0  0
 28 67  1  0  0  0
 28 68  1  0  0  0
 30 31  2  0  0  0
 30 32  1  0  0  0
 32 69  1  0  0  0
 32 70  1  0  0  0
 34 35  1  0  0  0
 34 36  1  0  0  0
 34 37  1  0  0  0
 35 71  1  0  0  0
 35 72  1  0  0  0
 36 73  1  0  0  0
 36 74  1  0  0  0
 36 75  1  0  0  0
 37 76  1  0  0  0
 37 77  1  0  0  0
 37 78  1  0  0  0
M  END
> <s_m_entry_id>
4755

> <s_m_entry_name>
dock_pv.74

> <s_m_Source_Path>
/home/csk/Desktop/cluster/DUD-E-result/hs90a

> <s_m_Source_File>
dock_pv.maegz

> <i_m_Source_File_Index>
74

> <chembl_id>
CHEMBL1807807

> <chembl_pref_name>
None

> <i_lp_mmshare_version>
53161

> <r_lp_tautomer_probability>
0.99995

> <s_lp_Force_Field>
OPLS_2005

> <r_lp_Energy>
60.206371

> <b_lp_Chiralities_Consistent>
1

> <s_lp_Variant>
CHEMBL3880_lig245-1

> <s_i_glide_gridfile>
glide-grid_1uyg

> <i_i_glide_lignum>
279

> <i_i_glide_rotatable_bonds>
3

> <r_i_docking_score>
-9.07922563491363

> <r_i_glide_ligand_efficiency>
-0.245384476619287

> <r_i_glide_ligand_efficiency_sa>
-0.817675514061308

> <r_i_glide_ligand_efficiency_ln>
-1.96907119296491

> <r_i_glide_gscore>
-9.07922563491363

> <r_i_glide_lipo>
-4.88600698274696

> <r_i_glide_hbond>
-0.229048251854501

> <r_i_glide_metal>
0

> <r_i_glide_rewards>
-1.76459994082506

> <r_i_glide_evdw>
-37.5544052124023

> <r_i_glide_ecoul>
-2.57144212722778

> <r_i_glide_erotb>
0.0794183117152417

> <r_i_glide_esite>
-0.0155521914980597

> <r_i_glide_emodel>
-55.1688945465114

> <r_i_glide_energy>
-40.1258473396301

> <r_i_glide_einternal>
4.4599027633667

> <i_i_glide_confnum>
8

> <i_i_glide_posenum>
320

> <r_i_glide_eff_state_penalty>
0

> <s_user_duplicate_titles>
CHEMBL3880_lig245

> <i_f3d_flags>
0

> <s_m_subgroup_title>
dock_pv

> <s_m_subgroupid>
dock_pv

> <b_m_subgroup_collapsed>
1

$$$$
CHEMBL3880_lig967
                    3D
 Schrodinger Suite 2021-1.
 58 61  0  0  1  0            999 V2000
    0.0617    7.7574   25.4918 C   0  0  0  0  0  0
    0.5331    8.7652   26.5717 C   0  0  0  0  0  0
    1.1268    8.0571   27.8069 C   0  0  0  0  0  0
    5.0812   12.8169   23.9670 C   0  0  0  0  0  0
    3.6937   12.7427   24.1026 C   0  0  0  0  0  0
    3.0146   11.5494   23.8661 C   0  0  0  0  0  0
    3.7126   10.4157   23.4544 C   0  0  0  0  0  0
    1.6339   11.4909   24.0964 N   0  0  0  0  0  0
    0.9886   10.7396   25.0529 C   0  0  0  0  0  0
   -0.3642   11.0780   25.0336 C   0  0  0  0  0  0
   -1.3067   10.5373   26.0113 C   0  0  0  0  0  0
   -0.6715    9.6207   27.0733 C   0  0  0  0  0  0
    1.6330    9.6949   25.9669 C   0  0  0  0  0  0
   -2.5108   10.7691   26.0002 O   0  0  0  0  0  0
   -0.5849   11.9676   23.9613 C   0  0  0  0  0  0
    0.6804   12.2569   23.4733 C   0  0  0  0  0  0
   -1.8782   12.6120   23.5149 C   0  0  0  0  0  0
    5.7941   11.6558   23.5670 C   0  0  0  0  0  0
    5.0999   10.4502   23.3202 C   0  0  0  0  0  0
    5.8915    9.2078   22.9349 C   0  0  0  0  0  0
    7.1393    9.6284   22.1319 C   0  0  0  0  0  0
    7.8913   10.6169   22.9188 N   0  0  0  0  0  0
    7.3139   11.6509   23.5669 C   0  0  0  0  0  0
    8.0416   12.4054   24.2043 O   0  0  0  0  0  0
    5.7218   14.1966   24.2033 C   0  0  0  0  0  0
    5.1261   14.8330   26.6428 C   0  0  0  0  0  0
    6.2162   14.5306   25.6123 C   0  0  0  0  0  0
    4.2649   16.0660   26.3386 C   0  0  0  0  0  0
   -0.7127    7.0960   25.8783 H   0  0  0  0  0  0
   -0.3395    8.2428   24.6022 H   0  0  0  0  0  0
    0.8821    7.1195   25.1621 H   0  0  0  0  0  0
    0.4003    7.3851   28.2648 H   0  0  0  0  0  0
    1.9992    7.4606   27.5404 H   0  0  0  0  0  0
    1.4391    8.7687   28.5728 H   0  0  0  0  0  0
    3.1434   13.6196   24.4143 H   0  0  0  0  0  0
    3.1823    9.4913   23.2700 H   0  0  0  0  0  0
   -1.4501    9.0050   27.5241 H   0  0  0  0  0  0
   -0.3367   10.2895   27.8639 H   0  0  0  0  0  0
    2.4024    9.1038   25.4730 H   0  0  0  0  0  0
    2.1286   10.2412   26.7669 H   0  0  0  0  0  0
    0.9804   12.9455   22.6974 H   0  0  0  0  0  0
   -2.5266   12.8260   24.3617 H   0  0  0  0  0  0
   -1.7179   13.5663   23.0125 H   0  0  0  0  0  0
   -2.4449   11.9625   22.8481 H   0  0  0  0  0  0
    5.2876    8.5083   22.3561 H   0  0  0  0  0  0
    6.1961    8.6729   23.8356 H   0  0  0  0  0  0
    6.8670   10.0167   21.1492 H   0  0  0  0  0  0
    7.7737    8.7644   21.9387 H   0  0  0  0  0  0
    8.8916   10.5270   23.0235 H   0  0  0  0  0  0
    6.5882   14.3171   23.5670 H   0  0  0  0  0  0
    5.0205   14.9699   23.8979 H   0  0  0  0  0  0
    4.4846   13.9675   26.8021 H   0  0  0  0  0  0
    5.6610   15.0113   27.5669 H   0  0  0  0  0  0
    6.8685   13.7366   25.9673 H   0  0  0  0  0  0
    6.8631   15.4075   25.5465 H   0  0  0  0  0  0
    3.5896   16.2803   27.1668 H   0  0  0  0  0  0
    4.8762   16.9521   26.1814 H   0  0  0  0  0  0
    3.6609   15.9147   25.4471 H   0  0  0  0  0  0
  1  2  1  0  0  0
  1 29  1  0  0  0
  1 30  1  0  0  0
  1 31  1  0  0  0
  2  3  1  0  0  0
  2 12  1  0  0  0
  2 13  1  0  0  0
  3 32  1  0  0  0
  3 33  1  0  0  0
  3 34  1  0  0  0
  4  5  2  0  0  0
  4 18  1  0  0  0
  4 25  1  0  0  0
  5  6  1  0  0  0
  5 35  1  0  0  0
  6  7  2  0  0  0
  6  8  1  0  0  0
  7 19  1  0  0  0
  7 36  1  0  0  0
  8 16  1  0  0  0
  8  9  1  0  0  0
  9 10  2  0  0  0
  9 13  1  0  0  0
 10 15  1  0  0  0
 10 11  1  0  0  0
 11 12  1  0  0  0
 11 14  2  0  0  0
 12 37  1  0  0  0
 12 38  1  0  0  0
 13 39  1  0  0  0
 13 40  1  0  0  0
 15 16  2  0  0  0
 15 17  1  0  0  0
 16 41  1  0  0  0
 17 42  1  0  0  0
 17 43  1  0  0  0
 17 44  1  0  0  0
 18 19  2  0  0  0
 18 23  1  0  0  0
 19 20  1  0  0  0
 20 21  1  0  0  0
 20 45  1  0  0  0
 20 46  1  0  0  0
 21 22  1  0  0  0
 21 47  1  0  0  0
 21 48  1  0  0  0
 22 23  1  0  0  0
 22 49  1  0  0  0
 23 24  2  0  0  0
 25 27  1  0  0  0
 25 50  1  0  0  0
 25 51  1  0  0  0
 26 27  1  0  0  0
 26 28  1  0  0  0
 26 52  1  0  0  0
 26 53  1  0  0  0
 27 54  1  0  0  0
 27 55  1  0  0  0
 28 56  1  0  0  0
 28 57  1  0  0  0
 28 58  1  0  0  0
M  END
> <s_m_entry_id>
4756

> <s_m_entry_name>
dock_pv.75

> <s_m_Source_Path>
/home/csk/Desktop/cluster/DUD-E-result/hs90a

> <s_m_Source_File>
dock_pv.maegz

> <i_m_Source_File_Index>
75

> <chembl_id>
CHEMBL3235357

> <chembl_pref_name>
None

> <i_lp_mmshare_version>
53161

> <r_lp_tautomer_probability>
0.99995

> <s_lp_Force_Field>
OPLS_2005

> <r_lp_Energy>
31.202455

> <b_lp_Chiralities_Consistent>
1

> <s_lp_Variant>
CHEMBL3880_lig967-1

> <s_i_glide_gridfile>
glide-grid_1uyg

> <i_i_glide_lignum>
1076

> <i_i_glide_rotatable_bonds>
4

> <r_i_docking_score>
-9.06450925875022

> <r_i_glide_ligand_efficiency>
-0.323732473526793

> <r_i_glide_ligand_efficiency_sa>
-0.983042457857591

> <r_i_glide_ligand_efficiency_ln>
-2.09235488247613

> <r_i_glide_gscore>
-9.06450925875022

> <r_i_glide_lipo>
-4.72507979953516

> <r_i_glide_hbond>
0

> <r_i_glide_metal>
0

> <r_i_glide_rewards>
-2.40093417757378

> <r_i_glide_evdw>
-44.6346740722656

> <r_i_glide_ecoul>
-0.750489473342896

> <r_i_glide_erotb>
0.405811842973442

> <r_i_glide_esite>
0

> <r_i_glide_emodel>
-67.683769447607

> <r_i_glide_energy>
-45.3851635456085

> <r_i_glide_einternal>
3.30702805519104

> <i_i_glide_confnum>
91

> <i_i_glide_posenum>
233

> <r_i_glide_eff_state_penalty>
0

> <s_user_duplicate_titles>
CHEMBL3880_lig967

> <i_f3d_flags>
0

> <s_m_subgroup_title>
dock_pv

> <s_m_subgroupid>
dock_pv

> <b_m_subgroup_collapsed>
1

$$$$
CHEMBL3880_lig132
                    3D
 Schrodinger Suite 2021-1.
 58 61  0  0  1  0            999 V2000
    0.0088    7.5953   25.6438 C   0  0  0  0  0  0
    0.5104    8.6408   26.6710 C   0  0  0  0  0  0
    1.1351    7.9790   27.9166 C   0  0  0  0  0  0
    5.0021   12.5013   23.9666 C   0  0  0  0  0  0
    3.6043   12.4325   23.9945 C   0  0  0  0  0  0
    2.9326   11.2419   23.7607 C   0  0  0  0  0  0
    3.6384   10.0977   23.4038 C   0  0  0  0  0  0
    1.5584   11.2043   24.0173 N   0  0  0  0  0  0
    0.9401   10.5358   25.0493 C   0  0  0  0  0  0
   -0.4015   10.9101   25.0700 C   0  0  0  0  0  0
   -1.3112   10.4519   26.1159 C   0  0  0  0  0  0
   -0.6826    9.5161   27.1686 C   0  0  0  0  0  0
    1.6006    9.5351   26.0004 C   0  0  0  0  0  0
   -2.4959   10.7690   26.1638 O   0  0  0  0  0  0
   -0.6427   11.7555   23.9659 C   0  0  0  0  0  0
    0.6021   11.9689   23.3963 C   0  0  0  0  0  0
   -1.9394   12.3899   23.5248 C   0  0  0  0  0  0
    5.7200   11.3411   23.5544 C   0  0  0  0  0  0
    5.0276   10.1324   23.3065 C   0  0  0  0  0  0
    5.8180    8.8744   22.9775 C   0  0  0  0  0  0
    7.0598    9.2497   22.1512 C   0  0  0  0  0  0
    7.8119   10.2873   22.8696 N   0  0  0  0  0  0
    7.2424   11.3553   23.4692 C   0  0  0  0  0  0
    7.9966   12.1811   23.9670 O   0  0  0  0  0  0
    5.6903   13.8174   24.4108 C   0  0  0  0  0  0
    4.8154   14.9609   25.0089 C   0  0  0  0  0  0
    5.6041   16.2705   25.1500 C   0  0  0  0  0  0
    4.2334   14.5993   26.3882 C   0  0  0  0  0  0
   -0.7395    6.9336   26.0817 H   0  0  0  0  0  0
   -0.4418    8.0555   24.7662 H   0  0  0  0  0  0
    0.8238    6.9655   25.2874 H   0  0  0  0  0  0
    0.4148    7.3396   28.4295 H   0  0  0  0  0  0
    1.9874    7.3537   27.6509 H   0  0  0  0  0  0
    1.4855    8.7169   28.6398 H   0  0  0  0  0  0
    3.0130   13.2875   24.2776 H   0  0  0  0  0  0
    3.1129    9.1670   23.2383 H   0  0  0  0  0  0
   -1.4731    8.9074   27.6043 H   0  0  0  0  0  0
   -0.3374   10.1725   27.9637 H   0  0  0  0  0  0
    2.3570    8.9198   25.5145 H   0  0  0  0  0  0
    2.1166   10.1123   26.7649 H   0  0  0  0  0  0
    0.8852   12.6039   22.5714 H   0  0  0  0  0  0
   -2.4556   12.8468   24.3652 H   0  0  0  0  0  0
   -1.8023   13.1699   22.7763 H   0  0  0  0  0  0
   -2.6362   11.6490   23.1317 H   0  0  0  0  0  0
    5.2131    8.1476   22.4324 H   0  0  0  0  0  0
    6.1267    8.3806   23.9008 H   0  0  0  0  0  0
    6.7792    9.5833   21.1525 H   0  0  0  0  0  0
    7.6915    8.3704   22.0006 H   0  0  0  0  0  0
    8.8173   10.2251   22.9288 H   0  0  0  0  0  0
    6.4323   13.5700   25.1696 H   0  0  0  0  0  0
    6.2602   14.1971   23.5672 H   0  0  0  0  0  0
    3.9991   15.1787   24.3183 H   0  0  0  0  0  0
    6.4047   16.1704   25.8849 H   0  0  0  0  0  0
    6.0604   16.5737   24.2113 H   0  0  0  0  0  0
    4.9512   17.0903   25.4640 H   0  0  0  0  0  0
    5.0239   14.4656   27.1262 H   0  0  0  0  0  0
    3.5738   15.3807   26.7629 H   0  0  0  0  0  0
    3.6631   13.6754   26.3668 H   0  0  0  0  0  0
  1  2  1  0  0  0
  1 29  1  0  0  0
  1 30  1  0  0  0
  1 31  1  0  0  0
  2  3  1  0  0  0
  2 12  1  0  0  0
  2 13  1  0  0  0
  3 32  1  0  0  0
  3 33  1  0  0  0
  3 34  1  0  0  0
  4  5  2  0  0  0
  4 18  1  0  0  0
  4 25  1  0  0  0
  5  6  1  0  0  0
  5 35  1  0  0  0
  6  7  2  0  0  0
  6  8  1  0  0  0
  7 19  1  0  0  0
  7 36  1  0  0  0
  8 16  1  0  0  0
  8  9  1  0  0  0
  9 10  2  0  0  0
  9 13  1  0  0  0
 10 15  1  0  0  0
 10 11  1  0  0  0
 11 12  1  0  0  0
 11 14  2  0  0  0
 12 37  1  0  0  0
 12 38  1  0  0  0
 13 39  1  0  0  0
 13 40  1  0  0  0
 15 16  2  0  0  0
 15 17  1  0  0  0
 16 41  1  0  0  0
 17 42  1  0  0  0
 17 43  1  0  0  0
 17 44  1  0  0  0
 18 19  2  0  0  0
 18 23  1  0  0  0
 19 20  1  0  0  0
 20 21  1  0  0  0
 20 45  1  0  0  0
 20 46  1  0  0  0
 21 22  1  0  0  0
 21 47  1  0  0  0
 21 48  1  0  0  0
 22 23  1  0  0  0
 22 49  1  0  0  0
 23 24  2  0  0  0
 25 26  1  0  0  0
 25 50  1  0  0  0
 25 51  1  0  0  0
 26 27  1  0  0  0
 26 28  1  0  0  0
 26 52  1  0  0  0
 27 53  1  0  0  0
 27 54  1  0  0  0
 27 55  1  0  0  0
 28 56  1  0  0  0
 28 57  1  0  0  0
 28 58  1  0  0  0
M  END
> <s_m_entry_id>
4757

> <s_m_entry_name>
dock_pv.76

> <s_m_Source_Path>
/home/csk/Desktop/cluster/DUD-E-result/hs90a

> <s_m_Source_File>
dock_pv.maegz

> <i_m_Source_File_Index>
76

> <chembl_id>
CHEMBL3235352

> <chembl_pref_name>
None

> <i_lp_mmshare_version>
53161

> <r_lp_tautomer_probability>
0.99995

> <s_lp_Force_Field>
OPLS_2005

> <r_lp_Energy>
32.17149

> <b_lp_Chiralities_Consistent>
1

> <s_lp_Variant>
CHEMBL3880_lig132-1

> <s_i_glide_gridfile>
glide-grid_1uyg

> <i_i_glide_lignum>
149

> <i_i_glide_rotatable_bonds>
3

> <r_i_docking_score>
-9.05600561408491

> <r_i_glide_ligand_efficiency>
-0.323428771931604

> <r_i_glide_ligand_efficiency_sa>
-0.982120240943922

> <r_i_glide_ligand_efficiency_ln>
-2.09039199160953

> <r_i_glide_gscore>
-9.05600561408491

> <r_i_glide_lipo>
-4.62270866525236

> <r_i_glide_hbond>
0

> <r_i_glide_metal>
0

> <r_i_glide_rewards>
-2.31749997035585

> <r_i_glide_evdw>
-45.1762199401855

> <r_i_glide_ecoul>
-0.850181400775909

> <r_i_glide_erotb>
0.270541228648961

> <r_i_glide_esite>
0

> <r_i_glide_emodel>
-63.4411896665523

> <r_i_glide_energy>
-46.0264013409615

> <r_i_glide_einternal>
3.41002058982849

> <i_i_glide_confnum>
32

> <i_i_glide_posenum>
371

> <r_i_glide_eff_state_penalty>
0

> <s_user_duplicate_titles>
CHEMBL3880_lig132

> <i_f3d_flags>
0

> <s_m_subgroup_title>
dock_pv

> <s_m_subgroupid>
dock_pv

> <b_m_subgroup_collapsed>
1

$$$$
CHEMBL3880_lig259
                    3D
 Schrodinger Suite 2021-1.
 47 49  0  0  1  0            999 V2000
    6.5401    8.8951   22.7480 N   0  0  0  0  0  0
    5.2249    8.7131   22.4936 C   0  0  0  0  0  0
    4.2215    9.5984   22.6840 N   0  0  0  0  0  0
    6.9184   10.1025   23.2345 C   0  0  0  0  0  0
    5.9791   11.1194   23.4775 C   0  0  0  0  0  0
    4.6336   10.7699   23.1841 C   0  0  0  0  0  0
    3.8434   11.8594   23.4984 N   0  0  0  0  0  0
    4.6575   12.8661   23.9671 C   0  0  0  0  0  0
    5.9820   12.4789   23.9505 C   0  0  0  0  0  0
    8.5838   10.3708   23.5659 Cl  0  0  0  0  0  0
    4.8609    7.4897   21.9639 N   0  0  0  0  0  0
    2.3939   11.9370   23.3794 C   0  0  0  0  0  0
    1.5910   11.2109   24.4640 C   0  0  0  0  0  0
    0.2545   11.5516   24.7186 C   0  0  0  0  0  0
   -0.4183   10.8611   25.7440 C   0  0  0  0  0  0
    0.2509    9.8641   26.4707 C   0  0  0  0  0  0
    1.5706    9.5702   26.1279 C   0  0  0  0  0  0
    2.2342   10.2262   25.1506 N   0  0  0  0  0  0
   -0.4401   12.6366   23.8951 C   0  0  0  0  0  0
   -0.4096    9.1217   27.6216 C   0  0  0  0  0  0
   -1.7305   11.1265   26.0339 O   0  0  0  0  0  0
   -2.6295   10.5305   25.1077 C   0  0  0  0  0  0
    7.1120   13.2866   24.3669 C   0  0  0  0  0  0
    8.0487   13.9578   24.7671 C   0  0  0  0  0  0
    9.1497   14.7782   25.2913 C   0  0  0  0  0  0
    9.0167   15.0948   26.7859 C   0  0  0  0  0  0
   10.0584   15.9659   27.1669 O   0  0  0  0  0  0
    4.2201   13.8052   24.2723 H   0  0  0  0  0  0
    5.6134    6.9305   21.5818 H   0  0  0  0  0  0
    3.9132    7.4003   21.6250 H   0  0  0  0  0  0
    2.1367   12.9942   23.3544 H   0  0  0  0  0  0
    2.1159   11.5264   22.4084 H   0  0  0  0  0  0
    2.1311    8.8117   26.6563 H   0  0  0  0  0  0
   -1.4660   12.8215   24.2052 H   0  0  0  0  0  0
    0.0921   13.5861   23.9669 H   0  0  0  0  0  0
   -0.4606   12.3505   22.8426 H   0  0  0  0  0  0
   -1.1900    9.7235   28.0952 H   0  0  0  0  0  0
   -0.8405    8.1798   27.2744 H   0  0  0  0  0  0
    0.3182    8.8946   28.4046 H   0  0  0  0  0  0
   -3.6039   10.3772   25.5682 H   0  0  0  0  0  0
   -2.7402   11.1428   24.2173 H   0  0  0  0  0  0
   -2.2764    9.5689   24.7593 H   0  0  0  0  0  0
    9.1691   15.6980   24.7088 H   0  0  0  0  0  0
   10.0886   14.2568   25.1088 H   0  0  0  0  0  0
    9.0815   14.1860   27.3893 H   0  0  0  0  0  0
    8.0611   15.5684   27.0202 H   0  0  0  0  0  0
   10.0952   15.9725   28.1332 H   0  0  0  0  0  0
  1  2  2  0  0  0
  1  4  1  0  0  0
  2  3  1  0  0  0
  2 11  1  0  0  0
  3  6  2  0  0  0
  4  5  2  0  0  0
  4 10  1  0  0  0
  5  6  1  0  0  0
  5  9  1  0  0  0
  6  7  1  0  0  0
  7  8  1  0  0  0
  7 12  1  0  0  0
  8  9  2  0  0  0
  8 28  1  0  0  0
  9 23  1  0  0  0
 11 29  1  0  0  0
 11 30  1  0  0  0
 12 13  1  0  0  0
 12 31  1  0  0  0
 12 32  1  0  0  0
 13 14  2  0  0  0
 13 18  1  0  0  0
 14 15  1  0  0  0
 14 19  1  0  0  0
 15 16  2  0  0  0
 15 21  1  0  0  0
 16 17  1  0  0  0
 16 20  1  0  0  0
 17 18  2  0  0  0
 17 33  1  0  0  0
 19 34  1  0  0  0
 19 35  1  0  0  0
 19 36  1  0  0  0
 20 37  1  0  0  0
 20 38  1  0  0  0
 20 39  1  0  0  0
 21 22  1  0  0  0
 22 40  1  0  0  0
 22 41  1  0  0  0
 22 42  1  0  0  0
 23 24  3  0  0  0
 24 25  1  0  0  0
 25 26  1  0  0  0
 25 43  1  0  0  0
 25 44  1  0  0  0
 26 27  1  0  0  0
 26 45  1  0  0  0
 26 46  1  0  0  0
 27 47  1  0  0  0
M  END
> <s_m_entry_id>
4758

> <s_m_entry_name>
dock_pv.77

> <s_m_Source_Path>
/home/csk/Desktop/cluster/DUD-E-result/hs90a

> <s_m_Source_File>
dock_pv.maegz

> <i_m_Source_File_Index>
77

> <chembl_id>
CHEMBL2205799

> <chembl_pref_name>
None

> <i_lp_mmshare_version>
53161

> <r_lp_tautomer_probability>
1

> <s_lp_Force_Field>
OPLS_2005

> <r_lp_Energy>
11.190656

> <b_lp_Chiralities_Consistent>
1

> <s_lp_Variant>
CHEMBL3880_lig259-1

> <s_i_glide_gridfile>
glide-grid_1uyg

> <i_i_glide_lignum>
293

> <i_i_glide_rotatable_bonds>
7

> <r_i_docking_score>
-9.04159908613086

> <r_i_glide_ligand_efficiency>
-0.334874040227069

> <r_i_glide_ligand_efficiency_sa>
-1.00462211957752

> <r_i_glide_ligand_efficiency_ln>
-2.10473520484047

> <r_i_glide_gscore>
-9.04159908613086

> <r_i_glide_lipo>
-3.72012947637701

> <r_i_glide_hbond>
-0.911798935262704

> <r_i_glide_metal>
0

> <r_i_glide_rewards>
-1.84023627134189

> <r_i_glide_evdw>
-43.3359756469727

> <r_i_glide_ecoul>
-6.95941114425659

> <r_i_glide_erotb>
0.653463347870324

> <r_i_glide_esite>
-0.0121872970324586

> <r_i_glide_emodel>
-77.5123077684179

> <r_i_glide_energy>
-50.2953867912292

> <r_i_glide_einternal>
4.41147613525391

> <i_i_glide_confnum>
9

> <i_i_glide_posenum>
277

> <r_i_glide_eff_state_penalty>
0

> <s_user_duplicate_titles>
CHEMBL3880_lig259

> <i_f3d_flags>
0

> <s_m_subgroup_title>
dock_pv

> <s_m_subgroupid>
dock_pv

> <b_m_subgroup_collapsed>
1

$$$$
CHEMBL3880_lig936
                    3D
 Schrodinger Suite 2021-1.
 52 55  0  0  1  0            999 V2000
    1.6701    8.9840   25.3641 C   0  0  0  0  0  0
    1.7461    8.3251   23.9667 C   0  0  0  0  0  0
    2.2240    8.0598   26.4706 C   0  0  0  0  0  0
    0.0898   12.6134   23.7437 C   0  0  0  0  0  0
    1.2702   13.3219   23.6080 C   0  0  0  0  0  0
    2.3111   12.5919   24.1399 N   0  0  0  0  0  0
    0.3902   11.4429   24.4448 C   0  0  0  0  0  0
    1.7656   11.4306   24.6663 C   0  0  0  0  0  0
    2.5273   10.2879   25.3449 C   0  0  0  0  0  0
    0.1867    9.2949   25.7401 C   0  0  0  0  0  0
   -0.5048   10.3903   24.9079 C   0  0  0  0  0  0
    3.6585   12.9995   24.1830 C   0  0  0  0  0  0
    4.6557   12.1844   23.6547 C   0  0  0  0  0  0
    6.0155   12.5136   23.7706 C   0  0  0  0  0  0
    6.3609   13.7494   24.3762 C   0  0  0  0  0  0
    5.3447   14.5892   24.8608 C   0  0  0  0  0  0
    4.0099   14.2151   24.7669 C   0  0  0  0  0  0
    7.0054   11.6136   23.3139 N   0  0  0  0  0  0
    7.7820   14.1923   24.5974 C   0  0  0  0  0  0
    8.4375   13.5690   25.5686 N   0  0  0  0  0  0
    8.2914   15.1111   23.9671 O   0  0  0  0  0  0
    6.7422   10.3267   22.6480 C   0  0  1  0  0  0
   -1.7054   10.3699   24.6527 O   0  0  0  0  0  0
    8.0287    9.5502   22.4696 C   0  0  0  0  0  0
    8.0612    8.6324   23.6870 C   0  0  0  0  0  0
    6.7167    8.2268   23.8177 O   0  0  0  0  0  0
    5.8826    9.3188   23.4481 C   0  0  0  0  0  0
    5.6343   15.7691   25.4612 F   0  0  0  0  0  0
    0.9701    7.5719   23.8228 H   0  0  0  0  0  0
    1.6604    9.0561   23.1666 H   0  0  0  0  0  0
    2.7057    7.8258   23.8203 H   0  0  0  0  0  0
    1.6720    7.1207   26.5154 H   0  0  0  0  0  0
    3.2710    7.8113   26.2948 H   0  0  0  0  0  0
    2.1630    8.5203   27.4578 H   0  0  0  0  0  0
   -0.8930   12.9204   23.4115 H   0  0  0  0  0  0
    1.4689   14.2876   23.1679 H   0  0  0  0  0  0
    3.4959   10.0929   24.9021 H   0  0  0  0  0  0
    2.7219   10.6013   26.3665 H   0  0  0  0  0  0
   -0.4307    8.3971   25.7094 H   0  0  0  0  0  0
    0.1473    9.6554   26.7684 H   0  0  0  0  0  0
    4.3466   11.2774   23.1656 H   0  0  0  0  0  0
    3.2604   14.8747   25.1705 H   0  0  0  0  0  0
    7.9760   11.8629   23.4593 H   0  0  0  0  0  0
    9.3710   13.8635   25.8102 H   0  0  0  0  0  0
    7.9694   12.8612   26.1151 H   0  0  0  0  0  0
    6.2840   10.4918   21.6724 H   0  0  0  0  0  0
    8.9134   10.1822   22.3957 H   0  0  0  0  0  0
    7.9844    8.9447   21.5672 H   0  0  0  0  0  0
    8.3910    9.1357   24.5982 H   0  0  0  0  0  0
    8.7140    7.7689   23.5509 H   0  0  0  0  0  0
    5.0321    8.9596   22.8675 H   0  0  0  0  0  0
    5.5229    9.7681   24.3665 H   0  0  0  0  0  0
  1  2  1  0  0  0
  1  3  1  0  0  0
  1  9  1  0  0  0
  1 10  1  0  0  0
  2 29  1  0  0  0
  2 30  1  0  0  0
  2 31  1  0  0  0
  3 32  1  0  0  0
  3 33  1  0  0  0
  3 34  1  0  0  0
  4  7  1  0  0  0
  4  5  2  0  0  0
  4 35  1  0  0  0
  5  6  1  0  0  0
  5 36  1  0  0  0
  6  8  1  0  0  0
  6 12  1  0  0  0
  7  8  2  0  0  0
  7 11  1  0  0  0
  8  9  1  0  0  0
  9 37  1  0  0  0
  9 38  1  0  0  0
 10 11  1  0  0  0
 10 39  1  0  0  0
 10 40  1  0  0  0
 11 23  2  0  0  0
 12 13  2  0  0  0
 12 17  1  0  0  0
 13 14  1  0  0  0
 13 41  1  0  0  0
 14 15  2  0  0  0
 14 18  1  0  0  0
 15 16  1  0  0  0
 15 19  1  0  0  0
 16 17  2  0  0  0
 16 28  1  0  0  0
 17 42  1  0  0  0
 18 22  1  0  0  0
 18 43  1  0  0  0
 19 20  1  0  0  0
 19 21  2  0  0  0
 20 44  1  0  0  0
 20 45  1  0  0  0
 22 24  1  0  0  0
 22 27  1  0  0  0
 22 46  1  0  0  0
 24 25  1  0  0  0
 24 47  1  0  0  0
 24 48  1  0  0  0
 25 26  1  0  0  0
 25 49  1  0  0  0
 25 50  1  0  0  0
 26 27  1  0  0  0
 27 51  1  0  0  0
 27 52  1  0  0  0
M  END
> <s_m_entry_id>
4759

> <s_m_entry_name>
dock_pv.78

> <s_m_Source_Path>
/home/csk/Desktop/cluster/DUD-E-result/hs90a

> <s_m_Source_File>
dock_pv.maegz

> <i_m_Source_File_Index>
78

> <chembl_id>
CHEMBL3104860

> <chembl_pref_name>
None

> <i_lp_mmshare_version>
53161

> <r_lp_tautomer_probability>
0.99995

> <s_lp_Force_Field>
OPLS_2005

> <r_lp_Energy>
43.11121

> <b_lp_Chiralities_Consistent>
1

> <s_lp_Variant>
CHEMBL3880_lig936-1

> <s_i_glide_gridfile>
glide-grid_1uyg

> <i_i_glide_lignum>
1042

> <i_i_glide_rotatable_bonds>
4

> <r_i_docking_score>
-9.03393315068954

> <r_i_glide_ligand_efficiency>
-0.322640469667484

> <r_i_glide_ligand_efficiency_sa>
-0.979726490984848

> <r_i_glide_ligand_efficiency_ln>
-2.08529701898219

> <r_i_glide_gscore>
-9.03393315068954

> <r_i_glide_lipo>
-4.27826295055709

> <r_i_glide_hbond>
0

> <r_i_glide_metal>
0

> <r_i_glide_rewards>
-2.70817302103423

> <r_i_glide_evdw>
-48.7294960021973

> <r_i_glide_ecoul>
-0.0257223043590784

> <r_i_glide_erotb>
0.392835966665505

> <r_i_glide_esite>
0

> <r_i_glide_emodel>
-70.1405436154907

> <r_i_glide_energy>
-48.7552183065563

> <r_i_glide_einternal>
4.58368968963623

> <i_i_glide_confnum>
135

> <i_i_glide_posenum>
244

> <r_i_glide_eff_state_penalty>
0

> <s_user_duplicate_titles>
CHEMBL3880_lig936

> <i_f3d_flags>
0

> <s_m_subgroup_title>
dock_pv

> <s_m_subgroupid>
dock_pv

> <b_m_subgroup_collapsed>
1

$$$$
CHEMBL3880_lig133
                    3D
 Schrodinger Suite 2021-1.
 59 63  0  0  1  0            999 V2000
    5.2711    9.0336   21.2553 C   0  0  0  0  0  0
    5.4999    8.4689   22.6874 C   0  0  0  0  0  0
    5.2584    6.9466   22.8105 C   0  0  0  0  0  0
    0.7608   10.2940   25.2048 C   0  0  0  0  0  0
    2.1374   10.5186   25.1312 C   0  0  0  0  0  0
    2.6656   11.5223   24.3168 C   0  0  0  0  0  0
    1.8134   12.3582   23.6085 C   0  0  0  0  0  0
    4.0528   11.6355   24.1416 N   0  0  0  0  0  0
    4.9136   10.6012   23.8716 C   0  0  0  0  0  0
    6.1969   11.1122   23.6906 C   0  0  0  0  0  0
    7.3193   10.2530   23.3023 C   0  0  0  0  0  0
    6.9595    8.7603   23.1619 C   0  0  0  0  0  0
    4.4913    9.1529   23.6428 C   0  0  0  0  0  0
    8.4464   10.6711   23.0583 O   0  0  0  0  0  0
    6.1533   12.4965   23.9652 C   0  0  0  0  0  0
    4.8042   12.7861   24.1469 C   0  0  0  0  0  0
    7.2885   13.4904   23.9666 C   0  0  0  0  0  0
   -0.1053   11.1783   24.5146 C   0  0  0  0  0  0
    0.4359   12.2025   23.7108 C   0  0  0  0  0  0
   -0.5037   13.1099   22.9498 C   0  0  0  0  0  0
   -1.7761   12.3358   22.5592 C   0  0  0  0  0  0
   -2.3389   11.7443   23.7780 N   0  0  0  0  0  0
   -1.6085   11.1444   24.7428 C   0  0  0  0  0  0
   -2.1769   10.7690   25.7649 O   0  0  0  0  0  0
    0.2899    9.0357   25.9587 C   0  0  0  0  0  0
    1.0112    7.6996   25.6412 C   0  0  0  0  0  0
    1.2343    7.0054   26.9973 C   0  0  0  0  0  0
    0.3136    7.7131   27.9918 C   0  0  0  0  0  0
    0.2898    9.1519   27.4876 C   0  0  0  0  0  0
    4.3248    8.6860   20.8379 H   0  0  0  0  0  0
    5.2526   10.1224   21.2338 H   0  0  0  0  0  0
    6.0626    8.7402   20.5686 H   0  0  0  0  0  0
    4.3285    6.6507   22.3203 H   0  0  0  0  0  0
    6.0612    6.3621   22.3677 H   0  0  0  0  0  0
    5.1943    6.6217   23.8503 H   0  0  0  0  0  0
    2.8048    9.8730   25.6831 H   0  0  0  0  0  0
    2.2166   13.1315   22.9697 H   0  0  0  0  0  0
    7.6939    8.2891   22.5083 H   0  0  0  0  0  0
    7.1110    8.3276   24.1503 H   0  0  0  0  0  0
    3.4752    9.0577   23.2557 H   0  0  0  0  0  0
    4.5044    8.6666   24.6193 H   0  0  0  0  0  0
    4.3205   13.7340   24.3309 H   0  0  0  0  0  0
    6.9443   14.5250   23.9624 H   0  0  0  0  0  0
    7.9429   13.3428   24.8267 H   0  0  0  0  0  0
    7.9207   13.3617   23.0885 H   0  0  0  0  0  0
   -0.7664   13.9672   23.5677 H   0  0  0  0  0  0
   -0.0131   13.5065   22.0615 H   0  0  0  0  0  0
   -2.5062   13.0090   22.1070 H   0  0  0  0  0  0
   -1.5763   11.5800   21.8008 H   0  0  0  0  0  0
   -3.3328   11.8973   23.9831 H   0  0  0  0  0  0
   -0.7392    8.8289   25.6945 H   0  0  0  0  0  0
    0.3781    7.0513   25.0321 H   0  0  0  0  0  0
    1.9849    7.8227   25.1654 H   0  0  0  0  0  0
    1.0385    5.9338   26.9503 H   0  0  0  0  0  0
    2.2727    7.1280   27.3101 H   0  0  0  0  0  0
   -0.6901    7.2863   27.9530 H   0  0  0  0  0  0
    0.6672    7.6386   29.0207 H   0  0  0  0  0  0
    1.2097    9.6443   27.8028 H   0  0  0  0  0  0
   -0.5257    9.7659   27.8731 H   0  0  0  0  0  0
  1  2  1  0  0  0
  1 30  1  0  0  0
  1 31  1  0  0  0
  1 32  1  0  0  0
  2  3  1  0  0  0
  2 12  1  0  0  0
  2 13  1  0  0  0
  3 33  1  0  0  0
  3 34  1  0  0  0
  3 35  1  0  0  0
  4  5  2  0  0  0
  4 18  1  0  0  0
  4 25  1  0  0  0
  5  6  1  0  0  0
  5 36  1  0  0  0
  6  7  2  0  0  0
  6  8  1  0  0  0
  7 19  1  0  0  0
  7 37  1  0  0  0
  8 16  1  0  0  0
  8  9  1  0  0  0
  9 10  2  0  0  0
  9 13  1  0  0  0
 10 15  1  0  0  0
 10 11  1  0  0  0
 11 12  1  0  0  0
 11 14  2  0  0  0
 12 38  1  0  0  0
 12 39  1  0  0  0
 13 40  1  0  0  0
 13 41  1  0  0  0
 15 16  2  0  0  0
 15 17  1  0  0  0
 16 42  1  0  0  0
 17 43  1  0  0  0
 17 44  1  0  0  0
 17 45  1  0  0  0
 18 19  2  0  0  0
 18 23  1  0  0  0
 19 20  1  0  0  0
 20 21  1  0  0  0
 20 46  1  0  0  0
 20 47  1  0  0  0
 21 22  1  0  0  0
 21 48  1  0  0  0
 21 49  1  0  0  0
 22 23  1  0  0  0
 22 50  1  0  0  0
 23 24  2  0  0  0
 25 26  1  0  0  0
 25 29  1  0  0  0
 25 51  1  0  0  0
 26 27  1  0  0  0
 26 52  1  0  0  0
 26 53  1  0  0  0
 27 28  1  0  0  0
 27 54  1  0  0  0
 27 55  1  0  0  0
 28 29  1  0  0  0
 28 56  1  0  0  0
 28 57  1  0  0  0
 29 58  1  0  0  0
 29 59  1  0  0  0
M  END
> <s_m_entry_id>
4760

> <s_m_entry_name>
dock_pv.79

> <s_m_Source_Path>
/home/csk/Desktop/cluster/DUD-E-result/hs90a

> <s_m_Source_File>
dock_pv.maegz

> <i_m_Source_File_Index>
79

> <chembl_id>
CHEMBL3235353

> <chembl_pref_name>
None

> <i_lp_mmshare_version>
53161

> <r_lp_tautomer_probability>
0.99995

> <s_lp_Force_Field>
OPLS_2005

> <r_lp_Energy>
51.434888

> <b_lp_Chiralities_Consistent>
1

> <s_lp_Variant>
CHEMBL3880_lig133-1

> <s_i_glide_gridfile>
glide-grid_1uyg

> <i_i_glide_lignum>
150

> <i_i_glide_rotatable_bonds>
2

> <r_i_docking_score>
-9.03391098076949

> <r_i_glide_ligand_efficiency>
-0.311514171750672

> <r_i_glide_ligand_efficiency_sa>
-0.957070230234935

> <r_i_glide_ligand_efficiency_ln>
-2.06853653437932

> <r_i_glide_gscore>
-9.03391098076949

> <r_i_glide_lipo>
-4.27386970156369

> <r_i_glide_hbond>
-0.16

> <r_i_glide_metal>
0

> <r_i_glide_rewards>
-2.07523531051837

> <r_i_glide_evdw>
-43.8564224243164

> <r_i_glide_ecoul>
-3.50850081443787

> <r_i_glide_erotb>
0.255799843532034

> <r_i_glide_esite>
-0.0615095688379616

> <r_i_glide_emodel>
-60.029856638859

> <r_i_glide_energy>
-47.3649232387543

> <r_i_glide_einternal>
0.234697997570038

> <i_i_glide_confnum>
77

> <i_i_glide_posenum>
70

> <r_i_glide_eff_state_penalty>
0

> <s_user_duplicate_titles>
CHEMBL3880_lig133

> <i_f3d_flags>
0

> <s_m_subgroup_title>
dock_pv

> <s_m_subgroupid>
dock_pv

> <b_m_subgroup_collapsed>
1

$$$$
CHEMBL3880_lig890
                    3D
 Schrodinger Suite 2021-1.
 45 47  0  0  1  0            999 V2000
    3.1168   12.1090   23.5949 C   0  0  0  0  0  0
    4.3484   12.5648   23.9363 N   0  0  0  0  0  0
    3.1341   10.8657   23.1705 N   0  0  0  0  0  0
    4.4340   10.5222   23.1669 C   0  0  0  0  0  0
    5.2249   11.5629   23.6166 C   0  0  0  0  0  0
    1.6852   13.1490   23.5671 S   0  0  0  0  0  0
    5.1043    9.3556   22.7244 C   0  0  0  0  0  0
    6.5815   11.5645   23.6718 N   0  0  0  0  0  0
    0.3844   12.0255   24.0009 C   0  0  0  0  0  0
    6.4608    9.3212   22.7826 N   0  0  0  0  0  0
    6.1403   15.3969   26.7724 C   0  0  0  0  0  0
    7.2727   15.1690   27.1671 C   0  0  0  0  0  0
    0.5091   11.2137   25.1340 C   0  0  0  0  0  0
    7.0969   10.4035   23.2448 C   0  0  0  0  0  0
   -0.8079   12.0383   23.2627 C   0  0  0  0  0  0
    4.7326   13.9300   24.3669 C   0  0  0  0  0  0
   -1.8904   11.2874   23.7314 C   0  0  0  0  0  0
    4.4612    8.2501   22.1807 N   0  0  0  0  0  0
   -0.5752   10.4467   25.5839 C   0  0  0  0  0  0
   -1.7807   10.5277   24.8906 C   0  0  0  0  0  0
   -0.8573   12.7691   22.0909 O   0  0  0  0  0  0
   -0.5417    9.6168   26.6858 O   0  0  0  0  0  0
    4.7611   15.6250   26.3080 C   0  0  0  0  0  0
    4.0928   14.3783   25.6955 C   0  0  0  0  0  0
   -2.1254   13.1703   21.5774 C   0  0  0  0  0  0
    0.7210    9.1613   27.1585 C   0  0  0  0  0  0
    8.2491   14.9569   27.5413 H   0  0  0  0  0  0
    1.4407   11.2149   25.6772 H   0  0  0  0  0  0
    8.1753   10.3366   23.2695 H   0  0  0  0  0  0
    5.8219   13.9478   24.4143 H   0  0  0  0  0  0
    4.4356   14.5994   23.5669 H   0  0  0  0  0  0
   -2.8251   11.2739   23.1960 H   0  0  0  0  0  0
    3.4584    8.2587   22.0560 H   0  0  0  0  0  0
    5.0348    7.4926   21.8383 H   0  0  0  0  0  0
   -2.6400    9.9690   25.2265 H   0  0  0  0  0  0
    4.7842   16.4453   25.5894 H   0  0  0  0  0  0
    4.1818   15.9769   27.1611 H   0  0  0  0  0  0
    3.0514   14.6293   25.5110 H   0  0  0  0  0  0
    4.0838   13.5622   26.4163 H   0  0  0  0  0  0
   -1.9765   13.8848   20.7674 H   0  0  0  0  0  0
   -2.6787   12.3290   21.1673 H   0  0  0  0  0  0
   -2.7383   13.6570   22.3385 H   0  0  0  0  0  0
    0.5657    8.4364   27.9569 H   0  0  0  0  0  0
    1.2861    8.6660   26.3676 H   0  0  0  0  0  0
    1.3231    9.9690   27.5666 H   0  0  0  0  0  0
  1  2  1  0  0  0
  1  3  2  0  0  0
  1  6  1  0  0  0
  2  5  1  0  0  0
  2 16  1  0  0  0
  3  4  1  0  0  0
  4  7  2  0  0  0
  4  5  1  0  0  0
  5  8  2  0  0  0
  6  9  1  0  0  0
  7 10  1  0  0  0
  7 18  1  0  0  0
  8 14  1  0  0  0
  9 13  2  0  0  0
  9 15  1  0  0  0
 10 14  2  0  0  0
 11 23  1  0  0  0
 11 12  3  0  0  0
 12 27  1  0  0  0
 13 19  1  0  0  0
 13 28  1  0  0  0
 14 29  1  0  0  0
 15 17  2  0  0  0
 15 21  1  0  0  0
 16 24  1  0  0  0
 16 30  1  0  0  0
 16 31  1  0  0  0
 17 20  1  0  0  0
 17 32  1  0  0  0
 18 33  1  0  0  0
 18 34  1  0  0  0
 19 22  1  0  0  0
 19 20  2  0  0  0
 20 35  1  0  0  0
 21 25  1  0  0  0
 22 26  1  0  0  0
 23 24  1  0  0  0
 23 36  1  0  0  0
 23 37  1  0  0  0
 24 38  1  0  0  0
 24 39  1  0  0  0
 25 40  1  0  0  0
 25 41  1  0  0  0
 25 42  1  0  0  0
 26 43  1  0  0  0
 26 44  1  0  0  0
 26 45  1  0  0  0
M  END
> <s_m_entry_id>
4761

> <s_m_entry_name>
dock_pv.80

> <s_m_Source_Path>
/home/csk/Desktop/cluster/DUD-E-result/hs90a

> <s_m_Source_File>
dock_pv.maegz

> <i_m_Source_File_Index>
80

> <chembl_id>
CHEMBL273986

> <chembl_pref_name>
None

> <i_lp_mmshare_version>
53161

> <r_lp_tautomer_probability>
0.999997216410988

> <s_lp_Force_Field>
OPLS_2005

> <r_lp_Energy>
16.829773

> <b_lp_Chiralities_Consistent>
1

> <s_lp_Variant>
CHEMBL3880_lig890-1

> <s_i_glide_gridfile>
glide-grid_1uyg

> <i_i_glide_lignum>
996

> <i_i_glide_rotatable_bonds>
8

> <r_i_docking_score>
-9.01835734103903

> <r_i_glide_ligand_efficiency>
-0.34685989773227

> <r_i_glide_ligand_efficiency_sa>
-1.02757108220406

> <r_i_glide_ligand_efficiency_ln>
-2.11793162989898

> <r_i_glide_gscore>
-9.01835734103903

> <r_i_glide_lipo>
-4.05547154513104

> <r_i_glide_hbond>
0

> <r_i_glide_metal>
0

> <r_i_glide_rewards>
-2.50393915770889

> <r_i_glide_evdw>
-51.5041732788086

> <r_i_glide_ecoul>
-4.87556934356689

> <r_i_glide_erotb>
0.847597427276363

> <r_i_glide_esite>
0

> <r_i_glide_emodel>
-82.7454683993311

> <r_i_glide_energy>
-56.3797426223755

> <r_i_glide_einternal>
2.64598798751831

> <i_i_glide_confnum>
89

> <i_i_glide_posenum>
123

> <r_i_glide_eff_state_penalty>
0

> <s_user_duplicate_titles>
CHEMBL3880_lig890,320908

> <i_f3d_flags>
0

> <s_m_subgroup_title>
dock_pv

> <s_m_subgroupid>
dock_pv

> <b_m_subgroup_collapsed>
1

$$$$
CHEMBL3880_lig323
                    3D
 Schrodinger Suite 2021-1.
 46 50  0  0  1  0            999 V2000
    3.1816    7.6308   22.8812 C   0  0  0  0  0  0
    4.0612    7.8433   21.8227 C   0  0  0  0  0  0
    4.9611    8.9065   21.8511 C   0  0  0  0  0  0
    5.0855    9.7015   22.9993 C   0  0  0  0  0  0
    4.2193    9.4612   24.0744 C   0  0  0  0  0  0
    3.2366    8.4757   23.9946 C   0  0  0  0  0  0
    2.2312    6.6499   22.7699 O   0  0  0  0  0  0
    5.6729    9.1681   20.7128 O   0  0  0  0  0  0
    6.1909   10.7242   23.1283 C   0  0  0  0  0  0
    7.3465   10.3919   22.8561 O   0  0  0  0  0  0
    2.2890    8.4009   25.0271 N   0  0  0  0  0  0
    1.1848    7.6975   26.8634 C   0  0  0  0  0  0
    2.2170    7.4206   25.9901 C   0  0  0  0  0  0
    0.5530    8.8967   26.3979 C   0  0  0  0  0  0
    1.2737    9.3232   25.2416 C   0  0  0  0  0  0
    0.9138   10.4753   24.5249 C   0  0  0  0  0  0
   -0.2130   11.1720   24.9591 C   0  0  0  0  0  0
   -0.9321   10.7713   26.0794 C   0  0  0  0  0  0
   -0.5463    9.6596   26.8233 C   0  0  0  0  0  0
    5.8852   11.9673   23.5698 N   0  0  0  0  0  0
    6.9333   12.9117   23.9662 C   0  0  0  0  0  0
    4.5403   12.5323   23.7410 C   0  0  0  0  0  0
    4.7972   13.7611   24.5641 C   0  0  0  0  0  0
    6.1642   13.9689   24.7152 C   0  0  0  0  0  0
    6.6301   15.0183   25.5017 C   0  0  0  0  0  0
    5.7097   15.8454   26.1404 C   0  0  0  0  0  0
    4.3453   15.6597   25.9677 C   0  0  0  0  0  0
    3.8822   14.6193   25.1672 C   0  0  0  0  0  0
   -1.5390    9.1692   28.3670 Br  0  0  0  0  0  0
    3.9858    7.2291   20.9369 H   0  0  0  0  0  0
    4.3045   10.0338   24.9887 H   0  0  0  0  0  0
    2.1640    6.2951   21.8787 H   0  0  0  0  0  0
    6.0109    8.3339   20.3677 H   0  0  0  0  0  0
    0.9068    7.1012   27.7197 H   0  0  0  0  0  0
    2.9284    6.6070   25.9728 H   0  0  0  0  0  0
    1.4573   10.7913   23.6463 H   0  0  0  0  0  0
   -0.5439   12.0408   24.4077 H   0  0  0  0  0  0
   -1.8118   11.3255   26.3712 H   0  0  0  0  0  0
    7.4572   13.3062   23.0955 H   0  0  0  0  0  0
    7.6791   12.4200   24.5933 H   0  0  0  0  0  0
    3.8390   11.8815   24.2528 H   0  0  0  0  0  0
    4.0948   12.7678   22.7757 H   0  0  0  0  0  0
    7.6874   15.1868   25.6436 H   0  0  0  0  0  0
    6.0581   16.6459   26.7670 H   0  0  0  0  0  0
    3.6612   16.3261   26.4667 H   0  0  0  0  0  0
    2.8215   14.4707   25.0453 H   0  0  0  0  0  0
  1  2  2  0  0  0
  1  6  1  0  0  0
  1  7  1  0  0  0
  2  3  1  0  0  0
  2 30  1  0  0  0
  3  4  2  0  0  0
  3  8  1  0  0  0
  4  5  1  0  0  0
  4  9  1  0  0  0
  5  6  2  0  0  0
  5 31  1  0  0  0
  6 11  1  0  0  0
  7 32  1  0  0  0
  8 33  1  0  0  0
  9 10  2  0  0  0
  9 20  1  0  0  0
 11 15  1  0  0  0
 11 13  1  0  0  0
 12 14  1  0  0  0
 12 13  2  0  0  0
 12 34  1  0  0  0
 13 35  1  0  0  0
 14 15  2  0  0  0
 14 19  1  0  0  0
 15 16  1  0  0  0
 16 17  2  0  0  0
 16 36  1  0  0  0
 17 18  1  0  0  0
 17 37  1  0  0  0
 18 19  2  0  0  0
 18 38  1  0  0  0
 19 29  1  0  0  0
 20 21  1  0  0  0
 20 22  1  0  0  0
 21 24  1  0  0  0
 21 39  1  0  0  0
 21 40  1  0  0  0
 22 23  1  0  0  0
 22 41  1  0  0  0
 22 42  1  0  0  0
 23 24  2  0  0  0
 23 28  1  0  0  0
 24 25  1  0  0  0
 25 26  2  0  0  0
 25 43  1  0  0  0
 26 27  1  0  0  0
 26 44  1  0  0  0
 27 28  2  0  0  0
 27 45  1  0  0  0
 28 46  1  0  0  0
M  END
> <s_m_entry_id>
4762

> <s_m_entry_name>
dock_pv.81

> <s_m_Source_Path>
/home/csk/Desktop/cluster/DUD-E-result/hs90a

> <s_m_Source_File>
dock_pv.maegz

> <i_m_Source_File_Index>
81

> <chembl_id>
CHEMBL3260486

> <chembl_pref_name>
None

> <i_lp_mmshare_version>
53161

> <r_lp_tautomer_probability>
1

> <s_lp_Force_Field>
OPLS_2005

> <r_lp_Energy>
38.770476

> <b_lp_Chiralities_Consistent>
1

> <s_lp_Variant>
CHEMBL3880_lig323-1

> <s_i_glide_gridfile>
glide-grid_1uyg

> <i_i_glide_lignum>
360

> <i_i_glide_rotatable_bonds>
5

> <r_i_docking_score>
-9.01676413855413

> <r_i_glide_ligand_efficiency>
-0.310922901329453

> <r_i_glide_ligand_efficiency_sa>
-0.955253660173331

> <r_i_glide_ligand_efficiency_ln>
-2.06461034231841

> <r_i_glide_gscore>
-9.01676413855413

> <r_i_glide_lipo>
-4.51051798101142

> <r_i_glide_hbond>
0

> <r_i_glide_metal>
0

> <r_i_glide_rewards>
-1.91665196874498

> <r_i_glide_evdw>
-44.6368446350098

> <r_i_glide_ecoul>
-4.37044906616211

> <r_i_glide_erotb>
0.297815402877072

> <r_i_glide_esite>
0

> <r_i_glide_emodel>
-68.5563876030179

> <r_i_glide_energy>
-49.0072937011719

> <r_i_glide_einternal>
9.52185535430908

> <i_i_glide_confnum>
12

> <i_i_glide_posenum>
102

> <r_i_glide_eff_state_penalty>
0

> <s_user_duplicate_titles>
CHEMBL3880_lig323

> <i_f3d_flags>
0

> <s_m_subgroup_title>
dock_pv

> <s_m_subgroupid>
dock_pv

> <b_m_subgroup_collapsed>
1

$$$$
CHEMBL3880_lig385
                    3D
 Schrodinger Suite 2021-1.
 46 49  0  0  1  0            999 V2000
   -1.2556   11.2005   25.1053 N   0  0  0  0  0  0
   -0.9296   11.9192   24.0078 C   0  0  0  0  0  0
    0.2875   11.9772   23.4269 N   0  0  0  0  0  0
   -0.2635   10.4600   25.6683 C   0  0  0  0  0  0
    1.0418   10.4380   25.1304 C   0  0  0  0  0  0
    1.2574   11.1946   23.9652 C   0  0  0  0  0  0
    2.6137   11.1597   23.2957 C   0  0  0  0  0  0
    3.7406   10.9362   24.3375 C   0  0  1  0  0  0
    3.3664    9.7796   25.1787 N   0  0  0  0  0  0
    2.1391    9.5640   25.7001 C   0  0  0  0  0  0
    5.0991   10.8151   23.6283 C   0  0  0  0  0  0
    6.0746   11.8491   23.5662 C   0  0  0  0  0  0
    7.2619   11.5765   22.8620 C   0  0  0  0  0  0
    7.5179   10.3394   22.2871 C   0  0  0  0  0  0
    6.5734    9.3334   22.3838 C   0  0  0  0  0  0
    5.3715    9.5739   23.0316 C   0  0  0  0  0  0
   -0.6890    9.7105   26.9254 C   0  0  0  0  0  0
    1.9976    8.6524   26.5110 O   0  0  0  0  0  0
   -1.9394   12.6541   23.4157 N   0  0  0  0  0  0
    5.9639   13.1879   24.2449 C   0  0  0  0  0  0
    7.1280   13.6393   24.8000 N   0  0  0  0  0  0
    7.1150   14.7650   25.5677 C   0  0  0  0  0  0
    5.9491   15.4985   25.7725 C   0  0  0  0  0  0
    4.7720   15.0890   25.1495 C   0  0  0  0  0  0
    4.7796   13.9344   24.3649 C   0  0  0  0  0  0
    8.2745   15.1688   26.1976 O   0  0  0  0  0  0
    9.4681   14.4072   26.0408 C   0  0  0  0  0  0
    2.7797   12.0682   22.7172 H   0  0  0  0  0  0
    2.6078   10.3366   22.5798 H   0  0  0  0  0  0
    3.7826   11.7580   25.0462 H   0  0  0  0  0  0
    4.0988    9.1777   25.5177 H   0  0  0  0  0  0
    8.0303   12.3313   22.7775 H   0  0  0  0  0  0
    8.4549   10.1586   21.7824 H   0  0  0  0  0  0
    6.7723    8.3641   21.9664 H   0  0  0  0  0  0
    4.6481    8.7711   23.0811 H   0  0  0  0  0  0
   -0.0112    9.9397   27.7462 H   0  0  0  0  0  0
   -1.6976    9.9736   27.2455 H   0  0  0  0  0  0
   -0.6624    8.6356   26.7515 H   0  0  0  0  0  0
   -1.7572   13.1415   22.5535 H   0  0  0  0  0  0
   -2.8880   12.5422   23.7692 H   0  0  0  0  0  0
    5.9630   16.3696   26.4077 H   0  0  0  0  0  0
    3.8628   15.6574   25.2751 H   0  0  0  0  0  0
    3.8692   13.6296   23.8785 H   0  0  0  0  0  0
   10.2608   14.8470   26.6456 H   0  0  0  0  0  0
    9.3330   13.3750   26.3657 H   0  0  0  0  0  0
    9.7986   14.4120   25.0022 H   0  0  0  0  0  0
  1  2  2  0  0  0
  1  4  1  0  0  0
  2  3  1  0  0  0
  2 19  1  0  0  0
  3  6  2  0  0  0
  4  5  2  0  0  0
  4 17  1  0  0  0
  5  6  1  0  0  0
  5 10  1  0  0  0
  6  7  1  0  0  0
  7  8  1  0  0  0
  7 28  1  0  0  0
  7 29  1  0  0  0
  8  9  1  0  0  0
  8 11  1  0  0  0
  8 30  1  0  0  0
  9 10  1  0  0  0
  9 31  1  0  0  0
 10 18  2  0  0  0
 11 12  2  0  0  0
 11 16  1  0  0  0
 12 13  1  0  0  0
 12 20  1  0  0  0
 13 14  2  0  0  0
 13 32  1  0  0  0
 14 15  1  0  0  0
 14 33  1  0  0  0
 15 16  2  0  0  0
 15 34  1  0  0  0
 16 35  1  0  0  0
 17 36  1  0  0  0
 17 37  1  0  0  0
 17 38  1  0  0  0
 19 39  1  0  0  0
 19 40  1  0  0  0
 20 21  2  0  0  0
 20 25  1  0  0  0
 21 22  1  0  0  0
 22 23  2  0  0  0
 22 26  1  0  0  0
 23 24  1  0  0  0
 23 41  1  0  0  0
 24 25  2  0  0  0
 24 42  1  0  0  0
 25 43  1  0  0  0
 26 27  1  0  0  0
 27 44  1  0  0  0
 27 45  1  0  0  0
 27 46  1  0  0  0
M  END
> <s_m_entry_id>
4763

> <s_m_entry_name>
dock_pv.82

> <s_m_Source_Path>
/home/csk/Desktop/cluster/DUD-E-result/hs90a

> <s_m_Source_File>
dock_pv.maegz

> <i_m_Source_File_Index>
82

> <chembl_id>
CHEMBL3360304

> <chembl_pref_name>
None

> <i_lp_mmshare_version>
53161

> <r_lp_tautomer_probability>
0.999999987636

> <s_lp_Force_Field>
OPLS_2005

> <r_lp_Energy>
20.09047

> <b_lp_Chiralities_Consistent>
1

> <s_lp_Variant>
CHEMBL3880_lig385-1

> <s_i_glide_gridfile>
glide-grid_1uyg

> <i_i_glide_lignum>
427

> <i_i_glide_rotatable_bonds>
3

> <r_i_docking_score>
-9.01578879427018

> <r_i_glide_ligand_efficiency>
-0.333918103491488

> <r_i_glide_ligand_efficiency_sa>
-1.00175430937393

> <r_i_glide_ligand_efficiency_ln>
-2.09872699441122

> <r_i_glide_gscore>
-9.01578879427018

> <r_i_glide_lipo>
-4.5258004564771

> <r_i_glide_hbond>
-0.134802506424392

> <r_i_glide_metal>
0

> <r_i_glide_rewards>
-1.89274730499041

> <r_i_glide_evdw>
-46.5096626281738

> <r_i_glide_ecoul>
-2.87208437919617

> <r_i_glide_erotb>
0.293857261909834

> <r_i_glide_esite>
0

> <r_i_glide_emodel>
-74.8070705076225

> <r_i_glide_energy>
-49.38174700737

> <r_i_glide_einternal>
1.65948057174683

> <i_i_glide_confnum>
4

> <i_i_glide_posenum>
292

> <r_i_glide_eff_state_penalty>
0

> <s_user_duplicate_titles>
CHEMBL3880_lig385

> <i_f3d_flags>
0

> <s_m_subgroup_title>
dock_pv

> <s_m_subgroupid>
dock_pv

> <b_m_subgroup_collapsed>
1

$$$$
CHEMBL3880_lig196
                    3D
 Schrodinger Suite 2021-1.
 66 70  0  0  1  0            999 V2000
    7.3366   10.0613   23.3290 C   0  0  0  0  0  0
    6.1465   10.9813   23.5202 C   0  0  0  0  0  0
    4.7969   10.5988   23.4276 C   0  0  0  0  0  0
    4.0179   11.7020   23.7210 N   0  0  0  0  0  0
    4.8364   12.7688   23.9863 C   0  0  0  0  0  0
    6.1557   12.3231   23.9670 C   0  0  0  0  0  0
    7.2553   13.1689   24.4471 C   0  0  0  0  0  0
    8.3692   12.7688   24.7667 O   0  0  0  0  0  0
    6.8794   14.6279   24.6550 C   0  0  0  0  0  0
    5.4402   14.9091   25.2054 C   0  0  0  0  0  0
    4.3271   14.1287   24.4588 C   0  0  0  0  0  0
    5.2621   16.3723   24.9662 C   0  0  0  0  0  0
    5.2998   14.7690   26.7349 C   0  0  0  0  0  0
    2.6223   11.7456   23.8050 C   0  0  0  0  0  0
    1.8646   12.3311   22.8011 C   0  0  0  0  0  0
    0.4768   12.3315   22.8774 C   0  0  0  0  0  0
   -0.1786   11.7409   23.9711 C   0  0  0  0  0  0
    0.6121   11.2033   25.0181 C   0  0  0  0  0  0
    1.9999   11.2318   24.9287 C   0  0  0  0  0  0
    0.0954   10.6406   26.1901 N   0  0  0  0  0  0
   -0.2275    9.2263   26.0736 C   0  0  0  0  0  0
    0.8203    8.2378   26.6438 C   0  0  1  0  0  0
    0.3269    6.7841   26.6747 C   0  0  0  0  0  0
    1.6130    5.9686   26.8152 C   0  0  0  0  0  0
    2.7266    7.0239   26.8359 C   0  0  0  0  0  0
    2.2072    8.2110   26.1536 N   0  0  1  0  0  0
    2.3884    8.1205   24.6904 C   0  0  0  0  0  0
    3.8820    8.3527   24.3094 C   0  0  0  0  0  0
    4.1717    9.2428   23.0721 C   0  0  0  0  0  0
   -1.6871   11.6898   23.9917 C   0  0  0  0  0  0
   -2.3045   10.7659   24.5108 O   0  0  0  0  0  0
   -2.3390   12.7185   23.4498 N   0  0  0  0  0  0
    0.8561    8.5580   27.6889 H   0  0  0  0  0  0
    8.1775   10.3198   23.9721 H   0  0  0  0  0  0
    7.0919    9.0285   23.5773 H   0  0  0  0  0  0
    7.6981   10.0772   22.3025 H   0  0  0  0  0  0
    6.9976   15.0569   23.6553 H   0  0  0  0  0  0
    7.6433   15.0911   25.2789 H   0  0  0  0  0  0
    3.4141   14.0621   25.0509 H   0  0  0  0  0  0
    4.0385   14.6766   23.5671 H   0  0  0  0  0  0
    4.3058   16.7698   25.3026 H   0  0  0  0  0  0
    6.0467   16.7726   25.5902 H   0  0  0  0  0  0
    5.4733   16.7209   23.9670 H   0  0  0  0  0  0
    4.7190   15.5843   27.1661 H   0  0  0  0  0  0
    4.7323   13.8973   27.0240 H   0  0  0  0  0  0
    6.2645   14.7692   27.2431 H   0  0  0  0  0  0
    2.3664   12.7689   21.9650 H   0  0  0  0  0  0
   -0.0807   12.7666   22.0602 H   0  0  0  0  0  0
    2.6007   10.8176   25.7256 H   0  0  0  0  0  0
    0.6825   10.8007   26.9967 H   0  0  0  0  0  0
   -0.5068    8.9534   25.0526 H   0  0  0  0  0  0
   -1.1390    9.1514   26.6648 H   0  0  0  0  0  0
   -0.3028    6.6149   27.5523 H   0  0  0  0  0  0
   -0.2566    6.5184   25.7905 H   0  0  0  0  0  0
    1.6211    5.3754   27.7304 H   0  0  0  0  0  0
    1.7409    5.2813   25.9766 H   0  0  0  0  0  0
    3.0821    7.2681   27.8393 H   0  0  0  0  0  0
    3.6084    6.6380   26.3206 H   0  0  0  0  0  0
    2.0615    7.1400   24.3371 H   0  0  0  0  0  0
    1.7453    8.8288   24.1720 H   0  0  0  0  0  0
    4.4603    8.6981   25.1657 H   0  0  0  0  0  0
    4.3049    7.3682   24.1084 H   0  0  0  0  0  0
    4.8649    8.7060   22.4221 H   0  0  0  0  0  0
    3.2734    9.3571   22.4628 H   0  0  0  0  0  0
   -3.3511   12.7126   23.5641 H   0  0  0  0  0  0
   -1.8635   13.5048   23.0411 H   0  0  0  0  0  0
  1  2  1  0  0  0
  1 34  1  0  0  0
  1 35  1  0  0  0
  1 36  1  0  0  0
  2  3  2  0  0  0
  2  6  1  0  0  0
  3 29  1  0  0  0
  3  4  1  0  0  0
  4  5  1  0  0  0
  4 14  1  0  0  0
  5  6  2  0  0  0
  5 11  1  0  0  0
  6  7  1  0  0  0
  7  8  2  0  0  0
  7  9  1  0  0  0
  9 10  1  0  0  0
  9 37  1  0  0  0
  9 38  1  0  0  0
 10 11  1  0  0  0
 10 13  1  0  0  0
 10 12  1  0  0  0
 11 39  1  0  0  0
 11 40  1  0  0  0
 12 41  1  0  0  0
 12 42  1  0  0  0
 12 43  1  0  0  0
 13 44  1  0  0  0
 13 45  1  0  0  0
 13 46  1  0  0  0
 14 15  1  0  0  0
 14 19  2  0  0  0
 15 16  2  0  0  0
 15 47  1  0  0  0
 16 17  1  0  0  0
 16 48  1  0  0  0
 17 30  1  0  0  0
 17 18  2  0  0  0
 18 19  1  0  0  0
 18 20  1  0  0  0
 19 49  1  0  0  0
 20 21  1  0  0  0
 20 50  1  0  0  0
 21 22  1  0  0  0
 21 51  1  0  0  0
 21 52  1  0  0  0
 22 26  1  0  0  0
 22 23  1  0  0  0
 22 33  1  0  0  0
 23 24  1  0  0  0
 23 53  1  0  0  0
 23 54  1  0  0  0
 24 25  1  0  0  0
 24 55  1  0  0  0
 24 56  1  0  0  0
 25 26  1  0  0  0
 25 57  1  0  0  0
 25 58  1  0  0  0
 26 27  1  0  0  0
 27 28  1  0  0  0
 27 59  1  0  0  0
 27 60  1  0  0  0
 28 29  1  0  0  0
 28 61  1  0  0  0
 28 62  1  0  0  0
 29 63  1  0  0  0
 29 64  1  0  0  0
 30 32  1  0  0  0
 30 31  2  0  0  0
 32 65  1  0  0  0
 32 66  1  0  0  0
M  END
> <s_m_entry_id>
4764

> <s_m_entry_name>
dock_pv.83

> <s_m_Source_Path>
/home/csk/Desktop/cluster/DUD-E-result/hs90a

> <s_m_Source_File>
dock_pv.maegz

> <i_m_Source_File_Index>
83

> <chembl_id>
CHEMBL1738705

> <chembl_pref_name>
None

> <i_lp_mmshare_version>
53161

> <r_lp_tautomer_probability>
0.99995

> <s_lp_Force_Field>
OPLS_2005

> <r_lp_Energy>
66.210778

> <b_lp_Chiralities_Consistent>
1

> <s_lp_Variant>
CHEMBL3880_lig196-1

> <s_i_glide_gridfile>
glide-grid_1uyg

> <i_i_glide_lignum>
230

> <i_i_glide_rotatable_bonds>
1

> <r_i_docking_score>
-9.01248423345134

> <r_i_glide_ligand_efficiency>
-0.281640132295354

> <r_i_glide_ligand_efficiency_sa>
-0.894151683531252

> <r_i_glide_ligand_efficiency_ln>
-2.01814089091142

> <r_i_glide_gscore>
-9.01248423345134

> <r_i_glide_lipo>
-4.58865896068802

> <r_i_glide_hbond>
-0.16

> <r_i_glide_metal>
0

> <r_i_glide_rewards>
-1.87136287226408

> <r_i_glide_evdw>
-38.739818572998

> <r_i_glide_ecoul>
-2.70182418823242

> <r_i_glide_erotb>
0

> <r_i_glide_esite>
-0.0501978436144732

> <r_i_glide_emodel>
-57.0036928901174

> <r_i_glide_energy>
-41.4416427612305

> <r_i_glide_einternal>
0.710218846797943

> <i_i_glide_confnum>
1

> <i_i_glide_posenum>
7

> <r_i_glide_eff_state_penalty>
0

> <s_user_duplicate_titles>
CHEMBL3880_lig196

> <i_f3d_flags>
0

> <s_m_subgroup_title>
dock_pv

> <s_m_subgroupid>
dock_pv

> <b_m_subgroup_collapsed>
1

$$$$
CHEMBL3880_lig456
                    3D
 Schrodinger Suite 2021-1.
 68 71  0  0  1  0            999 V2000
    9.4652   14.2509   26.0046 C   0  0  0  0  0  0
    8.3247   15.0948   26.1339 O   0  0  0  0  0  0
    7.1343   14.7338   25.5286 C   0  0  0  0  0  0
    6.0140   15.5342   25.7378 C   0  0  0  0  0  0
    4.8153   15.1927   25.1230 C   0  0  0  0  0  0
    4.7505   14.0298   24.3583 C   0  0  0  0  0  0
    5.8833   13.2084   24.2282 C   0  0  0  0  0  0
    7.0764   13.5996   24.7699 N   0  0  0  0  0  0
    5.8962   11.8417   23.5778 C   0  0  0  0  0  0
    7.0921   11.4258   22.9572 C   0  0  0  0  0  0
    7.2690   10.1351   22.4772 C   0  0  0  0  0  0
    8.4581    9.7631   21.9570 F   0  0  0  0  0  0
    6.2314    9.2219   22.5608 C   0  0  0  0  0  0
    5.0267    9.6010   23.1349 C   0  0  0  0  0  0
    4.8370   10.8872   23.6682 C   0  0  0  0  0  0
    3.4671   11.1507   24.3308 C   0  0  1  0  0  0
    2.3842   11.4102   23.2291 C   0  0  0  0  0  0
    0.9835   11.4175   23.8286 C   0  0  0  0  0  0
    0.0251   12.1844   23.2398 N   0  0  0  0  0  0
   -1.2053   12.1535   23.7956 C   0  0  0  0  0  0
   -2.2223   12.8497   23.1590 N   0  0  0  0  0  0
   -1.5371   11.5026   24.9302 N   0  0  0  0  0  0
   -0.5637   10.7780   25.5378 C   0  0  0  0  0  0
   -0.9976   10.1965   26.8779 C   0  0  0  0  0  0
    0.7339   10.6550   24.9875 C   0  0  0  0  0  0
    1.8673    9.8588   25.5204 C   0  0  0  0  0  0
    3.1047   10.0685   25.2588 N   0  0  0  0  0  0
    1.5184    8.7533   26.3439 N   0  0  0  0  0  0
    2.2590    8.6556   27.5775 O   0  0  0  0  0  0
    2.6627    7.3069   27.8911 C   0  0  1  0  0  0
    1.4724    6.3130   28.0376 C   0  0  0  0  0  0
    0.5484    6.5754   29.2401 C   0  0  0  0  0  0
    1.2326    6.3402   30.4578 O   0  0  0  0  0  0
    3.7495    6.7680   26.9087 C   0  0  0  0  0  0
    3.5069    6.7572   25.6982 O   0  0  0  0  0  0
    4.9479    6.3344   27.3857 N   0  0  0  0  0  0
    6.0625    6.0072   26.4855 C   0  0  0  0  0  0
    5.2972    6.1590   28.8003 C   0  0  0  0  0  0
   10.2814   14.6581   26.5986 H   0  0  0  0  0  0
    9.2649   13.2409   26.3638 H   0  0  0  0  0  0
    9.7989   14.1990   24.9668 H   0  0  0  0  0  0
    6.0685   16.4084   26.3651 H   0  0  0  0  0  0
    3.9496   15.8304   25.2472 H   0  0  0  0  0  0
    3.8213   13.7888   23.8711 H   0  0  0  0  0  0
    7.9336   12.0992   22.8806 H   0  0  0  0  0  0
    6.3645    8.2110   22.2077 H   0  0  0  0  0  0
    4.2407    8.8598   23.2008 H   0  0  0  0  0  0
    3.5578   12.0073   24.9873 H   0  0  0  0  0  0
    2.4211   10.6012   22.4967 H   0  0  0  0  0  0
    2.5799   12.3269   22.6726 H   0  0  0  0  0  0
   -3.1633   12.7662   23.5429 H   0  0  0  0  0  0
   -2.0513   13.2814   22.2654 H   0  0  0  0  0  0
   -0.2497   10.3843   27.6458 H   0  0  0  0  0  0
   -1.9337   10.6349   27.2314 H   0  0  0  0  0  0
   -1.1393    9.1222   26.8026 H   0  0  0  0  0  0
    0.5526    8.6868   26.6150 H   0  0  0  0  0  0
    3.1168    7.4498   28.8674 H   0  0  0  0  0  0
    1.8438    5.2906   28.1259 H   0  0  0  0  0  0
    0.8773    6.3145   27.1248 H   0  0  0  0  0  0
   -0.3399    5.9490   29.1767 H   0  0  0  0  0  0
    0.2125    7.6135   29.2454 H   0  0  0  0  0  0
    1.7469    7.1241   30.6802 H   0  0  0  0  0  0
    5.8252    6.1661   25.4331 H   0  0  0  0  0  0
    6.9369    6.6183   26.7161 H   0  0  0  0  0  0
    6.3511    4.9650   26.6066 H   0  0  0  0  0  0
    5.9020    6.9937   29.1558 H   0  0  0  0  0  0
    4.4411    6.0450   29.4632 H   0  0  0  0  0  0
    5.8902    5.2502   28.9240 H   0  0  0  0  0  0
  1  2  1  0  0  0
  1 39  1  0  0  0
  1 40  1  0  0  0
  1 41  1  0  0  0
  2  3  1  0  0  0
  3  4  2  0  0  0
  3  8  1  0  0  0
  4  5  1  0  0  0
  4 42  1  0  0  0
  5  6  2  0  0  0
  5 43  1  0  0  0
  6  7  1  0  0  0
  6 44  1  0  0  0
  7  8  2  0  0  0
  7  9  1  0  0  0
  9 10  2  0  0  0
  9 15  1  0  0  0
 10 11  1  0  0  0
 10 45  1  0  0  0
 11 12  1  0  0  0
 11 13  2  0  0  0
 13 14  1  0  0  0
 13 46  1  0  0  0
 14 15  2  0  0  0
 14 47  1  0  0  0
 15 16  1  0  0  0
 16 17  1  0  0  0
 16 27  1  0  0  0
 16 48  1  0  0  0
 17 18  1  0  0  0
 17 49  1  0  0  0
 17 50  1  0  0  0
 18 19  2  0  0  0
 18 25  1  0  0  0
 19 20  1  0  0  0
 20 21  1  0  0  0
 20 22  2  0  0  0
 21 51  1  0  0  0
 21 52  1  0  0  0
 22 23  1  0  0  0
 23 24  1  0  0  0
 23 25  2  0  0  0
 24 53  1  0  0  0
 24 54  1  0  0  0
 24 55  1  0  0  0
 25 26  1  0  0  0
 26 27  2  0  0  0
 26 28  1  0  0  0
 28 29  1  0  0  0
 28 56  1  0  0  0
 29 30  1  0  0  0
 30 31  1  0  0  0
 30 34  1  0  0  0
 30 57  1  0  0  0
 31 32  1  0  0  0
 31 58  1  0  0  0
 31 59  1  0  0  0
 32 33  1  0  0  0
 32 60  1  0  0  0
 32 61  1  0  0  0
 33 62  1  0  0  0
 34 35  2  0  0  0
 34 36  1  0  0  0
 36 37  1  0  0  0
 36 38  1  0  0  0
 37 63  1  0  0  0
 37 64  1  0  0  0
 37 65  1  0  0  0
 38 66  1  0  0  0
 38 67  1  0  0  0
 38 68  1  0  0  0
M  END
> <s_m_entry_id>
4765

> <s_m_entry_name>
dock_pv.84

> <s_m_Source_Path>
/home/csk/Desktop/cluster/DUD-E-result/hs90a

> <s_m_Source_File>
dock_pv.maegz

> <i_m_Source_File_Index>
84

> <chembl_id>
CHEMBL3675271

> <chembl_pref_name>
None

> <i_lp_mmshare_version>
53161

> <r_lp_tautomer_probability>
1

> <s_lp_Force_Field>
OPLS_2005

> <r_lp_Energy>
23.075554

> <b_lp_Chiralities_Consistent>
1

> <s_lp_Variant>
CHEMBL3880_lig456-1

> <s_i_glide_gridfile>
glide-grid_1uyg

> <i_i_glide_lignum>
502

> <i_i_glide_rotatable_bonds>
11

> <r_i_docking_score>
-8.97990648659285

> <r_i_glide_ligand_efficiency>
-0.236313328594549

> <r_i_glide_ligand_efficiency_sa>
-0.794479598070346

> <r_i_glide_ligand_efficiency_ln>
-1.93633200059461

> <r_i_glide_gscore>
-8.97990648659285

> <r_i_glide_lipo>
-4.70945675443511

> <r_i_glide_hbond>
-0.16

> <r_i_glide_metal>
0

> <r_i_glide_rewards>
-1.27104789000142

> <r_i_glide_evdw>
-55.565860748291

> <r_i_glide_ecoul>
-4.33783864974976

> <r_i_glide_erotb>
0.60036093811491

> <r_i_glide_esite>
-0.010793945394221

> <r_i_glide_emodel>
-88.1999257232555

> <r_i_glide_energy>
-59.9036993980408

> <r_i_glide_einternal>
8.95799922943115

> <i_i_glide_confnum>
96

> <i_i_glide_posenum>
339

> <r_i_glide_eff_state_penalty>
0

> <s_user_duplicate_titles>
CHEMBL3880_lig456

> <i_f3d_flags>
0

> <s_m_subgroup_title>
dock_pv

> <s_m_subgroupid>
dock_pv

> <b_m_subgroup_collapsed>
1

$$$$
CHEMBL3880_lig950
                    3D
 Schrodinger Suite 2021-1.
 67 71  0  0  1  0            999 V2000
    5.1470    7.2124   22.4982 C   0  0  0  0  0  0
    5.4585    8.7291   22.4091 C   0  0  0  0  0  0
    5.3935    9.2995   20.9682 C   0  0  0  0  0  0
    0.8560   10.5288   25.1971 C   0  0  0  0  0  0
    2.2134   10.7682   24.9854 C   0  0  0  0  0  0
    2.6623   11.8122   24.1741 C   0  0  0  0  0  0
    1.7424   12.6809   23.5944 C   0  0  0  0  0  0
    0.3840   12.4802   23.8169 C   0  0  0  0  0  0
   -0.0778   11.4080   24.6056 C   0  0  0  0  0  0
   -1.5592   11.2370   24.8135 C   0  0  0  0  0  0
   -2.0240   10.8641   25.8889 O   0  0  0  0  0  0
   -2.3391   11.5662   23.7895 N   0  0  0  0  0  0
    4.0458   11.9317   23.9481 N   0  0  0  0  0  0
    4.8697   10.8794   23.6053 C   0  0  0  0  0  0
    6.1851   11.3169   23.5692 C   0  0  0  0  0  0
    7.2924   10.4113   23.2567 C   0  0  0  0  0  0
    6.8814    8.9458   23.0109 C   0  0  0  0  0  0
    4.3970    9.4650   23.2688 C   0  0  0  0  0  0
    8.4608   10.7694   23.1733 O   0  0  0  0  0  0
    6.1807   12.6697   23.9670 C   0  0  0  0  0  0
    4.8485   13.0392   24.1353 C   0  0  0  0  0  0
    4.3873   14.4394   24.5140 C   0  0  0  0  0  0
    5.4207   15.1884   25.2412 N   0  0  2  0  0  0
    6.7958   15.0464   24.7356 C   0  0  0  0  0  0
    7.3022   13.6355   24.3068 C   0  0  0  0  0  0
    5.2999   15.0133   26.6807 C   0  0  0  0  0  0
    0.4496    9.4303   25.9881 N   0  0  0  0  0  0
    1.2963    8.2616   26.2478 C   0  0  0  0  0  0
    2.0921    8.4349   27.5680 C   0  0  0  0  0  0
    1.2507    8.3145   28.8535 C   0  0  0  0  0  0
    0.4636    6.6822   28.9797 S   0  0  0  0  0  0
   -0.4993    6.8271   27.4478 C   0  0  0  0  0  0
    0.4264    6.9825   26.2238 C   0  0  0  0  0  0
    6.0347    6.5963   22.3670 H   0  0  0  0  0  0
    4.7466    6.9191   23.4689 H   0  0  0  0  0  0
    4.4143    6.9100   21.7486 H   0  0  0  0  0  0
    6.0612    8.7669   20.2964 H   0  0  0  0  0  0
    4.3898    9.1983   20.5528 H   0  0  0  0  0  0
    5.6564   10.3586   20.9293 H   0  0  0  0  0  0
    2.9443   10.1415   25.4695 H   0  0  0  0  0  0
    2.0663   13.5026   22.9725 H   0  0  0  0  0  0
   -0.3094   13.1786   23.3679 H   0  0  0  0  0  0
   -3.3463   11.6333   23.9643 H   0  0  0  0  0  0
   -1.9712   11.7411   22.8703 H   0  0  0  0  0  0
    6.9287    8.4673   23.9894 H   0  0  0  0  0  0
    7.6498    8.4674   22.4028 H   0  0  0  0  0  0
    4.3035    8.9478   24.2242 H   0  0  0  0  0  0
    3.4143    9.4400   22.7934 H   0  0  0  0  0  0
    4.2785   14.9566   23.5671 H   0  0  0  0  0  0
    3.4092   14.4786   24.9966 H   0  0  0  0  0  0
    6.8471   15.6785   23.8619 H   0  0  0  0  0  0
    7.5131   15.5456   25.3887 H   0  0  0  0  0  0
    7.8298   13.2065   25.1593 H   0  0  0  0  0  0
    8.0598   13.7207   23.5309 H   0  0  0  0  0  0
    6.1169   15.4969   27.2177 H   0  0  0  0  0  0
    4.3700   15.4682   27.0248 H   0  0  0  0  0  0
    5.2591   13.9692   26.9553 H   0  0  0  0  0  0
   -0.4343    9.5086   26.4739 H   0  0  0  0  0  0
    2.0229    8.1787   25.4371 H   0  0  0  0  0  0
    2.5979    9.4020   27.5805 H   0  0  0  0  0  0
    2.8935    7.6952   27.5958 H   0  0  0  0  0  0
    0.4714    9.0769   28.9014 H   0  0  0  0  0  0
    1.8779    8.4335   29.7376 H   0  0  0  0  0  0
   -1.1615    7.6846   27.5627 H   0  0  0  0  0  0
   -1.1294    5.9402   27.3620 H   0  0  0  0  0  0
    1.0758    6.1092   26.1482 H   0  0  0  0  0  0
   -0.1813    6.9673   25.3163 H   0  0  0  0  0  0
  1  2  1  0  0  0
  1 34  1  0  0  0
  1 35  1  0  0  0
  1 36  1  0  0  0
  2  3  1  0  0  0
  2 17  1  0  0  0
  2 18  1  0  0  0
  3 37  1  0  0  0
  3 38  1  0  0  0
  3 39  1  0  0  0
  4  5  2  0  0  0
  4  9  1  0  0  0
  4 27  1  0  0  0
  5  6  1  0  0  0
  5 40  1  0  0  0
  6  7  2  0  0  0
  6 13  1  0  0  0
  7  8  1  0  0  0
  7 41  1  0  0  0
  8  9  2  0  0  0
  8 42  1  0  0  0
  9 10  1  0  0  0
 10 11  2  0  0  0
 10 12  1  0  0  0
 12 43  1  0  0  0
 12 44  1  0  0  0
 13 21  1  0  0  0
 13 14  1  0  0  0
 14 15  2  0  0  0
 14 18  1  0  0  0
 15 20  1  0  0  0
 15 16  1  0  0  0
 16 17  1  0  0  0
 16 19  2  0  0  0
 17 45  1  0  0  0
 17 46  1  0  0  0
 18 47  1  0  0  0
 18 48  1  0  0  0
 20 21  2  0  0  0
 20 25  1  0  0  0
 21 22  1  0  0  0
 22 23  1  0  0  0
 22 49  1  0  0  0
 22 50  1  0  0  0
 23 24  1  0  0  0
 23 26  1  0  0  0
 24 25  1  0  0  0
 24 51  1  0  0  0
 24 52  1  0  0  0
 25 53  1  0  0  0
 25 54  1  0  0  0
 26 55  1  0  0  0
 26 56  1  0  0  0
 26 57  1  0  0  0
 27 28  1  0  0  0
 27 58  1  0  0  0
 28 29  1  0  0  0
 28 33  1  0  0  0
 28 59  1  0  0  0
 29 30  1  0  0  0
 29 60  1  0  0  0
 29 61  1  0  0  0
 30 31  1  0  0  0
 30 62  1  0  0  0
 30 63  1  0  0  0
 31 32  1  0  0  0
 32 33  1  0  0  0
 32 64  1  0  0  0
 32 65  1  0  0  0
 33 66  1  0  0  0
 33 67  1  0  0  0
M  END
> <s_m_entry_id>
4766

> <s_m_entry_name>
dock_pv.85

> <s_m_Source_Path>
/home/csk/Desktop/cluster/DUD-E-result/hs90a

> <s_m_Source_File>
dock_pv.maegz

> <i_m_Source_File_Index>
85

> <chembl_id>
CHEMBL3235338

> <chembl_pref_name>
None

> <i_lp_mmshare_version>
53161

> <r_lp_tautomer_probability>
0.99995

> <s_lp_Force_Field>
OPLS_2005

> <r_lp_Energy>
43.612149

> <b_lp_Chiralities_Consistent>
1

> <s_lp_Variant>
CHEMBL3880_lig950-1

> <s_i_glide_gridfile>
glide-grid_1uyg

> <i_i_glide_lignum>
1059

> <i_i_glide_rotatable_bonds>
4

> <r_i_docking_score>
-8.96227050790635

> <r_i_glide_ligand_efficiency>
-0.271583954785041

> <r_i_glide_ligand_efficiency_sa>
-0.871114857433766

> <r_i_glide_ligand_efficiency_ln>
-1.99316255680518

> <r_i_glide_gscore>
-8.96227050790635

> <r_i_glide_lipo>
-4.62208067067737

> <r_i_glide_hbond>
-0.16

> <r_i_glide_metal>
0

> <r_i_glide_rewards>
-1.50960905938737

> <r_i_glide_evdw>
-49.9355697631836

> <r_i_glide_ecoul>
-2.66889524459839

> <r_i_glide_erotb>
0.277970401377437

> <r_i_glide_esite>
-0.0514384043700999

> <r_i_glide_emodel>
-66.2130550751006

> <r_i_glide_energy>
-52.604465007782

> <r_i_glide_einternal>
2.81195569038391

> <i_i_glide_confnum>
10

> <i_i_glide_posenum>
113

> <r_i_glide_eff_state_penalty>
0

> <s_user_duplicate_titles>
CHEMBL3880_lig950

> <i_f3d_flags>
0

> <s_m_subgroup_title>
dock_pv

> <s_m_subgroupid>
dock_pv

> <b_m_subgroup_collapsed>
1

$$$$
CHEMBL3880_lig328
                    3D
 Schrodinger Suite 2021-1.
 49 53  0  0  1  0            999 V2000
    2.1049    7.5741   23.9505 C   0  0  0  0  0  0
    2.8288    7.4869   22.7672 C   0  0  0  0  0  0
    3.8986    8.3460   22.5220 C   0  0  0  0  0  0
    4.3070    9.2718   23.5000 C   0  0  0  0  0  0
    3.6067    9.3134   24.7166 C   0  0  0  0  0  0
    2.4862    8.5068   24.9222 C   0  0  0  0  0  0
    1.0224    6.7502   24.1222 O   0  0  0  0  0  0
    4.4630    8.2872   21.2758 O   0  0  0  0  0  0
    5.5108   10.1653   23.2946 C   0  0  0  0  0  0
    6.5753    9.6636   22.9296 O   0  0  0  0  0  0
    1.7509    8.6411   26.1107 N   0  0  0  0  0  0
    1.1059    8.3675   28.2561 C   0  0  0  0  0  0
    2.0934    8.1013   27.3301 C   0  0  0  0  0  0
    0.0993    9.1283   27.5807 C   0  0  0  0  0  0
    0.5485    9.3199   26.2391 C   0  0  0  0  0  0
   -0.1880   10.0679   25.3098 C   0  0  0  0  0  0
   -1.4072   10.5900   25.7365 C   0  0  0  0  0  0
   -1.8917   10.3690   27.0264 C   0  0  0  0  0  0
   -1.1387    9.6625   27.9640 C   0  0  0  0  0  0
    5.3986   11.4911   23.5665 N   0  0  0  0  0  0
    4.1523   12.2502   23.7260 C   0  0  0  0  0  0
    6.5688   12.3684   23.6343 C   0  0  0  0  0  0
    6.0214   13.5681   24.3670 C   0  0  0  0  0  0
    4.6315   13.5195   24.3737 C   0  0  0  0  0  0
    3.8956   14.5274   24.9942 C   0  0  0  0  0  0
    4.5614   15.5566   25.6581 C   0  0  0  0  0  0
    5.9551   15.5756   25.6848 C   0  0  0  0  0  0
    6.6931   14.5999   25.0188 C   0  0  0  0  0  0
   -3.2929   10.8063   27.3817 C   0  0  0  0  0  0
    2.5215    6.7804   22.0086 H   0  0  0  0  0  0
    3.9152    9.9894   25.5038 H   0  0  0  0  0  0
    0.8683    6.1766   23.3672 H   0  0  0  0  0  0
    3.9641    7.6901   20.7113 H   0  0  0  0  0  0
    1.1070    8.0500   29.2891 H   0  0  0  0  0  0
    3.0154    7.5443   27.4258 H   0  0  0  0  0  0
    0.1529   10.2097   24.2951 H   0  0  0  0  0  0
   -2.0179   11.1300   25.0248 H   0  0  0  0  0  0
   -1.5193    9.4933   28.9597 H   0  0  0  0  0  0
    3.4172   11.7526   24.3533 H   0  0  0  0  0  0
    3.6741   12.4341   22.7667 H   0  0  0  0  0  0
    6.9380   12.6102   22.6378 H   0  0  0  0  0  0
    7.3838   11.8873   24.1771 H   0  0  0  0  0  0
    2.8173   14.5004   24.9984 H   0  0  0  0  0  0
    4.0031   16.3299   26.1647 H   0  0  0  0  0  0
    6.4604   16.3665   26.2152 H   0  0  0  0  0  0
    7.7716   14.6376   25.0415 H   0  0  0  0  0  0
   -3.3302   11.2473   28.3670 H   0  0  0  0  0  0
   -3.5940   11.5690   26.6812 H   0  0  0  0  0  0
   -4.0409   10.0183   27.3532 H   0  0  0  0  0  0
  1  2  2  0  0  0
  1  6  1  0  0  0
  1  7  1  0  0  0
  2  3  1  0  0  0
  2 30  1  0  0  0
  3  4  2  0  0  0
  3  8  1  0  0  0
  4  5  1  0  0  0
  4  9  1  0  0  0
  5  6  2  0  0  0
  5 31  1  0  0  0
  6 11  1  0  0  0
  7 32  1  0  0  0
  8 33  1  0  0  0
  9 10  2  0  0  0
  9 20  1  0  0  0
 11 15  1  0  0  0
 11 13  1  0  0  0
 12 14  1  0  0  0
 12 13  2  0  0  0
 12 34  1  0  0  0
 13 35  1  0  0  0
 14 15  2  0  0  0
 14 19  1  0  0  0
 15 16  1  0  0  0
 16 17  2  0  0  0
 16 36  1  0  0  0
 17 18  1  0  0  0
 17 37  1  0  0  0
 18 19  2  0  0  0
 18 29  1  0  0  0
 19 38  1  0  0  0
 20 21  1  0  0  0
 20 22  1  0  0  0
 21 24  1  0  0  0
 21 39  1  0  0  0
 21 40  1  0  0  0
 22 23  1  0  0  0
 22 41  1  0  0  0
 22 42  1  0  0  0
 23 24  2  0  0  0
 23 28  1  0  0  0
 24 25  1  0  0  0
 25 26  2  0  0  0
 25 43  1  0  0  0
 26 27  1  0  0  0
 26 44  1  0  0  0
 27 28  2  0  0  0
 27 45  1  0  0  0
 28 46  1  0  0  0
 29 47  1  0  0  0
 29 48  1  0  0  0
 29 49  1  0  0  0
M  END
> <s_m_entry_id>
4767

> <s_m_entry_name>
dock_pv.86

> <s_m_Source_Path>
/home/csk/Desktop/cluster/DUD-E-result/hs90a

> <s_m_Source_File>
dock_pv.maegz

> <i_m_Source_File_Index>
86

> <chembl_id>
CHEMBL3260491

> <chembl_pref_name>
None

> <i_lp_mmshare_version>
53161

> <r_lp_tautomer_probability>
1

> <s_lp_Force_Field>
OPLS_2005

> <r_lp_Energy>
39.094246

> <b_lp_Chiralities_Consistent>
1

> <s_lp_Variant>
CHEMBL3880_lig328-1

> <s_i_glide_gridfile>
glide-grid_1uyg

> <i_i_glide_lignum>
365

> <i_i_glide_rotatable_bonds>
5

> <r_i_docking_score>
-8.94202427512491

> <r_i_glide_ligand_efficiency>
-0.30834566465948

> <r_i_glide_ligand_efficiency_sa>
-0.947335572597286

> <r_i_glide_ligand_efficiency_ln>
-2.04749680883253

> <r_i_glide_gscore>
-8.94202427512491

> <r_i_glide_lipo>
-4.46259588060249

> <r_i_glide_hbond>
0

> <r_i_glide_metal>
0

> <r_i_glide_rewards>
-2.28275883819445

> <r_i_glide_evdw>
-42.6412925720215

> <r_i_glide_ecoul>
-3.06189703941345

> <r_i_glide_erotb>
0.39467962818513

> <r_i_glide_esite>
0

> <r_i_glide_emodel>
-64.3437507759043

> <r_i_glide_energy>
-45.7031896114349

> <r_i_glide_einternal>
4.06645202636719

> <i_i_glide_confnum>
16

> <i_i_glide_posenum>
95

> <r_i_glide_eff_state_penalty>
0

> <s_user_duplicate_titles>
CHEMBL3880_lig328

> <i_f3d_flags>
0

> <s_m_subgroup_title>
dock_pv

> <s_m_subgroupid>
dock_pv

> <b_m_subgroup_collapsed>
1

$$$$
CHEMBL3880_lig267
                    3D
 Schrodinger Suite 2021-1.
 47 50  0  0  1  0            999 V2000
    0.0328   10.0242   25.7282 C   0  0  0  0  0  0
    1.1029    9.1212   25.6478 C   0  0  0  0  0  0
    1.4677    8.2868   26.7138 C   0  0  0  0  0  0
    0.7049    8.3368   27.8906 C   0  0  0  0  0  0
   -0.4051    9.1665   27.9676 C   0  0  0  0  0  0
   -0.7420   10.0020   26.9070 C   0  0  0  0  0  0
    1.0141    7.5801   28.9895 O   0  0  0  0  0  0
   -1.8674   10.7688   27.0584 O   0  0  0  0  0  0
    2.6648    7.3237   26.5978 C   0  0  0  0  0  0
    3.6968    7.6825   25.5035 C   0  0  0  0  0  0
    2.1914    5.8661   26.4317 C   0  0  0  0  0  0
   -0.3078   10.9246   24.5846 C   0  0  0  0  0  0
   -0.1292   12.1955   22.7995 C   0  0  0  0  0  0
    0.5821   11.5713   23.7670 N   0  0  0  0  0  0
   -1.4949   11.2066   24.2552 N   0  0  0  0  0  0
   -1.3791   12.0453   23.2407 N   0  0  0  0  0  0
    0.2562   12.7689   21.7774 O   0  0  0  0  0  0
    1.9945   11.5898   23.7859 C   0  0  0  0  0  0
    4.1175   10.6070   23.1675 C   0  0  0  0  0  0
    4.0557   12.7903   24.3253 C   0  0  0  0  0  0
    2.6634   12.6850   24.3392 C   0  0  0  0  0  0
    2.7174   10.5607   23.1750 C   0  0  0  0  0  0
    6.3421   10.3478   22.9112 C   0  0  0  0  0  0
    6.1399   11.5403   23.5671 N   0  0  0  0  0  0
    4.7753   11.7378   23.7394 C   0  0  0  0  0  0
    5.1335    9.7330   22.6670 C   0  0  0  0  0  0
    7.1963   12.4876   23.8822 C   0  0  0  0  0  0
    1.6454    9.0270   24.7297 H   0  0  0  0  0  0
   -1.0115    9.1750   28.8608 H   0  0  0  0  0  0
    0.5037    7.8529   29.7555 H   0  0  0  0  0  0
   -2.1842   11.0866   26.2044 H   0  0  0  0  0  0
    3.2035    7.3914   27.5454 H   0  0  0  0  0  0
    4.0231    8.7226   25.5686 H   0  0  0  0  0  0
    3.3015    7.5181   24.4993 H   0  0  0  0  0  0
    4.5922    7.0674   25.5980 H   0  0  0  0  0  0
    1.5252    5.5578   27.2387 H   0  0  0  0  0  0
    1.6521    5.7322   25.4919 H   0  0  0  0  0  0
    3.0357    5.1759   26.4307 H   0  0  0  0  0  0
   -2.2232   12.3848   22.8009 H   0  0  0  0  0  0
    4.5476   13.6542   24.7460 H   0  0  0  0  0  0
    2.0859   13.4905   24.7669 H   0  0  0  0  0  0
    2.2086    9.7273   22.7178 H   0  0  0  0  0  0
    7.3485   10.0359   22.6659 H   0  0  0  0  0  0
    5.0048    8.7809   22.1717 H   0  0  0  0  0  0
    8.1365   11.9595   24.0561 H   0  0  0  0  0  0
    7.3236   13.1709   23.0430 H   0  0  0  0  0  0
    6.9367   13.0604   24.7712 H   0  0  0  0  0  0
  1  2  2  0  0  0
  1  6  1  0  0  0
  1 12  1  0  0  0
  2  3  1  0  0  0
  2 28  1  0  0  0
  3  4  2  0  0  0
  3  9  1  0  0  0
  4  5  1  0  0  0
  4  7  1  0  0  0
  5  6  2  0  0  0
  5 29  1  0  0  0
  6  8  1  0  0  0
  7 30  1  0  0  0
  8 31  1  0  0  0
  9 10  1  0  0  0
  9 11  1  0  0  0
  9 32  1  0  0  0
 10 33  1  0  0  0
 10 34  1  0  0  0
 10 35  1  0  0  0
 11 36  1  0  0  0
 11 37  1  0  0  0
 11 38  1  0  0  0
 12 14  1  0  0  0
 12 15  2  0  0  0
 13 14  1  0  0  0
 13 16  1  0  0  0
 13 17  2  0  0  0
 14 18  1  0  0  0
 15 16  1  0  0  0
 16 39  1  0  0  0
 18 21  1  0  0  0
 18 22  2  0  0  0
 19 22  1  0  0  0
 19 26  1  0  0  0
 19 25  2  0  0  0
 20 25  1  0  0  0
 20 21  2  0  0  0
 20 40  1  0  0  0
 21 41  1  0  0  0
 22 42  1  0  0  0
 23 24  1  0  0  0
 23 26  2  0  0  0
 23 43  1  0  0  0
 24 25  1  0  0  0
 24 27  1  0  0  0
 26 44  1  0  0  0
 27 45  1  0  0  0
 27 46  1  0  0  0
 27 47  1  0  0  0
M  END
> <s_m_entry_id>
4768

> <s_m_entry_name>
dock_pv.87

> <s_m_Source_Path>
/home/csk/Desktop/cluster/DUD-E-result/hs90a

> <s_m_Source_File>
dock_pv.maegz

> <i_m_Source_File_Index>
87

> <chembl_id>
CHEMBL2103879

> <chembl_pref_name>
GANETESPIB

> <i_lp_mmshare_version>
53161

> <r_lp_tautomer_probability>
0.999899998073203

> <s_lp_Force_Field>
OPLS_2005

> <r_lp_Energy>
46.259885

> <b_lp_Chiralities_Consistent>
1

> <s_lp_Variant>
CHEMBL3880_lig267-1

> <s_i_glide_gridfile>
glide-grid_1uyg

> <i_i_glide_lignum>
301

> <i_i_glide_rotatable_bonds>
5

> <r_i_docking_score>
-8.9375461981289

> <r_i_glide_ligand_efficiency>
-0.33102022956033

> <r_i_glide_ligand_efficiency_sa>
-0.993060687590001

> <r_i_glide_ligand_efficiency_ln>
-2.08051340795954

> <r_i_glide_gscore>
-8.9375461981289

> <r_i_glide_lipo>
-3.60520301780225

> <r_i_glide_hbond>
-0.117468263631316

> <r_i_glide_metal>
0

> <r_i_glide_rewards>
-2.35389743620456

> <r_i_glide_evdw>
-46.6061401367188

> <r_i_glide_ecoul>
-5.4681658744812

> <r_i_glide_erotb>
0.289554407517336

> <r_i_glide_esite>
0

> <r_i_glide_emodel>
-77.7519297190537

> <r_i_glide_energy>
-52.0743060112

> <r_i_glide_einternal>
3.8107213973999

> <i_i_glide_confnum>
13

> <i_i_glide_posenum>
339

> <r_i_glide_eff_state_penalty>
0

> <s_user_duplicate_titles>
CHEMBL3880_lig267

> <i_f3d_flags>
0

> <s_m_subgroup_title>
dock_pv

> <s_m_subgroupid>
dock_pv

> <b_m_subgroup_collapsed>
1

$$$$
CHEMBL3880_lig211
                    3D
 Schrodinger Suite 2021-1.
 72 76  0  0  1  0            999 V2000
    0.5794   12.1716   23.0357 C   0  0  0  0  0  0
    1.9563   12.2696   22.8375 C   0  0  0  0  0  0
    2.8381   11.7508   23.7796 C   0  0  0  0  0  0
    2.3309   11.1204   24.9042 C   0  0  0  0  0  0
    0.9609   10.9425   25.0853 C   0  0  0  0  0  0
    0.0472   11.5128   24.1619 C   0  0  0  0  0  0
   -1.4565   11.4801   24.3891 C   0  0  0  0  0  0
    0.5839   10.2494   26.2476 N   0  0  0  0  0  0
    5.1573   10.9088   23.3665 C   0  0  0  0  0  0
    4.2355   11.8982   23.6664 N   0  0  0  0  0  0
    6.4477   11.4407   23.4851 C   0  0  0  0  0  0
    6.2923   12.7608   23.9670 C   0  0  0  0  0  0
    4.9293   13.0431   23.9814 C   0  0  0  0  0  0
    4.2740   14.3312   24.4664 C   0  0  0  0  0  0
    5.2755   15.2188   25.2587 C   0  0  0  0  0  0
    6.7543   15.1206   24.7671 C   0  0  0  0  0  0
    7.2895   13.7083   24.4847 C   0  0  0  0  0  0
    4.8610   16.6505   25.1672 C   0  0  0  0  0  0
    5.2059   14.8888   26.7313 C   0  0  0  0  0  0
    8.4499   13.4078   24.7669 O   0  0  0  0  0  0
    7.7357   10.6645   23.2924 C   0  0  0  0  0  0
    4.7129    9.4941   23.0034 C   0  0  0  0  0  0
    4.4144    8.6338   24.2563 C   0  0  0  0  0  0
    3.0473    7.9431   24.2286 C   0  0  0  0  0  0
    0.6217    8.7848   26.2248 C   0  0  2  0  0  0
    2.0494    8.1974   26.5311 C   0  0  2  0  0  0
    2.7476    7.3434   25.5368 N   0  0  1  0  0  0
    2.2681    5.9544   25.4378 C   0  0  0  0  0  0
    2.0748    5.2669   26.8062 C   0  0  0  0  0  0
    1.3524    6.1339   27.8468 C   0  0  0  0  0  0
    2.0690    7.4855   27.9056 C   0  0  0  0  0  0
    2.7337    9.0233   26.7117 H   0  0  0  0  0  0
   -0.1443    8.1557   25.0447 C   0  0  0  0  0  0
   -1.9437   11.1695   25.4724 O   0  0  0  0  0  0
   -2.2592   11.8390   23.3865 N   0  0  0  0  0  0
   -0.0645   12.6309   22.2998 H   0  0  0  0  0  0
    2.3344   12.7689   21.9672 H   0  0  0  0  0  0
    3.0201   10.7770   25.6582 H   0  0  0  0  0  0
    1.0762   10.5880   27.0622 H   0  0  0  0  0  0
    3.3527   14.1578   25.0255 H   0  0  0  0  0  0
    3.9722   14.8510   23.5670 H   0  0  0  0  0  0
    6.8811   15.6652   23.8415 H   0  0  0  0  0  0
    7.4326   15.5972   25.4757 H   0  0  0  0  0  0
    5.5061   17.1689   25.8442 H   0  0  0  0  0  0
    4.9639   17.1091   24.1926 H   0  0  0  0  0  0
    3.8581   16.7894   25.5670 H   0  0  0  0  0  0
    5.7853   15.5657   27.3624 H   0  0  0  0  0  0
    4.1948   14.7943   27.1320 H   0  0  0  0  0  0
    5.6859   13.9690   26.7671 H   0  0  0  0  0  0
    8.5271   10.9865   23.9675 H   0  0  0  0  0  0
    7.6008    9.6005   23.4909 H   0  0  0  0  0  0
    8.1189   10.7634   22.2773 H   0  0  0  0  0  0
    5.4817    8.9949   22.4109 H   0  0  0  0  0  0
    3.8460    9.5289   22.3404 H   0  0  0  0  0  0
    4.4610    9.2297   25.1651 H   0  0  0  0  0  0
    5.1958    7.8773   24.3471 H   0  0  0  0  0  0
    3.0424    7.1960   23.4325 H   0  0  0  0  0  0
    2.3158    8.6864   23.9266 H   0  0  0  0  0  0
   -0.0095    8.5476   27.0816 H   0  0  0  0  0  0
    3.0088    5.3890   24.8693 H   0  0  0  0  0  0
    1.3535    5.9037   24.8478 H   0  0  0  0  0  0
    3.0454    4.9413   27.1817 H   0  0  0  0  0  0
    1.4969    4.3611   26.6504 H   0  0  0  0  0  0
    1.3733    5.6496   28.8229 H   0  0  0  0  0  0
    0.3014    6.2598   27.5802 H   0  0  0  0  0  0
    1.6828    8.1335   28.6937 H   0  0  0  0  0  0
    3.1049    7.2737   28.1795 H   0  0  0  0  0  0
   -0.4385    7.1306   25.2635 H   0  0  0  0  0  0
   -1.0626    8.7009   24.8333 H   0  0  0  0  0  0
    0.3868    8.1525   24.1008 H   0  0  0  0  0  0
   -3.2553   11.9226   23.5993 H   0  0  0  0  0  0
   -1.9276   11.9717   22.4461 H   0  0  0  0  0  0
  1  6  1  0  0  0
  1  2  2  0  0  0
  1 36  1  0  0  0
  2  3  1  0  0  0
  2 37  1  0  0  0
  3 10  1  0  0  0
  3  4  2  0  0  0
  4  5  1  0  0  0
  4 38  1  0  0  0
  5  6  2  0  0  0
  5  8  1  0  0  0
  6  7  1  0  0  0
  7 34  2  0  0  0
  7 35  1  0  0  0
  8 25  1  0  0  0
  8 39  1  0  0  0
  9 10  1  0  0  0
  9 22  1  0  0  0
  9 11  2  0  0  0
 10 13  1  0  0  0
 11 21  1  0  0  0
 11 12  1  0  0  0
 12 13  2  0  0  0
 12 17  1  0  0  0
 13 14  1  0  0  0
 14 15  1  0  0  0
 14 40  1  0  0  0
 14 41  1  0  0  0
 15 18  1  0  0  0
 15 19  1  0  0  0
 15 16  1  0  0  0
 16 17  1  0  0  0
 16 42  1  0  0  0
 16 43  1  0  0  0
 17 20  2  0  0  0
 18 44  1  0  0  0
 18 45  1  0  0  0
 18 46  1  0  0  0
 19 47  1  0  0  0
 19 48  1  0  0  0
 19 49  1  0  0  0
 21 50  1  0  0  0
 21 51  1  0  0  0
 21 52  1  0  0  0
 22 23  1  0  0  0
 22 53  1  0  0  0
 22 54  1  0  0  0
 23 24  1  0  0  0
 23 55  1  0  0  0
 23 56  1  0  0  0
 24 27  1  0  0  0
 24 57  1  0  0  0
 24 58  1  0  0  0
 25 26  1  0  0  0
 25 33  1  0  0  0
 25 59  1  0  0  0
 26 27  1  0  0  0
 26 31  1  0  0  0
 26 32  1  0  0  0
 27 28  1  0  0  0
 28 29  1  0  0  0
 28 60  1  0  0  0
 28 61  1  0  0  0
 29 30  1  0  0  0
 29 62  1  0  0  0
 29 63  1  0  0  0
 30 31  1  0  0  0
 30 64  1  0  0  0
 30 65  1  0  0  0
 31 66  1  0  0  0
 31 67  1  0  0  0
 33 68  1  0  0  0
 33 69  1  0  0  0
 33 70  1  0  0  0
 35 71  1  0  0  0
 35 72  1  0  0  0
M  END
> <s_m_entry_id>
4769

> <s_m_entry_name>
dock_pv.88

> <s_m_Source_Path>
/home/csk/Desktop/cluster/DUD-E-result/hs90a

> <s_m_Source_File>
dock_pv.maegz

> <i_m_Source_File_Index>
88

> <chembl_id>
CHEMBL1779545

> <chembl_pref_name>
None

> <i_lp_mmshare_version>
53161

> <r_lp_tautomer_probability>
0.99995

> <s_lp_Force_Field>
OPLS_2005

> <r_lp_Energy>
67.083665

> <b_lp_Chiralities_Consistent>
1

> <s_lp_Variant>
CHEMBL3880_lig211-1

> <s_i_glide_gridfile>
glide-grid_1uyg

> <i_i_glide_lignum>
245

> <i_i_glide_rotatable_bonds>
1

> <r_i_docking_score>
-8.92103805226572

> <r_i_glide_ligand_efficiency>
-0.262383472125462

> <r_i_glide_ligand_efficiency_sa>
-0.85002059175865

> <r_i_glide_ligand_efficiency_ln>
-1.97090753238712

> <r_i_glide_gscore>
-8.92103805226572

> <r_i_glide_lipo>
-4.53699835310339

> <r_i_glide_hbond>
-0.17055551752576

> <r_i_glide_metal>
0

> <r_i_glide_rewards>
-1.81532409909013

> <r_i_glide_evdw>
-34.674690246582

> <r_i_glide_ecoul>
-4.2566614151001

> <r_i_glide_erotb>
0

> <r_i_glide_esite>
-0.0259263579523169

> <r_i_glide_emodel>
-66.5414212798211

> <r_i_glide_energy>
-38.9313516616821

> <r_i_glide_einternal>
0.303064316511154

> <i_i_glide_confnum>
1

> <i_i_glide_posenum>
36

> <r_i_glide_eff_state_penalty>
0

> <s_user_duplicate_titles>
CHEMBL3880_lig211

> <i_f3d_flags>
0

> <s_m_subgroup_title>
dock_pv

> <s_m_subgroupid>
dock_pv

> <b_m_subgroup_collapsed>
1

$$$$
CHEMBL3880_lig961
                    3D
 Schrodinger Suite 2021-1.
 64 68  0  0  1  0            999 V2000
    5.2226    7.2013   22.6817 C   0  0  0  0  0  0
    5.5431    8.7093   22.5624 C   0  0  0  0  0  0
    5.6114    9.2151   21.1017 C   0  0  0  0  0  0
    0.4228   12.6539   23.5599 C   0  0  0  0  0  0
    1.7966   12.7882   23.4157 C   0  0  0  0  0  0
    2.6445   11.8783   24.0401 C   0  0  0  0  0  0
    2.1070   10.8392   24.8026 C   0  0  0  0  0  0
    0.7329   10.6590   24.9135 C   0  0  0  0  0  0
   -0.1276   11.5930   24.2997 C   0  0  0  0  0  0
    4.0386   11.9705   23.9023 N   0  0  0  0  0  0
    4.8701   10.9054   23.6274 C   0  0  0  0  0  0
    6.1850   11.3422   23.6603 C   0  0  0  0  0  0
    7.3017   10.4173   23.4928 C   0  0  0  0  0  0
    6.9089    8.9437   23.2742 C   0  0  0  0  0  0
    4.4161    9.4805   23.2998 C   0  0  0  0  0  0
    8.4710   10.7691   23.5210 O   0  0  0  0  0  0
    6.1717   12.7198   23.9670 C   0  0  0  0  0  0
    4.8364   13.0773   24.1178 C   0  0  0  0  0  0
    4.3608   14.4715   24.5045 C   0  0  0  0  0  0
    5.3694   15.2122   25.2731 N   0  0  2  0  0  0
    6.7551   15.0959   24.7968 C   0  0  0  0  0  0
    7.2819   13.7046   24.3127 C   0  0  0  0  0  0
    5.2281   15.0160   26.7059 C   0  0  0  0  0  0
   -1.6165   11.5153   24.4585 C   0  0  0  0  0  0
   -2.1406   11.1687   25.5131 O   0  0  0  0  0  0
   -2.3390   11.8872   23.4099 N   0  0  0  0  0  0
    0.2549    9.4374   25.7040 C   0  0  0  0  0  0
    0.1978    9.7134   27.2165 C   0  0  0  0  0  0
   -0.3965    8.5683   28.0596 C   0  0  0  0  0  0
    0.0370    7.1318   27.8628 C   0  0  0  0  0  0
    0.4884    7.8967   29.0866 C   0  0  0  0  0  0
    6.0586    6.5788   22.3671 H   0  0  0  0  0  0
    5.0018    6.9086   23.7094 H   0  0  0  0  0  0
    4.3588    6.9283   22.0736 H   0  0  0  0  0  0
    6.4456    8.7690   20.5708 H   0  0  0  0  0  0
    4.7025    8.9656   20.5525 H   0  0  0  0  0  0
    5.7441   10.2936   21.0450 H   0  0  0  0  0  0
   -0.2112   13.3957   23.0951 H   0  0  0  0  0  0
    2.1888   13.6005   22.8247 H   0  0  0  0  0  0
    2.7572   10.1539   25.3251 H   0  0  0  0  0  0
    6.8694    8.5079   24.2725 H   0  0  0  0  0  0
    7.7247    8.4401   22.7542 H   0  0  0  0  0  0
    4.2363    8.9882   24.2559 H   0  0  0  0  0  0
    3.4803    9.4471   22.7378 H   0  0  0  0  0  0
    4.2755   15.0067   23.5671 H   0  0  0  0  0  0
    3.3712   14.5005   24.9626 H   0  0  0  0  0  0
    6.7999   15.7850   23.9670 H   0  0  0  0  0  0
    7.4593   15.5709   25.4817 H   0  0  0  0  0  0
    7.8236   13.2579   25.1469 H   0  0  0  0  0  0
    8.0399   13.8261   23.5397 H   0  0  0  0  0  0
    6.0049   15.5444   27.2612 H   0  0  0  0  0  0
    4.2645   15.4028   27.0400 H   0  0  0  0  0  0
    5.2602   13.9690   26.9623 H   0  0  0  0  0  0
   -3.3448   11.9686   23.5713 H   0  0  0  0  0  0
   -1.9429   12.0407   22.4975 H   0  0  0  0  0  0
    0.9354    8.6085   25.5040 H   0  0  0  0  0  0
   -0.7051    9.0829   25.3288 H   0  0  0  0  0  0
   -0.4060   10.6050   27.3882 H   0  0  0  0  0  0
    1.1988    9.9671   27.5675 H   0  0  0  0  0  0
   -1.4247    8.7698   28.3651 H   0  0  0  0  0  0
    0.7686    6.8938   27.0906 H   0  0  0  0  0  0
   -0.7176    6.3518   27.9675 H   0  0  0  0  0  0
    0.0611    7.6586   30.0604 H   0  0  0  0  0  0
    1.5315    8.2063   29.1666 H   0  0  0  0  0  0
  1  2  1  0  0  0
  1 32  1  0  0  0
  1 33  1  0  0  0
  1 34  1  0  0  0
  2  3  1  0  0  0
  2 14  1  0  0  0
  2 15  1  0  0  0
  3 35  1  0  0  0
  3 36  1  0  0  0
  3 37  1  0  0  0
  4  5  2  0  0  0
  4  9  1  0  0  0
  4 38  1  0  0  0
  5  6  1  0  0  0
  5 39  1  0  0  0
  6  7  2  0  0  0
  6 10  1  0  0  0
  7  8  1  0  0  0
  7 40  1  0  0  0
  8  9  2  0  0  0
  8 27  1  0  0  0
  9 24  1  0  0  0
 10 18  1  0  0  0
 10 11  1  0  0  0
 11 12  2  0  0  0
 11 15  1  0  0  0
 12 17  1  0  0  0
 12 13  1  0  0  0
 13 14  1  0  0  0
 13 16  2  0  0  0
 14 41  1  0  0  0
 14 42  1  0  0  0
 15 43  1  0  0  0
 15 44  1  0  0  0
 17 18  2  0  0  0
 17 22  1  0  0  0
 18 19  1  0  0  0
 19 20  1  0  0  0
 19 45  1  0  0  0
 19 46  1  0  0  0
 20 21  1  0  0  0
 20 23  1  0  0  0
 21 22  1  0  0  0
 21 47  1  0  0  0
 21 48  1  0  0  0
 22 49  1  0  0  0
 22 50  1  0  0  0
 23 51  1  0  0  0
 23 52  1  0  0  0
 23 53  1  0  0  0
 24 25  2  0  0  0
 24 26  1  0  0  0
 26 54  1  0  0  0
 26 55  1  0  0  0
 27 28  1  0  0  0
 27 56  1  0  0  0
 27 57  1  0  0  0
 28 29  1  0  0  0
 28 58  1  0  0  0
 28 59  1  0  0  0
 29 30  1  0  0  0
 29 31  1  0  0  0
 29 60  1  0  0  0
 30 31  1  0  0  0
 30 61  1  0  0  0
 30 62  1  0  0  0
 31 63  1  0  0  0
 31 64  1  0  0  0
M  END
> <s_m_entry_id>
4770

> <s_m_entry_name>
dock_pv.89

> <s_m_Source_Path>
/home/csk/Desktop/cluster/DUD-E-result/hs90a

> <s_m_Source_File>
dock_pv.maegz

> <i_m_Source_File_Index>
89

> <chembl_id>
CHEMBL3235349

> <chembl_pref_name>
None

> <i_lp_mmshare_version>
53161

> <r_lp_tautomer_probability>
0.99995

> <s_lp_Force_Field>
OPLS_2005

> <r_lp_Energy>
46.762671

> <b_lp_Chiralities_Consistent>
1

> <s_lp_Variant>
CHEMBL3880_lig961-1

> <s_i_glide_gridfile>
glide-grid_1uyg

> <i_i_glide_lignum>
1070

> <i_i_glide_rotatable_bonds>
5

> <r_i_docking_score>
-8.91505075091489

> <r_i_glide_ligand_efficiency>
-0.287582282287577

> <r_i_glide_ligand_efficiency_sa>
-0.90340541651466

> <r_i_glide_ligand_efficiency_ln>
-2.01061715782512

> <r_i_glide_gscore>
-8.91505075091489

> <r_i_glide_lipo>
-4.90473046549269

> <r_i_glide_hbond>
-0.16

> <r_i_glide_metal>
0

> <r_i_glide_rewards>
-1.68215406226

> <r_i_glide_evdw>
-46.3733520507812

> <r_i_glide_ecoul>
-1.70247972011566

> <r_i_glide_erotb>
0.449570636055549

> <r_i_glide_esite>
-0.0436972986613294

> <r_i_glide_emodel>
-61.0598511112105

> <r_i_glide_energy>
-48.0758317708969

> <r_i_glide_einternal>
1.66164696216583

> <i_i_glide_confnum>
123

> <i_i_glide_posenum>
110

> <r_i_glide_eff_state_penalty>
0

> <s_user_duplicate_titles>
CHEMBL3880_lig961

> <i_f3d_flags>
0

> <s_m_subgroup_title>
dock_pv

> <s_m_subgroupid>
dock_pv

> <b_m_subgroup_collapsed>
1

$$$$
CHEMBL3880_lig119
                    3D
 Schrodinger Suite 2021-1.
 44 47  0  0  1  0            999 V2000
   -0.9452   11.8705   23.5016 C   0  0  0  0  0  0
    0.2283   12.3689   22.6327 C   0  0  0  0  0  0
    1.1367   12.1840   23.6685 N   0  0  0  0  0  0
    0.1061   11.6475   24.6156 C   0  0  2  0  0  0
    0.3250   10.2599   25.2314 C   0  0  0  0  0  0
    1.1434    9.3144   24.6011 C   0  0  0  0  0  0
    1.3115    8.0314   25.1299 C   0  0  0  0  0  0
    0.6687    7.7009   26.3316 C   0  0  0  0  0  0
   -0.1126    8.6459   26.9905 C   0  0  0  0  0  0
   -0.3015    9.9120   26.4384 C   0  0  0  0  0  0
    2.4389   12.6337   23.8615 C   0  0  0  0  0  0
    3.5353   11.8134   23.5708 C   0  0  0  0  0  0
    4.8333   12.2717   23.8162 C   0  0  0  0  0  0
    2.6393   13.9202   24.3670 C   0  0  0  0  0  0
    3.9306   14.3591   24.6559 C   0  0  0  0  0  0
    5.0307   13.5391   24.3671 C   0  0  0  0  0  0
    6.3273   13.9641   24.5770 O   0  0  0  0  0  0
    6.4399   14.9581   25.5981 C   0  0  0  0  0  0
    5.3942   16.0739   25.3786 C   0  0  0  0  0  0
    4.0610   15.5638   25.3152 O   0  0  0  0  0  0
    0.3473   12.7688   21.4771 O   0  0  0  0  0  0
   -1.1388   10.7789   27.0897 O   0  0  0  0  0  0
    0.7712    6.4480   26.8776 O   0  0  0  0  0  0
    2.1694    7.0243   24.3678 C   0  0  0  0  0  0
    1.4296    6.4213   23.1632 C   0  0  0  0  0  0
   -1.4243   10.9654   23.1257 H   0  0  0  0  0  0
   -1.6968   12.6317   23.7107 H   0  0  0  0  0  0
   -0.0101   12.3988   25.3953 H   0  0  0  0  0  0
    1.6271    9.5563   23.6672 H   0  0  0  0  0  0
   -0.5990    8.3731   27.9156 H   0  0  0  0  0  0
    3.3900   10.8252   23.1611 H   0  0  0  0  0  0
    5.6836   11.6454   23.5917 H   0  0  0  0  0  0
    1.7971   14.5570   24.5897 H   0  0  0  0  0  0
    6.2725   14.5041   26.5752 H   0  0  0  0  0  0
    7.4467   15.3710   25.5942 H   0  0  0  0  0  0
    5.4408   16.7692   26.2135 H   0  0  0  0  0  0
    5.6214   16.6218   24.4652 H   0  0  0  0  0  0
   -1.5419   10.3713   27.8598 H   0  0  0  0  0  0
    1.2237    5.8445   26.2840 H   0  0  0  0  0  0
    2.5088    6.2257   25.0270 H   0  0  0  0  0  0
    3.0822    7.5171   24.0271 H   0  0  0  0  0  0
    2.0109    5.6220   22.7038 H   0  0  0  0  0  0
    1.2607    7.1739   22.3932 H   0  0  0  0  0  0
    0.4619    6.0063   23.4481 H   0  0  0  0  0  0
  1  4  1  0  0  0
  1  2  1  0  0  0
  1 26  1  0  0  0
  1 27  1  0  0  0
  2  3  1  0  0  0
  2 21  2  0  0  0
  3  4  1  0  0  0
  3 11  1  0  0  0
  4  5  1  0  0  0
  4 28  1  0  0  0
  5  6  2  0  0  0
  5 10  1  0  0  0
  6  7  1  0  0  0
  6 29  1  0  0  0
  7  8  2  0  0  0
  7 24  1  0  0  0
  8  9  1  0  0  0
  8 23  1  0  0  0
  9 10  2  0  0  0
  9 30  1  0  0  0
 10 22  1  0  0  0
 11 12  2  0  0  0
 11 14  1  0  0  0
 12 13  1  0  0  0
 12 31  1  0  0  0
 13 16  2  0  0  0
 13 32  1  0  0  0
 14 15  2  0  0  0
 14 33  1  0  0  0
 15 16  1  0  0  0
 15 20  1  0  0  0
 16 17  1  0  0  0
 17 18  1  0  0  0
 18 19  1  0  0  0
 18 34  1  0  0  0
 18 35  1  0  0  0
 19 20  1  0  0  0
 19 36  1  0  0  0
 19 37  1  0  0  0
 22 38  1  0  0  0
 23 39  1  0  0  0
 24 25  1  0  0  0
 24 40  1  0  0  0
 24 41  1  0  0  0
 25 42  1  0  0  0
 25 43  1  0  0  0
 25 44  1  0  0  0
M  END
> <s_m_entry_id>
4771

> <s_m_entry_name>
dock_pv.90

> <s_m_Source_Path>
/home/csk/Desktop/cluster/DUD-E-result/hs90a

> <s_m_Source_File>
dock_pv.maegz

> <i_m_Source_File_Index>
90

> <chembl_id>
CHEMBL1831185

> <chembl_pref_name>
None

> <i_lp_mmshare_version>
53161

> <r_lp_tautomer_probability>
0.999999999898

> <s_lp_Force_Field>
OPLS_2005

> <r_lp_Energy>
27.852189

> <b_lp_Chiralities_Consistent>
1

> <s_lp_Variant>
CHEMBL3880_lig119-1

> <s_i_glide_gridfile>
glide-grid_1uyg

> <i_i_glide_lignum>
133

> <i_i_glide_rotatable_bonds>
5

> <r_i_docking_score>
-8.90289009540252

> <r_i_glide_ligand_efficiency>
-0.356115603816101

> <r_i_glide_ligand_efficiency_sa>
-1.0412883412954

> <r_i_glide_ligand_efficiency_ln>
-2.11025175069727

> <r_i_glide_gscore>
-8.90289009540252

> <r_i_glide_lipo>
-3.74460792995689

> <r_i_glide_hbond>
-0.229562536590204

> <r_i_glide_metal>
0

> <r_i_glide_rewards>
-2.65702093443309

> <r_i_glide_evdw>
-41.1929054260254

> <r_i_glide_ecoul>
-3.58191299438477

> <r_i_glide_erotb>
0.325233526036645

> <r_i_glide_esite>
0

> <r_i_glide_emodel>
-63.8231954898345

> <r_i_glide_energy>
-44.7748184204102

> <r_i_glide_einternal>
4.82671499252319

> <i_i_glide_confnum>
1

> <i_i_glide_posenum>
160

> <r_i_glide_eff_state_penalty>
0

> <s_user_duplicate_titles>
CHEMBL3880_lig119

> <i_f3d_flags>
0

> <s_m_subgroup_title>
dock_pv

> <s_m_subgroupid>
dock_pv

> <b_m_subgroup_collapsed>
1

$$$$
CHEMBL3880_lig377
                    3D
 Schrodinger Suite 2021-1.
 45 48  0  0  1  0            999 V2000
   -1.6088   11.5262   24.8946 N   0  0  0  0  0  0
   -1.2906   12.2080   23.7742 C   0  0  0  0  0  0
   -0.0576   12.2678   23.2099 N   0  0  0  0  0  0
   -0.6188   10.8169   25.4898 C   0  0  0  0  0  0
    0.6903   10.7774   24.9642 C   0  0  0  0  0  0
    0.9235   11.5166   23.7912 C   0  0  0  0  0  0
    2.3105   11.4763   23.1623 C   0  0  0  0  0  0
    3.4270   11.1951   24.2169 C   0  0  1  0  0  0
    3.0000   10.0706   25.0695 N   0  0  0  0  0  0
    1.7621    9.8906   25.5664 C   0  0  0  0  0  0
    4.7952   10.9690   23.5479 C   0  0  0  0  0  0
    5.8834   11.8919   23.5668 C   0  0  0  0  0  0
    7.0969   11.4714   22.9822 C   0  0  0  0  0  0
    7.2540   10.2122   22.4202 C   0  0  0  0  0  0
    6.1813    9.3387   22.3768 C   0  0  0  0  0  0
    4.9664    9.7185   22.9286 C   0  0  0  0  0  0
   -1.0410   10.1436   26.7880 C   0  0  0  0  0  0
    1.5963    8.9938   26.3882 O   0  0  0  0  0  0
   -2.3387   12.8867   23.1663 N   0  0  0  0  0  0
    5.8654   13.2455   24.2315 C   0  0  0  0  0  0
    7.0534   13.6515   24.7685 N   0  0  0  0  0  0
    7.0825   14.7852   25.5224 C   0  0  0  0  0  0
    5.9291   15.5491   25.6921 C   0  0  0  0  0  0
    4.7565   15.2142   25.1023 N   0  0  0  0  0  0
    4.7382   14.0724   24.3669 C   0  0  0  0  0  0
    8.2502   15.1697   26.1531 O   0  0  0  0  0  0
    9.4221   14.3713   26.0171 C   0  0  0  0  0  0
    8.4551    9.8348   21.9328 F   0  0  0  0  0  0
    2.5054   12.3989   22.6158 H   0  0  0  0  0  0
    2.3082   10.6768   22.4217 H   0  0  0  0  0  0
    3.5020   12.0135   24.9271 H   0  0  0  0  0  0
    3.7092    9.4559   25.4378 H   0  0  0  0  0  0
    7.9619   12.1185   22.9798 H   0  0  0  0  0  0
    6.2994    8.3606   21.9373 H   0  0  0  0  0  0
    4.1506    9.0094   22.8995 H   0  0  0  0  0  0
   -0.3819   10.4795   27.5826 H   0  0  0  0  0  0
   -2.0668   10.3813   27.0740 H   0  0  0  0  0  0
   -0.9505    9.0626   26.7162 H   0  0  0  0  0  0
   -2.1949   13.3475   22.2820 H   0  0  0  0  0  0
   -3.2732   12.7649   23.5657 H   0  0  0  0  0  0
    5.9375   16.4348   26.3080 H   0  0  0  0  0  0
    3.7985   13.8489   23.8909 H   0  0  0  0  0  0
   10.2230   14.8032   26.6178 H   0  0  0  0  0  0
    9.2618   13.3495   26.3640 H   0  0  0  0  0  0
    9.7626   14.3454   24.9818 H   0  0  0  0  0  0
  1  2  2  0  0  0
  1  4  1  0  0  0
  2  3  1  0  0  0
  2 19  1  0  0  0
  3  6  2  0  0  0
  4  5  2  0  0  0
  4 17  1  0  0  0
  5  6  1  0  0  0
  5 10  1  0  0  0
  6  7  1  0  0  0
  7  8  1  0  0  0
  7 29  1  0  0  0
  7 30  1  0  0  0
  8  9  1  0  0  0
  8 11  1  0  0  0
  8 31  1  0  0  0
  9 10  1  0  0  0
  9 32  1  0  0  0
 10 18  2  0  0  0
 11 12  2  0  0  0
 11 16  1  0  0  0
 12 13  1  0  0  0
 12 20  1  0  0  0
 13 14  2  0  0  0
 13 33  1  0  0  0
 14 15  1  0  0  0
 14 28  1  0  0  0
 15 16  2  0  0  0
 15 34  1  0  0  0
 16 35  1  0  0  0
 17 36  1  0  0  0
 17 37  1  0  0  0
 17 38  1  0  0  0
 19 39  1  0  0  0
 19 40  1  0  0  0
 20 21  2  0  0  0
 20 25  1  0  0  0
 21 22  1  0  0  0
 22 23  2  0  0  0
 22 26  1  0  0  0
 23 24  1  0  0  0
 23 41  1  0  0  0
 24 25  2  0  0  0
 25 42  1  0  0  0
 26 27  1  0  0  0
 27 43  1  0  0  0
 27 44  1  0  0  0
 27 45  1  0  0  0
M  END
> <s_m_entry_id>
4772

> <s_m_entry_name>
dock_pv.91

> <s_m_Source_Path>
/home/csk/Desktop/cluster/DUD-E-result/hs90a

> <s_m_Source_File>
dock_pv.maegz

> <i_m_Source_File_Index>
91

> <chembl_id>
CHEMBL3360312

> <chembl_pref_name>
None

> <i_lp_mmshare_version>
53161

> <r_lp_tautomer_probability>
0.999999987636

> <s_lp_Force_Field>
OPLS_2005

> <r_lp_Energy>
29.897433

> <b_lp_Chiralities_Consistent>
1

> <s_lp_Variant>
CHEMBL3880_lig377-1

> <s_i_glide_gridfile>
glide-grid_1uyg

> <i_i_glide_lignum>
419

> <i_i_glide_rotatable_bonds>
3

> <r_i_docking_score>
-8.88953215002214

> <r_i_glide_ligand_efficiency>
-0.317483291072219

> <r_i_glide_ligand_efficiency_sa>
-0.96406625935387

> <r_i_glide_ligand_efficiency_ln>
-2.05196502823054

> <r_i_glide_gscore>
-8.88953215002214

> <r_i_glide_lipo>
-4.24123758195357

> <r_i_glide_hbond>
-0.16

> <r_i_glide_metal>
0

> <r_i_glide_rewards>
-1.83938773883394

> <r_i_glide_evdw>
-47.1465911865234

> <r_i_glide_ecoul>
-3.51307201385498

> <r_i_glide_erotb>
0.268165139142389

> <r_i_glide_esite>
-0.0327816069725992

> <r_i_glide_emodel>
-74.5220553698232

> <r_i_glide_energy>
-50.6596632003784

> <r_i_glide_einternal>
1.80902945995331

> <i_i_glide_confnum>
5

> <i_i_glide_posenum>
340

> <r_i_glide_eff_state_penalty>
0

> <s_user_duplicate_titles>
CHEMBL3880_lig377

> <i_f3d_flags>
0

> <s_m_subgroup_title>
dock_pv

> <s_m_subgroupid>
dock_pv

> <b_m_subgroup_collapsed>
1

$$$$
CHEMBL3880_lig98
                    3D
 Schrodinger Suite 2021-1.
 49 51  0  0  1  0            999 V2000
    6.9382   14.7692   25.9147 S   0  0  0  0  0  0
    0.7654   10.4150   24.0136 O   0  0  0  0  0  0
    2.9992    8.9135   23.8771 O   0  0  0  0  0  0
   -0.3006   12.9488   23.3853 O   0  0  0  0  0  0
    6.3920   11.9903   23.6626 N   0  0  0  0  0  0
   -1.9390   11.5221   24.1048 N   0  0  0  0  0  0
    4.5634   10.6708   23.7947 C   0  0  0  0  0  0
    5.0110   12.0012   23.8595 C   0  0  0  0  0  0
    6.8183   10.6830   23.5180 C   0  0  0  0  0  0
    5.6962    9.8844   23.5669 C   0  0  0  0  0  0
    3.2052   10.1280   23.9268 C   0  0  0  0  0  0
    7.2903   13.1502   23.6259 C   0  0  0  0  0  0
    7.8417   13.6346   24.9523 C   0  0  0  0  0  0
    2.0206   11.0874   24.1169 C   0  0  0  0  0  0
    0.0001   10.3532   25.1556 C   0  0  0  0  0  0
    4.2352   13.2925   24.0985 C   0  0  0  0  0  0
   -1.3018   10.9010   25.1974 C   0  0  0  0  0  0
    8.2704   10.2984   23.3220 C   0  0  0  0  0  0
    9.0746   13.3906   25.5670 C   0  0  0  0  0  0
    0.4988    9.6856   26.2816 C   0  0  0  0  0  0
   -2.0627   10.7690   26.3638 C   0  0  0  0  0  0
    8.1865   14.8561   27.0998 C   0  0  0  0  0  0
    9.2734   14.0772   26.7651 C   0  0  0  0  0  0
   -0.2671    9.5688   27.4395 C   0  0  0  0  0  0
   -1.5393   10.1301   27.4885 C   0  0  0  0  0  0
   -1.4199   12.4489   23.2765 C   0  0  0  0  0  0
   -2.3396   12.9272   22.1614 C   0  0  0  0  0  0
   -2.9474   11.4235   24.0672 H   0  0  0  0  0  0
    5.6991    8.8076   23.4652 H   0  0  0  0  0  0
    8.0610   12.9327   22.8979 H   0  0  0  0  0  0
    6.7665   13.9693   23.1672 H   0  0  0  0  0  0
    2.0397   11.8195   23.3127 H   0  0  0  0  0  0
    2.1225   11.6266   25.0601 H   0  0  0  0  0  0
    3.4156   13.4099   23.3930 H   0  0  0  0  0  0
    3.8021   13.3111   25.0991 H   0  0  0  0  0  0
    4.8137   14.2071   24.0005 H   0  0  0  0  0  0
    8.4061    9.2168   23.3396 H   0  0  0  0  0  0
    8.6584   10.6495   22.3670 H   0  0  0  0  0  0
    8.9142   10.7067   24.0998 H   0  0  0  0  0  0
    9.8166   12.7169   25.1671 H   0  0  0  0  0  0
    1.4840    9.2446   26.2527 H   0  0  0  0  0  0
   -3.0688   11.1669   26.4052 H   0  0  0  0  0  0
    8.0594   15.4854   27.9668 H   0  0  0  0  0  0
   10.1645   13.9983   27.3709 H   0  0  0  0  0  0
    0.1308    9.0552   28.3030 H   0  0  0  0  0  0
   -2.1308   10.0438   28.3874 H   0  0  0  0  0  0
   -2.7336   12.0782   21.6031 H   0  0  0  0  0  0
   -1.8055   13.5679   21.4605 H   0  0  0  0  0  0
   -3.1751   13.4932   22.5745 H   0  0  0  0  0  0
  1 13  1  0  0  0
  1 22  1  0  0  0
  2 14  1  0  0  0
  2 15  1  0  0  0
  3 11  2  0  0  0
  4 26  2  0  0  0
  5  8  1  0  0  0
  5  9  1  0  0  0
  5 12  1  0  0  0
  6 17  1  0  0  0
  6 26  1  0  0  0
  6 28  1  0  0  0
  7  8  2  0  0  0
  7 10  1  0  0  0
  7 11  1  0  0  0
  8 16  1  0  0  0
  9 10  2  0  0  0
  9 18  1  0  0  0
 10 29  1  0  0  0
 11 14  1  0  0  0
 12 13  1  0  0  0
 12 30  1  0  0  0
 12 31  1  0  0  0
 13 19  2  0  0  0
 14 32  1  0  0  0
 14 33  1  0  0  0
 15 17  1  0  0  0
 15 20  2  0  0  0
 16 34  1  0  0  0
 16 35  1  0  0  0
 16 36  1  0  0  0
 17 21  2  0  0  0
 18 37  1  0  0  0
 18 38  1  0  0  0
 18 39  1  0  0  0
 19 23  1  0  0  0
 19 40  1  0  0  0
 20 24  1  0  0  0
 20 41  1  0  0  0
 21 25  1  0  0  0
 21 42  1  0  0  0
 22 23  2  0  0  0
 22 43  1  0  0  0
 23 44  1  0  0  0
 24 25  2  0  0  0
 24 45  1  0  0  0
 25 46  1  0  0  0
 26 27  1  0  0  0
 27 47  1  0  0  0
 27 48  1  0  0  0
 27 49  1  0  0  0
M  END
> <s_m_entry_id>
4773

> <s_m_entry_name>
dock_pv.92

> <s_m_Source_Path>
/home/csk/Desktop/cluster/DUD-E-result/hs90a

> <s_m_Source_File>
dock_pv.maegz

> <i_m_Source_File_Index>
92

> <chembl_id>
CHEMBL1320669

> <chembl_pref_name>
None

> <i_lp_mmshare_version>
53161

> <r_lp_tautomer_probability>
0.99990000499975

> <s_lp_Force_Field>
OPLS_2005

> <r_lp_Energy>
24.796053

> <b_lp_Chiralities_Consistent>
1

> <s_lp_Variant>
CHEMBL3880_lig98-1

> <s_i_glide_gridfile>
glide-grid_1uyg

> <i_i_glide_lignum>
110

> <i_i_glide_rotatable_bonds>
8

> <r_i_docking_score>
-8.88905835527889

> <r_i_glide_ligand_efficiency>
-0.329224383528848

> <r_i_glide_ligand_efficiency_sa>
-0.987673149501474

> <r_i_glide_ligand_efficiency_ln>
-2.06922623752862

> <r_i_glide_gscore>
-8.88905835527889

> <r_i_glide_lipo>
-4.37540999951871

> <r_i_glide_hbond>
-0.14444381730997

> <r_i_glide_metal>
0

> <r_i_glide_rewards>
-2.24371813139587

> <r_i_glide_evdw>
-46.0203399658203

> <r_i_glide_ecoul>
-5.01854801177979

> <r_i_glide_erotb>
0.929356253868666

> <r_i_glide_esite>
-0.00104346086502233

> <r_i_glide_emodel>
-67.0365994286492

> <r_i_glide_energy>
-51.0388879776001

> <r_i_glide_einternal>
11.7938642501831

> <i_i_glide_confnum>
65

> <i_i_glide_posenum>
21

> <r_i_glide_eff_state_penalty>
0

> <s_user_duplicate_titles>
CHEMBL3880_lig98

> <i_f3d_flags>
0

> <s_m_subgroup_title>
dock_pv

> <s_m_subgroupid>
dock_pv

> <b_m_subgroup_collapsed>
1

$$$$
CHEMBL3880_lig190
                    3D
 Schrodinger Suite 2021-1.
 62 65  0  0  1  0            999 V2000
    5.2569   16.3691   24.9544 C   0  0  0  0  0  0
    5.4521   14.9060   25.2371 C   0  0  0  0  0  0
    5.2608   14.7687   26.7642 C   0  0  0  0  0  0
    0.5998   12.2831   22.5653 C   0  0  0  0  0  0
    1.9752   12.1481   22.4893 C   0  0  0  0  0  0
    2.6936   11.7506   23.6072 C   0  0  0  0  0  0
    2.0268   11.3881   24.7645 C   0  0  0  0  0  0
    0.6328   11.3313   24.8014 C   0  0  0  0  0  0
   -0.0932   11.8740   23.7105 C   0  0  0  0  0  0
   -1.5828   12.0702   23.6938 C   0  0  0  0  0  0
   -2.3385   11.1650   24.2960 N   0  0  0  0  0  0
   -2.0820   13.0433   23.1388 O   0  0  0  0  0  0
    0.0075   10.6841   25.8849 N   0  0  0  0  0  0
    0.6839    9.5655   26.5578 C   0  0  0  0  0  0
    4.0906   11.7097   23.6050 N   0  0  0  0  0  0
    6.2192   10.9773   23.5579 C   0  0  0  0  0  0
    4.8812   10.6085   23.3409 C   0  0  0  0  0  0
    6.2094   12.3320   23.9670 C   0  0  0  0  0  0
    4.8912   12.7633   23.9670 C   0  0  0  0  0  0
    4.3644   14.1097   24.4556 C   0  0  0  0  0  0
    6.9156   14.6282   24.7670 C   0  0  0  0  0  0
    7.2960   13.1781   24.4721 C   0  0  0  0  0  0
    8.4153   12.7691   24.7670 O   0  0  0  0  0  0
    7.4347   10.1007   23.3348 C   0  0  0  0  0  0
    4.2658    9.2785   22.8909 C   0  0  0  0  0  0
    0.7892    8.2740   25.7017 C   0  0  0  0  0  0
    1.8703    8.2617   24.6989 N   0  0  2  0  0  0
    3.2645    8.2803   25.1702 C   0  0  2  0  0  0
    4.2434    8.1600   23.9658 C   0  0  0  0  0  0
    3.5189    7.1289   26.1660 C   0  0  0  0  0  0
    5.8921   16.8659   25.6619 H   0  0  0  0  0  0
    5.5584   16.7027   23.9677 H   0  0  0  0  0  0
    4.2433   16.7004   25.1669 H   0  0  0  0  0  0
    6.2049   14.7696   27.3100 H   0  0  0  0  0  0
    4.6572   15.5819   27.1670 H   0  0  0  0  0  0
    4.6975   13.8868   27.0331 H   0  0  0  0  0  0
    0.0690   12.6656   21.7032 H   0  0  0  0  0  0
    2.4606   12.3691   21.5608 H   0  0  0  0  0  0
    2.6144   11.1054   25.6203 H   0  0  0  0  0  0
   -3.3359   11.3849   24.3665 H   0  0  0  0  0  0
   -2.0164   10.2182   24.4187 H   0  0  0  0  0  0
   -0.9977   10.6152   25.8226 H   0  0  0  0  0  0
    1.6697    9.8438   26.9250 H   0  0  0  0  0  0
    0.1105    9.3535   27.4604 H   0  0  0  0  0  0
    4.0816   14.6649   23.5668 H   0  0  0  0  0  0
    3.4414   14.0199   25.0316 H   0  0  0  0  0  0
    7.1107   15.1380   23.8248 H   0  0  0  0  0  0
    7.6403   15.0312   25.4753 H   0  0  0  0  0  0
    8.2718   10.6741   22.9342 H   0  0  0  0  0  0
    7.7793    9.6420   24.2618 H   0  0  0  0  0  0
    7.2464    9.3061   22.6124 H   0  0  0  0  0  0
    4.8484    8.9065   22.0470 H   0  0  0  0  0  0
    3.2647    9.4022   22.4768 H   0  0  0  0  0  0
    0.8784    7.3985   26.3449 H   0  0  0  0  0  0
   -0.1539    8.1297   25.1711 H   0  0  0  0  0  0
    1.7286    9.0037   24.0272 H   0  0  0  0  0  0
    3.4772    9.2145   25.6853 H   0  0  0  0  0  0
    5.2600    8.0456   24.3451 H   0  0  0  0  0  0
    4.0256    7.2204   23.4540 H   0  0  0  0  0  0
    4.5708    7.0802   26.4473 H   0  0  0  0  0  0
    2.9588    7.2589   27.0916 H   0  0  0  0  0  0
    3.2498    6.1618   25.7388 H   0  0  0  0  0  0
  1  2  1  0  0  0
  1 31  1  0  0  0
  1 32  1  0  0  0
  1 33  1  0  0  0
  2  3  1  0  0  0
  2 20  1  0  0  0
  2 21  1  0  0  0
  3 34  1  0  0  0
  3 35  1  0  0  0
  3 36  1  0  0  0
  4  5  2  0  0  0
  4  9  1  0  0  0
  4 37  1  0  0  0
  5  6  1  0  0  0
  5 38  1  0  0  0
  6 15  1  0  0  0
  6  7  2  0  0  0
  7  8  1  0  0  0
  7 39  1  0  0  0
  8  9  2  0  0  0
  8 13  1  0  0  0
  9 10  1  0  0  0
 10 11  1  0  0  0
 10 12  2  0  0  0
 11 40  1  0  0  0
 11 41  1  0  0  0
 13 14  1  0  0  0
 13 42  1  0  0  0
 14 26  1  0  0  0
 14 43  1  0  0  0
 14 44  1  0  0  0
 15 17  1  0  0  0
 15 19  1  0  0  0
 16 18  1  0  0  0
 16 17  2  0  0  0
 16 24  1  0  0  0
 17 25  1  0  0  0
 18 19  2  0  0  0
 18 22  1  0  0  0
 19 20  1  0  0  0
 20 45  1  0  0  0
 20 46  1  0  0  0
 21 22  1  0  0  0
 21 47  1  0  0  0
 21 48  1  0  0  0
 22 23  2  0  0  0
 24 49  1  0  0  0
 24 50  1  0  0  0
 24 51  1  0  0  0
 25 29  1  0  0  0
 25 52  1  0  0  0
 25 53  1  0  0  0
 26 27  1  0  0  0
 26 54  1  0  0  0
 26 55  1  0  0  0
 27 28  1  0  0  0
 27 56  1  0  0  0
 28 29  1  0  0  0
 28 30  1  0  0  0
 28 57  1  0  0  0
 29 58  1  0  0  0
 29 59  1  0  0  0
 30 60  1  0  0  0
 30 61  1  0  0  0
 30 62  1  0  0  0
M  END
> <s_m_entry_id>
4774

> <s_m_entry_name>
dock_pv.93

> <s_m_Source_Path>
/home/csk/Desktop/cluster/DUD-E-result/hs90a

> <s_m_Source_File>
dock_pv.maegz

> <i_m_Source_File_Index>
93

> <chembl_id>
CHEMBL1760610

> <chembl_pref_name>
None

> <i_lp_mmshare_version>
53161

> <r_lp_tautomer_probability>
0.99995

> <s_lp_Force_Field>
OPLS_2005

> <r_lp_Energy>
40.909627

> <b_lp_Chiralities_Consistent>
1

> <s_lp_Variant>
CHEMBL3880_lig190-1

> <s_i_glide_gridfile>
glide-grid_1uyg

> <i_i_glide_lignum>
223

> <i_i_glide_rotatable_bonds>
1

> <r_i_docking_score>
-8.87103621443069

> <r_i_glide_ligand_efficiency>
-0.29570120714769

> <r_i_glide_ligand_efficiency_sa>
-0.91881240185741

> <r_i_glide_ligand_efficiency_ln>
-2.01559608559988

> <r_i_glide_gscore>
-8.87103621443069

> <r_i_glide_lipo>
-4.43274275942215

> <r_i_glide_hbond>
-0.16

> <r_i_glide_metal>
0

> <r_i_glide_rewards>
-1.99975218799843

> <r_i_glide_evdw>
-36.5921783447266

> <r_i_glide_ecoul>
-2.68879508972168

> <r_i_glide_erotb>
0

> <r_i_glide_esite>
-0.0456130863155348

> <r_i_glide_emodel>
-40.7347535147952

> <r_i_glide_energy>
-39.2809734344482

> <r_i_glide_einternal>
3.20597171783447

> <i_i_glide_confnum>
2

> <i_i_glide_posenum>
59

> <r_i_glide_eff_state_penalty>
0

> <s_user_duplicate_titles>
CHEMBL3880_lig190

> <i_f3d_flags>
0

> <s_m_subgroup_title>
dock_pv

> <s_m_subgroupid>
dock_pv

> <b_m_subgroup_collapsed>
1

$$$$
CHEMBL3880_lig965
                    3D
 Schrodinger Suite 2021-1.
 60 64  0  0  1  0            999 V2000
    5.2566    8.8869   21.1843 C   0  0  0  0  0  0
    5.4990    8.3723   22.6327 C   0  0  0  0  0  0
    5.2608    6.8549   22.8107 C   0  0  0  0  0  0
    0.9311   10.2938   25.4334 C   0  0  0  0  0  0
    2.2789   10.5342   25.1666 C   0  0  0  0  0  0
    2.6930   11.4670   24.2214 C   0  0  0  0  0  0
    1.7541   12.2082   23.5197 C   0  0  0  0  0  0
    4.0648   11.5907   23.9680 N   0  0  0  0  0  0
    4.9227   10.5454   23.7355 C   0  0  0  0  0  0
    6.2102   11.0420   23.5660 C   0  0  0  0  0  0
    7.3283   10.1671   23.2114 C   0  0  0  0  0  0
    6.9599    8.6748   23.0992 C   0  0  0  0  0  0
    4.4965    9.0901   23.5653 C   0  0  0  0  0  0
    8.4605   10.5725   22.9714 O   0  0  0  0  0  0
    6.1740   12.4243   23.8471 C   0  0  0  0  0  0
    4.8228   12.7343   23.9671 C   0  0  0  0  0  0
    7.3220   13.3982   23.9668 C   0  0  0  0  0  0
   -0.0292   11.0660   24.7224 C   0  0  0  0  0  0
    0.3956   12.0176   23.7639 C   0  0  0  0  0  0
   -0.6469   12.8158   23.0020 C   0  0  0  0  0  0
   -1.9125   11.9686   22.8016 C   0  0  0  0  0  0
   -2.3389   11.4497   24.1070 N   0  0  0  0  0  0
   -1.5106   10.9824   25.0615 C   0  0  0  0  0  0
   -2.0046   10.6882   26.1454 O   0  0  0  0  0  0
    0.5840    9.1338   26.4047 C   0  0  0  0  0  0
    0.1283    7.8680   25.6438 C   0  0  0  0  0  0
   -0.2481    6.7378   26.6278 C   0  0  0  0  0  0
    0.8236    6.4684   27.5309 O   0  0  0  0  0  0
    1.1940    7.5900   28.3307 C   0  0  0  0  0  0
    1.6916    8.7169   27.4069 C   0  0  0  0  0  0
    4.3352    8.4743   20.7725 H   0  0  0  0  0  0
    5.1697    9.9692   21.1304 H   0  0  0  0  0  0
    6.0609    8.6214   20.5051 H   0  0  0  0  0  0
    4.3204    6.5437   22.3531 H   0  0  0  0  0  0
    6.0585    6.2609   22.3668 H   0  0  0  0  0  0
    5.2237    6.5649   23.8616 H   0  0  0  0  0  0
    3.0434    9.9856   25.6904 H   0  0  0  0  0  0
    2.0746   12.9289   22.7806 H   0  0  0  0  0  0
    7.6930    8.1871   22.4565 H   0  0  0  0  0  0
    7.1085    8.2623   24.0979 H   0  0  0  0  0  0
    3.4767    8.9833   23.1886 H   0  0  0  0  0  0
    4.5166    8.6343   24.5566 H   0  0  0  0  0  0
    4.3478   13.6846   24.1586 H   0  0  0  0  0  0
    6.9955   14.4378   23.9615 H   0  0  0  0  0  0
    7.8924   13.2200   24.8779 H   0  0  0  0  0  0
    8.0296   13.2810   23.1519 H   0  0  0  0  0  0
   -0.8980   13.7132   23.5668 H   0  0  0  0  0  0
   -0.2696   13.1638   22.0393 H   0  0  0  0  0  0
   -2.7102   12.5804   22.3771 H   0  0  0  0  0  0
   -1.7553   11.1698   22.0780 H   0  0  0  0  0  0
   -3.3213   11.5759   24.3663 H   0  0  0  0  0  0
   -0.2223    9.4903   27.0389 H   0  0  0  0  0  0
   -0.7361    8.0868   25.0202 H   0  0  0  0  0  0
    0.9268    7.5114   24.9916 H   0  0  0  0  0  0
   -1.1391    7.0038   27.1961 H   0  0  0  0  0  0
   -0.4881    5.8258   26.0810 H   0  0  0  0  0  0
    0.3557    7.9201   28.9470 H   0  0  0  0  0  0
    1.9862    7.2874   29.0158 H   0  0  0  0  0  0
    2.5724    8.3295   26.8935 H   0  0  0  0  0  0
    1.9958    9.5690   28.0066 H   0  0  0  0  0  0
  1  2  1  0  0  0
  1 31  1  0  0  0
  1 32  1  0  0  0
  1 33  1  0  0  0
  2  3  1  0  0  0
  2 12  1  0  0  0
  2 13  1  0  0  0
  3 34  1  0  0  0
  3 35  1  0  0  0
  3 36  1  0  0  0
  4  5  2  0  0  0
  4 18  1  0  0  0
  4 25  1  0  0  0
  5  6  1  0  0  0
  5 37  1  0  0  0
  6  7  2  0  0  0
  6  8  1  0  0  0
  7 19  1  0  0  0
  7 38  1  0  0  0
  8 16  1  0  0  0
  8  9  1  0  0  0
  9 10  2  0  0  0
  9 13  1  0  0  0
 10 15  1  0  0  0
 10 11  1  0  0  0
 11 12  1  0  0  0
 11 14  2  0  0  0
 12 39  1  0  0  0
 12 40  1  0  0  0
 13 41  1  0  0  0
 13 42  1  0  0  0
 15 16  2  0  0  0
 15 17  1  0  0  0
 16 43  1  0  0  0
 17 44  1  0  0  0
 17 45  1  0  0  0
 17 46  1  0  0  0
 18 19  2  0  0  0
 18 23  1  0  0  0
 19 20  1  0  0  0
 20 21  1  0  0  0
 20 47  1  0  0  0
 20 48  1  0  0  0
 21 22  1  0  0  0
 21 49  1  0  0  0
 21 50  1  0  0  0
 22 23  1  0  0  0
 22 51  1  0  0  0
 23 24  2  0  0  0
 25 26  1  0  0  0
 25 30  1  0  0  0
 25 52  1  0  0  0
 26 27  1  0  0  0
 26 53  1  0  0  0
 26 54  1  0  0  0
 27 28  1  0  0  0
 27 55  1  0  0  0
 27 56  1  0  0  0
 28 29  1  0  0  0
 29 30  1  0  0  0
 29 57  1  0  0  0
 29 58  1  0  0  0
 30 59  1  0  0  0
 30 60  1  0  0  0
M  END
> <s_m_entry_id>
4775

> <s_m_entry_name>
dock_pv.94

> <s_m_Source_Path>
/home/csk/Desktop/cluster/DUD-E-result/hs90a

> <s_m_Source_File>
dock_pv.maegz

> <i_m_Source_File_Index>
94

> <chembl_id>
CHEMBL3235355

> <chembl_pref_name>
None

> <i_lp_mmshare_version>
53161

> <r_lp_tautomer_probability>
0.99995

> <s_lp_Force_Field>
OPLS_2005

> <r_lp_Energy>
37.9031

> <b_lp_Chiralities_Consistent>
1

> <s_lp_Variant>
CHEMBL3880_lig965-1

> <s_i_glide_gridfile>
glide-grid_1uyg

> <i_i_glide_lignum>
1074

> <i_i_glide_rotatable_bonds>
2

> <r_i_docking_score>
-8.85375723647814

> <r_i_glide_ligand_efficiency>
-0.295125241215938

> <r_i_glide_ligand_efficiency_sa>
-0.917022741793978

> <r_i_glide_ligand_efficiency_ln>
-2.01167011353952

> <r_i_glide_gscore>
-8.85375723647814

> <r_i_glide_lipo>
-3.93019855115743

> <r_i_glide_hbond>
-0.16

> <r_i_glide_metal>
0

> <r_i_glide_rewards>
-1.92614739241463

> <r_i_glide_evdw>
-47.9489974975586

> <r_i_glide_ecoul>
-4.10214328765869

> <r_i_glide_erotb>
0.237970303455481

> <r_i_glide_esite>
-0.0626102283348364

> <r_i_glide_emodel>
-67.154815026821

> <r_i_glide_energy>
-52.0511407852173

> <r_i_glide_einternal>
0.943031787872314

> <i_i_glide_confnum>
41

> <i_i_glide_posenum>
151

> <r_i_glide_eff_state_penalty>
0

> <s_user_duplicate_titles>
CHEMBL3880_lig965

> <i_f3d_flags>
0

> <s_m_subgroup_title>
dock_pv

> <s_m_subgroupid>
dock_pv

> <b_m_subgroup_collapsed>
1

$$$$
CHEMBL3880_lig204
                    3D
 Schrodinger Suite 2021-1.
 67 71  0  0  1  0            999 V2000
    0.4622   12.4220   23.1497 C   0  0  0  0  0  0
    1.8440   12.5101   23.0697 C   0  0  0  0  0  0
    2.6682   11.7536   23.8860 C   0  0  0  0  0  0
    2.0715   10.8819   24.8008 C   0  0  0  0  0  0
    0.6791   10.7210   24.8459 C   0  0  0  0  0  0
   -0.1619   11.5230   24.0336 C   0  0  0  0  0  0
   -1.6876   11.4530   24.0743 C   0  0  0  0  0  0
   -2.3366   10.9588   24.9996 O   0  0  0  0  0  0
   -2.3374   11.9871   23.0467 N   0  0  0  0  0  0
    0.1716    9.7106   25.6764 N   0  0  0  0  0  0
    5.0091   10.9648   23.3596 C   0  0  0  0  0  0
    4.0834   11.8986   23.7934 N   0  0  0  0  0  0
    6.2999   11.5012   23.4724 C   0  0  0  0  0  0
    6.1441   12.8048   23.9760 C   0  0  0  0  0  0
    4.7766   13.0637   24.0426 C   0  0  0  0  0  0
    4.1383   14.3701   24.5024 C   0  0  0  0  0  0
    5.1379   15.2287   25.3244 C   0  0  0  0  0  0
    6.6132   15.1634   24.8204 C   0  0  0  0  0  0
    7.1491   13.7585   24.4857 C   0  0  0  0  0  0
    4.7024   16.6553   25.3122 C   0  0  0  0  0  0
    5.1261   14.8040   26.7671 C   0  0  0  0  0  0
    8.3076   13.4569   24.7552 O   0  0  0  0  0  0
    7.6022   10.7639   23.2150 C   0  0  0  0  0  0
    4.5886    9.5937   22.8475 C   0  0  0  0  0  0
    4.3124    8.6077   23.9917 C   0  0  0  0  0  0
    2.9304    7.9336   23.9297 C   0  0  0  0  0  0
    0.0627    8.4195   24.9906 C   0  0  0  0  0  0
    2.5089    7.6041   25.2995 N   0  0  1  0  0  0
    1.0772    7.3701   25.4837 C   0  0  2  0  0  0
    3.0705    6.3297   25.7412 C   0  0  0  0  0  0
    2.1360    5.2130   25.2389 C   0  0  1  0  0  0
    0.7992    5.9411   25.0256 C   0  0  0  0  0  0
    0.8713    7.3703   26.5580 H   0  0  0  0  0  0
    2.5919    4.6328   24.0343 O   0  0  0  0  0  0
   -0.1066   13.0694   22.4975 H   0  0  0  0  0  0
    2.2894   13.1811   22.3670 H   0  0  0  0  0  0
    2.6889   10.3025   25.4671 H   0  0  0  0  0  0
   -3.3475   12.0163   23.1240 H   0  0  0  0  0  0
   -1.8759   12.2977   22.2071 H   0  0  0  0  0  0
    0.6686    9.6118   26.5495 H   0  0  0  0  0  0
    3.1956   14.2183   25.0307 H   0  0  0  0  0  0
    3.8886   14.8806   23.5788 H   0  0  0  0  0  0
    7.2834   15.5955   25.5622 H   0  0  0  0  0  0
    6.7463   15.7879   23.9540 H   0  0  0  0  0  0
    5.2606   17.1682   26.0674 H   0  0  0  0  0  0
    4.8607   17.1564   24.3671 H   0  0  0  0  0  0
    3.6626   16.7609   25.6050 H   0  0  0  0  0  0
    5.6152   15.5155   27.4312 H   0  0  0  0  0  0
    4.1510   14.5338   27.1673 H   0  0  0  0  0  0
    5.7566   13.9690   26.7677 H   0  0  0  0  0  0
    8.3850   11.0373   23.9234 H   0  0  0  0  0  0
    7.4886    9.6861   23.3177 H   0  0  0  0  0  0
    7.9975   10.9658   22.2181 H   0  0  0  0  0  0
    5.3644    9.1758   22.2012 H   0  0  0  0  0  0
    3.7250    9.6903   22.1874 H   0  0  0  0  0  0
    4.4589    9.0538   24.9767 H   0  0  0  0  0  0
    5.0654    7.8252   23.9378 H   0  0  0  0  0  0
    2.9740    7.0462   23.2999 H   0  0  0  0  0  0
    2.2126    8.5883   23.4405 H   0  0  0  0  0  0
    0.1076    8.5285   23.9087 H   0  0  0  0  0  0
   -0.9313    8.0252   25.1680 H   0  0  0  0  0  0
    3.1448    6.3604   26.8289 H   0  0  0  0  0  0
    4.0954    6.1658   25.4080 H   0  0  0  0  0  0
    2.0339    4.4760   26.0319 H   0  0  0  0  0  0
    0.0395    5.4888   25.6628 H   0  0  0  0  0  0
    0.4465    5.9223   23.9969 H   0  0  0  0  0  0
    2.2649    5.1572   23.2897 H   0  0  0  0  0  0
  1  6  1  0  0  0
  1  2  2  0  0  0
  1 35  1  0  0  0
  2  3  1  0  0  0
  2 36  1  0  0  0
  3 12  1  0  0  0
  3  4  2  0  0  0
  4  5  1  0  0  0
  4 37  1  0  0  0
  5 10  1  0  0  0
  5  6  2  0  0  0
  6  7  1  0  0  0
  7  9  1  0  0  0
  7  8  2  0  0  0
  9 38  1  0  0  0
  9 39  1  0  0  0
 10 27  1  0  0  0
 10 40  1  0  0  0
 11 12  1  0  0  0
 11 24  1  0  0  0
 11 13  2  0  0  0
 12 15  1  0  0  0
 13 23  1  0  0  0
 13 14  1  0  0  0
 14 19  1  0  0  0
 14 15  2  0  0  0
 15 16  1  0  0  0
 16 17  1  0  0  0
 16 41  1  0  0  0
 16 42  1  0  0  0
 17 18  1  0  0  0
 17 20  1  0  0  0
 17 21  1  0  0  0
 18 19  1  0  0  0
 18 43  1  0  0  0
 18 44  1  0  0  0
 19 22  2  0  0  0
 20 45  1  0  0  0
 20 46  1  0  0  0
 20 47  1  0  0  0
 21 48  1  0  0  0
 21 49  1  0  0  0
 21 50  1  0  0  0
 23 51  1  0  0  0
 23 52  1  0  0  0
 23 53  1  0  0  0
 24 25  1  0  0  0
 24 54  1  0  0  0
 24 55  1  0  0  0
 25 26  1  0  0  0
 25 56  1  0  0  0
 25 57  1  0  0  0
 26 28  1  0  0  0
 26 58  1  0  0  0
 26 59  1  0  0  0
 27 29  1  0  0  0
 27 60  1  0  0  0
 27 61  1  0  0  0
 28 29  1  0  0  0
 28 30  1  0  0  0
 29 32  1  0  0  0
 29 33  1  0  0  0
 30 31  1  0  0  0
 30 62  1  0  0  0
 30 63  1  0  0  0
 31 32  1  0  0  0
 31 34  1  0  0  0
 31 64  1  0  0  0
 32 65  1  0  0  0
 32 66  1  0  0  0
 34 67  1  0  0  0
M  END
> <s_m_entry_id>
4776

> <s_m_entry_name>
dock_pv.95

> <s_m_Source_Path>
/home/csk/Desktop/cluster/DUD-E-result/hs90a

> <s_m_Source_File>
dock_pv.maegz

> <i_m_Source_File_Index>
95

> <chembl_id>
CHEMBL1779538

> <chembl_pref_name>
None

> <i_lp_mmshare_version>
53161

> <r_lp_tautomer_probability>
0.99995

> <s_lp_Force_Field>
OPLS_2005

> <r_lp_Energy>
89.920079

> <b_lp_Chiralities_Consistent>
1

> <s_lp_Variant>
CHEMBL3880_lig204-1

> <s_i_glide_gridfile>
glide-grid_1uyg

> <i_i_glide_lignum>
238

> <i_i_glide_rotatable_bonds>
2

> <r_i_docking_score>
-8.8503758112183

> <r_i_glide_ligand_efficiency>
-0.268193206400555

> <r_i_glide_ligand_efficiency_sa>
-0.860238915598824

> <r_i_glide_ligand_efficiency_ln>
-1.96827775562149

> <r_i_glide_gscore>
-8.8503758112183

> <r_i_glide_lipo>
-4.41030091124898

> <r_i_glide_hbond>
-0.244186919135383

> <r_i_glide_metal>
0

> <r_i_glide_rewards>
-1.92924953403121

> <r_i_glide_evdw>
-34.5594596862793

> <r_i_glide_ecoul>
-3.41565561294556

> <r_i_glide_erotb>
0

> <r_i_glide_esite>
-0.0263171205469295

> <r_i_glide_emodel>
-55.9424646004278

> <r_i_glide_energy>
-37.9751152992249

> <r_i_glide_einternal>
2.2265145778656

> <i_i_glide_confnum>
1

> <i_i_glide_posenum>
7

> <r_i_glide_eff_state_penalty>
0

> <s_user_duplicate_titles>
CHEMBL3880_lig204

> <i_f3d_flags>
0

> <s_m_subgroup_title>
dock_pv

> <s_m_subgroupid>
dock_pv

> <b_m_subgroup_collapsed>
1

$$$$
CHEMBL3880_lig306
                    3D
 Schrodinger Suite 2021-1.
 67 69  0  0  1  0            999 V2000
    0.0168    8.5290   27.1157 C   0  0  0  0  0  0
   -0.7314    8.0433   27.9678 O   0  0  0  0  0  0
    1.3057    7.8065   26.7922 C   0  0  0  0  0  0
    2.2493    7.4897   27.7846 C   0  0  0  0  0  0
    3.4196    6.8185   27.4349 C   0  0  0  0  0  0
    3.6657    6.4577   26.1118 C   0  0  0  0  0  0
    2.7296    6.7452   25.1055 C   0  0  0  0  0  0
    1.5512    7.4104   25.4693 C   0  0  0  0  0  0
    4.8454    5.8239   25.8277 O   0  0  0  0  0  0
    2.0797    7.8617   29.0974 O   0  0  0  0  0  0
    2.9935    6.3541   23.6386 C   0  0  0  0  0  0
    3.9934    7.3211   22.9768 C   0  0  0  0  0  0
    1.7260    6.2110   22.7669 C   0  0  0  0  0  0
   -0.3005    9.6541   26.4154 N   0  0  0  0  0  0
   -2.2610   10.6321   25.2662 C   0  0  0  0  0  0
   -1.6138   10.3100   26.6452 C   0  0  0  0  0  0
    0.7321   10.4494   25.6935 C   0  0  0  0  0  0
   -1.5446   12.2170   23.4261 O   0  0  0  0  0  0
   -1.2393   11.3617   24.4284 C   0  0  0  0  0  0
    0.1126   11.3112   24.6152 C   0  0  0  0  0  0
    0.6190   12.2358   23.7014 C   0  0  0  0  0  0
   -0.3436   12.7690   22.9722 N   0  0  0  0  0  0
    2.0032   12.6025   23.6408 C   0  0  0  0  0  0
    2.8742   11.7748   23.3762 O   0  0  0  0  0  0
    2.2455   13.8774   23.9968 N   0  0  0  0  0  0
    3.5819   14.4510   24.1705 C   0  0  0  0  0  0
    4.1891   14.2568   25.5715 C   0  0  0  0  0  0
    5.5921   14.8846   25.7430 C   0  0  0  0  0  0
    6.6767   14.2851   24.8205 C   0  0  0  0  0  0
    8.0805   14.8879   25.0001 C   0  0  0  0  0  0
    8.7390   14.5584   26.3645 C   0  0  0  0  0  0
   10.2754   14.5067   26.3591 C   0  0  0  0  0  0
   10.8585   14.6090   27.5670 N   0  0  0  0  0  0
   10.8975   14.3689   25.3017 O   0  0  0  0  0  0
   12.2576   14.5680   27.6471 O   0  0  0  0  0  0
    4.1600    6.5905   28.1887 H   0  0  0  0  0  0
    0.8108    7.6431   24.7149 H   0  0  0  0  0  0
    4.9426    5.6596   24.8864 H   0  0  0  0  0  0
    2.8434    7.6953   29.6559 H   0  0  0  0  0  0
    3.4460    5.3610   23.6549 H   0  0  0  0  0  0
    4.9280    7.3847   23.5310 H   0  0  0  0  0  0
    4.2383    7.0065   21.9621 H   0  0  0  0  0  0
    3.5821    8.3291   22.9158 H   0  0  0  0  0  0
    0.9826    5.5690   23.2401 H   0  0  0  0  0  0
    1.2610    7.1742   22.5627 H   0  0  0  0  0  0
    1.9621    5.7645   21.8006 H   0  0  0  0  0  0
   -3.1388   11.2447   25.4463 H   0  0  0  0  0  0
   -2.6098    9.7319   24.7670 H   0  0  0  0  0  0
   -1.4420   11.2113   27.2212 H   0  0  0  0  0  0
   -2.3277    9.7086   27.2170 H   0  0  0  0  0  0
    1.5704    9.8767   25.2980 H   0  0  0  0  0  0
    1.2249   11.1429   26.3690 H   0  0  0  0  0  0
    1.4641   14.5083   24.0921 H   0  0  0  0  0  0
    3.5452   15.5191   23.9670 H   0  0  0  0  0  0
    4.2570   14.0470   23.4181 H   0  0  0  0  0  0
    4.2241   13.1933   25.8041 H   0  0  0  0  0  0
    3.5277   14.7046   26.3131 H   0  0  0  0  0  0
    5.8971   14.7695   26.7836 H   0  0  0  0  0  0
    5.5272   15.9596   25.5723 H   0  0  0  0  0  0
    6.3904   14.4330   23.7842 H   0  0  0  0  0  0
    6.7338   13.2046   24.9476 H   0  0  0  0  0  0
    8.0378   15.9688   24.8651 H   0  0  0  0  0  0
    8.6861   14.5192   24.1724 H   0  0  0  0  0  0
    8.4162   13.5689   26.6842 H   0  0  0  0  0  0
    8.3804   15.2520   27.1286 H   0  0  0  0  0  0
   10.4022   14.7680   28.4619 H   0  0  0  0  0  0
   12.4960   15.4779   27.8502 H   0  0  0  0  0  0
  1  2  2  0  0  0
  1  3  1  0  0  0
  1 14  1  0  0  0
  3  4  2  0  0  0
  3  8  1  0  0  0
  4  5  1  0  0  0
  4 10  1  0  0  0
  5  6  2  0  0  0
  5 36  1  0  0  0
  6  7  1  0  0  0
  6  9  1  0  0  0
  7  8  2  0  0  0
  7 11  1  0  0  0
  8 37  1  0  0  0
  9 38  1  0  0  0
 10 39  1  0  0  0
 11 12  1  0  0  0
 11 13  1  0  0  0
 11 40  1  0  0  0
 12 41  1  0  0  0
 12 42  1  0  0  0
 12 43  1  0  0  0
 13 44  1  0  0  0
 13 45  1  0  0  0
 13 46  1  0  0  0
 14 16  1  0  0  0
 14 17  1  0  0  0
 15 16  1  0  0  0
 15 19  1  0  0  0
 15 47  1  0  0  0
 15 48  1  0  0  0
 16 49  1  0  0  0
 16 50  1  0  0  0
 17 20  1  0  0  0
 17 51  1  0  0  0
 17 52  1  0  0  0
 18 19  1  0  0  0
 18 22  1  0  0  0
 19 20  2  0  0  0
 20 21  1  0  0  0
 21 22  2  0  0  0
 21 23  1  0  0  0
 23 24  2  0  0  0
 23 25  1  0  0  0
 25 26  1  0  0  0
 25 53  1  0  0  0
 26 27  1  0  0  0
 26 54  1  0  0  0
 26 55  1  0  0  0
 27 28  1  0  0  0
 27 56  1  0  0  0
 27 57  1  0  0  0
 28 29  1  0  0  0
 28 58  1  0  0  0
 28 59  1  0  0  0
 29 30  1  0  0  0
 29 60  1  0  0  0
 29 61  1  0  0  0
 30 31  1  0  0  0
 30 62  1  0  0  0
 30 63  1  0  0  0
 31 32  1  0  0  0
 31 64  1  0  0  0
 31 65  1  0  0  0
 32 33  1  0  0  0
 32 34  2  0  0  0
 33 35  1  0  0  0
 33 66  1  0  0  0
 35 67  1  0  0  0
M  END
> <s_m_entry_id>
4777

> <s_m_entry_name>
dock_pv.96

> <s_m_Source_Path>
/home/csk/Desktop/cluster/DUD-E-result/hs90a

> <s_m_Source_File>
dock_pv.maegz

> <i_m_Source_File_Index>
96

> <chembl_id>
CHEMBL3233755

> <chembl_pref_name>
None

> <i_lp_mmshare_version>
53161

> <r_lp_tautomer_probability>
0.999999999898

> <s_lp_Force_Field>
OPLS_2005

> <r_lp_Energy>
41.740142

> <b_lp_Chiralities_Consistent>
1

> <s_lp_Variant>
CHEMBL3880_lig306-1

> <s_i_glide_gridfile>
glide-grid_1uyg

> <i_i_glide_lignum>
343

> <i_i_glide_rotatable_bonds>
16

> <r_i_docking_score>
-8.84598931928079

> <r_i_glide_ligand_efficiency>
-0.252742551979451

> <r_i_glide_ligand_efficiency_sa>
-0.826737645951291

> <r_i_glide_ligand_efficiency_ln>
-1.9418909817373

> <r_i_glide_gscore>
-8.84598931928079

> <r_i_glide_lipo>
-3.33810201945363

> <r_i_glide_hbond>
-0.583493331278304

> <r_i_glide_metal>
0

> <r_i_glide_rewards>
-1.86599672599503

> <r_i_glide_evdw>
-57.3371658325195

> <r_i_glide_ecoul>
-8.0938835144043

> <r_i_glide_erotb>
1.02254357623279

> <r_i_glide_esite>
0

> <r_i_glide_emodel>
-89.5994729183727

> <r_i_glide_energy>
-65.4310493469238

> <r_i_glide_einternal>
18.9163208007812

> <i_i_glide_confnum>
60

> <i_i_glide_posenum>
360

> <r_i_glide_eff_state_penalty>
0

> <s_user_duplicate_titles>
CHEMBL3880_lig306

> <i_f3d_flags>
0

> <s_m_subgroup_title>
dock_pv

> <s_m_subgroupid>
dock_pv

> <b_m_subgroup_collapsed>
1

$$$$
CHEMBL3880_lig205
                    3D
 Schrodinger Suite 2021-1.
 66 70  0  0  1  0            999 V2000
    0.5078   12.2126   23.0350 C   0  0  0  0  0  0
    1.8881   12.2602   22.8360 C   0  0  0  0  0  0
    2.7456   11.6432   23.7435 C   0  0  0  0  0  0
    2.2086   10.9169   24.7989 C   0  0  0  0  0  0
    0.8289   10.7766   24.9603 C   0  0  0  0  0  0
   -0.0555   11.4874   24.1046 C   0  0  0  0  0  0
   -1.5658   11.4689   24.3143 C   0  0  0  0  0  0
   -2.0926   10.7828   25.1889 O   0  0  0  0  0  0
   -2.3293   12.2727   23.5688 N   0  0  0  0  0  0
    0.3726    9.9198   25.9788 N   0  0  0  0  0  0
    5.0196   10.7195   23.2878 C   0  0  0  0  0  0
    4.1503   11.7390   23.6413 N   0  0  0  0  0  0
    6.3336   11.1593   23.4925 C   0  0  0  0  0  0
    6.2440   12.4854   23.9669 C   0  0  0  0  0  0
    4.9018   12.8469   23.9688 C   0  0  0  0  0  0
    4.3321   14.1729   24.4634 C   0  0  0  0  0  0
    5.3946   15.0159   25.2489 C   0  0  0  0  0  0
    6.8626   14.8049   24.7667 C   0  0  0  0  0  0
    7.2947   13.3653   24.4847 C   0  0  0  0  0  0
    5.0961   16.4851   24.9786 C   0  0  0  0  0  0
    5.2410   14.7692   26.7597 C   0  0  0  0  0  0
    8.4283   12.9846   24.7670 O   0  0  0  0  0  0
    7.5983   10.3730   23.2100 C   0  0  0  0  0  0
    4.4951    9.3649   22.8148 C   0  0  0  0  0  0
    4.2483    8.3893   23.9898 C   0  0  0  0  0  0
    2.9721    7.5179   23.8509 C   0  0  0  0  0  0
    0.5139    8.4965   25.6582 C   0  0  0  0  0  0
    2.4662    6.9272   25.1003 N   0  0  2  0  0  0
    1.8590    7.8372   26.0721 C   0  0  2  0  0  0
    3.4310    6.1339   25.8567 C   0  0  0  0  0  0
    2.8185    5.9368   27.2447 C   0  0  2  0  0  0
    1.7325    7.0113   27.3628 C   0  0  0  0  0  0
    2.5430    8.6456   26.3186 H   0  0  0  0  0  0
    3.7625    6.1241   28.1681 F   0  0  0  0  0  0
   -0.1150   12.7373   22.3262 H   0  0  0  0  0  0
    2.2829   12.7685   21.9737 H   0  0  0  0  0  0
    2.8798   10.4717   25.5140 H   0  0  0  0  0  0
   -3.3230   12.3207   23.8185 H   0  0  0  0  0  0
   -1.9953   12.7284   22.7397 H   0  0  0  0  0  0
   -0.6217   10.1169   26.0378 H   0  0  0  0  0  0
    3.4041   14.0559   25.0275 H   0  0  0  0  0  0
    4.0447   14.7129   23.5667 H   0  0  0  0  0  0
    7.5747   15.2461   25.4642 H   0  0  0  0  0  0
    7.0250   15.3172   23.8220 H   0  0  0  0  0  0
    5.6412   17.1661   25.6231 H   0  0  0  0  0  0
    5.3295   16.7958   23.9672 H   0  0  0  0  0  0
    4.0609   16.7045   25.1822 H   0  0  0  0  0  0
    6.1873   14.7693   27.2995 H   0  0  0  0  0  0
    4.6268   15.5655   27.1724 H   0  0  0  0  0  0
    4.6832   13.8731   26.9872 H   0  0  0  0  0  0
    8.3700   11.0077   22.7721 H   0  0  0  0  0  0
    8.0257    9.9544   24.1203 H   0  0  0  0  0  0
    7.4438    9.5642   22.4975 H   0  0  0  0  0  0
    5.1935    8.9084   22.1112 H   0  0  0  0  0  0
    3.5819    9.4979   22.2319 H   0  0  0  0  0  0
    4.3004    8.8702   24.9647 H   0  0  0  0  0  0
    5.1048    7.7137   23.9965 H   0  0  0  0  0  0
    3.1885    6.6926   23.1698 H   0  0  0  0  0  0
    2.1766    8.0743   23.3550 H   0  0  0  0  0  0
    0.3385    8.3531   24.5901 H   0  0  0  0  0  0
   -0.3197    7.9726   26.1279 H   0  0  0  0  0  0
    4.3869    6.6534   25.9287 H   0  0  0  0  0  0
    3.6557    5.1991   25.3420 H   0  0  0  0  0  0
    2.4050    4.9371   27.3679 H   0  0  0  0  0  0
    1.9422    7.6421   28.2295 H   0  0  0  0  0  0
    0.7445    6.5711   27.5024 H   0  0  0  0  0  0
  1  6  1  0  0  0
  1  2  2  0  0  0
  1 35  1  0  0  0
  2  3  1  0  0  0
  2 36  1  0  0  0
  3 12  1  0  0  0
  3  4  2  0  0  0
  4  5  1  0  0  0
  4 37  1  0  0  0
  5 10  1  0  0  0
  5  6  2  0  0  0
  6  7  1  0  0  0
  7  9  1  0  0  0
  7  8  2  0  0  0
  9 38  1  0  0  0
  9 39  1  0  0  0
 10 27  1  0  0  0
 10 40  1  0  0  0
 11 12  1  0  0  0
 11 24  1  0  0  0
 11 13  2  0  0  0
 12 15  1  0  0  0
 13 23  1  0  0  0
 13 14  1  0  0  0
 14 19  1  0  0  0
 14 15  2  0  0  0
 15 16  1  0  0  0
 16 17  1  0  0  0
 16 41  1  0  0  0
 16 42  1  0  0  0
 17 18  1  0  0  0
 17 20  1  0  0  0
 17 21  1  0  0  0
 18 19  1  0  0  0
 18 43  1  0  0  0
 18 44  1  0  0  0
 19 22  2  0  0  0
 20 45  1  0  0  0
 20 46  1  0  0  0
 20 47  1  0  0  0
 21 48  1  0  0  0
 21 49  1  0  0  0
 21 50  1  0  0  0
 23 51  1  0  0  0
 23 52  1  0  0  0
 23 53  1  0  0  0
 24 25  1  0  0  0
 24 54  1  0  0  0
 24 55  1  0  0  0
 25 26  1  0  0  0
 25 56  1  0  0  0
 25 57  1  0  0  0
 26 28  1  0  0  0
 26 58  1  0  0  0
 26 59  1  0  0  0
 27 29  1  0  0  0
 27 60  1  0  0  0
 27 61  1  0  0  0
 28 29  1  0  0  0
 28 30  1  0  0  0
 29 32  1  0  0  0
 29 33  1  0  0  0
 30 31  1  0  0  0
 30 62  1  0  0  0
 30 63  1  0  0  0
 31 32  1  0  0  0
 31 34  1  0  0  0
 31 64  1  0  0  0
 32 65  1  0  0  0
 32 66  1  0  0  0
M  END
> <s_m_entry_id>
4778

> <s_m_entry_name>
dock_pv.97

> <s_m_Source_Path>
/home/csk/Desktop/cluster/DUD-E-result/hs90a

> <s_m_Source_File>
dock_pv.maegz

> <i_m_Source_File_Index>
97

> <chembl_id>
CHEMBL1779539

> <chembl_pref_name>
None

> <i_lp_mmshare_version>
53161

> <r_lp_tautomer_probability>
0.99995

> <s_lp_Force_Field>
OPLS_2005

> <r_lp_Energy>
60.241044

> <b_lp_Chiralities_Consistent>
1

> <s_lp_Variant>
CHEMBL3880_lig205-1

> <s_i_glide_gridfile>
glide-grid_1uyg

> <i_i_glide_lignum>
239

> <i_i_glide_rotatable_bonds>
1

> <r_i_docking_score>
-8.83914351450543

> <r_i_glide_ligand_efficiency>
-0.267852833772892

> <r_i_glide_ligand_efficiency_sa>
-0.859147158711878

> <r_i_glide_ligand_efficiency_ln>
-1.96577975099027

> <r_i_glide_gscore>
-8.83914351450543

> <r_i_glide_lipo>
-4.40134498579094

> <r_i_glide_hbond>
-0.16

> <r_i_glide_metal>
0

> <r_i_glide_rewards>
-1.84147383758902

> <r_i_glide_evdw>
-35.5919227600098

> <r_i_glide_ecoul>
-3.93609523773193

> <r_i_glide_erotb>
0

> <r_i_glide_esite>
-0.066314267465197

> <r_i_glide_emodel>
-42.4072674484458

> <r_i_glide_energy>
-39.5280179977417

> <r_i_glide_einternal>
0.283588647842407

> <i_i_glide_confnum>
1

> <i_i_glide_posenum>
3

> <r_i_glide_eff_state_penalty>
0

> <s_user_duplicate_titles>
CHEMBL3880_lig205

> <i_f3d_flags>
0

> <s_m_subgroup_title>
dock_pv

> <s_m_subgroupid>
dock_pv

> <b_m_subgroup_collapsed>
1

$$$$
CHEMBL3880_lig376
                    3D
 Schrodinger Suite 2021-1.
 48 51  0  0  1  0            999 V2000
   -1.6427   11.1131   25.4100 N   0  0  0  0  0  0
   -1.3367   11.6923   24.2243 C   0  0  0  0  0  0
   -0.1428   11.6072   23.5934 N   0  0  0  0  0  0
   -0.6704   10.3682   26.0042 C   0  0  0  0  0  0
    0.6018   10.2006   25.4151 C   0  0  0  0  0  0
    0.8027   10.8162   24.1692 C   0  0  0  0  0  0
    2.1197   10.5879   23.4508 C   0  0  0  0  0  0
    3.2694   10.4763   24.4849 C   0  0  1  0  0  0
    2.8919    9.4109   25.4412 N   0  0  0  0  0  0
    1.6728    9.3071   26.0208 C   0  0  0  0  0  0
    4.6231   10.3283   23.7703 C   0  0  0  0  0  0
    5.5202   11.4093   23.5289 C   0  0  0  0  0  0
    6.7458   11.1078   22.9022 C   0  0  0  0  0  0
    7.0905    9.8128   22.5359 C   0  0  0  0  0  0
    6.2029    8.7728   22.7649 C   0  0  0  0  0  0
    4.9793    9.0312   23.3690 C   0  0  0  0  0  0
   -1.0798    9.7521   27.3372 C   0  0  0  0  0  0
    1.5103    8.4670   26.9009 O   0  0  0  0  0  0
   -2.3390   12.4130   23.5835 N   0  0  0  0  0  0
    5.2850   12.8332   23.9670 C   0  0  0  0  0  0
    6.3983   13.5158   24.3671 N   0  0  0  0  0  0
    6.2498   14.6954   25.0376 C   0  0  0  0  0  0
    4.9725   15.2266   25.2506 C   0  0  0  0  0  0
    3.8642   14.6293   24.7503 N   0  0  0  0  0  0
    4.0321   13.4551   24.0939 C   0  0  0  0  0  0
    7.3687   15.3357   25.5389 O   0  0  0  0  0  0
    8.6546   14.7490   25.3578 C   0  0  0  0  0  0
    8.2912    9.5688   21.9670 F   0  0  0  0  0  0
    4.7209   16.4801   26.0627 C   0  0  0  0  0  0
    2.2956   11.3605   22.7036 H   0  0  0  0  0  0
    2.0610    9.6519   22.8939 H   0  0  0  0  0  0
    3.3225   11.3509   25.1292 H   0  0  0  0  0  0
    3.6100    8.7997   25.7985 H   0  0  0  0  0  0
    7.4677   11.8879   22.7071 H   0  0  0  0  0  0
    6.4633    7.7664   22.4716 H   0  0  0  0  0  0
    4.3047    8.2031   23.5347 H   0  0  0  0  0  0
   -0.3428    9.9689   28.1073 H   0  0  0  0  0  0
   -2.0463   10.1172   27.6878 H   0  0  0  0  0  0
   -1.1369    8.6686   27.2458 H   0  0  0  0  0  0
   -2.1723   12.7681   22.6561 H   0  0  0  0  0  0
   -3.2962   12.3684   23.9667 H   0  0  0  0  0  0
    3.1200   13.0248   23.7266 H   0  0  0  0  0  0
    9.4107   15.3846   25.8184 H   0  0  0  0  0  0
    8.7142   13.7653   25.8269 H   0  0  0  0  0  0
    8.8976   14.6543   24.2988 H   0  0  0  0  0  0
    5.5976   16.7673   26.6409 H   0  0  0  0  0  0
    4.4610   17.3045   25.4019 H   0  0  0  0  0  0
    3.9007   16.3326   26.7662 H   0  0  0  0  0  0
  1  2  2  0  0  0
  1  4  1  0  0  0
  2  3  1  0  0  0
  2 19  1  0  0  0
  3  6  2  0  0  0
  4  5  2  0  0  0
  4 17  1  0  0  0
  5  6  1  0  0  0
  5 10  1  0  0  0
  6  7  1  0  0  0
  7  8  1  0  0  0
  7 30  1  0  0  0
  7 31  1  0  0  0
  8  9  1  0  0  0
  8 11  1  0  0  0
  8 32  1  0  0  0
  9 10  1  0  0  0
  9 33  1  0  0  0
 10 18  2  0  0  0
 11 12  2  0  0  0
 11 16  1  0  0  0
 12 13  1  0  0  0
 12 20  1  0  0  0
 13 14  2  0  0  0
 13 34  1  0  0  0
 14 15  1  0  0  0
 14 28  1  0  0  0
 15 16  2  0  0  0
 15 35  1  0  0  0
 16 36  1  0  0  0
 17 37  1  0  0  0
 17 38  1  0  0  0
 17 39  1  0  0  0
 19 40  1  0  0  0
 19 41  1  0  0  0
 20 21  2  0  0  0
 20 25  1  0  0  0
 21 22  1  0  0  0
 22 23  2  0  0  0
 22 26  1  0  0  0
 23 24  1  0  0  0
 23 29  1  0  0  0
 24 25  2  0  0  0
 25 42  1  0  0  0
 26 27  1  0  0  0
 27 43  1  0  0  0
 27 44  1  0  0  0
 27 45  1  0  0  0
 29 46  1  0  0  0
 29 47  1  0  0  0
 29 48  1  0  0  0
M  END
> <s_m_entry_id>
4779

> <s_m_entry_name>
dock_pv.98

> <s_m_Source_Path>
/home/csk/Desktop/cluster/DUD-E-result/hs90a

> <s_m_Source_File>
dock_pv.maegz

> <i_m_Source_File_Index>
98

> <chembl_id>
CHEMBL3360313

> <chembl_pref_name>
None

> <i_lp_mmshare_version>
53161

> <r_lp_tautomer_probability>
0.999999987636

> <s_lp_Force_Field>
OPLS_2005

> <r_lp_Energy>
28.672583

> <b_lp_Chiralities_Consistent>
1

> <s_lp_Variant>
CHEMBL3880_lig376-1

> <s_i_glide_gridfile>
glide-grid_1uyg

> <i_i_glide_lignum>
418

> <i_i_glide_rotatable_bonds>
3

> <r_i_docking_score>
-8.835226021493

> <r_i_glide_ligand_efficiency>
-0.304662966258379

> <r_i_glide_ligand_efficiency_sa>
-0.936021156348358

> <r_i_glide_ligand_efficiency_ln>
-2.02304271692086

> <r_i_glide_gscore>
-8.835226021493

> <r_i_glide_lipo>
-4.16201108265988

> <r_i_glide_hbond>
-0.16

> <r_i_glide_metal>
0

> <r_i_glide_rewards>
-1.751258652379

> <r_i_glide_evdw>
-45.0791397094727

> <r_i_glide_ecoul>
-4.62576055526733

> <r_i_glide_erotb>
0.251290593410253

> <r_i_glide_esite>
-0.0654258111006415

> <r_i_glide_emodel>
-71.025725390408

> <r_i_glide_energy>
-49.70490026474

> <r_i_glide_einternal>
2.02167510986328

> <i_i_glide_confnum>
5

> <i_i_glide_posenum>
307

> <r_i_glide_eff_state_penalty>
0

> <s_user_duplicate_titles>
CHEMBL3880_lig376

> <i_f3d_flags>
0

> <s_m_subgroup_title>
dock_pv

> <s_m_subgroupid>
dock_pv

> <b_m_subgroup_collapsed>
1

$$$$
CHEMBL3880_lig933
                    3D
 Schrodinger Suite 2021-1.
 52 55  0  0  1  0            999 V2000
    0.0752   12.8110   23.6475 N   0  0  0  0  0  0
   -0.5325   11.6163   23.8372 C   0  0  0  0  0  0
    0.0436   10.5089   24.3689 N   0  0  0  0  0  0
    1.3490   10.6065   24.7563 C   0  0  0  0  0  0
   -1.8691   11.5287   23.4769 N   0  0  0  0  0  0
    1.9085    9.4028   25.4395 C   0  0  0  0  0  0
    1.3124    8.9061   26.6201 C   0  0  0  0  0  0
    1.8314    7.7866   27.2622 C   0  0  0  0  0  0
    2.9486    7.1441   26.7521 C   0  0  0  0  0  0
    3.5470    7.6158   25.5886 C   0  0  0  0  0  0
    3.0389    8.7405   24.9171 C   0  0  0  0  0  0
    3.6190    9.2347   23.7617 O   0  0  0  0  0  0
   -0.0702    9.6520   27.3491 Cl  0  0  0  0  0  0
    4.2548    8.3266   22.8594 C   0  0  0  0  0  0
    5.0960    9.0901   21.8276 C   0  0  0  0  0  0
    6.1958    9.8089   22.4680 N   0  0  0  0  0  0
    3.5994    5.7695   27.5660 Cl  0  0  0  0  0  0
    1.3654   12.8770   24.0545 C   0  0  0  0  0  0
    2.0638   11.8045   24.5877 C   0  0  0  0  0  0
    3.4755   12.2327   24.9382 C   0  0  0  0  0  0
    3.4235   13.6922   24.7651 N   0  0  0  0  0  0
    2.1804   14.1311   24.1315 C   0  0  0  0  0  0
    4.3539   14.5993   25.1542 C   0  0  0  0  0  0
    5.6372   14.1920   25.1671 N   0  0  0  0  0  0
    4.0617   15.7733   25.3699 O   0  0  0  0  0  0
    7.3923    9.2973   22.9058 C   0  0  0  0  0  0
    8.0544   10.3623   23.4866 C   0  0  0  0  0  0
    7.1872   11.4440   23.3374 C   0  0  0  0  0  0
    6.0573   11.1101   22.7678 N   0  0  0  0  0  0
    6.7142   14.9682   25.8116 C   0  0  0  0  0  0
    8.1326   14.6929   25.2874 C   0  0  0  0  0  0
    9.0250   15.5042   25.8516 F   0  0  0  0  0  0
    8.2104   14.8672   23.9678 F   0  0  0  0  0  0
    8.5195   13.4468   25.5531 F   0  0  0  0  0  0
   -2.3812   10.6962   23.7268 H   0  0  0  0  0  0
   -2.3661   12.3612   23.1956 H   0  0  0  0  0  0
    1.3659    7.4234   28.1668 H   0  0  0  0  0  0
    4.4260    7.0961   25.2483 H   0  0  0  0  0  0
    4.9153    7.6075   23.3398 H   0  0  0  0  0  0
    3.4826    7.7492   22.3497 H   0  0  0  0  0  0
    5.5166    8.3960   21.0995 H   0  0  0  0  0  0
    4.4717    9.7816   21.2643 H   0  0  0  0  0  0
    4.2186   11.7775   24.2879 H   0  0  0  0  0  0
    3.7358   11.9831   25.9661 H   0  0  0  0  0  0
    1.6843   14.8722   24.7529 H   0  0  0  0  0  0
    2.3658   14.5919   23.1671 H   0  0  0  0  0  0
    5.8511   13.2526   24.8671 H   0  0  0  0  0  0
    7.6438    8.2545   22.7760 H   0  0  0  0  0  0
    9.0192   10.3698   23.9652 H   0  0  0  0  0  0
    7.3751   12.4588   23.6475 H   0  0  0  0  0  0
    6.6862   14.7707   26.8829 H   0  0  0  0  0  0
    6.5281   16.0384   25.7029 H   0  0  0  0  0  0
  1 18  1  0  0  0
  1  2  2  0  0  0
  2  5  1  0  0  0
  2  3  1  0  0  0
  3  4  2  0  0  0
  4 19  1  0  0  0
  4  6  1  0  0  0
  5 35  1  0  0  0
  5 36  1  0  0  0
  6 11  1  0  0  0
  6  7  2  0  0  0
  7  8  1  0  0  0
  7 13  1  0  0  0
  8  9  2  0  0  0
  8 37  1  0  0  0
  9 17  1  0  0  0
  9 10  1  0  0  0
 10 11  2  0  0  0
 10 38  1  0  0  0
 11 12  1  0  0  0
 12 14  1  0  0  0
 14 15  1  0  0  0
 14 39  1  0  0  0
 14 40  1  0  0  0
 15 16  1  0  0  0
 15 41  1  0  0  0
 15 42  1  0  0  0
 16 26  1  0  0  0
 16 29  1  0  0  0
 18 19  2  0  0  0
 18 22  1  0  0  0
 19 20  1  0  0  0
 20 21  1  0  0  0
 20 43  1  0  0  0
 20 44  1  0  0  0
 21 22  1  0  0  0
 21 23  1  0  0  0
 22 45  1  0  0  0
 22 46  1  0  0  0
 23 24  1  0  0  0
 23 25  2  0  0  0
 24 30  1  0  0  0
 24 47  1  0  0  0
 26 27  2  0  0  0
 26 48  1  0  0  0
 27 28  1  0  0  0
 27 49  1  0  0  0
 28 29  2  0  0  0
 28 50  1  0  0  0
 30 31  1  0  0  0
 30 51  1  0  0  0
 30 52  1  0  0  0
 31 32  1  0  0  0
 31 33  1  0  0  0
 31 34  1  0  0  0
M  END
> <s_m_entry_id>
4780

> <s_m_entry_name>
dock_pv.99

> <s_m_Source_Path>
/home/csk/Desktop/cluster/DUD-E-result/hs90a

> <s_m_Source_File>
dock_pv.maegz

> <i_m_Source_File_Index>
99

> <chembl_id>
CHEMBL1774926

> <chembl_pref_name>
None

> <i_lp_mmshare_version>
53161

> <r_lp_tautomer_probability>
0.999999987636

> <s_lp_Force_Field>
OPLS_2005

> <r_lp_Energy>
30.935272

> <b_lp_Chiralities_Consistent>
1

> <s_lp_Variant>
CHEMBL3880_lig933-1

> <s_i_glide_gridfile>
glide-grid_1uyg

> <i_i_glide_lignum>
1039

> <i_i_glide_rotatable_bonds>
9

> <r_i_docking_score>
-8.83369623825271

> <r_i_glide_ligand_efficiency>
-0.259814595242727

> <r_i_glide_ligand_efficiency_sa>
-0.841698427903093

> <r_i_glide_ligand_efficiency_ln>
-1.95161127581675

> <r_i_glide_gscore>
-8.83369623825271

> <r_i_glide_lipo>
-3.79843220996288

> <r_i_glide_hbond>
0

> <r_i_glide_metal>
0

> <r_i_glide_rewards>
-2.41806844988448

> <r_i_glide_evdw>
-50.2784576416016

> <r_i_glide_ecoul>
-4.28162002563477

> <r_i_glide_erotb>
0.538970307519942

> <r_i_glide_esite>
0

> <r_i_glide_emodel>
-80.5090160270992

> <r_i_glide_energy>
-54.5600776672363

> <r_i_glide_einternal>
4.79751825332642

> <i_i_glide_confnum>
5

> <i_i_glide_posenum>
322

> <r_i_glide_eff_state_penalty>
0

> <s_user_duplicate_titles>
CHEMBL3880_lig933

> <i_f3d_flags>
0

> <s_m_subgroup_title>
dock_pv

> <s_m_subgroupid>
dock_pv

> <b_m_subgroup_collapsed>
1

$$$$
CHEMBL3880_lig810
                    3D
 Schrodinger Suite 2021-1.
 56 58  0  0  1  0            999 V2000
    6.9126   14.5258   25.1179 C   0  0  0  0  0  0
    5.6509   15.0096   25.4795 C   0  0  0  0  0  0
    4.4986   14.3112   25.1208 C   0  0  0  0  0  0
    7.0054   13.3886   24.2975 C   0  0  0  0  0  0
    5.8566   12.6762   23.9668 C   0  0  0  0  0  0
    4.6025   13.1349   24.3671 C   0  0  0  0  0  0
    3.6641   12.1055   24.1937 N   0  0  0  0  0  0
    4.2602   11.0370   23.3735 C   0  0  0  0  0  0
    5.7579   11.2887   23.4053 C   0  0  0  0  0  0
    2.3207   12.1934   24.3668 C   0  0  0  0  0  0
    1.7317   13.2762   24.3474 O   0  0  0  0  0  0
    1.5724   10.9129   24.7098 C   0  0  0  0  0  0
    0.1868   10.7801   24.5016 C   0  0  0  0  0  0
   -0.4406    9.5689   24.7669 C   0  0  0  0  0  0
    0.2864    8.4649   25.2065 C   0  0  0  0  0  0
    1.6409    8.5935   25.5204 C   0  0  0  0  0  0
    2.2539    9.8300   25.3023 C   0  0  0  0  0  0
    8.0109   15.1777   25.7014 N   0  0  0  0  0  0
   -0.5986   11.7836   23.9935 O   0  0  0  0  0  0
   -0.3390    7.2522   25.2887 O   0  0  0  0  0  0
    2.4450    7.4097   26.0838 C   0  0  0  0  0  0
    2.6094    7.5191   27.6098 C   0  0  0  0  0  0
    3.7925    7.1966   25.3699 C   0  0  0  0  0  0
    9.3063   14.8067   25.7322 C   0  0  0  0  0  0
    9.7584   13.8164   25.1676 O   0  0  0  0  0  0
   10.2603   15.7263   26.5092 C   0  0  0  0  0  0
   11.7287   15.2109   26.5622 C   0  0  0  0  0  0
   12.0632   14.3137   27.7597 C   0  0  0  0  0  0
   13.3372   14.3710   28.1879 N   0  0  0  0  0  0
   11.2087   13.5696   28.2460 O   0  0  0  0  0  0
   13.7538   13.4649   29.1670 O   0  0  0  0  0  0
    5.5558   15.8838   26.1082 H   0  0  0  0  0  0
    3.5468   14.6528   25.4989 H   0  0  0  0  0  0
    7.9526   12.9685   24.0041 H   0  0  0  0  0  0
    3.9679   10.0011   23.5331 H   0  0  0  0  0  0
    3.9006   11.2298   22.3672 H   0  0  0  0  0  0
    6.2313   11.1190   22.4388 H   0  0  0  0  0  0
    6.2048   10.5800   24.1040 H   0  0  0  0  0  0
   -1.4984    9.4766   24.5727 H   0  0  0  0  0  0
    3.2906    9.9329   25.5886 H   0  0  0  0  0  0
    7.7646   16.0108   26.2154 H   0  0  0  0  0  0
   -1.5274   11.5449   23.9491 H   0  0  0  0  0  0
   -1.1711    7.2603   24.8062 H   0  0  0  0  0  0
    1.8867    6.4910   25.8999 H   0  0  0  0  0  0
    1.6432    7.6279   28.1037 H   0  0  0  0  0  0
    3.0860    6.6286   28.0198 H   0  0  0  0  0  0
    3.2211    8.3755   27.8902 H   0  0  0  0  0  0
    3.6605    7.1266   24.2892 H   0  0  0  0  0  0
    4.4861    8.0086   25.5680 H   0  0  0  0  0  0
    4.2707    6.2737   25.7003 H   0  0  0  0  0  0
    9.8690   15.9190   27.5107 H   0  0  0  0  0  0
   10.2479   16.6714   25.9670 H   0  0  0  0  0  0
   12.3975   16.0578   26.6067 H   0  0  0  0  0  0
   12.0181   14.6879   25.6497 H   0  0  0  0  0  0
   14.0900   14.9441   27.8361 H   0  0  0  0  0  0
   13.5737   13.9236   30.0022 H   0  0  0  0  0  0
  1  2  2  0  0  0
  1  4  1  0  0  0
  1 18  1  0  0  0
  2  3  1  0  0  0
  2 32  1  0  0  0
  3  6  2  0  0  0
  3 33  1  0  0  0
  4  5  2  0  0  0
  4 34  1  0  0  0
  5  6  1  0  0  0
  5  9  1  0  0  0
  6  7  1  0  0  0
  7  8  1  0  0  0
  7 10  1  0  0  0
  8  9  1  0  0  0
  8 35  1  0  0  0
  8 36  1  0  0  0
  9 37  1  0  0  0
  9 38  1  0  0  0
 10 11  2  0  0  0
 10 12  1  0  0  0
 12 13  2  0  0  0
 12 17  1  0  0  0
 13 14  1  0  0  0
 13 19  1  0  0  0
 14 15  2  0  0  0
 14 39  1  0  0  0
 15 16  1  0  0  0
 15 20  1  0  0  0
 16 17  2  0  0  0
 16 21  1  0  0  0
 17 40  1  0  0  0
 18 24  1  0  0  0
 18 41  1  0  0  0
 19 42  1  0  0  0
 20 43  1  0  0  0
 21 22  1  0  0  0
 21 23  1  0  0  0
 21 44  1  0  0  0
 22 45  1  0  0  0
 22 46  1  0  0  0
 22 47  1  0  0  0
 23 48  1  0  0  0
 23 49  1  0  0  0
 23 50  1  0  0  0
 24 25  2  0  0  0
 24 26  1  0  0  0
 26 27  1  0  0  0
 26 51  1  0  0  0
 26 52  1  0  0  0
 27 28  1  0  0  0
 27 53  1  0  0  0
 27 54  1  0  0  0
 28 29  1  0  0  0
 28 30  2  0  0  0
 29 31  1  0  0  0
 29 55  1  0  0  0
 31 56  1  0  0  0
M  END
> <s_m_entry_id>
4781

> <s_m_entry_name>
dock_pv.100

> <s_m_Source_Path>
/home/csk/Desktop/cluster/DUD-E-result/hs90a

> <s_m_Source_File>
dock_pv.maegz

> <i_m_Source_File_Index>
100

> <chembl_id>
CHEMBL4249195

> <chembl_pref_name>
None

> <i_lp_mmshare_version>
53161

> <r_lp_tautomer_probability>
0.999999999898

> <s_lp_Force_Field>
OPLS_2005

> <r_lp_Energy>
55.376077

> <b_lp_Chiralities_Consistent>
1

> <s_lp_Variant>
CHEMBL3880_lig810-1

> <s_i_glide_gridfile>
glide-grid_1uyg

> <i_i_glide_lignum>
911

> <i_i_glide_rotatable_bonds>
12

> <r_i_docking_score>
-8.83353094627655

> <r_i_glide_ligand_efficiency>
-0.284952611170211

> <r_i_glide_ligand_efficiency_sa>
-0.895144618553871

> <r_i_glide_ligand_efficiency_ln>
-1.9922319435972

> <r_i_glide_gscore>
-8.83353094627655

> <r_i_glide_lipo>
-3.65127945625333

> <r_i_glide_hbond>
-0.450409803017186

> <r_i_glide_metal>
0

> <r_i_glide_rewards>
-1.73721170854875

> <r_i_glide_evdw>
-47.636646270752

> <r_i_glide_ecoul>
-9.88090515136719

> <r_i_glide_erotb>
0.869338107785388

> <r_i_glide_esite>
0

> <r_i_glide_emodel>
-82.6800944220162

> <r_i_glide_energy>
-57.5175514221191

> <r_i_glide_einternal>
7.61371469497681

> <i_i_glide_confnum>
55

> <i_i_glide_posenum>
130

> <r_i_glide_eff_state_penalty>
0

> <s_user_duplicate_titles>
CHEMBL3880_lig810

> <i_f3d_flags>
0

> <s_m_subgroup_title>
dock_pv

> <s_m_subgroupid>
dock_pv

> <b_m_subgroup_collapsed>
1

$$$$
CHEMBL3880_lig455
                    3D
 Schrodinger Suite 2021-1.
 65 69  0  0  1  0            999 V2000
    4.0595   15.9695   26.5310 C   0  0  0  0  0  0
    4.0602   15.1647   25.3501 O   0  0  0  0  0  0
    5.2661   14.6615   24.9158 C   0  0  0  0  0  0
    6.5053   15.2261   25.2324 C   0  0  0  0  0  0
    7.6612   14.5258   24.9222 C   0  0  0  0  0  0
    7.5499   13.2719   24.3326 C   0  0  0  0  0  0
    6.2835   12.7685   23.9688 C   0  0  0  0  0  0
    5.1627   13.5043   24.2121 N   0  0  0  0  0  0
    6.1281   11.3396   23.5053 C   0  0  0  0  0  0
    7.2406   10.7857   22.8451 C   0  0  0  0  0  0
    7.3157    9.4436   22.5148 C   0  0  0  0  0  0
    8.4473    8.9557   21.9675 F   0  0  0  0  0  0
    6.2378    8.6124   22.7666 C   0  0  0  0  0  0
    5.0906    9.1332   23.3442 C   0  0  0  0  0  0
    5.0086   10.4780   23.7493 C   0  0  0  0  0  0
    3.6723   10.8992   24.4155 C   0  0  1  0  0  0
    2.6376   11.2837   23.3003 C   0  0  0  0  0  0
    1.2092   11.3426   23.8287 C   0  0  0  0  0  0
    0.3018   12.1328   23.1906 N   0  0  0  0  0  0
   -0.9589   12.1356   23.6847 C   0  0  0  0  0  0
   -1.9378   12.8144   22.9790 N   0  0  0  0  0  0
   -1.3664   11.5150   24.8091 N   0  0  0  0  0  0
   -0.4424   10.7748   25.4676 C   0  0  0  0  0  0
   -0.9505   10.2384   26.8007 C   0  0  0  0  0  0
    0.8738   10.5942   24.9728 C   0  0  0  0  0  0
    1.9317    9.7322   25.5539 C   0  0  0  0  0  0
    3.1886    9.8618   25.3488 N   0  0  0  0  0  0
    1.4286    8.6269   26.2973 N   0  0  0  0  0  0
    2.2481    7.4681   26.5448 O   0  0  0  0  0  0
    2.5529    7.3541   27.9432 C   0  0  0  0  0  0
    1.3122    7.1248   28.8603 C   0  0  0  0  0  0
    0.1739    7.0740   28.3819 O   0  0  0  0  0  0
    1.5206    6.9980   30.1933 N   0  0  0  0  0  0
    0.4344    7.0577   31.1736 C   0  0  0  0  0  0
    1.1499    7.3359   32.4937 C   0  0  0  0  0  0
    2.5304    6.7548   32.3099 C   0  0  1  0  0  0
    2.4583    5.4466   32.5359 F   0  0  0  0  0  0
    2.8384    6.9783   30.8255 C   0  0  0  0  0  0
    3.2295   15.6713   27.1705 H   0  0  0  0  0  0
    4.9402   15.8704   27.1651 H   0  0  0  0  0  0
    3.9183   17.0156   26.2738 H   0  0  0  0  0  0
    6.5765   16.1701   25.7478 H   0  0  0  0  0  0
    8.6253   14.9173   25.2033 H   0  0  0  0  0  0
    8.4522   12.6914   24.2178 H   0  0  0  0  0  0
    8.1030   11.3861   22.6029 H   0  0  0  0  0  0
    6.2832    7.5690   22.4937 H   0  0  0  0  0  0
    4.2576    8.4624   23.5025 H   0  0  0  0  0  0
    3.8496   11.7474   25.0682 H   0  0  0  0  0  0
    2.9158   12.2222   22.8188 H   0  0  0  0  0  0
    2.6530   10.5219   22.5212 H   0  0  0  0  0  0
   -2.8907   12.7613   23.3239 H   0  0  0  0  0  0
   -1.7168   13.2385   22.0930 H   0  0  0  0  0  0
   -0.2042   10.4190   27.5706 H   0  0  0  0  0  0
   -1.8744   10.7247   27.1223 H   0  0  0  0  0  0
   -1.1387    9.1694   26.7604 H   0  0  0  0  0  0
    0.4748    8.3119   26.2015 H   0  0  0  0  0  0
    3.0924    8.2422   28.2786 H   0  0  0  0  0  0
    3.2370    6.5141   28.0603 H   0  0  0  0  0  0
   -0.1111    6.1145   31.2327 H   0  0  0  0  0  0
   -0.2136    7.9109   30.9866 H   0  0  0  0  0  0
    0.6162    6.9438   33.3594 H   0  0  0  0  0  0
    1.2502    8.4125   32.6447 H   0  0  0  0  0  0
    3.2617    7.1689   32.9961 H   0  0  0  0  0  0
    3.2600    7.9667   30.6759 H   0  0  0  0  0  0
    3.5134    6.2218   30.4237 H   0  0  0  0  0  0
  1  2  1  0  0  0
  1 39  1  0  0  0
  1 40  1  0  0  0
  1 41  1  0  0  0
  2  3  1  0  0  0
  3  4  2  0  0  0
  3  8  1  0  0  0
  4  5  1  0  0  0
  4 42  1  0  0  0
  5  6  2  0  0  0
  5 43  1  0  0  0
  6  7  1  0  0  0
  6 44  1  0  0  0
  7  8  2  0  0  0
  7  9  1  0  0  0
  9 10  2  0  0  0
  9 15  1  0  0  0
 10 11  1  0  0  0
 10 45  1  0  0  0
 11 12  1  0  0  0
 11 13  2  0  0  0
 13 14  1  0  0  0
 13 46  1  0  0  0
 14 15  2  0  0  0
 14 47  1  0  0  0
 15 16  1  0  0  0
 16 17  1  0  0  0
 16 27  1  0  0  0
 16 48  1  0  0  0
 17 18  1  0  0  0
 17 49  1  0  0  0
 17 50  1  0  0  0
 18 19  2  0  0  0
 18 25  1  0  0  0
 19 20  1  0  0  0
 20 21  1  0  0  0
 20 22  2  0  0  0
 21 51  1  0  0  0
 21 52  1  0  0  0
 22 23  1  0  0  0
 23 24  1  0  0  0
 23 25  2  0  0  0
 24 53  1  0  0  0
 24 54  1  0  0  0
 24 55  1  0  0  0
 25 26  1  0  0  0
 26 27  2  0  0  0
 26 28  1  0  0  0
 28 29  1  0  0  0
 28 56  1  0  0  0
 29 30  1  0  0  0
 30 31  1  0  0  0
 30 57  1  0  0  0
 30 58  1  0  0  0
 31 32  2  0  0  0
 31 33  1  0  0  0
 33 34  1  0  0  0
 33 38  1  0  0  0
 34 35  1  0  0  0
 34 59  1  0  0  0
 34 60  1  0  0  0
 35 36  1  0  0  0
 35 61  1  0  0  0
 35 62  1  0  0  0
 36 37  1  0  0  0
 36 38  1  0  0  0
 36 63  1  0  0  0
 38 64  1  0  0  0
 38 65  1  0  0  0
M  END
> <s_m_entry_id>
4782

> <s_m_entry_name>
dock_pv.101

> <s_m_Source_Path>
/home/csk/Desktop/cluster/DUD-E-result/hs90a

> <s_m_Source_File>
dock_pv.maegz

> <i_m_Source_File_Index>
101

> <chembl_id>
CHEMBL3675270

> <chembl_pref_name>
None

> <i_lp_mmshare_version>
53161

> <r_lp_tautomer_probability>
1

> <s_lp_Force_Field>
OPLS_2005

> <r_lp_Energy>
49.008777

> <b_lp_Chiralities_Consistent>
1

> <s_lp_Variant>
CHEMBL3880_lig455-1

> <s_i_glide_gridfile>
glide-grid_1uyg

> <i_i_glide_lignum>
501

> <i_i_glide_rotatable_bonds>
8

> <r_i_docking_score>
-8.83050263718938

> <r_i_glide_ligand_efficiency>
-0.232381648347089

> <r_i_glide_ligand_efficiency_sa>
-0.781261385787016

> <r_i_glide_ligand_efficiency_ln>
-1.90411613564725

> <r_i_glide_gscore>
-8.83050263718938

> <r_i_glide_lipo>
-4.26727423434051

> <r_i_glide_hbond>
-0.0581771438334595

> <r_i_glide_metal>
0

> <r_i_glide_rewards>
-1.17285527756729

> <r_i_glide_evdw>
-57.118522644043

> <r_i_glide_ecoul>
-5.17957973480225

> <r_i_glide_erotb>
0.450309969537806

> <r_i_glide_esite>
-0.14964285856345

> <r_i_glide_emodel>
-61.6297814808446

> <r_i_glide_energy>
-62.2981023788452

> <r_i_glide_einternal>
10.5699329376221

> <i_i_glide_confnum>
5

> <i_i_glide_posenum>
131

> <r_i_glide_eff_state_penalty>
0

> <s_user_duplicate_titles>
CHEMBL3880_lig455

> <i_f3d_flags>
0

> <s_m_subgroup_title>
dock_pv

> <s_m_subgroupid>
dock_pv

> <b_m_subgroup_collapsed>
1

$$$$
CHEMBL3880_lig911
                    3D
 Schrodinger Suite 2021-1.
 51 53  0  0  1  0            999 V2000
    0.0547    9.6140   26.7896 N   0  0  0  0  0  0
    1.2367    9.0544   27.1597 C   0  0  0  0  0  0
    2.4108    9.1373   26.4758 N   0  0  0  0  0  0
    2.4023    9.8688   25.3234 C   0  0  0  0  0  0
    1.2490    8.3459   28.3541 N   0  0  0  0  0  0
    3.6610    9.9129   24.5194 C   0  0  0  0  0  0
    4.1921    8.7286   23.9670 C   0  0  0  0  0  0
    5.3438    8.7636   23.1843 C   0  0  0  0  0  0
    5.9855    9.9690   22.9382 C   0  0  0  0  0  0
    5.4709   11.1464   23.4685 C   0  0  0  0  0  0
    4.2979   11.1449   24.2447 C   0  0  0  0  0  0
    3.7442   12.2954   24.7928 O   0  0  0  0  0  0
    3.4302    7.1890   24.1907 Cl  0  0  0  0  0  0
    4.1218   13.6116   24.3670 C   0  0  0  0  0  0
    4.5330   14.4797   25.5804 C   0  0  0  0  0  0
    5.6987   15.4617   25.3059 C   0  0  0  0  0  0
    7.1124   14.8329   25.3034 C   0  0  0  0  0  0
    7.5870   14.7374   26.5445 F   0  0  0  0  0  0
    7.9756   15.5690   24.6091 F   0  0  0  0  0  0
    7.1440   13.6150   24.7670 F   0  0  0  0  0  0
    7.4130   10.0088   21.9670 Cl  0  0  0  0  0  0
    0.0852   10.3365   25.6414 C   0  0  0  0  0  0
    1.2380   10.5086   24.8917 C   0  0  0  0  0  0
    0.9714   11.3873   23.7094 C   0  0  0  0  0  0
   -0.4719   11.6146   23.7854 N   0  0  0  0  0  0
   -1.0839   11.0331   24.9894 C   0  0  0  0  0  0
   -1.0683   12.3997   22.8605 C   0  0  0  0  0  0
   -2.3390   12.7690   23.1327 N   0  0  0  0  0  0
   -0.4538   12.7690   21.8556 O   0  0  0  0  0  0
   -3.1470   13.8029   22.4712 C   0  0  0  0  0  0
   -2.8757   14.0082   20.9817 C   0  0  0  0  0  0
    0.4366    8.4048   28.9501 H   0  0  0  0  0  0
    2.1408    8.0384   28.7120 H   0  0  0  0  0  0
    5.7389    7.8502   22.7623 H   0  0  0  0  0  0
    6.0233   12.0449   23.2583 H   0  0  0  0  0  0
    3.2391   14.0571   23.9071 H   0  0  0  0  0  0
    4.8657   13.6590   23.5777 H   0  0  0  0  0  0
    4.7896   13.8527   26.4316 H   0  0  0  0  0  0
    3.6610   15.0446   25.9107 H   0  0  0  0  0  0
    5.6826   16.2505   26.0603 H   0  0  0  0  0  0
    5.5205   15.9809   24.3670 H   0  0  0  0  0  0
    1.5011   12.3384   23.7627 H   0  0  0  0  0  0
    1.2610   10.9233   22.7670 H   0  0  0  0  0  0
   -1.8815   10.3383   24.7213 H   0  0  0  0  0  0
   -1.5285   11.8010   25.6220 H   0  0  0  0  0  0
   -2.8179   12.3217   23.9045 H   0  0  0  0  0  0
   -4.2032   13.5690   22.5623 H   0  0  0  0  0  0
   -3.1390   14.7373   23.0255 H   0  0  0  0  0  0
   -3.5390   14.7690   20.6490 H   0  0  0  0  0  0
   -1.8818   14.3690   20.7470 H   0  0  0  0  0  0
   -3.0900   13.1266   20.3876 H   0  0  0  0  0  0
  1 22  1  0  0  0
  1  2  2  0  0  0
  2  5  1  0  0  0
  2  3  1  0  0  0
  3  4  2  0  0  0
  4 23  1  0  0  0
  4  6  1  0  0  0
  5 32  1  0  0  0
  5 33  1  0  0  0
  6  7  2  0  0  0
  6 11  1  0  0  0
  7  8  1  0  0  0
  7 13  1  0  0  0
  8  9  2  0  0  0
  8 34  1  0  0  0
  9 10  1  0  0  0
  9 21  1  0  0  0
 10 11  2  0  0  0
 10 35  1  0  0  0
 11 12  1  0  0  0
 12 14  1  0  0  0
 14 15  1  0  0  0
 14 36  1  0  0  0
 14 37  1  0  0  0
 15 16  1  0  0  0
 15 38  1  0  0  0
 15 39  1  0  0  0
 16 17  1  0  0  0
 16 40  1  0  0  0
 16 41  1  0  0  0
 17 18  1  0  0  0
 17 19  1  0  0  0
 17 20  1  0  0  0
 22 23  2  0  0  0
 22 26  1  0  0  0
 23 24  1  0  0  0
 24 25  1  0  0  0
 24 42  1  0  0  0
 24 43  1  0  0  0
 25 26  1  0  0  0
 25 27  1  0  0  0
 26 44  1  0  0  0
 26 45  1  0  0  0
 27 28  1  0  0  0
 27 29  2  0  0  0
 28 30  1  0  0  0
 28 46  1  0  0  0
 30 31  1  0  0  0
 30 47  1  0  0  0
 30 48  1  0  0  0
 31 49  1  0  0  0
 31 50  1  0  0  0
 31 51  1  0  0  0
M  END
> <s_m_entry_id>
4783

> <s_m_entry_name>
dock_pv.102

> <s_m_Source_Path>
/home/csk/Desktop/cluster/DUD-E-result/hs90a

> <s_m_Source_File>
dock_pv.maegz

> <i_m_Source_File_Index>
102

> <chembl_id>
CHEMBL1774905

> <chembl_pref_name>
None

> <i_lp_mmshare_version>
53161

> <r_lp_tautomer_probability>
0.999999987636

> <s_lp_Force_Field>
OPLS_2005

> <r_lp_Energy>
34.763513

> <b_lp_Chiralities_Consistent>
1

> <s_lp_Variant>
CHEMBL3880_lig911-1

> <s_i_glide_gridfile>
glide-grid_1uyg

> <i_i_glide_lignum>
1017

> <i_i_glide_rotatable_bonds>
9

> <r_i_docking_score>
-8.82955415190615

> <r_i_glide_ligand_efficiency>
-0.284824327480843

> <r_i_glide_ligand_efficiency_sa>
-0.894741630654535

> <r_i_glide_ligand_efficiency_ln>
-1.99133505459256

> <r_i_glide_gscore>
-8.82955415190615

> <r_i_glide_lipo>
-3.92754532275805

> <r_i_glide_hbond>
-0.076283510217041

> <r_i_glide_metal>
0

> <r_i_glide_rewards>
-2.39330339504427

> <r_i_glide_evdw>
-47.8419418334961

> <r_i_glide_ecoul>
-4.19760322570801

> <r_i_glide_erotb>
0.620038748801814

> <r_i_glide_esite>
-0.0307230971575931

> <r_i_glide_emodel>
-74.3797909408395

> <r_i_glide_energy>
-52.0395450592041

> <r_i_glide_einternal>
7.83302164077759

> <i_i_glide_confnum>
1

> <i_i_glide_posenum>
117

> <r_i_glide_eff_state_penalty>
0

> <s_user_duplicate_titles>
CHEMBL3880_lig911

> <i_f3d_flags>
0

> <s_m_subgroup_title>
dock_pv

> <s_m_subgroupid>
dock_pv

> <b_m_subgroup_collapsed>
1

$$$$
CHEMBL3880_lig261
                    3D
 Schrodinger Suite 2021-1.
 40 42  0  0  1  0            999 V2000
    7.6553   11.2991   23.2903 N   0  0  0  0  0  0
    6.9064   10.2430   22.9028 C   0  0  0  0  0  0
    5.5599   10.1216   22.9715 N   0  0  0  0  0  0
    7.0061   12.3798   23.7947 C   0  0  0  0  0  0
    5.6013   12.3938   23.9123 C   0  0  0  0  0  0
    4.9484   11.1984   23.4869 C   0  0  0  0  0  0
    3.5887   11.3655   23.6900 N   0  0  0  0  0  0
    3.3924   12.6263   24.2135 C   0  0  0  0  0  0
    4.5821   13.3048   24.3670 C   0  0  0  0  0  0
    7.9489   13.7325   24.3100 Cl  0  0  0  0  0  0
    7.5994    9.1693   22.3688 N   0  0  0  0  0  0
    2.5283   10.4090   23.3749 C   0  0  0  0  0  0
    1.6004   10.1325   24.5553 C   0  0  0  0  0  0
    0.3865   10.8166   24.7669 C   0  0  0  0  0  0
   -0.3542   10.4966   25.9240 C   0  0  0  0  0  0
    0.1197    9.5096   26.8004 C   0  0  0  0  0  0
    1.3274    8.8807   26.5001 C   0  0  0  0  0  0
    2.0661    9.1830   25.4077 N   0  0  0  0  0  0
   -0.1141   11.8963   23.8071 C   0  0  0  0  0  0
   -0.6613    9.0896   28.0364 C   0  0  0  0  0  0
   -1.5241   11.1464   26.2421 O   0  0  0  0  0  0
   -2.6202   10.8749   25.3783 C   0  0  0  0  0  0
    4.7278   14.6502   24.8987 C   0  0  0  0  0  0
    4.8117   15.7805   25.3527 C   0  0  0  0  0  0
    2.3950   12.9568   24.4590 H   0  0  0  0  0  0
    7.1005    8.3427   22.0638 H   0  0  0  0  0  0
    8.6055    9.2087   22.3669 H   0  0  0  0  0  0
    1.9887   10.7728   22.5025 H   0  0  0  0  0  0
    2.9835    9.4698   23.0522 H   0  0  0  0  0  0
    1.7300    8.1147   27.1466 H   0  0  0  0  0  0
   -0.5731   12.7122   24.3648 H   0  0  0  0  0  0
    0.6700   12.3602   23.2131 H   0  0  0  0  0  0
   -0.8637   11.4851   23.1298 H   0  0  0  0  0  0
   -1.7175    9.3510   27.9681 H   0  0  0  0  0  0
   -0.6160    8.0078   28.1664 H   0  0  0  0  0  0
   -0.2405    9.5522   28.9262 H   0  0  0  0  0  0
   -3.5341   10.7787   25.9660 H   0  0  0  0  0  0
   -2.7389   11.7067   24.6877 H   0  0  0  0  0  0
   -2.5098    9.9688   24.7821 H   0  0  0  0  0  0
    4.8660   16.7686   25.7500 H   0  0  0  0  0  0
  1  2  2  0  0  0
  1  4  1  0  0  0
  2  3  1  0  0  0
  2 11  1  0  0  0
  3  6  2  0  0  0
  4  5  2  0  0  0
  4 10  1  0  0  0
  5  6  1  0  0  0
  5  9  1  0  0  0
  6  7  1  0  0  0
  7  8  1  0  0  0
  7 12  1  0  0  0
  8  9  2  0  0  0
  8 25  1  0  0  0
  9 23  1  0  0  0
 11 26  1  0  0  0
 11 27  1  0  0  0
 12 13  1  0  0  0
 12 28  1  0  0  0
 12 29  1  0  0  0
 13 14  2  0  0  0
 13 18  1  0  0  0
 14 15  1  0  0  0
 14 19  1  0  0  0
 15 16  2  0  0  0
 15 21  1  0  0  0
 16 17  1  0  0  0
 16 20  1  0  0  0
 17 18  2  0  0  0
 17 30  1  0  0  0
 19 31  1  0  0  0
 19 32  1  0  0  0
 19 33  1  0  0  0
 20 34  1  0  0  0
 20 35  1  0  0  0
 20 36  1  0  0  0
 21 22  1  0  0  0
 22 37  1  0  0  0
 22 38  1  0  0  0
 22 39  1  0  0  0
 23 24  3  0  0  0
 24 40  1  0  0  0
M  END
> <s_m_entry_id>
4784

> <s_m_entry_name>
dock_pv.103

> <s_m_Source_Path>
/home/csk/Desktop/cluster/DUD-E-result/hs90a

> <s_m_Source_File>
dock_pv.maegz

> <i_m_Source_File_Index>
103

> <chembl_id>
CHEMBL2205245

> <chembl_pref_name>
None

> <i_lp_mmshare_version>
53161

> <r_lp_tautomer_probability>
1

> <s_lp_Force_Field>
OPLS_2005

> <r_lp_Energy>
8.427202

> <b_lp_Chiralities_Consistent>
1

> <s_lp_Variant>
CHEMBL3880_lig261-1

> <s_i_glide_gridfile>
glide-grid_1uyg

> <i_i_glide_lignum>
295

> <i_i_glide_rotatable_bonds>
4

> <r_i_docking_score>
-8.81894312301787

> <r_i_glide_ligand_efficiency>
-0.367455963459078

> <r_i_glide_ligand_efficiency_sa>
-1.05992640968866

> <r_i_glide_ligand_efficiency_ln>
-2.11077776426912

> <r_i_glide_gscore>
-8.81894312301787

> <r_i_glide_lipo>
-3.75464296008842

> <r_i_glide_hbond>
-0.352997657041849

> <r_i_glide_metal>
0

> <r_i_glide_rewards>
-2.63984052158873

> <r_i_glide_evdw>
-42.3451614379883

> <r_i_glide_ecoul>
-2.93966221809387

> <r_i_glide_erotb>
0.486745420314637

> <r_i_glide_esite>
0

> <r_i_glide_emodel>
-67.471832830301

> <r_i_glide_energy>
-45.2848236560822

> <r_i_glide_einternal>
2.5179181098938

> <i_i_glide_confnum>
2

> <i_i_glide_posenum>
244

> <r_i_glide_eff_state_penalty>
0

> <s_user_duplicate_titles>
CHEMBL3880_lig261

> <i_f3d_flags>
0

> <s_m_subgroup_title>
dock_pv

> <s_m_subgroupid>
dock_pv

> <b_m_subgroup_collapsed>
1

$$$$
CHEMBL3880_lig931
                    3D
 Schrodinger Suite 2021-1.
 57 62  0  0  1  0            999 V2000
   -0.1736   13.1473   23.5008 N   0  0  0  0  0  0
   -0.8987   12.0116   23.6107 C   0  0  0  0  0  0
   -0.4682   10.8362   24.1354 N   0  0  0  0  0  0
    0.8370   10.7819   24.5334 C   0  0  0  0  0  0
   -2.2021   12.0733   23.1515 N   0  0  0  0  0  0
    1.2631    9.4850   25.1290 C   0  0  0  0  0  0
    0.6707    9.0341   26.3255 C   0  0  0  0  0  0
    1.0088    7.7929   26.8585 C   0  0  0  0  0  0
    1.9309    6.9815   26.2133 C   0  0  0  0  0  0
    2.5324    7.4182   25.0365 C   0  0  0  0  0  0
    2.2339    8.6810   24.4938 C   0  0  0  0  0  0
    2.8386    9.1695   23.3421 O   0  0  0  0  0  0
   -0.4879    9.9877   27.1893 Cl  0  0  0  0  0  0
    3.6311    8.3153   22.5076 C   0  0  0  0  0  0
    5.0738    8.0442   23.0243 C   0  0  0  0  0  0
    6.0091    9.1618   22.8857 N   0  0  0  0  0  0
    2.3335    5.4390   26.8724 Cl  0  0  0  0  0  0
    1.0984   13.0667   23.9463 C   0  0  0  0  0  0
    1.6753   11.9026   24.4273 C   0  0  0  0  0  0
    3.1258   12.1514   24.7664 C   0  0  0  0  0  0
    3.2335   13.6156   24.6542 N   0  0  0  0  0  0
    2.0293   14.2258   24.0931 C   0  0  0  0  0  0
    4.3223   14.3688   24.9244 C   0  0  0  0  0  0
    5.4944   13.7352   24.7668 N   0  0  0  0  0  0
    4.2519   15.5721   25.1669 O   0  0  0  0  0  0
    7.3786    9.0725   22.8242 C   0  0  0  0  0  0
    7.8406   10.3742   22.8079 C   0  0  0  0  0  0
    6.6876   11.1583   22.8649 C   0  0  0  0  0  0
    5.5920   10.4350   22.9338 N   0  0  0  0  0  0
    6.7971   14.3013   25.0952 C   0  0  0  0  0  0
    8.1124   13.5287   25.1452 C   0  0  0  0  0  0
    8.4251   15.0171   25.4664 C   0  0  0  0  0  0
    7.1836   15.0145   26.3960 C   0  0  0  0  0  0
    7.4817   15.4023   24.2986 C   0  0  0  0  0  0
   -2.8517   11.3709   23.4782 H   0  0  0  0  0  0
   -2.5671   12.9708   22.8763 H   0  0  0  0  0  0
    0.5496    7.4587   27.7774 H   0  0  0  0  0  0
    3.2337    6.7551   24.5591 H   0  0  0  0  0  0
    3.1076    7.3738   22.3454 H   0  0  0  0  0  0
    3.6766    8.7743   21.5199 H   0  0  0  0  0  0
    5.0838    7.7455   24.0716 H   0  0  0  0  0  0
    5.4919    7.2130   22.4560 H   0  0  0  0  0  0
    3.7935   11.6575   24.0680 H   0  0  0  0  0  0
    3.4007   11.8127   25.7649 H   0  0  0  0  0  0
    1.6094   14.9650   24.7668 H   0  0  0  0  0  0
    2.2350   14.7473   23.1667 H   0  0  0  0  0  0
    5.4845   12.7728   24.4583 H   0  0  0  0  0  0
    7.8800    8.1150   22.7990 H   0  0  0  0  0  0
    8.8614   10.7233   22.7664 H   0  0  0  0  0  0
    6.6592   12.2383   22.8565 H   0  0  0  0  0  0
    8.4609   13.1161   24.1963 H   0  0  0  0  0  0
    8.2385   12.8052   25.9517 H   0  0  0  0  0  0
    9.4024   15.4491   25.6846 H   0  0  0  0  0  0
    7.2621   14.4238   27.3093 H   0  0  0  0  0  0
    6.6895   15.9686   26.6011 H   0  0  0  0  0  0
    6.9766   16.3688   24.3296 H   0  0  0  0  0  0
    7.8141   15.1648   23.2869 H   0  0  0  0  0  0
  1 18  1  0  0  0
  1  2  2  0  0  0
  2  5  1  0  0  0
  2  3  1  0  0  0
  3  4  2  0  0  0
  4 19  1  0  0  0
  4  6  1  0  0  0
  5 35  1  0  0  0
  5 36  1  0  0  0
  6 11  1  0  0  0
  6  7  2  0  0  0
  7  8  1  0  0  0
  7 13  1  0  0  0
  8  9  2  0  0  0
  8 37  1  0  0  0
  9 17  1  0  0  0
  9 10  1  0  0  0
 10 11  2  0  0  0
 10 38  1  0  0  0
 11 12  1  0  0  0
 12 14  1  0  0  0
 14 15  1  0  0  0
 14 39  1  0  0  0
 14 40  1  0  0  0
 15 16  1  0  0  0
 15 41  1  0  0  0
 15 42  1  0  0  0
 16 26  1  0  0  0
 16 29  1  0  0  0
 18 19  2  0  0  0
 18 22  1  0  0  0
 19 20  1  0  0  0
 20 21  1  0  0  0
 20 43  1  0  0  0
 20 44  1  0  0  0
 21 22  1  0  0  0
 21 23  1  0  0  0
 22 45  1  0  0  0
 22 46  1  0  0  0
 23 24  1  0  0  0
 23 25  2  0  0  0
 24 30  1  0  0  0
 24 47  1  0  0  0
 26 27  2  0  0  0
 26 48  1  0  0  0
 27 28  1  0  0  0
 27 49  1  0  0  0
 28 29  2  0  0  0
 28 50  1  0  0  0
 30 31  1  0  0  0
 30 33  1  0  0  0
 30 34  1  0  0  0
 31 32  1  0  0  0
 31 51  1  0  0  0
 31 52  1  0  0  0
 32 33  1  0  0  0
 32 34  1  0  0  0
 32 53  1  0  0  0
 33 54  1  0  0  0
 33 55  1  0  0  0
 34 56  1  0  0  0
 34 57  1  0  0  0
M  END
> <s_m_entry_id>
4785

> <s_m_entry_name>
dock_pv.104

> <s_m_Source_Path>
/home/csk/Desktop/cluster/DUD-E-result/hs90a

> <s_m_Source_File>
dock_pv.maegz

> <i_m_Source_File_Index>
104

> <chembl_id>
CHEMBL1774924

> <chembl_pref_name>
None

> <i_lp_mmshare_version>
53161

> <r_lp_tautomer_probability>
0.999999987636

> <s_lp_Force_Field>
OPLS_2005

> <r_lp_Energy>
86.705337

> <b_lp_Chiralities_Consistent>
1

> <s_lp_Variant>
CHEMBL3880_lig931-1

> <s_i_glide_gridfile>
glide-grid_1uyg

> <i_i_glide_lignum>
1037

> <i_i_glide_rotatable_bonds>
8

> <r_i_docking_score>
-8.80889980945441

> <r_i_glide_ligand_efficiency>
-0.259085288513365

> <r_i_glide_ligand_efficiency_sa>
-0.839335757218679

> <r_i_glide_ligand_efficiency_ln>
-1.94613304917893

> <r_i_glide_gscore>
-8.80889980945441

> <r_i_glide_lipo>
-4.51297226723608

> <r_i_glide_hbond>
-0.0168490340138287

> <r_i_glide_metal>
0

> <r_i_glide_rewards>
-1.7756679957705

> <r_i_glide_evdw>
-49.2744178771973

> <r_i_glide_ecoul>
-4.02816009521484

> <r_i_glide_erotb>
0.570871354834868

> <r_i_glide_esite>
-0.00633695912678429

> <r_i_glide_emodel>
-78.0180422733587

> <r_i_glide_energy>
-53.3025779724121

> <r_i_glide_einternal>
5.46610593795776

> <i_i_glide_confnum>
59

> <i_i_glide_posenum>
110

> <r_i_glide_eff_state_penalty>
0

> <s_user_duplicate_titles>
CHEMBL3880_lig931

> <i_f3d_flags>
0

> <s_m_subgroup_title>
dock_pv

> <s_m_subgroupid>
dock_pv

> <b_m_subgroup_collapsed>
1

$$$$
CHEMBL3880_lig451
                    3D
 Schrodinger Suite 2021-1.
 65 68  0  0  1  0            999 V2000
    2.0012   14.1952   24.0752 C   0  0  0  0  0  0
    3.1284   15.0052   24.3798 O   0  0  0  0  0  0
    4.3875   14.4445   24.4099 C   0  0  0  0  0  0
    5.4547   15.2151   24.8663 C   0  0  0  0  0  0
    6.7369   14.6685   24.8337 C   0  0  0  0  0  0
    6.9112   13.3647   24.3673 C   0  0  0  0  0  0
    5.7906   12.6171   23.9668 C   0  0  0  0  0  0
    4.5521   13.1703   23.9670 N   0  0  0  0  0  0
    5.9024   11.1713   23.5672 C   0  0  0  0  0  0
    7.0802   10.7848   22.9113 C   0  0  0  0  0  0
    7.3179    9.4669   22.5600 C   0  0  0  0  0  0
    8.4770    9.1396   21.9669 F   0  0  0  0  0  0
    6.3731    8.4911   22.8258 C   0  0  0  0  0  0
    5.1869    8.8379   23.4495 C   0  0  0  0  0  0
    4.9346   10.1598   23.8498 C   0  0  0  0  0  0
    3.5849   10.4216   24.5478 C   0  0  1  0  0  0
    2.4944   10.6588   23.4543 C   0  0  0  0  0  0
    1.1259   10.7456   24.1026 C   0  0  0  0  0  0
    0.2089   11.5843   23.5667 N   0  0  0  0  0  0
   -0.9852   11.6559   24.1802 C   0  0  0  0  0  0
   -1.9394   12.4426   23.5670 N   0  0  0  0  0  0
   -1.3295   11.0266   25.3240 N   0  0  0  0  0  0
   -0.3875   10.2184   25.8780 C   0  0  0  0  0  0
   -0.7967    9.6667   27.2361 C   0  0  0  0  0  0
    0.8713    9.9986   25.2670 C   0  0  0  0  0  0
    1.9823    9.1512   25.7583 C   0  0  0  0  0  0
    3.2223    9.3451   25.4893 N   0  0  0  0  0  0
    1.5987    7.9799   26.4752 N   0  0  0  0  0  0
    2.5118    7.3882   27.4261 O   0  0  0  0  0  0
    2.4575    8.0968   28.6642 C   0  0  0  0  0  0
    1.1917    7.7367   29.4799 C   0  0  0  0  0  0
    1.3603    6.4703   30.3416 C   0  0  0  0  0  0
    2.0115    6.7625   31.7085 C   0  0  2  0  0  0
    2.5404    5.5690   32.2378 O   0  0  0  0  0  0
    1.0132    7.3290   32.7357 C   0  0  0  0  0  0
    1.6675    7.5694   33.9633 O   0  0  0  0  0  0
    1.0823   14.7701   24.1878 H   0  0  0  0  0  0
    2.0391   13.8207   23.0538 H   0  0  0  0  0  0
    1.9407   13.3524   24.7637 H   0  0  0  0  0  0
    5.2943   16.2253   25.2133 H   0  0  0  0  0  0
    7.5827   15.2477   25.1700 H   0  0  0  0  0  0
    7.8983   12.9290   24.3816 H   0  0  0  0  0  0
    7.8458   11.5078   22.6731 H   0  0  0  0  0  0
    6.5548    7.4650   22.5504 H   0  0  0  0  0  0
    4.4618    8.0576   23.6358 H   0  0  0  0  0  0
    3.6971   11.2953   25.1847 H   0  0  0  0  0  0
    2.4760    9.8132   22.7647 H   0  0  0  0  0  0
    2.7088   11.5384   22.8488 H   0  0  0  0  0  0
   -2.8954   12.3826   23.9199 H   0  0  0  0  0  0
   -1.7418   12.8299   22.6586 H   0  0  0  0  0  0
    0.0152    9.7884   27.9492 H   0  0  0  0  0  0
   -1.6613   10.1910   27.6476 H   0  0  0  0  0  0
   -1.0580    8.6134   27.1674 H   0  0  0  0  0  0
    0.6526    7.6884   26.6622 H   0  0  0  0  0  0
    2.5170    9.1685   28.4779 H   0  0  0  0  0  0
    3.3570    7.8643   29.2358 H   0  0  0  0  0  0
    0.3437    7.5857   28.8154 H   0  0  0  0  0  0
    0.9118    8.5861   30.1042 H   0  0  0  0  0  0
    1.9597    5.7512   29.7805 H   0  0  0  0  0  0
    0.3938    5.9886   30.4925 H   0  0  0  0  0  0
    2.8560    7.4409   31.5832 H   0  0  0  0  0  0
    2.9009    5.7975   33.1013 H   0  0  0  0  0  0
    0.1941    6.6307   32.9106 H   0  0  0  0  0  0
    0.5715    8.2549   32.3679 H   0  0  0  0  0  0
    2.3201    8.2705   33.8084 H   0  0  0  0  0  0
  1  2  1  0  0  0
  1 37  1  0  0  0
  1 38  1  0  0  0
  1 39  1  0  0  0
  2  3  1  0  0  0
  3  4  2  0  0  0
  3  8  1  0  0  0
  4  5  1  0  0  0
  4 40  1  0  0  0
  5  6  2  0  0  0
  5 41  1  0  0  0
  6  7  1  0  0  0
  6 42  1  0  0  0
  7  8  2  0  0  0
  7  9  1  0  0  0
  9 10  2  0  0  0
  9 15  1  0  0  0
 10 11  1  0  0  0
 10 43  1  0  0  0
 11 12  1  0  0  0
 11 13  2  0  0  0
 13 14  1  0  0  0
 13 44  1  0  0  0
 14 15  2  0  0  0
 14 45  1  0  0  0
 15 16  1  0  0  0
 16 17  1  0  0  0
 16 27  1  0  0  0
 16 46  1  0  0  0
 17 18  1  0  0  0
 17 47  1  0  0  0
 17 48  1  0  0  0
 18 19  2  0  0  0
 18 25  1  0  0  0
 19 20  1  0  0  0
 20 21  1  0  0  0
 20 22  2  0  0  0
 21 49  1  0  0  0
 21 50  1  0  0  0
 22 23  1  0  0  0
 23 24  1  0  0  0
 23 25  2  0  0  0
 24 51  1  0  0  0
 24 52  1  0  0  0
 24 53  1  0  0  0
 25 26  1  0  0  0
 26 27  2  0  0  0
 26 28  1  0  0  0
 28 29  1  0  0  0
 28 54  1  0  0  0
 29 30  1  0  0  0
 30 31  1  0  0  0
 30 55  1  0  0  0
 30 56  1  0  0  0
 31 32  1  0  0  0
 31 57  1  0  0  0
 31 58  1  0  0  0
 32 33  1  0  0  0
 32 59  1  0  0  0
 32 60  1  0  0  0
 33 34  1  0  0  0
 33 35  1  0  0  0
 33 61  1  0  0  0
 34 62  1  0  0  0
 35 36  1  0  0  0
 35 63  1  0  0  0
 35 64  1  0  0  0
 36 65  1  0  0  0
M  END
> <s_m_entry_id>
4786

> <s_m_entry_name>
dock_pv.105

> <s_m_Source_Path>
/home/csk/Desktop/cluster/DUD-E-result/hs90a

> <s_m_Source_File>
dock_pv.maegz

> <i_m_Source_File_Index>
105

> <chembl_id>
CHEMBL3675266

> <chembl_pref_name>
None

> <i_lp_mmshare_version>
53161

> <r_lp_tautomer_probability>
1

> <s_lp_Force_Field>
OPLS_2005

> <r_lp_Energy>
25.97141

> <b_lp_Chiralities_Consistent>
1

> <s_lp_Variant>
CHEMBL3880_lig451-1

> <s_i_glide_gridfile>
glide-grid_1uyg

> <i_i_glide_lignum>
497

> <i_i_glide_rotatable_bonds>
12

> <r_i_docking_score>
-8.79403675290226

> <r_i_glide_ligand_efficiency>
-0.244278798691729

> <r_i_glide_ligand_efficiency_sa>
-0.806590820763989

> <r_i_glide_ligand_efficiency_ln>
-1.91862123206682

> <r_i_glide_gscore>
-8.79403675290226

> <r_i_glide_lipo>
-4.30046701697263

> <r_i_glide_hbond>
-0.151620502199619

> <r_i_glide_metal>
0

> <r_i_glide_rewards>
-1.27953151103837

> <r_i_glide_evdw>
-50.3978157043457

> <r_i_glide_ecoul>
-8.55986022949219

> <r_i_glide_erotb>
0.744431016111687

> <r_i_glide_esite>
-0.0029789191622219

> <r_i_glide_emodel>
-89.7729210163289

> <r_i_glide_energy>
-58.9576759338379

> <r_i_glide_einternal>
6.34143686294556

> <i_i_glide_confnum>
117

> <i_i_glide_posenum>
244

> <r_i_glide_eff_state_penalty>
0

> <s_user_duplicate_titles>
CHEMBL3880_lig451

> <i_f3d_flags>
0

> <s_m_subgroup_title>
dock_pv

> <s_m_subgroupid>
dock_pv

> <b_m_subgroup_collapsed>
1

$$$$
CHEMBL3880_lig34
                    3D
 Schrodinger Suite 2021-1.
 34 36  0  0  1  0            999 V2000
    7.6610   12.5546   23.8044 O   0  0  0  0  0  0
    9.1000   14.7689   24.6317 O   0  0  0  0  0  0
    2.8444   12.9016   24.1848 N   0  0  0  0  0  0
    4.1075   13.4702   24.3602 C   0  0  0  0  0  0
    1.0227   11.3898   24.4269 C   0  0  0  0  0  0
    0.5071   12.5599   23.8888 C   0  0  0  0  0  0
    2.5121   11.5276   24.5518 C   0  0  0  0  0  0
    1.6127   13.5764   23.7839 C   0  0  0  0  0  0
    6.5329   13.2632   24.1623 C   0  0  0  0  0  0
    5.2386   12.7559   23.9670 C   0  0  0  0  0  0
    6.6788   14.5258   24.7696 C   0  0  0  0  0  0
    4.2673   14.7275   24.9427 C   0  0  0  0  0  0
    5.5413   15.2447   25.1626 C   0  0  0  0  0  0
    0.1835   10.3218   24.7435 C   0  0  0  0  0  0
   -0.8477   12.6469   23.5670 C   0  0  0  0  0  0
   -1.1799   10.4237   24.4689 C   0  0  0  0  0  0
   -1.6876   11.5725   23.8584 C   0  0  0  0  0  0
    8.0012   15.1679   25.0146 C   0  0  0  0  0  0
    7.5490   11.2472   23.2529 C   0  0  0  0  0  0
    3.0414   10.8368   23.8958 H   0  0  0  0  0  0
    2.8579   11.3417   25.5672 H   0  0  0  0  0  0
    1.4363   14.4402   24.4238 H   0  0  0  0  0  0
    1.7301   13.9495   22.7677 H   0  0  0  0  0  0
    5.0966   11.7920   23.5090 H   0  0  0  0  0  0
    3.4051   15.2938   25.2517 H   0  0  0  0  0  0
    5.6244   16.2184   25.6279 H   0  0  0  0  0  0
    0.5755    9.4152   25.1786 H   0  0  0  0  0  0
   -1.2653   13.5428   23.1340 H   0  0  0  0  0  0
   -1.8401    9.6006   24.7002 H   0  0  0  0  0  0
   -2.7386   11.6326   23.6246 H   0  0  0  0  0  0
    7.9426   16.0814   25.6006 H   0  0  0  0  0  0
    8.5452   10.8526   23.0530 H   0  0  0  0  0  0
    7.0557   10.5606   23.9421 H   0  0  0  0  0  0
    7.0076   11.2562   22.3074 H   0  0  0  0  0  0
  1  9  1  0  0  0
  1 19  1  0  0  0
  2 18  2  0  0  0
  3  4  1  0  0  0
  3  7  1  0  0  0
  3  8  1  0  0  0
  4 10  1  0  0  0
  4 12  2  0  0  0
  5  6  1  0  0  0
  5  7  1  0  0  0
  5 14  2  0  0  0
  6  8  1  0  0  0
  6 15  2  0  0  0
  7 20  1  0  0  0
  7 21  1  0  0  0
  8 22  1  0  0  0
  8 23  1  0  0  0
  9 10  2  0  0  0
  9 11  1  0  0  0
 10 24  1  0  0  0
 11 13  2  0  0  0
 11 18  1  0  0  0
 12 13  1  0  0  0
 12 25  1  0  0  0
 13 26  1  0  0  0
 14 16  1  0  0  0
 14 27  1  0  0  0
 15 17  1  0  0  0
 15 28  1  0  0  0
 16 17  2  0  0  0
 16 29  1  0  0  0
 17 30  1  0  0  0
 18 31  1  0  0  0
 19 32  1  0  0  0
 19 33  1  0  0  0
 19 34  1  0  0  0
M  END
> <s_m_entry_id>
4787

> <s_m_entry_name>
dock_pv.106

> <s_m_Source_Path>
/home/csk/Desktop/cluster/DUD-E-result/hs90a

> <s_m_Source_File>
dock_pv.maegz

> <i_m_Source_File_Index>
106

> <chembl_id>
CHEMBL1365827

> <chembl_pref_name>
None

> <i_lp_mmshare_version>
53161

> <r_lp_tautomer_probability>
1

> <s_lp_Force_Field>
OPLS_2005

> <r_lp_Energy>
35.212157

> <b_lp_Chiralities_Consistent>
1

> <s_lp_Variant>
CHEMBL3880_lig34-1

> <s_i_glide_gridfile>
glide-grid_1uyg

> <i_i_glide_lignum>
39

> <i_i_glide_rotatable_bonds>
3

> <r_i_docking_score>
-8.79196722536584

> <r_i_glide_ligand_efficiency>
-0.462735117124518

> <r_i_glide_ligand_efficiency_sa>
-1.23476314824471

> <r_i_glide_ligand_efficiency_ln>
-2.22895252577182

> <r_i_glide_gscore>
-8.79196722536584

> <r_i_glide_lipo>
-3.64801716646132

> <r_i_glide_hbond>
-0.219798899277454

> <r_i_glide_metal>
0

> <r_i_glide_rewards>
-2.87073922331432

> <r_i_glide_evdw>
-33.243896484375

> <r_i_glide_ecoul>
-4.43330526351929

> <r_i_glide_erotb>
0.2737786774339

> <r_i_glide_esite>
0

> <r_i_glide_emodel>
-52.6591623322147

> <r_i_glide_energy>
-37.6772017478943

> <r_i_glide_einternal>
7.9481372833252

> <i_i_glide_confnum>
1

> <i_i_glide_posenum>
142

> <r_i_glide_eff_state_penalty>
0

> <s_user_duplicate_titles>
CHEMBL3880_lig34

> <i_f3d_flags>
0

> <s_m_subgroup_title>
dock_pv

> <s_m_subgroupid>
dock_pv

> <b_m_subgroup_collapsed>
1

$$$$
CHEMBL3880_lig372
                    3D
 Schrodinger Suite 2021-1.
 43 46  0  0  1  0            999 V2000
   -1.5817   11.4666   24.8854 N   0  0  0  0  0  0
   -1.2807   12.1699   23.7726 C   0  0  0  0  0  0
   -0.0499   12.2666   23.2096 N   0  0  0  0  0  0
   -0.5732   10.7802   25.4768 C   0  0  0  0  0  0
    0.7367   10.7855   24.9529 C   0  0  0  0  0  0
    0.9506   11.5367   23.7824 C   0  0  0  0  0  0
    2.3320   11.5365   23.1416 C   0  0  0  0  0  0
    3.4667   11.2493   24.1717 C   0  0  1  0  0  0
    3.0627   10.1387   25.0517 N   0  0  0  0  0  0
    1.8356    9.9380   25.5612 C   0  0  0  0  0  0
    4.8171   10.9791   23.4890 C   0  0  0  0  0  0
    5.9480   11.8343   23.5669 C   0  0  0  0  0  0
    7.1645   11.3716   23.0288 C   0  0  0  0  0  0
    7.2678   10.1307   22.4135 C   0  0  0  0  0  0
    6.1456    9.3286   22.2875 C   0  0  0  0  0  0
    4.9352    9.7482   22.8218 C   0  0  0  0  0  0
   -0.9851   10.0607   26.7543 C   0  0  0  0  0  0
    1.7049    9.0534   26.4019 O   0  0  0  0  0  0
   -2.3387   12.8375   23.1671 N   0  0  0  0  0  0
    5.9837   13.1962   24.2236 C   0  0  0  0  0  0
    8.4610    9.7017   21.9512 F   0  0  0  0  0  0
    7.1204   13.6173   24.7670 N   0  0  0  0  0  0
    7.0084   14.7679   25.3820 C   0  0  0  0  0  0
    5.4423   15.4898   25.3117 S   0  0  0  0  0  0
    4.9367   14.1181   24.3672 C   0  0  0  0  0  0
    7.9750   15.4398   26.0888 O   0  0  0  0  0  0
    9.2027   14.7491   26.2992 C   0  0  0  0  0  0
    2.5124   12.4772   22.6218 H   0  0  0  0  0  0
    2.3295   10.7596   22.3774 H   0  0  0  0  0  0
    3.5694   12.0872   24.8561 H   0  0  0  0  0  0
    3.7878    9.5481   25.4294 H   0  0  0  0  0  0
    8.0610   11.9708   23.0822 H   0  0  0  0  0  0
    6.2205    8.3687   21.8024 H   0  0  0  0  0  0
    4.0855    9.0834   22.7492 H   0  0  0  0  0  0
   -0.3940   10.4332   27.5876 H   0  0  0  0  0  0
   -2.0392   10.2055   26.9979 H   0  0  0  0  0  0
   -0.7997    8.9907   26.6693 H   0  0  0  0  0  0
   -2.1975   13.3099   22.2893 H   0  0  0  0  0  0
   -3.2720   12.7174   23.5674 H   0  0  0  0  0  0
    3.9280   14.0709   23.9866 H   0  0  0  0  0  0
    9.8580   15.3576   26.9228 H   0  0  0  0  0  0
    9.0471   13.8007   26.8166 H   0  0  0  0  0  0
    9.7204   14.5587   25.3577 H   0  0  0  0  0  0
  1  2  2  0  0  0
  1  4  1  0  0  0
  2  3  1  0  0  0
  2 19  1  0  0  0
  3  6  2  0  0  0
  4  5  2  0  0  0
  4 17  1  0  0  0
  5  6  1  0  0  0
  5 10  1  0  0  0
  6  7  1  0  0  0
  7  8  1  0  0  0
  7 28  1  0  0  0
  7 29  1  0  0  0
  8  9  1  0  0  0
  8 11  1  0  0  0
  8 30  1  0  0  0
  9 10  1  0  0  0
  9 31  1  0  0  0
 10 18  2  0  0  0
 11 12  2  0  0  0
 11 16  1  0  0  0
 12 13  1  0  0  0
 12 20  1  0  0  0
 13 14  2  0  0  0
 13 32  1  0  0  0
 14 15  1  0  0  0
 14 21  1  0  0  0
 15 16  2  0  0  0
 15 33  1  0  0  0
 16 34  1  0  0  0
 17 35  1  0  0  0
 17 36  1  0  0  0
 17 37  1  0  0  0
 19 38  1  0  0  0
 19 39  1  0  0  0
 20 22  1  0  0  0
 20 25  2  0  0  0
 22 23  2  0  0  0
 23 24  1  0  0  0
 23 26  1  0  0  0
 24 25  1  0  0  0
 25 40  1  0  0  0
 26 27  1  0  0  0
 27 41  1  0  0  0
 27 42  1  0  0  0
 27 43  1  0  0  0
M  END
> <s_m_entry_id>
4788

> <s_m_entry_name>
dock_pv.107

> <s_m_Source_Path>
/home/csk/Desktop/cluster/DUD-E-result/hs90a

> <s_m_Source_File>
dock_pv.maegz

> <i_m_Source_File_Index>
107

> <chembl_id>
CHEMBL3360317

> <chembl_pref_name>
None

> <i_lp_mmshare_version>
53161

> <r_lp_tautomer_probability>
0.999999987636

> <s_lp_Force_Field>
OPLS_2005

> <r_lp_Energy>
23.922481

> <b_lp_Chiralities_Consistent>
1

> <s_lp_Variant>
CHEMBL3880_lig372-1

> <s_i_glide_gridfile>
glide-grid_1uyg

> <i_i_glide_lignum>
414

> <i_i_glide_rotatable_bonds>
3

> <r_i_docking_score>
-8.78976389317576

> <r_i_glide_ligand_efficiency>
-0.325546810858361

> <r_i_glide_ligand_efficiency_sa>
-0.976640431502135

> <r_i_glide_ligand_efficiency_ln>
-2.04611212374816

> <r_i_glide_gscore>
-8.78976389317576

> <r_i_glide_lipo>
-4.25452597047117

> <r_i_glide_hbond>
-0.16

> <r_i_glide_metal>
0

> <r_i_glide_rewards>
-1.85820494754033

> <r_i_glide_evdw>
-45.5053253173828

> <r_i_glide_ecoul>
-3.13659906387329

> <r_i_glide_erotb>
0.261909685849307

> <r_i_glide_esite>
-0.033186535563427

> <r_i_glide_emodel>
-72.596787225955

> <r_i_glide_energy>
-48.6419243812561

> <r_i_glide_einternal>
1.30011403560638

> <i_i_glide_confnum>
4

> <i_i_glide_posenum>
137

> <r_i_glide_eff_state_penalty>
0

> <s_user_duplicate_titles>
CHEMBL3880_lig372

> <i_f3d_flags>
0

> <s_m_subgroup_title>
dock_pv

> <s_m_subgroupid>
dock_pv

> <b_m_subgroup_collapsed>
1

$$$$
CHEMBL3880_lig989
                    3D
 Schrodinger Suite 2021-1.
 56 59  0  0  1  0            999 V2000
    5.1098   16.3023   24.5847 C   0  0  0  0  0  0
    5.4073   15.2024   25.5944 C   0  0  0  0  0  0
    5.1848   15.7155   26.9895 C   0  0  0  0  0  0
    0.6776   12.3364   23.9945 C   0  0  0  0  0  0
    2.0128   12.5761   23.6967 C   0  0  0  0  0  0
    1.2848   10.1712   24.8839 C   0  0  0  0  0  0
    0.3051   11.1422   24.6384 C   0  0  0  0  0  0
    2.9888   11.6309   24.0088 C   0  0  0  0  0  0
    2.6207   10.3858   24.5402 C   0  0  0  0  0  0
    3.5552    9.4063   24.7952 O   0  0  0  0  0  0
    4.2860    8.8269   23.7005 C   0  0  2  0  0  0
    4.7852    9.8084   22.6044 C   0  0  0  0  0  0
    5.2610   11.1402   23.1685 C   0  0  0  0  0  0
    4.3472   11.9401   23.8197 N   0  0  0  0  0  0
    6.5128   11.7607   23.2061 C   0  0  0  0  0  0
    6.3581   12.9422   23.9673 C   0  0  0  0  0  0
    5.0256   13.0058   24.3662 C   0  0  0  0  0  0
    4.4359   13.9991   25.3628 C   0  0  0  0  0  0
    6.9012   14.8034   25.5804 C   0  0  0  0  0  0
    7.3427   13.9376   24.4205 C   0  0  0  0  0  0
   -1.0844   10.9283   25.1661 C   0  0  0  0  0  0
   -1.2960   10.7686   26.3655 O   0  0  0  0  0  0
   -2.0609   10.9631   24.2675 N   0  0  0  0  0  0
    8.4605   14.1125   23.9667 O   0  0  0  0  0  0
    7.7914   11.1563   22.6826 C   0  0  0  0  0  0
   -0.4542   13.5687   23.5668 Cl  0  0  0  0  0  0
    3.4768    7.6580   23.0859 C   0  0  0  0  0  0
    3.3147    6.4098   23.9802 C   0  0  0  0  0  0
    2.3609    6.5831   25.1717 C   0  0  0  0  0  0
    4.2774   15.9877   23.9670 H   0  0  0  0  0  0
    4.7886   17.2244   25.0618 H   0  0  0  0  0  0
    5.9671   16.5587   23.9670 H   0  0  0  0  0  0
    5.6743   15.0179   27.6542 H   0  0  0  0  0  0
    5.6450   16.6862   27.1665 H   0  0  0  0  0  0
    4.1146   15.8008   27.1799 H   0  0  0  0  0  0
    2.2884   13.5190   23.2476 H   0  0  0  0  0  0
    1.0203    9.2433   25.3703 H   0  0  0  0  0  0
    5.1837    8.4100   24.1604 H   0  0  0  0  0  0
    3.9739    9.9800   21.8957 H   0  0  0  0  0  0
    5.5668    9.3245   22.0177 H   0  0  0  0  0  0
    4.3245   13.4507   26.2974 H   0  0  0  0  0  0
    3.4333   14.3418   25.1089 H   0  0  0  0  0  0
    7.1562   14.1941   26.4460 H   0  0  0  0  0  0
    7.5485   15.6795   25.6309 H   0  0  0  0  0  0
   -3.0255   10.9378   24.5745 H   0  0  0  0  0  0
   -1.8575   11.1183   23.2935 H   0  0  0  0  0  0
    8.6178   11.3329   23.3689 H   0  0  0  0  0  0
    7.7321   10.0728   22.5843 H   0  0  0  0  0  0
    8.0605   11.5687   21.7144 H   0  0  0  0  0  0
    3.9760    7.3345   22.1707 H   0  0  0  0  0  0
    2.4957    8.0135   22.7667 H   0  0  0  0  0  0
    4.2913    6.0811   24.3387 H   0  0  0  0  0  0
    2.9376    5.5931   23.3623 H   0  0  0  0  0  0
    2.2295    5.6390   25.7007 H   0  0  0  0  0  0
    2.7394    7.3058   25.8939 H   0  0  0  0  0  0
    1.3751    6.9134   24.8434 H   0  0  0  0  0  0
  1  2  1  0  0  0
  1 30  1  0  0  0
  1 31  1  0  0  0
  1 32  1  0  0  0
  2  3  1  0  0  0
  2 18  1  0  0  0
  2 19  1  0  0  0
  3 33  1  0  0  0
  3 34  1  0  0  0
  3 35  1  0  0  0
  4  5  2  0  0  0
  4  7  1  0  0  0
  4 26  1  0  0  0
  5  8  1  0  0  0
  5 36  1  0  0  0
  6  9  1  0  0  0
  6  7  2  0  0  0
  6 37  1  0  0  0
  7 21  1  0  0  0
  8  9  2  0  0  0
  8 14  1  0  0  0
  9 10  1  0  0  0
 10 11  1  0  0  0
 11 12  1  0  0  0
 11 27  1  0  0  0
 11 38  1  0  0  0
 12 13  1  0  0  0
 12 39  1  0  0  0
 12 40  1  0  0  0
 13 14  1  0  0  0
 13 15  2  0  0  0
 14 17  1  0  0  0
 15 16  1  0  0  0
 15 25  1  0  0  0
 16 17  2  0  0  0
 16 20  1  0  0  0
 17 18  1  0  0  0
 18 41  1  0  0  0
 18 42  1  0  0  0
 19 20  1  0  0  0
 19 43  1  0  0  0
 19 44  1  0  0  0
 20 24  2  0  0  0
 21 22  2  0  0  0
 21 23  1  0  0  0
 23 45  1  0  0  0
 23 46  1  0  0  0
 25 47  1  0  0  0
 25 48  1  0  0  0
 25 49  1  0  0  0
 27 28  1  0  0  0
 27 50  1  0  0  0
 27 51  1  0  0  0
 28 29  1  0  0  0
 28 52  1  0  0  0
 28 53  1  0  0  0
 29 54  1  0  0  0
 29 55  1  0  0  0
 29 56  1  0  0  0
M  END
> <s_m_entry_id>
4789

> <s_m_entry_name>
dock_pv.108

> <s_m_Source_Path>
/home/csk/Desktop/cluster/DUD-E-result/hs90a

> <s_m_Source_File>
dock_pv.maegz

> <i_m_Source_File_Index>
108

> <chembl_id>
CHEMBL3403717

> <chembl_pref_name>
None

> <i_lp_mmshare_version>
53161

> <r_lp_tautomer_probability>
0.99995

> <s_lp_Force_Field>
OPLS_2005

> <r_lp_Energy>
31.041751

> <b_lp_Chiralities_Consistent>
1

> <s_lp_Variant>
CHEMBL3880_lig989-1

> <s_i_glide_gridfile>
glide-grid_1uyg

> <i_i_glide_lignum>
1099

> <i_i_glide_rotatable_bonds>
3

> <r_i_docking_score>
-8.74440387905668

> <r_i_glide_ligand_efficiency>
-0.301531168243334

> <r_i_glide_ligand_efficiency_sa>
-0.926399280622884

> <r_i_glide_ligand_efficiency_ln>
-2.00224674935377

> <r_i_glide_gscore>
-8.74440387905668

> <r_i_glide_lipo>
-4.18693267525551

> <r_i_glide_hbond>
-0.153325971945461

> <r_i_glide_metal>
0

> <r_i_glide_rewards>
-2.33834651553323

> <r_i_glide_evdw>
-28.6332187652588

> <r_i_glide_ecoul>
-4.99205732345581

> <r_i_glide_erotb>
0.114670820458832

> <r_i_glide_esite>
0

> <r_i_glide_emodel>
-51.8931645656949

> <r_i_glide_energy>
-33.6252760887146

> <r_i_glide_einternal>
0.434974491596222

> <i_i_glide_confnum>
1

> <i_i_glide_posenum>
117

> <r_i_glide_eff_state_penalty>
0

> <s_user_duplicate_titles>
CHEMBL3880_lig989

> <i_f3d_flags>
0

> <s_m_subgroup_title>
dock_pv

> <s_m_subgroupid>
dock_pv

> <b_m_subgroup_collapsed>
1

$$$$
CHEMBL3880_lig964
                    3D
 Schrodinger Suite 2021-1.
 62 66  0  0  1  0            999 V2000
    4.8604    7.0357   21.9792 C   0  0  0  0  0  0
    5.3855    8.1435   22.9252 C   0  0  0  0  0  0
    5.6755    7.5689   24.3375 C   0  0  0  0  0  0
    0.9742   10.3101   25.4803 C   0  0  0  0  0  0
    2.3133   10.5585   25.1669 C   0  0  0  0  0  0
    2.6795   11.4881   24.1995 C   0  0  0  0  0  0
    1.7183   12.2189   23.5250 C   0  0  0  0  0  0
    4.0265   11.5966   23.8584 N   0  0  0  0  0  0
    4.7875   10.5814   23.3428 C   0  0  0  0  0  0
    6.1108   11.0002   23.3210 C   0  0  0  0  0  0
    7.1877   10.1017   22.9362 C   0  0  0  0  0  0
    6.6994    8.7689   22.3415 C   0  0  0  0  0  0
    4.2530    9.2060   22.9569 C   0  0  0  0  0  0
    8.3799   10.3678   23.0768 O   0  0  0  0  0  0
    6.1552   12.3496   23.7315 C   0  0  0  0  0  0
    4.8341   12.6962   23.9813 C   0  0  0  0  0  0
    7.3609   13.2273   23.9671 C   0  0  0  0  0  0
   -0.0146   11.0652   24.7851 C   0  0  0  0  0  0
    0.3726   12.0089   23.8024 C   0  0  0  0  0  0
   -0.6915   12.7692   23.0352 C   0  0  0  0  0  0
   -1.9386   11.8927   22.8831 C   0  0  0  0  0  0
   -2.3390   11.4189   24.2126 N   0  0  0  0  0  0
   -1.4876   10.9739   25.1611 C   0  0  0  0  0  0
   -1.9450   10.6918   26.2635 O   0  0  0  0  0  0
    0.6623    9.1542   26.4715 C   0  0  0  0  0  0
    0.1290    7.9042   25.7229 C   0  0  0  0  0  0
   -0.2798    6.7723   26.6936 C   0  0  0  0  0  0
    0.8481    6.3908   27.6686 C   0  0  0  0  0  0
    1.4007    7.6264   28.4028 C   0  0  0  0  0  0
    1.8318    8.7190   27.4051 C   0  0  0  0  0  0
    3.8860    6.6609   22.2963 H   0  0  0  0  0  0
    4.7610    7.3832   20.9492 H   0  0  0  0  0  0
    5.5357    6.1797   21.9676 H   0  0  0  0  0  0
    4.8612    7.7520   25.0405 H   0  0  0  0  0  0
    5.8224    6.4886   24.3087 H   0  0  0  0  0  0
    6.5905    7.9699   24.7670 H   0  0  0  0  0  0
    3.1058   10.0070   25.6464 H   0  0  0  0  0  0
    2.0115   12.9299   22.7659 H   0  0  0  0  0  0
    6.5394    8.9834   21.2849 H   0  0  0  0  0  0
    7.5249    8.0571   22.3683 H   0  0  0  0  0  0
    3.8606    9.3478   21.9479 H   0  0  0  0  0  0
    3.4111    8.8546   23.5506 H   0  0  0  0  0  0
    4.4163   13.6211   24.3510 H   0  0  0  0  0  0
    7.1204   14.1287   24.5333 H   0  0  0  0  0  0
    8.1265   12.6934   24.5326 H   0  0  0  0  0  0
    7.8367   13.5187   23.0323 H   0  0  0  0  0  0
   -0.9516   13.6829   23.5674 H   0  0  0  0  0  0
   -0.3343   13.0875   22.0545 H   0  0  0  0  0  0
   -2.7426   12.4772   22.4366 H   0  0  0  0  0  0
   -1.7733   11.0695   22.1933 H   0  0  0  0  0  0
   -3.3172   11.5683   24.4742 H   0  0  0  0  0  0
   -0.1000    9.5304   27.1493 H   0  0  0  0  0  0
   -0.7389    8.1641   25.1210 H   0  0  0  0  0  0
    0.8919    7.5262   25.0400 H   0  0  0  0  0  0
   -1.1392    7.1003   27.2767 H   0  0  0  0  0  0
   -0.6077    5.8957   26.1323 H   0  0  0  0  0  0
    0.4842    5.6583   28.3908 H   0  0  0  0  0  0
    1.6544    5.9038   27.1172 H   0  0  0  0  0  0
    0.6419    8.0266   29.0776 H   0  0  0  0  0  0
    2.2453    7.3405   29.0311 H   0  0  0  0  0  0
    2.6608    8.3063   26.8272 H   0  0  0  0  0  0
    2.2104    9.5693   27.9670 H   0  0  0  0  0  0
  1  2  1  0  0  0
  1 31  1  0  0  0
  1 32  1  0  0  0
  1 33  1  0  0  0
  2  3  1  0  0  0
  2 12  1  0  0  0
  2 13  1  0  0  0
  3 34  1  0  0  0
  3 35  1  0  0  0
  3 36  1  0  0  0
  4  5  2  0  0  0
  4 18  1  0  0  0
  4 25  1  0  0  0
  5  6  1  0  0  0
  5 37  1  0  0  0
  6  7  2  0  0  0
  6  8  1  0  0  0
  7 19  1  0  0  0
  7 38  1  0  0  0
  8 16  1  0  0  0
  8  9  1  0  0  0
  9 10  2  0  0  0
  9 13  1  0  0  0
 10 15  1  0  0  0
 10 11  1  0  0  0
 11 12  1  0  0  0
 11 14  2  0  0  0
 12 39  1  0  0  0
 12 40  1  0  0  0
 13 41  1  0  0  0
 13 42  1  0  0  0
 15 16  2  0  0  0
 15 17  1  0  0  0
 16 43  1  0  0  0
 17 44  1  0  0  0
 17 45  1  0  0  0
 17 46  1  0  0  0
 18 19  2  0  0  0
 18 23  1  0  0  0
 19 20  1  0  0  0
 20 21  1  0  0  0
 20 47  1  0  0  0
 20 48  1  0  0  0
 21 22  1  0  0  0
 21 49  1  0  0  0
 21 50  1  0  0  0
 22 23  1  0  0  0
 22 51  1  0  0  0
 23 24  2  0  0  0
 25 26  1  0  0  0
 25 30  1  0  0  0
 25 52  1  0  0  0
 26 27  1  0  0  0
 26 53  1  0  0  0
 26 54  1  0  0  0
 27 28  1  0  0  0
 27 55  1  0  0  0
 27 56  1  0  0  0
 28 29  1  0  0  0
 28 57  1  0  0  0
 28 58  1  0  0  0
 29 30  1  0  0  0
 29 59  1  0  0  0
 29 60  1  0  0  0
 30 61  1  0  0  0
 30 62  1  0  0  0
M  END
> <s_m_entry_id>
4790

> <s_m_entry_name>
dock_pv.109

> <s_m_Source_Path>
/home/csk/Desktop/cluster/DUD-E-result/hs90a

> <s_m_Source_File>
dock_pv.maegz

> <i_m_Source_File_Index>
109

> <chembl_id>
CHEMBL3235354

> <chembl_pref_name>
None

> <i_lp_mmshare_version>
53161

> <r_lp_tautomer_probability>
0.99995

> <s_lp_Force_Field>
OPLS_2005

> <r_lp_Energy>
39.060978

> <b_lp_Chiralities_Consistent>
1

> <s_lp_Variant>
CHEMBL3880_lig964-1

> <s_i_glide_gridfile>
glide-grid_1uyg

> <i_i_glide_lignum>
1073

> <i_i_glide_rotatable_bonds>
2

> <r_i_docking_score>
-8.73018444135894

> <r_i_glide_ligand_efficiency>
-0.291006148045298

> <r_i_glide_ligand_efficiency_sa>
-0.904223761613624

> <r_i_glide_ligand_efficiency_ln>
-1.98359302805499

> <r_i_glide_gscore>
-8.73018444135894

> <r_i_glide_lipo>
-3.96984049531189

> <r_i_glide_hbond>
-0.16

> <r_i_glide_metal>
0

> <r_i_glide_rewards>
-1.89740023533082

> <r_i_glide_evdw>
-45.9950103759766

> <r_i_glide_ecoul>
-3.86966681480408

> <r_i_glide_erotb>
0.240065825894481

> <r_i_glide_esite>
-0.0628089955912752

> <r_i_glide_emodel>
-62.0741520395926

> <r_i_glide_energy>
-49.8646771907806

> <r_i_glide_einternal>
2.68633675575256

> <i_i_glide_confnum>
28

> <i_i_glide_posenum>
76

> <r_i_glide_eff_state_penalty>
0

> <s_user_duplicate_titles>
CHEMBL3880_lig964

> <i_f3d_flags>
0

> <s_m_subgroup_title>
dock_pv

> <s_m_subgroupid>
dock_pv

> <b_m_subgroup_collapsed>
1

$$$$
CHEMBL3880_lig226
                    3D
 Schrodinger Suite 2021-1.
 52 56  0  0  1  0            999 V2000
    3.9913    7.9309   23.1805 C   0  0  0  0  0  0
    4.9363    7.2882   23.9907 C   0  0  0  0  0  0
    4.6882    7.0784   25.3543 C   0  0  0  0  0  0
    2.9185    8.5893   23.7610 C   0  0  0  0  0  0
    2.7964    8.5296   25.1450 C   0  0  0  0  0  0
    3.5825    7.7183   25.9059 C   0  0  0  0  0  0
    3.0577    7.7726   27.1747 N   0  0  0  0  0  0
    2.0043    8.6143   27.2287 C   0  0  0  0  0  0
    1.9799    9.2116   26.0037 N   0  0  0  0  0  0
    1.2372    8.7690   28.1754 O   0  0  0  0  0  0
    0.9934   10.0635   25.4994 C   0  0  0  0  0  0
    1.2843   11.3877   25.1665 C   0  0  0  0  0  0
    0.3343   12.1762   24.5116 C   0  0  0  0  0  0
   -0.9503   11.6621   24.2782 C   0  0  0  0  0  0
   -1.2272   10.3373   24.6032 C   0  0  0  0  0  0
   -0.2239    9.5146   25.1241 C   0  0  0  0  0  0
   -0.3390    8.1481   25.1673 O   0  0  0  0  0  0
    0.7816   13.7651   23.9861 Cl  0  0  0  0  0  0
   -1.9385   12.4268   23.7127 O   0  0  0  0  0  0
    6.2742    6.9742   23.3912 C   0  0  0  0  0  0
    7.1564    8.1698   23.5182 N   0  0  1  0  0  0
    7.0768    9.4946   22.3356 S   0  0  0  0  0  0
    6.4517   10.9530   23.1836 C   0  0  0  0  0  0
    6.0933    9.1706   21.2947 O   0  0  0  0  0  0
    8.4599    9.8024   21.9685 O   0  0  0  0  0  0
    7.3416   11.8878   23.7156 C   0  0  0  0  0  0
    4.5808   12.3711   23.7985 C   0  0  0  0  0  0
    5.0820   11.2009   23.2337 C   0  0  0  0  0  0
    5.4555   13.3320   24.3561 C   0  0  0  0  0  0
    6.8638   13.0853   24.3113 C   0  0  0  0  0  0
    7.7421   14.0275   24.8959 C   0  0  0  0  0  0
    7.2361   15.1692   25.5084 C   0  0  0  0  0  0
    5.8671   15.4162   25.5412 C   0  0  0  0  0  0
    4.9742   14.5154   24.9685 C   0  0  0  0  0  0
    4.1392    8.0216   22.1147 H   0  0  0  0  0  0
    5.3870    6.5319   25.9702 H   0  0  0  0  0  0
    2.2517    9.1781   23.1483 H   0  0  0  0  0  0
    3.3353    7.1841   27.9457 H   0  0  0  0  0  0
    2.2601   11.7902   25.3917 H   0  0  0  0  0  0
   -2.1923    9.9150   24.3671 H   0  0  0  0  0  0
    0.3549    7.7259   25.6779 H   0  0  0  0  0  0
   -2.8387   12.1229   23.8997 H   0  0  0  0  0  0
    6.0738    6.7182   22.3575 H   0  0  0  0  0  0
    6.7238    6.1282   23.9126 H   0  0  0  0  0  0
    7.1745    8.5259   24.4768 H   0  0  0  0  0  0
    8.4082   11.7104   23.6744 H   0  0  0  0  0  0
    3.5207   12.5666   23.7836 H   0  0  0  0  0  0
    4.3949   10.5143   22.7690 H   0  0  0  0  0  0
    8.8067   13.8442   24.8835 H   0  0  0  0  0  0
    7.9127   15.8790   25.9598 H   0  0  0  0  0  0
    5.4991   16.3155   26.0144 H   0  0  0  0  0  0
    3.9112   14.7074   24.9994 H   0  0  0  0  0  0
  1  4  1  0  0  0
  1  2  2  0  0  0
  1 35  1  0  0  0
  2 20  1  0  0  0
  2  3  1  0  0  0
  3  6  2  0  0  0
  3 36  1  0  0  0
  4  5  2  0  0  0
  4 37  1  0  0  0
  5  9  1  0  0  0
  5  6  1  0  0  0
  6  7  1  0  0  0
  7  8  1  0  0  0
  7 38  1  0  0  0
  8  9  1  0  0  0
  8 10  2  0  0  0
  9 11  1  0  0  0
 11 16  1  0  0  0
 11 12  2  0  0  0
 12 13  1  0  0  0
 12 39  1  0  0  0
 13 18  1  0  0  0
 13 14  2  0  0  0
 14 19  1  0  0  0
 14 15  1  0  0  0
 15 16  2  0  0  0
 15 40  1  0  0  0
 16 17  1  0  0  0
 17 41  1  0  0  0
 19 42  1  0  0  0
 20 21  1  0  0  0
 20 43  1  0  0  0
 20 44  1  0  0  0
 21 22  1  0  0  0
 21 45  1  0  0  0
 22 23  1  0  0  0
 22 24  2  0  0  0
 22 25  2  0  0  0
 23 26  2  0  0  0
 23 28  1  0  0  0
 26 30  1  0  0  0
 26 46  1  0  0  0
 27 29  1  0  0  0
 27 28  2  0  0  0
 27 47  1  0  0  0
 28 48  1  0  0  0
 29 30  1  0  0  0
 29 34  2  0  0  0
 30 31  2  0  0  0
 31 32  1  0  0  0
 31 49  1  0  0  0
 32 33  2  0  0  0
 32 50  1  0  0  0
 33 34  1  0  0  0
 33 51  1  0  0  0
 34 52  1  0  0  0
M  END
> <s_m_entry_id>
4791

> <s_m_entry_name>
dock_pv.110

> <s_m_Source_Path>
/home/csk/Desktop/cluster/DUD-E-result/hs90a

> <s_m_Source_File>
dock_pv.maegz

> <i_m_Source_File_Index>
110

> <chembl_id>
CHEMBL1801579

> <chembl_pref_name>
None

> <i_lp_mmshare_version>
53161

> <r_lp_tautomer_probability>
1

> <s_lp_Force_Field>
OPLS_2005

> <r_lp_Energy>
63.642203

> <b_lp_Chiralities_Consistent>
1

> <s_lp_Variant>
CHEMBL3880_lig226-1

> <s_i_glide_gridfile>
glide-grid_1uyg

> <i_i_glide_lignum>
260

> <i_i_glide_rotatable_bonds>
7

> <r_i_docking_score>
-8.72309899035848

> <r_i_glide_ligand_efficiency>
-0.256561735010543

> <r_i_glide_ligand_efficiency_sa>
-0.831160423519393

> <r_i_glide_ligand_efficiency_ln>
-1.92717724160919

> <r_i_glide_gscore>
-8.72309899035848

> <r_i_glide_lipo>
-4.60298017234763

> <r_i_glide_hbond>
-0.14140789183864

> <r_i_glide_metal>
0

> <r_i_glide_rewards>
-1.54118166927396

> <r_i_glide_evdw>
-45.1655235290527

> <r_i_glide_ecoul>
-3.12792563438416

> <r_i_glide_erotb>
0.331590125698009

> <r_i_glide_esite>
-0.0416543609859995

> <r_i_glide_emodel>
-48.0728842861079

> <r_i_glide_energy>
-48.2934491634369

> <r_i_glide_einternal>
6.71410512924194

> <i_i_glide_confnum>
25

> <i_i_glide_posenum>
195

> <r_i_glide_eff_state_penalty>
0

> <s_user_duplicate_titles>
CHEMBL3880_lig226

> <i_f3d_flags>
0

> <s_m_subgroup_title>
dock_pv

> <s_m_subgroupid>
dock_pv

> <b_m_subgroup_collapsed>
1

$$$$
CHEMBL3880_lig975
                    3D
 Schrodinger Suite 2021-1.
 42 44  0  0  1  0            999 V2000
    2.8525    8.4475   23.3528 C   0  0  0  0  0  0
    2.8451    8.7434   24.8745 C   0  0  0  0  0  0
    3.6166    7.6609   25.6576 C   0  0  0  0  0  0
    5.5750   14.8411   25.3810 C   0  0  0  0  0  0
    4.3178   14.2917   25.1457 C   0  0  0  0  0  0
    4.1948   13.1344   24.3719 C   0  0  0  0  0  0
    5.3247   12.5740   23.7683 C   0  0  0  0  0  0
    6.5814   13.1488   23.9708 C   0  0  0  0  0  0
    6.7216   14.2541   24.8246 C   0  0  0  0  0  0
    2.9284   12.5206   24.2613 N   0  0  0  0  0  0
    0.6848   12.2685   23.9061 C   0  0  0  0  0  0
    1.7715   13.1315   23.8297 C   0  0  0  0  0  0
    1.1947   11.0935   24.4815 C   0  0  0  0  0  0
    2.5735   11.2428   24.6500 C   0  0  0  0  0  0
    3.5073   10.1344   25.1431 C   0  0  0  0  0  0
    1.3820    8.7518   25.4192 C   0  0  0  0  0  0
    0.4804    9.8762   24.8757 C   0  0  0  0  0  0
    8.0960   14.7686   25.1717 C   0  0  0  0  0  0
    9.0221   14.7693   24.3670 O   0  0  0  0  0  0
    8.2857   15.1669   26.4278 N   0  0  0  0  0  0
   -0.7438   12.5492   23.4967 C   0  0  0  0  0  0
   -0.7357    9.7391   24.7671 O   0  0  0  0  0  0
    2.3369    7.5121   23.1275 H   0  0  0  0  0  0
    2.3696    9.2272   22.7669 H   0  0  0  0  0  0
    3.8714    8.3523   22.9743 H   0  0  0  0  0  0
    3.1785    6.6743   25.5057 H   0  0  0  0  0  0
    4.6583    7.6047   25.3378 H   0  0  0  0  0  0
    3.6138    7.8548   26.7307 H   0  0  0  0  0  0
    5.6483   15.7132   26.0161 H   0  0  0  0  0  0
    3.4505   14.7385   25.6109 H   0  0  0  0  0  0
    5.2389   11.6940   23.1486 H   0  0  0  0  0  0
    7.4493   12.6935   23.5127 H   0  0  0  0  0  0
    1.8173   14.1534   23.4816 H   0  0  0  0  0  0
    4.5038   10.1787   24.7085 H   0  0  0  0  0  0
    3.6287   10.2831   26.2172 H   0  0  0  0  0  0
    0.8803    7.7976   25.2537 H   0  0  0  0  0  0
    1.4064    8.9044   26.4980 H   0  0  0  0  0  0
    9.2086   15.4434   26.7228 H   0  0  0  0  0  0
    7.5291   15.1450   27.0930 H   0  0  0  0  0  0
   -1.4371   12.3696   24.3185 H   0  0  0  0  0  0
   -0.9024   13.5693   23.1591 H   0  0  0  0  0  0
   -1.0658   11.8736   22.7028 H   0  0  0  0  0  0
  1  2  1  0  0  0
  1 23  1  0  0  0
  1 24  1  0  0  0
  1 25  1  0  0  0
  2  3  1  0  0  0
  2 15  1  0  0  0
  2 16  1  0  0  0
  3 26  1  0  0  0
  3 27  1  0  0  0
  3 28  1  0  0  0
  4  5  2  0  0  0
  4  9  1  0  0  0
  4 29  1  0  0  0
  5  6  1  0  0  0
  5 30  1  0  0  0
  6  7  2  0  0  0
  6 10  1  0  0  0
  7  8  1  0  0  0
  7 31  1  0  0  0
  8  9  2  0  0  0
  8 32  1  0  0  0
  9 18  1  0  0  0
 10 14  1  0  0  0
 10 12  1  0  0  0
 11 13  1  0  0  0
 11 12  2  0  0  0
 11 21  1  0  0  0
 12 33  1  0  0  0
 13 14  2  0  0  0
 13 17  1  0  0  0
 14 15  1  0  0  0
 15 34  1  0  0  0
 15 35  1  0  0  0
 16 17  1  0  0  0
 16 36  1  0  0  0
 16 37  1  0  0  0
 17 22  2  0  0  0
 18 19  2  0  0  0
 18 20  1  0  0  0
 20 38  1  0  0  0
 20 39  1  0  0  0
 21 40  1  0  0  0
 21 41  1  0  0  0
 21 42  1  0  0  0
M  END
> <s_m_entry_id>
4792

> <s_m_entry_name>
dock_pv.111

> <s_m_Source_Path>
/home/csk/Desktop/cluster/DUD-E-result/hs90a

> <s_m_Source_File>
dock_pv.maegz

> <i_m_Source_File_Index>
111

> <chembl_id>
CHEMBL3401158

> <chembl_pref_name>
None

> <i_lp_mmshare_version>
53161

> <r_lp_tautomer_probability>
0.99995

> <s_lp_Force_Field>
OPLS_2005

> <r_lp_Energy>
18.790199

> <b_lp_Chiralities_Consistent>
1

> <s_lp_Variant>
CHEMBL3880_lig975-1

> <s_i_glide_gridfile>
glide-grid_1uyg

> <i_i_glide_lignum>
1084

> <i_i_glide_rotatable_bonds>
2

> <r_i_docking_score>
-8.71598705142472

> <r_i_glide_ligand_efficiency>
-0.396181229610215

> <r_i_glide_ligand_efficiency_sa>
-1.11011538629143

> <r_i_glide_ligand_efficiency_ln>
-2.13050515872056

> <r_i_glide_gscore>
-8.71598705142472

> <r_i_glide_lipo>
-3.49114865519078

> <r_i_glide_hbond>
-0.227620913111899

> <r_i_glide_metal>
0

> <r_i_glide_rewards>
-2.90829589023238

> <r_i_glide_evdw>
-37.6065139770508

> <r_i_glide_ecoul>
-2.78109192848206

> <r_i_glide_erotb>
0.208567895235191

> <r_i_glide_esite>
0

> <r_i_glide_emodel>
-57.1958034662969

> <r_i_glide_energy>
-40.3876059055328

> <r_i_glide_einternal>
3.16294097900391

> <i_i_glide_confnum>
3

> <i_i_glide_posenum>
361

> <r_i_glide_eff_state_penalty>
0

> <s_user_duplicate_titles>
CHEMBL3880_lig975

> <i_f3d_flags>
0

> <s_m_subgroup_title>
dock_pv

> <s_m_subgroupid>
dock_pv

> <b_m_subgroup_collapsed>
1

$$$$
CHEMBL3880_lig441
                    3D
 Schrodinger Suite 2021-1.
 35 37  0  0  1  0            999 V2000
    3.2552   11.1528   24.2951 C   0  0  0  0  0  0
    3.8359   10.0661   24.3122 O   0  0  0  0  0  0
    5.3488   12.2865   23.6993 C   0  0  0  0  0  0
    3.9176   12.3291   24.0832 N   0  0  0  0  0  0
    3.3339   13.6682   24.3144 C   0  0  0  0  0  0
    4.1396   14.3796   25.4147 C   0  0  0  0  0  0
    5.6389   14.3665   25.1673 C   0  0  0  0  0  0
    6.4773   15.2665   25.8274 C   0  0  0  0  0  0
    7.8606   15.1690   25.7179 C   0  0  0  0  0  0
    8.4273   14.1854   24.9247 C   0  0  0  0  0  0
    7.6049   13.2919   24.2464 C   0  0  0  0  0  0
    6.2116   13.3579   24.3670 C   0  0  0  0  0  0
    1.7556   11.1406   24.5172 C   0  0  0  0  0  0
    0.8353   11.8116   23.6831 C   0  0  0  0  0  0
   -0.5308   11.7685   23.9675 C   0  0  0  0  0  0
   -1.0014   11.0434   25.0616 C   0  0  0  0  0  0
   -0.1050   10.3325   25.8625 C   0  0  0  0  0  0
    1.2559   10.3599   25.5674 C   0  0  0  0  0  0
   -2.3390   11.0286   25.3482 O   0  0  0  0  0  0
    1.2277   12.4765   22.5493 O   0  0  0  0  0  0
   -0.6448    9.4316   27.2381 Cl  0  0  0  0  0  0
    5.7979   11.3184   23.9307 H   0  0  0  0  0  0
    5.4391   12.3803   22.6231 H   0  0  0  0  0  0
    3.3588   14.2669   23.4076 H   0  0  0  0  0  0
    2.2908   13.6472   24.6227 H   0  0  0  0  0  0
    3.7831   15.4044   25.5256 H   0  0  0  0  0  0
    3.9374   13.8950   26.3686 H   0  0  0  0  0  0
    6.0569   16.0300   26.4659 H   0  0  0  0  0  0
    8.4974   15.8557   26.2539 H   0  0  0  0  0  0
    9.5000   14.1092   24.8502 H   0  0  0  0  0  0
    8.0587   12.5159   23.6473 H   0  0  0  0  0  0
   -1.2269   12.2919   23.3285 H   0  0  0  0  0  0
    1.9353    9.8079   26.2036 H   0  0  0  0  0  0
   -2.9187   11.5379   24.7672 H   0  0  0  0  0  0
    2.1790   12.4530   22.4308 H   0  0  0  0  0  0
  1  2  2  0  0  0
  1  4  1  0  0  0
  1 13  1  0  0  0
  3  4  1  0  0  0
  3 12  1  0  0  0
  3 22  1  0  0  0
  3 23  1  0  0  0
  4  5  1  0  0  0
  5  6  1  0  0  0
  5 24  1  0  0  0
  5 25  1  0  0  0
  6  7  1  0  0  0
  6 26  1  0  0  0
  6 27  1  0  0  0
  7  8  1  0  0  0
  7 12  2  0  0  0
  8  9  2  0  0  0
  8 28  1  0  0  0
  9 10  1  0  0  0
  9 29  1  0  0  0
 10 11  2  0  0  0
 10 30  1  0  0  0
 11 12  1  0  0  0
 11 31  1  0  0  0
 13 14  1  0  0  0
 13 18  2  0  0  0
 14 15  2  0  0  0
 14 20  1  0  0  0
 15 16  1  0  0  0
 15 32  1  0  0  0
 16 17  2  0  0  0
 16 19  1  0  0  0
 17 18  1  0  0  0
 17 21  1  0  0  0
 18 33  1  0  0  0
 19 34  1  0  0  0
 20 35  1  0  0  0
M  END
> <s_m_entry_id>
4793

> <s_m_entry_name>
dock_pv.112

> <s_m_Source_Path>
/home/csk/Desktop/cluster/DUD-E-result/hs90a

> <s_m_Source_File>
dock_pv.maegz

> <i_m_Source_File_Index>
112

> <chembl_id>
CHEMBL3913987

> <chembl_pref_name>
None

> <i_lp_mmshare_version>
53161

> <r_lp_tautomer_probability>
0.999999999898

> <s_lp_Force_Field>
OPLS_2005

> <r_lp_Energy>
30.812236

> <b_lp_Chiralities_Consistent>
1

> <s_lp_Variant>
CHEMBL3880_lig441-1

> <s_i_glide_gridfile>
glide-grid_1uyg

> <i_i_glide_lignum>
483

> <i_i_glide_rotatable_bonds>
4

> <r_i_docking_score>
-8.70764448466324

> <r_i_glide_ligand_efficiency>
-0.414649737364916

> <r_i_glide_ligand_efficiency_sa>
-1.14398718398519

> <r_i_glide_ligand_efficiency_ln>
-2.15294750338055

> <r_i_glide_gscore>
-8.70764448466324

> <r_i_glide_lipo>
-4.10430271573541

> <r_i_glide_hbond>
-0.122793857862278

> <r_i_glide_metal>
0

> <r_i_glide_rewards>
-2.87272259523608

> <r_i_glide_evdw>
-35.1480102539062

> <r_i_glide_ecoul>
-1.66662919521332

> <r_i_glide_erotb>
0.399569576147836

> <r_i_glide_esite>
0

> <r_i_glide_emodel>
-55.2469455871681

> <r_i_glide_energy>
-36.8146394491196

> <r_i_glide_einternal>
1.35287976264954

> <i_i_glide_confnum>
5

> <i_i_glide_posenum>
265

> <r_i_glide_eff_state_penalty>
0

> <s_user_duplicate_titles>
CHEMBL3880_lig441

> <i_f3d_flags>
0

> <s_m_subgroup_title>
dock_pv

> <s_m_subgroupid>
dock_pv

> <b_m_subgroup_collapsed>
1

$$$$
CHEMBL3880_lig417
                    3D
 Schrodinger Suite 2021-1.
 57 59  0  0  1  0            999 V2000
   -0.8423    9.9748   27.0907 C   0  0  0  0  0  0
   -0.7701   10.8431   26.0064 C   0  0  0  0  0  0
    0.1734   10.6462   25.0056 C   0  0  0  0  0  0
    1.0456    9.5491   25.0722 C   0  0  0  0  0  0
    0.9359    8.6548   26.1417 C   0  0  0  0  0  0
   -0.0025    8.8516   27.1606 C   0  0  0  0  0  0
   -0.0977    7.8490   28.3187 C   0  0  0  0  0  0
    0.9424    8.1442   29.4128 C   0  0  0  0  0  0
   -0.0426    6.3752   27.8638 C   0  0  0  0  0  0
   -1.7455   10.2617   28.0766 O   0  0  0  0  0  0
    0.2224   11.5554   23.9813 O   0  0  0  0  0  0
    2.1250    9.2904   24.0775 C   0  0  0  0  0  0
    2.2611    8.0148   23.6398 O   0  0  0  0  0  0
    3.3433    7.9517   22.7670 N   0  0  0  0  0  0
    3.8527    9.1643   22.7088 C   0  0  0  0  0  0
    3.1059   10.0735   23.4925 C   0  0  0  0  0  0
    3.3214   11.4967   23.7158 C   0  0  0  0  0  0
    5.0164    9.4693   21.9153 C   0  0  0  0  0  0
    5.9853   10.0920   22.6097 N   0  0  0  0  0  0
    5.0989    9.1689   20.7217 O   0  0  0  0  0  0
    3.5133   12.6696   23.9903 C   0  0  0  0  0  0
    3.7955   14.0502   24.4164 C   0  0  0  0  0  0
    7.2998   10.4362   22.0876 C   0  0  0  0  0  0
    8.3052    9.3254   22.3800 C   0  0  0  0  0  0
    5.0486   14.1083   25.1670 N   0  0  0  0  0  0
    5.1262   15.3579   25.9251 C   0  0  0  0  0  0
    6.4208   15.4159   26.7495 C   0  0  0  0  0  0
    7.5734   15.2314   25.9296 O   0  0  0  0  0  0
    7.5520   13.9973   25.2270 C   0  0  0  0  0  0
    6.2701   13.8860   24.3705 C   0  0  0  0  0  0
   -1.4409   11.6872   25.9476 H   0  0  0  0  0  0
    1.6083    7.8100   26.1919 H   0  0  0  0  0  0
   -1.0804    7.9702   28.7665 H   0  0  0  0  0  0
    0.8610    9.1688   29.7734 H   0  0  0  0  0  0
    0.8066    7.4906   30.2752 H   0  0  0  0  0  0
    1.9611    8.0043   29.0483 H   0  0  0  0  0  0
   -0.7364    6.1886   27.0427 H   0  0  0  0  0  0
    0.9533    6.0832   27.5304 H   0  0  0  0  0  0
   -0.3198    5.7054   28.6784 H   0  0  0  0  0  0
   -1.5398    9.8035   28.8968 H   0  0  0  0  0  0
    0.9961   11.4316   23.4263 H   0  0  0  0  0  0
    5.7839   10.3715   23.5595 H   0  0  0  0  0  0
    2.9564   14.3625   25.0389 H   0  0  0  0  0  0
    3.8264   14.7225   23.5670 H   0  0  0  0  0  0
    7.2727   10.6431   21.0161 H   0  0  0  0  0  0
    7.6290   11.3606   22.5630 H   0  0  0  0  0  0
    9.2611    9.5707   21.9333 H   0  0  0  0  0  0
    8.4559    9.1995   23.4527 H   0  0  0  0  0  0
    7.9871    8.3694   21.9673 H   0  0  0  0  0  0
    4.2673   15.4347   26.5938 H   0  0  0  0  0  0
    5.0657   16.2148   25.2510 H   0  0  0  0  0  0
    6.4607   16.3690   27.2364 H   0  0  0  0  0  0
    6.4064   14.7430   27.5925 H   0  0  0  0  0  0
    8.4266   13.9560   24.5781 H   0  0  0  0  0  0
    7.6591   13.1691   25.9267 H   0  0  0  0  0  0
    6.3149   14.6151   23.5671 H   0  0  0  0  0  0
    6.2326   12.9079   23.8909 H   0  0  0  0  0  0
  1  2  2  0  0  0
  1  6  1  0  0  0
  1 10  1  0  0  0
  2  3  1  0  0  0
  2 31  1  0  0  0
  3  4  2  0  0  0
  3 11  1  0  0  0
  4  5  1  0  0  0
  4 12  1  0  0  0
  5  6  2  0  0  0
  5 32  1  0  0  0
  6  7  1  0  0  0
  7  8  1  0  0  0
  7  9  1  0  0  0
  7 33  1  0  0  0
  8 34  1  0  0  0
  8 35  1  0  0  0
  8 36  1  0  0  0
  9 37  1  0  0  0
  9 38  1  0  0  0
  9 39  1  0  0  0
 10 40  1  0  0  0
 11 41  1  0  0  0
 12 13  1  0  0  0
 12 16  2  0  0  0
 13 14  1  0  0  0
 14 15  2  0  0  0
 15 16  1  0  0  0
 15 18  1  0  0  0
 16 17  1  0  0  0
 17 21  3  0  0  0
 18 19  1  0  0  0
 18 20  2  0  0  0
 19 23  1  0  0  0
 19 42  1  0  0  0
 21 22  1  0  0  0
 22 25  1  0  0  0
 22 43  1  0  0  0
 22 44  1  0  0  0
 23 24  1  0  0  0
 23 45  1  0  0  0
 23 46  1  0  0  0
 24 47  1  0  0  0
 24 48  1  0  0  0
 24 49  1  0  0  0
 25 26  1  0  0  0
 25 30  1  0  0  0
 26 27  1  0  0  0
 26 50  1  0  0  0
 26 51  1  0  0  0
 27 28  1  0  0  0
 27 52  1  0  0  0
 27 53  1  0  0  0
 28 29  1  0  0  0
 29 30  1  0  0  0
 29 54  1  0  0  0
 29 55  1  0  0  0
 30 56  1  0  0  0
 30 57  1  0  0  0
M  END
> <s_m_entry_id>
4794

> <s_m_entry_name>
dock_pv.113

> <s_m_Source_Path>
/home/csk/Desktop/cluster/DUD-E-result/hs90a

> <s_m_Source_File>
dock_pv.maegz

> <i_m_Source_File_Index>
113

> <chembl_id>
CHEMBL3600500

> <chembl_pref_name>
None

> <i_lp_mmshare_version>
53161

> <r_lp_tautomer_probability>
0.999999999898

> <s_lp_Force_Field>
OPLS_2005

> <r_lp_Energy>
31.402994

> <b_lp_Chiralities_Consistent>
1

> <s_lp_Variant>
CHEMBL3880_lig417-1

> <s_i_glide_gridfile>
glide-grid_1uyg

> <i_i_glide_lignum>
459

> <i_i_glide_rotatable_bonds>
10

> <r_i_docking_score>
-8.6997505382846

> <r_i_glide_ligand_efficiency>
-0.289991684609487

> <r_i_glide_ligand_efficiency_sa>
-0.901071587853343

> <r_i_glide_ligand_efficiency_ln>
-1.97667811367257

> <r_i_glide_gscore>
-8.6997505382846

> <r_i_glide_lipo>
-5.05890856326617

> <r_i_glide_hbond>
-0.166570605895365

> <r_i_glide_metal>
0

> <r_i_glide_rewards>
-1.16097099844427

> <r_i_glide_evdw>
-47.5642356872559

> <r_i_glide_ecoul>
-3.36971545219421

> <r_i_glide_erotb>
0.577009450282203

> <r_i_glide_esite>
-0.0066407187690776

> <r_i_glide_emodel>
-73.3915744280072

> <r_i_glide_energy>
-50.9339511394501

> <r_i_glide_einternal>
7.15509414672852

> <i_i_glide_confnum>
4

> <i_i_glide_posenum>
20

> <r_i_glide_eff_state_penalty>
0

> <s_user_duplicate_titles>
CHEMBL3880_lig417

> <i_f3d_flags>
0

> <s_m_subgroup_title>
dock_pv

> <s_m_subgroupid>
dock_pv

> <b_m_subgroup_collapsed>
1

$$$$
CHEMBL3880_lig327
                    3D
 Schrodinger Suite 2021-1.
 46 50  0  0  1  0            999 V2000
    2.5056    7.3350   23.5401 C   0  0  0  0  0  0
    3.2616    7.3652   22.3705 C   0  0  0  0  0  0
    4.2523    8.3294   22.1886 C   0  0  0  0  0  0
    4.5567    9.2421   23.2157 C   0  0  0  0  0  0
    3.8162    9.1760   24.4068 C   0  0  0  0  0  0
    2.7735    8.2597   24.5570 C   0  0  0  0  0  0
    1.5018    6.4081   23.6587 O   0  0  0  0  0  0
    4.8607    8.3764   20.9617 O   0  0  0  0  0  0
    5.7231   10.2024   23.1014 C   0  0  0  0  0  0
    6.8037    9.7833   22.6808 O   0  0  0  0  0  0
    2.0668    8.2361   25.7730 N   0  0  0  0  0  0
    1.5502    7.7239   27.9135 C   0  0  0  0  0  0
    2.4485    7.5208   26.8869 C   0  0  0  0  0  0
    0.5488    8.6161   27.4163 C   0  0  0  0  0  0
    0.9071    8.9419   26.0698 C   0  0  0  0  0  0
    0.1403    9.8264   25.2968 C   0  0  0  0  0  0
   -0.9999   10.3695   25.8905 C   0  0  0  0  0  0
   -1.3740   10.0502   27.1932 C   0  0  0  0  0  0
   -0.6124    9.1766   27.9669 C   0  0  0  0  0  0
    5.5664   11.4907   23.4989 N   0  0  0  0  0  0
    6.7100   12.3982   23.6164 C   0  0  0  0  0  0
    4.2938   12.1912   23.7112 C   0  0  0  0  0  0
    4.7306   13.4712   24.3696 C   0  0  0  0  0  0
    6.1185   13.5686   24.3668 C   0  0  0  0  0  0
    6.7503   14.6204   25.0258 C   0  0  0  0  0  0
    5.9780   15.5690   25.6938 C   0  0  0  0  0  0
    4.5855   15.4989   25.6640 C   0  0  0  0  0  0
    3.9580   14.4489   24.9951 C   0  0  0  0  0  0
   -2.9911   10.7670   27.8981 Br  0  0  0  0  0  0
    3.0353    6.6704   21.5742 H   0  0  0  0  0  0
    4.0592    9.8229   25.2408 H   0  0  0  0  0  0
    1.3912    5.8675   22.8719 H   0  0  0  0  0  0
    4.5986    7.6331   20.4148 H   0  0  0  0  0  0
    1.6111    7.2856   28.8988 H   0  0  0  0  0  0
    3.3455    6.9182   26.8477 H   0  0  0  0  0  0
    0.4063   10.0695   24.2789 H   0  0  0  0  0  0
   -1.6286   11.0347   25.3145 H   0  0  0  0  0  0
   -0.9103    8.9396   28.9775 H   0  0  0  0  0  0
    7.0992   12.6710   22.6357 H   0  0  0  0  0  0
    7.5245   11.9218   24.1653 H   0  0  0  0  0  0
    3.6007   11.6503   24.3504 H   0  0  0  0  0  0
    3.7784   12.3624   22.7671 H   0  0  0  0  0  0
    7.8272   14.6969   25.0514 H   0  0  0  0  0  0
    6.4592   16.3685   26.2330 H   0  0  0  0  0  0
    3.9984   16.2490   26.1731 H   0  0  0  0  0  0
    2.8802   14.3835   25.0013 H   0  0  0  0  0  0
  1  2  2  0  0  0
  1  6  1  0  0  0
  1  7  1  0  0  0
  2  3  1  0  0  0
  2 30  1  0  0  0
  3  4  2  0  0  0
  3  8  1  0  0  0
  4  5  1  0  0  0
  4  9  1  0  0  0
  5  6  2  0  0  0
  5 31  1  0  0  0
  6 11  1  0  0  0
  7 32  1  0  0  0
  8 33  1  0  0  0
  9 10  2  0  0  0
  9 20  1  0  0  0
 11 15  1  0  0  0
 11 13  1  0  0  0
 12 14  1  0  0  0
 12 13  2  0  0  0
 12 34  1  0  0  0
 13 35  1  0  0  0
 14 15  2  0  0  0
 14 19  1  0  0  0
 15 16  1  0  0  0
 16 17  2  0  0  0
 16 36  1  0  0  0
 17 18  1  0  0  0
 17 37  1  0  0  0
 18 19  2  0  0  0
 18 29  1  0  0  0
 19 38  1  0  0  0
 20 21  1  0  0  0
 20 22  1  0  0  0
 21 24  1  0  0  0
 21 39  1  0  0  0
 21 40  1  0  0  0
 22 23  1  0  0  0
 22 41  1  0  0  0
 22 42  1  0  0  0
 23 24  2  0  0  0
 23 28  1  0  0  0
 24 25  1  0  0  0
 25 26  2  0  0  0
 25 43  1  0  0  0
 26 27  1  0  0  0
 26 44  1  0  0  0
 27 28  2  0  0  0
 27 45  1  0  0  0
 28 46  1  0  0  0
M  END
> <s_m_entry_id>
4795

> <s_m_entry_name>
dock_pv.114

> <s_m_Source_Path>
/home/csk/Desktop/cluster/DUD-E-result/hs90a

> <s_m_Source_File>
dock_pv.maegz

> <i_m_Source_File_Index>
114

> <chembl_id>
CHEMBL3260490

> <chembl_pref_name>
None

> <i_lp_mmshare_version>
53161

> <r_lp_tautomer_probability>
1

> <s_lp_Force_Field>
OPLS_2005

> <r_lp_Energy>
38.774102

> <b_lp_Chiralities_Consistent>
1

> <s_lp_Variant>
CHEMBL3880_lig327-1

> <s_i_glide_gridfile>
glide-grid_1uyg

> <i_i_glide_lignum>
364

> <i_i_glide_rotatable_bonds>
5

> <r_i_docking_score>
-8.69809123066435

> <r_i_glide_ligand_efficiency>
-0.299934180367736

> <r_i_glide_ligand_efficiency_sa>
-0.921492827907776

> <r_i_glide_ligand_efficiency_ln>
-1.99164232725936

> <r_i_glide_gscore>
-8.69809123066435

> <r_i_glide_lipo>
-4.47153023287012

> <r_i_glide_hbond>
0

> <r_i_glide_metal>
0

> <r_i_glide_rewards>
-1.81376454468757

> <r_i_glide_evdw>
-45.5760612487793

> <r_i_glide_ecoul>
-2.87872529029846

> <r_i_glide_erotb>
0.297815402877072

> <r_i_glide_esite>
0

> <r_i_glide_emodel>
-71.0946850311213

> <r_i_glide_energy>
-48.4547865390778

> <r_i_glide_einternal>
4.39727020263672

> <i_i_glide_confnum>
12

> <i_i_glide_posenum>
26

> <r_i_glide_eff_state_penalty>
0

> <s_user_duplicate_titles>
CHEMBL3880_lig327

> <i_f3d_flags>
0

> <s_m_subgroup_title>
dock_pv

> <s_m_subgroupid>
dock_pv

> <b_m_subgroup_collapsed>
1

$$$$
CHEMBL3880_lig932
                    3D
 Schrodinger Suite 2021-1.
 52 55  0  0  1  0            999 V2000
    0.0200   13.0058   23.5677 N   0  0  0  0  0  0
   -0.6236   11.8314   23.7663 C   0  0  0  0  0  0
   -0.1024   10.7324   24.3667 N   0  0  0  0  0  0
    1.1976   10.8002   24.7747 C   0  0  0  0  0  0
   -1.9398   11.7525   23.3386 N   0  0  0  0  0  0
    1.6973    9.6010   25.5104 C   0  0  0  0  0  0
    1.0505    9.1643   26.6884 C   0  0  0  0  0  0
    1.5162    8.0523   27.3840 C   0  0  0  0  0  0
    2.6213    7.3515   26.9237 C   0  0  0  0  0  0
    3.2627    7.7590   25.7602 C   0  0  0  0  0  0
    2.8127    8.8780   25.0384 C   0  0  0  0  0  0
    3.4322    9.3066   23.8770 O   0  0  0  0  0  0
   -0.3350    9.9722   27.3463 Cl  0  0  0  0  0  0
    4.0545    8.3446   23.0193 C   0  0  0  0  0  0
    4.8774    9.0492   21.9283 C   0  0  0  0  0  0
    6.0063    9.7698   22.5082 N   0  0  0  0  0  0
    3.1991    5.9808   27.7980 Cl  0  0  0  0  0  0
    1.2989   13.0503   24.0128 C   0  0  0  0  0  0
    1.9555   11.9685   24.5814 C   0  0  0  0  0  0
    3.3788   12.3607   24.9269 C   0  0  0  0  0  0
    3.3582   13.8239   24.7667 N   0  0  0  0  0  0
    2.1320   14.2930   24.1191 C   0  0  0  0  0  0
    4.3109   14.6877   25.1999 C   0  0  0  0  0  0
    5.5757   14.2346   25.1675 N   0  0  0  0  0  0
    4.0614   15.8519   25.5094 O   0  0  0  0  0  0
    7.2126    9.2640   22.9259 C   0  0  0  0  0  0
    7.8853   10.3396   23.4805 C   0  0  0  0  0  0
    7.0245   11.4224   23.3162 C   0  0  0  0  0  0
    5.8856   11.0761   22.7706 N   0  0  0  0  0  0
    6.7014   14.9322   25.8088 C   0  0  0  0  0  0
    8.0822   14.5225   25.2828 C   0  0  0  0  0  0
    9.0707   15.1718   25.8957 F   0  0  0  0  0  0
    8.2133   14.7060   23.9697 F   0  0  0  0  0  0
   -2.4903   10.9579   23.6304 H   0  0  0  0  0  0
   -2.4072   12.5927   23.0294 H   0  0  0  0  0  0
    1.0187    7.7368   28.2895 H   0  0  0  0  0  0
    4.1272    7.1963   25.4522 H   0  0  0  0  0  0
    4.7219    7.6604   23.5405 H   0  0  0  0  0  0
    3.2747    7.7370   22.5562 H   0  0  0  0  0  0
    5.2689    8.3205   21.2184 H   0  0  0  0  0  0
    4.2522    9.7400   21.3606 H   0  0  0  0  0  0
    4.0988   11.9033   24.2550 H   0  0  0  0  0  0
    3.6611   12.0868   25.9448 H   0  0  0  0  0  0
    1.6237   15.0325   24.7321 H   0  0  0  0  0  0
    2.3331   14.7669   23.1672 H   0  0  0  0  0  0
    5.7433   13.3103   24.7987 H   0  0  0  0  0  0
    7.4594    8.2184   22.8030 H   0  0  0  0  0  0
    8.8615   10.3648   23.9404 H   0  0  0  0  0  0
    7.2258   12.4429   23.5963 H   0  0  0  0  0  0
    6.6562   14.7683   26.8860 H   0  0  0  0  0  0
    6.6002   16.0089   25.6676 H   0  0  0  0  0  0
    8.2611   13.4628   25.4703 H   0  0  0  0  0  0
  1 18  1  0  0  0
  1  2  2  0  0  0
  2  5  1  0  0  0
  2  3  1  0  0  0
  3  4  2  0  0  0
  4 19  1  0  0  0
  4  6  1  0  0  0
  5 34  1  0  0  0
  5 35  1  0  0  0
  6 11  1  0  0  0
  6  7  2  0  0  0
  7  8  1  0  0  0
  7 13  1  0  0  0
  8  9  2  0  0  0
  8 36  1  0  0  0
  9 17  1  0  0  0
  9 10  1  0  0  0
 10 11  2  0  0  0
 10 37  1  0  0  0
 11 12  1  0  0  0
 12 14  1  0  0  0
 14 15  1  0  0  0
 14 38  1  0  0  0
 14 39  1  0  0  0
 15 16  1  0  0  0
 15 40  1  0  0  0
 15 41  1  0  0  0
 16 26  1  0  0  0
 16 29  1  0  0  0
 18 19  2  0  0  0
 18 22  1  0  0  0
 19 20  1  0  0  0
 20 21  1  0  0  0
 20 42  1  0  0  0
 20 43  1  0  0  0
 21 22  1  0  0  0
 21 23  1  0  0  0
 22 44  1  0  0  0
 22 45  1  0  0  0
 23 24  1  0  0  0
 23 25  2  0  0  0
 24 30  1  0  0  0
 24 46  1  0  0  0
 26 27  2  0  0  0
 26 47  1  0  0  0
 27 28  1  0  0  0
 27 48  1  0  0  0
 28 29  2  0  0  0
 28 49  1  0  0  0
 30 31  1  0  0  0
 30 50  1  0  0  0
 30 51  1  0  0  0
 31 32  1  0  0  0
 31 33  1  0  0  0
 31 52  1  0  0  0
M  END
> <s_m_entry_id>
4796

> <s_m_entry_name>
dock_pv.115

> <s_m_Source_Path>
/home/csk/Desktop/cluster/DUD-E-result/hs90a

> <s_m_Source_File>
dock_pv.maegz

> <i_m_Source_File_Index>
115

> <chembl_id>
CHEMBL1774925

> <chembl_pref_name>
None

> <i_lp_mmshare_version>
53161

> <r_lp_tautomer_probability>
0.999999987636

> <s_lp_Force_Field>
OPLS_2005

> <r_lp_Energy>
30.93338

> <b_lp_Chiralities_Consistent>
1

> <s_lp_Variant>
CHEMBL3880_lig932-1

> <s_i_glide_gridfile>
glide-grid_1uyg

> <i_i_glide_lignum>
1038

> <i_i_glide_rotatable_bonds>
9

> <r_i_docking_score>
-8.69523108131205

> <r_i_glide_ligand_efficiency>
-0.26349185094885

> <r_i_glide_ligand_efficiency_sa>
-0.845159156607544

> <r_i_glide_ligand_efficiency_ln>
-1.93377437098676

> <r_i_glide_gscore>
-8.69523108131205

> <r_i_glide_lipo>
-3.89590827899497

> <r_i_glide_hbond>
0

> <r_i_glide_metal>
0

> <r_i_glide_rewards>
-2.16157196009812

> <r_i_glide_evdw>
-51.0607376098633

> <r_i_glide_ecoul>
-4.39955854415894

> <r_i_glide_erotb>
0.575219819898047

> <r_i_glide_esite>
0

> <r_i_glide_emodel>
-80.0240211995171

> <r_i_glide_energy>
-55.4602961540222

> <r_i_glide_einternal>
5.56734085083008

> <i_i_glide_confnum>
2

> <i_i_glide_posenum>
273

> <r_i_glide_eff_state_penalty>
0

> <s_user_duplicate_titles>
CHEMBL3880_lig932

> <i_f3d_flags>
0

> <s_m_subgroup_title>
dock_pv

> <s_m_subgroupid>
dock_pv

> <b_m_subgroup_collapsed>
1

$$$$
CHEMBL3880_lig406
                    3D
 Schrodinger Suite 2021-1.
 58 59  0  0  1  0            999 V2000
    0.3946   11.3911   24.3808 C   0  0  0  0  0  0
    0.4610   12.7020   23.9194 C   0  0  0  0  0  0
    1.6605   13.4056   23.9667 C   0  0  0  0  0  0
    2.8273   12.7980   24.4413 C   0  0  0  0  0  0
    2.7576   11.4699   24.8767 C   0  0  0  0  0  0
    1.5488   10.7531   24.8676 C   0  0  0  0  0  0
    1.5223    9.3266   25.4465 C   0  0  0  0  0  0
    1.0380    8.2560   24.4453 C   0  0  0  0  0  0
    0.7366    9.2550   26.7705 C   0  0  0  0  0  0
   -0.8273   10.7738   24.3655 O   0  0  0  0  0  0
    1.6609   14.7113   23.5711 O   0  0  0  0  0  0
    4.1031   13.5701   24.5923 C   0  0  0  0  0  0
    3.9827   14.8017   25.1475 O   0  0  0  0  0  0
    5.2434   15.3576   25.3200 N   0  0  0  0  0  0
    6.1096   14.4614   24.8928 C   0  0  0  0  0  0
    5.4532   13.3194   24.3668 C   0  0  0  0  0  0
    6.0431   12.0876   23.8439 C   0  0  0  0  0  0
    7.5387   14.6661   24.9830 C   0  0  0  0  0  0
    7.9719   15.0369   26.2041 N   0  0  0  0  0  0
    8.2832   14.4800   24.0214 O   0  0  0  0  0  0
    6.5534   11.0344   23.4884 C   0  0  0  0  0  0
    7.2148    9.7761   23.0673 C   0  0  0  0  0  0
    9.3713   15.2409   26.5764 C   0  0  0  0  0  0
   10.0605   13.9484   27.0318 C   0  0  0  0  0  0
    8.1050   10.0391   21.8527 C   0  0  0  0  0  0
    8.1509    9.2678   24.1817 C   0  0  0  0  0  0
    6.2604    8.6844   22.7669 N   0  0  1  0  0  0
    4.9748    8.7674   21.5644 S   0  0  0  0  0  0
    3.6786    9.7248   22.4750 C   0  0  0  0  0  0
    4.4617    7.4081   21.3771 O   0  0  0  0  0  0
    5.4157    9.5679   20.4170 O   0  0  0  0  0  0
   -0.4393   13.1797   23.5599 H   0  0  0  0  0  0
    3.6470   11.0082   25.2832 H   0  0  0  0  0  0
    2.5499    9.0554   25.6972 H   0  0  0  0  0  0
    1.6144    8.2563   23.5234 H   0  0  0  0  0  0
    1.1257    7.2552   24.8700 H   0  0  0  0  0  0
   -0.0013    8.3918   24.1642 H   0  0  0  0  0  0
    1.1233    9.9681   27.4975 H   0  0  0  0  0  0
   -0.3244    9.4633   26.6364 H   0  0  0  0  0  0
    0.8190    8.2659   27.2216 H   0  0  0  0  0  0
   -0.7912    9.8679   24.6790 H   0  0  0  0  0  0
    0.7886   15.0037   23.3010 H   0  0  0  0  0  0
    7.2824   15.2529   26.9098 H   0  0  0  0  0  0
    9.9309   15.6983   25.7580 H   0  0  0  0  0  0
    9.4036   15.9585   27.3974 H   0  0  0  0  0  0
   11.1131   14.1302   27.2484 H   0  0  0  0  0  0
    9.6083   13.5691   27.9485 H   0  0  0  0  0  0
   10.0079   13.1712   26.2683 H   0  0  0  0  0  0
    8.8609   10.7691   22.1231 H   0  0  0  0  0  0
    8.6244    9.1273   21.5658 H   0  0  0  0  0  0
    7.5819   10.4380   20.9861 H   0  0  0  0  0  0
    8.9390    9.9967   24.3673 H   0  0  0  0  0  0
    7.6612    9.0754   25.1314 H   0  0  0  0  0  0
    8.6455    8.3368   23.8999 H   0  0  0  0  0  0
    6.5568    7.7417   23.0304 H   0  0  0  0  0  0
    2.7366    9.6124   21.9670 H   0  0  0  0  0  0
    3.9594   10.7699   22.4922 H   0  0  0  0  0  0
    3.6283    9.3144   23.4788 H   0  0  0  0  0  0
  1  2  2  0  0  0
  1  6  1  0  0  0
  1 10  1  0  0  0
  2  3  1  0  0  0
  2 32  1  0  0  0
  3  4  2  0  0  0
  3 11  1  0  0  0
  4  5  1  0  0  0
  4 12  1  0  0  0
  5  6  2  0  0  0
  5 33  1  0  0  0
  6  7  1  0  0  0
  7  8  1  0  0  0
  7  9  1  0  0  0
  7 34  1  0  0  0
  8 35  1  0  0  0
  8 36  1  0  0  0
  8 37  1  0  0  0
  9 38  1  0  0  0
  9 39  1  0  0  0
  9 40  1  0  0  0
 10 41  1  0  0  0
 11 42  1  0  0  0
 12 13  1  0  0  0
 12 16  2  0  0  0
 13 14  1  0  0  0
 14 15  2  0  0  0
 15 16  1  0  0  0
 15 18  1  0  0  0
 16 17  1  0  0  0
 17 21  3  0  0  0
 18 19  1  0  0  0
 18 20  2  0  0  0
 19 23  1  0  0  0
 19 43  1  0  0  0
 21 22  1  0  0  0
 22 25  1  0  0  0
 22 26  1  0  0  0
 22 27  1  0  0  0
 23 24  1  0  0  0
 23 44  1  0  0  0
 23 45  1  0  0  0
 24 46  1  0  0  0
 24 47  1  0  0  0
 24 48  1  0  0  0
 25 49  1  0  0  0
 25 50  1  0  0  0
 25 51  1  0  0  0
 26 52  1  0  0  0
 26 53  1  0  0  0
 26 54  1  0  0  0
 27 28  1  0  0  0
 27 55  1  0  0  0
 28 29  1  0  0  0
 28 30  2  0  0  0
 28 31  2  0  0  0
 29 56  1  0  0  0
 29 57  1  0  0  0
 29 58  1  0  0  0
M  END
> <s_m_entry_id>
4797

> <s_m_entry_name>
dock_pv.116

> <s_m_Source_Path>
/home/csk/Desktop/cluster/DUD-E-result/hs90a

> <s_m_Source_File>
dock_pv.maegz

> <i_m_Source_File_Index>
116

> <chembl_id>
CHEMBL3600511

> <chembl_pref_name>
None

> <i_lp_mmshare_version>
53161

> <r_lp_tautomer_probability>
0.999999999898

> <s_lp_Force_Field>
OPLS_2005

> <r_lp_Energy>
11.434082

> <b_lp_Chiralities_Consistent>
1

> <s_lp_Variant>
CHEMBL3880_lig406-1

> <s_i_glide_gridfile>
glide-grid_1uyg

> <i_i_glide_lignum>
448

> <i_i_glide_rotatable_bonds>
11

> <r_i_docking_score>
-8.6902369208346

> <r_i_glide_ligand_efficiency>
-0.280330223252729

> <r_i_glide_ligand_efficiency_sa>
-0.880623938598666

> <r_i_glide_ligand_efficiency_ln>
-1.95991474942555

> <r_i_glide_gscore>
-8.6902369208346

> <r_i_glide_lipo>
-4.42692128522823

> <r_i_glide_hbond>
-0.0283023752183656

> <r_i_glide_metal>
0

> <r_i_glide_rewards>
-1.43823868366355

> <r_i_glide_evdw>
-49.4269409179688

> <r_i_glide_ecoul>
-5.56517601013184

> <r_i_glide_erotb>
0.595089156957881

> <r_i_glide_esite>
-0.0857402862641201

> <r_i_glide_emodel>
-76.8679578824362

> <r_i_glide_energy>
-54.9921169281006

> <r_i_glide_einternal>
8.69623279571533

> <i_i_glide_confnum>
42

> <i_i_glide_posenum>
322

> <r_i_glide_eff_state_penalty>
0

> <s_user_duplicate_titles>
CHEMBL3880_lig406

> <i_f3d_flags>
0

> <s_m_subgroup_title>
dock_pv

> <s_m_subgroupid>
dock_pv

> <b_m_subgroup_collapsed>
1

$$$$
CHEMBL3880_lig374
                    3D
 Schrodinger Suite 2021-1.
 44 47  0  0  1  0            999 V2000
   -1.8707   11.5316   23.3856 N   0  0  0  0  0  0
   -1.4121   12.3914   22.4548 C   0  0  0  0  0  0
   -0.1247   12.7692   22.3047 N   0  0  0  0  0  0
   -0.9485   10.9868   24.2214 C   0  0  0  0  0  0
    0.4209   11.3222   24.1532 C   0  0  0  0  0  0
    0.7865   12.2503   23.1664 C   0  0  0  0  0  0
    2.2058   12.7760   23.1084 C   0  0  0  0  0  0
    2.9833   12.5158   24.4231 C   0  0  1  0  0  0
    2.7004   11.1686   24.9443 N   0  0  0  0  0  0
    1.4696   10.6200   24.9949 C   0  0  0  0  0  0
    4.4537   12.9642   24.3460 C   0  0  0  0  0  0
    5.5286   12.1645   23.8565 C   0  0  0  0  0  0
    6.8204   12.7314   23.8644 C   0  0  0  0  0  0
    7.0659   14.0050   24.3670 C   0  0  0  0  0  0
    6.0157   14.7696   24.8513 C   0  0  0  0  0  0
    4.7234   14.2578   24.8268 C   0  0  0  0  0  0
   -1.5301    9.9954   25.2066 C   0  0  0  0  0  0
    1.3228    9.5770   25.6247 O   0  0  0  0  0  0
   -2.3377   12.9230   21.5700 N   0  0  0  0  0  0
    5.4254   10.7252   23.3710 C   0  0  0  0  0  0
    8.3235   14.5030   24.3673 F   0  0  0  0  0  0
    6.7929    9.6349   23.5670 S   0  0  0  0  0  0
    5.8575    8.2785   23.0635 C   0  0  0  0  0  0
    4.6014    8.6450   22.6112 C   0  0  0  0  0  0
    4.3743   10.0128   22.7713 C   0  0  0  0  0  0
    6.4387    7.0400   23.1674 O   0  0  0  0  0  0
    5.6262    5.9400   22.7742 C   0  0  0  0  0  0
    2.1545   13.8507   22.9368 H   0  0  0  0  0  0
    2.7155   12.3559   22.2498 H   0  0  0  0  0  0
    2.5221   13.1669   25.1673 H   0  0  0  0  0  0
    3.4231   10.6904   25.4615 H   0  0  0  0  0  0
    7.6732   12.1882   23.4867 H   0  0  0  0  0  0
    6.2024   15.7632   25.2328 H   0  0  0  0  0  0
    3.9260   14.8829   25.2032 H   0  0  0  0  0  0
   -1.2438   10.2496   26.2269 H   0  0  0  0  0  0
   -2.6206    9.9696   25.1629 H   0  0  0  0  0  0
   -1.1389    9.0067   24.9686 H   0  0  0  0  0  0
   -2.0178   13.5122   20.8203 H   0  0  0  0  0  0
   -3.2772   12.5333   21.5676 H   0  0  0  0  0  0
    3.8652    7.9616   22.2144 H   0  0  0  0  0  0
    3.4254   10.4343   22.4958 H   0  0  0  0  0  0
    6.2172    5.0268   22.8252 H   0  0  0  0  0  0
    4.7714    5.8220   23.4416 H   0  0  0  0  0  0
    5.2608    6.0375   21.7499 H   0  0  0  0  0  0
  1  2  2  0  0  0
  1  4  1  0  0  0
  2  3  1  0  0  0
  2 19  1  0  0  0
  3  6  2  0  0  0
  4  5  2  0  0  0
  4 17  1  0  0  0
  5  6  1  0  0  0
  5 10  1  0  0  0
  6  7  1  0  0  0
  7  8  1  0  0  0
  7 28  1  0  0  0
  7 29  1  0  0  0
  8  9  1  0  0  0
  8 11  1  0  0  0
  8 30  1  0  0  0
  9 10  1  0  0  0
  9 31  1  0  0  0
 10 18  2  0  0  0
 11 12  2  0  0  0
 11 16  1  0  0  0
 12 13  1  0  0  0
 12 20  1  0  0  0
 13 14  2  0  0  0
 13 32  1  0  0  0
 14 15  1  0  0  0
 14 21  1  0  0  0
 15 16  2  0  0  0
 15 33  1  0  0  0
 16 34  1  0  0  0
 17 35  1  0  0  0
 17 36  1  0  0  0
 17 37  1  0  0  0
 19 38  1  0  0  0
 19 39  1  0  0  0
 20 22  1  0  0  0
 20 25  2  0  0  0
 22 23  1  0  0  0
 23 24  2  0  0  0
 23 26  1  0  0  0
 24 25  1  0  0  0
 24 40  1  0  0  0
 25 41  1  0  0  0
 26 27  1  0  0  0
 27 42  1  0  0  0
 27 43  1  0  0  0
 27 44  1  0  0  0
M  END
> <s_m_entry_id>
4798

> <s_m_entry_name>
dock_pv.117

> <s_m_Source_Path>
/home/csk/Desktop/cluster/DUD-E-result/hs90a

> <s_m_Source_File>
dock_pv.maegz

> <i_m_Source_File_Index>
117

> <chembl_id>
CHEMBL3360315

> <chembl_pref_name>
None

> <i_lp_mmshare_version>
53161

> <r_lp_tautomer_probability>
0.999999987636

> <s_lp_Force_Field>
OPLS_2005

> <r_lp_Energy>
23.47619

> <b_lp_Chiralities_Consistent>
1

> <s_lp_Variant>
CHEMBL3880_lig374-1

> <s_i_glide_gridfile>
glide-grid_1uyg

> <i_i_glide_lignum>
416

> <i_i_glide_rotatable_bonds>
3

> <r_i_docking_score>
-8.68881348006201

> <r_i_glide_ligand_efficiency>
-0.321807906668963

> <r_i_glide_ligand_efficiency_sa>
-0.965423718946264

> <r_i_glide_ligand_efficiency_ln>
-2.02261253187291

> <r_i_glide_gscore>
-8.68881348006201

> <r_i_glide_lipo>
-3.60105960959795

> <r_i_glide_hbond>
-0.32

> <r_i_glide_metal>
0

> <r_i_glide_rewards>
-2.47150679407921

> <r_i_glide_evdw>
-41.5094757080078

> <r_i_glide_ecoul>
-3.22594475746155

> <r_i_glide_erotb>
0.263118422634779

> <r_i_glide_esite>
0

> <r_i_glide_emodel>
-66.8065360832039

> <r_i_glide_energy>
-44.7354204654694

> <r_i_glide_einternal>
1.54952704906464

> <i_i_glide_confnum>
9

> <i_i_glide_posenum>
283

> <r_i_glide_eff_state_penalty>
0

> <s_user_duplicate_titles>
CHEMBL3880_lig374

> <i_f3d_flags>
0

> <s_m_subgroup_title>
dock_pv

> <s_m_subgroupid>
dock_pv

> <b_m_subgroup_collapsed>
1

$$$$
CHEMBL3880_lig209
                    3D
 Schrodinger Suite 2021-1.
 69 73  0  0  1  0            999 V2000
    0.3936   11.9542   24.1528 C   0  0  0  0  0  0
    1.7027   12.2174   23.7519 C   0  0  0  0  0  0
    2.7494   11.4530   24.2664 C   0  0  0  0  0  0
    2.4859   10.4242   25.1679 C   0  0  0  0  0  0
    1.1793   10.1437   25.5665 C   0  0  0  0  0  0
    0.1126   10.9333   25.0779 C   0  0  0  0  0  0
   -1.2961   10.7831   25.5939 C   0  0  0  0  0  0
   -1.5385   10.7518   26.7967 O   0  0  0  0  0  0
   -2.2639   10.7711   24.6812 N   0  0  0  0  0  0
    4.9673   10.9297   23.2305 C   0  0  0  0  0  0
    4.0816   11.7401   23.9267 N   0  0  0  0  0  0
    6.2087   11.5690   23.1754 C   0  0  0  0  0  0
    6.0712   12.7645   23.9057 C   0  0  0  0  0  0
    4.7719   12.8452   24.3671 C   0  0  0  0  0  0
    4.2304   13.9121   25.3132 C   0  0  0  0  0  0
    5.2754   15.0641   25.5409 C   0  0  0  0  0  0
    6.7586   14.7013   25.3527 C   0  0  0  0  0  0
    7.0540   13.7900   24.2015 C   0  0  0  0  0  0
    4.8617   16.2957   24.7672 C   0  0  0  0  0  0
    5.2654   15.4559   26.9601 C   0  0  0  0  0  0
    8.0603   13.9747   23.5648 O   0  0  0  0  0  0
    7.4353   11.0570   22.4492 C   0  0  0  0  0  0
    1.0145    9.0716   26.4564 N   0  0  0  0  0  0
    0.5453    7.8400   25.8294 C   0  0  0  0  0  0
    1.6749    6.8475   25.4251 C   0  0  2  0  0  0
    2.6117    7.3729   24.4121 N   0  0  2  0  0  0
    1.8979    7.1046   23.1668 C   0  0  0  0  0  0
    1.3507    5.6953   23.3037 C   0  0  0  0  0  0
    1.0954    5.5599   24.8027 C   0  0  0  0  0  0
    4.5815    9.5494   22.7072 C   0  0  0  0  0  0
    5.4808    8.4654   23.3432 C   0  0  0  0  0  0
    4.9381    7.0266   23.3544 C   0  0  0  0  0  0
    3.9174    6.6866   24.4729 C   0  0  0  0  0  0
    2.2459    6.5948   26.3207 H   0  0  0  0  0  0
   -0.3988   12.5850   23.7717 H   0  0  0  0  0  0
    1.9015   13.0276   23.0639 H   0  0  0  0  0  0
    3.3025    9.8320   25.5583 H   0  0  0  0  0  0
   -3.2347   10.8318   24.9690 H   0  0  0  0  0  0
   -2.0415   10.7013   23.7028 H   0  0  0  0  0  0
    4.0589   13.3946   26.2574 H   0  0  0  0  0  0
    3.2548   14.2941   25.0082 H   0  0  0  0  0  0
    7.1529   14.1469   26.2056 H   0  0  0  0  0  0
    7.3821   15.5917   25.2635 H   0  0  0  0  0  0
    5.6859   16.8783   24.3681 H   0  0  0  0  0  0
    4.2198   15.9690   23.9670 H   0  0  0  0  0  0
    4.2307   16.9691   25.3556 H   0  0  0  0  0  0
    5.9091   16.3125   27.1662 H   0  0  0  0  0  0
    4.2415   15.7036   27.2431 H   0  0  0  0  0  0
    5.6209   14.6336   27.5671 H   0  0  0  0  0  0
    8.0305   11.8623   22.0204 H   0  0  0  0  0  0
    8.0980   10.5053   23.1159 H   0  0  0  0  0  0
    7.1806   10.4097   21.6100 H   0  0  0  0  0  0
    1.8210    8.9024   27.0391 H   0  0  0  0  0  0
   -0.1016    8.0580   24.9771 H   0  0  0  0  0  0
   -0.1031    7.3494   26.5558 H   0  0  0  0  0  0
    2.5583    7.1560   22.3048 H   0  0  0  0  0  0
    1.1432    7.8675   22.9728 H   0  0  0  0  0  0
    2.0731    4.9641   22.9410 H   0  0  0  0  0  0
    0.4624    5.5705   22.6949 H   0  0  0  0  0  0
    1.5800    4.6807   25.2225 H   0  0  0  0  0  0
    0.0281    5.4517   25.0041 H   0  0  0  0  0  0
    4.6832    9.5099   21.6220 H   0  0  0  0  0  0
    3.5332    9.3284   22.8907 H   0  0  0  0  0  0
    5.7225    8.7386   24.3669 H   0  0  0  0  0  0
    6.4370    8.4612   22.8194 H   0  0  0  0  0  0
    5.7938    6.3721   23.5256 H   0  0  0  0  0  0
    4.5914    6.7258   22.3667 H   0  0  0  0  0  0
    4.3706    6.9539   25.4295 H   0  0  0  0  0  0
    3.7870    5.6033   24.5022 H   0  0  0  0  0  0
  1  6  1  0  0  0
  1  2  2  0  0  0
  1 35  1  0  0  0
  2  3  1  0  0  0
  2 36  1  0  0  0
  3 11  1  0  0  0
  3  4  2  0  0  0
  4  5  1  0  0  0
  4 37  1  0  0  0
  5  6  2  0  0  0
  5 23  1  0  0  0
  6  7  1  0  0  0
  7  9  1  0  0  0
  7  8  2  0  0  0
  9 38  1  0  0  0
  9 39  1  0  0  0
 10 11  1  0  0  0
 10 12  2  0  0  0
 10 30  1  0  0  0
 11 14  1  0  0  0
 12 22  1  0  0  0
 12 13  1  0  0  0
 13 14  2  0  0  0
 13 18  1  0  0  0
 14 15  1  0  0  0
 15 16  1  0  0  0
 15 40  1  0  0  0
 15 41  1  0  0  0
 16 17  1  0  0  0
 16 19  1  0  0  0
 16 20  1  0  0  0
 17 18  1  0  0  0
 17 42  1  0  0  0
 17 43  1  0  0  0
 18 21  2  0  0  0
 19 44  1  0  0  0
 19 45  1  0  0  0
 19 46  1  0  0  0
 20 47  1  0  0  0
 20 48  1  0  0  0
 20 49  1  0  0  0
 22 50  1  0  0  0
 22 51  1  0  0  0
 22 52  1  0  0  0
 23 24  1  0  0  0
 23 53  1  0  0  0
 24 25  1  0  0  0
 24 54  1  0  0  0
 24 55  1  0  0  0
 25 26  1  0  0  0
 25 29  1  0  0  0
 25 34  1  0  0  0
 26 27  1  0  0  0
 26 33  1  0  0  0
 27 28  1  0  0  0
 27 56  1  0  0  0
 27 57  1  0  0  0
 28 29  1  0  0  0
 28 58  1  0  0  0
 28 59  1  0  0  0
 29 60  1  0  0  0
 29 61  1  0  0  0
 30 31  1  0  0  0
 30 62  1  0  0  0
 30 63  1  0  0  0
 31 32  1  0  0  0
 31 64  1  0  0  0
 31 65  1  0  0  0
 32 33  1  0  0  0
 32 66  1  0  0  0
 32 67  1  0  0  0
 33 68  1  0  0  0
 33 69  1  0  0  0
M  END
> <s_m_entry_id>
4799

> <s_m_entry_name>
dock_pv.118

> <s_m_Source_Path>
/home/csk/Desktop/cluster/DUD-E-result/hs90a

> <s_m_Source_File>
dock_pv.maegz

> <i_m_Source_File_Index>
118

> <chembl_id>
CHEMBL1779543

> <chembl_pref_name>
None

> <i_lp_mmshare_version>
53161

> <r_lp_tautomer_probability>
0.99995

> <s_lp_Force_Field>
OPLS_2005

> <r_lp_Energy>
61.619327

> <b_lp_Chiralities_Consistent>
1

> <s_lp_Variant>
CHEMBL3880_lig209-1

> <s_i_glide_gridfile>
glide-grid_1uyg

> <i_i_glide_lignum>
243

> <i_i_glide_rotatable_bonds>
1

> <r_i_docking_score>
-8.6770753740965

> <r_i_glide_ligand_efficiency>
-0.262941678002924

> <r_i_glide_ligand_efficiency_sa>
-0.84339445799811

> <r_i_glide_ligand_efficiency_ln>
-1.92973663570724

> <r_i_glide_gscore>
-8.6770753740965

> <r_i_glide_lipo>
-4.31921389052542

> <r_i_glide_hbond>
-0.183122139667052

> <r_i_glide_metal>
0

> <r_i_glide_rewards>
-2.02535881516661

> <r_i_glide_evdw>
-33.4069290161133

> <r_i_glide_ecoul>
-3.0595064163208

> <r_i_glide_erotb>
0

> <r_i_glide_esite>
-0.0201081154836425

> <r_i_glide_emodel>
-74.2088685517428

> <r_i_glide_energy>
-36.4664354324341

> <r_i_glide_einternal>
0.171339884400368

> <i_i_glide_confnum>
1

> <i_i_glide_posenum>
12

> <r_i_glide_eff_state_penalty>
0

> <s_user_duplicate_titles>
CHEMBL3880_lig209

> <i_f3d_flags>
0

> <s_m_subgroup_title>
dock_pv

> <s_m_subgroupid>
dock_pv

> <b_m_subgroup_collapsed>
1

$$$$
CHEMBL3880_lig39
                    3D
 Schrodinger Suite 2021-1.
 47 50  0  0  1  0            999 V2000
    1.0018   12.4178   23.5167 S   0  0  0  0  0  0
    5.0195    8.7707   20.2364 F   0  0  0  0  0  0
    7.6406   11.9548   23.2586 O   0  0  0  0  0  0
    1.2919   11.8491   22.1993 O   0  0  0  0  0  0
   -0.2594   13.1633   23.5675 O   0  0  0  0  0  0
    0.2436    6.5553   27.0274 O   0  0  0  0  0  0
   -0.3321    8.0940   28.6066 O   0  0  0  0  0  0
    2.3577   13.1811   24.3554 N   0  0  0  0  0  0
    5.6933   10.0669   22.6293 N   0  0  0  0  0  0
    4.6826   13.6317   24.6946 C   0  0  0  0  0  0
    3.5594   12.7676   24.2035 C   0  0  0  0  0  0
    6.0430   13.3686   24.3669 C   0  0  0  0  0  0
    6.4630   12.1597   23.5674 C   0  0  0  0  0  0
    5.3452   11.2467   23.2701 C   0  0  0  0  0  0
    4.0600   11.5702   23.5626 C   0  0  0  0  0  0
    0.7056   11.0027   24.6152 C   0  0  0  0  0  0
    4.4060   14.7477   25.5091 C   0  0  0  0  0  0
    7.0481   14.2292   24.8296 C   0  0  0  0  0  0
    5.0005    8.8464   22.6286 C   0  0  0  0  0  0
    1.2544    9.7408   24.3669 C   0  0  0  0  0  0
   -0.1220   11.1689   25.7254 C   0  0  0  0  0  0
    5.4195   15.5709   25.9833 C   0  0  0  0  0  0
    6.7381   15.3107   25.6395 C   0  0  0  0  0  0
    0.2645    8.8764   26.4012 C   0  0  0  0  0  0
    1.0339    8.6882   25.2480 C   0  0  0  0  0  0
   -0.3380   10.1233   26.6184 C   0  0  0  0  0  0
    4.6989    8.2021   21.4237 C   0  0  0  0  0  0
    4.6254    8.2510   23.8365 C   0  0  0  0  0  0
    0.0566    7.7269   27.3538 C   0  0  0  0  0  0
    4.0611    6.9603   21.4376 C   0  0  0  0  0  0
    3.9752    7.0170   23.8471 C   0  0  0  0  0  0
    3.6921    6.3703   22.6454 C   0  0  0  0  0  0
   -0.2949    9.0408   28.7370 H   0  0  0  0  0  0
    6.6272    9.9889   22.2514 H   0  0  0  0  0  0
    3.3406   10.8510   23.2325 H   0  0  0  0  0  0
    3.3929   14.9904   25.7968 H   0  0  0  0  0  0
    8.0878   14.0529   24.5906 H   0  0  0  0  0  0
    1.8224    9.5426   23.4722 H   0  0  0  0  0  0
   -0.5974   12.1190   25.9037 H   0  0  0  0  0  0
    5.1834   16.4159   26.6135 H   0  0  0  0  0  0
    7.5246   15.9555   25.9978 H   0  0  0  0  0  0
    1.4661    7.7230   25.0240 H   0  0  0  0  0  0
   -0.9877   10.3029   27.4624 H   0  0  0  0  0  0
    4.8506    8.7432   24.7677 H   0  0  0  0  0  0
    3.8250    6.4690   20.5047 H   0  0  0  0  0  0
    3.6942    6.5607   24.7851 H   0  0  0  0  0  0
    3.1832    5.4171   22.6470 H   0  0  0  0  0  0
  1  4  2  0  0  0
  1  5  2  0  0  0
  1  8  1  0  0  0
  1 16  1  0  0  0
  2 27  1  0  0  0
  3 13  2  0  0  0
  6 29  2  0  0  0
  7 29  1  0  0  0
  7 33  1  0  0  0
  8 11  2  0  0  0
  9 14  1  0  0  0
  9 19  1  0  0  0
  9 34  1  0  0  0
 10 11  1  0  0  0
 10 12  1  0  0  0
 10 17  2  0  0  0
 11 15  1  0  0  0
 12 13  1  0  0  0
 12 18  2  0  0  0
 13 14  1  0  0  0
 14 15  2  0  0  0
 15 35  1  0  0  0
 16 20  2  0  0  0
 16 21  1  0  0  0
 17 22  1  0  0  0
 17 36  1  0  0  0
 18 23  1  0  0  0
 18 37  1  0  0  0
 19 27  1  0  0  0
 19 28  2  0  0  0
 20 25  1  0  0  0
 20 38  1  0  0  0
 21 26  2  0  0  0
 21 39  1  0  0  0
 22 23  2  0  0  0
 22 40  1  0  0  0
 23 41  1  0  0  0
 24 25  2  0  0  0
 24 26  1  0  0  0
 24 29  1  0  0  0
 25 42  1  0  0  0
 26 43  1  0  0  0
 27 30  2  0  0  0
 28 31  1  0  0  0
 28 44  1  0  0  0
 30 32  1  0  0  0
 30 45  1  0  0  0
 31 32  2  0  0  0
 31 46  1  0  0  0
 32 47  1  0  0  0
M  END
> <s_m_entry_id>
4800

> <s_m_entry_name>
dock_pv.119

> <s_m_Source_Path>
/home/csk/Desktop/cluster/DUD-E-result/hs90a

> <s_m_Source_File>
dock_pv.maegz

> <i_m_Source_File_Index>
119

> <chembl_id>
CHEMBL2003651

> <chembl_pref_name>
None

> <i_lp_mmshare_version>
53161

> <r_lp_tautomer_probability>
1

> <s_lp_Force_Field>
OPLS_2005

> <r_lp_Energy>
30.961046

> <b_lp_Chiralities_Consistent>
1

> <s_lp_Variant>
CHEMBL3880_lig39-1

> <s_i_glide_gridfile>
glide-grid_1uyg

> <i_i_glide_lignum>
44

> <i_i_glide_rotatable_bonds>
6

> <r_i_docking_score>
-8.67191583385613

> <r_i_glide_ligand_efficiency>
-0.270997369808004

> <r_i_glide_ligand_efficiency_sa>
-0.860363018833752

> <r_i_glide_ligand_efficiency_ln>
-1.9418783426981

> <r_i_glide_gscore>
-8.67191583385613

> <r_i_glide_lipo>
-3.70127143634347

> <r_i_glide_hbond>
0

> <r_i_glide_metal>
0

> <r_i_glide_rewards>
-2.4860836009191

> <r_i_glide_evdw>
-47.3999557495117

> <r_i_glide_ecoul>
-3.47332406044006

> <r_i_glide_erotb>
0.49407075447441

> <r_i_glide_esite>
-0.0876351545263729

> <r_i_glide_emodel>
-76.2857750191069

> <r_i_glide_energy>
-50.8732798099518

> <r_i_glide_einternal>
5.56781148910522

> <i_i_glide_confnum>
16

> <i_i_glide_posenum>
123

> <r_i_glide_eff_state_penalty>
0

> <s_user_duplicate_titles>
CHEMBL3880_lig39

> <i_f3d_flags>
0

> <s_m_subgroup_title>
dock_pv

> <s_m_subgroupid>
dock_pv

> <b_m_subgroup_collapsed>
1

$$$$
CHEMBL3880_lig912
                    3D
 Schrodinger Suite 2021-1.
 52 54  0  0  1  0            999 V2000
    5.1406    9.9902   22.7753 N   0  0  0  0  0  0
    4.1571    9.0599   22.6705 C   0  0  0  0  0  0
    2.8969    9.1755   23.1674 N   0  0  0  0  0  0
    2.5885   10.3427   23.8030 C   0  0  0  0  0  0
    4.4616    7.8933   21.9802 N   0  0  0  0  0  0
    1.2383   10.4334   24.4245 C   0  0  0  0  0  0
    0.2838   11.3629   23.9669 C   0  0  0  0  0  0
   -0.9615   11.4621   24.5859 C   0  0  0  0  0  0
   -1.2626   10.6545   25.6753 C   0  0  0  0  0  0
   -0.3313    9.7345   26.1355 C   0  0  0  0  0  0
    0.9207    9.6017   25.5156 C   0  0  0  0  0  0
    1.8765    8.6839   25.9316 O   0  0  0  0  0  0
    0.5861   12.3704   22.5893 Cl  0  0  0  0  0  0
    1.6125    7.7938   27.0161 C   0  0  0  0  0  0
    1.7931    8.5083   28.3697 C   0  0  0  0  0  0
    1.0789    7.8535   29.5750 C   0  0  0  0  0  0
    1.4532    6.3906   29.8767 C   0  0  0  0  0  0
    1.0703    5.5674   28.9016 F   0  0  0  0  0  0
    2.7667    6.2370   30.0351 F   0  0  0  0  0  0
    0.8626    5.9683   30.9950 F   0  0  0  0  0  0
   -2.7934   10.7692   26.4583 Cl  0  0  0  0  0  0
    4.7926   11.1396   23.4100 C   0  0  0  0  0  0
    3.5247   11.3755   23.9153 C   0  0  0  0  0  0
    3.4462   12.7525   24.5205 C   0  0  0  0  0  0
    4.8088   13.2649   24.3664 N   0  0  0  0  0  0
    5.6967   12.3116   23.6789 C   0  0  0  0  0  0
    5.1991   14.3761   25.0372 C   0  0  0  0  0  0
    6.5272   14.4793   25.2391 N   0  0  0  0  0  0
    4.3962   15.1917   25.4969 O   0  0  0  0  0  0
    7.1535   15.4302   26.1505 C   0  0  0  0  0  0
    8.4146   14.8847   26.8392 C   0  0  0  0  0  0
    9.5128   14.5925   25.9062 C   0  0  0  0  0  0
   10.3770   14.3691   25.1703 N   0  0  0  0  0  0
    3.7184    7.2348   21.7938 H   0  0  0  0  0  0
    5.3943    7.7544   21.6121 H   0  0  0  0  0  0
   -1.7005   12.1592   24.2165 H   0  0  0  0  0  0
   -0.6070    9.1279   26.9836 H   0  0  0  0  0  0
    0.6279    7.3337   26.9164 H   0  0  0  0  0  0
    2.3251    6.9715   26.9452 H   0  0  0  0  0  0
    2.8586    8.6156   28.5794 H   0  0  0  0  0  0
    1.4148    9.5249   28.2755 H   0  0  0  0  0  0
    1.2880    8.4508   30.4649 H   0  0  0  0  0  0
    0.0002    7.9197   29.4315 H   0  0  0  0  0  0
    3.1451   12.7377   25.5670 H   0  0  0  0  0  0
    2.7453   13.4015   23.9946 H   0  0  0  0  0  0
    6.0954   12.7474   22.7665 H   0  0  0  0  0  0
    6.5515   12.0310   24.2936 H   0  0  0  0  0  0
    7.1375   13.8284   24.7685 H   0  0  0  0  0  0
    6.4546   15.7613   26.9244 H   0  0  0  0  0  0
    7.3975   16.3134   25.5664 H   0  0  0  0  0  0
    8.1882   13.9694   27.3858 H   0  0  0  0  0  0
    8.7893   15.6026   27.5658 H   0  0  0  0  0  0
  1 22  1  0  0  0
  1  2  2  0  0  0
  2  5  1  0  0  0
  2  3  1  0  0  0
  3  4  2  0  0  0
  4 23  1  0  0  0
  4  6  1  0  0  0
  5 34  1  0  0  0
  5 35  1  0  0  0
  6 11  1  0  0  0
  6  7  2  0  0  0
  7  8  1  0  0  0
  7 13  1  0  0  0
  8  9  2  0  0  0
  8 36  1  0  0  0
  9 10  1  0  0  0
  9 21  1  0  0  0
 10 11  2  0  0  0
 10 37  1  0  0  0
 11 12  1  0  0  0
 12 14  1  0  0  0
 14 15  1  0  0  0
 14 38  1  0  0  0
 14 39  1  0  0  0
 15 16  1  0  0  0
 15 40  1  0  0  0
 15 41  1  0  0  0
 16 17  1  0  0  0
 16 42  1  0  0  0
 16 43  1  0  0  0
 17 18  1  0  0  0
 17 19  1  0  0  0
 17 20  1  0  0  0
 22 23  2  0  0  0
 22 26  1  0  0  0
 23 24  1  0  0  0
 24 25  1  0  0  0
 24 44  1  0  0  0
 24 45  1  0  0  0
 25 26  1  0  0  0
 25 27  1  0  0  0
 26 46  1  0  0  0
 26 47  1  0  0  0
 27 28  1  0  0  0
 27 29  2  0  0  0
 28 30  1  0  0  0
 28 48  1  0  0  0
 30 31  1  0  0  0
 30 49  1  0  0  0
 30 50  1  0  0  0
 31 32  1  0  0  0
 31 51  1  0  0  0
 31 52  1  0  0  0
 32 33  3  0  0  0
M  END
> <s_m_entry_id>
4801

> <s_m_entry_name>
dock_pv.120

> <s_m_Source_Path>
/home/csk/Desktop/cluster/DUD-E-result/hs90a

> <s_m_Source_File>
dock_pv.maegz

> <i_m_Source_File_Index>
120

> <chembl_id>
CHEMBL1774906

> <chembl_pref_name>
None

> <i_lp_mmshare_version>
53161

> <r_lp_tautomer_probability>
0.999999987636

> <s_lp_Force_Field>
OPLS_2005

> <r_lp_Energy>
30.183474

> <b_lp_Chiralities_Consistent>
1

> <s_lp_Variant>
CHEMBL3880_lig912-1

> <s_i_glide_gridfile>
glide-grid_1uyg

> <i_i_glide_lignum>
1018

> <i_i_glide_rotatable_bonds>
10

> <r_i_docking_score>
-8.66680652791335

> <r_i_glide_ligand_efficiency>
-0.262630500845859

> <r_i_glide_ligand_efficiency_sa>
-0.842396346585276

> <r_i_glide_ligand_efficiency_ln>
-1.92745289748535

> <r_i_glide_gscore>
-8.66680652791335

> <r_i_glide_lipo>
-3.34685786822561

> <r_i_glide_hbond>
-0.400438658705805

> <r_i_glide_metal>
0

> <r_i_glide_rewards>
-1.6940901851473

> <r_i_glide_evdw>
-48.4901695251465

> <r_i_glide_ecoul>
-8.26396560668945

> <r_i_glide_erotb>
0.645488846345882

> <r_i_glide_esite>
-0.206805344919779

> <r_i_glide_emodel>
-80.603482590449

> <r_i_glide_energy>
-56.7541351318359

> <r_i_glide_einternal>
9.29341793060303

> <i_i_glide_confnum>
115

> <i_i_glide_posenum>
20

> <r_i_glide_eff_state_penalty>
0

> <s_user_duplicate_titles>
CHEMBL3880_lig912

> <i_f3d_flags>
0

> <s_m_subgroup_title>
dock_pv

> <s_m_subgroupid>
dock_pv

> <b_m_subgroup_collapsed>
1

$$$$
CHEMBL3880_lig240
                    3D
 Schrodinger Suite 2021-1.
 77 80  0  0  1  0            999 V2000
    0.4082   12.4544   23.5948 C   0  0  0  0  0  0
    1.7619   12.7107   23.3834 C   0  0  0  0  0  0
   -0.0156   11.3813   24.4044 C   0  0  0  0  0  0
    0.9642   10.5482   24.9952 C   0  0  0  0  0  0
    1.5430    8.3586   26.2054 C   0  0  2  0  0  0
    0.6142    9.3829   25.7104 N   0  0  0  0  0  0
    1.7831    7.2099   25.1630 C   0  0  1  0  0  0
    4.7288    8.7107   24.0523 C   0  0  0  0  0  0
    3.9116    7.5413   23.6738 N   0  0  0  0  0  0
    2.4363    7.6735   23.8101 C   0  0  0  0  0  0
    2.3078   10.8867   24.8392 C   0  0  0  0  0  0
    2.7213   11.9196   24.0137 C   0  0  0  0  0  0
    4.6905    9.8368   22.9878 C   0  0  0  0  0  0
    5.0718   11.2346   23.4878 C   0  0  0  0  0  0
    4.1076   12.1542   23.8769 N   0  0  0  0  0  0
    6.3312   11.8482   23.5652 C   0  0  0  0  0  0
    7.6593   11.1668   23.3085 C   0  0  0  0  0  0
    6.1169   13.1716   24.0156 C   0  0  0  0  0  0
    4.7410   13.3483   24.1329 C   0  0  0  0  0  0
    4.0481   14.6163   24.6173 C   0  0  0  0  0  0
    5.0297   15.4359   25.4852 C   0  0  0  0  0  0
    6.4344   15.5672   24.8224 C   0  0  0  0  0  0
    7.0762   14.2364   24.3667 C   0  0  0  0  0  0
    8.2954   14.0874   24.3730 O   0  0  0  0  0  0
    5.2122   14.7311   26.8121 C   0  0  0  0  0  0
    4.4626   16.8109   25.7789 C   0  0  0  0  0  0
    2.4924    5.9758   25.7783 C   0  0  0  0  0  0
    1.0040    7.8608   27.5610 C   0  0  0  0  0  0
   -1.4933   11.1920   24.6750 C   0  0  0  0  0  0
   -1.9035   10.7696   25.7528 O   0  0  0  0  0  0
   -2.3386   11.5669   23.7194 N   0  0  0  0  0  0
    4.5198    6.4500   23.1333 C   0  0  0  0  0  0
    5.7297    6.2601   23.2204 O   0  0  0  0  0  0
    3.7103    5.4320   22.3196 C   0  0  0  0  0  0
    3.3608    5.9695   20.9179 C   0  0  0  0  0  0
    4.0299    5.2235   19.9160 O   0  0  0  0  0  0
    3.6684    5.6225   18.5982 C   0  0  0  0  0  0
   -0.3083   13.1171   23.1303 H   0  0  0  0  0  0
    2.0627   13.5465   22.7684 H   0  0  0  0  0  0
    2.5127    8.7922   26.4372 H   0  0  0  0  0  0
   -0.3700    9.2345   25.8903 H   0  0  0  0  0  0
    0.7820    6.8757   24.8826 H   0  0  0  0  0  0
    5.7736    8.4293   24.1852 H   0  0  0  0  0  0
    4.4242    9.0449   25.0354 H   0  0  0  0  0  0
    2.1387    8.6915   23.5782 H   0  0  0  0  0  0
    1.9567    7.1047   23.0163 H   0  0  0  0  0  0
    3.0643   10.3613   25.3838 H   0  0  0  0  0  0
    3.7153    9.8657   22.5008 H   0  0  0  0  0  0
    5.3713    9.5471   22.1862 H   0  0  0  0  0  0
    7.6051   10.0889   23.4619 H   0  0  0  0  0  0
    8.0138   11.3431   22.2942 H   0  0  0  0  0  0
    8.4388   11.5187   23.9852 H   0  0  0  0  0  0
    3.1211   14.4174   25.1596 H   0  0  0  0  0  0
    3.7732   15.1710   23.7295 H   0  0  0  0  0  0
    7.1415   16.0324   25.5093 H   0  0  0  0  0  0
    6.3618   16.2243   23.9672 H   0  0  0  0  0  0
    4.2861   14.2945   27.1800 H   0  0  0  0  0  0
    5.9277   13.9691   26.6600 H   0  0  0  0  0  0
    5.6619   15.3710   27.5674 H   0  0  0  0  0  0
    3.4791   16.7638   26.2184 H   0  0  0  0  0  0
    5.0826   17.1692   26.5813 H   0  0  0  0  0  0
    4.4639   17.5361   24.9610 H   0  0  0  0  0  0
    3.4841    6.2332   26.1580 H   0  0  0  0  0  0
    1.9178    5.5379   26.5947 H   0  0  0  0  0  0
    2.6137    5.1783   25.0504 H   0  0  0  0  0  0
    1.7265    7.2313   28.0777 H   0  0  0  0  0  0
    0.7853    8.6948   28.2326 H   0  0  0  0  0  0
    0.0850    7.2899   27.4419 H   0  0  0  0  0  0
   -3.3335   11.6168   23.9636 H   0  0  0  0  0  0
   -2.0317   11.8077   22.7921 H   0  0  0  0  0  0
    4.2814    4.5113   22.2339 H   0  0  0  0  0  0
    2.8060    5.1573   22.8598 H   0  0  0  0  0  0
    2.2829    5.8889   20.7684 H   0  0  0  0  0  0
    3.6614    7.0155   20.8036 H   0  0  0  0  0  0
    4.2369    5.0425   17.8742 H   0  0  0  0  0  0
    2.6077    5.4477   18.4052 H   0  0  0  0  0  0
    3.8860    6.6773   18.4227 H   0  0  0  0  0  0
  1  2  2  0  0  0
  1  3  1  0  0  0
  1 38  1  0  0  0
  2 12  1  0  0  0
  2 39  1  0  0  0
  3 29  1  0  0  0
  3  4  2  0  0  0
  4 11  1  0  0  0
  4  6  1  0  0  0
  5 28  1  0  0  0
  5  7  1  0  0  0
  5  6  1  0  0  0
  5 40  1  0  0  0
  6 41  1  0  0  0
  7 10  1  0  0  0
  7 27  1  0  0  0
  7 42  1  0  0  0
  8 13  1  0  0  0
  8  9  1  0  0  0
  8 43  1  0  0  0
  8 44  1  0  0  0
  9 10  1  0  0  0
  9 32  1  0  0  0
 10 45  1  0  0  0
 10 46  1  0  0  0
 11 12  2  0  0  0
 11 47  1  0  0  0
 12 15  1  0  0  0
 13 14  1  0  0  0
 13 48  1  0  0  0
 13 49  1  0  0  0
 14 15  1  0  0  0
 14 16  2  0  0  0
 15 19  1  0  0  0
 16 17  1  0  0  0
 16 18  1  0  0  0
 17 50  1  0  0  0
 17 51  1  0  0  0
 17 52  1  0  0  0
 18 19  2  0  0  0
 18 23  1  0  0  0
 19 20  1  0  0  0
 20 21  1  0  0  0
 20 53  1  0  0  0
 20 54  1  0  0  0
 21 22  1  0  0  0
 21 25  1  0  0  0
 21 26  1  0  0  0
 22 23  1  0  0  0
 22 55  1  0  0  0
 22 56  1  0  0  0
 23 24  2  0  0  0
 25 57  1  0  0  0
 25 58  1  0  0  0
 25 59  1  0  0  0
 26 60  1  0  0  0
 26 61  1  0  0  0
 26 62  1  0  0  0
 27 63  1  0  0  0
 27 64  1  0  0  0
 27 65  1  0  0  0
 28 66  1  0  0  0
 28 67  1  0  0  0
 28 68  1  0  0  0
 29 30  2  0  0  0
 29 31  1  0  0  0
 31 69  1  0  0  0
 31 70  1  0  0  0
 32 33  2  0  0  0
 32 34  1  0  0  0
 34 35  1  0  0  0
 34 71  1  0  0  0
 34 72  1  0  0  0
 35 36  1  0  0  0
 35 73  1  0  0  0
 35 74  1  0  0  0
 36 37  1  0  0  0
 37 75  1  0  0  0
 37 76  1  0  0  0
 37 77  1  0  0  0
M  END
> <s_m_entry_id>
4802

> <s_m_entry_name>
dock_pv.121

> <s_m_Source_Path>
/home/csk/Desktop/cluster/DUD-E-result/hs90a

> <s_m_Source_File>
dock_pv.maegz

> <i_m_Source_File_Index>
121

> <chembl_id>
CHEMBL1807803

> <chembl_pref_name>
None

> <i_lp_mmshare_version>
53161

> <r_lp_tautomer_probability>
0.99995

> <s_lp_Force_Field>
OPLS_2005

> <r_lp_Energy>
54.357855

> <b_lp_Chiralities_Consistent>
1

> <s_lp_Variant>
CHEMBL3880_lig240-1

> <s_i_glide_gridfile>
glide-grid_1uyg

> <i_i_glide_lignum>
274

> <i_i_glide_rotatable_bonds>
5

> <r_i_docking_score>
-8.65520646829303

> <r_i_glide_ligand_efficiency>
-0.233924499143055

> <r_i_glide_ligand_efficiency_sa>
-0.779488326741599

> <r_i_glide_ligand_efficiency_ln>
-1.87711137614452

> <r_i_glide_gscore>
-8.65520646829303

> <r_i_glide_lipo>
-4.28666355983888

> <r_i_glide_hbond>
-0.186148887652789

> <r_i_glide_metal>
0

> <r_i_glide_rewards>
-1.77899638279469

> <r_i_glide_evdw>
-39.3887176513672

> <r_i_glide_ecoul>
-4.1618595123291

> <r_i_glide_erotb>
0.237408934551258

> <r_i_glide_esite>
-0.0470917631401992

> <r_i_glide_emodel>
-49.4864898687008

> <r_i_glide_energy>
-43.5505771636963

> <r_i_glide_einternal>
6.59988117218018

> <i_i_glide_confnum>
29

> <i_i_glide_posenum>
78

> <r_i_glide_eff_state_penalty>
0

> <s_user_duplicate_titles>
CHEMBL3880_lig240

> <i_f3d_flags>
0

> <s_m_subgroup_title>
dock_pv

> <s_m_subgroupid>
dock_pv

> <b_m_subgroup_collapsed>
1

$$$$
CHEMBL3880_lig1000
                    3D
 Schrodinger Suite 2021-1.
 46 48  0  0  1  0            999 V2000
   -0.6759   11.8172   24.0038 C   0  0  0  0  0  0
   -1.1363   11.2400   25.1716 C   0  0  0  0  0  0
   -0.3123   10.4235   25.9309 C   0  0  0  0  0  0
    1.0042   10.1006   25.5043 C   0  0  0  0  0  0
    1.4645   10.6752   24.2763 C   0  0  0  0  0  0
    0.6280   11.5700   23.5672 C   0  0  0  0  0  0
    1.1644   12.3690   22.1155 Cl  0  0  0  0  0  0
    2.8367   10.3251   23.6516 C   0  0  0  0  0  0
    4.0426   11.0848   24.2622 C   0  0  0  0  0  0
    5.3991   10.5610   23.7788 C   0  0  0  0  0  0
    6.5173   11.3440   23.5419 N   0  0  0  0  0  0
    7.4993   10.4618   23.1663 C   0  0  0  0  0  0
    6.9078    9.2133   23.1919 C   0  0  0  0  0  0
    5.6449    9.2838   23.5670 N   0  0  0  0  0  0
    6.6382   12.7957   23.5500 C   0  0  0  0  0  0
    7.2328   13.4781   24.7665 C   0  0  0  0  0  0
    6.4896   14.4616   25.4169 C   0  0  0  0  0  0
    7.0637   15.1690   26.4621 C   0  0  0  0  0  0
    8.3937   14.9406   26.8037 C   0  0  0  0  0  0
    9.1366   13.9558   26.1690 C   0  0  0  0  0  0
    8.5408   13.1989   25.1674 C   0  0  0  0  0  0
    1.8699    9.1496   26.3278 C   0  0  0  0  0  0
    2.8598    8.5487   25.9081 O   0  0  0  0  0  0
    1.5048    9.0776   27.6328 O   0  0  0  0  0  0
    2.2389    8.2987   28.5702 C   0  0  0  0  0  0
   -0.8777    9.9683   27.0950 O   0  0  0  0  0  0
   -1.5399   12.6111   23.2933 O   0  0  0  0  0  0
   -2.1460   11.4380   25.5049 H   0  0  0  0  0  0
    2.9775    9.2471   23.6784 H   0  0  0  0  0  0
    2.8348   10.5026   22.5778 H   0  0  0  0  0  0
    3.9169   12.1416   24.0314 H   0  0  0  0  0  0
    4.0090   11.0214   25.3504 H   0  0  0  0  0  0
    8.4911   10.7989   22.8992 H   0  0  0  0  0  0
    7.3742    8.2718   22.9364 H   0  0  0  0  0  0
    7.3330   13.0551   22.7627 H   0  0  0  0  0  0
    5.6795   13.2251   23.2649 H   0  0  0  0  0  0
    5.4770   14.6855   25.1123 H   0  0  0  0  0  0
    6.4961   15.9370   26.9690 H   0  0  0  0  0  0
    8.8610   15.5375   27.5675 H   0  0  0  0  0  0
   10.1573   13.7662   26.4656 H   0  0  0  0  0  0
    9.1031   12.4052   24.7027 H   0  0  0  0  0  0
    1.7651    8.3553   29.5505 H   0  0  0  0  0  0
    2.2746    7.2503   28.2700 H   0  0  0  0  0  0
    3.2609    8.6660   28.6699 H   0  0  0  0  0  0
   -0.2451    9.4537   27.6063 H   0  0  0  0  0  0
   -2.4558   12.5078   23.5735 H   0  0  0  0  0  0
  1  2  2  0  0  0
  1  6  1  0  0  0
  1 27  1  0  0  0
  2  3  1  0  0  0
  2 28  1  0  0  0
  3  4  2  0  0  0
  3 26  1  0  0  0
  4  5  1  0  0  0
  4 22  1  0  0  0
  5  6  2  0  0  0
  5  8  1  0  0  0
  6  7  1  0  0  0
  8  9  1  0  0  0
  8 29  1  0  0  0
  8 30  1  0  0  0
  9 10  1  0  0  0
  9 31  1  0  0  0
  9 32  1  0  0  0
 10 11  1  0  0  0
 10 14  2  0  0  0
 11 12  1  0  0  0
 11 15  1  0  0  0
 12 13  2  0  0  0
 12 33  1  0  0  0
 13 14  1  0  0  0
 13 34  1  0  0  0
 15 16  1  0  0  0
 15 35  1  0  0  0
 15 36  1  0  0  0
 16 17  1  0  0  0
 16 21  2  0  0  0
 17 18  2  0  0  0
 17 37  1  0  0  0
 18 19  1  0  0  0
 18 38  1  0  0  0
 19 20  2  0  0  0
 19 39  1  0  0  0
 20 21  1  0  0  0
 20 40  1  0  0  0
 21 41  1  0  0  0
 22 23  2  0  0  0
 22 24  1  0  0  0
 24 25  1  0  0  0
 25 42  1  0  0  0
 25 43  1  0  0  0
 25 44  1  0  0  0
 26 45  1  0  0  0
 27 46  1  0  0  0
M  END
> <s_m_entry_id>
4803

> <s_m_entry_name>
dock_pv.122

> <s_m_Source_Path>
/home/csk/Desktop/cluster/DUD-E-result/hs90a

> <s_m_Source_File>
dock_pv.maegz

> <i_m_Source_File_Index>
122

> <chembl_id>
CHEMBL3426787

> <chembl_pref_name>
None

> <i_lp_mmshare_version>
53161

> <r_lp_tautomer_probability>
1

> <s_lp_Force_Field>
OPLS_2005

> <r_lp_Energy>
21.260559

> <b_lp_Chiralities_Consistent>
1

> <s_lp_Variant>
CHEMBL3880_lig1000-1

> <s_i_glide_gridfile>
glide-grid_1uyg

> <i_i_glide_lignum>
1113

> <i_i_glide_rotatable_bonds>
9

> <r_i_docking_score>
-8.65282207305602

> <r_i_glide_ligand_efficiency>
-0.320474891594667

> <r_i_glide_ligand_efficiency_sa>
-0.961424673727769

> <r_i_glide_ligand_efficiency_ln>
-2.01423432568664

> <r_i_glide_gscore>
-8.65282207305602

> <r_i_glide_lipo>
-4.25948816732658

> <r_i_glide_hbond>
0

> <r_i_glide_metal>
0

> <r_i_glide_rewards>
-2.31177978866419

> <r_i_glide_evdw>
-43.5609474182129

> <r_i_glide_ecoul>
-4.56064224243164

> <r_i_glide_erotb>
0.780589590210133

> <r_i_glide_esite>
0

> <r_i_glide_emodel>
-68.0712553991712

> <r_i_glide_energy>
-48.1215896606445

> <r_i_glide_einternal>
4.28753423690796

> <i_i_glide_confnum>
132

> <i_i_glide_posenum>
168

> <r_i_glide_eff_state_penalty>
0

> <s_user_duplicate_titles>
CHEMBL3880_lig1000

> <i_f3d_flags>
0

> <s_m_subgroup_title>
dock_pv

> <s_m_subgroupid>
dock_pv

> <b_m_subgroup_collapsed>
1

$$$$
CHEMBL3880_lig440
                    3D
 Schrodinger Suite 2021-1.
 32 34  0  0  1  0            999 V2000
    2.9067   11.1631   24.3670 C   0  0  0  0  0  0
    3.5118   10.0890   24.4276 O   0  0  0  0  0  0
    5.0148   12.2953   23.7915 C   0  0  0  0  0  0
    5.7655   13.4864   24.3670 C   0  0  0  0  0  0
    5.1548   14.5183   25.0611 C   0  0  0  0  0  0
    3.6610   14.5511   25.2424 C   0  0  0  0  0  0
    2.9312   13.6728   24.1937 C   0  0  0  0  0  0
    3.5595   12.3366   24.1076 N   0  0  0  0  0  0
    6.0655   15.4803   25.5061 C   0  0  0  0  0  0
    7.3803   15.1514   25.2168 C   0  0  0  0  0  0
    7.4950   13.6492   24.3670 S   0  0  0  0  0  0
    1.4123   11.1181   24.6475 C   0  0  0  0  0  0
    0.4198   11.7073   23.8329 C   0  0  0  0  0  0
   -0.9339   11.5802   24.1694 C   0  0  0  0  0  0
   -1.3236   10.8717   25.3067 C   0  0  0  0  0  0
   -0.3472   10.2741   26.1098 C   0  0  0  0  0  0
    0.9939   10.3690   25.7547 C   0  0  0  0  0  0
   -2.6547   10.7690   25.6303 O   0  0  0  0  0  0
    0.7182   12.3690   22.6675 O   0  0  0  0  0  0
   -0.7438    9.4310   27.5670 Cl  0  0  0  0  0  0
    5.4777   11.3758   24.1535 H   0  0  0  0  0  0
    5.1457   12.2380   22.7180 H   0  0  0  0  0  0
    3.2872   15.5690   25.1670 H   0  0  0  0  0  0
    3.4217   14.2161   26.2494 H   0  0  0  0  0  0
    2.9922   14.1373   23.2120 H   0  0  0  0  0  0
    1.8784   13.6424   24.4626 H   0  0  0  0  0  0
    5.7765   16.3690   26.0468 H   0  0  0  0  0  0
    8.2698   15.7070   25.4715 H   0  0  0  0  0  0
   -1.6943   12.0242   23.5430 H   0  0  0  0  0  0
    1.7264    9.8887   26.3906 H   0  0  0  0  0  0
   -3.2789   11.2455   25.0639 H   0  0  0  0  0  0
   -0.0698   12.7076   22.2366 H   0  0  0  0  0  0
  1  2  2  0  0  0
  1  8  1  0  0  0
  1 12  1  0  0  0
  3  4  1  0  0  0
  3  8  1  0  0  0
  3 21  1  0  0  0
  3 22  1  0  0  0
  4  5  2  0  0  0
  4 11  1  0  0  0
  5  6  1  0  0  0
  5  9  1  0  0  0
  6  7  1  0  0  0
  6 23  1  0  0  0
  6 24  1  0  0  0
  7  8  1  0  0  0
  7 25  1  0  0  0
  7 26  1  0  0  0
  9 10  2  0  0  0
  9 27  1  0  0  0
 10 11  1  0  0  0
 10 28  1  0  0  0
 12 13  1  0  0  0
 12 17  2  0  0  0
 13 14  2  0  0  0
 13 19  1  0  0  0
 14 15  1  0  0  0
 14 29  1  0  0  0
 15 16  2  0  0  0
 15 18  1  0  0  0
 16 17  1  0  0  0
 16 20  1  0  0  0
 17 30  1  0  0  0
 18 31  1  0  0  0
 19 32  1  0  0  0
M  END
> <s_m_entry_id>
4804

> <s_m_entry_name>
dock_pv.123

> <s_m_Source_Path>
/home/csk/Desktop/cluster/DUD-E-result/hs90a

> <s_m_Source_File>
dock_pv.maegz

> <i_m_Source_File_Index>
123

> <chembl_id>
CHEMBL3950691

> <chembl_pref_name>
None

> <i_lp_mmshare_version>
53161

> <r_lp_tautomer_probability>
0.999999999898

> <s_lp_Force_Field>
OPLS_2005

> <r_lp_Energy>
29.422484

> <b_lp_Chiralities_Consistent>
1

> <s_lp_Variant>
CHEMBL3880_lig440-1

> <s_i_glide_gridfile>
glide-grid_1uyg

> <i_i_glide_lignum>
482

> <i_i_glide_rotatable_bonds>
4

> <r_i_docking_score>
-8.65182112533335

> <r_i_glide_ligand_efficiency>
-0.432591056266667

> <r_i_glide_ligand_efficiency_sa>
-1.17423278273908

> <r_i_glide_ligand_efficiency_ln>
-2.16526547151219

> <r_i_glide_gscore>
-8.65182112533335

> <r_i_glide_lipo>
-3.90357954698808

> <r_i_glide_hbond>
-0.16

> <r_i_glide_metal>
0

> <r_i_glide_rewards>
-2.75131112224979

> <r_i_glide_evdw>
-36.0306777954102

> <r_i_glide_ecoul>
-2.80950307846069

> <r_i_glide_erotb>
0.386028895444137

> <r_i_glide_esite>
0

> <r_i_glide_emodel>
-57.8018329952518

> <r_i_glide_energy>
-38.8401808738708

> <r_i_glide_einternal>
4.14092540740967

> <i_i_glide_confnum>
12

> <i_i_glide_posenum>
169

> <r_i_glide_eff_state_penalty>
0

> <s_user_duplicate_titles>
CHEMBL3880_lig440

> <i_f3d_flags>
0

> <s_m_subgroup_title>
dock_pv

> <s_m_subgroupid>
dock_pv

> <b_m_subgroup_collapsed>
1

$$$$
CHEMBL3880_lig120
                    3D
 Schrodinger Suite 2021-1.
 39 41  0  0  1  0            999 V2000
    8.1165   15.1547   26.8997 C   0  0  0  0  0  0
    9.1647   14.9810   25.7761 C   0  0  0  0  0  0
    8.8360   13.8728   24.9276 O   0  0  0  0  0  0
    6.8326   15.3875   26.3076 O   0  0  0  0  0  0
    6.5048   14.4499   25.3528 C   0  0  0  0  0  0
    7.4855   13.7158   24.6695 C   0  0  0  0  0  0
    7.1015   12.7137   23.7808 C   0  0  0  0  0  0
    5.7431   12.4381   23.5920 C   0  0  0  0  0  0
    4.7483   13.1691   24.2783 C   0  0  0  0  0  0
    5.1529   14.2197   25.1118 C   0  0  0  0  0  0
    3.3754   12.9140   24.1728 N   0  0  0  0  0  0
    2.9262   11.7355   24.3670 C   0  0  0  0  0  0
    1.4900   11.4253   24.4565 C   0  0  0  0  0  0
    0.5483   12.2232   23.7905 C   0  0  0  0  0  0
   -0.8253   12.0148   23.9396 C   0  0  0  0  0  0
   -1.2781   10.9859   24.7776 C   0  0  0  0  0  0
   -0.3538   10.1559   25.4043 C   0  0  0  0  0  0
    1.0148   10.3654   25.2526 C   0  0  0  0  0  0
   -1.7748   12.9548   23.2118 C   0  0  0  0  0  0
   -1.9407   12.6057   21.7236 C   0  0  0  0  0  0
   -2.6063   10.7688   25.0493 O   0  0  0  0  0  0
    1.8573    9.5303   25.9449 O   0  0  0  0  0  0
    8.0840   14.2472   27.5051 H   0  0  0  0  0  0
    8.3870   15.9687   27.5675 H   0  0  0  0  0  0
   10.1558   14.8280   26.2006 H   0  0  0  0  0  0
    9.1981   15.8916   25.1757 H   0  0  0  0  0  0
    7.8515   12.1310   23.2648 H   0  0  0  0  0  0
    5.4605   11.6391   22.9226 H   0  0  0  0  0  0
    4.4152   14.7985   25.6489 H   0  0  0  0  0  0
    3.5901   10.8909   24.5264 H   0  0  0  0  0  0
    0.8852   13.0435   23.1696 H   0  0  0  0  0  0
   -0.7073    9.3591   26.0433 H   0  0  0  0  0  0
   -1.3905   13.9684   23.3200 H   0  0  0  0  0  0
   -2.7391   12.9725   23.7075 H   0  0  0  0  0  0
   -2.6342   13.2949   21.2414 H   0  0  0  0  0  0
   -2.3388   11.5993   21.5818 H   0  0  0  0  0  0
   -0.9914   12.6630   21.1893 H   0  0  0  0  0  0
   -3.2563   11.3898   24.6812 H   0  0  0  0  0  0
    2.7704    9.8246   25.9365 H   0  0  0  0  0  0
  1  2  1  0  0  0
  1  4  1  0  0  0
  1 23  1  0  0  0
  1 24  1  0  0  0
  2  3  1  0  0  0
  2 25  1  0  0  0
  2 26  1  0  0  0
  3  6  1  0  0  0
  4  5  1  0  0  0
  5  6  2  0  0  0
  5 10  1  0  0  0
  6  7  1  0  0  0
  7  8  2  0  0  0
  7 27  1  0  0  0
  8  9  1  0  0  0
  8 28  1  0  0  0
  9 11  1  0  0  0
  9 10  2  0  0  0
 10 29  1  0  0  0
 11 12  2  0  0  0
 12 13  1  0  0  0
 12 30  1  0  0  0
 13 14  2  0  0  0
 13 18  1  0  0  0
 14 15  1  0  0  0
 14 31  1  0  0  0
 15 16  2  0  0  0
 15 19  1  0  0  0
 16 17  1  0  0  0
 16 21  1  0  0  0
 17 18  2  0  0  0
 17 32  1  0  0  0
 18 22  1  0  0  0
 19 20  1  0  0  0
 19 33  1  0  0  0
 19 34  1  0  0  0
 20 35  1  0  0  0
 20 36  1  0  0  0
 20 37  1  0  0  0
 21 38  1  0  0  0
 22 39  1  0  0  0
M  END
> <s_m_entry_id>
4805

> <s_m_entry_name>
dock_pv.124

> <s_m_Source_Path>
/home/csk/Desktop/cluster/DUD-E-result/hs90a

> <s_m_Source_File>
dock_pv.maegz

> <i_m_Source_File_Index>
124

> <chembl_id>
CHEMBL1831186

> <chembl_pref_name>
None

> <i_lp_mmshare_version>
53161

> <r_lp_tautomer_probability>
1

> <s_lp_Force_Field>
OPLS_2005

> <r_lp_Energy>
22.739995

> <b_lp_Chiralities_Consistent>
1

> <s_lp_Variant>
CHEMBL3880_lig120-1

> <s_i_glide_gridfile>
glide-grid_1uyg

> <i_i_glide_lignum>
134

> <i_i_glide_rotatable_bonds>
5

> <r_i_docking_score>
-8.64585862718197

> <r_i_glide_ligand_efficiency>
-0.392993573962817

> <r_i_glide_ligand_efficiency_sa>
-1.10118344980404

> <r_i_glide_ligand_efficiency_ln>
-2.11336321383921

> <r_i_glide_gscore>
-8.64585862718197

> <r_i_glide_lipo>
-4.00516112962708

> <r_i_glide_hbond>
-0.256810602621986

> <r_i_glide_metal>
0

> <r_i_glide_rewards>
-2.44067441775556

> <r_i_glide_evdw>
-35.9890632629395

> <r_i_glide_ecoul>
-3.69142937660217

> <r_i_glide_erotb>
0.409955092459957

> <r_i_glide_esite>
0

> <r_i_glide_emodel>
-55.1904560945172

> <r_i_glide_energy>
-39.6804926395416

> <r_i_glide_einternal>
1.59602463245392

> <i_i_glide_confnum>
17

> <i_i_glide_posenum>
145

> <r_i_glide_eff_state_penalty>
0

> <s_user_duplicate_titles>
CHEMBL3880_lig120

> <i_f3d_flags>
0

> <s_m_subgroup_title>
dock_pv

> <s_m_subgroupid>
dock_pv

> <b_m_subgroup_collapsed>
1

$$$$
CHEMBL3880_lig137
                    3D
 Schrodinger Suite 2021-1.
 65 68  0  0  1  0            999 V2000
    2.5495    7.0441   29.0646 O   0  0  0  0  0  0
    1.8773    7.7574   28.1070 C   0  0  0  0  0  0
    2.3377    7.8264   26.7803 C   0  0  0  0  0  0
    4.2770    7.5740   25.0635 C   0  0  0  0  0  0
    3.5920    7.0471   26.3436 C   0  0  0  0  0  0
    3.3014    5.5420   26.2139 C   0  0  0  0  0  0
    1.6263    8.6184   25.8666 C   0  0  0  0  0  0
    0.5048    9.3530   26.2563 C   0  0  0  0  0  0
   -0.1968   10.2246   25.2689 C   0  0  0  0  0  0
    0.1027   11.3138   24.4393 C   0  0  0  0  0  0
    1.3792   12.1037   24.3252 C   0  0  0  0  0  0
    1.2782   13.4935   24.2095 C   0  0  0  0  0  0
    2.4046   14.2976   24.2608 C   0  0  0  0  0  0
    3.6628   13.7353   24.4351 C   0  0  0  0  0  0
    4.8379   14.7065   24.5437 C   0  0  0  0  0  0
    6.1150   14.1021   24.9190 N   0  0  0  0  0  0
    3.7876   12.3396   24.4387 C   0  0  0  0  0  0
    2.6530   11.5328   24.3879 C   0  0  0  0  0  0
   -1.1336   11.5712   23.7875 C   0  0  0  0  0  0
   -0.4960   12.7266   21.8618 O   0  0  0  0  0  0
   -1.3610   12.5072   22.7131 C   0  0  0  0  0  0
   -2.5644   13.1143   22.7649 N   0  0  0  0  0  0
   -2.0898   10.7955   24.2425 N   0  0  0  0  0  0
   -1.5175    9.9689   25.1821 O   0  0  0  0  0  0
    0.0193    9.2033   27.5641 C   0  0  0  0  0  0
   -1.1385    9.8201   27.9666 O   0  0  0  0  0  0
    0.7122    8.4203   28.4840 C   0  0  0  0  0  0
   -3.1483   14.0898   21.8492 C   0  0  0  0  0  0
   -2.5689   14.1322   20.4339 C   0  0  0  0  0  0
    6.8479   13.5680   23.7764 C   0  0  0  0  0  0
    7.9450   12.6551   24.2985 C   0  0  0  0  0  0
    8.8605   13.4085   25.1138 O   0  0  0  0  0  0
    8.2649   14.1918   26.1541 C   0  0  0  0  0  0
    7.0035   14.9728   25.6934 C   0  0  0  0  0  0
    2.3018    7.3091   29.9538 H   0  0  0  0  0  0
    4.4350    8.6518   25.1087 H   0  0  0  0  0  0
    3.6913    7.3579   24.1692 H   0  0  0  0  0  0
    5.2549    7.1100   24.9271 H   0  0  0  0  0  0
    4.3240    7.1687   27.1445 H   0  0  0  0  0  0
    2.8914    5.1291   27.1362 H   0  0  0  0  0  0
    2.5860    5.3427   25.4145 H   0  0  0  0  0  0
    4.2135    4.9890   25.9877 H   0  0  0  0  0  0
    1.9260    8.6459   24.8316 H   0  0  0  0  0  0
    0.3221   13.9860   24.1333 H   0  0  0  0  0  0
    2.2855   15.3667   24.1904 H   0  0  0  0  0  0
    4.9207   15.1690   23.5675 H   0  0  0  0  0  0
    4.5641   15.4905   25.2519 H   0  0  0  0  0  0
    4.7531   11.8664   24.5234 H   0  0  0  0  0  0
    2.7868   10.4691   24.4244 H   0  0  0  0  0  0
   -3.2220   12.7693   23.4620 H   0  0  0  0  0  0
   -1.6088   10.2051   27.2220 H   0  0  0  0  0  0
    0.3423    8.3476   29.4969 H   0  0  0  0  0  0
   -4.2066   13.8484   21.8043 H   0  0  0  0  0  0
   -3.1390   15.0823   22.2796 H   0  0  0  0  0  0
   -3.1390   14.7689   19.7947 H   0  0  0  0  0  0
   -1.5397   14.4792   20.3670 H   0  0  0  0  0  0
   -2.6310   13.1690   19.9670 H   0  0  0  0  0  0
    6.1812   12.9721   23.1551 H   0  0  0  0  0  0
    7.2611   14.3697   23.1669 H   0  0  0  0  0  0
    8.4609   12.2004   23.4618 H   0  0  0  0  0  0
    7.4733   11.8042   24.7670 H   0  0  0  0  0  0
    9.0124   14.9078   26.4978 H   0  0  0  0  0  0
    8.0614   13.5692   27.0204 H   0  0  0  0  0  0
    7.2660   15.8645   25.1205 H   0  0  0  0  0  0
    6.4694   15.3294   26.5755 H   0  0  0  0  0  0
  1  2  1  0  0  0
  1 35  1  0  0  0
  2 27  2  0  0  0
  2  3  1  0  0  0
  3  7  2  0  0  0
  3  5  1  0  0  0
  4  5  1  0  0  0
  4 36  1  0  0  0
  4 37  1  0  0  0
  4 38  1  0  0  0
  5  6  1  0  0  0
  5 39  1  0  0  0
  6 40  1  0  0  0
  6 41  1  0  0  0
  6 42  1  0  0  0
  7  8  1  0  0  0
  7 43  1  0  0  0
  8 25  2  0  0  0
  8  9  1  0  0  0
  9 10  2  0  0  0
  9 24  1  0  0  0
 10 19  1  0  0  0
 10 11  1  0  0  0
 11 12  2  0  0  0
 11 18  1  0  0  0
 12 13  1  0  0  0
 12 44  1  0  0  0
 13 14  2  0  0  0
 13 45  1  0  0  0
 14 15  1  0  0  0
 14 17  1  0  0  0
 15 16  1  0  0  0
 15 46  1  0  0  0
 15 47  1  0  0  0
 16 30  1  0  0  0
 16 34  1  0  0  0
 17 18  2  0  0  0
 17 48  1  0  0  0
 18 49  1  0  0  0
 19 23  2  0  0  0
 19 21  1  0  0  0
 20 21  2  0  0  0
 21 22  1  0  0  0
 22 28  1  0  0  0
 22 50  1  0  0  0
 23 24  1  0  0  0
 25 26  1  0  0  0
 25 27  1  0  0  0
 26 51  1  0  0  0
 27 52  1  0  0  0
 28 29  1  0  0  0
 28 53  1  0  0  0
 28 54  1  0  0  0
 29 55  1  0  0  0
 29 56  1  0  0  0
 29 57  1  0  0  0
 30 31  1  0  0  0
 30 58  1  0  0  0
 30 59  1  0  0  0
 31 32  1  0  0  0
 31 60  1  0  0  0
 31 61  1  0  0  0
 32 33  1  0  0  0
 33 34  1  0  0  0
 33 62  1  0  0  0
 33 63  1  0  0  0
 34 64  1  0  0  0
 34 65  1  0  0  0
M  END
> <s_m_entry_id>
4806

> <s_m_entry_name>
dock_pv.125

> <s_m_Source_Path>
/home/csk/Desktop/cluster/DUD-E-result/hs90a

> <s_m_Source_File>
dock_pv.maegz

> <i_m_Source_File_Index>
125

> <chembl_id>
CHEMBL252164

> <chembl_pref_name>
LUMINESPIB

> <i_lp_mmshare_version>
53161

> <r_lp_tautomer_probability>
0.999999999898

> <s_lp_Force_Field>
OPLS_2005

> <r_lp_Energy>
39.827132

> <b_lp_Chiralities_Consistent>
1

> <s_lp_Variant>
CHEMBL3880_lig137-1

> <s_i_glide_gridfile>
glide-grid_1uyg

> <i_i_glide_lignum>
154

> <i_i_glide_rotatable_bonds>
10

> <r_i_docking_score>
-8.63879083574423

> <r_i_glide_ligand_efficiency>
-0.254082083404242

> <r_i_glide_ligand_efficiency_sa>
-0.823127314922005

> <r_i_glide_ligand_efficiency_ln>
-1.90855120549126

> <r_i_glide_gscore>
-8.63879083574423

> <r_i_glide_lipo>
-4.95280726987892

> <r_i_glide_hbond>
-0.19801376460684

> <r_i_glide_metal>
0

> <r_i_glide_rewards>
-1.30818687625341

> <r_i_glide_evdw>
-38.3183822631836

> <r_i_glide_ecoul>
-5.40001010894775

> <r_i_glide_erotb>
0.558334617884757

> <r_i_glide_esite>
-0.012196913388481

> <r_i_glide_emodel>
-37.9416172885941

> <r_i_glide_energy>
-43.7183923721313

> <r_i_glide_einternal>
22.6308422088623

> <i_i_glide_confnum>
31

> <i_i_glide_posenum>
69

> <r_i_glide_eff_state_penalty>
0

> <s_user_duplicate_titles>
CHEMBL3880_lig137,419032

> <i_f3d_flags>
0

> <s_m_subgroup_title>
dock_pv

> <s_m_subgroupid>
dock_pv

> <b_m_subgroup_collapsed>
1

$$$$
CHEMBL3880_lig224
                    3D
 Schrodinger Suite 2021-1.
 46 49  0  0  1  0            999 V2000
    0.0599   10.7802   26.6280 O   0  0  0  0  0  0
   -0.9172   10.5730   25.5616 S   0  0  0  0  0  0
   -2.3449   10.7658   25.8238 O   0  0  0  0  0  0
    2.5176    9.4292   25.7040 C   0  0  0  0  0  0
    1.7918    8.6006   24.8430 C   0  0  0  0  0  0
    2.2945    8.3022   23.5669 C   0  0  0  0  0  0
    3.6609   10.0780   25.2509 C   0  0  0  0  0  0
    4.1137    9.8242   23.9579 C   0  0  0  0  0  0
    3.4753    8.9235   23.1592 C   0  0  0  0  0  0
    4.2224    8.8465   22.0108 N   0  0  0  0  0  0
    5.2864    9.6794   22.0460 C   0  0  0  0  0  0
    5.1438   10.3726   23.2125 N   0  0  0  0  0  0
    6.1276    9.8242   21.1597 O   0  0  0  0  0  0
    5.7652   11.5896   23.5713 C   0  0  0  0  0  0
    4.9384   12.6868   23.8656 C   0  0  0  0  0  0
    5.4624   13.8736   24.3734 C   0  0  0  0  0  0
    6.8341   13.9708   24.6202 C   0  0  0  0  0  0
    7.6608   12.8836   24.3519 C   0  0  0  0  0  0
    7.1467   11.7035   23.8063 C   0  0  0  0  0  0
    8.0154   10.6718   23.5652 O   0  0  0  0  0  0
    4.3884   15.1715   24.7669 Cl  0  0  0  0  0  0
    7.3848   15.1127   25.1394 O   0  0  0  0  0  0
    0.4497    8.0655   25.2901 C   0  0  0  0  0  0
   -0.6760    8.9585   24.9277 N   0  0  1  0  0  0
   -0.5200   11.5814   24.1495 C   0  0  0  0  0  0
    0.7985   11.9482   23.8882 C   0  0  0  0  0  0
    1.1109   12.5326   22.6656 C   0  0  0  0  0  0
    0.1033   12.7681   21.7338 C   0  0  0  0  0  0
   -1.2246   12.4629   22.0199 C   0  0  0  0  0  0
   -1.5380   11.8667   23.2337 C   0  0  0  0  0  0
    2.1690    9.6258   26.7072 H   0  0  0  0  0  0
    1.7597    7.6331   22.9073 H   0  0  0  0  0  0
    4.1596   10.7706   25.9088 H   0  0  0  0  0  0
    4.0247    8.2225   21.2415 H   0  0  0  0  0  0
    3.8717   12.6108   23.7310 H   0  0  0  0  0  0
    8.7147   12.9607   24.5706 H   0  0  0  0  0  0
    8.9288   10.9681   23.5488 H   0  0  0  0  0  0
    6.7228   15.7796   25.3397 H   0  0  0  0  0  0
    0.3960    7.8072   26.3485 H   0  0  0  0  0  0
    0.2864    7.1257   24.7604 H   0  0  0  0  0  0
   -1.5188    8.4934   24.5679 H   0  0  0  0  0  0
    1.5792   11.7302   24.6002 H   0  0  0  0  0  0
    2.1334   12.7705   22.4197 H   0  0  0  0  0  0
    0.3555   13.1693   20.7681 H   0  0  0  0  0  0
   -2.0027   12.6462   21.2910 H   0  0  0  0  0  0
   -2.5619   11.5781   23.4322 H   0  0  0  0  0  0
  1  2  2  0  0  0
  2  3  2  0  0  0
  2 24  1  0  0  0
  2 25  1  0  0  0
  4  5  2  0  0  0
  4  7  1  0  0  0
  4 31  1  0  0  0
  5 23  1  0  0  0
  5  6  1  0  0  0
  6  9  2  0  0  0
  6 32  1  0  0  0
  7  8  2  0  0  0
  7 33  1  0  0  0
  8 12  1  0  0  0
  8  9  1  0  0  0
  9 10  1  0  0  0
 10 11  1  0  0  0
 10 34  1  0  0  0
 11 12  1  0  0  0
 11 13  2  0  0  0
 12 14  1  0  0  0
 14 19  1  0  0  0
 14 15  2  0  0  0
 15 16  1  0  0  0
 15 35  1  0  0  0
 16 21  1  0  0  0
 16 17  2  0  0  0
 17 18  1  0  0  0
 17 22  1  0  0  0
 18 19  2  0  0  0
 18 36  1  0  0  0
 19 20  1  0  0  0
 20 37  1  0  0  0
 22 38  1  0  0  0
 23 24  1  0  0  0
 23 39  1  0  0  0
 23 40  1  0  0  0
 24 41  1  0  0  0
 25 26  2  0  0  0
 25 30  1  0  0  0
 26 27  1  0  0  0
 26 42  1  0  0  0
 27 28  2  0  0  0
 27 43  1  0  0  0
 28 29  1  0  0  0
 28 44  1  0  0  0
 29 30  2  0  0  0
 29 45  1  0  0  0
 30 46  1  0  0  0
M  END
> <s_m_entry_id>
4807

> <s_m_entry_name>
dock_pv.126

> <s_m_Source_Path>
/home/csk/Desktop/cluster/DUD-E-result/hs90a

> <s_m_Source_File>
dock_pv.maegz

> <i_m_Source_File_Index>
126

> <chembl_id>
CHEMBL1801577

> <chembl_pref_name>
None

> <i_lp_mmshare_version>
53161

> <r_lp_tautomer_probability>
1

> <s_lp_Force_Field>
OPLS_2005

> <r_lp_Energy>
53.377658

> <b_lp_Chiralities_Consistent>
1

> <s_lp_Variant>
CHEMBL3880_lig224-1

> <s_i_glide_gridfile>
glide-grid_1uyg

> <i_i_glide_lignum>
258

> <i_i_glide_rotatable_bonds>
7

> <r_i_docking_score>
-8.63431488885685

> <r_i_glide_ligand_efficiency>
-0.287810496295228

> <r_i_glide_ligand_efficiency_sa>
-0.894294128629355

> <r_i_glide_ligand_efficiency_ln>
-1.96181042114408

> <r_i_glide_gscore>
-8.63431488885685

> <r_i_glide_lipo>
-3.85051683386491

> <r_i_glide_hbond>
-0.257786126944104

> <r_i_glide_metal>
0

> <r_i_glide_rewards>
-1.44983408428118

> <r_i_glide_evdw>
-43.3283653259277

> <r_i_glide_ecoul>
-8.29133415222168

> <r_i_glide_erotb>
0.402639605913864

> <r_i_glide_esite>
-0.0686990605508745

> <r_i_glide_emodel>
-69.0945788031402

> <r_i_glide_energy>
-51.6196994781494

> <r_i_glide_einternal>
7.38648319244385

> <i_i_glide_confnum>
18

> <i_i_glide_posenum>
126

> <r_i_glide_eff_state_penalty>
0

> <s_user_duplicate_titles>
CHEMBL3880_lig224

> <i_f3d_flags>
0

> <s_m_subgroup_title>
dock_pv

> <s_m_subgroupid>
dock_pv

> <b_m_subgroup_collapsed>
1

$$$$
CHEMBL3880_lig934
                    3D
 Schrodinger Suite 2021-1.
 55 58  0  0  1  0            999 V2000
    2.2171    9.3846   25.1206 C   0  0  0  0  0  0
    9.4220   15.0924   24.9872 F   0  0  0  0  0  0
    3.6360   13.7244   24.6810 N   0  0  0  0  0  0
    4.4597   15.7812   25.1669 O   0  0  0  0  0  0
    0.6144    9.4454   27.3549 Cl  0  0  0  0  0  0
    3.2170    8.7885   24.3304 C   0  0  0  0  0  0
    8.5559   13.1687   25.2455 F   0  0  0  0  0  0
    0.1931   12.8867   23.7980 N   0  0  0  0  0  0
    3.5867    9.4443   23.1717 O   0  0  0  0  0  0
    4.1481    5.5036   26.4421 Cl  0  0  0  0  0  0
    3.7945    7.5797   24.7401 C   0  0  0  0  0  0
    0.2364   10.5436   24.3734 N   0  0  0  0  0  0
    3.4090    6.9788   25.9343 C   0  0  0  0  0  0
   -1.7406   11.5692   23.6664 N   0  0  0  0  0  0
    2.4328    7.5746   26.7270 C   0  0  0  0  0  0
    5.8998   14.0943   24.7679 N   0  0  0  0  0  0
    1.8315    8.7645   26.3246 C   0  0  0  0  0  0
    6.4417    9.4439   22.6669 N   0  0  0  0  0  0
    2.2517   11.8537   24.5254 C   0  0  0  0  0  0
    6.1696   10.7469   22.5175 N   0  0  0  0  0  0
    3.6895   12.2567   24.7670 C   0  0  0  0  0  0
    2.3516   14.1924   24.1430 C   0  0  0  0  0  0
    1.5119   12.9481   24.1111 C   0  0  0  0  0  0
   -0.3879   11.6720   23.9569 C   0  0  0  0  0  0
    1.5651   10.6396   24.6605 C   0  0  0  0  0  0
    4.6546   14.5889   24.9332 C   0  0  0  0  0  0
    4.0766    8.7162   22.0486 C   0  0  0  0  0  0
    5.5978    8.4336   22.0347 C   0  0  0  0  0  0
    7.6570    9.2363   23.2712 C   0  0  0  0  0  0
    8.1538   10.4970   23.5368 C   0  0  0  0  0  0
    7.1921   11.3750   23.0431 C   0  0  0  0  0  0
    7.1140   14.9179   24.6192 C   0  0  0  0  0  0
    8.3384   14.4627   25.4382 C   0  0  0  0  0  0
    8.1977   14.7440   26.9381 C   0  0  0  0  0  0
    4.5531    7.0986   24.1507 H   0  0  0  0  0  0
   -2.2121   10.6992   23.8634 H   0  0  0  0  0  0
   -2.2730   12.4018   23.4614 H   0  0  0  0  0  0
    2.1365    7.1121   27.6574 H   0  0  0  0  0  0
    5.9901   13.1156   24.5391 H   0  0  0  0  0  0
    4.3694   11.8439   24.0248 H   0  0  0  0  0  0
    4.0410   11.9384   25.7471 H   0  0  0  0  0  0
    1.9133   14.9605   24.7670 H   0  0  0  0  0  0
    2.4610   14.6443   23.1670 H   0  0  0  0  0  0
    3.5169    7.7891   21.9084 H   0  0  0  0  0  0
    3.8402    9.3240   21.1732 H   0  0  0  0  0  0
    5.8237    7.4714   22.4910 H   0  0  0  0  0  0
    5.9174    8.3690   20.9974 H   0  0  0  0  0  0
    8.0551    8.2422   23.4199 H   0  0  0  0  0  0
    9.1011   10.7676   23.9827 H   0  0  0  0  0  0
    7.2636   12.4519   23.0398 H   0  0  0  0  0  0
    6.9182   15.9693   24.8391 H   0  0  0  0  0  0
    7.3823   14.8978   23.5663 H   0  0  0  0  0  0
    9.0100   14.2904   27.5076 H   0  0  0  0  0  0
    7.2613   14.3693   27.3333 H   0  0  0  0  0  0
    8.2224   15.8104   27.1392 H   0  0  0  0  0  0
  1  6  1  0  0  0
  1 17  2  0  0  0
  1 25  1  0  0  0
  2 33  1  0  0  0
  3 21  1  0  0  0
  3 26  1  0  0  0
  3 22  1  0  0  0
  4 26  2  0  0  0
  5 17  1  0  0  0
  6 11  2  0  0  0
  6  9  1  0  0  0
  7 33  1  0  0  0
  8 23  1  0  0  0
  8 24  2  0  0  0
  9 27  1  0  0  0
 10 13  1  0  0  0
 11 13  1  0  0  0
 11 35  1  0  0  0
 12 25  2  0  0  0
 12 24  1  0  0  0
 13 15  2  0  0  0
 14 24  1  0  0  0
 14 36  1  0  0  0
 14 37  1  0  0  0
 15 17  1  0  0  0
 15 38  1  0  0  0
 16 26  1  0  0  0
 16 32  1  0  0  0
 16 39  1  0  0  0
 18 20  1  0  0  0
 18 28  1  0  0  0
 18 29  1  0  0  0
 19 21  1  0  0  0
 19 23  2  0  0  0
 19 25  1  0  0  0
 20 31  2  0  0  0
 21 40  1  0  0  0
 21 41  1  0  0  0
 22 23  1  0  0  0
 22 42  1  0  0  0
 22 43  1  0  0  0
 27 28  1  0  0  0
 27 44  1  0  0  0
 27 45  1  0  0  0
 28 46  1  0  0  0
 28 47  1  0  0  0
 29 30  2  0  0  0
 29 48  1  0  0  0
 30 31  1  0  0  0
 30 49  1  0  0  0
 31 50  1  0  0  0
 32 33  1  0  0  0
 32 51  1  0  0  0
 32 52  1  0  0  0
 33 34  1  0  0  0
 34 53  1  0  0  0
 34 54  1  0  0  0
 34 55  1  0  0  0
M  END
> <s_m_entry_id>
4808

> <s_m_entry_name>
dock_pv.127

> <s_m_Source_Path>
/home/csk/Desktop/cluster/DUD-E-result/hs90a

> <s_m_Source_File>
dock_pv.maegz

> <i_m_Source_File_Index>
127

> <chembl_id>
CHEMBL1738805

> <chembl_pref_name>
None

> <i_lp_mmshare_version>
53161

> <r_lp_tautomer_probability>
0.999999987636

> <s_lp_Force_Field>
OPLS_2005

> <r_lp_Energy>
34.743848

> <b_lp_Chiralities_Consistent>
1

> <s_lp_Variant>
CHEMBL3880_lig934-1

> <s_i_glide_gridfile>
glide-grid_1uyg

> <i_i_glide_lignum>
1040

> <i_i_glide_rotatable_bonds>
9

> <r_i_docking_score>
-8.63377072683127

> <r_i_glide_ligand_efficiency>
-0.253934433142096

> <r_i_glide_ligand_efficiency_sa>
-0.822648985390858

> <r_i_glide_ligand_efficiency_ln>
-1.9074421226231

> <r_i_glide_gscore>
-8.63377072683127

> <r_i_glide_lipo>
-3.73072008383143

> <r_i_glide_hbond>
0

> <r_i_glide_metal>
0

> <r_i_glide_rewards>
-2.26248000996393

> <r_i_glide_evdw>
-49.7218055725098

> <r_i_glide_ecoul>
-4.67424345016479

> <r_i_glide_erotb>
0.546656163114295

> <r_i_glide_esite>
0

> <r_i_glide_emodel>
-76.2468835345273

> <r_i_glide_energy>
-54.3960490226746

> <r_i_glide_einternal>
11.4316158294678

> <i_i_glide_confnum>
30

> <i_i_glide_posenum>
53

> <r_i_glide_eff_state_penalty>
0

> <s_user_duplicate_titles>
CHEMBL3880_lig934

> <i_f3d_flags>
0

> <s_m_subgroup_title>
dock_pv

> <s_m_subgroupid>
dock_pv

> <b_m_subgroup_collapsed>
1

$$$$
CHEMBL3880_lig946
                    3D
 Schrodinger Suite 2021-1.
 64 68  0  0  1  0            999 V2000
    5.1648    7.2553   22.6340 C   0  0  0  0  0  0
    5.5085    8.7611   22.5409 C   0  0  0  0  0  0
    5.5928    9.2928   21.0883 C   0  0  0  0  0  0
    0.6909   10.6809   24.8488 C   0  0  0  0  0  0
    2.0721   10.8642   24.7775 C   0  0  0  0  0  0
    2.6346   11.9382   24.0796 C   0  0  0  0  0  0
    1.8020   12.8956   23.5086 C   0  0  0  0  0  0
    0.4259   12.7628   23.6141 C   0  0  0  0  0  0
   -0.1464   11.6581   24.2679 C   0  0  0  0  0  0
   -1.6435   11.5684   24.3686 C   0  0  0  0  0  0
   -2.1973   11.0834   25.3527 O   0  0  0  0  0  0
   -2.3390   12.0697   23.3546 N   0  0  0  0  0  0
    4.0344   12.0163   23.9383 N   0  0  0  0  0  0
    4.8570   10.9487   23.6381 C   0  0  0  0  0  0
    6.1789   11.3707   23.6641 C   0  0  0  0  0  0
    7.2876   10.4340   23.4842 C   0  0  0  0  0  0
    6.8725    8.9668   23.2645 C   0  0  0  0  0  0
    4.3903    9.5330   23.2906 C   0  0  0  0  0  0
    8.4633   10.7691   23.4920 O   0  0  0  0  0  0
    6.1788   12.7477   23.9670 C   0  0  0  0  0  0
    4.8475   13.1162   24.1380 C   0  0  0  0  0  0
    4.3939   14.5195   24.5162 C   0  0  0  0  0  0
    5.4120   15.2411   25.2895 N   0  0  2  0  0  0
    6.7908   15.1177   24.7950 C   0  0  0  0  0  0
    7.3008   13.7246   24.2974 C   0  0  0  0  0  0
    5.2750   15.0223   26.7205 C   0  0  0  0  0  0
    0.1503    9.5245   25.4530 N   0  0  0  0  0  0
    0.9232    8.4876   26.1369 C   0  0  1  0  0  0
    1.3767    8.9136   27.5194 C   0  0  0  0  0  0
    0.1620    8.6229   28.4021 C   0  0  0  0  0  0
   -0.5085    7.5398   27.7538 O   0  0  0  0  0  0
    0.0694    7.2616   26.4770 C   0  0  0  0  0  0
    6.0090    6.6226   22.3669 H   0  0  0  0  0  0
    4.8845    6.9568   23.6451 H   0  0  0  0  0  0
    4.3334    6.9949   21.9776 H   0  0  0  0  0  0
    6.3898    8.7993   20.5387 H   0  0  0  0  0  0
    4.6642    9.1080   20.5469 H   0  0  0  0  0  0
    5.7870   10.3663   21.0486 H   0  0  0  0  0  0
    2.7193   10.1561   25.2663 H   0  0  0  0  0  0
    2.2066   13.7440   22.9803 H   0  0  0  0  0  0
   -0.1921   13.5378   23.1832 H   0  0  0  0  0  0
   -3.3501   12.1009   23.4904 H   0  0  0  0  0  0
   -1.9170   12.3605   22.4886 H   0  0  0  0  0  0
    6.8207    8.5279   24.2613 H   0  0  0  0  0  0
    7.6822    8.4512   22.7465 H   0  0  0  0  0  0
    4.2116    9.0286   24.2403 H   0  0  0  0  0  0
    3.4537    9.5148   22.7292 H   0  0  0  0  0  0
    4.3240   15.0458   23.5713 H   0  0  0  0  0  0
    3.4038   14.5714   24.9712 H   0  0  0  0  0  0
    6.8305   15.8103   23.9670 H   0  0  0  0  0  0
    7.5061   15.5816   25.4756 H   0  0  0  0  0  0
    7.8536   13.2711   25.1206 H   0  0  0  0  0  0
    8.0465   13.8443   23.5119 H   0  0  0  0  0  0
    6.0781   15.5022   27.2815 H   0  0  0  0  0  0
    4.3328   15.4441   27.0740 H   0  0  0  0  0  0
    5.2579   13.9690   26.9538 H   0  0  0  0  0  0
   -0.8589    9.4803   25.5280 H   0  0  0  0  0  0
    1.7735    8.1651   25.5337 H   0  0  0  0  0  0
    1.6653    9.9627   27.5659 H   0  0  0  0  0  0
    2.2381    8.3245   27.8387 H   0  0  0  0  0  0
   -0.4957    9.4938   28.4174 H   0  0  0  0  0  0
    0.4696    8.3618   29.4154 H   0  0  0  0  0  0
    0.7035    6.3773   26.5481 H   0  0  0  0  0  0
   -0.7068    7.0727   25.7338 H   0  0  0  0  0  0
  1  2  1  0  0  0
  1 33  1  0  0  0
  1 34  1  0  0  0
  1 35  1  0  0  0
  2  3  1  0  0  0
  2 17  1  0  0  0
  2 18  1  0  0  0
  3 36  1  0  0  0
  3 37  1  0  0  0
  3 38  1  0  0  0
  4  5  2  0  0  0
  4  9  1  0  0  0
  4 27  1  0  0  0
  5  6  1  0  0  0
  5 39  1  0  0  0
  6  7  2  0  0  0
  6 13  1  0  0  0
  7  8  1  0  0  0
  7 40  1  0  0  0
  8  9  2  0  0  0
  8 41  1  0  0  0
  9 10  1  0  0  0
 10 11  2  0  0  0
 10 12  1  0  0  0
 12 42  1  0  0  0
 12 43  1  0  0  0
 13 21  1  0  0  0
 13 14  1  0  0  0
 14 15  2  0  0  0
 14 18  1  0  0  0
 15 20  1  0  0  0
 15 16  1  0  0  0
 16 17  1  0  0  0
 16 19  2  0  0  0
 17 44  1  0  0  0
 17 45  1  0  0  0
 18 46  1  0  0  0
 18 47  1  0  0  0
 20 21  2  0  0  0
 20 25  1  0  0  0
 21 22  1  0  0  0
 22 23  1  0  0  0
 22 48  1  0  0  0
 22 49  1  0  0  0
 23 24  1  0  0  0
 23 26  1  0  0  0
 24 25  1  0  0  0
 24 50  1  0  0  0
 24 51  1  0  0  0
 25 52  1  0  0  0
 25 53  1  0  0  0
 26 54  1  0  0  0
 26 55  1  0  0  0
 26 56  1  0  0  0
 27 28  1  0  0  0
 27 57  1  0  0  0
 28 29  1  0  0  0
 28 32  1  0  0  0
 28 58  1  0  0  0
 29 30  1  0  0  0
 29 59  1  0  0  0
 29 60  1  0  0  0
 30 31  1  0  0  0
 30 61  1  0  0  0
 30 62  1  0  0  0
 31 32  1  0  0  0
 32 63  1  0  0  0
 32 64  1  0  0  0
M  END
> <s_m_entry_id>
4809

> <s_m_entry_name>
dock_pv.128

> <s_m_Source_Path>
/home/csk/Desktop/cluster/DUD-E-result/hs90a

> <s_m_Source_File>
dock_pv.maegz

> <i_m_Source_File_Index>
128

> <chembl_id>
CHEMBL3235334

> <chembl_pref_name>
None

> <i_lp_mmshare_version>
53161

> <r_lp_tautomer_probability>
0.99995

> <s_lp_Force_Field>
OPLS_2005

> <r_lp_Energy>
56.633755

> <b_lp_Chiralities_Consistent>
1

> <s_lp_Variant>
CHEMBL3880_lig946-1

> <s_i_glide_gridfile>
glide-grid_1uyg

> <i_i_glide_lignum>
1055

> <i_i_glide_rotatable_bonds>
4

> <r_i_docking_score>
-8.62500839601188

> <r_i_glide_ligand_efficiency>
-0.269531512375371

> <r_i_glide_ligand_efficiency_sa>
-0.855709211577934

> <r_i_glide_ligand_efficiency_ln>
-1.93137448871631

> <r_i_glide_gscore>
-8.62500839601188

> <r_i_glide_lipo>
-4.49064865157762

> <r_i_glide_hbond>
-0.16

> <r_i_glide_metal>
0

> <r_i_glide_rewards>
-1.5486021592245

> <r_i_glide_evdw>
-47.7222213745117

> <r_i_glide_ecoul>
-2.03451681137085

> <r_i_glide_erotb>
0.313797383394572

> <r_i_glide_esite>
-0.048266378173124

> <r_i_glide_emodel>
-63.011836644402

> <r_i_glide_energy>
-49.7567381858826

> <r_i_glide_einternal>
1.79044210910797

> <i_i_glide_confnum>
7

> <i_i_glide_posenum>
199

> <r_i_glide_eff_state_penalty>
0

> <s_user_duplicate_titles>
CHEMBL3880_lig946

> <i_f3d_flags>
0

> <s_m_subgroup_title>
dock_pv

> <s_m_subgroupid>
dock_pv

> <b_m_subgroup_collapsed>
1

$$$$
CHEMBL3880_lig985
                    3D
 Schrodinger Suite 2021-1.
 51 54  0  0  1  0            999 V2000
    1.2598    6.5578   26.8309 C   0  0  0  0  0  0
    1.7568    7.6497   27.8135 C   0  0  0  0  0  0
    2.6870    7.0774   28.9046 C   0  0  0  0  0  0
    5.1769    9.2897   23.5553 C   0  0  0  0  0  0
    3.8952    9.2261   24.0938 C   0  0  0  0  0  0
    5.0234   11.6987   23.5670 C   0  0  0  0  0  0
    5.7560   10.5384   23.2903 C   0  0  0  0  0  0
    3.1838   10.3888   24.4135 C   0  0  0  0  0  0
    3.7368   11.6616   24.1324 C   0  0  0  0  0  0
    3.0057   12.8424   24.3916 N   0  0  0  0  0  0
    1.7292   13.0656   23.6974 C   0  0  0  0  0  0
    0.8325   11.8420   23.4204 C   0  0  0  0  0  0
    0.7526   10.8973   24.6060 C   0  0  0  0  0  0
    1.9087   10.2634   25.0263 N   0  0  0  0  0  0
   -0.3150   10.5216   25.4243 C   0  0  0  0  0  0
    0.2454    9.7324   26.4495 C   0  0  0  0  0  0
    1.5961    9.5688   26.1779 C   0  0  0  0  0  0
    2.5501    8.7431   27.0381 C   0  0  0  0  0  0
    0.5459    8.3043   28.5386 C   0  0  0  0  0  0
   -0.3717    9.1695   27.6565 C   0  0  0  0  0  0
    7.1438   10.6664   22.7291 C   0  0  0  0  0  0
    7.3988   10.3689   21.5669 O   0  0  0  0  0  0
    8.0592   11.1688   23.5560 N   0  0  0  0  0  0
   -1.5391    9.3715   27.9666 O   0  0  0  0  0  0
   -1.7460   11.0073   25.2974 C   0  0  0  0  0  0
    6.0075    7.7997   23.2551 Cl  0  0  0  0  0  0
    3.7354   14.1017   24.5352 C   0  0  0  0  0  0
    0.6059    6.9512   26.0515 H   0  0  0  0  0  0
    2.0984    6.0683   26.3314 H   0  0  0  0  0  0
    0.7003    5.7824   27.3576 H   0  0  0  0  0  0
    3.0321    7.8497   29.5972 H   0  0  0  0  0  0
    2.1811    6.3115   29.4958 H   0  0  0  0  0  0
    3.5727    6.6133   28.4673 H   0  0  0  0  0  0
    3.4584    8.2534   24.2752 H   0  0  0  0  0  0
    5.4695   12.6543   23.3304 H   0  0  0  0  0  0
    1.8942   13.6097   22.7675 H   0  0  0  0  0  0
    1.1451   13.7501   24.3154 H   0  0  0  0  0  0
    1.2222   11.3256   22.5413 H   0  0  0  0  0  0
   -0.1492   12.1829   23.0898 H   0  0  0  0  0  0
    2.9688    9.4454   27.7603 H   0  0  0  0  0  0
    3.3797    8.3005   26.4928 H   0  0  0  0  0  0
    0.9173    8.9884   29.3017 H   0  0  0  0  0  0
   -0.0657    7.5677   29.0613 H   0  0  0  0  0  0
    8.9917   11.3603   23.2111 H   0  0  0  0  0  0
    7.8188   11.3749   24.5122 H   0  0  0  0  0  0
   -2.2233   11.1690   26.2630 H   0  0  0  0  0  0
   -1.8156   11.9637   24.7795 H   0  0  0  0  0  0
   -2.3654   10.2935   24.7544 H   0  0  0  0  0  0
    4.6202   13.9689   25.1586 H   0  0  0  0  0  0
    4.0537   14.4906   23.5680 H   0  0  0  0  0  0
    3.1134   14.8553   25.0183 H   0  0  0  0  0  0
  1  2  1  0  0  0
  1 28  1  0  0  0
  1 29  1  0  0  0
  1 30  1  0  0  0
  2  3  1  0  0  0
  2 18  1  0  0  0
  2 19  1  0  0  0
  3 31  1  0  0  0
  3 32  1  0  0  0
  3 33  1  0  0  0
  4  5  2  0  0  0
  4  7  1  0  0  0
  4 26  1  0  0  0
  5  8  1  0  0  0
  5 34  1  0  0  0
  6  9  1  0  0  0
  6  7  2  0  0  0
  6 35  1  0  0  0
  7 21  1  0  0  0
  8  9  2  0  0  0
  8 14  1  0  0  0
  9 10  1  0  0  0
 10 11  1  0  0  0
 10 27  1  0  0  0
 11 12  1  0  0  0
 11 36  1  0  0  0
 11 37  1  0  0  0
 12 13  1  0  0  0
 12 38  1  0  0  0
 12 39  1  0  0  0
 13 14  1  0  0  0
 13 15  2  0  0  0
 14 17  1  0  0  0
 15 16  1  0  0  0
 15 25  1  0  0  0
 16 17  2  0  0  0
 16 20  1  0  0  0
 17 18  1  0  0  0
 18 40  1  0  0  0
 18 41  1  0  0  0
 19 20  1  0  0  0
 19 42  1  0  0  0
 19 43  1  0  0  0
 20 24  2  0  0  0
 21 22  2  0  0  0
 21 23  1  0  0  0
 23 44  1  0  0  0
 23 45  1  0  0  0
 25 46  1  0  0  0
 25 47  1  0  0  0
 25 48  1  0  0  0
 27 49  1  0  0  0
 27 50  1  0  0  0
 27 51  1  0  0  0
M  END
> <s_m_entry_id>
4810

> <s_m_entry_name>
dock_pv.129

> <s_m_Source_Path>
/home/csk/Desktop/cluster/DUD-E-result/hs90a

> <s_m_Source_File>
dock_pv.maegz

> <i_m_Source_File_Index>
129

> <chembl_id>
CHEMBL3401148

> <chembl_pref_name>
None

> <i_lp_mmshare_version>
53161

> <r_lp_tautomer_probability>
0.99995

> <s_lp_Force_Field>
OPLS_2005

> <r_lp_Energy>
32.863164

> <b_lp_Chiralities_Consistent>
1

> <s_lp_Variant>
CHEMBL3880_lig985-1

> <s_i_glide_gridfile>
glide-grid_1uyg

> <i_i_glide_lignum>
1094

> <i_i_glide_rotatable_bonds>
1

> <r_i_docking_score>
-8.6127426747931

> <r_i_glide_ligand_efficiency>
-0.318990469436782

> <r_i_glide_ligand_efficiency_sa>
-0.956971407259004

> <r_i_glide_ligand_efficiency_ln>
-2.00490450253155

> <r_i_glide_gscore>
-8.6127426747931

> <r_i_glide_lipo>
-3.42760902920849

> <r_i_glide_hbond>
-0.284582580538544

> <r_i_glide_metal>
0

> <r_i_glide_rewards>
-2.32169596775221

> <r_i_glide_evdw>
-42.4664611816406

> <r_i_glide_ecoul>
-3.03688025474548

> <r_i_glide_erotb>
0

> <r_i_glide_esite>
0

> <r_i_glide_emodel>
-66.1389295829707

> <r_i_glide_energy>
-45.5033414363861

> <r_i_glide_einternal>
0.343743026256561

> <i_i_glide_confnum>
1

> <i_i_glide_posenum>
187

> <r_i_glide_eff_state_penalty>
0

> <s_user_duplicate_titles>
CHEMBL3880_lig985

> <i_f3d_flags>
0

> <s_m_subgroup_title>
dock_pv

> <s_m_subgroupid>
dock_pv

> <b_m_subgroup_collapsed>
1

$$$$
CHEMBL3880_lig254
                    3D
 Schrodinger Suite 2021-1.
 36 39  0  0  1  0            999 V2000
    6.6647   14.0420   24.5580 C   0  0  0  0  0  0
    7.5662   12.9552   24.7415 O   0  0  0  0  0  0
    7.4899   11.9636   23.7219 C   0  0  0  0  0  0
    6.0729   11.4199   23.5671 C   0  0  0  0  0  0
    5.8184   10.1277   23.1031 C   0  0  0  0  0  0
    4.5199    9.6623   22.9241 C   0  0  0  0  0  0
    3.4264   10.4816   23.1908 C   0  0  0  0  0  0
    5.2241   13.5713   24.3669 C   0  0  0  0  0  0
    4.9544   12.2606   23.8687 C   0  0  0  0  0  0
    3.6143   11.8074   23.6641 C   0  0  0  0  0  0
    2.5348   12.7101   23.9152 C   0  0  0  0  0  0
    2.8313   13.9954   24.3671 C   0  0  0  0  0  0
    4.1363   14.4074   24.6144 C   0  0  0  0  0  0
    1.1125   12.3290   23.7155 C   0  0  0  0  0  0
    0.4101   11.5745   24.6624 C   0  0  0  0  0  0
   -0.9262   11.2807   24.3682 C   0  0  0  0  0  0
   -1.5259   11.6821   23.2193 N   0  0  0  0  0  0
   -0.7597   12.3998   22.3657 C   0  0  0  0  0  0
    0.5344   12.7612   22.5608 N   0  0  0  0  0  0
   -1.8023   10.4858   25.3104 C   0  0  0  0  0  0
   -1.3513   12.7690   21.1688 N   0  0  0  0  0  0
    6.9787   14.6188   23.6884 H   0  0  0  0  0  0
    6.7410   14.7066   25.4197 H   0  0  0  0  0  0
    7.8099   12.3893   22.7691 H   0  0  0  0  0  0
    8.1890   11.1636   23.9663 H   0  0  0  0  0  0
    6.6438    9.4724   22.8690 H   0  0  0  0  0  0
    4.3587    8.6577   22.5595 H   0  0  0  0  0  0
    2.4272   10.1040   23.0253 H   0  0  0  0  0  0
    2.0275   14.6931   24.5456 H   0  0  0  0  0  0
    4.3070   15.4122   24.9704 H   0  0  0  0  0  0
    0.8797   11.2423   25.5771 H   0  0  0  0  0  0
   -1.2339   10.0750   26.1450 H   0  0  0  0  0  0
   -2.2625    9.6612   24.7670 H   0  0  0  0  0  0
   -2.6013   11.1155   25.7062 H   0  0  0  0  0  0
   -2.2847   12.4296   20.9651 H   0  0  0  0  0  0
   -0.8350   13.3294   20.5104 H   0  0  0  0  0  0
  1  8  1  0  0  0
  1  2  1  0  0  0
  1 22  1  0  0  0
  1 23  1  0  0  0
  2  3  1  0  0  0
  3  4  1  0  0  0
  3 24  1  0  0  0
  3 25  1  0  0  0
  4  5  1  0  0  0
  4  9  2  0  0  0
  5  6  2  0  0  0
  5 26  1  0  0  0
  6  7  1  0  0  0
  6 27  1  0  0  0
  7 10  2  0  0  0
  7 28  1  0  0  0
  8 13  2  0  0  0
  8  9  1  0  0  0
  9 10  1  0  0  0
 10 11  1  0  0  0
 11 12  2  0  0  0
 11 14  1  0  0  0
 12 13  1  0  0  0
 12 29  1  0  0  0
 13 30  1  0  0  0
 14 15  2  0  0  0
 14 19  1  0  0  0
 15 16  1  0  0  0
 15 31  1  0  0  0
 16 17  2  0  0  0
 16 20  1  0  0  0
 17 18  1  0  0  0
 18 19  2  0  0  0
 18 21  1  0  0  0
 20 32  1  0  0  0
 20 33  1  0  0  0
 20 34  1  0  0  0
 21 35  1  0  0  0
 21 36  1  0  0  0
M  END
> <s_m_entry_id>
4811

> <s_m_entry_name>
dock_pv.130

> <s_m_Source_Path>
/home/csk/Desktop/cluster/DUD-E-result/hs90a

> <s_m_Source_File>
dock_pv.maegz

> <i_m_Source_File_Index>
130

> <chembl_id>
CHEMBL1834093

> <chembl_pref_name>
None

> <i_lp_mmshare_version>
53161

> <r_lp_tautomer_probability>
0.999999987636

> <s_lp_Force_Field>
OPLS_2005

> <r_lp_Energy>
33.866798

> <b_lp_Chiralities_Consistent>
1

> <s_lp_Variant>
CHEMBL3880_lig254-1

> <s_i_glide_gridfile>
glide-grid_1uyg

> <i_i_glide_lignum>
288

> <i_i_glide_rotatable_bonds>
1

> <r_i_docking_score>
-8.60802723944265

> <r_i_glide_ligand_efficiency>
-0.409906059021079

> <r_i_glide_ligand_efficiency_sa>
-1.13089973513068

> <r_i_glide_ligand_efficiency_ln>
-2.12831734079535

> <r_i_glide_gscore>
-8.60802723944265

> <r_i_glide_lipo>
-3.79412341774384

> <r_i_glide_hbond>
-0.109392772439644

> <r_i_glide_metal>
0

> <r_i_glide_rewards>
-2.57490691942249

> <r_i_glide_evdw>
-37.8506546020508

> <r_i_glide_ecoul>
-3.14140248298645

> <r_i_glide_erotb>
0.23413897271383

> <r_i_glide_esite>
0

> <r_i_glide_emodel>
-61.368663698246

> <r_i_glide_energy>
-40.9920570850372

> <r_i_glide_einternal>
0.69910341501236

> <i_i_glide_confnum>
1

> <i_i_glide_posenum>
372

> <r_i_glide_eff_state_penalty>
0

> <s_user_duplicate_titles>
CHEMBL3880_lig254

> <i_f3d_flags>
0

> <s_m_subgroup_title>
dock_pv

> <s_m_subgroupid>
dock_pv

> <b_m_subgroup_collapsed>
1

$$$$
CHEMBL3880_lig610
                    3D
 Schrodinger Suite 2021-1.
 54 57  0  0  1  0            999 V2000
    8.6462   14.7382   25.8952 C   0  0  0  0  0  0
    8.1431   14.7442   24.5643 O   0  0  0  0  0  0
    7.0496   13.9332   24.3722 C   0  0  0  0  0  0
    7.2610   12.6982   23.7668 C   0  0  0  0  0  0
    6.1887   11.8316   23.5630 C   0  0  0  0  0  0
    6.0849   10.5216   23.0074 C   0  0  0  0  0  0
    4.7697   10.1460   23.1394 C   0  0  0  0  0  0
    4.0369   11.1528   23.7346 N   0  0  0  0  0  0
    2.6814   11.0299   24.1012 C   0  0  0  0  0  0
    1.7706   12.0663   23.8879 C   0  0  0  0  0  0
    0.4665   11.9507   24.3673 C   0  0  0  0  0  0
    0.0736   10.8179   25.0911 C   0  0  0  0  0  0
   -1.2767   10.7918   25.6401 C   0  0  0  0  0  0
   -2.3390   10.7690   26.0874 N   0  0  0  0  0  0
    0.9824    9.7620   25.3109 C   0  0  0  0  0  0
    0.5960    8.6261   26.0580 N   0  0  0  0  0  0
    1.4363    7.4493   26.2873 C   0  0  2  0  0  0
    0.5317    6.2957   26.7864 C   0  0  0  0  0  0
   -0.0483    6.5349   28.2019 C   0  0  0  0  0  0
    1.0567    6.8509   29.2341 C   0  0  2  0  0  0
    0.5263    7.1161   30.5157 O   0  0  0  0  0  0
    1.9712    7.9984   28.7637 C   0  0  0  0  0  0
    2.5334    7.7392   27.3487 C   0  0  0  0  0  0
    2.2747    9.8794   24.7839 C   0  0  0  0  0  0
    4.8814   12.2380   23.9669 C   0  0  0  0  0  0
    4.6554   13.4978   24.5523 C   0  0  0  0  0  0
    5.7661   14.3385   24.7671 C   0  0  0  0  0  0
    5.6766   15.5678   25.3914 O   0  0  0  0  0  0
    4.4330   15.9842   25.9334 C   0  0  0  0  0  0
    9.5253   15.3793   25.9505 H   0  0  0  0  0  0
    7.9182   15.1185   26.6132 H   0  0  0  0  0  0
    8.9432   13.7353   26.2050 H   0  0  0  0  0  0
    8.2544   12.3946   23.4861 H   0  0  0  0  0  0
    6.8752    9.9110   22.5952 H   0  0  0  0  0  0
    4.2850    9.2163   22.8726 H   0  0  0  0  0  0
    2.0678   12.9593   23.3588 H   0  0  0  0  0  0
   -0.2232   12.7656   24.1941 H   0  0  0  0  0  0
   -0.3925    8.5106   26.2309 H   0  0  0  0  0  0
    1.8709    7.1432   25.3340 H   0  0  0  0  0  0
    1.1079    5.3694   26.7857 H   0  0  0  0  0  0
   -0.2840    6.1272   26.0811 H   0  0  0  0  0  0
   -0.7621    7.3583   28.1702 H   0  0  0  0  0  0
   -0.6143    5.6559   28.5134 H   0  0  0  0  0  0
    1.6617    5.9506   29.3590 H   0  0  0  0  0  0
    0.0915    7.9773   30.5043 H   0  0  0  0  0  0
    1.4093    8.9344   28.7612 H   0  0  0  0  0  0
    2.7930    8.1375   29.4696 H   0  0  0  0  0  0
    3.1443    8.5912   27.0591 H   0  0  0  0  0  0
    3.2221    6.8944   27.3855 H   0  0  0  0  0  0
    2.9932    9.0921   24.9370 H   0  0  0  0  0  0
    3.6676   13.7735   24.8826 H   0  0  0  0  0  0
    4.5101   17.0019   26.3130 H   0  0  0  0  0  0
    3.6610   15.9689   25.1689 H   0  0  0  0  0  0
    4.1263   15.3408   26.7600 H   0  0  0  0  0  0
  1  2  1  0  0  0
  1 30  1  0  0  0
  1 31  1  0  0  0
  1 32  1  0  0  0
  2  3  1  0  0  0
  3  4  2  0  0  0
  3 27  1  0  0  0
  4  5  1  0  0  0
  4 33  1  0  0  0
  5  6  1  0  0  0
  5 25  2  0  0  0
  6  7  2  0  0  0
  6 34  1  0  0  0
  7  8  1  0  0  0
  7 35  1  0  0  0
  8  9  1  0  0  0
  8 25  1  0  0  0
  9 10  2  0  0  0
  9 24  1  0  0  0
 10 11  1  0  0  0
 10 36  1  0  0  0
 11 12  2  0  0  0
 11 37  1  0  0  0
 12 13  1  0  0  0
 12 15  1  0  0  0
 13 14  3  0  0  0
 15 16  1  0  0  0
 15 24  2  0  0  0
 16 17  1  0  0  0
 16 38  1  0  0  0
 17 18  1  0  0  0
 17 23  1  0  0  0
 17 39  1  0  0  0
 18 19  1  0  0  0
 18 40  1  0  0  0
 18 41  1  0  0  0
 19 20  1  0  0  0
 19 42  1  0  0  0
 19 43  1  0  0  0
 20 21  1  0  0  0
 20 22  1  0  0  0
 20 44  1  0  0  0
 21 45  1  0  0  0
 22 23  1  0  0  0
 22 46  1  0  0  0
 22 47  1  0  0  0
 23 48  1  0  0  0
 23 49  1  0  0  0
 24 50  1  0  0  0
 25 26  1  0  0  0
 26 27  2  0  0  0
 26 51  1  0  0  0
 27 28  1  0  0  0
 28 29  1  0  0  0
 29 52  1  0  0  0
 29 53  1  0  0  0
 29 54  1  0  0  0
M  END
> <s_m_entry_id>
4812

> <s_m_entry_name>
dock_pv.131

> <s_m_Source_Path>
/home/csk/Desktop/cluster/DUD-E-result/hs90a

> <s_m_Source_File>
dock_pv.maegz

> <i_m_Source_File_Index>
131

> <chembl_id>
CHEMBL3661197

> <chembl_pref_name>
None

> <i_lp_mmshare_version>
53161

> <r_lp_tautomer_probability>
1

> <s_lp_Force_Field>
OPLS_2005

> <r_lp_Energy>
31.846217

> <b_lp_Chiralities_Consistent>
1

> <s_lp_Variant>
CHEMBL3880_lig610-1

> <s_i_glide_gridfile>
glide-grid_1uyg

> <i_i_glide_lignum>
665

> <i_i_glide_rotatable_bonds>
6

> <r_i_docking_score>
-8.58498076282901

> <r_i_glide_ligand_efficiency>
-0.296033819407897

> <r_i_glide_ligand_efficiency_sa>
-0.909509683318064

> <r_i_glide_ligand_efficiency_ln>
-1.96574289835905

> <r_i_glide_gscore>
-8.58498076282901

> <r_i_glide_lipo>
-4.53691098330896

> <r_i_glide_hbond>
-0.174963289646633

> <r_i_glide_metal>
0

> <r_i_glide_rewards>
-1.46202268473532

> <r_i_glide_evdw>
-46.906063079834

> <r_i_glide_ecoul>
-2.98545432090759

> <r_i_glide_erotb>
0.382037496989744

> <r_i_glide_esite>
0

> <r_i_glide_emodel>
-67.0072919668928

> <r_i_glide_energy>
-49.8915174007416

> <r_i_glide_einternal>
10.9247016906738

> <i_i_glide_confnum>
20

> <i_i_glide_posenum>
400

> <r_i_glide_eff_state_penalty>
0

> <s_user_duplicate_titles>
CHEMBL3880_lig610

> <i_f3d_flags>
0

> <s_m_subgroup_title>
dock_pv

> <s_m_subgroupid>
dock_pv

> <b_m_subgroup_collapsed>
1

$$$$
CHEMBL3880_lig947
                    3D
 Schrodinger Suite 2021-1.
 66 70  0  0  1  0            999 V2000
    5.1338    7.2593   22.6384 C   0  0  0  0  0  0
    5.4604    8.7672   22.5159 C   0  0  0  0  0  0
    5.4211    9.3011   21.0622 C   0  0  0  0  0  0
    0.7276   10.6932   24.9354 C   0  0  0  0  0  0
    2.1053   10.8853   24.8394 C   0  0  0  0  0  0
    2.6498   11.9448   24.1096 C   0  0  0  0  0  0
    1.8019   12.8811   23.5250 C   0  0  0  0  0  0
    0.4269   12.7373   23.6490 C   0  0  0  0  0  0
   -0.1285   11.6457   24.3391 C   0  0  0  0  0  0
   -1.6250   11.5361   24.4491 C   0  0  0  0  0  0
   -2.1654   11.0634   25.4459 O   0  0  0  0  0  0
   -2.3389   11.9961   23.4269 N   0  0  0  0  0  0
    4.0471   12.0233   23.9513 N   0  0  0  0  0  0
    4.8668   10.9539   23.6491 C   0  0  0  0  0  0
    6.1877   11.3762   23.6297 C   0  0  0  0  0  0
    7.2895   10.4412   23.3926 C   0  0  0  0  0  0
    6.8730    8.9792   23.1376 C   0  0  0  0  0  0
    4.3960    9.5333   23.3428 C   0  0  0  0  0  0
    8.4674   10.7707   23.3883 O   0  0  0  0  0  0
    6.1925   12.7470   23.9672 C   0  0  0  0  0  0
    4.8625   13.1228   24.1368 C   0  0  0  0  0  0
    4.4124   14.5293   24.5067 C   0  0  0  0  0  0
    5.4309   15.2449   25.2825 N   0  0  2  0  0  0
    6.8117   15.1149   24.7951 C   0  0  0  0  0  0
    7.3166   13.7196   24.2985 C   0  0  0  0  0  0
    5.2755   15.0229   26.7097 C   0  0  0  0  0  0
    0.2208    9.5604   25.6092 N   0  0  0  0  0  0
    0.9896    8.3401   25.8624 C   0  0  0  0  0  0
    0.1143    7.2735   26.5467 C   0  0  0  0  0  0
   -0.3358    6.3333   25.4266 C   0  0  0  0  0  0
    0.8809    6.2532   24.5140 C   0  0  0  0  0  0
    1.4856    7.6612   24.5586 C   0  0  0  0  0  0
    5.9808    6.6311   22.3671 H   0  0  0  0  0  0
    4.8798    6.9717   23.6592 H   0  0  0  0  0  0
    4.2905    6.9796   22.0054 H   0  0  0  0  0  0
    6.1090    8.7692   20.4133 H   0  0  0  0  0  0
    4.4273    9.1860   20.6287 H   0  0  0  0  0  0
    5.6825   10.3558   21.0077 H   0  0  0  0  0  0
    2.7646   10.1953   25.3400 H   0  0  0  0  0  0
    2.1941   13.7187   22.9703 H   0  0  0  0  0  0
   -0.2024   13.4941   23.2017 H   0  0  0  0  0  0
   -3.3513   12.0048   23.5639 H   0  0  0  0  0  0
   -1.9265   12.2779   22.5531 H   0  0  0  0  0  0
    6.8986    8.5040   24.1182 H   0  0  0  0  0  0
    7.6492    8.4945   22.5443 H   0  0  0  0  0  0
    4.3044    9.0471   24.3132 H   0  0  0  0  0  0
    3.4184    9.4941   22.8590 H   0  0  0  0  0  0
    4.3491   15.0648   23.5670 H   0  0  0  0  0  0
    3.4202   14.5851   24.9573 H   0  0  0  0  0  0
    6.8590   15.8076   23.9670 H   0  0  0  0  0  0
    7.5254   15.5745   25.4807 H   0  0  0  0  0  0
    7.8646   13.2647   25.1241 H   0  0  0  0  0  0
    8.0617   13.8343   23.5122 H   0  0  0  0  0  0
    6.0613   15.5135   27.2858 H   0  0  0  0  0  0
    4.3196   15.4399   27.0281 H   0  0  0  0  0  0
    5.2595   13.9691   26.9441 H   0  0  0  0  0  0
   -0.7869    9.4955   25.6821 H   0  0  0  0  0  0
    1.8358    8.5572   26.5166 H   0  0  0  0  0  0
   -0.7362    7.6930   27.0863 H   0  0  0  0  0  0
    0.7072    6.7262   27.2810 H   0  0  0  0  0  0
   -1.1663    6.7718   24.8760 H   0  0  0  0  0  0
   -0.6555    5.3571   25.7930 H   0  0  0  0  0  0
    0.6191    5.9490   23.4994 H   0  0  0  0  0  0
    1.5922    5.5224   24.9012 H   0  0  0  0  0  0
    2.5720    7.5990   24.5391 H   0  0  0  0  0  0
    1.1854    8.2150   23.6672 H   0  0  0  0  0  0
  1  2  1  0  0  0
  1 33  1  0  0  0
  1 34  1  0  0  0
  1 35  1  0  0  0
  2  3  1  0  0  0
  2 17  1  0  0  0
  2 18  1  0  0  0
  3 36  1  0  0  0
  3 37  1  0  0  0
  3 38  1  0  0  0
  4  5  2  0  0  0
  4  9  1  0  0  0
  4 27  1  0  0  0
  5  6  1  0  0  0
  5 39  1  0  0  0
  6  7  2  0  0  0
  6 13  1  0  0  0
  7  8  1  0  0  0
  7 40  1  0  0  0
  8  9  2  0  0  0
  8 41  1  0  0  0
  9 10  1  0  0  0
 10 11  2  0  0  0
 10 12  1  0  0  0
 12 42  1  0  0  0
 12 43  1  0  0  0
 13 21  1  0  0  0
 13 14  1  0  0  0
 14 15  2  0  0  0
 14 18  1  0  0  0
 15 20  1  0  0  0
 15 16  1  0  0  0
 16 17  1  0  0  0
 16 19  2  0  0  0
 17 44  1  0  0  0
 17 45  1  0  0  0
 18 46  1  0  0  0
 18 47  1  0  0  0
 20 21  2  0  0  0
 20 25  1  0  0  0
 21 22  1  0  0  0
 22 23  1  0  0  0
 22 48  1  0  0  0
 22 49  1  0  0  0
 23 24  1  0  0  0
 23 26  1  0  0  0
 24 25  1  0  0  0
 24 50  1  0  0  0
 24 51  1  0  0  0
 25 52  1  0  0  0
 25 53  1  0  0  0
 26 54  1  0  0  0
 26 55  1  0  0  0
 26 56  1  0  0  0
 27 28  1  0  0  0
 27 57  1  0  0  0
 28 29  1  0  0  0
 28 32  1  0  0  0
 28 58  1  0  0  0
 29 30  1  0  0  0
 29 59  1  0  0  0
 29 60  1  0  0  0
 30 31  1  0  0  0
 30 61  1  0  0  0
 30 62  1  0  0  0
 31 32  1  0  0  0
 31 63  1  0  0  0
 31 64  1  0  0  0
 32 65  1  0  0  0
 32 66  1  0  0  0
M  END
> <s_m_entry_id>
4813

> <s_m_entry_name>
dock_pv.132

> <s_m_Source_Path>
/home/csk/Desktop/cluster/DUD-E-result/hs90a

> <s_m_Source_File>
dock_pv.maegz

> <i_m_Source_File_Index>
132

> <chembl_id>
CHEMBL3235335

> <chembl_pref_name>
None

> <i_lp_mmshare_version>
53161

> <r_lp_tautomer_probability>
0.99995

> <s_lp_Force_Field>
OPLS_2005

> <r_lp_Energy>
58.643203

> <b_lp_Chiralities_Consistent>
1

> <s_lp_Variant>
CHEMBL3880_lig947-1

> <s_i_glide_gridfile>
glide-grid_1uyg

> <i_i_glide_lignum>
1056

> <i_i_glide_rotatable_bonds>
4

> <r_i_docking_score>
-8.5821422848576

> <r_i_glide_ligand_efficiency>
-0.2681919464018

> <r_i_glide_ligand_efficiency_sa>
-0.851456354711592

> <r_i_glide_ligand_efficiency_ln>
-1.92177559794281

> <r_i_glide_gscore>
-8.5821422848576

> <r_i_glide_lipo>
-4.51825318767586

> <r_i_glide_hbond>
-0.16

> <r_i_glide_metal>
0

> <r_i_glide_rewards>
-1.54325787884203

> <r_i_glide_evdw>
-47.8038940429688

> <r_i_glide_ecoul>
-1.57704508304596

> <r_i_glide_erotb>
0.316385230974696

> <r_i_glide_esite>
-0.0502649847090756

> <r_i_glide_emodel>
-63.0243650854198

> <r_i_glide_energy>
-49.3809391260147

> <r_i_glide_einternal>
0.403350412845612

> <i_i_glide_confnum>
22

> <i_i_glide_posenum>
73

> <r_i_glide_eff_state_penalty>
0

> <s_user_duplicate_titles>
CHEMBL3880_lig947

> <i_f3d_flags>
0

> <s_m_subgroup_title>
dock_pv

> <s_m_subgroupid>
dock_pv

> <b_m_subgroup_collapsed>
1

$$$$
CHEMBL3880_lig610
                    3D
 Schrodinger Suite 2021-1.
 54 57  0  0  1  0            999 V2000
    8.6462   14.7121   25.8963 C   0  0  0  0  0  0
    8.1423   14.7255   24.5655 O   0  0  0  0  0  0
    7.0473   13.9179   24.3677 C   0  0  0  0  0  0
    7.2609   12.6841   23.7577 C   0  0  0  0  0  0
    6.1906   11.8108   23.5669 C   0  0  0  0  0  0
    6.0842   10.4876   23.0375 C   0  0  0  0  0  0
    4.7740   10.1024   23.2055 C   0  0  0  0  0  0
    4.0488   11.1262   23.7758 N   0  0  0  0  0  0
    2.7132   11.0134   24.1884 C   0  0  0  0  0  0
    1.7367   11.8673   23.6776 C   0  0  0  0  0  0
    0.4207   11.7462   24.1170 C   0  0  0  0  0  0
    0.0793   10.7854   25.0785 C   0  0  0  0  0  0
   -1.2957   10.7727   25.5630 C   0  0  0  0  0  0
   -2.3765   10.7691   25.9626 N   0  0  0  0  0  0
    1.0625    9.9221   25.6085 C   0  0  0  0  0  0
    0.7146    8.9770   26.6005 N   0  0  0  0  0  0
    1.6151    8.6112   27.6919 C   0  0  2  0  0  0
    2.4441    7.3510   27.3446 C   0  0  0  0  0  0
    3.2919    6.8826   28.5515 C   0  0  0  0  0  0
    2.4503    6.6864   29.8333 C   0  0  1  0  0  0
    3.2610    6.3639   30.9429 O   0  0  0  0  0  0
    1.5479    7.8959   30.1456 C   0  0  0  0  0  0
    0.7197    8.3149   28.9160 C   0  0  0  0  0  0
    2.3769   10.0475   25.1429 C   0  0  0  0  0  0
    4.8858   12.2204   23.9670 C   0  0  0  0  0  0
    4.6510   13.4855   24.5367 C   0  0  0  0  0  0
    5.7637   14.3212   24.7668 C   0  0  0  0  0  0
    5.6723   15.5485   25.3974 O   0  0  0  0  0  0
    4.4266   15.9623   25.9387 C   0  0  0  0  0  0
    9.5237   15.3549   25.9576 H   0  0  0  0  0  0
    7.9160   15.0850   26.6173 H   0  0  0  0  0  0
    8.9482   13.7067   26.1984 H   0  0  0  0  0  0
    8.2557   12.3818   23.4777 H   0  0  0  0  0  0
    6.8734    9.8703   22.6327 H   0  0  0  0  0  0
    4.2866    9.1622   22.9823 H   0  0  0  0  0  0
    1.9901   12.6197   22.9448 H   0  0  0  0  0  0
   -0.3260   12.4212   23.7183 H   0  0  0  0  0  0
   -0.2477    9.0497   26.8965 H   0  0  0  0  0  0
    2.2608    9.4613   27.9263 H   0  0  0  0  0  0
    3.1019    7.5221   26.4951 H   0  0  0  0  0  0
    1.7749    6.5433   27.0398 H   0  0  0  0  0  0
    3.8008    5.9510   28.3001 H   0  0  0  0  0  0
    4.0817    7.6083   28.7494 H   0  0  0  0  0  0
    1.8141    5.8127   29.6853 H   0  0  0  0  0  0
    3.8224    7.1247   31.1680 H   0  0  0  0  0  0
    0.8775    7.6596   30.9737 H   0  0  0  0  0  0
    2.1559    8.7352   30.4875 H   0  0  0  0  0  0
    0.0091    7.5192   28.6804 H   0  0  0  0  0  0
    0.1113    9.1830   29.1670 H   0  0  0  0  0  0
    3.1573    9.4192   25.5381 H   0  0  0  0  0  0
    3.6583   13.7583   24.8570 H   0  0  0  0  0  0
    4.5106   16.9729   26.3385 H   0  0  0  0  0  0
    3.6609   15.9689   25.1669 H   0  0  0  0  0  0
    4.1087   15.3052   26.7497 H   0  0  0  0  0  0
  1  2  1  0  0  0
  1 30  1  0  0  0
  1 31  1  0  0  0
  1 32  1  0  0  0
  2  3  1  0  0  0
  3  4  2  0  0  0
  3 27  1  0  0  0
  4  5  1  0  0  0
  4 33  1  0  0  0
  5  6  1  0  0  0
  5 25  2  0  0  0
  6  7  2  0  0  0
  6 34  1  0  0  0
  7  8  1  0  0  0
  7 35  1  0  0  0
  8  9  1  0  0  0
  8 25  1  0  0  0
  9 10  2  0  0  0
  9 24  1  0  0  0
 10 11  1  0  0  0
 10 36  1  0  0  0
 11 12  2  0  0  0
 11 37  1  0  0  0
 12 13  1  0  0  0
 12 15  1  0  0  0
 13 14  3  0  0  0
 15 16  1  0  0  0
 15 24  2  0  0  0
 16 17  1  0  0  0
 16 38  1  0  0  0
 17 18  1  0  0  0
 17 23  1  0  0  0
 17 39  1  0  0  0
 18 19  1  0  0  0
 18 40  1  0  0  0
 18 41  1  0  0  0
 19 20  1  0  0  0
 19 42  1  0  0  0
 19 43  1  0  0  0
 20 21  1  0  0  0
 20 22  1  0  0  0
 20 44  1  0  0  0
 21 45  1  0  0  0
 22 23  1  0  0  0
 22 46  1  0  0  0
 22 47  1  0  0  0
 23 48  1  0  0  0
 23 49  1  0  0  0
 24 50  1  0  0  0
 25 26  1  0  0  0
 26 27  2  0  0  0
 26 51  1  0  0  0
 27 28  1  0  0  0
 28 29  1  0  0  0
 29 52  1  0  0  0
 29 53  1  0  0  0
 29 54  1  0  0  0
M  END
> <s_m_entry_id>
4814

> <s_m_entry_name>
dock_pv.133

> <s_m_Source_Path>
/home/csk/Desktop/cluster/DUD-E-result/hs90a

> <s_m_Source_File>
dock_pv.maegz

> <i_m_Source_File_Index>
133

> <chembl_id>
CHEMBL3661197

> <chembl_pref_name>
None

> <i_lp_mmshare_version>
53161

> <r_lp_tautomer_probability>
1

> <s_lp_Force_Field>
OPLS_2005

> <r_lp_Energy>
29.982288

> <b_lp_Chiralities_Consistent>
1

> <s_lp_Variant>
CHEMBL3880_lig610-2

> <s_i_glide_gridfile>
glide-grid_1uyg

> <i_i_glide_lignum>
666

> <i_i_glide_rotatable_bonds>
6

> <r_i_docking_score>
-8.56963423675498

> <r_i_glide_ligand_efficiency>
-0.29550462885362

> <r_i_glide_ligand_efficiency_sa>
-0.907883842275991

> <r_i_glide_ligand_efficiency_ln>
-1.96222893304242

> <r_i_glide_gscore>
-8.56963423675498

> <r_i_glide_lipo>
-4.35179996326089

> <r_i_glide_hbond>
-0.16

> <r_i_glide_metal>
0

> <r_i_glide_rewards>
-1.42139065895735

> <r_i_glide_evdw>
-46.5895652770996

> <r_i_glide_ecoul>
-4.59335231781006

> <r_i_glide_erotb>
0.382037496989744

> <r_i_glide_esite>
0

> <r_i_glide_emodel>
-70.230602903915

> <r_i_glide_energy>
-51.1829175949097

> <r_i_glide_einternal>
12.7921180725098

> <i_i_glide_confnum>
6

> <i_i_glide_posenum>
377

> <r_i_glide_eff_state_penalty>
0

> <s_user_duplicate_titles>
CHEMBL3880_lig610

> <i_f3d_flags>
0

> <s_m_subgroup_title>
dock_pv

> <s_m_subgroupid>
dock_pv

> <b_m_subgroup_collapsed>
1

$$$$
CHEMBL3880_lig231
                    3D
 Schrodinger Suite 2021-1.
 72 75  0  0  1  0            999 V2000
    0.4388   12.1194   24.3601 C   0  0  0  0  0  0
    1.7145   12.4819   23.9316 C   0  0  0  0  0  0
    0.2340   10.9772   25.1588 C   0  0  0  0  0  0
    1.3408   10.1592   25.4962 C   0  0  0  0  0  0
    2.3165    8.0740   26.6110 C   0  0  2  0  0  0
    1.2052    8.9737   26.2503 N   0  0  0  0  0  0
    2.6266    7.0059   25.4956 C   0  0  1  0  0  0
    5.2119    8.6017   23.0339 C   0  0  0  0  0  0
    4.6245    7.8761   24.2775 C   0  0  0  0  0  0
    3.1808    7.5593   24.2233 N   0  0  1  0  0  0
    2.6053   10.5530   25.0666 C   0  0  0  0  0  0
    2.8000   11.6865   24.2927 C   0  0  0  0  0  0
    4.5218    9.8936   22.5232 C   0  0  0  0  0  0
    4.9782   11.1917   23.2024 C   0  0  0  0  0  0
    4.1175   12.0001   23.9374 N   0  0  0  0  0  0
    6.2223   11.8276   23.1663 C   0  0  0  0  0  0
    7.4446   11.3446   22.4204 C   0  0  0  0  0  0
    6.1235   12.9771   23.9670 C   0  0  0  0  0  0
    4.8292   13.0709   24.4348 C   0  0  0  0  0  0
    4.3341   14.0703   25.4888 C   0  0  0  0  0  0
    5.3980   15.2053   25.7298 C   0  0  0  0  0  0
    6.8632   14.7234   25.5780 C   0  0  0  0  0  0
    7.1226   13.9809   24.2865 C   0  0  0  0  0  0
    8.0612   14.2653   23.5677 O   0  0  0  0  0  0
    5.0840   16.3521   24.7654 C   0  0  0  0  0  0
    5.3398   15.7194   27.1508 C   0  0  0  0  0  0
    3.4533    5.7885   25.9839 C   0  0  0  0  0  0
    1.9809    7.4404   27.9768 C   0  0  0  0  0  0
   -1.1535   10.7037   25.6837 C   0  0  0  0  0  0
   -1.3591   10.4589   26.8689 O   0  0  0  0  0  0
   -2.1465   10.7779   24.8001 N   0  0  0  0  0  0
    2.9177    6.7331   23.0214 C   0  0  0  0  0  0
    1.4867    6.2067   22.8069 C   0  0  0  0  0  0
    1.2607    5.0366   23.5661 O   0  0  0  0  0  0
   -0.3896   12.7609   24.0955 H   0  0  0  0  0  0
    1.8550   13.3743   23.3395 H   0  0  0  0  0  0
    3.2204    8.6490   26.7981 H   0  0  0  0  0  0
    0.2974    8.7748   26.6422 H   0  0  0  0  0  0
    1.6339    6.6139   25.2901 H   0  0  0  0  0  0
    6.2525    8.8234   23.2643 H   0  0  0  0  0  0
    5.2952    7.8812   22.2188 H   0  0  0  0  0  0
    4.8600    8.4454   25.1671 H   0  0  0  0  0  0
    5.1780    6.9422   24.3938 H   0  0  0  0  0  0
    3.4792    9.9951   25.3354 H   0  0  0  0  0  0
    3.4394    9.7650   22.5429 H   0  0  0  0  0  0
    4.7503    9.9679   21.4598 H   0  0  0  0  0  0
    7.6619   12.0325   21.6042 H   0  0  0  0  0  0
    8.3280   11.3355   23.0592 H   0  0  0  0  0  0
    7.3431   10.3470   21.9961 H   0  0  0  0  0  0
    4.2037   13.5157   26.4158 H   0  0  0  0  0  0
    3.3557   14.4855   25.2467 H   0  0  0  0  0  0
    7.1499   14.0276   26.3673 H   0  0  0  0  0  0
    7.5614   15.5625   25.6408 H   0  0  0  0  0  0
    5.9872   16.7937   24.3487 H   0  0  0  0  0  0
    4.4680   15.9709   23.9671 H   0  0  0  0  0  0
    4.4976   17.1490   25.2262 H   0  0  0  0  0  0
    5.6471   16.7687   27.1700 H   0  0  0  0  0  0
    4.3056   15.6623   27.4893 H   0  0  0  0  0  0
    6.0269   15.1958   27.8252 H   0  0  0  0  0  0
    2.8836    5.1818   26.6849 H   0  0  0  0  0  0
    3.7293    5.1264   25.1635 H   0  0  0  0  0  0
    4.3683    6.1021   26.4876 H   0  0  0  0  0  0
    2.8289    6.8895   28.3853 H   0  0  0  0  0  0
    1.7277    8.2028   28.7155 H   0  0  0  0  0  0
    1.1348    6.7556   27.9073 H   0  0  0  0  0  0
   -3.1057   10.7176   25.1140 H   0  0  0  0  0  0
   -1.9544   10.8879   23.8139 H   0  0  0  0  0  0
    3.6437    5.9373   22.8556 H   0  0  0  0  0  0
    3.0676    7.4054   22.1764 H   0  0  0  0  0  0
    1.3412    5.9615   21.7529 H   0  0  0  0  0  0
    0.7485    6.9742   23.0514 H   0  0  0  0  0  0
    0.3864    4.7066   23.3280 H   0  0  0  0  0  0
  1  3  1  0  0  0
  1  2  2  0  0  0
  1 35  1  0  0  0
  2 12  1  0  0  0
  2 36  1  0  0  0
  3 29  1  0  0  0
  3  4  2  0  0  0
  4 11  1  0  0  0
  4  6  1  0  0  0
  5 28  1  0  0  0
  5  7  1  0  0  0
  5  6  1  0  0  0
  5 37  1  0  0  0
  6 38  1  0  0  0
  7 10  1  0  0  0
  7 27  1  0  0  0
  7 39  1  0  0  0
  8 13  1  0  0  0
  8  9  1  0  0  0
  8 40  1  0  0  0
  8 41  1  0  0  0
  9 10  1  0  0  0
  9 42  1  0  0  0
  9 43  1  0  0  0
 10 32  1  0  0  0
 11 12  2  0  0  0
 11 44  1  0  0  0
 12 15  1  0  0  0
 13 14  1  0  0  0
 13 45  1  0  0  0
 13 46  1  0  0  0
 14 16  2  0  0  0
 14 15  1  0  0  0
 15 19  1  0  0  0
 16 18  1  0  0  0
 16 17  1  0  0  0
 17 47  1  0  0  0
 17 48  1  0  0  0
 17 49  1  0  0  0
 18 19  2  0  0  0
 18 23  1  0  0  0
 19 20  1  0  0  0
 20 21  1  0  0  0
 20 50  1  0  0  0
 20 51  1  0  0  0
 21 22  1  0  0  0
 21 25  1  0  0  0
 21 26  1  0  0  0
 22 23  1  0  0  0
 22 52  1  0  0  0
 22 53  1  0  0  0
 23 24  2  0  0  0
 25 54  1  0  0  0
 25 55  1  0  0  0
 25 56  1  0  0  0
 26 57  1  0  0  0
 26 58  1  0  0  0
 26 59  1  0  0  0
 27 60  1  0  0  0
 27 61  1  0  0  0
 27 62  1  0  0  0
 28 63  1  0  0  0
 28 64  1  0  0  0
 28 65  1  0  0  0
 29 30  2  0  0  0
 29 31  1  0  0  0
 31 66  1  0  0  0
 31 67  1  0  0  0
 32 33  1  0  0  0
 32 68  1  0  0  0
 32 69  1  0  0  0
 33 34  1  0  0  0
 33 70  1  0  0  0
 33 71  1  0  0  0
 34 72  1  0  0  0
M  END
> <s_m_entry_id>
4815

> <s_m_entry_name>
dock_pv.134

> <s_m_Source_Path>
/home/csk/Desktop/cluster/DUD-E-result/hs90a

> <s_m_Source_File>
dock_pv.maegz

> <i_m_Source_File_Index>
134

> <chembl_id>
CHEMBL1807794

> <chembl_pref_name>
None

> <i_lp_mmshare_version>
53161

> <r_lp_tautomer_probability>
0.99995

> <s_lp_Force_Field>
OPLS_2005

> <r_lp_Energy>
69.147001

> <b_lp_Chiralities_Consistent>
1

> <s_lp_Variant>
CHEMBL3880_lig231-1

> <s_i_glide_gridfile>
glide-grid_1uyg

> <i_i_glide_lignum>
265

> <i_i_glide_rotatable_bonds>
4

> <r_i_docking_score>
-8.56738158369016

> <r_i_glide_ligand_efficiency>
-0.251981811285005

> <r_i_glide_ligand_efficiency_sa>
-0.816323248586627

> <r_i_glide_ligand_efficiency_ln>
-1.89277489875084

> <r_i_glide_gscore>
-8.56738158369016

> <r_i_glide_lipo>
-4.32376968980564

> <r_i_glide_hbond>
-0.0216792502812963

> <r_i_glide_metal>
0

> <r_i_glide_rewards>
-1.93379602086333

> <r_i_glide_evdw>
-34.094596862793

> <r_i_glide_ecoul>
-5.11578178405762

> <r_i_glide_erotb>
0.185331083453871

> <r_i_glide_esite>
-0.0013705954454805

> <r_i_glide_emodel>
-46.7772562139977

> <r_i_glide_energy>
-39.2103786468506

> <r_i_glide_einternal>
2.78386664390564

> <i_i_glide_confnum>
4

> <i_i_glide_posenum>
357

> <r_i_glide_eff_state_penalty>
0

> <s_user_duplicate_titles>
CHEMBL3880_lig231

> <i_f3d_flags>
0

> <s_m_subgroup_title>
dock_pv

> <s_m_subgroupid>
dock_pv

> <b_m_subgroup_collapsed>
1

$$$$
CHEMBL3880_lig921
                    3D
 Schrodinger Suite 2021-1.
 53 56  0  0  1  0            999 V2000
   -1.7272   11.7470   23.2076 N   0  0  0  0  0  0
   -0.9251   12.3690   22.3081 C   0  0  0  0  0  0
    0.4210   12.5312   22.4070 N   0  0  0  0  0  0
    1.0148   11.9798   23.5032 C   0  0  0  0  0  0
   -1.5396   12.8516   21.1674 N   0  0  0  0  0  0
    2.4750   12.1894   23.6606 C   0  0  0  0  0  0
    2.9680   13.4362   24.0748 C   0  0  0  0  0  0
    4.3342   13.6370   24.2534 C   0  0  0  0  0  0
    5.2300   12.6149   23.9668 C   0  0  0  0  0  0
    4.7562   11.3687   23.5675 C   0  0  0  0  0  0
    3.3764   11.1334   23.4317 C   0  0  0  0  0  0
    2.8405    9.9116   23.0508 O   0  0  0  0  0  0
    1.9061   14.7689   24.3488 Cl  0  0  0  0  0  0
    3.6921    8.8620   22.5989 C   0  0  0  0  0  0
    4.3965    8.1423   23.7699 C   0  0  0  0  0  0
    5.6226    7.3264   23.3310 C   0  0  0  0  0  0
    6.9294   12.8972   24.0785 Cl  0  0  0  0  0  0
   -1.0981   11.2191   24.2843 C   0  0  0  0  0  0
    0.2749   11.2811   24.4565 C   0  0  0  0  0  0
    0.6800   10.5412   25.6940 C   0  0  0  0  0  0
   -0.6085   10.1870   26.3050 N   0  0  0  0  0  0
   -1.7490   10.4888   25.4266 C   0  0  0  0  0  0
   -0.7358    9.5742   27.5080 C   0  0  0  0  0  0
    0.3672    8.8973   27.8950 N   0  0  0  0  0  0
   -1.7897    9.5694   28.1433 O   0  0  0  0  0  0
    0.5162    7.9909   29.0356 C   0  0  0  0  0  0
    0.4389    6.5008   28.6923 C   0  0  0  0  0  0
    1.9787    6.5218   28.5893 C   0  0  0  0  0  0
    1.9597    7.7683   29.4979 C   0  0  0  0  0  0
    6.5999    8.1814   22.7673 O   0  0  0  0  0  0
   -2.4968   12.5612   20.9970 H   0  0  0  0  0  0
   -0.9760   13.2418   20.4313 H   0  0  0  0  0  0
    4.7022   14.6067   24.5608 H   0  0  0  0  0  0
    5.4809   10.5959   23.3644 H   0  0  0  0  0  0
    4.3907    9.2488   21.8535 H   0  0  0  0  0  0
    3.0771    8.1368   22.0640 H   0  0  0  0  0  0
    3.6778    7.4805   24.2554 H   0  0  0  0  0  0
    4.6986    8.8501   24.5395 H   0  0  0  0  0  0
    5.3382    6.6152   22.5531 H   0  0  0  0  0  0
    6.0489    6.7580   24.1596 H   0  0  0  0  0  0
    1.2736    9.6525   25.4681 H   0  0  0  0  0  0
    1.2611   11.1683   26.3661 H   0  0  0  0  0  0
   -2.5086   11.0847   25.9362 H   0  0  0  0  0  0
   -2.2362    9.5870   25.0620 H   0  0  0  0  0  0
    1.1147    8.8392   27.2216 H   0  0  0  0  0  0
   -0.2062    8.3689   29.7541 H   0  0  0  0  0  0
    0.0604    5.8955   29.5168 H   0  0  0  0  0  0
   -0.1208    6.2447   27.7910 H   0  0  0  0  0  0
    2.4956    5.6532   28.9956 H   0  0  0  0  0  0
    2.3486    6.7206   27.5816 H   0  0  0  0  0  0
    2.6686    8.5650   29.2666 H   0  0  0  0  0  0
    2.0434    7.5470   30.5642 H   0  0  0  0  0  0
    7.0722    7.6811   22.0850 H   0  0  0  0  0  0
  1 18  1  0  0  0
  1  2  2  0  0  0
  2  5  1  0  0  0
  2  3  1  0  0  0
  3  4  2  0  0  0
  4 19  1  0  0  0
  4  6  1  0  0  0
  5 31  1  0  0  0
  5 32  1  0  0  0
  6  7  2  0  0  0
  6 11  1  0  0  0
  7  8  1  0  0  0
  7 13  1  0  0  0
  8  9  2  0  0  0
  8 33  1  0  0  0
  9 17  1  0  0  0
  9 10  1  0  0  0
 10 11  2  0  0  0
 10 34  1  0  0  0
 11 12  1  0  0  0
 12 14  1  0  0  0
 14 15  1  0  0  0
 14 35  1  0  0  0
 14 36  1  0  0  0
 15 16  1  0  0  0
 15 37  1  0  0  0
 15 38  1  0  0  0
 16 30  1  0  0  0
 16 39  1  0  0  0
 16 40  1  0  0  0
 18 19  2  0  0  0
 18 22  1  0  0  0
 19 20  1  0  0  0
 20 21  1  0  0  0
 20 41  1  0  0  0
 20 42  1  0  0  0
 21 22  1  0  0  0
 21 23  1  0  0  0
 22 43  1  0  0  0
 22 44  1  0  0  0
 23 24  1  0  0  0
 23 25  2  0  0  0
 24 26  1  0  0  0
 24 45  1  0  0  0
 26 27  1  0  0  0
 26 29  1  0  0  0
 26 46  1  0  0  0
 27 28  1  0  0  0
 27 47  1  0  0  0
 27 48  1  0  0  0
 28 29  1  0  0  0
 28 49  1  0  0  0
 28 50  1  0  0  0
 29 51  1  0  0  0
 29 52  1  0  0  0
 30 53  1  0  0  0
M  END
> <s_m_entry_id>
4816

> <s_m_entry_name>
dock_pv.135

> <s_m_Source_Path>
/home/csk/Desktop/cluster/DUD-E-result/hs90a

> <s_m_Source_File>
dock_pv.maegz

> <i_m_Source_File_Index>
135

> <chembl_id>
CHEMBL1774914

> <chembl_pref_name>
None

> <i_lp_mmshare_version>
53161

> <r_lp_tautomer_probability>
0.999999987636

> <s_lp_Force_Field>
OPLS_2005

> <r_lp_Energy>
44.556743

> <b_lp_Chiralities_Consistent>
1

> <s_lp_Variant>
CHEMBL3880_lig921-1

> <s_i_glide_gridfile>
glide-grid_1uyg

> <i_i_glide_lignum>
1027

> <i_i_glide_rotatable_bonds>
9

> <r_i_docking_score>
-8.55805200286306

> <r_i_glide_ligand_efficiency>
-0.285268400095435

> <r_i_glide_ligand_efficiency_sa>
-0.886395244693053

> <r_i_glide_ligand_efficiency_ln>
-1.94448266249559

> <r_i_glide_gscore>
-8.55805200286306

> <r_i_glide_lipo>
-3.43778566574369

> <r_i_glide_hbond>
-0.37770891087318

> <r_i_glide_metal>
0

> <r_i_glide_rewards>
-1.96064018763745

> <r_i_glide_evdw>
-45.1711158752441

> <r_i_glide_ecoul>
-8.71910762786865

> <r_i_glide_erotb>
0.784504699333763

> <r_i_glide_esite>
0

> <r_i_glide_emodel>
-78.5173360862092

> <r_i_glide_energy>
-53.8902235031128

> <r_i_glide_einternal>
6.12632417678833

> <i_i_glide_confnum>
141

> <i_i_glide_posenum>
209

> <r_i_glide_eff_state_penalty>
0

> <s_user_duplicate_titles>
CHEMBL3880_lig921

> <i_f3d_flags>
0

> <s_m_subgroup_title>
dock_pv

> <s_m_subgroupid>
dock_pv

> <b_m_subgroup_collapsed>
1

$$$$
CHEMBL3880_lig797
                    3D
 Schrodinger Suite 2021-1.
 40 42  0  0  1  0            999 V2000
    1.4953   10.0159   25.0901 C   0  0  0  0  0  0
    0.1933    9.5350   24.9066 C   0  0  0  0  0  0
   -0.8039   10.3702   24.4124 C   0  0  0  0  0  0
   -0.5104   11.6824   24.0625 C   0  0  0  0  0  0
    0.7947   12.1742   24.2157 C   0  0  0  0  0  0
    1.8094   11.3434   24.7388 C   0  0  0  0  0  0
   -0.1246    8.2278   25.1667 O   0  0  0  0  0  0
   -1.5227   12.4685   23.5674 O   0  0  0  0  0  0
    1.1424   13.8140   23.7574 Cl  0  0  0  0  0  0
    3.2350   11.8924   24.9233 C   0  0  0  0  0  0
    4.0774   11.9341   23.6239 C   0  0  0  0  0  0
    5.2335   10.9365   23.5970 C   0  0  0  0  0  0
    6.5746   11.2755   23.5311 N   0  0  0  0  0  0
    7.2446   10.0800   23.5313 C   0  0  0  0  0  0
    6.2631    9.1065   23.5635 C   0  0  0  0  0  0
    5.0543    9.6344   23.5926 N   0  0  0  0  0  0
    7.1761   12.5881   23.3523 C   0  0  0  0  0  0
    7.5353   13.3891   24.5928 C   0  0  0  0  0  0
    8.7644   13.1805   25.2188 C   0  0  0  0  0  0
    9.1376   13.9691   26.3037 C   0  0  0  0  0  0
    8.2695   14.9540   26.7636 C   0  0  0  0  0  0
    7.0377   15.1679   26.1479 C   0  0  0  0  0  0
    6.6703   14.3856   25.0582 C   0  0  0  0  0  0
    2.6961    8.9518   25.7547 Cl  0  0  0  0  0  0
   -1.8080    9.9895   24.2823 H   0  0  0  0  0  0
   -0.9448    7.9691   24.7329 H   0  0  0  0  0  0
   -2.3934   12.0570   23.6022 H   0  0  0  0  0  0
    3.1581   12.9008   25.3319 H   0  0  0  0  0  0
    3.7595   11.3553   25.7115 H   0  0  0  0  0  0
    3.4296   11.7601   22.7671 H   0  0  0  0  0  0
    4.4241   12.9560   23.4846 H   0  0  0  0  0  0
    8.3225   10.0324   23.4724 H   0  0  0  0  0  0
    6.4165    8.0356   23.5461 H   0  0  0  0  0  0
    8.0597   12.4684   22.7271 H   0  0  0  0  0  0
    6.4841   13.1689   22.7670 H   0  0  0  0  0  0
    9.4267   12.4029   24.8682 H   0  0  0  0  0  0
   10.0877   13.8106   26.7929 H   0  0  0  0  0  0
    8.5574   15.5679   27.6007 H   0  0  0  0  0  0
    6.3804   15.9452   26.5077 H   0  0  0  0  0  0
    5.7261   14.5682   24.5680 H   0  0  0  0  0  0
  1  2  2  0  0  0
  1  6  1  0  0  0
  1 24  1  0  0  0
  2  3  1  0  0  0
  2  7  1  0  0  0
  3  4  2  0  0  0
  3 25  1  0  0  0
  4  5  1  0  0  0
  4  8  1  0  0  0
  5  6  2  0  0  0
  5  9  1  0  0  0
  6 10  1  0  0  0
  7 26  1  0  0  0
  8 27  1  0  0  0
 10 11  1  0  0  0
 10 28  1  0  0  0
 10 29  1  0  0  0
 11 12  1  0  0  0
 11 30  1  0  0  0
 11 31  1  0  0  0
 12 13  1  0  0  0
 12 16  2  0  0  0
 13 14  1  0  0  0
 13 17  1  0  0  0
 14 15  2  0  0  0
 14 32  1  0  0  0
 15 16  1  0  0  0
 15 33  1  0  0  0
 17 18  1  0  0  0
 17 34  1  0  0  0
 17 35  1  0  0  0
 18 19  2  0  0  0
 18 23  1  0  0  0
 19 20  1  0  0  0
 19 36  1  0  0  0
 20 21  2  0  0  0
 20 37  1  0  0  0
 21 22  1  0  0  0
 21 38  1  0  0  0
 22 23  2  0  0  0
 22 39  1  0  0  0
 23 40  1  0  0  0
M  END
> <s_m_entry_id>
4817

> <s_m_entry_name>
dock_pv.136

> <s_m_Source_Path>
/home/csk/Desktop/cluster/DUD-E-result/hs90a

> <s_m_Source_File>
dock_pv.maegz

> <i_m_Source_File_Index>
136

> <chembl_id>
CHEMBL4075556

> <chembl_pref_name>
None

> <i_lp_mmshare_version>
53161

> <r_lp_tautomer_probability>
0.999999999898

> <s_lp_Force_Field>
OPLS_2005

> <r_lp_Energy>
13.897413

> <b_lp_Chiralities_Consistent>
1

> <s_lp_Variant>
CHEMBL3880_lig797-1

> <s_i_glide_gridfile>
glide-grid_1uyg

> <i_i_glide_lignum>
898

> <i_i_glide_rotatable_bonds>
7

> <r_i_docking_score>
-8.54207821668025

> <r_i_glide_ligand_efficiency>
-0.35591992569501

> <r_i_glide_ligand_efficiency_sa>
-1.02665071870736

> <r_i_glide_ligand_efficiency_ln>
-2.04451128767981

> <r_i_glide_gscore>
-8.54207821668025

> <r_i_glide_lipo>
-4.09836976720107

> <r_i_glide_hbond>
-0.289609687706799

> <r_i_glide_metal>
0

> <r_i_glide_rewards>
-2.24196432579176

> <r_i_glide_evdw>
-36.7329750061035

> <r_i_glide_ecoul>
-5.35669279098511

> <r_i_glide_erotb>
0.72801823297232

> <r_i_glide_esite>
0

> <r_i_glide_emodel>
-59.108169029022

> <r_i_glide_energy>
-42.0896677970886

> <r_i_glide_einternal>
4.7657527923584

> <i_i_glide_confnum>
5

> <i_i_glide_posenum>
188

> <r_i_glide_eff_state_penalty>
0

> <s_user_duplicate_titles>
CHEMBL3880_lig797

> <i_f3d_flags>
0

> <s_m_subgroup_title>
dock_pv

> <s_m_subgroupid>
dock_pv

> <b_m_subgroup_collapsed>
1

$$$$
CHEMBL3880_lig283
                    3D
 Schrodinger Suite 2021-1.
 59 62  0  0  1  0            999 V2000
   -1.5097   11.0868   24.6124 C   0  0  0  0  0  0
   -1.4269   11.8208   23.4306 C   0  0  0  0  0  0
   -0.1829   12.1633   22.8991 C   0  0  0  0  0  0
    0.9983   11.8413   23.5919 C   0  0  0  0  0  0
    0.8997   11.1017   24.7697 C   0  0  0  0  0  0
   -0.3345   10.6740   25.2549 C   0  0  0  0  0  0
   -0.1518   12.7689   21.6733 O   0  0  0  0  0  0
    2.3855   12.2821   23.1151 C   0  0  0  0  0  0
    3.4541   11.1724   23.2164 C   0  0  0  0  0  0
    2.8301   13.5471   23.8751 C   0  0  0  0  0  0
   -2.7390   10.7690   25.1185 O   0  0  0  0  0  0
   -0.3419    9.8303   26.3842 N   0  0  0  0  0  0
    0.4651    8.7341   26.6615 C   0  0  0  0  0  0
    0.1589    8.4191   27.9935 C   0  0  0  0  0  0
   -0.8640    9.1687   28.3723 N   0  0  0  0  0  0
   -1.1416   10.1062   27.4135 N   0  0  0  0  0  0
    0.7898    7.4194   28.8301 C   0  0  0  0  0  0
    0.8602    7.7662   30.1288 N   0  0  0  0  0  0
    1.2498    6.3697   28.3747 O   0  0  0  0  0  0
    1.4534    6.9847   31.2070 C   0  0  0  0  0  0
    0.3767    6.3833   32.1202 C   0  0  0  0  0  0
    1.4593    8.1651   25.7030 C   0  0  0  0  0  0
    2.7900    8.0125   26.0930 C   0  0  0  0  0  0
    3.7343    7.5646   25.1757 C   0  0  0  0  0  0
    3.3487    7.2701   23.8668 C   0  0  0  0  0  0
    2.0121    7.3867   23.4862 C   0  0  0  0  0  0
    1.0677    7.8302   24.4041 C   0  0  0  0  0  0
    4.3921    6.8491   22.8469 C   0  0  0  0  0  0
    5.0916    7.9795   22.2599 N   0  0  0  0  0  0
    6.0932    8.7315   22.8186 C   0  0  0  0  0  0
    6.4183    9.6797   21.8613 C   0  0  0  0  0  0
    5.6608    9.5688   20.7834 N   0  0  0  0  0  0
    4.8610    8.5643   21.0390 C   0  0  0  0  0  0
   -2.3349   12.0937   22.9117 H   0  0  0  0  0  0
    1.7955   10.8445   25.3175 H   0  0  0  0  0  0
   -1.0403   12.8971   21.3316 H   0  0  0  0  0  0
    2.3127   12.5183   22.0556 H   0  0  0  0  0  0
    3.1322   10.2673   22.6965 H   0  0  0  0  0  0
    3.6884   10.8989   24.2457 H   0  0  0  0  0  0
    4.3930   11.4943   22.7673 H   0  0  0  0  0  0
    2.1404   14.3738   23.7011 H   0  0  0  0  0  0
    2.8714   13.3715   24.9513 H   0  0  0  0  0  0
    3.8219   13.8764   23.5666 H   0  0  0  0  0  0
   -3.4740   11.2943   24.7599 H   0  0  0  0  0  0
    0.3943    8.6234   30.4078 H   0  0  0  0  0  0
    2.1114    6.2015   30.8250 H   0  0  0  0  0  0
    2.0956    7.6485   31.7883 H   0  0  0  0  0  0
    0.8230    5.7655   32.8977 H   0  0  0  0  0  0
   -0.1863    7.1690   32.6228 H   0  0  0  0  0  0
   -0.3366    5.7698   31.5680 H   0  0  0  0  0  0
    3.0968    8.2636   27.0984 H   0  0  0  0  0  0
    4.7673    7.4706   25.4772 H   0  0  0  0  0  0
    1.7057    7.1551   22.4751 H   0  0  0  0  0  0
    0.0388    7.9385   24.0943 H   0  0  0  0  0  0
    5.1293    6.1876   23.3014 H   0  0  0  0  0  0
    3.9285    6.2715   22.0450 H   0  0  0  0  0  0
    6.4815    8.5154   23.8022 H   0  0  0  0  0  0
    7.1856   10.4369   21.9477 H   0  0  0  0  0  0
    4.0857    8.1723   20.3943 H   0  0  0  0  0  0
  1  2  2  0  0  0
  1  6  1  0  0  0
  1 11  1  0  0  0
  2  3  1  0  0  0
  2 34  1  0  0  0
  3  4  2  0  0  0
  3  7  1  0  0  0
  4  5  1  0  0  0
  4  8  1  0  0  0
  5  6  2  0  0  0
  5 35  1  0  0  0
  6 12  1  0  0  0
  7 36  1  0  0  0
  8  9  1  0  0  0
  8 10  1  0  0  0
  8 37  1  0  0  0
  9 38  1  0  0  0
  9 39  1  0  0  0
  9 40  1  0  0  0
 10 41  1  0  0  0
 10 42  1  0  0  0
 10 43  1  0  0  0
 11 44  1  0  0  0
 12 13  1  0  0  0
 12 16  1  0  0  0
 13 14  2  0  0  0
 13 22  1  0  0  0
 14 15  1  0  0  0
 14 17  1  0  0  0
 15 16  2  0  0  0
 17 18  1  0  0  0
 17 19  2  0  0  0
 18 20  1  0  0  0
 18 45  1  0  0  0
 20 21  1  0  0  0
 20 46  1  0  0  0
 20 47  1  0  0  0
 21 48  1  0  0  0
 21 49  1  0  0  0
 21 50  1  0  0  0
 22 23  2  0  0  0
 22 27  1  0  0  0
 23 24  1  0  0  0
 23 51  1  0  0  0
 24 25  2  0  0  0
 24 52  1  0  0  0
 25 26  1  0  0  0
 25 28  1  0  0  0
 26 27  2  0  0  0
 26 53  1  0  0  0
 27 54  1  0  0  0
 28 29  1  0  0  0
 28 55  1  0  0  0
 28 56  1  0  0  0
 29 30  1  0  0  0
 29 33  1  0  0  0
 30 31  2  0  0  0
 30 57  1  0  0  0
 31 32  1  0  0  0
 31 58  1  0  0  0
 32 33  2  0  0  0
 33 59  1  0  0  0
M  END
> <s_m_entry_id>
4818

> <s_m_entry_name>
dock_pv.137

> <s_m_Source_Path>
/home/csk/Desktop/cluster/DUD-E-result/hs90a

> <s_m_Source_File>
dock_pv.maegz

> <i_m_Source_File_Index>
137

> <chembl_id>
CHEMBL3234770

> <chembl_pref_name>
None

> <i_lp_mmshare_version>
53161

> <r_lp_tautomer_probability>
1

> <s_lp_Force_Field>
OPLS_2005

> <r_lp_Energy>
22.857942

> <b_lp_Chiralities_Consistent>
1

> <s_lp_Variant>
CHEMBL3880_lig283-1

> <s_i_glide_gridfile>
glide-grid_1uyg

> <i_i_glide_lignum>
319

> <i_i_glide_rotatable_bonds>
10

> <r_i_docking_score>
-8.53748996991958

> <r_i_glide_ligand_efficiency>
-0.25871181727029

> <r_i_glide_ligand_efficiency_sa>
-0.829827034502898

> <r_i_glide_ligand_efficiency_ln>
-1.89869356455284

> <r_i_glide_gscore>
-8.53748996991958

> <r_i_glide_lipo>
-3.17547062454554

> <r_i_glide_hbond>
-0.634332957173301

> <r_i_glide_metal>
0

> <r_i_glide_rewards>
-0.979896995732082

> <r_i_glide_evdw>
-54.4729537963867

> <r_i_glide_ecoul>
-10.5116348266602

> <r_i_glide_erotb>
0.602424750960758

> <r_i_glide_esite>
-0.0498212296110496

> <r_i_glide_emodel>
-94.3606174963529

> <r_i_glide_energy>
-64.9845886230469

> <r_i_glide_einternal>
7.60878753662109

> <i_i_glide_confnum>
12

> <i_i_glide_posenum>
370

> <r_i_glide_eff_state_penalty>
0

> <s_user_duplicate_titles>
CHEMBL3880_lig283

> <i_f3d_flags>
0

> <s_m_subgroup_title>
dock_pv

> <s_m_subgroupid>
dock_pv

> <b_m_subgroup_collapsed>
1

$$$$
CHEMBL3880_lig919
                    3D
 Schrodinger Suite 2021-1.
 53 56  0  0  1  0            999 V2000
   -1.0946   11.8250   23.3770 N   0  0  0  0  0  0
   -0.2377   12.3046   22.4418 C   0  0  0  0  0  0
    1.1213   12.2164   22.4747 N   0  0  0  0  0  0
    1.6570   11.5118   23.5163 C   0  0  0  0  0  0
   -0.8203   12.7690   21.2736 N   0  0  0  0  0  0
    3.1382   11.3698   23.5487 C   0  0  0  0  0  0
    3.7667   10.1590   23.2022 C   0  0  0  0  0  0
    5.1569   10.0578   23.2045 C   0  0  0  0  0  0
    5.9375   11.1489   23.5667 C   0  0  0  0  0  0
    5.3259   12.3391   23.9482 C   0  0  0  0  0  0
    3.9268   12.4547   23.9669 C   0  0  0  0  0  0
    3.2605   13.5920   24.3874 O   0  0  0  0  0  0
    2.8609    8.7518   22.7709 Cl  0  0  0  0  0  0
    3.9832   14.7688   24.7141 C   0  0  0  0  0  0
    4.5282   14.7690   26.1507 C   0  0  0  0  0  0
    5.6963   15.7463   26.3654 C   0  0  0  0  0  0
    7.6587   11.0221   23.5574 Cl  0  0  0  0  0  0
   -0.5189   11.1443   24.3967 C   0  0  0  0  0  0
    0.8454   10.9324   24.4925 C   0  0  0  0  0  0
    1.1619   10.0497   25.6635 C   0  0  0  0  0  0
   -0.1453    9.9014   26.3218 N   0  0  0  0  0  0
   -1.2419   10.4767   25.5324 C   0  0  0  0  0  0
   -0.3385    9.3131   27.5276 C   0  0  0  0  0  0
    0.7651    8.7431   28.0503 N   0  0  0  0  0  0
   -1.4373    9.2789   28.0850 O   0  0  0  0  0  0
    0.8353    7.9428   29.2663 C   0  0  0  0  0  0
    0.8587    6.4215   29.0612 C   0  0  0  0  0  0
    1.8026    6.3693   30.2758 C   0  0  0  0  0  0
    2.2263    7.7952   29.8933 C   0  0  0  0  0  0
    6.8887   15.4258   25.5602 C   0  0  0  0  0  0
    7.8235   15.1683   24.9278 N   0  0  0  0  0  0
   -1.8292   12.7454   21.1993 H   0  0  0  0  0  0
   -0.2459   13.1690   20.5523 H   0  0  0  0  0  0
    5.6304    9.1273   22.9278 H   0  0  0  0  0  0
    5.9615   13.1586   24.2405 H   0  0  0  0  0  0
    3.2614   15.5690   24.6175 H   0  0  0  0  0  0
    4.7513   14.9808   23.9685 H   0  0  0  0  0  0
    4.8585   13.7677   26.4075 H   0  0  0  0  0  0
    3.7176   14.9973   26.8432 H   0  0  0  0  0  0
    6.0097   15.7403   27.4096 H   0  0  0  0  0  0
    5.3885   16.7647   26.1281 H   0  0  0  0  0  0
    1.5455    9.0767   25.3540 H   0  0  0  0  0  0
    1.9002   10.4910   26.3342 H   0  0  0  0  0  0
   -1.8433   11.1689   26.1225 H   0  0  0  0  0  0
   -1.9184    9.7058   25.1664 H   0  0  0  0  0  0
    1.5758    8.6934   27.4550 H   0  0  0  0  0  0
    0.0611    8.2591   29.9672 H   0  0  0  0  0  0
   -0.1033    5.9204   29.1659 H   0  0  0  0  0  0
    1.3350    6.0974   28.1335 H   0  0  0  0  0  0
    1.2912    6.3102   31.2402 H   0  0  0  0  0  0
    2.5945    5.6205   30.2357 H   0  0  0  0  0  0
    3.0547    7.8220   29.1825 H   0  0  0  0  0  0
    2.4480    8.4696   30.7232 H   0  0  0  0  0  0
  1 18  1  0  0  0
  1  2  2  0  0  0
  2  5  1  0  0  0
  2  3  1  0  0  0
  3  4  2  0  0  0
  4 19  1  0  0  0
  4  6  1  0  0  0
  5 32  1  0  0  0
  5 33  1  0  0  0
  6  7  2  0  0  0
  6 11  1  0  0  0
  7  8  1  0  0  0
  7 13  1  0  0  0
  8  9  2  0  0  0
  8 34  1  0  0  0
  9 17  1  0  0  0
  9 10  1  0  0  0
 10 11  2  0  0  0
 10 35  1  0  0  0
 11 12  1  0  0  0
 12 14  1  0  0  0
 14 15  1  0  0  0
 14 36  1  0  0  0
 14 37  1  0  0  0
 15 16  1  0  0  0
 15 38  1  0  0  0
 15 39  1  0  0  0
 16 30  1  0  0  0
 16 40  1  0  0  0
 16 41  1  0  0  0
 18 19  2  0  0  0
 18 22  1  0  0  0
 19 20  1  0  0  0
 20 21  1  0  0  0
 20 42  1  0  0  0
 20 43  1  0  0  0
 21 22  1  0  0  0
 21 23  1  0  0  0
 22 44  1  0  0  0
 22 45  1  0  0  0
 23 24  1  0  0  0
 23 25  2  0  0  0
 24 26  1  0  0  0
 24 46  1  0  0  0
 26 27  1  0  0  0
 26 29  1  0  0  0
 26 47  1  0  0  0
 27 28  1  0  0  0
 27 48  1  0  0  0
 27 49  1  0  0  0
 28 29  1  0  0  0
 28 50  1  0  0  0
 28 51  1  0  0  0
 29 52  1  0  0  0
 29 53  1  0  0  0
 30 31  3  0  0  0
M  END
> <s_m_entry_id>
4819

> <s_m_entry_name>
dock_pv.138

> <s_m_Source_Path>
/home/csk/Desktop/cluster/DUD-E-result/hs90a

> <s_m_Source_File>
dock_pv.maegz

> <i_m_Source_File_Index>
138

> <chembl_id>
CHEMBL1774912

> <chembl_pref_name>
None

> <i_lp_mmshare_version>
53161

> <r_lp_tautomer_probability>
0.999999987636

> <s_lp_Force_Field>
OPLS_2005

> <r_lp_Energy>
45.414133

> <b_lp_Chiralities_Consistent>
1

> <s_lp_Variant>
CHEMBL3880_lig919-1

> <s_i_glide_gridfile>
glide-grid_1uyg

> <i_i_glide_lignum>
1025

> <i_i_glide_rotatable_bonds>
8

> <r_i_docking_score>
-8.5254778256511

> <r_i_glide_ligand_efficiency>
-0.275015413730681

> <r_i_glide_ligand_efficiency_sa>
-0.863928098814068

> <r_i_glide_ligand_efficiency_ln>
-1.9227565242018

> <r_i_glide_gscore>
-8.5254778256511

> <r_i_glide_lipo>
-3.50189340905607

> <r_i_glide_hbond>
0

> <r_i_glide_metal>
0

> <r_i_glide_rewards>
-2.34282671266617

> <r_i_glide_evdw>
-54.8530349731445

> <r_i_glide_ecoul>
-4.00225687026978

> <r_i_glide_erotb>
0.662232575268828

> <r_i_glide_esite>
0

> <r_i_glide_emodel>
-85.3836944059402

> <r_i_glide_energy>
-58.8552918434143

> <r_i_glide_einternal>
3.91541004180908

> <i_i_glide_confnum>
167

> <i_i_glide_posenum>
248

> <r_i_glide_eff_state_penalty>
0

> <s_user_duplicate_titles>
CHEMBL3880_lig919

> <i_f3d_flags>
0

> <s_m_subgroup_title>
dock_pv

> <s_m_subgroupid>
dock_pv

> <b_m_subgroup_collapsed>
1

$$$$
CHEMBL3880_lig278
                    3D
 Schrodinger Suite 2021-1.
 68 71  0  0  1  0            999 V2000
   -1.5003   11.0626   24.6198 C   0  0  0  0  0  0
   -1.4151   11.8250   23.4560 C   0  0  0  0  0  0
   -0.1707   12.1258   22.9002 C   0  0  0  0  0  0
    1.0105   11.7225   23.5463 C   0  0  0  0  0  0
    0.9128   10.9922   24.7307 C   0  0  0  0  0  0
   -0.3242   10.6060   25.2396 C   0  0  0  0  0  0
   -0.1447   12.7690   21.6921 O   0  0  0  0  0  0
    2.4053   12.0037   22.9801 C   0  0  0  0  0  0
    3.2480   10.7146   22.8931 C   0  0  0  0  0  0
    3.1255   13.0917   23.7983 C   0  0  0  0  0  0
   -2.7388   10.7690   25.1282 O   0  0  0  0  0  0
   -0.3393    9.7743   26.3793 N   0  0  0  0  0  0
    0.4516    8.6744   26.7075 C   0  0  0  0  0  0
    0.0598    8.3769   28.0263 C   0  0  0  0  0  0
   -0.9388    9.1690   28.3671 N   0  0  0  0  0  0
   -1.1476   10.0958   27.3882 N   0  0  0  0  0  0
    0.6155    7.3767   28.9093 C   0  0  0  0  0  0
    0.8610    7.8403   30.1482 N   0  0  0  0  0  0
    0.8850    6.2347   28.5340 O   0  0  0  0  0  0
    1.4761    7.0987   31.2422 C   0  0  0  0  0  0
    0.4260    6.4242   32.1339 C   0  0  0  0  0  0
    1.5141    8.0572   25.8409 C   0  0  0  0  0  0
    1.3241    7.8186   24.4752 C   0  0  0  0  0  0
    2.3480    7.2538   23.7121 C   0  0  0  0  0  0
    3.5610    6.8940   24.3129 C   0  0  0  0  0  0
    3.7278    7.0925   25.6841 C   0  0  0  0  0  0
    2.7270    7.6968   26.4319 C   0  0  0  0  0  0
    4.6768    6.2567   23.4726 C   0  0  0  0  0  0
    5.9298    7.0260   23.3645 N   0  0  2  0  0  0
    6.8830    6.8473   24.4733 C   0  0  0  0  0  0
    8.2009    7.6198   24.2618 C   0  0  0  0  0  0
    7.9396    9.0958   23.9299 C   0  0  0  0  0  0
    7.0551    9.1933   22.6855 C   0  0  1  0  0  0
    5.7391    8.4079   22.8917 C   0  0  0  0  0  0
    6.8256   10.5505   22.3688 O   0  0  0  0  0  0
   -2.3237   12.1450   22.9653 H   0  0  0  0  0  0
    1.8138   10.6878   25.2441 H   0  0  0  0  0  0
   -1.0338   12.9418   21.3726 H   0  0  0  0  0  0
    2.3019   12.3687   21.9601 H   0  0  0  0  0  0
    2.7131    9.9237   22.3678 H   0  0  0  0  0  0
    3.5020   10.3360   23.8823 H   0  0  0  0  0  0
    4.1880   10.8654   22.3675 H   0  0  0  0  0  0
    2.5719   14.0314   23.7783 H   0  0  0  0  0  0
    3.2439   12.7996   24.8427 H   0  0  0  0  0  0
    4.1226   13.2895   23.4046 H   0  0  0  0  0  0
   -3.4654   11.3039   24.7667 H   0  0  0  0  0  0
    0.4931    8.7541   30.3862 H   0  0  0  0  0  0
    2.1930    6.3650   30.8674 H   0  0  0  0  0  0
    2.0585    7.8039   31.8380 H   0  0  0  0  0  0
    0.9002    5.8755   32.9474 H   0  0  0  0  0  0
   -0.2325    7.1674   32.5848 H   0  0  0  0  0  0
   -0.1921    5.7263   31.5692 H   0  0  0  0  0  0
    0.3863    8.0741   24.0017 H   0  0  0  0  0  0
    2.1900    7.0898   22.6551 H   0  0  0  0  0  0
    4.6242    6.7808   26.1919 H   0  0  0  0  0  0
    2.9015    7.8670   27.4838 H   0  0  0  0  0  0
    4.8878    5.2616   23.8672 H   0  0  0  0  0  0
    4.3029    6.0937   22.4603 H   0  0  0  0  0  0
    6.4435    7.1707   25.4120 H   0  0  0  0  0  0
    7.0935    5.7825   24.5847 H   0  0  0  0  0  0
    8.8049    7.5542   25.1673 H   0  0  0  0  0  0
    8.7976    7.1348   23.4873 H   0  0  0  0  0  0
    7.4369    9.5740   24.7669 H   0  0  0  0  0  0
    8.8608    9.6513   23.7932 H   0  0  0  0  0  0
    7.6063    8.7690   21.8458 H   0  0  0  0  0  0
    5.1635    8.3983   21.9649 H   0  0  0  0  0  0
    5.1337    8.9220   23.6353 H   0  0  0  0  0  0
    7.6727   11.0024   22.3461 H   0  0  0  0  0  0
  1  2  2  0  0  0
  1  6  1  0  0  0
  1 11  1  0  0  0
  2  3  1  0  0  0
  2 36  1  0  0  0
  3  4  2  0  0  0
  3  7  1  0  0  0
  4  5  1  0  0  0
  4  8  1  0  0  0
  5  6  2  0  0  0
  5 37  1  0  0  0
  6 12  1  0  0  0
  7 38  1  0  0  0
  8  9  1  0  0  0
  8 10  1  0  0  0
  8 39  1  0  0  0
  9 40  1  0  0  0
  9 41  1  0  0  0
  9 42  1  0  0  0
 10 43  1  0  0  0
 10 44  1  0  0  0
 10 45  1  0  0  0
 11 46  1  0  0  0
 12 13  1  0  0  0
 12 16  1  0  0  0
 13 14  2  0  0  0
 13 22  1  0  0  0
 14 15  1  0  0  0
 14 17  1  0  0  0
 15 16  2  0  0  0
 17 18  1  0  0  0
 17 19  2  0  0  0
 18 20  1  0  0  0
 18 47  1  0  0  0
 20 21  1  0  0  0
 20 48  1  0  0  0
 20 49  1  0  0  0
 21 50  1  0  0  0
 21 51  1  0  0  0
 21 52  1  0  0  0
 22 23  2  0  0  0
 22 27  1  0  0  0
 23 24  1  0  0  0
 23 53  1  0  0  0
 24 25  2  0  0  0
 24 54  1  0  0  0
 25 26  1  0  0  0
 25 28  1  0  0  0
 26 27  2  0  0  0
 26 55  1  0  0  0
 27 56  1  0  0  0
 28 29  1  0  0  0
 28 57  1  0  0  0
 28 58  1  0  0  0
 29 30  1  0  0  0
 29 34  1  0  0  0
 30 31  1  0  0  0
 30 59  1  0  0  0
 30 60  1  0  0  0
 31 32  1  0  0  0
 31 61  1  0  0  0
 31 62  1  0  0  0
 32 33  1  0  0  0
 32 63  1  0  0  0
 32 64  1  0  0  0
 33 34  1  0  0  0
 33 35  1  0  0  0
 33 65  1  0  0  0
 34 66  1  0  0  0
 34 67  1  0  0  0
 35 68  1  0  0  0
M  END
> <s_m_entry_id>
4820

> <s_m_entry_name>
dock_pv.139

> <s_m_Source_Path>
/home/csk/Desktop/cluster/DUD-E-result/hs90a

> <s_m_Source_File>
dock_pv.maegz

> <i_m_Source_File_Index>
139

> <chembl_id>
CHEMBL3234765

> <chembl_pref_name>
None

> <i_lp_mmshare_version>
53161

> <r_lp_tautomer_probability>
1

> <s_lp_Force_Field>
OPLS_2005

> <r_lp_Energy>
37.885502

> <b_lp_Chiralities_Consistent>
1

> <s_lp_Variant>
CHEMBL3880_lig278-2

> <s_i_glide_gridfile>
glide-grid_1uyg

> <i_i_glide_lignum>
314

> <i_i_glide_rotatable_bonds>
11

> <r_i_docking_score>
-8.49333266371228

> <r_i_glide_ligand_efficiency>
-0.242666647534637

> <r_i_glide_ligand_efficiency_sa>
-0.793778694416239

> <r_i_glide_ligand_efficiency_ln>
-1.86447501904724

> <r_i_glide_gscore>
-8.49333266371228

> <r_i_glide_lipo>
-3.79321203864069

> <r_i_glide_hbond>
-0.454496086179254

> <r_i_glide_metal>
0

> <r_i_glide_rewards>
-0.748579967523097

> <r_i_glide_evdw>
-54.627140045166

> <r_i_glide_ecoul>
-8.6070499420166

> <r_i_glide_erotb>
0.52888012342211

> <r_i_glide_esite>
-0.00351020123056058

> <r_i_glide_emodel>
-87.9830920394005

> <r_i_glide_energy>
-63.2341899871826

> <r_i_glide_einternal>
14.743745803833

> <i_i_glide_confnum>
78

> <i_i_glide_posenum>
97

> <r_i_glide_eff_state_penalty>
0

> <s_user_duplicate_titles>
CHEMBL3880_lig278,CHEMBL3880_lig280

> <i_f3d_flags>
0

> <s_m_subgroup_title>
dock_pv

> <s_m_subgroupid>
dock_pv

> <b_m_subgroup_collapsed>
1

$$$$
CHEMBL3880_lig952
                    3D
 Schrodinger Suite 2021-1.
 60 64  0  0  1  0            999 V2000
    5.1052    7.2108   22.6578 C   0  0  0  0  0  0
    5.4186    8.7200   22.5114 C   0  0  0  0  0  0
    5.3360    9.2418   21.0536 C   0  0  0  0  0  0
    0.7193   10.7498   25.0412 C   0  0  0  0  0  0
    2.0992   10.9048   24.9042 C   0  0  0  0  0  0
    2.6444   11.9091   24.1025 C   0  0  0  0  0  0
    1.8061   12.8043   23.4477 C   0  0  0  0  0  0
    0.4314   12.6825   23.5850 C   0  0  0  0  0  0
   -0.1305   11.6561   24.3653 C   0  0  0  0  0  0
   -1.6270   11.5643   24.4781 C   0  0  0  0  0  0
   -2.1790   11.1699   25.5010 O   0  0  0  0  0  0
   -2.3383   11.9399   23.4191 N   0  0  0  0  0  0
    4.0391   11.9795   23.9495 N   0  0  0  0  0  0
    4.8529   10.9073   23.6514 C   0  0  0  0  0  0
    6.1741   11.3373   23.5994 C   0  0  0  0  0  0
    7.2760   10.4194   23.2914 C   0  0  0  0  0  0
    6.8490    8.9491   23.0908 C   0  0  0  0  0  0
    4.3659    9.4880   23.3554 C   0  0  0  0  0  0
    8.4459   10.7688   23.1771 O   0  0  0  0  0  0
    6.1823   12.7010   23.9685 C   0  0  0  0  0  0
    4.8530   13.0775   24.1393 C   0  0  0  0  0  0
    4.3985   14.4809   24.5104 C   0  0  0  0  0  0
    5.4194   15.2080   25.2740 N   0  0  2  0  0  0
    6.8028   15.0707   24.7921 C   0  0  0  0  0  0
    7.3072   13.6732   24.2979 C   0  0  0  0  0  0
    5.2679   15.0187   26.7072 C   0  0  0  0  0  0
    0.1985    9.7100   25.8404 N   0  0  0  0  0  0
    0.9686    8.5229   26.1837 C   0  0  0  0  0  0
    1.9200    8.6159   27.3526 C   0  0  0  0  0  0
    0.6235    7.8437   27.4850 C   0  0  0  0  0  0
    5.9464    6.5838   22.3671 H   0  0  0  0  0  0
    4.8829    6.9329   23.6888 H   0  0  0  0  0  0
    4.2447    6.9202   22.0530 H   0  0  0  0  0  0
    6.0590    8.7689   20.3981 H   0  0  0  0  0  0
    4.3507    9.0548   20.6244 H   0  0  0  0  0  0
    5.5208   10.3119   20.9958 H   0  0  0  0  0  0
    2.7614   10.2448   25.4397 H   0  0  0  0  0  0
    2.2075   13.5884   22.8263 H   0  0  0  0  0  0
   -0.1926   13.4057   23.0794 H   0  0  0  0  0  0
   -3.3447   11.9777   23.5607 H   0  0  0  0  0  0
   -1.9219   12.1806   22.5340 H   0  0  0  0  0  0
    6.9062    8.4966   24.0807 H   0  0  0  0  0  0
    7.6068    8.4502   22.4869 H   0  0  0  0  0  0
    4.2637    9.0015   24.3264 H   0  0  0  0  0  0
    3.3831    9.4581   22.8801 H   0  0  0  0  0  0
    4.3254   15.0099   23.5668 H   0  0  0  0  0  0
    3.4080   14.5314   24.9655 H   0  0  0  0  0  0
    6.8546   15.7601   23.9620 H   0  0  0  0  0  0
    7.5159   15.5336   25.4767 H   0  0  0  0  0  0
    7.8485   13.2198   25.1284 H   0  0  0  0  0  0
    8.0611   13.7826   23.5176 H   0  0  0  0  0  0
    6.0583   15.5218   27.2671 H   0  0  0  0  0  0
    4.3139   15.4360   27.0333 H   0  0  0  0  0  0
    5.2606   13.9690   26.9647 H   0  0  0  0  0  0
   -0.8077    9.6046   25.7986 H   0  0  0  0  0  0
    1.2435    7.8984   25.3316 H   0  0  0  0  0  0
    2.0252    9.5691   27.8700 H   0  0  0  0  0  0
    2.8619    8.0705   27.2958 H   0  0  0  0  0  0
    0.6510    6.7548   27.5188 H   0  0  0  0  0  0
   -0.1769    8.2572   28.1009 H   0  0  0  0  0  0
  1  2  1  0  0  0
  1 31  1  0  0  0
  1 32  1  0  0  0
  1 33  1  0  0  0
  2  3  1  0  0  0
  2 17  1  0  0  0
  2 18  1  0  0  0
  3 34  1  0  0  0
  3 35  1  0  0  0
  3 36  1  0  0  0
  4  5  2  0  0  0
  4  9  1  0  0  0
  4 27  1  0  0  0
  5  6  1  0  0  0
  5 37  1  0  0  0
  6  7  2  0  0  0
  6 13  1  0  0  0
  7  8  1  0  0  0
  7 38  1  0  0  0
  8  9  2  0  0  0
  8 39  1  0  0  0
  9 10  1  0  0  0
 10 11  2  0  0  0
 10 12  1  0  0  0
 12 40  1  0  0  0
 12 41  1  0  0  0
 13 21  1  0  0  0
 13 14  1  0  0  0
 14 15  2  0  0  0
 14 18  1  0  0  0
 15 20  1  0  0  0
 15 16  1  0  0  0
 16 17  1  0  0  0
 16 19  2  0  0  0
 17 42  1  0  0  0
 17 43  1  0  0  0
 18 44  1  0  0  0
 18 45  1  0  0  0
 20 21  2  0  0  0
 20 25  1  0  0  0
 21 22  1  0  0  0
 22 23  1  0  0  0
 22 46  1  0  0  0
 22 47  1  0  0  0
 23 24  1  0  0  0
 23 26  1  0  0  0
 24 25  1  0  0  0
 24 48  1  0  0  0
 24 49  1  0  0  0
 25 50  1  0  0  0
 25 51  1  0  0  0
 26 52  1  0  0  0
 26 53  1  0  0  0
 26 54  1  0  0  0
 27 28  1  0  0  0
 27 55  1  0  0  0
 28 29  1  0  0  0
 28 30  1  0  0  0
 28 56  1  0  0  0
 29 30  1  0  0  0
 29 57  1  0  0  0
 29 58  1  0  0  0
 30 59  1  0  0  0
 30 60  1  0  0  0
M  END
> <s_m_entry_id>
4822

> <s_m_entry_name>
dock_pv.141

> <s_m_Source_Path>
/home/csk/Desktop/cluster/DUD-E-result/hs90a

> <s_m_Source_File>
dock_pv.maegz

> <i_m_Source_File_Index>
141

> <chembl_id>
CHEMBL3235340

> <chembl_pref_name>
None

> <i_lp_mmshare_version>
53161

> <r_lp_tautomer_probability>
0.99995

> <s_lp_Force_Field>
OPLS_2005

> <r_lp_Energy>
48.483426

> <b_lp_Chiralities_Consistent>
1

> <s_lp_Variant>
CHEMBL3880_lig952-1

> <s_i_glide_gridfile>
glide-grid_1uyg

> <i_i_glide_lignum>
1061

> <i_i_glide_rotatable_bonds>
4

> <r_i_docking_score>
-8.48524893410768

> <r_i_glide_ligand_efficiency>
-0.282841631136923

> <r_i_glide_ligand_efficiency_sa>
-0.878854709309271

> <r_i_glide_ligand_efficiency_ln>
-1.9279410120214

> <r_i_glide_gscore>
-8.48524893410768

> <r_i_glide_lipo>
-4.40222803805963

> <r_i_glide_hbond>
-0.16

> <r_i_glide_metal>
0

> <r_i_glide_rewards>
-1.77402880564955

> <r_i_glide_evdw>
-44.3505668640137

> <r_i_glide_ecoul>
-1.61061441898346

> <r_i_glide_erotb>
0.356950231977899

> <r_i_glide_esite>
-0.0468218163281901

> <r_i_glide_emodel>
-58.4212502572325

> <r_i_glide_energy>
-45.9611812829971

> <r_i_glide_einternal>
0.562916994094849

> <i_i_glide_confnum>
1

> <i_i_glide_posenum>
14

> <r_i_glide_eff_state_penalty>
0

> <s_user_duplicate_titles>
CHEMBL3880_lig952

> <i_f3d_flags>
0

> <s_m_subgroup_title>
dock_pv

> <s_m_subgroupid>
dock_pv

> <b_m_subgroup_collapsed>
1

$$$$
CHEMBL3880_lig955
                    3D
 Schrodinger Suite 2021-1.
 62 65  0  0  1  0            999 V2000
    5.6432    9.2842   21.0601 C   0  0  0  0  0  0
    5.5227    8.7710   22.5161 C   0  0  0  0  0  0
    5.1767    7.2671   22.6186 C   0  0  0  0  0  0
    0.7647   10.7243   24.9875 C   0  0  0  0  0  0
    2.1367   10.9156   24.8403 C   0  0  0  0  0  0
    2.6507   11.9407   24.0445 C   0  0  0  0  0  0
    1.7843   12.8316   23.4198 C   0  0  0  0  0  0
    0.4146   12.6838   23.5857 C   0  0  0  0  0  0
   -0.1121   11.6338   24.3589 C   0  0  0  0  0  0
   -1.6011   11.5253   24.5206 C   0  0  0  0  0  0
   -2.1097   11.1444   25.5709 O   0  0  0  0  0  0
   -2.3390   11.8981   23.4823 N   0  0  0  0  0  0
    4.0429   12.0340   23.8855 N   0  0  0  0  0  0
    4.8650   10.9675   23.5904 C   0  0  0  0  0  0
    6.1859   11.3865   23.6442 C   0  0  0  0  0  0
    7.2918   10.4473   23.4649 C   0  0  0  0  0  0
    6.8725    8.9791   23.2639 C   0  0  0  0  0  0
    4.3904    9.5582   23.2295 C   0  0  0  0  0  0
    8.4678   10.7784   23.4625 O   0  0  0  0  0  0
    6.1825   12.7611   23.9670 C   0  0  0  0  0  0
    4.8489   13.1317   24.1107 C   0  0  0  0  0  0
    4.3814   14.5277   24.5014 C   0  0  0  0  0  0
    5.3924   15.2537   25.2811 N   0  0  2  0  0  0
    6.7757   15.1327   24.7986 C   0  0  0  0  0  0
    7.2963   13.7338   24.3311 C   0  0  0  0  0  0
    5.2502   15.0235   26.7086 C   0  0  0  0  0  0
    0.2919    9.6472   25.7668 N   0  0  0  0  0  0
    0.9639    8.3496   25.8033 C   0  0  0  0  0  0
    1.0528    7.6972   24.4093 C   0  0  0  0  0  0
    0.2729    7.4111   26.8019 C   0  0  0  0  0  0
    5.8358   10.3574   21.0107 H   0  0  0  0  0  0
    6.4586    8.7831   20.5454 H   0  0  0  0  0  0
    4.7312    9.0872   20.4950 H   0  0  0  0  0  0
    4.8805    6.9799   23.6281 H   0  0  0  0  0  0
    4.3555    7.0007   21.9521 H   0  0  0  0  0  0
    6.0268    6.6336   22.3693 H   0  0  0  0  0  0
    2.8166   10.2688   25.3703 H   0  0  0  0  0  0
    2.1581   13.6373   22.8083 H   0  0  0  0  0  0
   -0.2338   13.4077   23.1124 H   0  0  0  0  0  0
   -3.3463   11.9675   23.6465 H   0  0  0  0  0  0
   -1.9491   12.0882   22.5737 H   0  0  0  0  0  0
    6.8006    8.5568   24.2664 H   0  0  0  0  0  0
    7.6895    8.4503   22.7715 H   0  0  0  0  0  0
    3.4729    9.5566   22.6381 H   0  0  0  0  0  0
    4.1677    9.0582   24.1721 H   0  0  0  0  0  0
    3.3890   14.5618   24.9535 H   0  0  0  0  0  0
    4.3060   15.0713   23.5673 H   0  0  0  0  0  0
    7.4808   15.6057   25.4837 H   0  0  0  0  0  0
    6.8245   15.8150   23.9628 H   0  0  0  0  0  0
    8.0618   13.8467   23.5653 H   0  0  0  0  0  0
    7.8245   13.2862   25.1733 H   0  0  0  0  0  0
    6.0381   15.5198   27.2776 H   0  0  0  0  0  0
    4.2942   15.4207   27.0522 H   0  0  0  0  0  0
    5.2592   13.9690   26.9358 H   0  0  0  0  0  0
   -0.7122    9.6266   25.8977 H   0  0  0  0  0  0
    1.9772    8.4996   26.1773 H   0  0  0  0  0  0
    1.5687    6.7376   24.4530 H   0  0  0  0  0  0
    0.0610    7.5198   23.9894 H   0  0  0  0  0  0
    1.5981    8.3206   23.7013 H   0  0  0  0  0  0
    0.8224    6.4751   26.9053 H   0  0  0  0  0  0
    0.2112    7.8623   27.7934 H   0  0  0  0  0  0
   -0.7392    7.1641   26.4849 H   0  0  0  0  0  0
  1  2  1  0  0  0
  1 31  1  0  0  0
  1 32  1  0  0  0
  1 33  1  0  0  0
  2  3  1  0  0  0
  2 17  1  0  0  0
  2 18  1  0  0  0
  3 34  1  0  0  0
  3 35  1  0  0  0
  3 36  1  0  0  0
  4  5  2  0  0  0
  4  9  1  0  0  0
  4 27  1  0  0  0
  5  6  1  0  0  0
  5 37  1  0  0  0
  6  7  2  0  0  0
  6 13  1  0  0  0
  7  8  1  0  0  0
  7 38  1  0  0  0
  8  9  2  0  0  0
  8 39  1  0  0  0
  9 10  1  0  0  0
 10 11  2  0  0  0
 10 12  1  0  0  0
 12 40  1  0  0  0
 12 41  1  0  0  0
 13 21  1  0  0  0
 13 14  1  0  0  0
 14 15  2  0  0  0
 14 18  1  0  0  0
 15 20  1  0  0  0
 15 16  1  0  0  0
 16 17  1  0  0  0
 16 19  2  0  0  0
 17 42  1  0  0  0
 17 43  1  0  0  0
 18 44  1  0  0  0
 18 45  1  0  0  0
 20 21  2  0  0  0
 20 25  1  0  0  0
 21 22  1  0  0  0
 22 23  1  0  0  0
 22 46  1  0  0  0
 22 47  1  0  0  0
 23 24  1  0  0  0
 23 26  1  0  0  0
 24 25  1  0  0  0
 24 48  1  0  0  0
 24 49  1  0  0  0
 25 50  1  0  0  0
 25 51  1  0  0  0
 26 52  1  0  0  0
 26 53  1  0  0  0
 26 54  1  0  0  0
 27 28  1  0  0  0
 27 55  1  0  0  0
 28 29  1  0  0  0
 28 30  1  0  0  0
 28 56  1  0  0  0
 29 57  1  0  0  0
 29 58  1  0  0  0
 29 59  1  0  0  0
 30 60  1  0  0  0
 30 61  1  0  0  0
 30 62  1  0  0  0
M  END
> <s_m_entry_id>
4823

> <s_m_entry_name>
dock_pv.142

> <s_m_Source_Path>
/home/csk/Desktop/cluster/DUD-E-result/hs90a

> <s_m_Source_File>
dock_pv.maegz

> <i_m_Source_File_Index>
142

> <chembl_id>
CHEMBL3235343

> <chembl_pref_name>
None

> <i_lp_mmshare_version>
53161

> <r_lp_tautomer_probability>
0.99995

> <s_lp_Force_Field>
OPLS_2005

> <r_lp_Energy>
41.080336

> <b_lp_Chiralities_Consistent>
1

> <s_lp_Variant>
CHEMBL3880_lig955-1

> <s_i_glide_gridfile>
glide-grid_1uyg

> <i_i_glide_lignum>
1064

> <i_i_glide_rotatable_bonds>
4

> <r_i_docking_score>
-8.48231887385127

> <r_i_glide_ligand_efficiency>
-0.282743962461709

> <r_i_glide_ligand_efficiency_sa>
-0.878551230027178

> <r_i_glide_ligand_efficiency_ln>
-1.92727527040558

> <r_i_glide_gscore>
-8.48231887385127

> <r_i_glide_lipo>
-4.2332224487185

> <r_i_glide_hbond>
-0.16

> <r_i_glide_metal>
0

> <r_i_glide_rewards>
-1.7592244808505

> <r_i_glide_evdw>
-44.0067024230957

> <r_i_glide_ecoul>
-2.10617160797119

> <r_i_glide_erotb>
0.235853934099923

> <r_i_glide_esite>
-0.0494650160317332

> <r_i_glide_emodel>
-58.3853594160219

> <r_i_glide_energy>
-46.1128740310669

> <r_i_glide_einternal>
1.01842617988586

> <i_i_glide_confnum>
5

> <i_i_glide_posenum>
294

> <r_i_glide_eff_state_penalty>
0

> <s_user_duplicate_titles>
CHEMBL3880_lig955

> <i_f3d_flags>
0

> <s_m_subgroup_title>
dock_pv

> <s_m_subgroupid>
dock_pv

> <b_m_subgroup_collapsed>
1

$$$$
CHEMBL3880_lig951
                    3D
 Schrodinger Suite 2021-1.
 62 65  0  0  1  0            999 V2000
    5.4294    9.2734   21.0284 C   0  0  0  0  0  0
    5.4618    8.7402   22.4831 C   0  0  0  0  0  0
    5.1397    7.2307   22.6057 C   0  0  0  0  0  0
    0.7141   10.6811   24.8927 C   0  0  0  0  0  0
    2.0940   10.8593   24.7986 C   0  0  0  0  0  0
    2.6485   11.9181   24.0755 C   0  0  0  0  0  0
    1.8118   12.8616   23.4869 C   0  0  0  0  0  0
    0.4359   12.7338   23.6107 C   0  0  0  0  0  0
   -0.1285   11.6490   24.3031 C   0  0  0  0  0  0
   -1.6230   11.5689   24.4347 C   0  0  0  0  0  0
   -2.1551   11.1572   25.4627 O   0  0  0  0  0  0
   -2.3390   11.9984   23.4019 N   0  0  0  0  0  0
    4.0465   11.9919   23.9313 N   0  0  0  0  0  0
    4.8651   10.9222   23.6277 C   0  0  0  0  0  0
    6.1861   11.3484   23.6088 C   0  0  0  0  0  0
    7.2887   10.4252   23.3322 C   0  0  0  0  0  0
    6.8716    8.9584   23.1101 C   0  0  0  0  0  0
    4.3881    9.5054   23.3012 C   0  0  0  0  0  0
    8.4610   10.7690   23.2598 O   0  0  0  0  0  0
    6.1907   12.7143   23.9670 C   0  0  0  0  0  0
    4.8607   13.0887   24.1352 C   0  0  0  0  0  0
    4.4086   14.4935   24.5109 C   0  0  0  0  0  0
    5.4291   15.2185   25.2771 N   0  0  2  0  0  0
    6.8096   15.0842   24.7903 C   0  0  0  0  0  0
    7.3139   13.6852   24.3047 C   0  0  0  0  0  0
    5.2841   15.0189   26.7097 C   0  0  0  0  0  0
    0.1793    9.5524   25.5509 N   0  0  0  0  0  0
    0.9704    8.4557   26.1010 C   0  0  0  0  0  0
    1.3455    8.6496   27.5800 C   0  0  0  0  0  0
    0.1370    8.6872   28.5295 C   0  0  0  0  0  0
    5.6607   10.3347   20.9792 H   0  0  0  0  0  0
    6.1462    8.7690   20.3896 H   0  0  0  0  0  0
    4.4469    9.1302   20.5773 H   0  0  0  0  0  0
    4.8541    6.9478   23.6194 H   0  0  0  0  0  0
    4.3190    6.9421   21.9477 H   0  0  0  0  0  0
    5.9974    6.6040   22.3670 H   0  0  0  0  0  0
    2.7515   10.1700   25.3014 H   0  0  0  0  0  0
    2.2142   13.6957   22.9349 H   0  0  0  0  0  0
   -0.1871   13.4983   23.1674 H   0  0  0  0  0  0
   -3.3493   12.0255   23.5507 H   0  0  0  0  0  0
   -1.9351   12.2194   22.5069 H   0  0  0  0  0  0
    6.8957    8.5014   24.0993 H   0  0  0  0  0  0
    7.6490    8.4617   22.5280 H   0  0  0  0  0  0
    3.4193    9.4805   22.7985 H   0  0  0  0  0  0
    4.2637    9.0058   24.2625 H   0  0  0  0  0  0
    3.4192   14.5457   24.9676 H   0  0  0  0  0  0
    4.3362   15.0223   23.5671 H   0  0  0  0  0  0
    7.5239   15.5520   25.4698 H   0  0  0  0  0  0
    6.8580   15.7688   23.9566 H   0  0  0  0  0  0
    8.0614   13.7962   23.5211 H   0  0  0  0  0  0
    7.8568   13.2336   25.1352 H   0  0  0  0  0  0
    6.0847   15.5044   27.2695 H   0  0  0  0  0  0
    4.3401   15.4497   27.0459 H   0  0  0  0  0  0
    5.2609   13.9690   26.9580 H   0  0  0  0  0  0
   -0.7938    9.6147   25.8244 H   0  0  0  0  0  0
    1.8559    8.2537   25.4979 H   0  0  0  0  0  0
    0.3550    7.5612   25.9958 H   0  0  0  0  0  0
    1.9216    9.5688   27.6909 H   0  0  0  0  0  0
    2.0148    7.8441   27.8837 H   0  0  0  0  0  0
    0.4620    8.7689   29.5670 H   0  0  0  0  0  0
   -0.5108    9.5395   28.3204 H   0  0  0  0  0  0
   -0.4644    7.7820   28.4435 H   0  0  0  0  0  0
  1  2  1  0  0  0
  1 31  1  0  0  0
  1 32  1  0  0  0
  1 33  1  0  0  0
  2  3  1  0  0  0
  2 17  1  0  0  0
  2 18  1  0  0  0
  3 34  1  0  0  0
  3 35  1  0  0  0
  3 36  1  0  0  0
  4  5  2  0  0  0
  4  9  1  0  0  0
  4 27  1  0  0  0
  5  6  1  0  0  0
  5 37  1  0  0  0
  6  7  2  0  0  0
  6 13  1  0  0  0
  7  8  1  0  0  0
  7 38  1  0  0  0
  8  9  2  0  0  0
  8 39  1  0  0  0
  9 10  1  0  0  0
 10 11  2  0  0  0
 10 12  1  0  0  0
 12 40  1  0  0  0
 12 41  1  0  0  0
 13 21  1  0  0  0
 13 14  1  0  0  0
 14 15  2  0  0  0
 14 18  1  0  0  0
 15 20  1  0  0  0
 15 16  1  0  0  0
 16 17  1  0  0  0
 16 19  2  0  0  0
 17 42  1  0  0  0
 17 43  1  0  0  0
 18 44  1  0  0  0
 18 45  1  0  0  0
 20 21  2  0  0  0
 20 25  1  0  0  0
 21 22  1  0  0  0
 22 23  1  0  0  0
 22 46  1  0  0  0
 22 47  1  0  0  0
 23 24  1  0  0  0
 23 26  1  0  0  0
 24 25  1  0  0  0
 24 48  1  0  0  0
 24 49  1  0  0  0
 25 50  1  0  0  0
 25 51  1  0  0  0
 26 52  1  0  0  0
 26 53  1  0  0  0
 26 54  1  0  0  0
 27 28  1  0  0  0
 27 55  1  0  0  0
 28 29  1  0  0  0
 28 56  1  0  0  0
 28 57  1  0  0  0
 29 30  1  0  0  0
 29 58  1  0  0  0
 29 59  1  0  0  0
 30 60  1  0  0  0
 30 61  1  0  0  0
 30 62  1  0  0  0
M  END
> <s_m_entry_id>
4824

> <s_m_entry_name>
dock_pv.143

> <s_m_Source_Path>
/home/csk/Desktop/cluster/DUD-E-result/hs90a

> <s_m_Source_File>
dock_pv.maegz

> <i_m_Source_File_Index>
143

> <chembl_id>
CHEMBL3235339

> <chembl_pref_name>
None

> <i_lp_mmshare_version>
53161

> <r_lp_tautomer_probability>
0.99995

> <s_lp_Force_Field>
OPLS_2005

> <r_lp_Energy>
41.022842

> <b_lp_Chiralities_Consistent>
1

> <s_lp_Variant>
CHEMBL3880_lig951-1

> <s_i_glide_gridfile>
glide-grid_1uyg

> <i_i_glide_lignum>
1060

> <i_i_glide_rotatable_bonds>
5

> <r_i_docking_score>
-8.475881050869

> <r_i_glide_ligand_efficiency>
-0.2825293683623

> <r_i_glide_ligand_efficiency_sa>
-0.877884436266665

> <r_i_glide_ligand_efficiency_ln>
-1.92581252687831

> <r_i_glide_gscore>
-8.475881050869

> <r_i_glide_lipo>
-4.32620259723158

> <r_i_glide_hbond>
-0.16

> <r_i_glide_metal>
0

> <r_i_glide_rewards>
-1.75026971923946

> <r_i_glide_evdw>
-45.9572639465332

> <r_i_glide_ecoul>
-1.64548814296722

> <r_i_glide_erotb>
0.353780901149884

> <r_i_glide_esite>
-0.0485032167760974

> <r_i_glide_emodel>
-59.52867533629

> <r_i_glide_energy>
-47.6027520895004

> <r_i_glide_einternal>
2.97154092788696

> <i_i_glide_confnum>
29

> <i_i_glide_posenum>
200

> <r_i_glide_eff_state_penalty>
0

> <s_user_duplicate_titles>
CHEMBL3880_lig951

> <i_f3d_flags>
0

> <s_m_subgroup_title>
dock_pv

> <s_m_subgroupid>
dock_pv

> <b_m_subgroup_collapsed>
1

$$$$
CHEMBL3880_lig428
                    3D
 Schrodinger Suite 2021-1.
 54 57  0  0  1  0            999 V2000
    8.6878   14.2487   25.5690 C   0  0  0  0  0  0
    8.4566   13.1857   24.7671 N   0  0  0  0  0  0
    7.1827   13.0616   24.3676 C   0  0  0  0  0  0
    6.1266   13.9400   24.7669 C   0  0  0  0  0  0
    6.5077   15.0212   25.5816 C   0  0  0  0  0  0
    7.7946   15.1689   25.9845 N   0  0  0  0  0  0
    6.6337   12.0371   23.6053 N   0  0  0  0  0  0
    4.8949   13.4020   24.2620 C   0  0  0  0  0  0
    5.2702   12.2646   23.5670 C   0  0  0  0  0  0
    9.9812   14.3913   26.0409 N   0  0  0  0  0  0
    7.3635   10.9321   22.9482 C   0  0  0  0  0  0
    6.5717    9.6274   22.7507 C   0  0  0  0  0  0
    6.7629    8.4627   23.5240 C   0  0  0  0  0  0
    5.8615    7.3946   23.3471 C   0  0  0  0  0  0
    4.8594    7.4850   22.3669 C   0  0  0  0  0  0
    4.8010    8.6402   21.5904 C   0  0  0  0  0  0
    5.6341    9.6907   21.7679 N   0  0  0  0  0  0
    3.8890    6.3466   22.0903 C   0  0  0  0  0  0
    7.9258    8.3214   24.5009 C   0  0  0  0  0  0
    5.9793    6.2570   24.1106 O   0  0  0  0  0  0
    5.1299    6.2360   25.2513 C   0  0  0  0  0  0
    5.3248   16.1353   26.1667 Cl  0  0  0  0  0  0
    3.5075   13.9700   24.4962 C   0  0  0  0  0  0
    2.3158   13.0533   24.2349 C   0  0  0  0  0  0
    1.2060   13.5692   23.5670 C   0  0  0  0  0  0
    0.0361   12.8222   23.4684 C   0  0  0  0  0  0
   -0.0315   11.5587   24.0510 C   0  0  0  0  0  0
    1.0923   11.0140   24.6760 C   0  0  0  0  0  0
    2.2652   11.7608   24.7667 C   0  0  0  0  0  0
   -1.3408   10.7923   24.0139 C   0  0  0  0  0  0
    4.6243   11.5801   23.0412 H   0  0  0  0  0  0
   10.0927   15.0305   26.8144 H   0  0  0  0  0  0
   10.5718   13.5792   25.9636 H   0  0  0  0  0  0
    7.6903   11.3012   21.9751 H   0  0  0  0  0  0
    8.2802   10.7467   23.5077 H   0  0  0  0  0  0
    4.0619    8.7381   20.8085 H   0  0  0  0  0  0
    4.3134    5.3814   22.3672 H   0  0  0  0  0  0
    2.9549    6.4951   22.6321 H   0  0  0  0  0  0
    3.6583    6.2872   21.0261 H   0  0  0  0  0  0
    7.8497    7.4382   25.1346 H   0  0  0  0  0  0
    8.8602    8.2589   23.9471 H   0  0  0  0  0  0
    7.9983    9.1718   25.1669 H   0  0  0  0  0  0
    5.3074    5.3215   25.8170 H   0  0  0  0  0  0
    5.3267    7.0802   25.9145 H   0  0  0  0  0  0
    4.0751    6.2539   24.9725 H   0  0  0  0  0  0
    3.3964   14.9170   23.9678 H   0  0  0  0  0  0
    3.4241   14.2182   25.5541 H   0  0  0  0  0  0
    1.2385   14.5692   23.1609 H   0  0  0  0  0  0
   -0.8310   13.2412   22.9779 H   0  0  0  0  0  0
    1.0494   10.0318   25.1237 H   0  0  0  0  0  0
    3.1123   11.3576   25.3028 H   0  0  0  0  0  0
   -1.7319   10.7684   22.9968 H   0  0  0  0  0  0
   -1.2286    9.7656   24.3653 H   0  0  0  0  0  0
   -2.0888   11.2923   24.6302 H   0  0  0  0  0  0
  1  2  1  0  0  0
  1  6  2  0  0  0
  1 10  1  0  0  0
  2  3  2  0  0  0
  3  4  1  0  0  0
  3  7  1  0  0  0
  4  5  2  0  0  0
  4  8  1  0  0  0
  5  6  1  0  0  0
  5 22  1  0  0  0
  7  9  1  0  0  0
  7 11  1  0  0  0
  8  9  2  0  0  0
  8 23  1  0  0  0
  9 31  1  0  0  0
 10 32  1  0  0  0
 10 33  1  0  0  0
 11 12  1  0  0  0
 11 34  1  0  0  0
 11 35  1  0  0  0
 12 13  1  0  0  0
 12 17  2  0  0  0
 13 14  2  0  0  0
 13 19  1  0  0  0
 14 15  1  0  0  0
 14 20  1  0  0  0
 15 16  2  0  0  0
 15 18  1  0  0  0
 16 17  1  0  0  0
 16 36  1  0  0  0
 18 37  1  0  0  0
 18 38  1  0  0  0
 18 39  1  0  0  0
 19 40  1  0  0  0
 19 41  1  0  0  0
 19 42  1  0  0  0
 20 21  1  0  0  0
 21 43  1  0  0  0
 21 44  1  0  0  0
 21 45  1  0  0  0
 23 24  1  0  0  0
 23 46  1  0  0  0
 23 47  1  0  0  0
 24 25  1  0  0  0
 24 29  2  0  0  0
 25 26  2  0  0  0
 25 48  1  0  0  0
 26 27  1  0  0  0
 26 49  1  0  0  0
 27 28  2  0  0  0
 27 30  1  0  0  0
 28 29  1  0  0  0
 28 50  1  0  0  0
 29 51  1  0  0  0
 30 52  1  0  0  0
 30 53  1  0  0  0
 30 54  1  0  0  0
M  END
> <s_m_entry_id>
4825

> <s_m_entry_name>
dock_pv.144

> <s_m_Source_Path>
/home/csk/Desktop/cluster/DUD-E-result/hs90a

> <s_m_Source_File>
dock_pv.maegz

> <i_m_Source_File_Index>
144

> <chembl_id>
CHEMBL3929614

> <chembl_pref_name>
None

> <i_lp_mmshare_version>
53161

> <r_lp_tautomer_probability>
1

> <s_lp_Force_Field>
OPLS_2005

> <r_lp_Energy>
12.367557

> <b_lp_Chiralities_Consistent>
1

> <s_lp_Variant>
CHEMBL3880_lig428-1

> <s_i_glide_gridfile>
glide-grid_1uyg

> <i_i_glide_lignum>
470

> <i_i_glide_rotatable_bonds>
5

> <r_i_docking_score>
-8.46329868826418

> <r_i_glide_ligand_efficiency>
-0.282109956275473

> <r_i_glide_ligand_efficiency_sa>
-0.876581225398562

> <r_i_glide_ligand_efficiency_ln>
-1.92295367699867

> <r_i_glide_gscore>
-8.46329868826418

> <r_i_glide_lipo>
-4.07621275259787

> <r_i_glide_hbond>
-0.00225793795554839

> <r_i_glide_metal>
0

> <r_i_glide_rewards>
-2.19556544325649

> <r_i_glide_evdw>
-48.0088233947754

> <r_i_glide_ecoul>
-1.55899918079376

> <r_i_glide_erotb>
0.445028492403562

> <r_i_glide_esite>
0

> <r_i_glide_emodel>
-68.9693670833646

> <r_i_glide_energy>
-49.5678225755692

> <r_i_glide_einternal>
7.15826368331909

> <i_i_glide_confnum>
14

> <i_i_glide_posenum>
340

> <r_i_glide_eff_state_penalty>
0

> <s_user_duplicate_titles>
CHEMBL3880_lig428

> <i_f3d_flags>
0

> <s_m_subgroup_title>
dock_pv

> <s_m_subgroupid>
dock_pv

> <b_m_subgroup_collapsed>
1

$$$$
CHEMBL3880_lig289
                    3D
 Schrodinger Suite 2021-1.
 75 78  0  0  1  0            999 V2000
    0.0477    9.5118   27.1656 C   0  0  0  0  0  0
    0.8394    8.7518   28.0222 C   0  0  0  0  0  0
    1.9161    8.0189   27.5249 C   0  0  0  0  0  0
    2.1892    8.0032   26.1465 C   0  0  0  0  0  0
    1.3698    8.7507   25.2904 C   0  0  0  0  0  0
    0.3462    9.5552   25.7964 C   0  0  0  0  0  0
    2.6816    7.3125   28.4160 O   0  0  0  0  0  0
    3.3450    7.1717   25.5691 C   0  0  0  0  0  0
    4.0955    7.8581   24.4032 C   0  0  0  0  0  0
    2.8653    5.7640   25.1688 C   0  0  0  0  0  0
   -1.0243   10.1832   27.6942 O   0  0  0  0  0  0
   -0.4442   10.3113   24.9073 N   0  0  0  0  0  0
   -0.1713   11.4111   24.0990 C   0  0  0  0  0  0
   -1.4187   11.6528   23.4689 C   0  0  0  0  0  0
   -2.3255   10.8317   23.9674 N   0  0  0  0  0  0
   -1.7185    9.9690   24.8224 N   0  0  0  0  0  0
   -1.7648   12.6176   22.4509 C   0  0  0  0  0  0
   -2.8951   13.2639   22.7667 N   0  0  0  0  0  0
   -1.1023   12.7722   21.4248 O   0  0  0  0  0  0
   -3.8351   14.0307   21.9625 C   0  0  0  0  0  0
   -5.2688   13.9759   22.5720 C   0  0  0  0  0  0
    1.1073   12.1976   24.0855 C   0  0  0  0  0  0
    2.3938   11.6735   24.2688 C   0  0  0  0  0  0
    3.4888   12.5200   24.4323 C   0  0  0  0  0  0
    3.3110   13.9032   24.3670 C   0  0  0  0  0  0
    2.0559   14.4144   24.0602 C   0  0  0  0  0  0
    0.9622   13.5768   23.9569 C   0  0  0  0  0  0
    4.4285   14.9150   24.5722 C   0  0  0  0  0  0
    5.6471   14.4318   25.2277 N   0  0  1  0  0  0
    6.5775   13.9595   24.2031 C   0  0  0  0  0  0
    7.8449   13.3823   24.8081 C   0  0  0  0  0  0
    8.5991   14.3656   25.7350 C   0  0  0  0  0  0
    7.5852   15.0356   26.6938 C   0  0  0  0  0  0
    6.2777   15.5038   26.0125 C   0  0  0  0  0  0
    9.7706   13.7975   26.4179 N   0  0  0  0  0  0
   10.6038   12.9558   25.5677 C   0  0  0  0  0  0
   10.5998   14.7966   27.0962 C   0  0  0  0  0  0
    0.6167    8.7349   29.0802 H   0  0  0  0  0  0
    1.5286    8.7143   24.2216 H   0  0  0  0  0  0
    2.5351    7.5859   29.3243 H   0  0  0  0  0  0
    4.0917    7.0483   26.3583 H   0  0  0  0  0  0
    4.3870    8.8767   24.6679 H   0  0  0  0  0  0
    3.4918    7.9039   23.4942 H   0  0  0  0  0  0
    5.0074    7.3136   24.1523 H   0  0  0  0  0  0
    2.4010    5.2507   26.0145 H   0  0  0  0  0  0
    2.1313    5.8031   24.3604 H   0  0  0  0  0  0
    3.6964    5.1446   24.8297 H   0  0  0  0  0  0
   -1.1240   10.0035   28.6312 H   0  0  0  0  0  0
   -3.3495   12.9067   23.6046 H   0  0  0  0  0  0
   -3.5370   15.0698   21.8452 H   0  0  0  0  0  0
   -3.8317   13.5771   20.9732 H   0  0  0  0  0  0
   -5.9372   14.7689   22.3581 H   0  0  0  0  0  0
   -5.9367   13.1691   22.3588 H   0  0  0  0  0  0
   -5.2275   13.9816   23.6300 H   0  0  0  0  0  0
    2.5781   10.6208   24.3221 H   0  0  0  0  0  0
    4.4591   12.0931   24.6361 H   0  0  0  0  0  0
    1.9014   15.4775   23.9658 H   0  0  0  0  0  0
   -0.0071   14.0302   23.8210 H   0  0  0  0  0  0
    4.6603   15.2383   23.5674 H   0  0  0  0  0  0
    4.0150   15.7698   25.1127 H   0  0  0  0  0  0
    6.1006   13.2066   23.5723 H   0  0  0  0  0  0
    6.8485   14.7963   23.5669 H   0  0  0  0  0  0
    7.5823   12.4638   25.3151 H   0  0  0  0  0  0
    8.4604   13.0936   23.9674 H   0  0  0  0  0  0
    8.9240   15.1746   25.0757 H   0  0  0  0  0  0
    8.0455   15.8775   27.1937 H   0  0  0  0  0  0
    7.3056   14.3701   27.4989 H   0  0  0  0  0  0
    6.4626   16.3687   25.3701 H   0  0  0  0  0  0
    5.5755   15.8405   26.7788 H   0  0  0  0  0  0
   11.2608   12.3697   26.1843 H   0  0  0  0  0  0
   10.0364   12.1909   25.0407 H   0  0  0  0  0  0
   11.1970   13.5294   24.8517 H   0  0  0  0  0  0
   11.4749   14.3314   27.5538 H   0  0  0  0  0  0
   10.9446   15.5653   26.4026 H   0  0  0  0  0  0
   10.0600   15.2845   27.9073 H   0  0  0  0  0  0
  1  2  2  0  0  0
  1  6  1  0  0  0
  1 11  1  0  0  0
  2  3  1  0  0  0
  2 38  1  0  0  0
  3  4  2  0  0  0
  3  7  1  0  0  0
  4  5  1  0  0  0
  4  8  1  0  0  0
  5  6  2  0  0  0
  5 39  1  0  0  0
  6 12  1  0  0  0
  7 40  1  0  0  0
  8  9  1  0  0  0
  8 10  1  0  0  0
  8 41  1  0  0  0
  9 42  1  0  0  0
  9 43  1  0  0  0
  9 44  1  0  0  0
 10 45  1  0  0  0
 10 46  1  0  0  0
 10 47  1  0  0  0
 11 48  1  0  0  0
 12 13  1  0  0  0
 12 16  1  0  0  0
 13 14  2  0  0  0
 13 22  1  0  0  0
 14 15  1  0  0  0
 14 17  1  0  0  0
 15 16  2  0  0  0
 17 18  1  0  0  0
 17 19  2  0  0  0
 18 20  1  0  0  0
 18 49  1  0  0  0
 20 21  1  0  0  0
 20 50  1  0  0  0
 20 51  1  0  0  0
 21 52  1  0  0  0
 21 53  1  0  0  0
 21 54  1  0  0  0
 22 23  2  0  0  0
 22 27  1  0  0  0
 23 24  1  0  0  0
 23 55  1  0  0  0
 24 25  2  0  0  0
 24 56  1  0  0  0
 25 26  1  0  0  0
 25 28  1  0  0  0
 26 27  2  0  0  0
 26 57  1  0  0  0
 27 58  1  0  0  0
 28 29  1  0  0  0
 28 59  1  0  0  0
 28 60  1  0  0  0
 29 30  1  0  0  0
 29 34  1  0  0  0
 30 31  1  0  0  0
 30 61  1  0  0  0
 30 62  1  0  0  0
 31 32  1  0  0  0
 31 63  1  0  0  0
 31 64  1  0  0  0
 32 33  1  0  0  0
 32 35  1  0  0  0
 32 65  1  0  0  0
 33 34  1  0  0  0
 33 66  1  0  0  0
 33 67  1  0  0  0
 34 68  1  0  0  0
 34 69  1  0  0  0
 35 36  1  0  0  0
 35 37  1  0  0  0
 36 70  1  0  0  0
 36 71  1  0  0  0
 36 72  1  0  0  0
 37 73  1  0  0  0
 37 74  1  0  0  0
 37 75  1  0  0  0
M  END
> <s_m_entry_id>
4826

> <s_m_entry_name>
dock_pv.145

> <s_m_Source_Path>
/home/csk/Desktop/cluster/DUD-E-result/hs90a

> <s_m_Source_File>
dock_pv.maegz

> <i_m_Source_File_Index>
145

> <chembl_id>
CHEMBL3234776

> <chembl_pref_name>
None

> <i_lp_mmshare_version>
53161

> <r_lp_tautomer_probability>
1

> <s_lp_Force_Field>
OPLS_2005

> <r_lp_Energy>
42.229434

> <b_lp_Chiralities_Consistent>
1

> <s_lp_Variant>
CHEMBL3880_lig289-1

> <s_i_glide_gridfile>
glide-grid_1uyg

> <i_i_glide_lignum>
326

> <i_i_glide_rotatable_bonds>
11

> <r_i_docking_score>
-8.45614896472214

> <r_i_glide_ligand_efficiency>
-0.228544566614112

> <r_i_glide_ligand_efficiency_sa>
-0.761561198029853

> <r_i_glide_ligand_efficiency_ln>
-1.83394047018998

> <r_i_glide_gscore>
-8.45614896472214

> <r_i_glide_lipo>
-5.44045384405044

> <r_i_glide_hbond>
-0.14117933975728

> <r_i_glide_metal>
0

> <r_i_glide_rewards>
-1.08324410091663

> <r_i_glide_evdw>
-27.5267772674561

> <r_i_glide_ecoul>
-5.63368368148804

> <r_i_glide_erotb>
0.478285546793806

> <r_i_glide_esite>
-0.0481658111955965

> <r_i_glide_emodel>
-32.2087252966718

> <r_i_glide_energy>
-33.1604609489441

> <r_i_glide_einternal>
19.3356895446777

> <i_i_glide_confnum>
16

> <i_i_glide_posenum>
41

> <r_i_glide_eff_state_penalty>
0

> <s_user_duplicate_titles>
CHEMBL3880_lig289

> <i_f3d_flags>
0

> <s_m_subgroup_title>
dock_pv

> <s_m_subgroupid>
dock_pv

> <b_m_subgroup_collapsed>
1

$$$$
CHEMBL3880_lig923
                    3D
 Schrodinger Suite 2021-1.
 58 62  0  0  1  0            999 V2000
    0.0863   13.1647   23.6625 N   0  0  0  0  0  0
   -0.5724   11.9904   23.8456 C   0  0  0  0  0  0
   -0.0391   10.8523   24.3620 N   0  0  0  0  0  0
    1.2878   10.8734   24.6764 C   0  0  0  0  0  0
   -1.9157   11.9536   23.4920 N   0  0  0  0  0  0
    1.8559    9.5943   25.1920 C   0  0  0  0  0  0
    1.3328    8.9809   26.3487 C   0  0  0  0  0  0
    1.8626    7.7777   26.8120 C   0  0  0  0  0  0
    2.9097    7.1659   26.1360 C   0  0  0  0  0  0
    3.4350    7.7568   24.9917 C   0  0  0  0  0  0
    2.9230    8.9720   24.5136 C   0  0  0  0  0  0
    3.4473    9.5938   23.3927 O   0  0  0  0  0  0
    0.0329    9.6783   27.2598 Cl  0  0  0  0  0  0
    3.9188    8.7976   22.3027 C   0  0  0  0  0  0
    5.4415    8.5482   22.2904 C   0  0  0  0  0  0
    6.2328    9.7818   22.2546 N   0  0  0  0  0  0
    3.5621    5.6772   26.7176 Cl  0  0  0  0  0  0
    1.3863   13.1638   24.0537 C   0  0  0  0  0  0
    2.0466   12.0420   24.5256 C   0  0  0  0  0  0
    3.4943   12.3751   24.8110 C   0  0  0  0  0  0
    3.5156   13.8413   24.7127 N   0  0  0  0  0  0
    2.2786   14.3670   24.1335 C   0  0  0  0  0  0
    4.5766   14.6553   24.9497 C   0  0  0  0  0  0
    5.7838   14.0976   24.7681 N   0  0  0  0  0  0
    4.4561   15.8612   25.1703 O   0  0  0  0  0  0
    7.0630   14.7864   24.9717 C   0  0  0  0  0  0
    7.9593   14.2370   26.0858 C   0  0  0  0  0  0
    9.1485   14.5550   25.1660 C   0  0  0  0  0  0
    8.1664   14.4149   23.9860 C   0  0  0  0  0  0
    7.6867    9.6187   22.1290 C   0  0  0  0  0  0
    7.8835    9.8922   23.6102 C   0  0  0  0  0  0
    6.4701   10.4521   23.5398 C   0  0  0  0  0  0
    8.8387   10.7689   23.9217 F   0  0  0  0  0  0
    8.0274    8.8008   24.3663 F   0  0  0  0  0  0
   -2.4725   11.1619   23.7778 H   0  0  0  0  0  0
   -2.3757   12.8079   23.2133 H   0  0  0  0  0  0
    1.4577    7.3206   27.7029 H   0  0  0  0  0  0
    4.2512    7.2638   24.4906 H   0  0  0  0  0  0
    3.3764    7.8517   22.2377 H   0  0  0  0  0  0
    3.6627    9.3356   21.3917 H   0  0  0  0  0  0
    5.7538    7.9234   23.1277 H   0  0  0  0  0  0
    5.6610    7.9700   21.3929 H   0  0  0  0  0  0
    4.1761   11.9203   24.0948 H   0  0  0  0  0  0
    3.7980   12.0587   25.8091 H   0  0  0  0  0  0
    1.8633   15.1683   24.7345 H   0  0  0  0  0  0
    2.4604   14.7975   23.1670 H   0  0  0  0  0  0
    5.8298   13.1147   24.5608 H   0  0  0  0  0  0
    6.9152   15.8699   25.0548 H   0  0  0  0  0  0
    7.8496   13.1690   26.2681 H   0  0  0  0  0  0
    7.9238   14.7710   27.0364 H   0  0  0  0  0  0
    9.9657   13.8329   25.1942 H   0  0  0  0  0  0
    9.5474   15.5632   25.2948 H   0  0  0  0  0  0
    8.2974   15.1167   23.1669 H   0  0  0  0  0  0
    8.0780   13.3991   23.5945 H   0  0  0  0  0  0
    8.0256    8.6414   21.7840 H   0  0  0  0  0  0
    8.1318   10.3938   21.5030 H   0  0  0  0  0  0
    6.4648   11.5387   23.4406 H   0  0  0  0  0  0
    5.7994   10.1660   24.3533 H   0  0  0  0  0  0
  1 18  1  0  0  0
  1  2  2  0  0  0
  2  5  1  0  0  0
  2  3  1  0  0  0
  3  4  2  0  0  0
  4 19  1  0  0  0
  4  6  1  0  0  0
  5 35  1  0  0  0
  5 36  1  0  0  0
  6 11  1  0  0  0
  6  7  2  0  0  0
  7  8  1  0  0  0
  7 13  1  0  0  0
  8  9  2  0  0  0
  8 37  1  0  0  0
  9 17  1  0  0  0
  9 10  1  0  0  0
 10 11  2  0  0  0
 10 38  1  0  0  0
 11 12  1  0  0  0
 12 14  1  0  0  0
 14 15  1  0  0  0
 14 39  1  0  0  0
 14 40  1  0  0  0
 15 16  1  0  0  0
 15 41  1  0  0  0
 15 42  1  0  0  0
 16 30  1  0  0  0
 16 32  1  0  0  0
 18 19  2  0  0  0
 18 22  1  0  0  0
 19 20  1  0  0  0
 20 21  1  0  0  0
 20 43  1  0  0  0
 20 44  1  0  0  0
 21 22  1  0  0  0
 21 23  1  0  0  0
 22 45  1  0  0  0
 22 46  1  0  0  0
 23 24  1  0  0  0
 23 25  2  0  0  0
 24 26  1  0  0  0
 24 47  1  0  0  0
 26 27  1  0  0  0
 26 29  1  0  0  0
 26 48  1  0  0  0
 27 28  1  0  0  0
 27 49  1  0  0  0
 27 50  1  0  0  0
 28 29  1  0  0  0
 28 51  1  0  0  0
 28 52  1  0  0  0
 29 53  1  0  0  0
 29 54  1  0  0  0
 30 31  1  0  0  0
 30 55  1  0  0  0
 30 56  1  0  0  0
 31 32  1  0  0  0
 31 33  1  0  0  0
 31 34  1  0  0  0
 32 57  1  0  0  0
 32 58  1  0  0  0
M  END
> <s_m_entry_id>
4827

> <s_m_entry_name>
dock_pv.146

> <s_m_Source_Path>
/home/csk/Desktop/cluster/DUD-E-result/hs90a

> <s_m_Source_File>
dock_pv.maegz

> <i_m_Source_File_Index>
146

> <chembl_id>
CHEMBL1774916

> <chembl_pref_name>
None

> <i_lp_mmshare_version>
53161

> <r_lp_tautomer_probability>
0.999999987636

> <s_lp_Force_Field>
OPLS_2005

> <r_lp_Energy>
62.358835

> <b_lp_Chiralities_Consistent>
1

> <s_lp_Variant>
CHEMBL3880_lig923-1

> <s_i_glide_gridfile>
glide-grid_1uyg

> <i_i_glide_lignum>
1029

> <i_i_glide_rotatable_bonds>
8

> <r_i_docking_score>
-8.45472685840536

> <r_i_glide_ligand_efficiency>
-0.248668437011922

> <r_i_glide_ligand_efficiency_sa>
-0.805589202202118

> <r_i_glide_ligand_efficiency_ln>
-1.86788631007742

> <r_i_glide_gscore>
-8.45472685840536

> <r_i_glide_lipo>
-3.87517757399895

> <r_i_glide_hbond>
0

> <r_i_glide_metal>
0

> <r_i_glide_rewards>
-2.22541699519284

> <r_i_glide_evdw>
-49.0406761169434

> <r_i_glide_ecoul>
-2.97830653190613

> <r_i_glide_erotb>
0.544647496419518

> <r_i_glide_esite>
0

> <r_i_glide_emodel>
-73.3633297254877

> <r_i_glide_energy>
-52.0189826488495

> <r_i_glide_einternal>
6.83318567276001

> <i_i_glide_confnum>
37

> <i_i_glide_posenum>
119

> <r_i_glide_eff_state_penalty>
0

> <s_user_duplicate_titles>
CHEMBL3880_lig923

> <i_f3d_flags>
0

> <s_m_subgroup_title>
dock_pv

> <s_m_subgroupid>
dock_pv

> <b_m_subgroup_collapsed>
1

$$$$
CHEMBL3880_lig924
                    3D
 Schrodinger Suite 2021-1.
 57 60  0  0  1  0            999 V2000
    0.2245   13.1602   23.5761 N   0  0  0  0  0  0
   -0.4087   11.9688   23.7046 C   0  0  0  0  0  0
    0.1422   10.8291   24.1898 N   0  0  0  0  0  0
    1.4599   10.8706   24.5409 C   0  0  0  0  0  0
   -1.7399   11.9138   23.3136 N   0  0  0  0  0  0
    2.0136    9.5859   25.0506 C   0  0  0  0  0  0
    1.5154    9.0093   26.2365 C   0  0  0  0  0  0
    2.0143    7.7934   26.6971 C   0  0  0  0  0  0
    2.9913    7.1205   25.9750 C   0  0  0  0  0  0
    3.4800    7.6684   24.7932 C   0  0  0  0  0  0
    3.0202    8.9126   24.3305 C   0  0  0  0  0  0
    3.4778    9.5001   23.1629 O   0  0  0  0  0  0
    0.2696    9.7709   27.1673 Cl  0  0  0  0  0  0
    4.6003    8.9712   22.4515 C   0  0  0  0  0  0
    5.9157    9.0401   23.2716 C   0  0  0  0  0  0
    7.1330    9.0674   22.4607 N   0  0  2  0  0  0
    3.5944    5.6049   26.5380 Cl  0  0  0  0  0  0
    1.5156   13.1770   23.9879 C   0  0  0  0  0  0
    2.2020   12.0609   24.4393 C   0  0  0  0  0  0
    3.6342   12.4361   24.7738 C   0  0  0  0  0  0
    3.6274   13.9076   24.6713 N   0  0  0  0  0  0
    2.3623   14.4025   24.1139 C   0  0  0  0  0  0
    4.6292   14.7578   25.0354 C   0  0  0  0  0  0
    5.8587   14.2210   25.1373 N   0  0  0  0  0  0
    4.4606   15.9693   25.1686 O   0  0  0  0  0  0
    7.0933   14.9790   25.3753 C   0  0  0  0  0  0
    8.1998   14.2398   26.1363 C   0  0  0  0  0  0
    9.1983   15.0024   25.2493 C   0  0  0  0  0  0
    8.0770   15.0623   24.1943 C   0  0  0  0  0  0
    7.3398   10.2692   21.6599 C   0  0  0  0  0  0
    7.3653   11.5487   22.5071 C   0  0  0  0  0  0
   -2.2702   11.0836   23.5315 H   0  0  0  0  0  0
   -2.2139   12.7675   23.0597 H   0  0  0  0  0  0
    1.6294    7.3660   27.6096 H   0  0  0  0  0  0
    4.2108    7.1010   24.2394 H   0  0  0  0  0  0
    4.3989    7.9517   22.1176 H   0  0  0  0  0  0
    4.6703    9.5626   21.5408 H   0  0  0  0  0  0
    5.9004    9.8817   23.9658 H   0  0  0  0  0  0
    5.9951    8.1551   23.9038 H   0  0  0  0  0  0
    7.2077    8.2301   21.8811 H   0  0  0  0  0  0
    4.3500   11.9970   24.0795 H   0  0  0  0  0  0
    3.9177   12.1276   25.7802 H   0  0  0  0  0  0
    1.9046   15.1340   24.7661 H   0  0  0  0  0  0
    2.4638   14.8970   23.1670 H   0  0  0  0  0  0
    5.9742   13.2545   24.8752 H   0  0  0  0  0  0
    6.8632   15.9646   25.7989 H   0  0  0  0  0  0
    8.2167   13.1645   25.9659 H   0  0  0  0  0  0
    8.2494   14.4355   27.2098 H   0  0  0  0  0  0
   10.0974   14.4502   24.9742 H   0  0  0  0  0  0
    9.4877   15.9757   25.6492 H   0  0  0  0  0  0
    8.0329   15.9671   23.5869 H   0  0  0  0  0  0
    8.0598   14.1931   23.5341 H   0  0  0  0  0  0
    8.3038   10.1513   21.1671 H   0  0  0  0  0  0
    6.6033   10.3519   20.8604 H   0  0  0  0  0  0
    7.6609   12.3846   21.8823 H   0  0  0  0  0  0
    6.3857   11.7914   22.9188 H   0  0  0  0  0  0
    8.0784   11.4743   23.3302 H   0  0  0  0  0  0
  1 18  1  0  0  0
  1  2  2  0  0  0
  2  5  1  0  0  0
  2  3  1  0  0  0
  3  4  2  0  0  0
  4 19  1  0  0  0
  4  6  1  0  0  0
  5 32  1  0  0  0
  5 33  1  0  0  0
  6  7  2  0  0  0
  6 11  1  0  0  0
  7  8  1  0  0  0
  7 13  1  0  0  0
  8  9  2  0  0  0
  8 34  1  0  0  0
  9 17  1  0  0  0
  9 10  1  0  0  0
 10 11  2  0  0  0
 10 35  1  0  0  0
 11 12  1  0  0  0
 12 14  1  0  0  0
 14 15  1  0  0  0
 14 36  1  0  0  0
 14 37  1  0  0  0
 15 16  1  0  0  0
 15 38  1  0  0  0
 15 39  1  0  0  0
 16 30  1  0  0  0
 16 40  1  0  0  0
 18 19  2  0  0  0
 18 22  1  0  0  0
 19 20  1  0  0  0
 20 21  1  0  0  0
 20 41  1  0  0  0
 20 42  1  0  0  0
 21 22  1  0  0  0
 21 23  1  0  0  0
 22 43  1  0  0  0
 22 44  1  0  0  0
 23 24  1  0  0  0
 23 25  2  0  0  0
 24 26  1  0  0  0
 24 45  1  0  0  0
 26 27  1  0  0  0
 26 29  1  0  0  0
 26 46  1  0  0  0
 27 28  1  0  0  0
 27 47  1  0  0  0
 27 48  1  0  0  0
 28 29  1  0  0  0
 28 49  1  0  0  0
 28 50  1  0  0  0
 29 51  1  0  0  0
 29 52  1  0  0  0
 30 31  1  0  0  0
 30 53  1  0  0  0
 30 54  1  0  0  0
 31 55  1  0  0  0
 31 56  1  0  0  0
 31 57  1  0  0  0
M  END
> <s_m_entry_id>
4828

> <s_m_entry_name>
dock_pv.147

> <s_m_Source_Path>
/home/csk/Desktop/cluster/DUD-E-result/hs90a

> <s_m_Source_File>
dock_pv.maegz

> <i_m_Source_File_Index>
147

> <chembl_id>
CHEMBL1774917

> <chembl_pref_name>
None

> <i_lp_mmshare_version>
53161

> <r_lp_tautomer_probability>
0.999999987636

> <s_lp_Force_Field>
OPLS_2005

> <r_lp_Energy>
44.277802

> <b_lp_Chiralities_Consistent>
1

> <s_lp_Variant>
CHEMBL3880_lig924-1

> <s_i_glide_gridfile>
glide-grid_1uyg

> <i_i_glide_lignum>
1030

> <i_i_glide_rotatable_bonds>
9

> <r_i_docking_score>
-8.44724961996648

> <r_i_glide_ligand_efficiency>
-0.272491923224725

> <r_i_glide_ligand_efficiency_sa>
-0.85600085457124

> <r_i_glide_ligand_efficiency_ln>
-1.90511366641333

> <r_i_glide_gscore>
-8.44724961996648

> <r_i_glide_lipo>
-4.00553369521045

> <r_i_glide_hbond>
-0.32

> <r_i_glide_metal>
0

> <r_i_glide_rewards>
-2.05736445001943

> <r_i_glide_evdw>
-47.7950744628906

> <r_i_glide_ecoul>
-2.79685211181641

> <r_i_glide_erotb>
0.744930065180388

> <r_i_glide_esite>
0

> <r_i_glide_emodel>
-75.0717193583847

> <r_i_glide_energy>
-50.591926574707

> <r_i_glide_einternal>
4.42282867431641

> <i_i_glide_confnum>
35

> <i_i_glide_posenum>
351

> <r_i_glide_eff_state_penalty>
0

> <s_user_duplicate_titles>
CHEMBL3880_lig924

> <i_f3d_flags>
0

> <s_m_subgroup_title>
dock_pv

> <s_m_subgroupid>
dock_pv

> <b_m_subgroup_collapsed>
1

$$$$
CHEMBL3880_lig954
                    3D
 Schrodinger Suite 2021-1.
 67 71  0  0  1  0            999 V2000
    0.9358    7.0863   25.5716 C   0  0  0  0  0  0
    1.5110    5.8038   26.2041 C   0  0  0  0  0  0
    0.1610    5.1696   26.2119 O   0  0  0  0  0  0
   -0.4509    6.4286   25.7011 C   0  0  0  0  0  0
    5.2385    7.1743   22.7237 C   0  0  0  0  0  0
    5.5501    8.6846   22.6103 C   0  0  0  0  0  0
    5.5766    9.2091   21.1544 C   0  0  0  0  0  0
    0.8226   10.5578   25.2090 C   0  0  0  0  0  0
    2.1866   10.7765   25.0113 C   0  0  0  0  0  0
    2.6504   11.7850   24.1594 C   0  0  0  0  0  0
    1.7494   12.6257   23.5151 C   0  0  0  0  0  0
    0.3891   12.4464   23.7237 C   0  0  0  0  0  0
   -0.0883   11.4224   24.5618 C   0  0  0  0  0  0
   -1.5675   11.3119   24.7869 C   0  0  0  0  0  0
   -2.0331   11.0702   25.8941 O   0  0  0  0  0  0
   -2.3386   11.5660   23.7393 N   0  0  0  0  0  0
    4.0329   11.9151   23.9619 N   0  0  0  0  0  0
    4.8778   10.8657   23.6861 C   0  0  0  0  0  0
    6.1845   11.3205   23.6916 C   0  0  0  0  0  0
    7.3085   10.4048   23.5194 C   0  0  0  0  0  0
    6.9303    8.9270   23.2902 C   0  0  0  0  0  0
    4.4373    9.4354   23.3848 C   0  0  0  0  0  0
    8.4730   10.7695   23.5287 O   0  0  0  0  0  0
    6.1535   12.7048   23.9693 C   0  0  0  0  0  0
    4.8137   13.0403   24.1363 C   0  0  0  0  0  0
    4.3172   14.4298   24.5096 C   0  0  0  0  0  0
    5.3187   15.1895   25.2692 N   0  0  2  0  0  0
    6.7067   15.0901   24.7957 C   0  0  0  0  0  0
    7.2500   13.7122   24.2903 C   0  0  0  0  0  0
    5.1823   15.0106   26.7049 C   0  0  0  0  0  0
    0.3692    9.5153   26.0510 N   0  0  0  0  0  0
    1.1534    8.3459   26.4505 C   0  0  0  0  0  0
    1.3795    7.2869   24.1038 C   0  0  0  0  0  0
    1.8508    5.8861   27.2407 H   0  0  0  0  0  0
    2.1872    5.2126   25.5804 H   0  0  0  0  0  0
   -0.9694    6.2163   24.7639 H   0  0  0  0  0  0
   -1.1051    6.8257   26.4793 H   0  0  0  0  0  0
    6.0600    6.5569   22.3655 H   0  0  0  0  0  0
    5.0602    6.8677   23.7549 H   0  0  0  0  0  0
    4.3505    6.9081   22.1474 H   0  0  0  0  0  0
    6.4035    8.7728   20.6031 H   0  0  0  0  0  0
    4.6583    8.9562   20.6238 H   0  0  0  0  0  0
    5.6998   10.2919   21.1043 H   0  0  0  0  0  0
    2.9104   10.1798   25.5386 H   0  0  0  0  0  0
    2.0909   13.4125   22.8597 H   0  0  0  0  0  0
   -0.2918   13.1320   23.2381 H   0  0  0  0  0  0
   -3.3420   11.6715   23.9203 H   0  0  0  0  0  0
   -1.9692   11.7146   22.8150 H   0  0  0  0  0  0
    6.9217    8.4718   24.2789 H   0  0  0  0  0  0
    7.7378    8.4434   22.7399 H   0  0  0  0  0  0
    4.3050    8.9510   24.3520 H   0  0  0  0  0  0
    3.4831    9.3872   22.8569 H   0  0  0  0  0  0
    4.2214   14.9547   23.5670 H   0  0  0  0  0  0
    3.3273   14.4502   24.9694 H   0  0  0  0  0  0
    6.7392   15.7885   23.9735 H   0  0  0  0  0  0
    7.4090   15.5694   25.4808 H   0  0  0  0  0  0
    7.8209   13.2735   25.1086 H   0  0  0  0  0  0
    7.9890   13.8514   23.5011 H   0  0  0  0  0  0
    5.9371   15.5789   27.2508 H   0  0  0  0  0  0
    4.2027   15.3625   27.0317 H   0  0  0  0  0  0
    5.2599   13.9706   26.9776 H   0  0  0  0  0  0
   -0.6361    9.4353   26.1389 H   0  0  0  0  0  0
    0.8693    8.1281   27.4820 H   0  0  0  0  0  0
    2.2168    8.5639   26.5161 H   0  0  0  0  0  0
    2.4433    7.5057   24.0409 H   0  0  0  0  0  0
    1.2018    6.3923   23.5049 H   0  0  0  0  0  0
    0.8377    8.1033   23.6245 H   0  0  0  0  0  0
  1  2  1  0  0  0
  1  4  1  0  0  0
  1 32  1  0  0  0
  1 33  1  0  0  0
  2  3  1  0  0  0
  2 34  1  0  0  0
  2 35  1  0  0  0
  3  4  1  0  0  0
  4 36  1  0  0  0
  4 37  1  0  0  0
  5  6  1  0  0  0
  5 38  1  0  0  0
  5 39  1  0  0  0
  5 40  1  0  0  0
  6  7  1  0  0  0
  6 21  1  0  0  0
  6 22  1  0  0  0
  7 41  1  0  0  0
  7 42  1  0  0  0
  7 43  1  0  0  0
  8  9  2  0  0  0
  8 13  1  0  0  0
  8 31  1  0  0  0
  9 10  1  0  0  0
  9 44  1  0  0  0
 10 11  2  0  0  0
 10 17  1  0  0  0
 11 12  1  0  0  0
 11 45  1  0  0  0
 12 13  2  0  0  0
 12 46  1  0  0  0
 13 14  1  0  0  0
 14 15  2  0  0  0
 14 16  1  0  0  0
 16 47  1  0  0  0
 16 48  1  0  0  0
 17 25  1  0  0  0
 17 18  1  0  0  0
 18 19  2  0  0  0
 18 22  1  0  0  0
 19 24  1  0  0  0
 19 20  1  0  0  0
 20 21  1  0  0  0
 20 23  2  0  0  0
 21 49  1  0  0  0
 21 50  1  0  0  0
 22 51  1  0  0  0
 22 52  1  0  0  0
 24 25  2  0  0  0
 24 29  1  0  0  0
 25 26  1  0  0  0
 26 27  1  0  0  0
 26 53  1  0  0  0
 26 54  1  0  0  0
 27 28  1  0  0  0
 27 30  1  0  0  0
 28 29  1  0  0  0
 28 55  1  0  0  0
 28 56  1  0  0  0
 29 57  1  0  0  0
 29 58  1  0  0  0
 30 59  1  0  0  0
 30 60  1  0  0  0
 30 61  1  0  0  0
 31 32  1  0  0  0
 31 62  1  0  0  0
 32 63  1  0  0  0
 32 64  1  0  0  0
 33 65  1  0  0  0
 33 66  1  0  0  0
 33 67  1  0  0  0
M  END
> <s_m_entry_id>
4829

> <s_m_entry_name>
dock_pv.148

> <s_m_Source_Path>
/home/csk/Desktop/cluster/DUD-E-result/hs90a

> <s_m_Source_File>
dock_pv.maegz

> <i_m_Source_File_Index>
148

> <chembl_id>
CHEMBL3235342

> <chembl_pref_name>
None

> <i_lp_mmshare_version>
53161

> <r_lp_tautomer_probability>
0.99995

> <s_lp_Force_Field>
OPLS_2005

> <r_lp_Energy>
54.281854

> <b_lp_Chiralities_Consistent>
1

> <s_lp_Variant>
CHEMBL3880_lig954-1

> <s_i_glide_gridfile>
glide-grid_1uyg

> <i_i_glide_lignum>
1063

> <i_i_glide_rotatable_bonds>
5

> <r_i_docking_score>
-8.44282492033132

> <r_i_glide_ligand_efficiency>
-0.255843179403979

> <r_i_glide_ligand_efficiency_sa>
-0.820625780077104

> <r_i_glide_ligand_efficiency_ln>
-1.8776405476738

> <r_i_glide_gscore>
-8.44282492033132

> <r_i_glide_lipo>
-4.33099309839927

> <r_i_glide_hbond>
-0.169547845979406

> <r_i_glide_metal>
0

> <r_i_glide_rewards>
-1.54534633307099

> <r_i_glide_evdw>
-46.4719696044922

> <r_i_glide_ecoul>
-2.80076384544373

> <r_i_glide_erotb>
0.39504422898099

> <r_i_glide_esite>
-0.0482688148214796

> <r_i_glide_emodel>
-62.6812614909585

> <r_i_glide_energy>
-49.2727334499359

> <r_i_glide_einternal>
1.27931475639343

> <i_i_glide_confnum>
9

> <i_i_glide_posenum>
267

> <r_i_glide_eff_state_penalty>
0

> <s_user_duplicate_titles>
CHEMBL3880_lig954

> <i_f3d_flags>
0

> <s_m_subgroup_title>
dock_pv

> <s_m_subgroupid>
dock_pv

> <b_m_subgroup_collapsed>
1

$$$$
CHEMBL3880_lig318
                    3D
 Schrodinger Suite 2021-1.
 46 50  0  0  1  0            999 V2000
    0.1730   12.0326   23.4491 C   0  0  0  0  0  0
   -1.1465   11.7698   23.8188 C   0  0  0  0  0  0
   -1.4280   11.0118   24.9583 C   0  0  0  0  0  0
   -0.3821   10.4948   25.7444 C   0  0  0  0  0  0
    0.9349   10.7608   25.3563 C   0  0  0  0  0  0
    1.2191   11.5221   24.2260 C   0  0  0  0  0  0
    0.4108   12.7689   22.3184 O   0  0  0  0  0  0
   -2.7390   10.7690   25.2686 O   0  0  0  0  0  0
   -0.6319    9.7559   27.0445 C   0  0  0  0  0  0
   -1.4757   10.2012   27.8279 O   0  0  0  0  0  0
    2.5720   11.7966   23.9640 N   0  0  0  0  0  0
    4.5329   12.9153   23.9671 C   0  0  0  0  0  0
    3.1746   13.0159   24.1755 C   0  0  0  0  0  0
    4.7945   11.5674   23.5671 C   0  0  0  0  0  0
    3.5414   10.8784   23.5783 C   0  0  0  0  0  0
    3.4441    9.5199   23.2419 C   0  0  0  0  0  0
    4.6214    8.8672   22.8756 C   0  0  0  0  0  0
    5.8499    9.5212   22.8540 C   0  0  0  0  0  0
    5.9547   10.8670   23.2014 C   0  0  0  0  0  0
    0.1297    8.6618   27.3328 N   0  0  0  0  0  0
    0.0610    8.0579   28.6795 C   0  0  0  0  0  0
    2.2517    7.6072   26.6400 C   0  0  0  0  0  0
    0.7516    7.8071   26.2929 C   0  0  0  0  0  0
    2.3680    7.1531   28.0853 C   0  0  0  0  0  0
    1.3782    7.3879   29.0407 C   0  0  0  0  0  0
    1.7484    6.9268   30.3098 C   0  0  0  0  0  0
    3.0189    6.3692   30.3312 C   0  0  0  0  0  0
    3.7680    6.3876   28.7682 S   0  0  0  0  0  0
   -1.9628   12.1490   23.2204 H   0  0  0  0  0  0
    1.7568   10.4249   25.9731 H   0  0  0  0  0  0
   -0.4085   13.0616   21.9128 H   0  0  0  0  0  0
   -3.3894   11.2894   24.7695 H   0  0  0  0  0  0
    5.2434   13.7223   24.0731 H   0  0  0  0  0  0
    2.5753   13.8578   24.4923 H   0  0  0  0  0  0
    2.4988    8.9962   23.2468 H   0  0  0  0  0  0
    4.5808    7.8229   22.5991 H   0  0  0  0  0  0
    6.7346    8.9710   22.5639 H   0  0  0  0  0  0
    6.9143   11.3624   23.1859 H   0  0  0  0  0  0
   -0.7325    7.3103   28.6794 H   0  0  0  0  0  0
   -0.2473    8.7690   29.4457 H   0  0  0  0  0  0
    2.8084    8.5305   26.4843 H   0  0  0  0  0  0
    2.6929    6.8770   25.9603 H   0  0  0  0  0  0
    0.6184    8.1834   25.2781 H   0  0  0  0  0  0
    0.2452    6.8402   26.3068 H   0  0  0  0  0  0
    1.1252    7.0315   31.1866 H   0  0  0  0  0  0
    3.5658    6.0034   31.1883 H   0  0  0  0  0  0
  1  2  2  0  0  0
  1  6  1  0  0  0
  1  7  1  0  0  0
  2  3  1  0  0  0
  2 29  1  0  0  0
  3  4  2  0  0  0
  3  8  1  0  0  0
  4  5  1  0  0  0
  4  9  1  0  0  0
  5  6  2  0  0  0
  5 30  1  0  0  0
  6 11  1  0  0  0
  7 31  1  0  0  0
  8 32  1  0  0  0
  9 10  2  0  0  0
  9 20  1  0  0  0
 11 15  1  0  0  0
 11 13  1  0  0  0
 12 14  1  0  0  0
 12 13  2  0  0  0
 12 33  1  0  0  0
 13 34  1  0  0  0
 14 15  2  0  0  0
 14 19  1  0  0  0
 15 16  1  0  0  0
 16 17  2  0  0  0
 16 35  1  0  0  0
 17 18  1  0  0  0
 17 36  1  0  0  0
 18 19  2  0  0  0
 18 37  1  0  0  0
 19 38  1  0  0  0
 20 21  1  0  0  0
 20 23  1  0  0  0
 21 25  1  0  0  0
 21 39  1  0  0  0
 21 40  1  0  0  0
 22 24  1  0  0  0
 22 23  1  0  0  0
 22 41  1  0  0  0
 22 42  1  0  0  0
 23 43  1  0  0  0
 23 44  1  0  0  0
 24 25  2  0  0  0
 24 28  1  0  0  0
 25 26  1  0  0  0
 26 27  2  0  0  0
 26 45  1  0  0  0
 27 28  1  0  0  0
 27 46  1  0  0  0
M  END
> <s_m_entry_id>
4830

> <s_m_entry_name>
dock_pv.149

> <s_m_Source_Path>
/home/csk/Desktop/cluster/DUD-E-result/hs90a

> <s_m_Source_File>
dock_pv.maegz

> <i_m_Source_File_Index>
149

> <chembl_id>
CHEMBL3260479

> <chembl_pref_name>
None

> <i_lp_mmshare_version>
53161

> <r_lp_tautomer_probability>
1

> <s_lp_Force_Field>
OPLS_2005

> <r_lp_Energy>
37.110503

> <b_lp_Chiralities_Consistent>
1

> <s_lp_Variant>
CHEMBL3880_lig318-1

> <s_i_glide_gridfile>
glide-grid_1uyg

> <i_i_glide_lignum>
355

> <i_i_glide_rotatable_bonds>
5

> <r_i_docking_score>
-8.4395380857822

> <r_i_glide_ligand_efficiency>
-0.301412074492221

> <r_i_glide_ligand_efficiency_sa>
-0.915264580376629

> <r_i_glide_ligand_efficiency_ln>
-1.94809318580412

> <r_i_glide_gscore>
-8.4395380857822

> <r_i_glide_lipo>
-3.54711210626566

> <r_i_glide_hbond>
0

> <r_i_glide_metal>
0

> <r_i_glide_rewards>
-1.94814066662305

> <r_i_glide_evdw>
-46.4236183166504

> <r_i_glide_ecoul>
-6.7127571105957

> <r_i_glide_erotb>
0.383809169528383

> <r_i_glide_esite>
0

> <r_i_glide_emodel>
-76.0332887157536

> <r_i_glide_energy>
-53.1363754272461

> <r_i_glide_einternal>
6.5767240524292

> <i_i_glide_confnum>
27

> <i_i_glide_posenum>
81

> <r_i_glide_eff_state_penalty>
0

> <s_user_duplicate_titles>
CHEMBL3880_lig318

> <i_f3d_flags>
0

> <s_m_subgroup_title>
dock_pv

> <s_m_subgroupid>
dock_pv

> <b_m_subgroup_collapsed>
1

$$$$
CHEMBL3880_lig183
                    3D
 Schrodinger Suite 2021-1.
 62 65  0  0  1  0            999 V2000
    8.0611    8.3381   22.9198 C   0  0  0  0  0  0
    7.1260    9.5467   22.7309 C   0  0  0  0  0  0
    6.7495    9.8330   21.2692 C   0  0  0  0  0  0
    1.9283    7.3268   23.9670 C   0  0  0  0  0  0
    2.6426    8.4271   23.4917 C   0  0  0  0  0  0
    2.9264    9.4865   24.3543 C   0  0  0  0  0  0
    2.4943    9.4446   25.6700 C   0  0  0  0  0  0
    1.6798    8.4156   26.1108 C   0  0  0  0  0  0
    1.4343    7.2872   25.2848 C   0  0  0  0  0  0
    0.6799    6.0456   25.7346 C   0  0  0  0  0  0
    0.2939    5.9634   27.0051 N   0  0  0  0  0  0
    0.4609    5.1113   24.9728 O   0  0  0  0  0  0
    1.0286    8.6974   27.3162 N   0  0  0  0  0  0
   -0.3389    9.1582   27.0777 C   0  0  1  0  0  0
   -1.1443    9.1170   28.3670 C   0  0  0  0  0  0
   -0.4837   10.5265   26.3533 C   0  0  0  0  0  0
    3.7000   10.5939   23.9877 N   0  0  0  0  0  0
    4.5319   12.6870   24.0362 C   0  0  0  0  0  0
    3.3627   11.9340   24.1240 C   0  0  0  0  0  0
    5.5714   11.7883   23.7284 C   0  0  0  0  0  0
    5.0372   10.5093   23.7113 C   0  0  0  0  0  0
    5.7955    9.2143   23.4364 C   0  0  0  0  0  0
    7.8518   10.7705   23.3673 C   0  0  0  0  0  0
    7.0014   12.0364   23.5649 C   0  0  0  0  0  0
    7.5006   13.1594   23.5673 O   0  0  0  0  0  0
    4.6574   14.1471   24.4156 C   0  0  0  0  0  0
   -0.5611   10.4484   24.8089 C   0  0  0  0  0  0
   -0.4407   11.7623   24.1760 N   0  0  1  0  0  0
    0.8372   11.9997   23.4981 C   0  0  0  0  0  0
    1.9562   12.4140   24.4734 C   0  0  0  0  0  0
    8.4888    8.2933   23.9226 H   0  0  0  0  0  0
    7.5401    7.3925   22.7670 H   0  0  0  0  0  0
    8.8799    8.3671   22.2048 H   0  0  0  0  0  0
    5.8139   10.3690   21.1636 H   0  0  0  0  0  0
    7.5362   10.3692   20.7399 H   0  0  0  0  0  0
    6.5481    8.8891   20.7670 H   0  0  0  0  0  0
    1.7469    6.5065   23.2842 H   0  0  0  0  0  0
    2.9795    8.4368   22.4642 H   0  0  0  0  0  0
    2.7145   10.2707   26.3329 H   0  0  0  0  0  0
   -0.1980    5.1457   27.3260 H   0  0  0  0  0  0
    0.4521    6.7622   27.6063 H   0  0  0  0  0  0
    1.5267    9.3517   27.9031 H   0  0  0  0  0  0
   -0.7390    8.4047   26.4091 H   0  0  0  0  0  0
   -2.1827    9.4068   28.2133 H   0  0  0  0  0  0
   -1.1388    8.1067   28.7671 H   0  0  0  0  0  0
   -0.7319    9.7836   29.1151 H   0  0  0  0  0  0
    0.3189   11.1692   26.6965 H   0  0  0  0  0  0
   -1.3954   11.0261   26.6836 H   0  0  0  0  0  0
    5.2251    8.4998   22.8433 H   0  0  0  0  0  0
    5.9992    8.7095   24.3670 H   0  0  0  0  0  0
    8.7518   11.0392   22.8141 H   0  0  0  0  0  0
    8.1846   10.4962   24.3669 H   0  0  0  0  0  0
    3.9553   14.4252   25.2024 H   0  0  0  0  0  0
    5.6397   14.4011   24.8114 H   0  0  0  0  0  0
    4.4582   14.7898   23.5671 H   0  0  0  0  0  0
   -1.5285   10.0236   24.5357 H   0  0  0  0  0  0
    0.1662    9.7546   24.3931 H   0  0  0  0  0  0
   -1.2244   11.9268   23.5555 H   0  0  0  0  0  0
    0.6757   12.8287   22.8073 H   0  0  0  0  0  0
    1.1215   11.1529   22.8774 H   0  0  0  0  0  0
    1.7333   12.0985   25.4843 H   0  0  0  0  0  0
    1.9315   13.5012   24.5396 H   0  0  0  0  0  0
  1  2  1  0  0  0
  1 31  1  0  0  0
  1 32  1  0  0  0
  1 33  1  0  0  0
  2  3  1  0  0  0
  2 22  1  0  0  0
  2 23  1  0  0  0
  3 34  1  0  0  0
  3 35  1  0  0  0
  3 36  1  0  0  0
  4  5  2  0  0  0
  4  9  1  0  0  0
  4 37  1  0  0  0
  5  6  1  0  0  0
  5 38  1  0  0  0
  6 17  1  0  0  0
  6  7  2  0  0  0
  7  8  1  0  0  0
  7 39  1  0  0  0
  8  9  2  0  0  0
  8 13  1  0  0  0
  9 10  1  0  0  0
 10 11  1  0  0  0
 10 12  2  0  0  0
 11 40  1  0  0  0
 11 41  1  0  0  0
 13 14  1  0  0  0
 13 42  1  0  0  0
 14 16  1  0  0  0
 14 15  1  0  0  0
 14 43  1  0  0  0
 15 44  1  0  0  0
 15 45  1  0  0  0
 15 46  1  0  0  0
 16 27  1  0  0  0
 16 47  1  0  0  0
 16 48  1  0  0  0
 17 21  1  0  0  0
 17 19  1  0  0  0
 18 20  1  0  0  0
 18 19  2  0  0  0
 18 26  1  0  0  0
 19 30  1  0  0  0
 20 21  2  0  0  0
 20 24  1  0  0  0
 21 22  1  0  0  0
 22 49  1  0  0  0
 22 50  1  0  0  0
 23 24  1  0  0  0
 23 51  1  0  0  0
 23 52  1  0  0  0
 24 25  2  0  0  0
 26 53  1  0  0  0
 26 54  1  0  0  0
 26 55  1  0  0  0
 27 28  1  0  0  0
 27 56  1  0  0  0
 27 57  1  0  0  0
 28 29  1  0  0  0
 28 58  1  0  0  0
 29 30  1  0  0  0
 29 59  1  0  0  0
 29 60  1  0  0  0
 30 61  1  0  0  0
 30 62  1  0  0  0
M  END
> <s_m_entry_id>
4831

> <s_m_entry_name>
dock_pv.150

> <s_m_Source_Path>
/home/csk/Desktop/cluster/DUD-E-result/hs90a

> <s_m_Source_File>
dock_pv.maegz

> <i_m_Source_File_Index>
150

> <chembl_id>
CHEMBL1760603

> <chembl_pref_name>
None

> <i_lp_mmshare_version>
53161

> <r_lp_tautomer_probability>
0.99995

> <s_lp_Force_Field>
OPLS_2005

> <r_lp_Energy>
44.47616

> <b_lp_Chiralities_Consistent>
1

> <s_lp_Variant>
CHEMBL3880_lig183-1

> <s_i_glide_gridfile>
glide-grid_1uyg

> <i_i_glide_lignum>
214

> <i_i_glide_rotatable_bonds>
1

> <r_i_docking_score>
-8.43640374451682

> <r_i_glide_ligand_efficiency>
-0.281213458150561

> <r_i_glide_ligand_efficiency_sa>
-0.873795597286466

> <r_i_glide_ligand_efficiency_ln>
-1.91684285273539

> <r_i_glide_gscore>
-8.43640374451682

> <r_i_glide_lipo>
-3.83645549410754

> <r_i_glide_hbond>
0

> <r_i_glide_metal>
0

> <r_i_glide_rewards>
-1.78834403669467

> <r_i_glide_evdw>
-41.4240188598633

> <r_i_glide_ecoul>
-4.93602180480957

> <r_i_glide_erotb>
0

> <r_i_glide_esite>
0

> <r_i_glide_emodel>
-55.4389515468135

> <r_i_glide_energy>
-46.3600406646729

> <r_i_glide_einternal>
3.92098355293274

> <i_i_glide_confnum>
1

> <i_i_glide_posenum>
63

> <r_i_glide_eff_state_penalty>
0

> <s_user_duplicate_titles>
CHEMBL3880_lig183

> <i_f3d_flags>
0

> <s_m_subgroup_title>
dock_pv

> <s_m_subgroupid>
dock_pv

> <b_m_subgroup_collapsed>
1

$$$$
CHEMBL3880_lig121
                    3D
 Schrodinger Suite 2021-1.
 36 38  0  0  1  0            999 V2000
   -1.0372   10.8035   24.6365 C   0  0  0  0  0  0
   -0.0824    9.9440   25.1653 C   0  0  0  0  0  0
    1.2713   10.2504   25.0783 C   0  0  0  0  0  0
    1.6927   11.4364   24.4452 C   0  0  0  0  0  0
    0.7167   12.2845   23.8996 C   0  0  0  0  0  0
   -0.6448   11.9799   23.9910 C   0  0  0  0  0  0
   -2.3520   10.4700   24.7798 O   0  0  0  0  0  0
    2.1512    9.3661   25.6549 O   0  0  0  0  0  0
   -1.6635   12.9521   23.4067 C   0  0  0  0  0  0
   -1.9400   12.6935   21.9182 C   0  0  0  0  0  0
    3.1135   11.7941   24.3792 C   0  0  0  0  0  0
    3.5478   12.9914   24.3224 N   0  0  0  0  0  0
    8.9041   14.2768   24.7804 O   0  0  0  0  0  0
    8.7459   15.1913   25.8284 C   0  0  0  0  0  0
    7.3970   15.5688   25.8506 O   0  0  0  0  0  0
    6.7409   14.5994   25.1669 C   0  0  0  0  0  0
    7.6524   13.8102   24.5288 C   0  0  0  0  0  0
    7.2606   12.7355   23.7433 C   0  0  0  0  0  0
    5.8889   12.4646   23.6610 C   0  0  0  0  0  0
    4.9268   13.2419   24.3643 C   0  0  0  0  0  0
    5.3734   14.3688   25.0791 C   0  0  0  0  0  0
   -0.3967    9.0357   25.6590 H   0  0  0  0  0  0
    1.0145   13.2014   23.4085 H   0  0  0  0  0  0
   -2.9760   11.1325   24.4585 H   0  0  0  0  0  0
    3.0499    9.6970   25.6921 H   0  0  0  0  0  0
   -1.2930   13.9658   23.5567 H   0  0  0  0  0  0
   -2.5980   12.9147   23.9661 H   0  0  0  0  0  0
   -2.6741   13.4001   21.5289 H   0  0  0  0  0  0
   -2.3384   11.6901   21.7588 H   0  0  0  0  0  0
   -1.0348   12.7914   21.3187 H   0  0  0  0  0  0
    3.7914   10.9444   24.4149 H   0  0  0  0  0  0
    9.0014   14.7115   26.7770 H   0  0  0  0  0  0
    9.3969   16.0541   25.6931 H   0  0  0  0  0  0
    7.9798   12.1241   23.2178 H   0  0  0  0  0  0
    5.5705   11.6298   23.0543 H   0  0  0  0  0  0
    4.6678   15.0039   25.5931 H   0  0  0  0  0  0
  1  2  1  0  0  0
  1  6  2  0  0  0
  1  7  1  0  0  0
  2  3  2  0  0  0
  2 22  1  0  0  0
  3  4  1  0  0  0
  3  8  1  0  0  0
  4  5  2  0  0  0
  4 11  1  0  0  0
  5  6  1  0  0  0
  5 23  1  0  0  0
  6  9  1  0  0  0
  7 24  1  0  0  0
  8 25  1  0  0  0
  9 10  1  0  0  0
  9 26  1  0  0  0
  9 27  1  0  0  0
 10 28  1  0  0  0
 10 29  1  0  0  0
 10 30  1  0  0  0
 11 12  2  0  0  0
 11 31  1  0  0  0
 12 20  1  0  0  0
 13 14  1  0  0  0
 13 17  1  0  0  0
 14 15  1  0  0  0
 14 32  1  0  0  0
 14 33  1  0  0  0
 15 16  1  0  0  0
 16 17  1  0  0  0
 16 21  2  0  0  0
 17 18  2  0  0  0
 18 19  1  0  0  0
 18 34  1  0  0  0
 19 20  2  0  0  0
 19 35  1  0  0  0
 20 21  1  0  0  0
 21 36  1  0  0  0
M  END
> <s_m_entry_id>
4832

> <s_m_entry_name>
dock_pv.151

> <s_m_Source_Path>
/home/csk/Desktop/cluster/DUD-E-result/hs90a

> <s_m_Source_File>
dock_pv.maegz

> <i_m_Source_File_Index>
151

> <chembl_id>
CHEMBL1828656

> <chembl_pref_name>
None

> <i_lp_mmshare_version>
53161

> <r_lp_tautomer_probability>
1

> <s_lp_Force_Field>
OPLS_2005

> <r_lp_Energy>
30.181155

> <b_lp_Chiralities_Consistent>
1

> <s_lp_Variant>
CHEMBL3880_lig121-1

> <s_i_glide_gridfile>
glide-grid_1uyg

> <i_i_glide_lignum>
135

> <i_i_glide_rotatable_bonds>
5

> <r_i_docking_score>
-8.43425760036566

> <r_i_glide_ligand_efficiency>
-0.401631314303126

> <r_i_glide_ligand_efficiency_sa>
-1.10807034189811

> <r_i_glide_ligand_efficiency_ln>
-2.08535314866818

> <r_i_glide_gscore>
-8.43425760036566

> <r_i_glide_lipo>
-3.38471811341898

> <r_i_glide_hbond>
-0.269061416373863

> <r_i_glide_metal>
0

> <r_i_glide_rewards>
-3.06125424788828

> <r_i_glide_evdw>
-36.1829986572266

> <r_i_glide_ecoul>
-2.37228417396545

> <r_i_glide_erotb>
0.445768736271616

> <r_i_glide_esite>
0

> <r_i_glide_emodel>
-55.1431250798856

> <r_i_glide_energy>
-38.555282831192

> <r_i_glide_einternal>
3.07356834411621

> <i_i_glide_confnum>
1

> <i_i_glide_posenum>
25

> <r_i_glide_eff_state_penalty>
0

> <s_user_duplicate_titles>
CHEMBL3880_lig121

> <i_f3d_flags>
0

> <s_m_subgroup_title>
dock_pv

> <s_m_subgroupid>
dock_pv

> <b_m_subgroup_collapsed>
1

$$$$
CHEMBL3880_lig262
                    3D
 Schrodinger Suite 2021-1.
 48 51  0  0  1  0            999 V2000
   -1.6150   11.1439   25.6289 N   0  0  0  0  0  0
   -1.1050   11.5756   24.4564 C   0  0  0  0  0  0
    0.1342   11.3558   23.9671 N   0  0  0  0  0  0
   -0.8323   10.3461   26.3946 C   0  0  0  0  0  0
    0.4612    9.9759   25.9670 C   0  0  0  0  0  0
    0.8868   10.5669   24.7438 C   0  0  0  0  0  0
    2.2028   10.1944   24.5178 N   0  0  0  0  0  0
    2.5827    9.3531   25.5419 C   0  0  0  0  0  0
    1.5317    9.1297   26.4201 C   0  0  0  0  0  0
   -1.4700    9.8388   27.9187 Cl  0  0  0  0  0  0
   -1.9390   12.3505   23.6751 N   0  0  0  0  0  0
    3.0419   10.5795   23.3794 C   0  0  0  0  0  0
    4.1924   11.5436   23.6925 C   0  0  0  0  0  0
    4.0024   12.8640   24.1478 C   0  0  0  0  0  0
    5.1385   13.6670   24.3660 C   0  0  0  0  0  0
    6.4076   13.1675   24.0285 C   0  0  0  0  0  0
    6.5021   11.8529   23.5676 C   0  0  0  0  0  0
    5.4262   11.0424   23.4203 N   0  0  0  0  0  0
    2.6086   13.4469   24.3292 C   0  0  0  0  0  0
    7.6665   14.0084   24.1616 C   0  0  0  0  0  0
    5.0121   14.9575   24.8252 O   0  0  0  0  0  0
    4.8919   15.0715   26.2390 C   0  0  0  0  0  0
    1.5167    8.2155   27.5873 C   0  0  0  0  0  0
    2.4850    8.3190   28.5855 C   0  0  0  0  0  0
    2.4342    7.4766   29.6915 C   0  0  0  0  0  0
    1.4185    6.5284   29.7903 C   0  0  0  0  0  0
    0.4612    6.4047   28.7853 C   0  0  0  0  0  0
    0.5090    7.2525   27.6839 C   0  0  0  0  0  0
    3.5791    8.9339   25.5385 H   0  0  0  0  0  0
   -2.9206   12.3689   23.9525 H   0  0  0  0  0  0
   -1.6759   12.5169   22.7176 H   0  0  0  0  0  0
    2.4124   11.0292   22.6111 H   0  0  0  0  0  0
    3.4168    9.6553   22.9339 H   0  0  0  0  0  0
    7.4605   11.4235   23.3118 H   0  0  0  0  0  0
    2.0103   13.2753   23.4350 H   0  0  0  0  0  0
    2.1139   12.9618   25.1660 H   0  0  0  0  0  0
    2.6117   14.5243   24.4950 H   0  0  0  0  0  0
    8.0611   14.2401   23.1714 H   0  0  0  0  0  0
    7.4956   14.9440   24.6964 H   0  0  0  0  0  0
    8.4307   13.4536   24.7069 H   0  0  0  0  0  0
    4.7016   16.1122   26.5011 H   0  0  0  0  0  0
    5.8131   14.7697   26.7398 H   0  0  0  0  0  0
    4.0681   14.4746   26.6355 H   0  0  0  0  0  0
    3.2595    9.0681   28.5227 H   0  0  0  0  0  0
    3.1750    7.5693   30.4730 H   0  0  0  0  0  0
    1.3746    5.8923   30.6595 H   0  0  0  0  0  0
   -0.3243    5.6682   28.8590 H   0  0  0  0  0  0
   -0.2403    7.1668   26.9098 H   0  0  0  0  0  0
  1  2  2  0  0  0
  1  4  1  0  0  0
  2  3  1  0  0  0
  2 11  1  0  0  0
  3  6  2  0  0  0
  4  5  2  0  0  0
  4 10  1  0  0  0
  5  6  1  0  0  0
  5  9  1  0  0  0
  6  7  1  0  0  0
  7  8  1  0  0  0
  7 12  1  0  0  0
  8  9  2  0  0  0
  8 29  1  0  0  0
  9 23  1  0  0  0
 11 30  1  0  0  0
 11 31  1  0  0  0
 12 13  1  0  0  0
 12 32  1  0  0  0
 12 33  1  0  0  0
 13 14  2  0  0  0
 13 18  1  0  0  0
 14 15  1  0  0  0
 14 19  1  0  0  0
 15 16  2  0  0  0
 15 21  1  0  0  0
 16 17  1  0  0  0
 16 20  1  0  0  0
 17 18  2  0  0  0
 17 34  1  0  0  0
 19 35  1  0  0  0
 19 36  1  0  0  0
 19 37  1  0  0  0
 20 38  1  0  0  0
 20 39  1  0  0  0
 20 40  1  0  0  0
 21 22  1  0  0  0
 22 41  1  0  0  0
 22 42  1  0  0  0
 22 43  1  0  0  0
 23 24  2  0  0  0
 23 28  1  0  0  0
 24 25  1  0  0  0
 24 44  1  0  0  0
 25 26  2  0  0  0
 25 45  1  0  0  0
 26 27  1  0  0  0
 26 46  1  0  0  0
 27 28  2  0  0  0
 27 47  1  0  0  0
 28 48  1  0  0  0
M  END
> <s_m_entry_id>
4833

> <s_m_entry_name>
dock_pv.152

> <s_m_Source_Path>
/home/csk/Desktop/cluster/DUD-E-result/hs90a

> <s_m_Source_File>
dock_pv.maegz

> <i_m_Source_File_Index>
152

> <chembl_id>
CHEMBL2205244

> <chembl_pref_name>
None

> <i_lp_mmshare_version>
53161

> <r_lp_tautomer_probability>
1

> <s_lp_Force_Field>
OPLS_2005

> <r_lp_Energy>
16.008038

> <b_lp_Chiralities_Consistent>
1

> <s_lp_Variant>
CHEMBL3880_lig262-1

> <s_i_glide_gridfile>
glide-grid_1uyg

> <i_i_glide_lignum>
296

> <i_i_glide_rotatable_bonds>
4

> <r_i_docking_score>
-8.43143674548052

> <r_i_glide_ligand_efficiency>
-0.301122740910018

> <r_i_glide_ligand_efficiency_sa>
-0.914385993212694

> <r_i_glide_ligand_efficiency_ln>
-1.94622315859681

> <r_i_glide_gscore>
-8.43143674548052

> <r_i_glide_lipo>
-4.08279854917053

> <r_i_glide_hbond>
-0.16

> <r_i_glide_metal>
0

> <r_i_glide_rewards>
-1.85793206850354

> <r_i_glide_evdw>
-48.0894165039062

> <r_i_glide_ecoul>
-1.90738892555237

> <r_i_glide_erotb>
0.377853608411132

> <r_i_glide_esite>
-0.0179805721894028

> <r_i_glide_emodel>
-72.6296198709532

> <r_i_glide_energy>
-49.9968054294586

> <r_i_glide_einternal>
2.95901799201965

> <i_i_glide_confnum>
14

> <i_i_glide_posenum>
261

> <r_i_glide_eff_state_penalty>
0

> <s_user_duplicate_titles>
CHEMBL3880_lig262

> <i_f3d_flags>
0

> <s_m_subgroup_title>
dock_pv

> <s_m_subgroupid>
dock_pv

> <b_m_subgroup_collapsed>
1

$$$$
CHEMBL3880_lig381
                    3D
 Schrodinger Suite 2021-1.
 46 49  0  0  1  0            999 V2000
    7.2947   11.2870   23.3772 N   0  0  0  0  0  0
    6.6867   10.1745   22.9117 C   0  0  0  0  0  0
    5.3521    9.9645   22.8622 N   0  0  0  0  0  0
    6.4925   12.2760   23.8497 C   0  0  0  0  0  0
    5.0828   12.1534   23.8547 C   0  0  0  0  0  0
    4.5529   10.9737   23.2997 C   0  0  0  0  0  0
    3.0500   10.8077   23.1928 C   0  0  0  0  0  0
    2.3019   11.6026   24.2942 C   0  0  1  0  0  0
    2.8633   12.9653   24.3792 N   0  0  0  0  0  0
    4.1768   13.2606   24.3670 C   0  0  0  0  0  0
    0.7886   11.5514   24.0460 C   0  0  0  0  0  0
   -0.0974   10.7183   24.7752 C   0  0  0  0  0  0
   -1.4632   10.7678   24.4529 C   0  0  0  0  0  0
   -1.9384   11.5717   23.4235 C   0  0  0  0  0  0
   -1.0677   12.3726   22.7058 C   0  0  0  0  0  0
    0.2849   12.3703   23.0228 C   0  0  0  0  0  0
    7.2547   13.4834   24.3790 C   0  0  0  0  0  0
    4.5145   14.3948   24.6936 O   0  0  0  0  0  0
    7.5073    9.1693   22.4233 N   0  0  0  0  0  0
    0.3266    9.7730   25.8589 C   0  0  0  0  0  0
    1.3960    8.9722   25.6000 N   0  0  0  0  0  0
    1.8193    8.0971   26.5611 C   0  0  0  0  0  0
    1.1628    7.9704   27.7852 C   0  0  0  0  0  0
    0.0495    8.7697   28.0378 C   0  0  0  0  0  0
   -0.3706    9.6839   27.0719 C   0  0  0  0  0  0
    2.9356    7.3134   26.3315 O   0  0  0  0  0  0
    3.6772    7.4867   25.1269 C   0  0  0  0  0  0
   -1.5308   13.1412   21.6940 F   0  0  0  0  0  0
    2.7762    9.7526   23.2191 H   0  0  0  0  0  0
    2.7533   11.1752   22.2120 H   0  0  0  0  0  0
    2.5142   11.1640   25.2715 H   0  0  0  0  0  0
    2.2513   13.7136   24.6669 H   0  0  0  0  0  0
   -2.1713   10.1412   24.9743 H   0  0  0  0  0  0
   -2.9857   11.5688   23.1663 H   0  0  0  0  0  0
    0.9476   13.0065   22.4547 H   0  0  0  0  0  0
    6.9557   13.7026   25.4032 H   0  0  0  0  0  0
    8.3339   13.3223   24.3842 H   0  0  0  0  0  0
    7.0507   14.3598   23.7649 H   0  0  0  0  0  0
    7.1028    8.3191   22.0479 H   0  0  0  0  0  0
    8.5048    9.2981   22.4741 H   0  0  0  0  0  0
    1.5217    7.2754   28.5275 H   0  0  0  0  0  0
   -0.4694    8.6994   28.9813 H   0  0  0  0  0  0
   -1.2248   10.3159   27.2642 H   0  0  0  0  0  0
    4.5284    6.8040   25.1226 H   0  0  0  0  0  0
    3.0721    7.2715   24.2447 H   0  0  0  0  0  0
    4.0693    8.5021   25.0517 H   0  0  0  0  0  0
  1  2  2  0  0  0
  1  4  1  0  0  0
  2  3  1  0  0  0
  2 19  1  0  0  0
  3  6  2  0  0  0
  4  5  2  0  0  0
  4 17  1  0  0  0
  5  6  1  0  0  0
  5 10  1  0  0  0
  6  7  1  0  0  0
  7  8  1  0  0  0
  7 29  1  0  0  0
  7 30  1  0  0  0
  8  9  1  0  0  0
  8 11  1  0  0  0
  8 31  1  0  0  0
  9 10  1  0  0  0
  9 32  1  0  0  0
 10 18  2  0  0  0
 11 12  2  0  0  0
 11 16  1  0  0  0
 12 13  1  0  0  0
 12 20  1  0  0  0
 13 14  2  0  0  0
 13 33  1  0  0  0
 14 15  1  0  0  0
 14 34  1  0  0  0
 15 16  2  0  0  0
 15 28  1  0  0  0
 16 35  1  0  0  0
 17 36  1  0  0  0
 17 37  1  0  0  0
 17 38  1  0  0  0
 19 39  1  0  0  0
 19 40  1  0  0  0
 20 21  2  0  0  0
 20 25  1  0  0  0
 21 22  1  0  0  0
 22 23  2  0  0  0
 22 26  1  0  0  0
 23 24  1  0  0  0
 23 41  1  0  0  0
 24 25  2  0  0  0
 24 42  1  0  0  0
 25 43  1  0  0  0
 26 27  1  0  0  0
 27 44  1  0  0  0
 27 45  1  0  0  0
 27 46  1  0  0  0
M  END
> <s_m_entry_id>
4834

> <s_m_entry_name>
dock_pv.153

> <s_m_Source_Path>
/home/csk/Desktop/cluster/DUD-E-result/hs90a

> <s_m_Source_File>
dock_pv.maegz

> <i_m_Source_File_Index>
153

> <chembl_id>
CHEMBL3360308

> <chembl_pref_name>
None

> <i_lp_mmshare_version>
53161

> <r_lp_tautomer_probability>
0.999999987636

> <s_lp_Force_Field>
OPLS_2005

> <r_lp_Energy>
19.772587

> <b_lp_Chiralities_Consistent>
1

> <s_lp_Variant>
CHEMBL3880_lig381-1

> <s_i_glide_gridfile>
glide-grid_1uyg

> <i_i_glide_lignum>
423

> <i_i_glide_rotatable_bonds>
3

> <r_i_docking_score>
-8.42677075931497

> <r_i_glide_ligand_efficiency>
-0.300956098546963

> <r_i_glide_ligand_efficiency_sa>
-0.913879968851355

> <r_i_glide_ligand_efficiency_ln>
-1.94514611199049

> <r_i_glide_gscore>
-8.42677075931497

> <r_i_glide_lipo>
-3.70461485398017

> <r_i_glide_hbond>
-0.219722176722159

> <r_i_glide_metal>
0

> <r_i_glide_rewards>
-2.28795260377127

> <r_i_glide_evdw>
-46.499683380127

> <r_i_glide_ecoul>
-1.05943095684052

> <r_i_glide_erotb>
0.269417687691059

> <r_i_glide_esite>
0

> <r_i_glide_emodel>
-70.7770367585782

> <r_i_glide_energy>
-47.5591143369675

> <r_i_glide_einternal>
0.429851204156876

> <i_i_glide_confnum>
4

> <i_i_glide_posenum>
340

> <r_i_glide_eff_state_penalty>
0

> <s_user_duplicate_titles>
CHEMBL3880_lig381

> <i_f3d_flags>
0

> <s_m_subgroup_title>
dock_pv

> <s_m_subgroupid>
dock_pv

> <b_m_subgroup_collapsed>
1

$$$$
CHEMBL3880_lig214
                    3D
 Schrodinger Suite 2021-1.
 33 35  0  0  1  0            999 V2000
    1.8921    7.6625   25.1402 C   0  0  0  0  0  0
    2.3170    8.8130   25.8295 C   0  0  0  0  0  0
    3.2606    9.6780   25.2650 C   0  0  0  0  0  0
    2.4271    7.3835   23.8712 C   0  0  0  0  0  0
    3.3737    8.2565   23.3365 C   0  0  0  0  0  0
    3.7762    9.3799   24.0013 C   0  0  0  0  0  0
    4.6867   10.0360   23.1792 N   0  0  0  0  0  0
    4.8626    9.3199   22.0234 C   0  0  0  0  0  0
    4.0610    8.2449   22.1521 N   0  0  0  0  0  0
    5.5684    9.5693   21.0452 O   0  0  0  0  0  0
    5.3251   11.2498   23.5351 C   0  0  0  0  0  0
    6.7273   11.3778   23.5667 C   0  0  0  0  0  0
    7.3028   12.5824   23.9661 C   0  0  0  0  0  0
    6.5124   13.6545   24.3666 C   0  0  0  0  0  0
    5.1195   13.5426   24.3674 C   0  0  0  0  0  0
    4.5329   12.3462   23.9267 C   0  0  0  0  0  0
    7.5694   10.3429   23.2493 O   0  0  0  0  0  0
    4.2670   14.6804   24.9305 C   0  0  0  0  0  0
    3.0605   14.7247   24.3672 F   0  0  0  0  0  0
    4.1063   14.4836   26.2375 F   0  0  0  0  0  0
    4.8597   15.8648   24.7671 F   0  0  0  0  0  0
    0.8415    6.7369   25.7536 C   0  0  0  0  0  0
    0.0607    7.3839   26.6208 F   0  0  0  0  0  0
    0.0611    6.2094   24.8108 F   0  0  0  0  0  0
    1.4581    5.7465   26.3993 F   0  0  0  0  0  0
    1.9191    9.0446   26.8079 H   0  0  0  0  0  0
    3.5748   10.5527   25.8159 H   0  0  0  0  0  0
    2.1085    6.5080   23.3220 H   0  0  0  0  0  0
    3.9461    7.5508   21.4283 H   0  0  0  0  0  0
    8.3776   12.6803   24.0000 H   0  0  0  0  0  0
    6.9893   14.5640   24.7067 H   0  0  0  0  0  0
    3.4554   12.2539   23.9293 H   0  0  0  0  0  0
    8.4948   10.5959   23.2717 H   0  0  0  0  0  0
  1  2  2  0  0  0
  1  4  1  0  0  0
  1 22  1  0  0  0
  2  3  1  0  0  0
  2 26  1  0  0  0
  3  6  2  0  0  0
  3 27  1  0  0  0
  4  5  2  0  0  0
  4 28  1  0  0  0
  5  9  1  0  0  0
  5  6  1  0  0  0
  6  7  1  0  0  0
  7  8  1  0  0  0
  7 11  1  0  0  0
  8  9  1  0  0  0
  8 10  2  0  0  0
  9 29  1  0  0  0
 11 12  2  0  0  0
 11 16  1  0  0  0
 12 13  1  0  0  0
 12 17  1  0  0  0
 13 14  2  0  0  0
 13 30  1  0  0  0
 14 15  1  0  0  0
 14 31  1  0  0  0
 15 16  2  0  0  0
 15 18  1  0  0  0
 16 32  1  0  0  0
 17 33  1  0  0  0
 18 19  1  0  0  0
 18 20  1  0  0  0
 18 21  1  0  0  0
 22 23  1  0  0  0
 22 24  1  0  0  0
 22 25  1  0  0  0
M  END
> <s_m_entry_id>
4835

> <s_m_entry_name>
dock_pv.154

> <s_m_Source_Path>
/home/csk/Desktop/cluster/DUD-E-result/hs90a

> <s_m_Source_File>
dock_pv.maegz

> <i_m_Source_File_Index>
154

> <chembl_id>
CHEMBL384903

> <chembl_pref_name>
None

> <i_lp_mmshare_version>
53161

> <r_lp_tautomer_probability>
1

> <s_lp_Force_Field>
OPLS_2005

> <r_lp_Energy>
51.859171

> <b_lp_Chiralities_Consistent>
1

> <s_lp_Variant>
CHEMBL3880_lig214-1

> <s_i_glide_gridfile>
glide-grid_1uyg

> <i_i_glide_lignum>
248

> <i_i_glide_rotatable_bonds>
4

> <r_i_docking_score>
-8.42265142602097

> <r_i_glide_ligand_efficiency>
-0.336906057040839

> <r_i_glide_ligand_efficiency_sa>
-0.985119285841776

> <r_i_glide_ligand_efficiency_ln>
-1.99642079446225

> <r_i_glide_gscore>
-8.42265142602097

> <r_i_glide_lipo>
-2.59224517886767

> <r_i_glide_hbond>
-0.0344410583551394

> <r_i_glide_metal>
0

> <r_i_glide_rewards>
-3.58103049848485

> <r_i_glide_evdw>
-33.832103729248

> <r_i_glide_ecoul>
-4.46439075469971

> <r_i_glide_erotb>
0.146329109354045

> <r_i_glide_esite>
0

> <r_i_glide_emodel>
-56.649803484313

> <r_i_glide_energy>
-38.2964944839478

> <r_i_glide_einternal>
1.45132803916931

> <i_i_glide_confnum>
4

> <i_i_glide_posenum>
285

> <r_i_glide_eff_state_penalty>
0

> <s_user_duplicate_titles>
CHEMBL3880_lig214

> <i_f3d_flags>
0

> <s_m_subgroup_title>
dock_pv

> <s_m_subgroupid>
dock_pv

> <b_m_subgroup_collapsed>
1

$$$$
CHEMBL3880_lig380
                    3D
 Schrodinger Suite 2021-1.
 50 53  0  0  1  0            999 V2000
   -1.2746   11.0576   25.2905 N   0  0  0  0  0  0
   -0.9371   11.7108   24.1571 C   0  0  0  0  0  0
    0.2811   11.6954   23.5668 N   0  0  0  0  0  0
   -0.3052   10.3077   25.8739 C   0  0  0  0  0  0
    0.9949   10.2123   25.3265 C   0  0  0  0  0  0
    1.2335   10.8989   24.1243 C   0  0  0  0  0  0
    2.5966   10.7773   23.4505 C   0  0  0  0  0  0
    3.7273   10.5663   24.4952 C   0  0  1  0  0  0
    3.2923    9.4893   25.4178 N   0  0  0  0  0  0
    2.0625    9.3346   25.9440 C   0  0  0  0  0  0
    5.1093   10.3466   23.8257 C   0  0  0  0  0  0
    6.0677   11.3727   23.5672 C   0  0  0  0  0  0
    7.2909   10.9958   22.9863 C   0  0  0  0  0  0
    7.6439    9.6657   22.8042 C   0  0  0  0  0  0
    6.7494    8.6561   23.1543 C   0  0  0  0  0  0
    5.4723    9.0127   23.5695 C   0  0  0  0  0  0
   -0.7499    9.6196   27.1572 C   0  0  0  0  0  0
    1.8983    8.4725   26.8024 O   0  0  0  0  0  0
   -1.9386   12.4363   23.5315 N   0  0  0  0  0  0
    5.9348   12.8156   23.9671 C   0  0  0  0  0  0
    4.6943   13.3722   23.9687 N   0  0  0  0  0  0
    4.5202   14.5757   24.5938 C   0  0  0  0  0  0
    5.5765   15.2990   25.1447 C   0  0  0  0  0  0
    6.8615   14.7776   25.0511 C   0  0  0  0  0  0
    7.0459   13.5283   24.4635 C   0  0  0  0  0  0
    3.2571   15.1116   24.7067 O   0  0  0  0  0  0
    2.1369   14.3686   24.2253 C   0  0  0  0  0  0
    7.0552    7.3127   23.1712 O   0  0  0  0  0  0
    8.4217    6.9116   23.1159 C   0  0  0  0  0  0
    2.7978   11.6501   22.8293 H   0  0  0  0  0  0
    2.5628    9.9195   22.7762 H   0  0  0  0  0  0
    3.8081   11.4338   25.1484 H   0  0  0  0  0  0
    4.0017    8.8876   25.8050 H   0  0  0  0  0  0
    8.0320   11.7394   22.7336 H   0  0  0  0  0  0
    8.6267    9.4358   22.4234 H   0  0  0  0  0  0
    4.7834    8.2098   23.7898 H   0  0  0  0  0  0
   -0.0664    9.8692   27.9663 H   0  0  0  0  0  0
   -1.7545    9.9171   27.4665 H   0  0  0  0  0  0
   -0.7418    8.5374   27.0274 H   0  0  0  0  0  0
   -1.7548   12.8539   22.6343 H   0  0  0  0  0  0
   -2.8879   12.3716   23.8953 H   0  0  0  0  0  0
    5.3999   16.2522   25.6212 H   0  0  0  0  0  0
    7.6989   15.3199   25.4674 H   0  0  0  0  0  0
    8.0342   13.0939   24.4764 H   0  0  0  0  0  0
    1.2174   14.9375   24.3662 H   0  0  0  0  0  0
    2.1995   14.1459   23.1615 H   0  0  0  0  0  0
    2.0376   13.4325   24.7652 H   0  0  0  0  0  0
    8.4567    5.8260   23.1629 H   0  0  0  0  0  0
    8.9117    7.2105   22.1902 H   0  0  0  0  0  0
    8.9913    7.3039   23.9590 H   0  0  0  0  0  0
  1  2  2  0  0  0
  1  4  1  0  0  0
  2  3  1  0  0  0
  2 19  1  0  0  0
  3  6  2  0  0  0
  4  5  2  0  0  0
  4 17  1  0  0  0
  5  6  1  0  0  0
  5 10  1  0  0  0
  6  7  1  0  0  0
  7  8  1  0  0  0
  7 30  1  0  0  0
  7 31  1  0  0  0
  8  9  1  0  0  0
  8 11  1  0  0  0
  8 32  1  0  0  0
  9 10  1  0  0  0
  9 33  1  0  0  0
 10 18  2  0  0  0
 11 12  2  0  0  0
 11 16  1  0  0  0
 12 13  1  0  0  0
 12 20  1  0  0  0
 13 14  2  0  0  0
 13 34  1  0  0  0
 14 15  1  0  0  0
 14 35  1  0  0  0
 15 16  2  0  0  0
 15 28  1  0  0  0
 16 36  1  0  0  0
 17 37  1  0  0  0
 17 38  1  0  0  0
 17 39  1  0  0  0
 19 40  1  0  0  0
 19 41  1  0  0  0
 20 21  2  0  0  0
 20 25  1  0  0  0
 21 22  1  0  0  0
 22 23  2  0  0  0
 22 26  1  0  0  0
 23 24  1  0  0  0
 23 42  1  0  0  0
 24 25  2  0  0  0
 24 43  1  0  0  0
 25 44  1  0  0  0
 26 27  1  0  0  0
 27 45  1  0  0  0
 27 46  1  0  0  0
 27 47  1  0  0  0
 28 29  1  0  0  0
 29 48  1  0  0  0
 29 49  1  0  0  0
 29 50  1  0  0  0
M  END
> <s_m_entry_id>
4836

> <s_m_entry_name>
dock_pv.155

> <s_m_Source_Path>
/home/csk/Desktop/cluster/DUD-E-result/hs90a

> <s_m_Source_File>
dock_pv.maegz

> <i_m_Source_File_Index>
155

> <chembl_id>
CHEMBL3360309

> <chembl_pref_name>
None

> <i_lp_mmshare_version>
53161

> <r_lp_tautomer_probability>
0.999999987636

> <s_lp_Force_Field>
OPLS_2005

> <r_lp_Energy>
23.568318

> <b_lp_Chiralities_Consistent>
1

> <s_lp_Variant>
CHEMBL3880_lig380-1

> <s_i_glide_gridfile>
glide-grid_1uyg

> <i_i_glide_lignum>
422

> <i_i_glide_rotatable_bonds>
4

> <r_i_docking_score>
-8.42160320806612

> <r_i_glide_ligand_efficiency>
-0.29040011062297

> <r_i_glide_ligand_efficiency_sa>
-0.892201145046546

> <r_i_glide_ligand_efficiency_ln>
-1.92833358121568

> <r_i_glide_gscore>
-8.42160320806612

> <r_i_glide_lipo>
-4.27181153416125

> <r_i_glide_hbond>
-0.155389537009325

> <r_i_glide_metal>
0

> <r_i_glide_rewards>
-1.71218996724705

> <r_i_glide_evdw>
-46.1398468017578

> <r_i_glide_ecoul>
-1.53305315971375

> <r_i_glide_erotb>
0.254738144396456

> <r_i_glide_esite>
0

> <r_i_glide_emodel>
-67.3479553211228

> <r_i_glide_energy>
-47.6728999614716

> <r_i_glide_einternal>
4.64291477203369

> <i_i_glide_confnum>
1

> <i_i_glide_posenum>
81

> <r_i_glide_eff_state_penalty>
0

> <s_user_duplicate_titles>
CHEMBL3880_lig380

> <i_f3d_flags>
0

> <s_m_subgroup_title>
dock_pv

> <s_m_subgroupid>
dock_pv

> <b_m_subgroup_collapsed>
1

$$$$
CHEMBL3880_lig158
                    3D
 Schrodinger Suite 2021-1.
 39 41  0  0  1  0            999 V2000
   -0.8537   11.5685   23.8421 C   0  0  0  0  0  0
   -0.3214   10.2082   25.5619 C   0  0  0  0  0  0
    0.2459   10.9740   24.4915 C   0  0  0  0  0  0
   -1.6275   10.3697   25.5925 N   0  0  0  0  0  0
   -1.9386   11.1620   24.5750 N   0  0  0  0  0  0
    0.3204    9.2942   26.5926 C   0  0  0  0  0  0
   -0.9258   12.3695   22.6383 C   0  0  0  0  0  0
   -0.1893    9.0997   27.8985 C   0  0  0  0  0  0
    1.4592    8.5585   26.2399 C   0  0  0  0  0  0
    0.4507    8.2469   28.7957 C   0  0  0  0  0  0
    2.1078    7.7137   27.1393 C   0  0  0  0  0  0
    1.6876   11.1688   24.1253 C   0  0  0  0  0  0
    1.6007    7.5631   28.4292 C   0  0  0  0  0  0
    0.0419   12.5395   21.8998 O   0  0  0  0  0  0
    2.4447   10.1616   23.5227 C   0  0  0  0  0  0
    2.2796   12.4091   24.3668 C   0  0  0  0  0  0
   -2.1209   12.8891   22.3493 N   0  0  0  0  0  0
    3.5187    6.8551   26.6261 Cl  0  0  0  0  0  0
   -1.3097    9.7328   28.3665 O   0  0  0  0  0  0
    2.2014    6.7312   29.3372 O   0  0  0  0  0  0
    4.4098   11.5792   23.5691 C   0  0  0  0  0  0
    3.7992   10.3538   23.2615 C   0  0  0  0  0  0
    3.6306   12.6091   24.0968 C   0  0  0  0  0  0
    5.7515   11.8540   23.3826 O   0  0  0  0  0  0
    6.6243   10.8136   22.9555 C   0  0  0  0  0  0
   -2.9038   11.4144   24.3782 H   0  0  0  0  0  0
    1.8550    8.6012   25.2484 H   0  0  0  0  0  0
    0.0628    8.1150   29.7956 H   0  0  0  0  0  0
    1.9839    9.2214   23.2535 H   0  0  0  0  0  0
    1.6928   13.2199   24.7666 H   0  0  0  0  0  0
   -2.2406   13.3868   21.4816 H   0  0  0  0  0  0
   -2.9170   12.7690   22.9596 H   0  0  0  0  0  0
   -1.4070    9.5722   29.3134 H   0  0  0  0  0  0
    3.0579    6.4254   29.0254 H   0  0  0  0  0  0
    4.3592    9.5405   22.8222 H   0  0  0  0  0  0
    4.0869   13.5666   24.3067 H   0  0  0  0  0  0
    7.6438   11.2014   22.8883 H   0  0  0  0  0  0
    6.3501   10.4332   21.9699 H   0  0  0  0  0  0
    6.6336    9.9850   23.6643 H   0  0  0  0  0  0
  1  3  2  0  0  0
  1  5  1  0  0  0
  1  7  1  0  0  0
  2  3  1  0  0  0
  2  6  1  0  0  0
  2  4  2  0  0  0
  3 12  1  0  0  0
  4  5  1  0  0  0
  5 26  1  0  0  0
  6  8  2  0  0  0
  6  9  1  0  0  0
  7 14  2  0  0  0
  7 17  1  0  0  0
  8 10  1  0  0  0
  8 19  1  0  0  0
  9 11  2  0  0  0
  9 27  1  0  0  0
 10 13  2  0  0  0
 10 28  1  0  0  0
 11 13  1  0  0  0
 11 18  1  0  0  0
 12 15  1  0  0  0
 12 16  2  0  0  0
 13 20  1  0  0  0
 15 22  2  0  0  0
 15 29  1  0  0  0
 16 23  1  0  0  0
 16 30  1  0  0  0
 17 31  1  0  0  0
 17 32  1  0  0  0
 19 33  1  0  0  0
 20 34  1  0  0  0
 21 23  2  0  0  0
 21 24  1  0  0  0
 21 22  1  0  0  0
 22 35  1  0  0  0
 23 36  1  0  0  0
 24 25  1  0  0  0
 25 37  1  0  0  0
 25 38  1  0  0  0
 25 39  1  0  0  0
M  END
> <s_m_entry_id>
4837

> <s_m_entry_name>
dock_pv.156

> <s_m_Source_Path>
/home/csk/Desktop/cluster/DUD-E-result/hs90a

> <s_m_Source_File>
dock_pv.maegz

> <i_m_Source_File_Index>
156

> <chembl_id>
CHEMBL366215

> <chembl_pref_name>
None

> <i_lp_mmshare_version>
53161

> <r_lp_tautomer_probability>
0.4999999999745

> <s_lp_Force_Field>
OPLS_2005

> <r_lp_Energy>
25.873789

> <b_lp_Chiralities_Consistent>
1

> <s_lp_Variant>
CHEMBL3880_lig158-1

> <s_i_glide_gridfile>
glide-grid_1uyg

> <i_i_glide_lignum>
184

> <i_i_glide_rotatable_bonds>
6

> <r_i_docking_score>
-8.41767528712814

> <r_i_glide_ligand_efficiency>
-0.336707011485126

> <r_i_glide_ligand_efficiency_sa>
-0.984537273106783

> <r_i_glide_ligand_efficiency_ln>
-1.99524130042181

> <r_i_glide_gscore>
-8.41767528712814

> <r_i_glide_lipo>
-3.36246904813985

> <r_i_glide_hbond>
-0.43179089454479

> <r_i_glide_metal>
0

> <r_i_glide_rewards>
-1.42288327201235

> <r_i_glide_evdw>
-43.2750053405762

> <r_i_glide_ecoul>
-8.88681602478027

> <r_i_glide_erotb>
0.296240598314699

> <r_i_glide_esite>
0

> <r_i_glide_emodel>
-79.0756850900079

> <r_i_glide_energy>
-52.1618213653564

> <r_i_glide_einternal>
1.87227296829224

> <i_i_glide_confnum>
7

> <i_i_glide_posenum>
224

> <r_i_glide_eff_state_penalty>
0

> <s_user_duplicate_titles>
CHEMBL3880_lig158,CHEMBL3880_lig158,317061

> <i_f3d_flags>
0

> <s_m_subgroup_title>
dock_pv

> <s_m_subgroupid>
dock_pv

> <b_m_subgroup_collapsed>
1

$$$$
CHEMBL3880_lig765
                    3D
 Schrodinger Suite 2021-1.
 55 58  0  0  1  0            999 V2000
    2.4130   11.0092   23.8134 C   0  0  0  0  0  0
    3.5720   11.6159   23.3455 C   0  0  0  0  0  0
    4.6838   10.8983   23.6954 N   0  0  0  0  0  0
    4.2103    9.7975   24.3670 C   0  0  0  0  0  0
    2.8292    9.8347   24.4745 C   0  0  0  0  0  0
    2.0052    8.7843   25.1311 C   0  0  0  0  0  0
    2.0617    8.6055   26.5170 C   0  0  0  0  0  0
    1.2816    7.6254   27.1381 C   0  0  0  0  0  0
    0.4389    6.8118   26.3636 C   0  0  0  0  0  0
    0.3863    6.9898   24.9799 C   0  0  0  0  0  0
    1.1668    7.9692   24.3669 C   0  0  0  0  0  0
    1.0348   11.5285   23.5876 C   0  0  0  0  0  0
   -0.0351   11.2006   24.4295 C   0  0  0  0  0  0
   -1.3247   11.6545   24.1562 C   0  0  0  0  0  0
   -1.5359   12.4803   23.0415 C   0  0  0  0  0  0
   -0.4867   12.7690   22.1777 C   0  0  0  0  0  0
    0.7949   12.3203   22.4603 C   0  0  0  0  0  0
    6.0763   11.1990   23.3403 C   0  0  0  0  0  0
    6.7200   12.4327   23.9925 C   0  0  0  0  0  0
    8.0610   12.3692   24.3670 C   0  0  0  0  0  0
    8.6455   13.3656   25.1507 C   0  0  0  0  0  0
    7.9198   14.5031   25.5189 C   0  0  0  0  0  0
    6.5731   14.6009   25.1333 C   0  0  0  0  0  0
    5.9916   13.5706   24.3668 C   0  0  0  0  0  0
   -2.7390   13.0614   22.7673 O   0  0  0  0  0  0
   -0.3389    5.8346   26.9364 O   0  0  0  0  0  0
    8.4682   15.5381   26.2584 O   0  0  0  0  0  0
    1.3547    7.4758   28.5020 O   0  0  0  0  0  0
   -2.3390   11.2654   24.9989 O   0  0  0  0  0  0
    9.7951   15.4225   26.7668 C   0  0  0  0  0  0
    5.8745   15.7106   25.5724 O   0  0  0  0  0  0
    4.4615   15.7615   25.4191 C   0  0  0  0  0  0
    3.6883   12.5200   22.7692 H   0  0  0  0  0  0
    4.8813    9.0316   24.7130 H   0  0  0  0  0  0
    2.7071    9.2391   27.1085 H   0  0  0  0  0  0
   -0.2606    6.3746   24.3717 H   0  0  0  0  0  0
    1.1217    8.0888   23.2943 H   0  0  0  0  0  0
    0.1206   10.5840   25.3010 H   0  0  0  0  0  0
   -0.6661   13.3615   21.2929 H   0  0  0  0  0  0
    1.5937   12.5657   21.7792 H   0  0  0  0  0  0
    6.1463   11.2633   22.2619 H   0  0  0  0  0  0
    6.6625   10.3182   23.6094 H   0  0  0  0  0  0
    8.6536   11.5043   24.1038 H   0  0  0  0  0  0
    9.6749   13.2362   25.4452 H   0  0  0  0  0  0
    4.9535   13.6447   24.1005 H   0  0  0  0  0  0
   -3.4577   12.7867   23.3542 H   0  0  0  0  0  0
   -0.8620    5.3482   26.2952 H   0  0  0  0  0  0
    1.9474    8.0975   28.9307 H   0  0  0  0  0  0
   -3.2331   11.5631   24.7639 H   0  0  0  0  0  0
   10.0417   16.3083   27.3521 H   0  0  0  0  0  0
   10.5295   15.3485   25.9643 H   0  0  0  0  0  0
    9.8948   14.5594   27.4271 H   0  0  0  0  0  0
    4.0889   16.6836   25.8655 H   0  0  0  0  0  0
    4.1707   15.7553   24.3686 H   0  0  0  0  0  0
    3.9743   14.9291   25.9302 H   0  0  0  0  0  0
  1  2  2  0  0  0
  1  5  1  0  0  0
  1 12  1  0  0  0
  2  3  1  0  0  0
  2 33  1  0  0  0
  3  4  1  0  0  0
  3 18  1  0  0  0
  4  5  2  0  0  0
  4 34  1  0  0  0
  5  6  1  0  0  0
  6  7  2  0  0  0
  6 11  1  0  0  0
  7  8  1  0  0  0
  7 35  1  0  0  0
  8  9  2  0  0  0
  8 28  1  0  0  0
  9 10  1  0  0  0
  9 26  1  0  0  0
 10 11  2  0  0  0
 10 36  1  0  0  0
 11 37  1  0  0  0
 12 13  2  0  0  0
 12 17  1  0  0  0
 13 14  1  0  0  0
 13 38  1  0  0  0
 14 15  2  0  0  0
 14 29  1  0  0  0
 15 16  1  0  0  0
 15 25  1  0  0  0
 16 17  2  0  0  0
 16 39  1  0  0  0
 17 40  1  0  0  0
 18 19  1  0  0  0
 18 41  1  0  0  0
 18 42  1  0  0  0
 19 20  2  0  0  0
 19 24  1  0  0  0
 20 21  1  0  0  0
 20 43  1  0  0  0
 21 22  2  0  0  0
 21 44  1  0  0  0
 22 23  1  0  0  0
 22 27  1  0  0  0
 23 24  2  0  0  0
 23 31  1  0  0  0
 24 45  1  0  0  0
 25 46  1  0  0  0
 26 47  1  0  0  0
 27 30  1  0  0  0
 28 48  1  0  0  0
 29 49  1  0  0  0
 30 50  1  0  0  0
 30 51  1  0  0  0
 30 52  1  0  0  0
 31 32  1  0  0  0
 32 53  1  0  0  0
 32 54  1  0  0  0
 32 55  1  0  0  0
M  END
> <s_m_entry_id>
4838

> <s_m_entry_name>
dock_pv.157

> <s_m_Source_Path>
/home/csk/Desktop/cluster/DUD-E-result/hs90a

> <s_m_Source_File>
dock_pv.maegz

> <i_m_Source_File_Index>
157

> <chembl_id>
CHEMBL4062144

> <chembl_pref_name>
None

> <i_lp_mmshare_version>
53161

> <r_lp_tautomer_probability>
0.999999999999552

> <s_lp_Force_Field>
OPLS_2005

> <r_lp_Energy>
26.151504

> <b_lp_Chiralities_Consistent>
1

> <s_lp_Variant>
CHEMBL3880_lig765-1

> <s_i_glide_gridfile>
glide-grid_1uyg

> <i_i_glide_lignum>
866

> <i_i_glide_rotatable_bonds>
10

> <r_i_docking_score>
-8.40949483938262

> <r_i_glide_ligand_efficiency>
-0.262796713730707

> <r_i_glide_ligand_efficiency_sa>
-0.834327558695967

> <r_i_glide_ligand_efficiency_ln>
-1.88311512870934

> <r_i_glide_gscore>
-8.40949483938262

> <r_i_glide_lipo>
-4.68367943996803

> <r_i_glide_hbond>
-0.0327334177200819

> <r_i_glide_metal>
0

> <r_i_glide_rewards>
-1.14134588950647

> <r_i_glide_evdw>
-44.585391998291

> <r_i_glide_ecoul>
-4.97528266906738

> <r_i_glide_erotb>
0.423825908086619

> <r_i_glide_esite>
0

> <r_i_glide_emodel>
-67.5470650767573

> <r_i_glide_energy>
-49.5606746673584

> <r_i_glide_einternal>
6.9403223991394

> <i_i_glide_confnum>
19

> <i_i_glide_posenum>
201

> <r_i_glide_eff_state_penalty>
0

> <s_user_duplicate_titles>
CHEMBL3880_lig765

> <i_f3d_flags>
0

> <s_m_subgroup_title>
dock_pv

> <s_m_subgroupid>
dock_pv

> <b_m_subgroup_collapsed>
1

$$$$
CHEMBL3880_lig927
                    3D
 Schrodinger Suite 2021-1.
 49 52  0  0  1  0            999 V2000
   -1.5088   11.5969   23.4025 N   0  0  0  0  0  0
   -0.8225   12.3540   22.5106 C   0  0  0  0  0  0
    0.5166   12.5970   22.5297 N   0  0  0  0  0  0
    1.2240   11.9822   23.5230 C   0  0  0  0  0  0
   -1.5474   12.8369   21.4338 N   0  0  0  0  0  0
    2.6729   12.2573   23.6268 C   0  0  0  0  0  0
    3.1136   13.5101   24.0677 C   0  0  0  0  0  0
    4.4678   13.7663   24.2575 C   0  0  0  0  0  0
    5.4006   12.7786   23.9671 C   0  0  0  0  0  0
    4.9694   11.5198   23.5653 C   0  0  0  0  0  0
    3.6058   11.2393   23.3860 C   0  0  0  0  0  0
    3.1058   10.0200   22.9552 O   0  0  0  0  0  0
    1.9829   14.7691   24.3669 Cl  0  0  0  0  0  0
    3.9729    8.9667   22.5469 C   0  0  0  0  0  0
    4.6531    8.2763   23.7611 C   0  0  0  0  0  0
    6.0871    8.0224   23.6040 N   0  0  0  0  0  0
    7.0882   13.1069   24.1262 Cl  0  0  0  0  0  0
   -0.7571   11.0116   24.3665 C   0  0  0  0  0  0
    0.6134   11.1427   24.4498 C   0  0  0  0  0  0
    1.1742   10.2585   25.5333 C   0  0  0  0  0  0
   -0.0372    9.7785   26.1967 N   0  0  0  0  0  0
   -1.2395   10.0511   25.4009 C   0  0  0  0  0  0
   -0.0801    9.1589   27.4013 C   0  0  0  0  0  0
    1.1080    8.7685   27.8987 N   0  0  0  0  0  0
   -1.1391    8.9027   27.9697 O   0  0  0  0  0  0
    6.8566    7.1784   24.3665 C   0  0  0  0  0  0
    8.1592    7.3911   23.9552 C   0  0  0  0  0  0
    8.0613    8.3673   22.9610 C   0  0  0  0  0  0
    6.8331    8.7608   22.7672 N   0  0  0  0  0  0
    1.2816    8.1420   29.2037 C   0  0  0  0  0  0
   -1.0869   13.3845   20.7275 H   0  0  0  0  0  0
   -2.5151   12.5515   21.3386 H   0  0  0  0  0  0
    4.7949   14.7430   24.5827 H   0  0  0  0  0  0
    5.7214   10.7855   23.3706 H   0  0  0  0  0  0
    3.3657    8.2293   22.0210 H   0  0  0  0  0  0
    4.6533    9.3450   21.7839 H   0  0  0  0  0  0
    4.5333    8.8811   24.6597 H   0  0  0  0  0  0
    4.1586    7.3273   23.9713 H   0  0  0  0  0  0
    1.8390   10.7696   26.2261 H   0  0  0  0  0  0
    1.7300    9.4172   25.1165 H   0  0  0  0  0  0
   -1.5457    9.1681   24.8577 H   0  0  0  0  0  0
   -2.0734   10.4187   26.0010 H   0  0  0  0  0  0
    1.9426    8.9396   27.3605 H   0  0  0  0  0  0
    6.4195    6.5391   25.1199 H   0  0  0  0  0  0
    9.0557    6.9112   24.3165 H   0  0  0  0  0  0
    8.8610    8.7775   22.3670 H   0  0  0  0  0  0
    2.3411    7.9985   29.4150 H   0  0  0  0  0  0
    0.7867    7.1711   29.2342 H   0  0  0  0  0  0
    0.8614    8.7675   29.9918 H   0  0  0  0  0  0
  1 18  1  0  0  0
  1  2  2  0  0  0
  2  5  1  0  0  0
  2  3  1  0  0  0
  3  4  2  0  0  0
  4 19  1  0  0  0
  4  6  1  0  0  0
  5 31  1  0  0  0
  5 32  1  0  0  0
  6  7  2  0  0  0
  6 11  1  0  0  0
  7  8  1  0  0  0
  7 13  1  0  0  0
  8  9  2  0  0  0
  8 33  1  0  0  0
  9 17  1  0  0  0
  9 10  1  0  0  0
 10 11  2  0  0  0
 10 34  1  0  0  0
 11 12  1  0  0  0
 12 14  1  0  0  0
 14 15  1  0  0  0
 14 35  1  0  0  0
 14 36  1  0  0  0
 15 16  1  0  0  0
 15 37  1  0  0  0
 15 38  1  0  0  0
 16 26  1  0  0  0
 16 29  1  0  0  0
 18 19  2  0  0  0
 18 22  1  0  0  0
 19 20  1  0  0  0
 20 21  1  0  0  0
 20 39  1  0  0  0
 20 40  1  0  0  0
 21 22  1  0  0  0
 21 23  1  0  0  0
 22 41  1  0  0  0
 22 42  1  0  0  0
 23 24  1  0  0  0
 23 25  2  0  0  0
 24 30  1  0  0  0
 24 43  1  0  0  0
 26 27  2  0  0  0
 26 44  1  0  0  0
 27 28  1  0  0  0
 27 45  1  0  0  0
 28 29  2  0  0  0
 28 46  1  0  0  0
 30 47  1  0  0  0
 30 48  1  0  0  0
 30 49  1  0  0  0
M  END
> <s_m_entry_id>
4839

> <s_m_entry_name>
dock_pv.158

> <s_m_Source_Path>
/home/csk/Desktop/cluster/DUD-E-result/hs90a

> <s_m_Source_File>
dock_pv.maegz

> <i_m_Source_File_Index>
158

> <chembl_id>
CHEMBL1774920

> <chembl_pref_name>
None

> <i_lp_mmshare_version>
53161

> <r_lp_tautomer_probability>
0.999999987636

> <s_lp_Force_Field>
OPLS_2005

> <r_lp_Energy>
35.46894

> <b_lp_Chiralities_Consistent>
1

> <s_lp_Variant>
CHEMBL3880_lig927-1

> <s_i_glide_gridfile>
glide-grid_1uyg

> <i_i_glide_lignum>
1033

> <i_i_glide_rotatable_bonds>
7

> <r_i_docking_score>
-8.404498951909

> <r_i_glide_ligand_efficiency>
-0.280149965063633

> <r_i_glide_ligand_efficiency_sa>
-0.870491077000655

> <r_i_glide_ligand_efficiency_ln>
-1.90959373622434

> <r_i_glide_gscore>
-8.404498951909

> <r_i_glide_lipo>
-3.99710712853059

> <r_i_glide_hbond>
0

> <r_i_glide_metal>
0

> <r_i_glide_rewards>
-1.95499090705254

> <r_i_glide_evdw>
-49.6665573120117

> <r_i_glide_ecoul>
-3.07766604423523

> <r_i_glide_erotb>
0.498356172888545

> <r_i_glide_esite>
-0.00577931697854509

> <r_i_glide_emodel>
-73.3224897283764

> <r_i_glide_energy>
-52.7442233562469

> <r_i_glide_einternal>
4.98893737792969

> <i_i_glide_confnum>
62

> <i_i_glide_posenum>
12

> <r_i_glide_eff_state_penalty>
0

> <s_user_duplicate_titles>
CHEMBL3880_lig927

> <i_f3d_flags>
0

> <s_m_subgroup_title>
dock_pv

> <s_m_subgroupid>
dock_pv

> <b_m_subgroup_collapsed>
1

$$$$
CHEMBL3880_lig891
                    3D
 Schrodinger Suite 2021-1.
 41 43  0  0  1  0            999 V2000
    4.3762   12.1267   24.1009 C   0  0  0  0  0  0
    3.3991   11.2410   24.4149 N   0  0  0  0  0  0
    5.4066   11.5439   23.5305 N   0  0  0  0  0  0
    5.0820   10.2405   23.4642 C   0  0  0  0  0  0
    3.8301   10.0144   24.0022 C   0  0  0  0  0  0
    4.1890   13.8799   24.3449 S   0  0  0  0  0  0
    5.7630    9.1150   22.9415 C   0  0  0  0  0  0
    3.1917    8.8202   24.0698 N   0  0  0  0  0  0
    5.6724   14.3690   25.1868 C   0  0  0  0  0  0
    5.1490    7.9053   22.9837 N   0  0  0  0  0  0
   -0.0634   12.6891   22.0056 C   0  0  0  0  0  0
   -1.0715   12.7690   21.3221 C   0  0  0  0  0  0
    6.9390   13.9210   24.7811 C   0  0  0  0  0  0
    3.9293    7.8386   23.5311 C   0  0  0  0  0  0
    5.5581   15.1667   26.3285 C   0  0  0  0  0  0
    2.0900   11.5141   25.0357 C   0  0  0  0  0  0
    6.6721   15.3640   27.1340 C   0  0  0  0  0  0
    7.0231    9.1690   22.3590 N   0  0  0  0  0  0
    8.0637   14.1279   25.5867 C   0  0  0  0  0  0
    4.0610   15.9172   26.7670 Cl  0  0  0  0  0  0
    7.9123   14.8395   26.7823 C   0  0  0  0  0  0
    9.2607   13.5860   25.1670 O   0  0  0  0  0  0
    1.1082   12.5943   22.8907 C   0  0  0  0  0  0
    0.9465   11.5400   24.0055 C   0  0  0  0  0  0
   10.4077   13.6829   26.0065 C   0  0  0  0  0  0
   -1.9790   12.8449   20.7671 H   0  0  0  0  0  0
    7.0585   13.3585   23.8693 H   0  0  0  0  0  0
    3.4764    6.8577   23.5409 H   0  0  0  0  0  0
    1.9419   10.7293   25.7800 H   0  0  0  0  0  0
    2.1813   12.4556   25.5670 H   0  0  0  0  0  0
    6.5858   15.9641   28.0269 H   0  0  0  0  0  0
    7.5267   10.0425   22.3263 H   0  0  0  0  0  0
    7.3713    8.3184   21.9304 H   0  0  0  0  0  0
    8.7453   15.0190   27.4453 H   0  0  0  0  0  0
    1.2675   13.5840   23.3206 H   0  0  0  0  0  0
    1.9764   12.3700   22.2701 H   0  0  0  0  0  0
    0.8533   10.5461   23.5681 H   0  0  0  0  0  0
    0.0125   11.7144   24.5438 H   0  0  0  0  0  0
   11.2456   13.1709   25.5337 H   0  0  0  0  0  0
   10.7031   14.7215   26.1639 H   0  0  0  0  0  0
   10.2387   13.2077   26.9738 H   0  0  0  0  0  0
  1  2  1  0  0  0
  1  3  2  0  0  0
  1  6  1  0  0  0
  2  5  1  0  0  0
  2 16  1  0  0  0
  3  4  1  0  0  0
  4  7  2  0  0  0
  4  5  1  0  0  0
  5  8  2  0  0  0
  6  9  1  0  0  0
  7 10  1  0  0  0
  7 18  1  0  0  0
  8 14  1  0  0  0
  9 13  2  0  0  0
  9 15  1  0  0  0
 10 14  2  0  0  0
 11 23  1  0  0  0
 11 12  3  0  0  0
 12 26  1  0  0  0
 13 19  1  0  0  0
 13 27  1  0  0  0
 14 28  1  0  0  0
 15 17  2  0  0  0
 15 20  1  0  0  0
 16 24  1  0  0  0
 16 29  1  0  0  0
 16 30  1  0  0  0
 17 21  1  0  0  0
 17 31  1  0  0  0
 18 32  1  0  0  0
 18 33  1  0  0  0
 19 22  1  0  0  0
 19 21  2  0  0  0
 21 34  1  0  0  0
 22 25  1  0  0  0
 23 24  1  0  0  0
 23 35  1  0  0  0
 23 36  1  0  0  0
 24 37  1  0  0  0
 24 38  1  0  0  0
 25 39  1  0  0  0
 25 40  1  0  0  0
 25 41  1  0  0  0
M  END
> <s_m_entry_id>
4840

> <s_m_entry_name>
dock_pv.159

> <s_m_Source_Path>
/home/csk/Desktop/cluster/DUD-E-result/hs90a

> <s_m_Source_File>
dock_pv.maegz

> <i_m_Source_File_Index>
159

> <chembl_id>
CHEMBL192062

> <chembl_pref_name>
None

> <i_lp_mmshare_version>
53161

> <r_lp_tautomer_probability>
0.999997216410988

> <s_lp_Force_Field>
OPLS_2005

> <r_lp_Energy>
13.953037

> <b_lp_Chiralities_Consistent>
1

> <s_lp_Variant>
CHEMBL3880_lig891-1

> <s_i_glide_gridfile>
glide-grid_1uyg

> <i_i_glide_lignum>
997

> <i_i_glide_rotatable_bonds>
7

> <r_i_docking_score>
-8.40224959096032

> <r_i_glide_ligand_efficiency>
-0.336089983638413

> <r_i_glide_ligand_efficiency_sa>
-0.982733072739959

> <r_i_glide_ligand_efficiency_ln>
-1.99158494815922

> <r_i_glide_gscore>
-8.40224959096032

> <r_i_glide_lipo>
-3.71642010187737

> <r_i_glide_hbond>
-0.441259115177637

> <r_i_glide_metal>
0

> <r_i_glide_rewards>
-2.46084521390598

> <r_i_glide_evdw>
-40.8907356262207

> <r_i_glide_ecoul>
-3.793048620224

> <r_i_glide_erotb>
0.829768914345304

> <r_i_glide_esite>
0

> <r_i_glide_emodel>
-62.9356637567482

> <r_i_glide_energy>
-44.6837842464447

> <r_i_glide_einternal>
5.53064393997192

> <i_i_glide_confnum>
14

> <i_i_glide_posenum>
129

> <r_i_glide_eff_state_penalty>
0

> <s_user_duplicate_titles>
CHEMBL3880_lig891,321250

> <i_f3d_flags>
0

> <s_m_subgroup_title>
dock_pv

> <s_m_subgroupid>
dock_pv

> <b_m_subgroup_collapsed>
1

$$$$
CHEMBL3880_lig154
                    3D
 Schrodinger Suite 2021-1.
 38 40  0  0  1  0            999 V2000
    3.3736   14.6330   24.7670 N   0  0  0  0  0  0
    3.6532   13.4929   24.1426 N   0  0  0  0  0  0
    4.9580   13.3440   24.2400 C   0  0  0  0  0  0
    5.5362   14.4707   24.9084 C   0  0  0  0  0  0
    4.4633   15.2501   25.3097 C   0  0  0  0  0  0
    5.6101   12.0833   23.6963 C   0  0  0  0  0  0
    6.9536   14.7691   25.2634 C   0  0  0  0  0  0
    4.3675   16.5022   26.1496 C   0  0  0  0  0  0
    7.3276   14.7690   26.6033 C   0  0  0  0  0  0
    8.6732   14.7818   26.9453 C   0  0  0  0  0  0
    9.6610   14.9128   25.9721 C   0  0  0  0  0  0
    9.2610   15.0672   24.6558 C   0  0  0  0  0  0
    7.9226   15.0323   24.2999 C   0  0  0  0  0  0
    5.0127   10.8012   23.7191 C   0  0  0  0  0  0
    5.7107    9.6777   23.2560 C   0  0  0  0  0  0
    7.0172    9.8143   22.7916 C   0  0  0  0  0  0
    7.6058   11.0604   22.7451 C   0  0  0  0  0  0
    6.9005   12.1731   23.1672 C   0  0  0  0  0  0
    7.7605    8.7556   22.3670 O   0  0  0  0  0  0
    3.7526   10.5995   24.2195 O   0  0  0  0  0  0
   11.0197   14.9117   26.2195 O   0  0  0  0  0  0
   11.4750   14.7685   27.5613 C   0  0  0  0  0  0
    2.4265   14.9694   24.8525 H   0  0  0  0  0  0
    5.3215   16.7682   26.6009 H   0  0  0  0  0  0
    4.0610   17.3656   25.5670 H   0  0  0  0  0  0
    3.6610   16.3887   26.9706 H   0  0  0  0  0  0
    6.5798   14.7123   27.3786 H   0  0  0  0  0  0
    8.9449   14.6707   27.9670 H   0  0  0  0  0  0
   10.0176   15.1690   23.9018 H   0  0  0  0  0  0
    7.6610   15.1423   23.2602 H   0  0  0  0  0  0
    5.2541    8.6997   23.2868 H   0  0  0  0  0  0
    8.6100   11.1690   22.3670 H   0  0  0  0  0  0
    7.3950   13.1063   23.0409 H   0  0  0  0  0  0
    7.2603    7.9713   22.1163 H   0  0  0  0  0  0
    3.4842    9.6791   24.1998 H   0  0  0  0  0  0
   12.5636   14.8178   27.5826 H   0  0  0  0  0  0
   11.1780   13.8076   27.9846 H   0  0  0  0  0  0
   11.0964   15.5690   28.1973 H   0  0  0  0  0  0
  1  2  1  0  0  0
  1  5  1  0  0  0
  1 23  1  0  0  0
  2  3  2  0  0  0
  3  4  1  0  0  0
  3  6  1  0  0  0
  4  5  2  0  0  0
  4  7  1  0  0  0
  5  8  1  0  0  0
  6 14  2  0  0  0
  6 18  1  0  0  0
  7  9  2  0  0  0
  7 13  1  0  0  0
  8 24  1  0  0  0
  8 25  1  0  0  0
  8 26  1  0  0  0
  9 10  1  0  0  0
  9 27  1  0  0  0
 10 11  2  0  0  0
 10 28  1  0  0  0
 11 12  1  0  0  0
 11 21  1  0  0  0
 12 13  2  0  0  0
 12 29  1  0  0  0
 13 30  1  0  0  0
 14 15  1  0  0  0
 14 20  1  0  0  0
 15 16  2  0  0  0
 15 31  1  0  0  0
 16 17  1  0  0  0
 16 19  1  0  0  0
 17 18  2  0  0  0
 17 32  1  0  0  0
 18 33  1  0  0  0
 19 34  1  0  0  0
 20 35  1  0  0  0
 21 22  1  0  0  0
 22 36  1  0  0  0
 22 37  1  0  0  0
 22 38  1  0  0  0
M  END
> <s_m_entry_id>
4841

> <s_m_entry_name>
dock_pv.160

> <s_m_Source_Path>
/home/csk/Desktop/cluster/DUD-E-result/hs90a

> <s_m_Source_File>
dock_pv.maegz

> <i_m_Source_File_Index>
160

> <chembl_id>
CHEMBL192894

> <chembl_pref_name>
None

> <i_lp_mmshare_version>
53161

> <r_lp_tautomer_probability>
0.4999999999745

> <s_lp_Force_Field>
OPLS_2005

> <r_lp_Energy>
21.077773

> <b_lp_Chiralities_Consistent>
1

> <s_lp_Variant>
CHEMBL3880_lig154-1

> <s_i_glide_gridfile>
glide-grid_1uyg

> <i_i_glide_lignum>
177

> <i_i_glide_rotatable_bonds>
5

> <r_i_docking_score>
-8.39096342108434

> <r_i_glide_ligand_efficiency>
-0.381407428231106

> <r_i_glide_ligand_efficiency_sa>
-1.06871861380653

> <r_i_glide_ligand_efficiency_ln>
-2.0510575279404

> <r_i_glide_gscore>
-8.39096342108434

> <r_i_glide_lipo>
-4.12531824422236

> <r_i_glide_hbond>
-0.218277187156478

> <r_i_glide_metal>
0

> <r_i_glide_rewards>
-2.23179946580333

> <r_i_glide_evdw>
-33.7536392211914

> <r_i_glide_ecoul>
-3.63418865203857

> <r_i_glide_erotb>
0.41724173496318

> <r_i_glide_esite>
0

> <r_i_glide_emodel>
-51.430773798978

> <r_i_glide_energy>
-37.38782787323

> <r_i_glide_einternal>
2.7776210308075

> <i_i_glide_confnum>
4

> <i_i_glide_posenum>
67

> <r_i_glide_eff_state_penalty>
0

> <s_user_duplicate_titles>
CHEMBL3880_lig154

> <i_f3d_flags>
0

> <s_m_subgroup_title>
dock_pv

> <s_m_subgroupid>
dock_pv

> <b_m_subgroup_collapsed>
1

$$$$
CHEMBL3880_lig36
                    3D
 Schrodinger Suite 2021-1.
 41 44  0  0  1  0            999 V2000
    2.0118    8.4890   25.2287 S   0  0  0  0  0  0
    3.2608    8.4593   25.9926 O   0  0  0  0  0  0
    1.5835    7.2811   24.5166 O   0  0  0  0  0  0
    0.5859   11.7396   23.6760 O   0  0  0  0  0  0
    4.9526    8.8552   23.0520 O   0  0  0  0  0  0
    4.1918   14.5660   24.7825 O   0  0  0  0  0  0
    7.0723   14.7199   24.5655 O   0  0  0  0  0  0
    1.9630    9.8847   24.1635 N   0  0  0  0  0  0
    0.6710    9.1640   26.2016 C   0  0  0  0  0  0
    0.1346   10.2936   25.5923 C   0  0  0  0  0  0
    0.8677   10.7635   24.3713 C   0  0  0  0  0  0
    2.8250    9.9126   22.9450 C   0  0  0  0  0  0
    0.1627    8.6385   27.3896 C   0  0  0  0  0  0
   -1.0022   10.8807   26.1555 C   0  0  0  0  0  0
    4.3377    9.9072   23.2290 C   0  0  0  0  0  0
    5.0196   11.1920   23.5917 C   0  0  0  0  0  0
   -0.9428    9.2686   27.9665 C   0  0  0  0  0  0
   -1.5379   10.3688   27.3419 C   0  0  0  0  0  0
    4.9603   13.5072   24.3668 C   0  0  0  0  0  0
    4.3061   12.3327   23.9873 C   0  0  0  0  0  0
    6.3680   13.5688   24.3068 C   0  0  0  0  0  0
    6.4192   11.2601   23.5659 C   0  0  0  0  0  0
    7.0796   12.4380   23.9064 C   0  0  0  0  0  0
    4.4408   15.0193   26.1035 C   0  0  0  0  0  0
    6.9909   15.2401   25.8808 C   0  0  0  0  0  0
    5.6595   15.9368   26.1750 C   0  0  0  0  0  0
    2.5869    9.0193   22.3670 H   0  0  0  0  0  0
    2.5766   10.7658   22.3140 H   0  0  0  0  0  0
    0.5922    7.7660   27.8604 H   0  0  0  0  0  0
   -1.4734   11.7336   25.6870 H   0  0  0  0  0  0
   -1.3566    8.8883   28.8875 H   0  0  0  0  0  0
   -2.4167   10.8214   27.7778 H   0  0  0  0  0  0
    3.2288   12.3325   24.0376 H   0  0  0  0  0  0
    7.0119   10.4039   23.2725 H   0  0  0  0  0  0
    8.1569   12.4749   23.8583 H   0  0  0  0  0  0
    4.5138   14.1842   26.8037 H   0  0  0  0  0  0
    3.5666   15.5759   26.4306 H   0  0  0  0  0  0
    7.2108   14.4659   26.6184 H   0  0  0  0  0  0
    7.7974   15.9686   25.9715 H   0  0  0  0  0  0
    5.7069   16.3693   27.1674 H   0  0  0  0  0  0
    5.5211   16.7686   25.4831 H   0  0  0  0  0  0
  1  2  2  0  0  0
  1  3  2  0  0  0
  1  8  1  0  0  0
  1  9  1  0  0  0
  4 11  2  0  0  0
  5 15  2  0  0  0
  6 19  1  0  0  0
  6 24  1  0  0  0
  7 21  1  0  0  0
  7 25  1  0  0  0
  8 11  1  0  0  0
  8 12  1  0  0  0
  9 10  1  0  0  0
  9 13  2  0  0  0
 10 11  1  0  0  0
 10 14  2  0  0  0
 12 15  1  0  0  0
 12 27  1  0  0  0
 12 28  1  0  0  0
 13 17  1  0  0  0
 13 29  1  0  0  0
 14 18  1  0  0  0
 14 30  1  0  0  0
 15 16  1  0  0  0
 16 20  1  0  0  0
 16 22  2  0  0  0
 17 18  2  0  0  0
 17 31  1  0  0  0
 18 32  1  0  0  0
 19 20  2  0  0  0
 19 21  1  0  0  0
 20 33  1  0  0  0
 21 23  2  0  0  0
 22 23  1  0  0  0
 22 34  1  0  0  0
 23 35  1  0  0  0
 24 26  1  0  0  0
 24 36  1  0  0  0
 24 37  1  0  0  0
 25 26  1  0  0  0
 25 38  1  0  0  0
 25 39  1  0  0  0
 26 40  1  0  0  0
 26 41  1  0  0  0
M  END
> <s_m_entry_id>
4842

> <s_m_entry_name>
dock_pv.161

> <s_m_Source_Path>
/home/csk/Desktop/cluster/DUD-E-result/hs90a

> <s_m_Source_File>
dock_pv.maegz

> <i_m_Source_File_Index>
161

> <chembl_id>
CHEMBL1562575

> <chembl_pref_name>
None

> <i_lp_mmshare_version>
53161

> <r_lp_tautomer_probability>
0.99990000499975

> <s_lp_Force_Field>
OPLS_2005

> <r_lp_Energy>
41.809912

> <b_lp_Chiralities_Consistent>
1

> <s_lp_Variant>
CHEMBL3880_lig36-1

> <s_i_glide_gridfile>
glide-grid_1uyg

> <i_i_glide_lignum>
41

> <i_i_glide_rotatable_bonds>
3

> <r_i_docking_score>
-8.38800054092992

> <r_i_glide_ligand_efficiency>
-0.322615405420382

> <r_i_glide_ligand_efficiency_sa>
-0.955746869127558

> <r_i_glide_ligand_efficiency_ln>
-1.96989440376272

> <r_i_glide_gscore>
-8.38800054092992

> <r_i_glide_lipo>
-4.19458445822074

> <r_i_glide_hbond>
0

> <r_i_glide_metal>
0

> <r_i_glide_rewards>
-2.61583277536448

> <r_i_glide_evdw>
-42.6714286804199

> <r_i_glide_ecoul>
0.934330701828003

> <r_i_glide_erotb>
0.415838521402093

> <r_i_glide_esite>
0

> <r_i_glide_emodel>
-60.464021616977

> <r_i_glide_energy>
-41.7370979785919

> <r_i_glide_einternal>
2.026211977005

> <i_i_glide_confnum>
48

> <i_i_glide_posenum>
83

> <r_i_glide_eff_state_penalty>
0

> <s_user_duplicate_titles>
CHEMBL3880_lig36

> <i_f3d_flags>
0

> <s_m_subgroup_title>
dock_pv

> <s_m_subgroupid>
dock_pv

> <b_m_subgroup_collapsed>
1

$$$$
CHEMBL3880_lig958
                    3D
 Schrodinger Suite 2021-1.
 52 56  0  0  1  0            999 V2000
    5.2358    9.1690   21.0434 C   0  0  0  0  0  0
    5.3242    8.7483   22.5308 C   0  0  0  0  0  0
    5.1754    7.2248   22.7463 C   0  0  0  0  0  0
    1.3018   12.4458   23.4362 C   0  0  0  0  0  0
    2.2367   11.6805   24.1445 C   0  0  0  0  0  0
    1.8114   10.6798   25.0307 C   0  0  0  0  0  0
    0.4556   10.4245   25.2000 C   0  0  0  0  0  0
    3.6129   11.8811   23.9609 N   0  0  0  0  0  0
    4.5184   10.8958   23.6295 C   0  0  0  0  0  0
    5.7860   11.4576   23.5673 C   0  0  0  0  0  0
    6.9632   10.6713   23.2243 C   0  0  0  0  0  0
    6.7148    9.1554   23.1069 C   0  0  0  0  0  0
    4.1693    9.4400   23.3170 C   0  0  0  0  0  0
    8.0610   11.1690   23.0182 O   0  0  0  0  0  0
    5.6747   12.8049   23.9670 C   0  0  0  0  0  0
    4.3222   13.0454   24.1696 C   0  0  0  0  0  0
    3.7420   14.3895   24.5795 C   0  0  0  0  0  0
    4.7081   15.2099   25.3218 N   0  0  2  0  0  0
    6.0762   15.2225   24.7883 C   0  0  0  0  0  0
    6.7085   13.8747   24.3055 C   0  0  0  0  0  0
    4.6837   14.9722   26.7536 C   0  0  0  0  0  0
   -0.0562   12.1752   23.6000 C   0  0  0  0  0  0
   -0.4579   11.1799   24.4733 C   0  0  0  0  0  0
   -1.9387   11.1019   24.4927 C   0  0  0  0  0  0
   -2.3357   12.0431   23.6275 N   0  0  0  0  0  0
   -1.2740   12.7935   22.9820 C   0  0  0  0  0  0
   -2.6505   10.3691   25.1670 O   0  0  0  0  0  0
    5.2642   10.2484   20.9268 H   0  0  0  0  0  0
    6.0610    8.7690   20.4583 H   0  0  0  0  0  0
    4.3111    8.8135   20.5866 H   0  0  0  0  0  0
    5.0942    6.9663   23.8030 H   0  0  0  0  0  0
    4.2858    6.8375   22.2474 H   0  0  0  0  0  0
    6.0324    6.6710   22.3670 H   0  0  0  0  0  0
    1.6318   13.2249   22.7669 H   0  0  0  0  0  0
    2.5259   10.1004   25.5979 H   0  0  0  0  0  0
    0.1311    9.6537   25.8850 H   0  0  0  0  0  0
    6.8204    8.7641   24.1186 H   0  0  0  0  0  0
    7.5293    8.7163   22.5295 H   0  0  0  0  0  0
    3.2133    9.3305   22.8011 H   0  0  0  0  0  0
    4.0604    8.9530   24.2870 H   0  0  0  0  0  0
    2.7730   14.3270   25.0722 H   0  0  0  0  0  0
    3.5736   14.9129   23.6417 H   0  0  0  0  0  0
    6.7604   15.7606   25.4470 H   0  0  0  0  0  0
    6.0231   15.9155   23.9670 H   0  0  0  0  0  0
    7.4617   14.0501   23.5385 H   0  0  0  0  0  0
    7.2818   13.4802   25.1445 H   0  0  0  0  0  0
    5.3655   15.6669   27.2424 H   0  0  0  0  0  0
    3.6861   15.1345   27.1651 H   0  0  0  0  0  0
    4.9932   13.9690   27.0001 H   0  0  0  0  0  0
   -3.3256   12.2856   23.5775 H   0  0  0  0  0  0
   -1.3716   13.8486   23.2250 H   0  0  0  0  0  0
   -1.3191   12.6803   21.8975 H   0  0  0  0  0  0
  1  2  1  0  0  0
  1 28  1  0  0  0
  1 29  1  0  0  0
  1 30  1  0  0  0
  2  3  1  0  0  0
  2 12  1  0  0  0
  2 13  1  0  0  0
  3 31  1  0  0  0
  3 32  1  0  0  0
  3 33  1  0  0  0
  4 22  2  0  0  0
  4  5  1  0  0  0
  4 34  1  0  0  0
  5  6  2  0  0  0
  5  8  1  0  0  0
  6  7  1  0  0  0
  6 35  1  0  0  0
  7 23  2  0  0  0
  7 36  1  0  0  0
  8 16  1  0  0  0
  8  9  1  0  0  0
  9 10  2  0  0  0
  9 13  1  0  0  0
 10 15  1  0  0  0
 10 11  1  0  0  0
 11 12  1  0  0  0
 11 14  2  0  0  0
 12 37  1  0  0  0
 12 38  1  0  0  0
 13 39  1  0  0  0
 13 40  1  0  0  0
 15 16  2  0  0  0
 15 20  1  0  0  0
 16 17  1  0  0  0
 17 18  1  0  0  0
 17 41  1  0  0  0
 17 42  1  0  0  0
 18 19  1  0  0  0
 18 21  1  0  0  0
 19 20  1  0  0  0
 19 43  1  0  0  0
 19 44  1  0  0  0
 20 45  1  0  0  0
 20 46  1  0  0  0
 21 47  1  0  0  0
 21 48  1  0  0  0
 21 49  1  0  0  0
 22 23  1  0  0  0
 22 26  1  0  0  0
 23 24  1  0  0  0
 24 25  1  0  0  0
 24 27  2  0  0  0
 25 26  1  0  0  0
 25 50  1  0  0  0
 26 51  1  0  0  0
 26 52  1  0  0  0
M  END
> <s_m_entry_id>
4843

> <s_m_entry_name>
dock_pv.162

> <s_m_Source_Path>
/home/csk/Desktop/cluster/DUD-E-result/hs90a

> <s_m_Source_File>
dock_pv.maegz

> <i_m_Source_File_Index>
162

> <chembl_id>
CHEMBL3235346

> <chembl_pref_name>
None

> <i_lp_mmshare_version>
53161

> <r_lp_tautomer_probability>
0.99995

> <s_lp_Force_Field>
OPLS_2005

> <r_lp_Energy>
52.752043

> <b_lp_Chiralities_Consistent>
1

> <s_lp_Variant>
CHEMBL3880_lig958-1

> <s_i_glide_gridfile>
glide-grid_1uyg

> <i_i_glide_lignum>
1067

> <i_i_glide_rotatable_bonds>
1

> <r_i_docking_score>
-8.38687892341532

> <r_i_glide_ligand_efficiency>
-0.310625145311679

> <r_i_glide_ligand_efficiency_sa>
-0.931875434911266

> <r_i_glide_ligand_efficiency_ln>
-1.95232714486576

> <r_i_glide_gscore>
-8.38687892341532

> <r_i_glide_lipo>
-4.1740008275717

> <r_i_glide_hbond>
-0.153946456050778

> <r_i_glide_metal>
0

> <r_i_glide_rewards>
-2.05670734522138

> <r_i_glide_evdw>
-39.1978416442871

> <r_i_glide_ecoul>
-0.801580309867859

> <r_i_glide_erotb>
0.145449607980302

> <r_i_glide_esite>
-0.0675447738572377

> <r_i_glide_emodel>
-48.9473351433989

> <r_i_glide_energy>
-39.999421954155

> <r_i_glide_einternal>
0.293347179889679

> <i_i_glide_confnum>
1

> <i_i_glide_posenum>
27

> <r_i_glide_eff_state_penalty>
0

> <s_user_duplicate_titles>
CHEMBL3880_lig958

> <i_f3d_flags>
0

> <s_m_subgroup_title>
dock_pv

> <s_m_subgroupid>
dock_pv

> <b_m_subgroup_collapsed>
1

$$$$
CHEMBL3880_lig426
                    3D
 Schrodinger Suite 2021-1.
 51 54  0  0  1  0            999 V2000
    8.6638   14.3190   25.6462 C   0  0  0  0  0  0
    8.4604   13.3139   24.7670 N   0  0  0  0  0  0
    7.1828   13.1613   24.3950 C   0  0  0  0  0  0
    6.1011   13.9690   24.8587 C   0  0  0  0  0  0
    6.4579   15.0107   25.7331 C   0  0  0  0  0  0
    7.7423   15.1689   26.1404 N   0  0  0  0  0  0
    6.6581   12.1851   23.5617 N   0  0  0  0  0  0
    4.8788   13.4215   24.3405 C   0  0  0  0  0  0
    5.2897   12.3511   23.5670 C   0  0  0  0  0  0
    9.9569   14.4758   26.1142 N   0  0  0  0  0  0
    7.3985   11.1696   22.7952 C   0  0  0  0  0  0
    7.1125    9.7132   23.1785 C   0  0  0  0  0  0
    5.9923    8.9669   22.7501 C   0  0  0  0  0  0
    5.8289    7.6639   23.2559 C   0  0  0  0  0  0
    6.8035    7.1259   24.1134 C   0  0  0  0  0  0
    7.9103    7.9126   24.4285 C   0  0  0  0  0  0
    8.0610    9.1813   23.9881 N   0  0  0  0  0  0
    6.6667    5.7449   24.7330 C   0  0  0  0  0  0
    4.9795    9.4908   21.7391 C   0  0  0  0  0  0
    4.6861    6.9563   22.9570 O   0  0  0  0  0  0
    4.8259    5.9507   21.9610 C   0  0  0  0  0  0
    5.2530   16.0706   26.3693 Cl  0  0  0  0  0  0
    3.4660   13.9061   24.6218 C   0  0  0  0  0  0
    2.3319   12.9280   24.3191 C   0  0  0  0  0  0
    2.3868   11.6034   24.7671 C   0  0  0  0  0  0
    1.2946   10.7587   24.5907 C   0  0  0  0  0  0
    0.1451   11.2405   23.9681 C   0  0  0  0  0  0
    0.0895   12.5490   23.4927 C   0  0  0  0  0  0
    1.1853   13.3912   23.6666 C   0  0  0  0  0  0
    4.6687   11.6852   22.9965 H   0  0  0  0  0  0
   10.0668   15.0635   26.9280 H   0  0  0  0  0  0
   10.5828   13.7012   25.9621 H   0  0  0  0  0  0
    7.2604   11.3360   21.7302 H   0  0  0  0  0  0
    8.4604   11.3683   22.9365 H   0  0  0  0  0  0
    8.6912    7.5463   25.0794 H   0  0  0  0  0  0
    7.2298    5.0140   24.1529 H   0  0  0  0  0  0
    7.0502    5.7436   25.7545 H   0  0  0  0  0  0
    5.6235    5.4301   24.7938 H   0  0  0  0  0  0
    4.7950    8.7375   20.9747 H   0  0  0  0  0  0
    4.0220    9.6940   22.2185 H   0  0  0  0  0  0
    5.3308   10.3689   21.2098 H   0  0  0  0  0  0
    3.9560    5.2946   21.9911 H   0  0  0  0  0  0
    4.8603    6.3921   20.9651 H   0  0  0  0  0  0
    5.7126    5.3312   22.0967 H   0  0  0  0  0  0
    3.2924   14.8702   24.1429 H   0  0  0  0  0  0
    3.3859   14.0962   25.6915 H   0  0  0  0  0  0
    3.2605   11.2383   25.2884 H   0  0  0  0  0  0
    1.3323    9.7415   24.9549 H   0  0  0  0  0  0
   -0.7119   10.5934   23.8521 H   0  0  0  0  0  0
   -0.8059   12.9133   23.0091 H   0  0  0  0  0  0
    1.1294   14.4129   23.3211 H   0  0  0  0  0  0
  1  2  1  0  0  0
  1  6  2  0  0  0
  1 10  1  0  0  0
  2  3  2  0  0  0
  3  4  1  0  0  0
  3  7  1  0  0  0
  4  5  2  0  0  0
  4  8  1  0  0  0
  5  6  1  0  0  0
  5 22  1  0  0  0
  7  9  1  0  0  0
  7 11  1  0  0  0
  8  9  2  0  0  0
  8 23  1  0  0  0
  9 30  1  0  0  0
 10 31  1  0  0  0
 10 32  1  0  0  0
 11 12  1  0  0  0
 11 33  1  0  0  0
 11 34  1  0  0  0
 12 13  1  0  0  0
 12 17  2  0  0  0
 13 14  2  0  0  0
 13 19  1  0  0  0
 14 15  1  0  0  0
 14 20  1  0  0  0
 15 16  2  0  0  0
 15 18  1  0  0  0
 16 17  1  0  0  0
 16 35  1  0  0  0
 18 36  1  0  0  0
 18 37  1  0  0  0
 18 38  1  0  0  0
 19 39  1  0  0  0
 19 40  1  0  0  0
 19 41  1  0  0  0
 20 21  1  0  0  0
 21 42  1  0  0  0
 21 43  1  0  0  0
 21 44  1  0  0  0
 23 24  1  0  0  0
 23 45  1  0  0  0
 23 46  1  0  0  0
 24 25  1  0  0  0
 24 29  2  0  0  0
 25 26  2  0  0  0
 25 47  1  0  0  0
 26 27  1  0  0  0
 26 48  1  0  0  0
 27 28  2  0  0  0
 27 49  1  0  0  0
 28 29  1  0  0  0
 28 50  1  0  0  0
 29 51  1  0  0  0
M  END
> <s_m_entry_id>
4844

> <s_m_entry_name>
dock_pv.163

> <s_m_Source_Path>
/home/csk/Desktop/cluster/DUD-E-result/hs90a

> <s_m_Source_File>
dock_pv.maegz

> <i_m_Source_File_Index>
163

> <chembl_id>
CHEMBL3891745

> <chembl_pref_name>
None

> <i_lp_mmshare_version>
53161

> <r_lp_tautomer_probability>
1

> <s_lp_Force_Field>
OPLS_2005

> <r_lp_Energy>
12.271527

> <b_lp_Chiralities_Consistent>
1

> <s_lp_Variant>
CHEMBL3880_lig426-1

> <s_i_glide_gridfile>
glide-grid_1uyg

> <i_i_glide_lignum>
468

> <i_i_glide_rotatable_bonds>
5

> <r_i_docking_score>
-8.37992810102936

> <r_i_glide_ligand_efficiency>
-0.28896303796653

> <r_i_glide_ligand_efficiency_sa>
-0.887786002549388

> <r_i_glide_ligand_efficiency_ln>
-1.91879103849379

> <r_i_glide_gscore>
-8.37992810102936

> <r_i_glide_lipo>
-4.22620993528821

> <r_i_glide_hbond>
-0.00733923182724498

> <r_i_glide_metal>
0

> <r_i_glide_rewards>
-2.31772435042801

> <r_i_glide_evdw>
-45.8055152893066

> <r_i_glide_ecoul>
-0.0761587545275688

> <r_i_glide_erotb>
0.473044994158576

> <r_i_glide_esite>
0

> <r_i_glide_emodel>
-66.2227133139937

> <r_i_glide_energy>
-45.8816740438342

> <r_i_glide_einternal>
4.76602983474731

> <i_i_glide_confnum>
14

> <i_i_glide_posenum>
41

> <r_i_glide_eff_state_penalty>
0

> <s_user_duplicate_titles>
CHEMBL3880_lig426

> <i_f3d_flags>
0

> <s_m_subgroup_title>
dock_pv

> <s_m_subgroupid>
dock_pv

> <b_m_subgroup_collapsed>
1

$$$$
CHEMBL3880_lig373
                    3D
 Schrodinger Suite 2021-1.
 43 46  0  0  1  0            999 V2000
   -1.5584   11.4183   23.7872 N   0  0  0  0  0  0
   -1.1934   12.3168   22.8489 C   0  0  0  0  0  0
    0.0622   12.7697   22.6411 N   0  0  0  0  0  0
   -0.5676   10.9029   24.5600 C   0  0  0  0  0  0
    0.7827   11.2726   24.3907 C   0  0  0  0  0  0
    1.0487   12.2427   23.4116 C   0  0  0  0  0  0
    2.4503   12.7954   23.2622 C   0  0  0  0  0  0
    3.3147   12.5382   24.5212 C   0  0  1  0  0  0
    3.1123   11.1675   25.0200 N   0  0  0  0  0  0
    1.9075   10.5713   25.1280 C   0  0  0  0  0  0
    4.7595   13.0415   24.3605 C   0  0  0  0  0  0
    5.8407   12.2607   23.8566 C   0  0  0  0  0  0
    7.1256   12.8367   23.8597 C   0  0  0  0  0  0
    7.3557   14.1156   24.3605 C   0  0  0  0  0  0
    6.2962   14.8714   24.8397 C   0  0  0  0  0  0
    5.0108   14.3438   24.8250 C   0  0  0  0  0  0
   -1.0571    9.9602   25.6423 C   0  0  0  0  0  0
    1.8345    9.4957   25.7150 O   0  0  0  0  0  0
   -2.1865   12.7930   22.0080 N   0  0  0  0  0  0
    5.7443   10.8265   23.3694 C   0  0  0  0  0  0
    8.6069   14.6303   24.3658 F   0  0  0  0  0  0
    7.0844    9.7018   23.5672 S   0  0  0  0  0  0
    6.0578    8.4185   23.0445 C   0  0  0  0  0  0
    4.8807    8.7918   22.6145 N   0  0  0  0  0  0
    4.7124   10.0881   22.7670 C   0  0  0  0  0  0
    6.5541    7.1434   23.1671 O   0  0  0  0  0  0
    5.6574    6.0913   22.8148 C   0  0  0  0  0  0
    2.3835   13.8730   23.1177 H   0  0  0  0  0  0
    2.8947   12.3752   22.3669 H   0  0  0  0  0  0
    2.8880   13.1510   25.3191 H   0  0  0  0  0  0
    3.8923   10.6891   25.4453 H   0  0  0  0  0  0
    7.9799   12.2951   23.4829 H   0  0  0  0  0  0
    6.4706   15.8681   25.2184 H   0  0  0  0  0  0
    4.2076   14.9543   25.2127 H   0  0  0  0  0  0
   -0.6447   10.2392   26.6121 H   0  0  0  0  0  0
   -2.1442    9.9695   25.7302 H   0  0  0  0  0  0
   -0.7391    8.9428   25.4119 H   0  0  0  0  0  0
   -1.9464   13.4280   21.2653 H   0  0  0  0  0  0
   -3.1183   12.4038   22.0853 H   0  0  0  0  0  0
    3.7476   10.4685   22.4818 H   0  0  0  0  0  0
    6.1853    5.1396   22.8551 H   0  0  0  0  0  0
    4.8202    6.0390   23.5123 H   0  0  0  0  0  0
    5.2601    6.2050   21.8044 H   0  0  0  0  0  0
  1  2  2  0  0  0
  1  4  1  0  0  0
  2  3  1  0  0  0
  2 19  1  0  0  0
  3  6  2  0  0  0
  4  5  2  0  0  0
  4 17  1  0  0  0
  5  6  1  0  0  0
  5 10  1  0  0  0
  6  7  1  0  0  0
  7  8  1  0  0  0
  7 28  1  0  0  0
  7 29  1  0  0  0
  8  9  1  0  0  0
  8 11  1  0  0  0
  8 30  1  0  0  0
  9 10  1  0  0  0
  9 31  1  0  0  0
 10 18  2  0  0  0
 11 12  2  0  0  0
 11 16  1  0  0  0
 12 13  1  0  0  0
 12 20  1  0  0  0
 13 14  2  0  0  0
 13 32  1  0  0  0
 14 15  1  0  0  0
 14 21  1  0  0  0
 15 16  2  0  0  0
 15 33  1  0  0  0
 16 34  1  0  0  0
 17 35  1  0  0  0
 17 36  1  0  0  0
 17 37  1  0  0  0
 19 38  1  0  0  0
 19 39  1  0  0  0
 20 22  1  0  0  0
 20 25  2  0  0  0
 22 23  1  0  0  0
 23 24  2  0  0  0
 23 26  1  0  0  0
 24 25  1  0  0  0
 25 40  1  0  0  0
 26 27  1  0  0  0
 27 41  1  0  0  0
 27 42  1  0  0  0
 27 43  1  0  0  0
M  END
> <s_m_entry_id>
4845

> <s_m_entry_name>
dock_pv.164

> <s_m_Source_Path>
/home/csk/Desktop/cluster/DUD-E-result/hs90a

> <s_m_Source_File>
dock_pv.maegz

> <i_m_Source_File_Index>
164

> <chembl_id>
CHEMBL3360316

> <chembl_pref_name>
None

> <i_lp_mmshare_version>
53161

> <r_lp_tautomer_probability>
0.999999987636

> <s_lp_Force_Field>
OPLS_2005

> <r_lp_Energy>
24.32164

> <b_lp_Chiralities_Consistent>
1

> <s_lp_Variant>
CHEMBL3880_lig373-1

> <s_i_glide_gridfile>
glide-grid_1uyg

> <i_i_glide_lignum>
415

> <i_i_glide_rotatable_bonds>
3

> <r_i_docking_score>
-8.37884186655513

> <r_i_glide_ligand_efficiency>
-0.310327476539079

> <r_i_glide_ligand_efficiency_sa>
-0.930982428594448

> <r_i_glide_ligand_efficiency_ln>
-1.95045625052995

> <r_i_glide_gscore>
-8.37884186655513

> <r_i_glide_lipo>
-3.59156498531808

> <r_i_glide_hbond>
-0.32

> <r_i_glide_metal>
0

> <r_i_glide_rewards>
-2.27230090739169

> <r_i_glide_evdw>
-42.5213623046875

> <r_i_glide_ecoul>
-2.20545029640198

> <r_i_glide_erotb>
0.261909685849307

> <r_i_glide_esite>
0

> <r_i_glide_emodel>
-66.4100938000855

> <r_i_glide_energy>
-44.7268126010895

> <r_i_glide_einternal>
2.27615714073181

> <i_i_glide_confnum>
7

> <i_i_glide_posenum>
207

> <r_i_glide_eff_state_penalty>
0

> <s_user_duplicate_titles>
CHEMBL3880_lig373

> <i_f3d_flags>
0

> <s_m_subgroup_title>
dock_pv

> <s_m_subgroupid>
dock_pv

> <b_m_subgroup_collapsed>
1

$$$$
CHEMBL3880_lig897
                    3D
 Schrodinger Suite 2021-1.
 49 51  0  0  1  0            999 V2000
    2.8868   11.3468   23.5276 C   0  0  0  0  0  0
    5.0635   11.4223   23.5670 C   0  0  0  0  0  0
    3.9338   12.0469   24.0262 N   0  0  0  0  0  0
    4.6016   10.3681   22.8073 C   0  0  0  0  0  0
    3.2610   10.3474   22.7670 N   0  0  0  0  0  0
    6.3667   11.7178   23.7892 N   0  0  0  0  0  0
    6.8810    9.7986   22.4380 N   0  0  0  0  0  0
    5.5712    9.5269   22.2231 C   0  0  0  0  0  0
    7.2070   10.8510   23.2006 C   0  0  0  0  0  0
    1.1899   11.6946   23.8669 S   0  0  0  0  0  0
    0.1702    8.8590   27.3311 C   0  0  0  0  0  0
    1.3685    8.6537   26.6246 C   0  0  0  0  0  0
   -0.7209    9.8657   26.9336 C   0  0  0  0  0  0
    0.8313   10.5567   25.1931 C   0  0  0  0  0  0
    1.6934    9.5212   25.5705 C   0  0  0  0  0  0
   -0.3756   10.7101   25.8684 C   0  0  0  0  0  0
    5.8166   15.3921   26.2161 C   0  0  0  0  0  0
    6.7725   15.1690   26.9426 C   0  0  0  0  0  0
    5.2562    8.4222   21.4442 N   0  0  0  0  0  0
    3.8870   13.2070   24.9431 C   0  0  0  0  0  0
    8.5224   11.0484   23.4199 F   0  0  0  0  0  0
   -0.2069    8.0302   28.3670 O   0  0  0  0  0  0
    2.1580    7.5770   26.9901 O   0  0  0  0  0  0
   -1.9171    9.9697   27.6165 O   0  0  0  0  0  0
    4.6854   15.6395   25.3023 C   0  0  0  0  0  0
    0.6323    8.0497   29.5176 C   0  0  0  0  0  0
    4.4198   14.4945   24.3008 C   0  0  0  0  0  0
   -3.0329   10.5161   26.9217 C   0  0  0  0  0  0
    3.2717    7.2051   26.1835 C   0  0  0  0  0  0
    2.6179    9.3700   25.0439 H   0  0  0  0  0  0
   -1.0413   11.4995   25.5551 H   0  0  0  0  0  0
    7.6192   14.9892   27.5670 H   0  0  0  0  0  0
    4.2883    8.1499   21.3398 H   0  0  0  0  0  0
    6.0142    7.8029   21.1670 H   0  0  0  0  0  0
    2.8610   13.3307   25.2738 H   0  0  0  0  0  0
    4.4610   12.9400   25.8180 H   0  0  0  0  0  0
    4.9110   16.5625   24.7670 H   0  0  0  0  0  0
    3.8014   15.8358   25.9094 H   0  0  0  0  0  0
    0.1196    7.5564   30.3424 H   0  0  0  0  0  0
    1.5689    7.5165   29.3598 H   0  0  0  0  0  0
    0.8610    9.0665   29.8374 H   0  0  0  0  0  0
    5.3344   14.2915   23.7423 H   0  0  0  0  0  0
    3.6838   14.8117   23.5671 H   0  0  0  0  0  0
   -3.9454   10.3690   27.4980 H   0  0  0  0  0  0
   -2.9181   11.5690   26.7670 H   0  0  0  0  0  0
   -3.1657   10.0798   25.9311 H   0  0  0  0  0  0
    3.7136    6.2927   26.5834 H   0  0  0  0  0  0
    2.9713    7.0007   25.1545 H   0  0  0  0  0  0
    4.0486    7.9690   26.1825 H   0  0  0  0  0  0
  1  3  1  0  0  0
  1  5  2  0  0  0
  1 10  1  0  0  0
  2  3  1  0  0  0
  2  6  2  0  0  0
  2  4  1  0  0  0
  3 20  1  0  0  0
  4  5  1  0  0  0
  4  8  2  0  0  0
  6  9  1  0  0  0
  7  8  1  0  0  0
  7  9  2  0  0  0
  8 19  1  0  0  0
  9 21  1  0  0  0
 10 14  1  0  0  0
 11 13  1  0  0  0
 11 22  1  0  0  0
 11 12  2  0  0  0
 12 15  1  0  0  0
 12 23  1  0  0  0
 13 16  2  0  0  0
 13 24  1  0  0  0
 14 15  2  0  0  0
 14 16  1  0  0  0
 15 30  1  0  0  0
 16 31  1  0  0  0
 17 25  1  0  0  0
 17 18  3  0  0  0
 18 32  1  0  0  0
 19 33  1  0  0  0
 19 34  1  0  0  0
 20 27  1  0  0  0
 20 35  1  0  0  0
 20 36  1  0  0  0
 22 26  1  0  0  0
 23 29  1  0  0  0
 24 28  1  0  0  0
 25 27  1  0  0  0
 25 37  1  0  0  0
 25 38  1  0  0  0
 26 39  1  0  0  0
 26 40  1  0  0  0
 26 41  1  0  0  0
 27 42  1  0  0  0
 27 43  1  0  0  0
 28 44  1  0  0  0
 28 45  1  0  0  0
 28 46  1  0  0  0
 29 47  1  0  0  0
 29 48  1  0  0  0
 29 49  1  0  0  0
M  END
> <s_m_entry_id>
4846

> <s_m_entry_name>
dock_pv.165

> <s_m_Source_Path>
/home/csk/Desktop/cluster/DUD-E-result/hs90a

> <s_m_Source_File>
dock_pv.maegz

> <i_m_Source_File_Index>
165

> <chembl_id>
CHEMBL193259

> <chembl_pref_name>
None

> <i_lp_mmshare_version>
53161

> <r_lp_tautomer_probability>
0.999997216410988

> <s_lp_Force_Field>
OPLS_2005

> <r_lp_Energy>
25.83909

> <b_lp_Chiralities_Consistent>
1

> <s_lp_Variant>
CHEMBL3880_lig897-1

> <s_i_glide_gridfile>
glide-grid_1uyg

> <i_i_glide_lignum>
1003

> <i_i_glide_rotatable_bonds>
9

> <r_i_docking_score>
-8.37815156373538

> <r_i_glide_ligand_efficiency>
-0.288901778059841

> <r_i_glide_ligand_efficiency_sa>
-0.887597792707538

> <r_i_glide_ligand_efficiency_ln>
-1.91838425650257

> <r_i_glide_gscore>
-8.37815156373538

> <r_i_glide_lipo>
-3.49580110243939

> <r_i_glide_hbond>
-0.32

> <r_i_glide_metal>
0

> <r_i_glide_rewards>
-2.19748202705906

> <r_i_glide_evdw>
-43.6499290466309

> <r_i_glide_ecoul>
-5.56780385971069

> <r_i_glide_erotb>
0.68050145710116

> <r_i_glide_esite>
-0.0277028600499389

> <r_i_glide_emodel>
-72.8111431856565

> <r_i_glide_energy>
-49.2177329063416

> <r_i_glide_einternal>
3.13127160072327

> <i_i_glide_confnum>
92

> <i_i_glide_posenum>
357

> <r_i_glide_eff_state_penalty>
0

> <s_user_duplicate_titles>
CHEMBL3880_lig897

> <i_f3d_flags>
0

> <s_m_subgroup_title>
dock_pv

> <s_m_subgroupid>
dock_pv

> <b_m_subgroup_collapsed>
1

$$$$
CHEMBL3880_lig97
                    3D
 Schrodinger Suite 2021-1.
 40 41  0  0  1  0            999 V2000
    3.0076   12.6337   23.5671 O   0  0  0  0  0  0
    2.6360   10.8950   24.9927 O   0  0  0  0  0  0
    3.6615   14.8672   24.9533 O   0  0  0  0  0  0
   -1.8046   10.7551   27.0210 O   0  0  0  0  0  0
    0.0036   10.4553   25.6689 N   0  0  0  0  0  0
    0.7503   11.8594   23.8021 C   0  0  0  0  0  0
   -0.2981   11.2624   24.5517 C   0  0  0  0  0  0
    2.2097   11.7162   24.1756 C   0  0  0  0  0  0
    0.4058   12.6121   22.6615 C   0  0  0  0  0  0
   -1.6299   11.4430   24.1423 C   0  0  0  0  0  0
    4.6176   14.1387   24.6775 C   0  0  0  0  0  0
    6.0000   14.3690   25.1994 C   0  0  0  0  0  0
    4.3806   12.8068   23.9296 C   0  0  0  0  0  0
   -0.9205   12.7684   22.2667 C   0  0  0  0  0  0
   -1.9374   12.1935   23.0140 C   0  0  0  0  0  0
   -0.7391   10.1985   26.7649 C   0  0  0  0  0  0
    6.1688   15.1238   26.3670 C   0  0  0  0  0  0
    7.1201   13.7742   24.5954 C   0  0  0  0  0  0
   -0.2026    9.1640   27.7663 C   0  0  0  0  0  0
    7.4144   15.1690   26.9867 C   0  0  0  0  0  0
    8.3713   13.8644   25.1998 C   0  0  0  0  0  0
    8.5121   14.5501   26.4005 C   0  0  0  0  0  0
    1.2663    8.7258   27.5789 C   0  0  0  0  0  0
    0.9577   10.1212   25.6876 H   0  0  0  0  0  0
    1.1617   13.0854   22.0517 H   0  0  0  0  0  0
   -2.4530   10.9904   24.6764 H   0  0  0  0  0  0
    4.9766   12.7714   23.0208 H   0  0  0  0  0  0
    4.7457   11.9867   24.5482 H   0  0  0  0  0  0
   -1.1672   13.3332   21.3797 H   0  0  0  0  0  0
   -2.9677   12.3213   22.7177 H   0  0  0  0  0  0
    5.3278   15.6039   26.8487 H   0  0  0  0  0  0
    7.0352   13.1993   23.6847 H   0  0  0  0  0  0
   -0.3370    9.5688   28.7678 H   0  0  0  0  0  0
   -0.8489    8.2877   27.7118 H   0  0  0  0  0  0
    7.5295   15.6901   27.9263 H   0  0  0  0  0  0
    9.2233   13.3659   24.7670 H   0  0  0  0  0  0
    9.4743   14.5944   26.8902 H   0  0  0  0  0  0
    1.5596    8.0497   28.3826 H   0  0  0  0  0  0
    1.4101    8.1762   26.6473 H   0  0  0  0  0  0
    1.9578    9.5689   27.6089 H   0  0  0  0  0  0
  1  8  1  0  0  0
  1 13  1  0  0  0
  2  8  2  0  0  0
  3 11  2  0  0  0
  4 16  2  0  0  0
  5  7  1  0  0  0
  5 16  1  0  0  0
  5 24  1  0  0  0
  6  7  1  0  0  0
  6  8  1  0  0  0
  6  9  2  0  0  0
  7 10  2  0  0  0
  9 14  1  0  0  0
  9 25  1  0  0  0
 10 15  1  0  0  0
 10 26  1  0  0  0
 11 12  1  0  0  0
 11 13  1  0  0  0
 12 17  2  0  0  0
 12 18  1  0  0  0
 13 27  1  0  0  0
 13 28  1  0  0  0
 14 15  2  0  0  0
 14 29  1  0  0  0
 15 30  1  0  0  0
 16 19  1  0  0  0
 17 20  1  0  0  0
 17 31  1  0  0  0
 18 21  2  0  0  0
 18 32  1  0  0  0
 19 23  1  0  0  0
 19 33  1  0  0  0
 19 34  1  0  0  0
 20 22  2  0  0  0
 20 35  1  0  0  0
 21 22  1  0  0  0
 21 36  1  0  0  0
 22 37  1  0  0  0
 23 38  1  0  0  0
 23 39  1  0  0  0
 23 40  1  0  0  0
M  END
> <s_m_entry_id>
4847

> <s_m_entry_name>
dock_pv.166

> <s_m_Source_Path>
/home/csk/Desktop/cluster/DUD-E-result/hs90a

> <s_m_Source_File>
dock_pv.maegz

> <i_m_Source_File_Index>
166

> <chembl_id>
CHEMBL1412954

> <chembl_pref_name>
None

> <i_lp_mmshare_version>
53161

> <r_lp_tautomer_probability>
0.99990000499975

> <s_lp_Force_Field>
OPLS_2005

> <r_lp_Energy>
29.954352

> <b_lp_Chiralities_Consistent>
1

> <s_lp_Variant>
CHEMBL3880_lig97-1

> <s_i_glide_gridfile>
glide-grid_1uyg

> <i_i_glide_lignum>
109

> <i_i_glide_rotatable_bonds>
8

> <r_i_docking_score>
-8.37786767120336

> <r_i_glide_ligand_efficiency>
-0.364255116139277

> <r_i_glide_ligand_efficiency_sa>
-1.03589309594781

> <r_i_glide_ligand_efficiency_ln>
-2.025844369201

> <r_i_glide_gscore>
-8.37786767120336

> <r_i_glide_lipo>
-3.78007566683793

> <r_i_glide_hbond>
-0.119932536677941

> <r_i_glide_metal>
0

> <r_i_glide_rewards>
-3.0769261152802

> <r_i_glide_evdw>
-44.4970397949219

> <r_i_glide_ecoul>
-2.15982842445374

> <r_i_glide_erotb>
1.14789290100686

> <r_i_glide_esite>
0

> <r_i_glide_emodel>
-65.3403122562072

> <r_i_glide_energy>
-46.6568682193756

> <r_i_glide_einternal>
5.75429439544678

> <i_i_glide_confnum>
12

> <i_i_glide_posenum>
335

> <r_i_glide_eff_state_penalty>
0

> <s_user_duplicate_titles>
CHEMBL3880_lig97

> <i_f3d_flags>
0

> <s_m_subgroup_title>
dock_pv

> <s_m_subgroupid>
dock_pv

> <b_m_subgroup_collapsed>
1

$$$$
CHEMBL3880_lig23
                    3D
 Schrodinger Suite 2021-1.
 36 38  0  0  1  0            999 V2000
    1.7127   10.4304   24.8015 S   0  0  0  0  0  0
    4.3420    9.5016   21.9346 O   0  0  0  0  0  0
   -0.6795   10.7690   26.6289 O   0  0  0  0  0  0
   -2.7390   10.7690   25.6867 O   0  0  0  0  0  0
    0.9533   11.9690   22.7669 N   0  0  0  0  0  0
    0.5044   11.4186   23.9310 C   0  0  0  0  0  0
   -0.8467   11.5432   24.3487 C   0  0  0  0  0  0
    4.6783   11.2537   23.4927 C   0  0  0  0  0  0
    4.8298   13.5096   24.4363 C   0  0  0  0  0  0
    6.2540   13.4448   24.3670 C   0  0  0  0  0  0
    3.8970   10.1121   22.9076 C   0  0  0  0  0  0
    4.0706   12.4204   23.9670 C   0  0  0  0  0  0
    6.0765   11.2239   23.3915 C   0  0  0  0  0  0
   -1.3890   10.9857   25.6505 C   0  0  0  0  0  0
    2.6690    9.4549   23.5818 C   0  0  0  0  0  0
    6.8610   12.2963   23.8077 C   0  0  0  0  0  0
   -1.7088   12.2468   23.4921 C   0  0  0  0  0  0
    4.2056   14.6398   25.0170 C   0  0  0  0  0  0
    7.0131   14.5034   24.9099 C   0  0  0  0  0  0
    0.0857   12.6323   21.9708 C   0  0  0  0  0  0
   -1.2586   12.7690   22.2855 C   0  0  0  0  0  0
    4.9799   15.6517   25.5670 C   0  0  0  0  0  0
    6.3652   15.5690   25.5231 C   0  0  0  0  0  0
   -3.2731   11.1485   24.9779 H   0  0  0  0  0  0
    3.0064   12.5438   23.9980 H   0  0  0  0  0  0
    6.5772   10.3574   22.9803 H   0  0  0  0  0  0
    2.0053    9.0859   22.8023 H   0  0  0  0  0  0
    3.0330    8.5715   24.1056 H   0  0  0  0  0  0
    7.9381   12.2392   23.7386 H   0  0  0  0  0  0
   -2.7390   12.4143   23.7465 H   0  0  0  0  0  0
    3.1277   14.6928   25.0649 H   0  0  0  0  0  0
    8.0918   14.4611   24.8827 H   0  0  0  0  0  0
    0.4844   13.0542   21.0612 H   0  0  0  0  0  0
   -1.9352   13.2986   21.6296 H   0  0  0  0  0  0
    4.5074   16.5030   26.0357 H   0  0  0  0  0  0
    6.9417   16.3595   25.9669 H   0  0  0  0  0  0
  1  6  1  0  0  0
  1 15  1  0  0  0
  2 11  2  0  0  0
  3 14  2  0  0  0
  4 14  1  0  0  0
  4 24  1  0  0  0
  5  6  2  0  0  0
  5 20  1  0  0  0
  6  7  1  0  0  0
  7 14  1  0  0  0
  7 17  2  0  0  0
  8 11  1  0  0  0
  8 12  1  0  0  0
  8 13  2  0  0  0
  9 10  1  0  0  0
  9 12  2  0  0  0
  9 18  1  0  0  0
 10 16  2  0  0  0
 10 19  1  0  0  0
 11 15  1  0  0  0
 12 25  1  0  0  0
 13 16  1  0  0  0
 13 26  1  0  0  0
 15 27  1  0  0  0
 15 28  1  0  0  0
 16 29  1  0  0  0
 17 21  1  0  0  0
 17 30  1  0  0  0
 18 22  2  0  0  0
 18 31  1  0  0  0
 19 23  2  0  0  0
 19 32  1  0  0  0
 20 21  2  0  0  0
 20 33  1  0  0  0
 21 34  1  0  0  0
 22 23  1  0  0  0
 22 35  1  0  0  0
 23 36  1  0  0  0
M  END
> <s_m_entry_id>
4848

> <s_m_entry_name>
dock_pv.167

> <s_m_Source_Path>
/home/csk/Desktop/cluster/DUD-E-result/hs90a

> <s_m_Source_File>
dock_pv.maegz

> <i_m_Source_File_Index>
167

> <chembl_id>
CHEMBL1546535

> <chembl_pref_name>
None

> <i_lp_mmshare_version>
53161

> <r_lp_tautomer_probability>
0.99990000499975

> <s_lp_Force_Field>
OPLS_2005

> <r_lp_Energy>
23.791985

> <b_lp_Chiralities_Consistent>
1

> <s_lp_Variant>
CHEMBL3880_lig23-1

> <s_i_glide_gridfile>
glide-grid_1uyg

> <i_i_glide_lignum>
26

> <i_i_glide_rotatable_bonds>
6

> <r_i_docking_score>
-8.37732424054133

> <r_i_glide_ligand_efficiency>
-0.364231488719188

> <r_i_glide_ligand_efficiency_sa>
-1.03582590270807

> <r_i_glide_ligand_efficiency_ln>
-2.02571296273936

> <r_i_glide_gscore>
-8.37732424054133

> <r_i_glide_lipo>
-3.97250771726856

> <r_i_glide_hbond>
0

> <r_i_glide_metal>
0

> <r_i_glide_rewards>
-2.38606832867117

> <r_i_glide_evdw>
-41.5753479003906

> <r_i_glide_ecoul>
-4.37211751937866

> <r_i_glide_erotb>
0.715836828324735

> <r_i_glide_esite>
0

> <r_i_glide_emodel>
-66.2376863966839

> <r_i_glide_energy>
-45.9474654197693

> <r_i_glide_einternal>
8.65279579162598

> <i_i_glide_confnum>
1

> <i_i_glide_posenum>
20

> <r_i_glide_eff_state_penalty>
0

> <s_user_duplicate_titles>
CHEMBL3880_lig23

> <i_f3d_flags>
0

> <s_m_subgroup_title>
dock_pv

> <s_m_subgroupid>
dock_pv

> <b_m_subgroup_collapsed>
1

$$$$
CHEMBL3880_lig892
                    3D
 Schrodinger Suite 2021-1.
 41 43  0  0  1  0            999 V2000
    3.1402   11.7489   23.3404 C   0  0  0  0  0  0
    4.3938   12.0510   23.7695 N   0  0  0  0  0  0
    3.0365   10.5307   22.8718 N   0  0  0  0  0  0
    4.2684   10.0111   22.9917 C   0  0  0  0  0  0
    5.1447   10.9176   23.5646 C   0  0  0  0  0  0
    1.8151   12.9222   23.2947 S   0  0  0  0  0  0
    4.7950    8.7527   22.6143 C   0  0  0  0  0  0
    6.4610   10.6849   23.8072 N   0  0  0  0  0  0
    0.4691   11.9920   23.9572 C   0  0  0  0  0  0
    6.1026    8.4945   22.8623 N   0  0  0  0  0  0
    8.1123   15.1694   25.3266 C   0  0  0  0  0  0
    9.2848   15.2929   25.6482 C   0  0  0  0  0  0
    0.6270   11.3470   25.1818 C   0  0  0  0  0  0
    6.8363    9.4560   23.4310 C   0  0  0  0  0  0
   -0.7741   11.9690   23.3141 C   0  0  0  0  0  0
    4.8200   13.3573   24.3476 C   0  0  0  0  0  0
   -1.8510   11.3445   23.9383 C   0  0  0  0  0  0
    4.0611    7.7656   21.9670 N   0  0  0  0  0  0
   -0.4570   10.7620   25.8328 C   0  0  0  0  0  0
   -1.0511   12.7690   21.6010 Br  0  0  0  0  0  0
   -1.7085   10.7694   25.2009 C   0  0  0  0  0  0
   -0.2041   10.2301   27.0780 O   0  0  0  0  0  0
    6.6831   15.0002   25.0073 C   0  0  0  0  0  0
    6.3435   13.6378   24.3681 C   0  0  0  0  0  0
   -1.2847    9.9382   27.9523 C   0  0  0  0  0  0
   10.2988   15.3964   25.9668 H   0  0  0  0  0  0
    1.5868   11.3560   25.6752 H   0  0  0  0  0  0
    7.8734    9.2081   23.6092 H   0  0  0  0  0  0
    4.3209   14.1249   23.7533 H   0  0  0  0  0  0
    4.3898   13.3822   25.3509 H   0  0  0  0  0  0
   -2.8075   11.3243   23.4436 H   0  0  0  0  0  0
    3.1167    7.9607   21.6559 H   0  0  0  0  0  0
    4.5510    6.9334   21.6760 H   0  0  0  0  0  0
   -2.5787   10.3352   25.6663 H   0  0  0  0  0  0
    6.3718   15.8265   24.3669 H   0  0  0  0  0  0
    6.1459   15.1180   25.9496 H   0  0  0  0  0  0
    6.8623   12.8717   24.9377 H   0  0  0  0  0  0
    6.7588   13.5711   23.3624 H   0  0  0  0  0  0
   -0.8752    9.5569   28.8840 H   0  0  0  0  0  0
   -1.8770   10.8250   28.1800 H   0  0  0  0  0  0
   -1.9386    9.1654   27.5668 H   0  0  0  0  0  0
  1  2  1  0  0  0
  1  3  2  0  0  0
  1  6  1  0  0  0
  2  5  1  0  0  0
  2 16  1  0  0  0
  3  4  1  0  0  0
  4  7  2  0  0  0
  4  5  1  0  0  0
  5  8  2  0  0  0
  6  9  1  0  0  0
  7 10  1  0  0  0
  7 18  1  0  0  0
  8 14  1  0  0  0
  9 13  2  0  0  0
  9 15  1  0  0  0
 10 14  2  0  0  0
 11 23  1  0  0  0
 11 12  3  0  0  0
 12 26  1  0  0  0
 13 19  1  0  0  0
 13 27  1  0  0  0
 14 28  1  0  0  0
 15 17  2  0  0  0
 15 20  1  0  0  0
 16 24  1  0  0  0
 16 29  1  0  0  0
 16 30  1  0  0  0
 17 21  1  0  0  0
 17 31  1  0  0  0
 18 32  1  0  0  0
 18 33  1  0  0  0
 19 22  1  0  0  0
 19 21  2  0  0  0
 21 34  1  0  0  0
 22 25  1  0  0  0
 23 24  1  0  0  0
 23 35  1  0  0  0
 23 36  1  0  0  0
 24 37  1  0  0  0
 24 38  1  0  0  0
 25 39  1  0  0  0
 25 40  1  0  0  0
 25 41  1  0  0  0
M  END
> <s_m_entry_id>
4849

> <s_m_entry_name>
dock_pv.168

> <s_m_Source_Path>
/home/csk/Desktop/cluster/DUD-E-result/hs90a

> <s_m_Source_File>
dock_pv.maegz

> <i_m_Source_File_Index>
168

> <chembl_id>
CHEMBL192145

> <chembl_pref_name>
None

> <i_lp_mmshare_version>
53161

> <r_lp_tautomer_probability>
0.999997216410988

> <s_lp_Force_Field>
OPLS_2005

> <r_lp_Energy>
13.572363

> <b_lp_Chiralities_Consistent>
1

> <s_lp_Variant>
CHEMBL3880_lig892-1

> <s_i_glide_gridfile>
glide-grid_1uyg

> <i_i_glide_lignum>
998

> <i_i_glide_rotatable_bonds>
7

> <r_i_docking_score>
-8.37142318757614

> <r_i_glide_ligand_efficiency>
-0.334856927503046

> <r_i_glide_ligand_efficiency_sa>
-0.979127594731802

> <r_i_glide_ligand_efficiency_ln>
-1.9842781667644

> <r_i_glide_gscore>
-8.37142318757614

> <r_i_glide_lipo>
-3.70610457385012

> <r_i_glide_hbond>
-0.294472439169832

> <r_i_glide_metal>
0

> <r_i_glide_rewards>
-2.18549806639092

> <r_i_glide_evdw>
-46.6837463378906

> <r_i_glide_ecoul>
-3.52770066261292

> <r_i_glide_erotb>
0.677994308121196

> <r_i_glide_esite>
0

> <r_i_glide_emodel>
-69.7223240667395

> <r_i_glide_energy>
-50.2114470005035

> <r_i_glide_einternal>
10.3596143722534

> <i_i_glide_confnum>
10

> <i_i_glide_posenum>
382

> <r_i_glide_eff_state_penalty>
0

> <s_user_duplicate_titles>
CHEMBL3880_lig892,321251

> <i_f3d_flags>
0

> <s_m_subgroup_title>
dock_pv

> <s_m_subgroupid>
dock_pv

> <b_m_subgroup_collapsed>
1

$$$$
CHEMBL3880_lig956
                    3D
 Schrodinger Suite 2021-1.
 68 71  0  0  1  0            999 V2000
    5.6331    9.2710   21.0482 C   0  0  0  0  0  0
    5.5425    8.7558   22.5046 C   0  0  0  0  0  0
    5.2022    7.2492   22.6133 C   0  0  0  0  0  0
    0.7453   10.6949   24.9520 C   0  0  0  0  0  0
    2.1210   10.8780   24.7955 C   0  0  0  0  0  0
    2.6470   11.9155   24.0232 C   0  0  0  0  0  0
    1.7891   12.8290   23.4206 C   0  0  0  0  0  0
    0.4181   12.6929   23.5843 C   0  0  0  0  0  0
   -0.1195   11.6277   24.3319 C   0  0  0  0  0  0
   -1.6127   11.5395   24.4850 C   0  0  0  0  0  0
   -2.1348   11.1656   25.5311 O   0  0  0  0  0  0
   -2.3389   11.9081   23.4355 N   0  0  0  0  0  0
    4.0439   12.0102   23.8759 N   0  0  0  0  0  0
    4.8770   10.9498   23.5847 C   0  0  0  0  0  0
    6.1953   11.3735   23.6400 C   0  0  0  0  0  0
    7.3084   10.4383   23.4759 C   0  0  0  0  0  0
    6.9035    8.9714   23.2307 C   0  0  0  0  0  0
    4.4166    9.5364   23.2328 C   0  0  0  0  0  0
    8.4838   10.7696   23.5303 O   0  0  0  0  0  0
    6.1822   12.7473   23.9671 C   0  0  0  0  0  0
    4.8458   13.1100   24.1100 C   0  0  0  0  0  0
    4.3711   14.5022   24.5039 C   0  0  0  0  0  0
    5.3796   15.2378   25.2779 N   0  0  2  0  0  0
    6.7645   15.1210   24.8001 C   0  0  0  0  0  0
    7.2917   13.7261   24.3290 C   0  0  0  0  0  0
    5.2389   15.0211   26.7080 C   0  0  0  0  0  0
    0.2399    9.6169   25.7197 N   0  0  0  0  0  0
    1.0331    8.5110   26.2675 C   0  0  0  0  0  0
    1.0203    7.1773   25.4575 C   0  0  0  0  0  0
   -0.3364    6.4598   25.6198 C   0  0  0  0  0  0
    2.1297    6.2604   26.0186 C   0  0  0  0  0  0
    1.2788    7.3963   23.9496 C   0  0  0  0  0  0
    5.8007   10.3450   21.0022 H   0  0  0  0  0  0
    6.4555    8.8039   20.5176 H   0  0  0  0  0  0
    4.7195    9.0547   20.4924 H   0  0  0  0  0  0
    4.9101    6.9641   23.6242 H   0  0  0  0  0  0
    4.3793    6.9768   21.9526 H   0  0  0  0  0  0
    6.0531    6.6161   22.3669 H   0  0  0  0  0  0
    2.8115   10.2223   25.2942 H   0  0  0  0  0  0
    2.1715   13.6471   22.8313 H   0  0  0  0  0  0
   -0.2195   13.4456   23.1358 H   0  0  0  0  0  0
   -3.3484   11.9688   23.5857 H   0  0  0  0  0  0
   -1.9359   12.1160   22.5364 H   0  0  0  0  0  0
    6.8498    8.5204   24.2210 H   0  0  0  0  0  0
    7.7199    8.4674   22.7119 H   0  0  0  0  0  0
    3.4908    9.5255   22.6545 H   0  0  0  0  0  0
    4.2233    9.0404   24.1834 H   0  0  0  0  0  0
    3.3800   14.5298   24.9601 H   0  0  0  0  0  0
    4.2890   15.0388   23.5673 H   0  0  0  0  0  0
    7.4691   15.5960   25.4847 H   0  0  0  0  0  0
    6.8122   15.8043   23.9659 H   0  0  0  0  0  0
    8.0592   13.8434   23.5642 H   0  0  0  0  0  0
    7.8201   13.2796   25.1707 H   0  0  0  0  0  0
    6.0226   15.5318   27.2707 H   0  0  0  0  0  0
    4.2786   15.4115   27.0490 H   0  0  0  0  0  0
    5.2599   13.9690   26.9439 H   0  0  0  0  0  0
   -0.7671    9.5127   25.7327 H   0  0  0  0  0  0
    0.6296    8.3216   27.2629 H   0  0  0  0  0  0
    2.0551    8.8153   26.4779 H   0  0  0  0  0  0
   -1.1375    7.0152   25.1366 H   0  0  0  0  0  0
   -0.3279    5.4679   25.1664 H   0  0  0  0  0  0
   -0.6082    6.3341   26.6692 H   0  0  0  0  0  0
    3.1168    6.7104   25.9018 H   0  0  0  0  0  0
    1.9878    6.0626   27.0820 H   0  0  0  0  0  0
    2.1512    5.2952   25.5102 H   0  0  0  0  0  0
    2.2081    7.9316   23.7760 H   0  0  0  0  0  0
    1.3437    6.4493   23.4108 H   0  0  0  0  0  0
    0.4748    7.9668   23.4853 H   0  0  0  0  0  0
  1  2  1  0  0  0
  1 33  1  0  0  0
  1 34  1  0  0  0
  1 35  1  0  0  0
  2  3  1  0  0  0
  2 17  1  0  0  0
  2 18  1  0  0  0
  3 36  1  0  0  0
  3 37  1  0  0  0
  3 38  1  0  0  0
  4  5  2  0  0  0
  4  9  1  0  0  0
  4 27  1  0  0  0
  5  6  1  0  0  0
  5 39  1  0  0  0
  6  7  2  0  0  0
  6 13  1  0  0  0
  7  8  1  0  0  0
  7 40  1  0  0  0
  8  9  2  0  0  0
  8 41  1  0  0  0
  9 10  1  0  0  0
 10 11  2  0  0  0
 10 12  1  0  0  0
 12 42  1  0  0  0
 12 43  1  0  0  0
 13 21  1  0  0  0
 13 14  1  0  0  0
 14 15  2  0  0  0
 14 18  1  0  0  0
 15 20  1  0  0  0
 15 16  1  0  0  0
 16 17  1  0  0  0
 16 19  2  0  0  0
 17 44  1  0  0  0
 17 45  1  0  0  0
 18 46  1  0  0  0
 18 47  1  0  0  0
 20 21  2  0  0  0
 20 25  1  0  0  0
 21 22  1  0  0  0
 22 23  1  0  0  0
 22 48  1  0  0  0
 22 49  1  0  0  0
 23 24  1  0  0  0
 23 26  1  0  0  0
 24 25  1  0  0  0
 24 50  1  0  0  0
 24 51  1  0  0  0
 25 52  1  0  0  0
 25 53  1  0  0  0
 26 54  1  0  0  0
 26 55  1  0  0  0
 26 56  1  0  0  0
 27 28  1  0  0  0
 27 57  1  0  0  0
 28 29  1  0  0  0
 28 58  1  0  0  0
 28 59  1  0  0  0
 29 30  1  0  0  0
 29 31  1  0  0  0
 29 32  1  0  0  0
 30 60  1  0  0  0
 30 61  1  0  0  0
 30 62  1  0  0  0
 31 63  1  0  0  0
 31 64  1  0  0  0
 31 65  1  0  0  0
 32 66  1  0  0  0
 32 67  1  0  0  0
 32 68  1  0  0  0
M  END
> <s_m_entry_id>
4850

> <s_m_entry_name>
dock_pv.169

> <s_m_Source_Path>
/home/csk/Desktop/cluster/DUD-E-result/hs90a

> <s_m_Source_File>
dock_pv.maegz

> <i_m_Source_File_Index>
169

> <chembl_id>
CHEMBL3235344

> <chembl_pref_name>
None

> <i_lp_mmshare_version>
53161

> <r_lp_tautomer_probability>
0.99995

> <s_lp_Force_Field>
OPLS_2005

> <r_lp_Energy>
46.030545

> <b_lp_Chiralities_Consistent>
1

> <s_lp_Variant>
CHEMBL3880_lig956-1

> <s_i_glide_gridfile>
glide-grid_1uyg

> <i_i_glide_lignum>
1065

> <i_i_glide_rotatable_bonds>
5

> <r_i_docking_score>
-8.36691955064572

> <r_i_glide_ligand_efficiency>
-0.261466235957679

> <r_i_glide_ligand_efficiency_sa>
-0.830103555067796

> <r_i_glide_ligand_efficiency_ln>
-1.87358136100261

> <r_i_glide_gscore>
-8.36691955064572

> <r_i_glide_lipo>
-4.34528214921761

> <r_i_glide_hbond>
-0.16

> <r_i_glide_metal>
0

> <r_i_glide_rewards>
-1.54360359590064

> <r_i_glide_evdw>
-46.4069595336914

> <r_i_glide_ecoul>
-1.7657858133316

> <r_i_glide_erotb>
0.313741255174364

> <r_i_glide_esite>
-0.0465592120175108

> <r_i_glide_emodel>
-60.8893106876233

> <r_i_glide_energy>
-48.172745347023

> <r_i_glide_einternal>
1.96448373794556

> <i_i_glide_confnum>
12

> <i_i_glide_posenum>
9

> <r_i_glide_eff_state_penalty>
0

> <s_user_duplicate_titles>
CHEMBL3880_lig956

> <i_f3d_flags>
0

> <s_m_subgroup_title>
dock_pv

> <s_m_subgroupid>
dock_pv

> <b_m_subgroup_collapsed>
1

$$$$
CHEMBL3880_lig273
                    3D
 Schrodinger Suite 2021-1.
 66 70  0  0  1  0            999 V2000
   -1.8475   10.9267   24.6550 C   0  0  0  0  0  0
   -1.9405   11.5713   23.4323 C   0  0  0  0  0  0
   -0.8565   12.2363   22.9039 C   0  0  0  0  0  0
    0.3308   12.2968   23.6424 C   0  0  0  0  0  0
    0.4542   11.5711   24.8369 C   0  0  0  0  0  0
   -0.6282   10.8521   25.3291 C   0  0  0  0  0  0
   -0.9912   12.7689   21.6492 O   0  0  0  0  0  0
    1.5318   13.0348   23.1110 C   0  0  0  0  0  0
    2.5624   11.9879   22.7374 C   0  0  0  0  0  0
    2.0772   14.0869   24.0920 C   0  0  0  0  0  0
   -2.9701   10.3690   25.1676 O   0  0  0  0  0  0
   -0.4836   10.0263   26.4583 N   0  0  0  0  0  0
    0.3550    8.9413   26.6707 C   0  0  0  0  0  0
   -0.0516    8.4769   27.9135 C   0  0  0  0  0  0
   -1.0704    9.1691   28.3671 N   0  0  0  0  0  0
   -1.3179   10.1941   27.4916 N   0  0  0  0  0  0
    1.4008    8.3886   25.7614 C   0  0  0  0  0  0
    2.6199    7.9826   26.3106 C   0  0  0  0  0  0
    3.6159    7.4492   25.4961 C   0  0  0  0  0  0
    3.4001    7.3216   24.1222 C   0  0  0  0  0  0
    2.1596    7.6771   23.5804 C   0  0  0  0  0  0
    1.1648    8.2126   24.3963 C   0  0  0  0  0  0
    4.5396    6.8912   23.1846 C   0  0  0  0  0  0
    5.4931    7.9675   22.8436 N   0  0  0  0  0  0
    6.6160    8.0954   23.7855 C   0  0  0  0  0  0
    7.4752    9.4045   23.6895 C   0  0  0  0  0  0
    6.7443   10.6240   23.2995 N   0  0  0  0  0  0
    5.8467   10.3006   22.1952 C   0  0  0  0  0  0
    4.8308    9.2387   22.5827 C   0  0  0  0  0  0
    6.8577   11.8991   23.8611 C   0  0  0  0  0  0
    8.0614   12.3693   24.3670 C   0  0  0  0  0  0
    8.1830   13.6364   24.9401 C   0  0  0  0  0  0
    7.0729   14.4686   25.0071 C   0  0  0  0  0  0
    5.8484   14.0215   24.5284 C   0  0  0  0  0  0
    5.7568   12.7502   23.9670 C   0  0  0  0  0  0
   -2.8779   11.5587   22.8985 H   0  0  0  0  0  0
    1.3955   11.5472   25.3693 H   0  0  0  0  0  0
   -1.8687   12.6029   21.2919 H   0  0  0  0  0  0
    1.2594   13.5770   22.2064 H   0  0  0  0  0  0
    2.2030   11.3096   21.9671 H   0  0  0  0  0  0
    2.8772   11.3838   23.5885 H   0  0  0  0  0  0
    3.4125   12.5225   22.3670 H   0  0  0  0  0  0
    1.2847   14.7590   24.4220 H   0  0  0  0  0  0
    2.5342   13.6249   24.9670 H   0  0  0  0  0  0
    2.8405   14.7056   23.6228 H   0  0  0  0  0  0
   -2.8822   10.1209   26.0896 H   0  0  0  0  0  0
    0.3458    7.6270   28.4487 H   0  0  0  0  0  0
    2.8051    8.0953   27.3692 H   0  0  0  0  0  0
    4.5616    7.1670   25.9334 H   0  0  0  0  0  0
    1.9765    7.5689   22.5204 H   0  0  0  0  0  0
    0.2107    8.4855   23.9683 H   0  0  0  0  0  0
    5.0650    6.0348   23.6108 H   0  0  0  0  0  0
    4.1029    6.5271   22.2534 H   0  0  0  0  0  0
    6.2450    7.9683   24.7895 H   0  0  0  0  0  0
    7.2768    7.2448   23.6127 H   0  0  0  0  0  0
    8.2772    9.2518   22.9668 H   0  0  0  0  0  0
    7.9738    9.5669   24.6445 H   0  0  0  0  0  0
    6.4072   10.0445   21.2948 H   0  0  0  0  0  0
    5.2708   11.1721   21.9671 H   0  0  0  0  0  0
    4.0997    9.1150   21.7817 H   0  0  0  0  0  0
    4.2905    9.5834   23.4648 H   0  0  0  0  0  0
    8.9307   11.7295   24.3428 H   0  0  0  0  0  0
    9.1319   13.9667   25.3370 H   0  0  0  0  0  0
    7.1536   15.4494   25.4541 H   0  0  0  0  0  0
    4.9730   14.6472   24.6136 H   0  0  0  0  0  0
    4.7990   12.3761   23.7184 H   0  0  0  0  0  0
  1  2  2  0  0  0
  1  6  1  0  0  0
  1 11  1  0  0  0
  2  3  1  0  0  0
  2 36  1  0  0  0
  3  4  2  0  0  0
  3  7  1  0  0  0
  4  5  1  0  0  0
  4  8  1  0  0  0
  5  6  2  0  0  0
  5 37  1  0  0  0
  6 12  1  0  0  0
  7 38  1  0  0  0
  8  9  1  0  0  0
  8 10  1  0  0  0
  8 39  1  0  0  0
  9 40  1  0  0  0
  9 41  1  0  0  0
  9 42  1  0  0  0
 10 43  1  0  0  0
 10 44  1  0  0  0
 10 45  1  0  0  0
 11 46  1  0  0  0
 12 13  1  0  0  0
 12 16  1  0  0  0
 13 14  2  0  0  0
 13 17  1  0  0  0
 14 15  1  0  0  0
 14 47  1  0  0  0
 15 16  2  0  0  0
 17 18  2  0  0  0
 17 22  1  0  0  0
 18 19  1  0  0  0
 18 48  1  0  0  0
 19 20  2  0  0  0
 19 49  1  0  0  0
 20 21  1  0  0  0
 20 23  1  0  0  0
 21 22  2  0  0  0
 21 50  1  0  0  0
 22 51  1  0  0  0
 23 24  1  0  0  0
 23 52  1  0  0  0
 23 53  1  0  0  0
 24 25  1  0  0  0
 24 29  1  0  0  0
 25 26  1  0  0  0
 25 54  1  0  0  0
 25 55  1  0  0  0
 26 27  1  0  0  0
 26 56  1  0  0  0
 26 57  1  0  0  0
 27 28  1  0  0  0
 27 30  1  0  0  0
 28 29  1  0  0  0
 28 58  1  0  0  0
 28 59  1  0  0  0
 29 60  1  0  0  0
 29 61  1  0  0  0
 30 31  2  0  0  0
 30 35  1  0  0  0
 31 32  1  0  0  0
 31 62  1  0  0  0
 32 33  2  0  0  0
 32 63  1  0  0  0
 33 34  1  0  0  0
 33 64  1  0  0  0
 34 35  2  0  0  0
 34 65  1  0  0  0
 35 66  1  0  0  0
M  END
> <s_m_entry_id>
4851

> <s_m_entry_name>
dock_pv.170

> <s_m_Source_Path>
/home/csk/Desktop/cluster/DUD-E-result/hs90a

> <s_m_Source_File>
dock_pv.maegz

> <i_m_Source_File_Index>
170

> <chembl_id>
CHEMBL3234760

> <chembl_pref_name>
None

> <i_lp_mmshare_version>
53161

> <r_lp_tautomer_probability>
1

> <s_lp_Force_Field>
OPLS_2005

> <r_lp_Energy>
50.307807

> <b_lp_Chiralities_Consistent>
1

> <s_lp_Variant>
CHEMBL3880_lig273-1

> <s_i_glide_gridfile>
glide-grid_1uyg

> <i_i_glide_lignum>
307

> <i_i_glide_rotatable_bonds>
8

> <r_i_docking_score>
-8.36587631479348

> <r_i_glide_ligand_efficiency>
-0.239025037565528

> <r_i_glide_ligand_efficiency_sa>
-0.781866746745558

> <r_i_glide_ligand_efficiency_ln>
-1.83649552171831

> <r_i_glide_gscore>
-8.36587631479348

> <r_i_glide_lipo>
-4.93621041161806

> <r_i_glide_hbond>
0

> <r_i_glide_metal>
0

> <r_i_glide_rewards>
-1.5857591636174

> <r_i_glide_evdw>
-44.2385368347168

> <r_i_glide_ecoul>
-0.599933445453644

> <r_i_glide_erotb>
0.458010118995862

> <r_i_glide_esite>
0

> <r_i_glide_emodel>
-56.3916954496248

> <r_i_glide_energy>
-44.8384702801704

> <r_i_glide_einternal>
7.52766132354736

> <i_i_glide_confnum>
126

> <i_i_glide_posenum>
318

> <r_i_glide_eff_state_penalty>
0

> <s_user_duplicate_titles>
CHEMBL3880_lig273

> <i_f3d_flags>
0

> <s_m_subgroup_title>
dock_pv

> <s_m_subgroupid>
dock_pv

> <b_m_subgroup_collapsed>
1

$$$$
CHEMBL3880_lig942
                    3D
 Schrodinger Suite 2021-1.
 51 54  0  0  1  0            999 V2000
    5.4118    9.2514   21.0965 C   0  0  0  0  0  0
    5.4511    8.7357   22.5576 C   0  0  0  0  0  0
    5.1297    7.2292   22.6960 C   0  0  0  0  0  0
    0.4486   12.6434   23.4872 C   0  0  0  0  0  0
    1.8250   12.7933   23.3966 C   0  0  0  0  0  0
    2.6571   11.9282   24.1034 C   0  0  0  0  0  0
    2.1174   10.9429   24.9326 C   0  0  0  0  0  0
    0.7444   10.7923   25.0220 C   0  0  0  0  0  0
   -0.0997   11.6296   24.2882 C   0  0  0  0  0  0
   -1.5839   11.4386   24.4032 C   0  0  0  0  0  0
   -2.0803   10.8174   25.3402 O   0  0  0  0  0  0
   -2.3390   11.9950   23.4617 N   0  0  0  0  0  0
    4.0516   12.0034   23.9578 N   0  0  0  0  0  0
    4.8678   10.9306   23.6710 C   0  0  0  0  0  0
    6.1889   11.3587   23.6298 C   0  0  0  0  0  0
    7.2888   10.4294   23.3583 C   0  0  0  0  0  0
    6.8655    8.9590   23.1730 C   0  0  0  0  0  0
    4.3828    9.5106   23.3754 C   0  0  0  0  0  0
    8.4609   10.7689   23.2593 O   0  0  0  0  0  0
    6.1932   12.7313   23.9670 C   0  0  0  0  0  0
    4.8627   13.1044   24.1401 C   0  0  0  0  0  0
    4.4066   14.5086   24.5090 C   0  0  0  0  0  0
    5.4249   15.2296   25.2818 N   0  0  2  0  0  0
    6.8060   15.1026   24.7932 C   0  0  0  0  0  0
    7.3154   13.7094   24.2913 C   0  0  0  0  0  0
    5.2788   15.0204   26.7129 C   0  0  0  0  0  0
    5.6017   10.3207   21.0357 H   0  0  0  0  0  0
    6.1564    8.7690   20.4719 H   0  0  0  0  0  0
    4.4395    9.0648   20.6387 H   0  0  0  0  0  0
    4.9366    6.9429   23.7306 H   0  0  0  0  0  0
    4.2488    6.9539   22.1144 H   0  0  0  0  0  0
    5.9552    6.6006   22.3670 H   0  0  0  0  0  0
   -0.1782   13.3258   22.9320 H   0  0  0  0  0  0
    2.2328   13.5682   22.7672 H   0  0  0  0  0  0
    2.7521   10.2888   25.5128 H   0  0  0  0  0  0
    0.3451   10.0168   25.6617 H   0  0  0  0  0  0
   -3.3489   11.9694   23.6211 H   0  0  0  0  0  0
   -1.9612   12.3748   22.6100 H   0  0  0  0  0  0
    6.8939    8.5234   24.1721 H   0  0  0  0  0  0
    7.6376    8.4469   22.5971 H   0  0  0  0  0  0
    3.4110    9.4834   22.8785 H   0  0  0  0  0  0
    4.2569    9.0281   24.3454 H   0  0  0  0  0  0
    3.4139   14.5587   24.9590 H   0  0  0  0  0  0
    4.3389   15.0401   23.5671 H   0  0  0  0  0  0
    7.5199   15.5672   25.4752 H   0  0  0  0  0  0
    6.8493   15.7966   23.9666 H   0  0  0  0  0  0
    8.0595   13.8264   23.5044 H   0  0  0  0  0  0
    7.8680   13.2571   25.1152 H   0  0  0  0  0  0
    6.0758   15.5079   27.2761 H   0  0  0  0  0  0
    4.3323   15.4443   27.0505 H   0  0  0  0  0  0
    5.2611   13.9690   26.9556 H   0  0  0  0  0  0
  1  2  1  0  0  0
  1 27  1  0  0  0
  1 28  1  0  0  0
  1 29  1  0  0  0
  2  3  1  0  0  0
  2 17  1  0  0  0
  2 18  1  0  0  0
  3 30  1  0  0  0
  3 31  1  0  0  0
  3 32  1  0  0  0
  4  5  2  0  0  0
  4  9  1  0  0  0
  4 33  1  0  0  0
  5  6  1  0  0  0
  5 34  1  0  0  0
  6  7  2  0  0  0
  6 13  1  0  0  0
  7  8  1  0  0  0
  7 35  1  0  0  0
  8  9  2  0  0  0
  8 36  1  0  0  0
  9 10  1  0  0  0
 10 11  2  0  0  0
 10 12  1  0  0  0
 12 37  1  0  0  0
 12 38  1  0  0  0
 13 21  1  0  0  0
 13 14  1  0  0  0
 14 15  2  0  0  0
 14 18  1  0  0  0
 15 20  1  0  0  0
 15 16  1  0  0  0
 16 17  1  0  0  0
 16 19  2  0  0  0
 17 39  1  0  0  0
 17 40  1  0  0  0
 18 41  1  0  0  0
 18 42  1  0  0  0
 20 21  2  0  0  0
 20 25  1  0  0  0
 21 22  1  0  0  0
 22 23  1  0  0  0
 22 43  1  0  0  0
 22 44  1  0  0  0
 23 24  1  0  0  0
 23 26  1  0  0  0
 24 25  1  0  0  0
 24 45  1  0  0  0
 24 46  1  0  0  0
 25 47  1  0  0  0
 25 48  1  0  0  0
 26 49  1  0  0  0
 26 50  1  0  0  0
 26 51  1  0  0  0
M  END
> <s_m_entry_id>
4852

> <s_m_entry_name>
dock_pv.171

> <s_m_Source_Path>
/home/csk/Desktop/cluster/DUD-E-result/hs90a

> <s_m_Source_File>
dock_pv.maegz

> <i_m_Source_File_Index>
171

> <chembl_id>
CHEMBL3235330

> <chembl_pref_name>
None

> <i_lp_mmshare_version>
53161

> <r_lp_tautomer_probability>
0.99995

> <s_lp_Force_Field>
OPLS_2005

> <r_lp_Energy>
35.318877

> <b_lp_Chiralities_Consistent>
1

> <s_lp_Variant>
CHEMBL3880_lig942-1

> <s_i_glide_gridfile>
glide-grid_1uyg

> <i_i_glide_lignum>
1048

> <i_i_glide_rotatable_bonds>
2

> <r_i_docking_score>
-8.36039168768421

> <r_i_glide_ligand_efficiency>
-0.321553526449393

> <r_i_glide_ligand_efficiency_sa>
-0.952601056854296

> <r_i_glide_ligand_efficiency_ln>
-1.96341055517

> <r_i_glide_gscore>
-8.36039168768421

> <r_i_glide_lipo>
-3.88636505021431

> <r_i_glide_hbond>
-0.16

> <r_i_glide_metal>
0

> <r_i_glide_rewards>
-2.18087333973821

> <r_i_glide_evdw>
-39.5657844543457

> <r_i_glide_ecoul>
-1.70957684516907

> <r_i_glide_erotb>
0.154422379960713

> <r_i_glide_esite>
-0.0528499281997576

> <r_i_glide_emodel>
-50.3447449175707

> <r_i_glide_energy>
-41.2753612995148

> <r_i_glide_einternal>
1.02061212062836

> <i_i_glide_confnum>
1

> <i_i_glide_posenum>
373

> <r_i_glide_eff_state_penalty>
0

> <s_user_duplicate_titles>
CHEMBL3880_lig942

> <i_f3d_flags>
0

> <s_m_subgroup_title>
dock_pv

> <s_m_subgroupid>
dock_pv

> <b_m_subgroup_collapsed>
1

$$$$
CHEMBL3880_lig315
                    3D
 Schrodinger Suite 2021-1.
 40 42  0  0  1  0            999 V2000
    4.3035    9.9029   22.8852 C   0  0  0  0  0  0
    3.1583   10.3864   23.8306 C   0  0  0  0  0  0
    3.0250   11.8714   23.7935 N   0  0  0  0  0  0
    4.2209   12.7183   23.9670 C   0  0  0  0  0  0
    6.8060   10.3245   22.9802 O   0  0  0  0  0  0
    5.5302   10.7369   23.1670 C   0  0  0  0  0  0
    5.5176   12.0025   23.6631 C   0  0  0  0  0  0
    6.8698   12.3384   23.8359 C   0  0  0  0  0  0
    7.6479   11.3577   23.4127 N   0  0  0  0  0  0
    1.8388   12.5405   23.7163 C   0  0  0  0  0  0
    1.7641   13.7640   23.5670 O   0  0  0  0  0  0
    0.5506   11.8055   23.9669 C   0  0  0  0  0  0
    7.3687   13.5690   24.4750 C   0  0  0  0  0  0
    8.5447   13.7943   24.7670 O   0  0  0  0  0  0
    6.3367   14.3858   24.7670 O   0  0  0  0  0  0
    6.4610   15.5288   25.5842 C   0  0  0  0  0  0
    5.0447   15.9403   25.9986 C   0  0  0  0  0  0
   -0.5945   12.0543   23.1864 C   0  0  0  0  0  0
   -1.8275   11.5547   23.5876 C   0  0  0  0  0  0
   -1.9220   10.7880   24.7430 C   0  0  0  0  0  0
   -0.7936   10.4806   25.4896 C   0  0  0  0  0  0
    0.4377   10.9972   25.1092 C   0  0  0  0  0  0
   -3.1390   10.3690   25.1670 O   0  0  0  0  0  0
   -0.5549   12.7690   22.0169 O   0  0  0  0  0  0
    4.0070    9.9690   21.8387 H   0  0  0  0  0  0
    4.5008    8.8476   23.0747 H   0  0  0  0  0  0
    2.2518    9.8934   23.4754 H   0  0  0  0  0  0
    3.3733   10.0702   24.8528 H   0  0  0  0  0  0
    4.2305   13.0772   24.9974 H   0  0  0  0  0  0
    4.1682   13.6456   23.3934 H   0  0  0  0  0  0
    6.9468   16.3285   25.0273 H   0  0  0  0  0  0
    7.0634   15.3127   26.4685 H   0  0  0  0  0  0
    5.0719   16.7690   26.7030 H   0  0  0  0  0  0
    4.5174   15.1186   26.4850 H   0  0  0  0  0  0
    4.4610   16.2528   25.1329 H   0  0  0  0  0  0
   -2.7175   11.7634   23.0104 H   0  0  0  0  0  0
   -0.8831    9.8873   26.3876 H   0  0  0  0  0  0
    1.2865   10.8163   25.7539 H   0  0  0  0  0  0
   -3.8417   10.9581   24.8314 H   0  0  0  0  0  0
   -1.4289   12.8548   21.6284 H   0  0  0  0  0  0
  1  2  1  0  0  0
  1  6  1  0  0  0
  1 25  1  0  0  0
  1 26  1  0  0  0
  2  3  1  0  0  0
  2 27  1  0  0  0
  2 28  1  0  0  0
  3  4  1  0  0  0
  3 10  1  0  0  0
  4  7  1  0  0  0
  4 29  1  0  0  0
  4 30  1  0  0  0
  5  6  1  0  0  0
  5  9  1  0  0  0
  6  7  2  0  0  0
  7  8  1  0  0  0
  8  9  2  0  0  0
  8 13  1  0  0  0
 10 11  2  0  0  0
 10 12  1  0  0  0
 12 18  2  0  0  0
 12 22  1  0  0  0
 13 14  2  0  0  0
 13 15  1  0  0  0
 15 16  1  0  0  0
 16 17  1  0  0  0
 16 31  1  0  0  0
 16 32  1  0  0  0
 17 33  1  0  0  0
 17 34  1  0  0  0
 17 35  1  0  0  0
 18 19  1  0  0  0
 18 24  1  0  0  0
 19 20  2  0  0  0
 19 36  1  0  0  0
 20 21  1  0  0  0
 20 23  1  0  0  0
 21 22  2  0  0  0
 21 37  1  0  0  0
 22 38  1  0  0  0
 23 39  1  0  0  0
 24 40  1  0  0  0
M  END
> <s_m_entry_id>
4853

> <s_m_entry_name>
dock_pv.172

> <s_m_Source_Path>
/home/csk/Desktop/cluster/DUD-E-result/hs90a

> <s_m_Source_File>
dock_pv.maegz

> <i_m_Source_File_Index>
172

> <chembl_id>
CHEMBL3233484

> <chembl_pref_name>
None

> <i_lp_mmshare_version>
53161

> <r_lp_tautomer_probability>
0.999999999898

> <s_lp_Force_Field>
OPLS_2005

> <r_lp_Energy>
34.264602

> <b_lp_Chiralities_Consistent>
1

> <s_lp_Variant>
CHEMBL3880_lig315-1

> <s_i_glide_gridfile>
glide-grid_1uyg

> <i_i_glide_lignum>
352

> <i_i_glide_rotatable_bonds>
7

> <r_i_docking_score>
-8.35313084173967

> <r_i_glide_ligand_efficiency>
-0.34804711840582

> <r_i_glide_ligand_efficiency_sa>
-1.00394161287152

> <r_i_glide_ligand_efficiency_ln>
-1.99928751062646

> <r_i_glide_gscore>
-8.35313084173967

> <r_i_glide_lipo>
-3.09481226006375

> <r_i_glide_hbond>
-0.202386116727239

> <r_i_glide_metal>
0

> <r_i_glide_rewards>
-2.56226203326648

> <r_i_glide_evdw>
-39.4810523986816

> <r_i_glide_ecoul>
-8.01191139221191

> <r_i_glide_erotb>
0.682168897083667

> <r_i_glide_esite>
0

> <r_i_glide_emodel>
-61.3174231781021

> <r_i_glide_energy>
-47.4929637908936

> <r_i_glide_einternal>
17.0901870727539

> <i_i_glide_confnum>
52

> <i_i_glide_posenum>
220

> <r_i_glide_eff_state_penalty>
0

> <s_user_duplicate_titles>
CHEMBL3880_lig315

> <i_f3d_flags>
0

> <s_m_subgroup_title>
dock_pv

> <s_m_subgroupid>
dock_pv

> <b_m_subgroup_collapsed>
1

$$$$
CHEMBL3880_lig35
                    3D
 Schrodinger Suite 2021-1.
 60 63  0  0  1  0            999 V2000
    3.2928   14.1856   24.3714 O   0  0  0  0  0  0
    9.2079   15.1330   26.6915 O   0  0  0  0  0  0
   -2.1953   10.3674   27.9662 O   0  0  0  0  0  0
    4.1360   12.1442   23.9936 N   0  0  0  0  0  0
    2.2760    9.6671   24.0425 N   0  0  1  0  0  0
   -0.6439   10.3593   26.2606 N   0  0  0  0  0  0
    4.3797   13.3846   24.3670 C   0  0  0  0  0  0
    2.8348   12.1090   23.7462 C   0  0  0  0  0  0
    2.3105   13.3787   23.9292 C   0  0  0  0  0  0
    5.6632   13.9692   24.8278 C   0  0  0  0  0  0
    2.1353   10.8773   23.2021 C   0  0  0  0  0  0
    5.6470   14.8717   25.8933 C   0  0  0  0  0  0
    6.8784   13.4999   24.3248 C   0  0  0  0  0  0
    0.9737    9.3057   24.6414 C   0  0  0  0  0  0
    0.7531   10.0124   26.0011 C   0  0  2  0  0  0
    2.8501    8.5292   23.2995 C   0  0  0  0  0  0
    8.0577   14.7433   26.0366 C   0  0  0  0  0  0
    6.8409   15.2303   26.5042 C   0  0  0  0  0  0
    8.0678   13.8884   24.9303 C   0  0  0  0  0  0
    1.0064   14.0440   23.6403 C   0  0  0  0  0  0
    4.3588    8.6411   23.0664 C   0  0  0  0  0  0
    1.1420    9.1522   27.2068 C   0  0  0  0  0  0
   -1.1392   10.0058   27.4562 C   0  0  0  0  0  0
   -0.0951    9.1015   28.0943 C   0  0  0  0  0  0
    5.2397    8.0371   23.9713 C   0  0  0  0  0  0
    4.8712    9.3863   21.9986 C   0  0  0  0  0  0
    6.6167    8.1860   23.8154 C   0  0  0  0  0  0
    6.2484    9.5533   21.8597 C   0  0  0  0  0  0
   10.2365   14.1619   26.8902 C   0  0  0  0  0  0
    7.1147    8.9579   22.7706 C   0  0  0  0  0  0
   11.5244   14.6157   26.2000 C   0  0  0  0  0  0
   -1.1782   10.9248   25.6175 H   0  0  0  0  0  0
    1.0877   11.1339   23.0406 H   0  0  0  0  0  0
    2.5099   10.6889   22.1984 H   0  0  0  0  0  0
    4.7150   15.2313   26.3026 H   0  0  0  0  0  0
    6.8971   12.7879   23.5129 H   0  0  0  0  0  0
    0.1407    9.5154   23.9724 H   0  0  0  0  0  0
    0.8990    8.2295   24.7982 H   0  0  0  0  0  0
    1.2884   10.9629   26.0215 H   0  0  0  0  0  0
    2.7079    7.6230   23.8907 H   0  0  0  0  0  0
    2.3197    8.3598   22.3673 H   0  0  0  0  0  0
    6.8207   15.8935   27.3557 H   0  0  0  0  0  0
    8.9926   13.4852   24.5654 H   0  0  0  0  0  0
    0.2373   13.3585   23.2826 H   0  0  0  0  0  0
    0.6123   14.5855   24.5002 H   0  0  0  0  0  0
    1.2205   14.7650   22.8521 H   0  0  0  0  0  0
    1.4064    8.1353   26.9174 H   0  0  0  0  0  0
    2.0014    9.5691   27.7321 H   0  0  0  0  0  0
   -0.5101    8.0946   28.1394 H   0  0  0  0  0  0
    0.1061    9.4209   29.1111 H   0  0  0  0  0  0
    4.8562    7.4667   24.8075 H   0  0  0  0  0  0
    4.2104    9.8322   21.2694 H   0  0  0  0  0  0
    7.2963    7.7204   24.5162 H   0  0  0  0  0  0
    6.6471   10.1393   21.0494 H   0  0  0  0  0  0
    9.9797   13.1585   26.5627 H   0  0  0  0  0  0
   10.4049   14.0782   27.9639 H   0  0  0  0  0  0
    8.1821    9.0804   22.6548 H   0  0  0  0  0  0
   12.3052   13.8636   26.2982 H   0  0  0  0  0  0
   11.8959   15.5375   26.6344 H   0  0  0  0  0  0
   11.3549   14.7853   25.1427 H   0  0  0  0  0  0
  1  7  1  0  0  0
  1  9  1  0  0  0
  2 17  1  0  0  0
  2 29  1  0  0  0
  3 23  2  0  0  0
  4  7  2  0  0  0
  4  8  1  0  0  0
  5 11  1  0  0  0
  5 14  1  0  0  0
  5 16  1  0  0  0
  6 15  1  0  0  0
  6 23  1  0  0  0
  6 32  1  0  0  0
  7 10  1  0  0  0
  8  9  2  0  0  0
  8 11  1  0  0  0
  9 20  1  0  0  0
 10 12  2  0  0  0
 10 13  1  0  0  0
 11 33  1  0  0  0
 11 34  1  0  0  0
 12 18  1  0  0  0
 12 35  1  0  0  0
 13 19  2  0  0  0
 13 36  1  0  0  0
 14 15  1  0  0  0
 14 37  1  0  0  0
 14 38  1  0  0  0
 15 22  1  0  0  0
 15 39  1  0  0  0
 16 21  1  0  0  0
 16 40  1  0  0  0
 16 41  1  0  0  0
 17 18  2  0  0  0
 17 19  1  0  0  0
 18 42  1  0  0  0
 19 43  1  0  0  0
 20 44  1  0  0  0
 20 45  1  0  0  0
 20 46  1  0  0  0
 21 25  2  0  0  0
 21 26  1  0  0  0
 22 24  1  0  0  0
 22 47  1  0  0  0
 22 48  1  0  0  0
 23 24  1  0  0  0
 24 49  1  0  0  0
 24 50  1  0  0  0
 25 27  1  0  0  0
 25 51  1  0  0  0
 26 28  2  0  0  0
 26 52  1  0  0  0
 27 30  2  0  0  0
 27 53  1  0  0  0
 28 30  1  0  0  0
 28 54  1  0  0  0
 29 31  1  0  0  0
 29 55  1  0  0  0
 29 56  1  0  0  0
 30 57  1  0  0  0
 31 58  1  0  0  0
 31 59  1  0  0  0
 31 60  1  0  0  0
M  END
> <s_m_entry_id>
4854

> <s_m_entry_name>
dock_pv.173

> <s_m_Source_Path>
/home/csk/Desktop/cluster/DUD-E-result/hs90a

> <s_m_Source_File>
dock_pv.maegz

> <i_m_Source_File_Index>
173

> <chembl_id>
CHEMBL1321741

> <chembl_pref_name>
None

> <i_lp_mmshare_version>
53161

> <r_lp_tautomer_probability>
1

> <s_lp_Force_Field>
OPLS_2005

> <r_lp_Energy>
35.197144

> <b_lp_Chiralities_Consistent>
1

> <s_lp_Variant>
CHEMBL3880_lig35-1

> <s_i_glide_gridfile>
glide-grid_1uyg

> <i_i_glide_lignum>
40

> <i_i_glide_rotatable_bonds>
9

> <r_i_docking_score>
-8.34713826314039

> <r_i_glide_ligand_efficiency>
-0.269262524617432

> <r_i_glide_ligand_efficiency_sa>
-0.845856084279042

> <r_i_glide_ligand_efficiency_ln>
-1.88253548740442

> <r_i_glide_gscore>
-8.34713826314039

> <r_i_glide_lipo>
-5.16244764911262

> <r_i_glide_hbond>
-0.00992942752957443

> <r_i_glide_metal>
0

> <r_i_glide_rewards>
-1.34765806438252

> <r_i_glide_evdw>
-50.8087539672852

> <r_i_glide_ecoul>
0.259023368358612

> <r_i_glide_erotb>
0.674481070994784

> <r_i_glide_esite>
0

> <r_i_glide_emodel>
-61.9678485689206

> <r_i_glide_energy>
-50.5497305989265

> <r_i_glide_einternal>
18.0428047180176

> <i_i_glide_confnum>
26

> <i_i_glide_posenum>
323

> <r_i_glide_eff_state_penalty>
0

> <s_user_duplicate_titles>
CHEMBL3880_lig35

> <i_f3d_flags>
0

> <s_m_subgroup_title>
dock_pv

> <s_m_subgroupid>
dock_pv

> <b_m_subgroup_collapsed>
1

$$$$
CHEMBL3880_lig159
                    3D
 Schrodinger Suite 2021-1.
 42 44  0  0  1  0            999 V2000
    4.1101    8.9376   22.5603 C   0  0  0  0  0  0
    2.4420    8.9185   24.0551 C   0  0  0  0  0  0
    3.3646    9.7785   23.4384 C   0  0  0  0  0  0
    2.6565    7.7064   23.4585 N   0  0  0  0  0  0
    3.6594    7.7025   22.5823 N   0  0  0  0  0  0
    1.4512    9.0944   25.1668 C   0  0  0  0  0  0
    5.2615    9.3030   21.7818 C   0  0  0  0  0  0
    1.7266    8.6018   26.4523 C   0  0  0  0  0  0
    0.2339    9.7511   24.9494 C   0  0  0  0  0  0
    0.8145    8.7757   27.4921 C   0  0  0  0  0  0
   -0.6706    9.9528   25.9935 C   0  0  0  0  0  0
    3.5110   11.2470   23.7099 C   0  0  0  0  0  0
   -0.3810    9.4543   27.2691 C   0  0  0  0  0  0
    5.1844    9.5687   20.5809 O   0  0  0  0  0  0
    6.3982    9.3164   22.4964 N   0  0  0  0  0  0
    4.7546   11.8303   23.9671 C   0  0  0  0  0  0
    2.3684   12.0487   23.7497 C   0  0  0  0  0  0
   -2.1524   10.7853   25.6727 Cl  0  0  0  0  0  0
    2.8879    7.9292   26.7164 O   0  0  0  0  0  0
   -1.2587    9.6124   28.3104 O   0  0  0  0  0  0
    3.6832   13.9344   24.4839 C   0  0  0  0  0  0
    2.4534   13.3779   24.1445 C   0  0  0  0  0  0
    4.8440   13.1661   24.3574 C   0  0  0  0  0  0
    3.6615   15.2294   24.9436 O   0  0  0  0  0  0
    7.7072    9.6786   21.9681 C   0  0  0  0  0  0
    4.8842   15.8837   25.2645 C   0  0  0  0  0  0
    2.1320    6.8676   23.6643 H   0  0  0  0  0  0
   -0.0267   10.1104   23.9674 H   0  0  0  0  0  0
    1.0457    8.3871   28.4732 H   0  0  0  0  0  0
    6.3719    8.9467   23.4343 H   0  0  0  0  0  0
    5.6575   11.2438   23.9472 H   0  0  0  0  0  0
    1.4023   11.6461   23.4983 H   0  0  0  0  0  0
    3.4769    7.9238   25.9586 H   0  0  0  0  0  0
   -0.9004    9.3263   29.1557 H   0  0  0  0  0  0
    1.5569   13.9765   24.2143 H   0  0  0  0  0  0
    5.8156   13.5708   24.5934 H   0  0  0  0  0  0
    8.2986   10.1663   22.7435 H   0  0  0  0  0  0
    8.2403    8.7827   21.6477 H   0  0  0  0  0  0
    7.6362   10.3674   21.1241 H   0  0  0  0  0  0
    4.6671   16.8988   25.5958 H   0  0  0  0  0  0
    5.5415   15.9522   24.3958 H   0  0  0  0  0  0
    5.4098   15.3792   26.0767 H   0  0  0  0  0  0
  1  7  1  0  0  0
  1  5  2  0  0  0
  1  3  1  0  0  0
  2  4  1  0  0  0
  2  6  1  0  0  0
  2  3  2  0  0  0
  3 12  1  0  0  0
  4  5  1  0  0  0
  4 27  1  0  0  0
  6  8  2  0  0  0
  6  9  1  0  0  0
  7 14  2  0  0  0
  7 15  1  0  0  0
  8 10  1  0  0  0
  8 19  1  0  0  0
  9 11  2  0  0  0
  9 28  1  0  0  0
 10 13  2  0  0  0
 10 29  1  0  0  0
 11 13  1  0  0  0
 11 18  1  0  0  0
 12 16  2  0  0  0
 12 17  1  0  0  0
 13 20  1  0  0  0
 15 25  1  0  0  0
 15 30  1  0  0  0
 16 23  1  0  0  0
 16 31  1  0  0  0
 17 22  2  0  0  0
 17 32  1  0  0  0
 19 33  1  0  0  0
 20 34  1  0  0  0
 21 22  1  0  0  0
 21 24  1  0  0  0
 21 23  2  0  0  0
 22 35  1  0  0  0
 23 36  1  0  0  0
 24 26  1  0  0  0
 25 37  1  0  0  0
 25 38  1  0  0  0
 25 39  1  0  0  0
 26 40  1  0  0  0
 26 41  1  0  0  0
 26 42  1  0  0  0
M  END
> <s_m_entry_id>
4855

> <s_m_entry_name>
dock_pv.174

> <s_m_Source_Path>
/home/csk/Desktop/cluster/DUD-E-result/hs90a

> <s_m_Source_File>
dock_pv.maegz

> <i_m_Source_File_Index>
174

> <chembl_id>
CHEMBL424811

> <chembl_pref_name>
None

> <i_lp_mmshare_version>
53161

> <r_lp_tautomer_probability>
0.4999999999745

> <s_lp_Force_Field>
OPLS_2005

> <r_lp_Energy>
26.229477

> <b_lp_Chiralities_Consistent>
1

> <s_lp_Variant>
CHEMBL3880_lig159-2

> <s_i_glide_gridfile>
glide-grid_1uyg

> <i_i_glide_lignum>
187

> <i_i_glide_rotatable_bonds>
7

> <r_i_docking_score>
-8.34104058634103

> <r_i_glide_ligand_efficiency>
-0.320809253320809

> <r_i_glide_ligand_efficiency_sa>
-0.95039615063944

> <r_i_glide_ligand_efficiency_ln>
-1.9588660125157

> <r_i_glide_gscore>
-8.34104058634103

> <r_i_glide_lipo>
-3.78720482817071

> <r_i_glide_hbond>
-0.5159067146565

> <r_i_glide_metal>
0

> <r_i_glide_rewards>
-1.31909152703147

> <r_i_glide_evdw>
-42.8180809020996

> <r_i_glide_ecoul>
-6.61971950531006

> <r_i_glide_erotb>
0.415024454419136

> <r_i_glide_esite>
0

> <r_i_glide_emodel>
-69.0888870719232

> <r_i_glide_energy>
-49.4378004074097

> <r_i_glide_einternal>
8.81022453308105

> <i_i_glide_confnum>
19

> <i_i_glide_posenum>
198

> <r_i_glide_eff_state_penalty>
0

> <s_user_duplicate_titles>
CHEMBL3880_lig159,CHEMBL3880_lig159,316850

> <i_f3d_flags>
0

> <s_m_subgroup_title>
dock_pv

> <s_m_subgroupid>
dock_pv

> <b_m_subgroup_collapsed>
1

$$$$
CHEMBL3880_lig949
                    3D
 Schrodinger Suite 2021-1.
 63 66  0  0  1  0            999 V2000
    5.6179    9.2991   21.0746 C   0  0  0  0  0  0
    5.5191    8.7815   22.5294 C   0  0  0  0  0  0
    5.1804    7.2758   22.6241 C   0  0  0  0  0  0
    0.7140   10.7151   24.8514 C   0  0  0  0  0  0
    2.0925   10.9061   24.7668 C   0  0  0  0  0  0
    2.6432   11.9717   24.0513 C   0  0  0  0  0  0
    1.7996   12.9219   23.4825 C   0  0  0  0  0  0
    0.4247   12.7829   23.6021 C   0  0  0  0  0  0
   -0.1362   11.6778   24.2663 C   0  0  0  0  0  0
   -1.6327   11.5688   24.3670 C   0  0  0  0  0  0
   -2.1809   11.0907   25.3566 O   0  0  0  0  0  0
   -2.3373   12.0439   23.3469 N   0  0  0  0  0  0
    4.0425   12.0492   23.9080 N   0  0  0  0  0  0
    4.8627   10.9766   23.6140 C   0  0  0  0  0  0
    6.1864   11.3907   23.6634 C   0  0  0  0  0  0
    7.2950   10.4472   23.5032 C   0  0  0  0  0  0
    6.8776    8.9845   23.2626 C   0  0  0  0  0  0
    4.3943    9.5610   23.2623 C   0  0  0  0  0  0
    8.4741   10.7693   23.5594 O   0  0  0  0  0  0
    6.1877   12.7684   23.9670 C   0  0  0  0  0  0
    4.8560   13.1457   24.1194 C   0  0  0  0  0  0
    4.4026   14.5506   24.5025 C   0  0  0  0  0  0
    5.4167   15.2612   25.2896 N   0  0  2  0  0  0
    6.7970   15.1375   24.8003 C   0  0  0  0  0  0
    7.3078   13.7387   24.3212 C   0  0  0  0  0  0
    5.2700   15.0248   26.7169 C   0  0  0  0  0  0
    0.1968    9.5752   25.5014 N   0  0  0  0  0  0
    0.9851    8.3760   25.7695 C   0  0  0  0  0  0
    0.1751    7.2599   26.4614 C   0  0  0  0  0  0
   -0.4843    7.6773   27.6546 O   0  0  0  0  0  0
    0.3641    8.1393   28.6952 C   0  0  0  0  0  0
    5.8515   10.3629   21.0279 H   0  0  0  0  0  0
    6.3952    8.7719   20.5295 H   0  0  0  0  0  0
    4.6832    9.1439   20.5349 H   0  0  0  0  0  0
    4.8892    6.9819   23.6325 H   0  0  0  0  0  0
    4.3582    7.0108   21.9578 H   0  0  0  0  0  0
    6.0322    6.6459   22.3671 H   0  0  0  0  0  0
    2.7516   10.2169   25.2671 H   0  0  0  0  0  0
    2.1960   13.7702   22.9477 H   0  0  0  0  0  0
   -0.1988   13.5568   23.1738 H   0  0  0  0  0  0
   -3.3479   12.0599   23.4838 H   0  0  0  0  0  0
   -1.9217   12.3390   22.4787 H   0  0  0  0  0  0
    6.8178    8.5370   24.2549 H   0  0  0  0  0  0
    7.6905    8.4716   22.7463 H   0  0  0  0  0  0
    3.4651    9.5451   22.6886 H   0  0  0  0  0  0
    4.2000    9.0589   24.2106 H   0  0  0  0  0  0
    3.4098   14.5989   24.9513 H   0  0  0  0  0  0
    4.3388   15.0981   23.5683 H   0  0  0  0  0  0
    7.5088   15.6046   25.4821 H   0  0  0  0  0  0
    6.8418   15.8237   23.9669 H   0  0  0  0  0  0
    8.0619   13.8552   23.5442 H   0  0  0  0  0  0
    7.8468   13.2853   25.1531 H   0  0  0  0  0  0
    6.0626   15.5085   27.2893 H   0  0  0  0  0  0
    4.3192   15.4341   27.0616 H   0  0  0  0  0  0
    5.2609   13.9690   26.9413 H   0  0  0  0  0  0
   -0.8100    9.4644   25.4723 H   0  0  0  0  0  0
    1.8632    8.6261   26.3664 H   0  0  0  0  0  0
    1.3793    7.9996   24.8237 H   0  0  0  0  0  0
    0.8204    6.4063   26.6775 H   0  0  0  0  0  0
   -0.5862    6.8876   25.7747 H   0  0  0  0  0  0
   -0.2422    8.3688   29.5678 H   0  0  0  0  0  0
    1.0943    7.3820   28.9819 H   0  0  0  0  0  0
    0.8890    9.0543   28.4174 H   0  0  0  0  0  0
  1  2  1  0  0  0
  1 32  1  0  0  0
  1 33  1  0  0  0
  1 34  1  0  0  0
  2  3  1  0  0  0
  2 17  1  0  0  0
  2 18  1  0  0  0
  3 35  1  0  0  0
  3 36  1  0  0  0
  3 37  1  0  0  0
  4  5  2  0  0  0
  4  9  1  0  0  0
  4 27  1  0  0  0
  5  6  1  0  0  0
  5 38  1  0  0  0
  6  7  2  0  0  0
  6 13  1  0  0  0
  7  8  1  0  0  0
  7 39  1  0  0  0
  8  9  2  0  0  0
  8 40  1  0  0  0
  9 10  1  0  0  0
 10 11  2  0  0  0
 10 12  1  0  0  0
 12 41  1  0  0  0
 12 42  1  0  0  0
 13 21  1  0  0  0
 13 14  1  0  0  0
 14 15  2  0  0  0
 14 18  1  0  0  0
 15 20  1  0  0  0
 15 16  1  0  0  0
 16 17  1  0  0  0
 16 19  2  0  0  0
 17 43  1  0  0  0
 17 44  1  0  0  0
 18 45  1  0  0  0
 18 46  1  0  0  0
 20 21  2  0  0  0
 20 25  1  0  0  0
 21 22  1  0  0  0
 22 23  1  0  0  0
 22 47  1  0  0  0
 22 48  1  0  0  0
 23 24  1  0  0  0
 23 26  1  0  0  0
 24 25  1  0  0  0
 24 49  1  0  0  0
 24 50  1  0  0  0
 25 51  1  0  0  0
 25 52  1  0  0  0
 26 53  1  0  0  0
 26 54  1  0  0  0
 26 55  1  0  0  0
 27 28  1  0  0  0
 27 56  1  0  0  0
 28 29  1  0  0  0
 28 57  1  0  0  0
 28 58  1  0  0  0
 29 30  1  0  0  0
 29 59  1  0  0  0
 29 60  1  0  0  0
 30 31  1  0  0  0
 31 61  1  0  0  0
 31 62  1  0  0  0
 31 63  1  0  0  0
M  END
> <s_m_entry_id>
4856

> <s_m_entry_name>
dock_pv.175

> <s_m_Source_Path>
/home/csk/Desktop/cluster/DUD-E-result/hs90a

> <s_m_Source_File>
dock_pv.maegz

> <i_m_Source_File_Index>
175

> <chembl_id>
CHEMBL3235337

> <chembl_pref_name>
None

> <i_lp_mmshare_version>
53161

> <r_lp_tautomer_probability>
0.99995

> <s_lp_Force_Field>
OPLS_2005

> <r_lp_Energy>
44.340274

> <b_lp_Chiralities_Consistent>
1

> <s_lp_Variant>
CHEMBL3880_lig949-1

> <s_i_glide_gridfile>
glide-grid_1uyg

> <i_i_glide_lignum>
1058

> <i_i_glide_rotatable_bonds>
6

> <r_i_docking_score>
-8.32950761946781

> <r_i_glide_ligand_efficiency>
-0.268693794176381

> <r_i_glide_ligand_efficiency_sa>
-0.844069485477144

> <r_i_glide_ligand_efficiency_ln>
-1.87855923694191

> <r_i_glide_gscore>
-8.32950761946781

> <r_i_glide_lipo>
-4.31087090684069

> <r_i_glide_hbond>
-0.16

> <r_i_glide_metal>
0

> <r_i_glide_rewards>
-1.62324092355958

> <r_i_glide_evdw>
-46.4650115966797

> <r_i_glide_ecoul>
-2.04048848152161

> <r_i_glide_erotb>
0.440084906662192

> <r_i_glide_esite>
-0.0461568436675099

> <r_i_glide_emodel>
-61.5054645867007

> <r_i_glide_energy>
-48.5055000782013

> <r_i_glide_einternal>
1.30666673183441

> <i_i_glide_confnum>
97

> <i_i_glide_posenum>
50

> <r_i_glide_eff_state_penalty>
0

> <s_user_duplicate_titles>
CHEMBL3880_lig949

> <i_f3d_flags>
0

> <s_m_subgroup_title>
dock_pv

> <s_m_subgroupid>
dock_pv

> <b_m_subgroup_collapsed>
1

$$$$
CHEMBL3880_lig236
                    3D
 Schrodinger Suite 2021-1.
 72 75  0  0  1  0            999 V2000
    0.2983   12.5846   23.3535 C   0  0  0  0  0  0
    1.6628   12.8410   23.3246 C   0  0  0  0  0  0
   -0.2165   11.4728   24.0378 C   0  0  0  0  0  0
    0.6753   10.6067   24.7190 C   0  0  0  0  0  0
    1.0971    8.2769   25.7133 C   0  0  2  0  0  0
    0.2337    9.3878   25.2822 N   0  0  0  0  0  0
    1.3387    7.2326   24.5657 C   0  0  1  0  0  0
    4.4507    8.7935   23.9845 C   0  0  0  0  0  0
    3.7168    7.6046   23.5112 N   0  0  0  0  0  0
    2.2373    7.7417   23.3892 C   0  0  0  0  0  0
    2.0276   10.9580   24.7676 C   0  0  0  0  0  0
    2.5402   12.0115   24.0178 C   0  0  0  0  0  0
    4.4954    9.9354   22.9412 C   0  0  0  0  0  0
    4.8898   11.3030   23.5007 C   0  0  0  0  0  0
    3.9369   12.2138   23.9422 N   0  0  0  0  0  0
    6.1555   11.9012   23.5671 C   0  0  0  0  0  0
    7.4742   11.2269   23.2510 C   0  0  0  0  0  0
    5.9563   13.2136   24.0457 C   0  0  0  0  0  0
    4.5859   13.3948   24.2148 C   0  0  0  0  0  0
    3.9140   14.6542   24.7473 C   0  0  0  0  0  0
    4.9332   15.4672   25.5761 C   0  0  0  0  0  0
    6.2953   15.6095   24.8335 C   0  0  0  0  0  0
    6.9289   14.2746   24.3672 C   0  0  0  0  0  0
    8.1469   14.1123   24.3631 O   0  0  0  0  0  0
    5.1907   14.7633   26.8822 C   0  0  0  0  0  0
    4.3487   16.8269   25.8982 C   0  0  0  0  0  0
    1.7684    5.8306   25.0572 C   0  0  0  0  0  0
    0.5000    7.6782   27.0027 C   0  0  0  0  0  0
   -1.7103   11.2652   23.9652 C   0  0  0  0  0  0
   -2.3328   11.5694   22.9535 O   0  0  0  0  0  0
   -2.3387   10.8403   25.0616 N   0  0  0  0  0  0
    4.3635    6.4957   23.0466 C   0  0  0  0  0  0
    3.7672    5.5617   22.5076 O   0  0  0  0  0  0
    5.8990    6.3663   23.1766 C   0  0  0  0  0  0
    6.2723    6.1276   24.5543 N   0  0  0  0  0  0
   -0.3615   13.2501   22.8123 H   0  0  0  0  0  0
    2.0277   13.6891   22.7669 H   0  0  0  0  0  0
    2.0762    8.6428   26.0106 H   0  0  0  0  0  0
   -0.7125    9.1166   25.0552 H   0  0  0  0  0  0
    0.3550    7.0850   24.1149 H   0  0  0  0  0  0
    5.4752    8.5610   24.2657 H   0  0  0  0  0  0
    4.0122    9.1014   24.9233 H   0  0  0  0  0  0
    1.9751    8.7732   23.1654 H   0  0  0  0  0  0
    1.9269    7.1948   22.4961 H   0  0  0  0  0  0
    2.7085   10.4130   25.3845 H   0  0  0  0  0  0
    3.5482   10.0109   22.4067 H   0  0  0  0  0  0
    5.2100    9.6450   22.1701 H   0  0  0  0  0  0
    7.4098   10.1396   23.2924 H   0  0  0  0  0  0
    7.8479   11.5146   22.2685 H   0  0  0  0  0  0
    8.2497   11.5021   23.9653 H   0  0  0  0  0  0
    3.0147   14.4362   25.3210 H   0  0  0  0  0  0
    3.5906   15.2468   23.9006 H   0  0  0  0  0  0
    7.0279   16.1088   25.4658 H   0  0  0  0  0  0
    6.1669   16.2464   23.9672 H   0  0  0  0  0  0
    4.2776   14.3703   27.3300 H   0  0  0  0  0  0
    5.8567   13.9690   26.6873 H   0  0  0  0  0  0
    5.7358   15.4036   27.5674 H   0  0  0  0  0  0
    3.3008   16.7690   26.1922 H   0  0  0  0  0  0
    4.8601   17.2076   26.7690 H   0  0  0  0  0  0
    4.4609   17.5387   25.0832 H   0  0  0  0  0  0
    2.7217    5.8635   25.5836 H   0  0  0  0  0  0
    1.0309    5.3852   25.7228 H   0  0  0  0  0  0
    1.8704    5.1388   24.2219 H   0  0  0  0  0  0
    1.1776    6.9627   27.4678 H   0  0  0  0  0  0
    0.3139    8.4523   27.7491 H   0  0  0  0  0  0
   -0.4469    7.1720   26.8083 H   0  0  0  0  0  0
   -3.3533   10.8619   25.0529 H   0  0  0  0  0  0
   -1.8290   10.5646   25.8843 H   0  0  0  0  0  0
    6.2450    5.5355   22.5594 H   0  0  0  0  0  0
    6.3950    7.2481   22.7689 H   0  0  0  0  0  0
    5.9699    5.2070   24.8423 H   0  0  0  0  0  0
    7.2779    6.1356   24.6553 H   0  0  0  0  0  0
  1  3  1  0  0  0
  1  2  2  0  0  0
  1 36  1  0  0  0
  2 12  1  0  0  0
  2 37  1  0  0  0
  3 29  1  0  0  0
  3  4  2  0  0  0
  4 11  1  0  0  0
  4  6  1  0  0  0
  5 28  1  0  0  0
  5  7  1  0  0  0
  5  6  1  0  0  0
  5 38  1  0  0  0
  6 39  1  0  0  0
  7 10  1  0  0  0
  7 27  1  0  0  0
  7 40  1  0  0  0
  8 13  1  0  0  0
  8  9  1  0  0  0
  8 41  1  0  0  0
  8 42  1  0  0  0
  9 10  1  0  0  0
  9 32  1  0  0  0
 10 43  1  0  0  0
 10 44  1  0  0  0
 11 12  2  0  0  0
 11 45  1  0  0  0
 12 15  1  0  0  0
 13 14  1  0  0  0
 13 46  1  0  0  0
 13 47  1  0  0  0
 14 16  2  0  0  0
 14 15  1  0  0  0
 15 19  1  0  0  0
 16 17  1  0  0  0
 16 18  1  0  0  0
 17 48  1  0  0  0
 17 49  1  0  0  0
 17 50  1  0  0  0
 18 19  2  0  0  0
 18 23  1  0  0  0
 19 20  1  0  0  0
 20 21  1  0  0  0
 20 51  1  0  0  0
 20 52  1  0  0  0
 21 22  1  0  0  0
 21 25  1  0  0  0
 21 26  1  0  0  0
 22 23  1  0  0  0
 22 53  1  0  0  0
 22 54  1  0  0  0
 23 24  2  0  0  0
 25 55  1  0  0  0
 25 56  1  0  0  0
 25 57  1  0  0  0
 26 58  1  0  0  0
 26 59  1  0  0  0
 26 60  1  0  0  0
 27 61  1  0  0  0
 27 62  1  0  0  0
 27 63  1  0  0  0
 28 64  1  0  0  0
 28 65  1  0  0  0
 28 66  1  0  0  0
 29 30  2  0  0  0
 29 31  1  0  0  0
 31 67  1  0  0  0
 31 68  1  0  0  0
 32 33  2  0  0  0
 32 34  1  0  0  0
 34 35  1  0  0  0
 34 69  1  0  0  0
 34 70  1  0  0  0
 35 71  1  0  0  0
 35 72  1  0  0  0
M  END
> <s_m_entry_id>
4857

> <s_m_entry_name>
dock_pv.176

> <s_m_Source_Path>
/home/csk/Desktop/cluster/DUD-E-result/hs90a

> <s_m_Source_File>
dock_pv.maegz

> <i_m_Source_File_Index>
176

> <chembl_id>
CHEMBL1807799

> <chembl_pref_name>
None

> <i_lp_mmshare_version>
53161

> <r_lp_tautomer_probability>
0.99995

> <s_lp_Force_Field>
OPLS_2005

> <r_lp_Energy>
55.094369

> <b_lp_Chiralities_Consistent>
1

> <s_lp_Variant>
CHEMBL3880_lig236-1

> <s_i_glide_gridfile>
glide-grid_1uyg

> <i_i_glide_lignum>
270

> <i_i_glide_rotatable_bonds>
3

> <r_i_docking_score>
-8.32842644227289

> <r_i_glide_ligand_efficiency>
-0.237955041207797

> <r_i_glide_ligand_efficiency_sa>
-0.778366717711907

> <r_i_glide_ligand_efficiency_ln>
-1.8282744435449

> <r_i_glide_gscore>
-8.32842644227289

> <r_i_glide_lipo>
-4.35711978100015

> <r_i_glide_hbond>
-0.0953539236960462

> <r_i_glide_metal>
0

> <r_i_glide_rewards>
-1.95747420720426

> <r_i_glide_evdw>
-38.7187004089355

> <r_i_glide_ecoul>
-0.251761645078659

> <r_i_glide_erotb>
0.0881322254892723

> <r_i_glide_esite>
-0.0329114886531346

> <r_i_glide_emodel>
-37.9803956145734

> <r_i_glide_energy>
-38.9704620540142

> <r_i_glide_einternal>
5.70745706558228

> <i_i_glide_confnum>
11

> <i_i_glide_posenum>
230

> <r_i_glide_eff_state_penalty>
0

> <s_user_duplicate_titles>
CHEMBL3880_lig236

> <i_f3d_flags>
0

> <s_m_subgroup_title>
dock_pv

> <s_m_subgroupid>
dock_pv

> <b_m_subgroup_collapsed>
1

$$$$
CHEMBL3880_lig375
                    3D
 Schrodinger Suite 2021-1.
 47 50  0  0  1  0            999 V2000
   -1.3219   10.9535   25.4172 N   0  0  0  0  0  0
   -0.9862   11.5743   24.2620 C   0  0  0  0  0  0
    0.2067   11.5016   23.6409 N   0  0  0  0  0  0
   -0.3621   10.1795   25.9946 C   0  0  0  0  0  0
    0.9199   10.0327   25.4202 C   0  0  0  0  0  0
    1.1403   10.6899   24.2001 C   0  0  0  0  0  0
    2.4695   10.5195   23.4971 C   0  0  0  0  0  0
    3.6039   10.3444   24.5356 C   0  0  1  0  0  0
    3.2097    9.2546   25.4565 N   0  0  0  0  0  0
    1.9873    9.1350   26.0205 C   0  0  0  0  0  0
    4.9511   10.1812   23.8138 C   0  0  0  0  0  0
    5.8637   11.2484   23.5668 C   0  0  0  0  0  0
    7.0730   10.9400   22.9246 C   0  0  0  0  0  0
    7.3876    9.6419   22.5495 C   0  0  0  0  0  0
    6.4894    8.6145   22.7790 C   0  0  0  0  0  0
    5.2800    8.8827   23.3997 C   0  0  0  0  0  0
   -0.7936    9.5171   27.2971 C   0  0  0  0  0  0
    1.8200    8.2763   26.8825 O   0  0  0  0  0  0
   -1.9391   12.3559   23.6319 N   0  0  0  0  0  0
    5.6461   12.6786   23.9670 C   0  0  0  0  0  0
    4.3731   13.1532   23.9670 N   0  0  0  0  0  0
    4.1401   14.3883   24.4845 C   0  0  0  0  0  0
    5.1871   15.1537   25.0068 C   0  0  0  0  0  0
    6.4759   14.7366   24.9300 N   0  0  0  0  0  0
    6.6997   13.5153   24.3801 C   0  0  0  0  0  0
    2.8611   14.9069   24.4651 O   0  0  0  0  0  0
    1.7714   14.1069   24.0510 C   0  0  0  0  0  0
    8.5724    9.3825   21.9670 F   0  0  0  0  0  0
    4.9254   16.3689   25.6321 N   0  0  0  0  0  0
    2.6645   11.3610   22.8312 H   0  0  0  0  0  0
    2.4129    9.6332   22.8637 H   0  0  0  0  0  0
    3.6722   11.2065   25.1982 H   0  0  0  0  0  0
    3.9234    8.6345   25.8082 H   0  0  0  0  0  0
    7.7981   11.7112   22.7082 H   0  0  0  0  0  0
    6.7330    7.6051   22.4831 H   0  0  0  0  0  0
    4.5961    8.0617   23.5634 H   0  0  0  0  0  0
   -0.0725    9.7163   28.0858 H   0  0  0  0  0  0
   -1.7672    9.8674   27.6429 H   0  0  0  0  0  0
   -0.8474    8.4369   27.1668 H   0  0  0  0  0  0
   -1.7229   12.7429   22.7286 H   0  0  0  0  0  0
   -2.9007   12.3405   23.9691 H   0  0  0  0  0  0
    7.7235   13.1750   24.4018 H   0  0  0  0  0  0
    0.8601   14.7049   24.0524 H   0  0  0  0  0  0
    1.9087   13.7022   23.0483 H   0  0  0  0  0  0
    1.6390   13.2980   24.7668 H   0  0  0  0  0  0
    3.9697   16.6863   25.6854 H   0  0  0  0  0  0
    5.6877   16.9159   26.0071 H   0  0  0  0  0  0
  1  2  2  0  0  0
  1  4  1  0  0  0
  2  3  1  0  0  0
  2 19  1  0  0  0
  3  6  2  0  0  0
  4  5  2  0  0  0
  4 17  1  0  0  0
  5  6  1  0  0  0
  5 10  1  0  0  0
  6  7  1  0  0  0
  7  8  1  0  0  0
  7 30  1  0  0  0
  7 31  1  0  0  0
  8  9  1  0  0  0
  8 11  1  0  0  0
  8 32  1  0  0  0
  9 10  1  0  0  0
  9 33  1  0  0  0
 10 18  2  0  0  0
 11 12  2  0  0  0
 11 16  1  0  0  0
 12 13  1  0  0  0
 12 20  1  0  0  0
 13 14  2  0  0  0
 13 34  1  0  0  0
 14 15  1  0  0  0
 14 28  1  0  0  0
 15 16  2  0  0  0
 15 35  1  0  0  0
 16 36  1  0  0  0
 17 37  1  0  0  0
 17 38  1  0  0  0
 17 39  1  0  0  0
 19 40  1  0  0  0
 19 41  1  0  0  0
 20 21  2  0  0  0
 20 25  1  0  0  0
 21 22  1  0  0  0
 22 23  2  0  0  0
 22 26  1  0  0  0
 23 24  1  0  0  0
 23 29  1  0  0  0
 24 25  2  0  0  0
 25 42  1  0  0  0
 26 27  1  0  0  0
 27 43  1  0  0  0
 27 44  1  0  0  0
 27 45  1  0  0  0
 29 46  1  0  0  0
 29 47  1  0  0  0
M  END
> <s_m_entry_id>
4858

> <s_m_entry_name>
dock_pv.177

> <s_m_Source_Path>
/home/csk/Desktop/cluster/DUD-E-result/hs90a

> <s_m_Source_File>
dock_pv.maegz

> <i_m_Source_File_Index>
177

> <chembl_id>
CHEMBL3360314

> <chembl_pref_name>
None

> <i_lp_mmshare_version>
53161

> <r_lp_tautomer_probability>
0.999999987636

> <s_lp_Force_Field>
OPLS_2005

> <r_lp_Energy>
28.592817

> <b_lp_Chiralities_Consistent>
1

> <s_lp_Variant>
CHEMBL3880_lig375-1

> <s_i_glide_gridfile>
glide-grid_1uyg

> <i_i_glide_lignum>
417

> <i_i_glide_rotatable_bonds>
3

> <r_i_docking_score>
-8.32288147334175

> <r_i_glide_ligand_efficiency>
-0.286995912873854

> <r_i_glide_ligand_efficiency_sa>
-0.881742371035714

> <r_i_glide_ligand_efficiency_ln>
-1.905728807331

> <r_i_glide_gscore>
-8.32288147334175

> <r_i_glide_lipo>
-3.81894131910233

> <r_i_glide_hbond>
-0.16

> <r_i_glide_metal>
0

> <r_i_glide_rewards>
-1.77599878024754

> <r_i_glide_evdw>
-43.7226829528809

> <r_i_glide_ecoul>
-4.12845849990845

> <r_i_glide_erotb>
0.250162682551203

> <r_i_glide_esite>
-0.0127011339127747

> <r_i_glide_emodel>
-70.608703174762

> <r_i_glide_energy>
-47.8511414527893

> <r_i_glide_einternal>
0.526026666164398

> <i_i_glide_confnum>
2

> <i_i_glide_posenum>
186

> <r_i_glide_eff_state_penalty>
0

> <s_user_duplicate_titles>
CHEMBL3880_lig375

> <i_f3d_flags>
0

> <s_m_subgroup_title>
dock_pv

> <s_m_subgroupid>
dock_pv

> <b_m_subgroup_collapsed>
1

$$$$
CHEMBL3880_lig57
                    3D
 Schrodinger Suite 2021-1.
 49 51  0  0  1  0            999 V2000
    3.4845    9.1519   24.8635 O   0  0  0  0  0  0
    2.2337   13.3230   24.3664 O   0  0  0  0  0  0
   -2.4114   10.7689   26.9078 O   0  0  0  0  0  0
   -2.3389   11.1709   24.6757 O   0  0  0  0  0  0
    9.4087   14.9998   25.6265 O   0  0  0  0  0  0
    1.5881   10.4034   24.4559 N   0  0  0  0  0  0
    0.2601   10.7266   24.6745 N   0  0  0  0  0  0
    6.5387   13.2536   24.0823 N   0  0  0  0  0  0
    1.6243    9.0373   26.4346 C   0  0  0  0  0  0
    0.2967    9.4323   26.7290 C   0  0  0  0  0  0
    2.3441    9.5067   25.1807 C   0  0  0  0  0  0
   -0.3688   10.3137   25.7184 C   0  0  0  0  0  0
    4.4149   12.4919   23.9669 C   0  0  0  0  0  0
    5.2151   13.5737   24.3669 C   0  0  0  0  0  0
    2.9481   12.4081   23.9611 C   0  0  0  0  0  0
    2.2556   11.1587   23.3781 C   0  0  0  0  0  0
    6.5989   11.9478   23.6292 C   0  0  0  0  0  0
    5.3025   11.4845   23.5667 C   0  0  0  0  0  0
   -1.7746   10.7691   25.8588 C   0  0  0  0  0  0
    2.3295    8.1990   27.3082 C   0  0  0  0  0  0
   -0.2741    8.9707   27.9324 C   0  0  0  0  0  0
    1.7509    7.7790   28.4998 C   0  0  0  0  0  0
    0.4554    8.1696   28.8120 C   0  0  0  0  0  0
    7.6854   14.1594   24.2261 C   0  0  0  0  0  0
    4.8497   14.9366   24.9446 C   0  0  0  0  0  0
    7.8839   11.2314   23.2789 C   0  0  0  0  0  0
    8.2515   14.1736   25.6510 C   0  0  0  0  0  0
    9.9909   15.1997   26.9066 C   0  0  0  0  0  0
   -3.2611   11.4668   24.7668 H   0  0  0  0  0  0
    1.5285   11.4966   22.6380 H   0  0  0  0  0  0
    2.9295   10.5401   22.7876 H   0  0  0  0  0  0
    5.0403   10.4898   23.2377 H   0  0  0  0  0  0
    3.3406    7.8894   27.0821 H   0  0  0  0  0  0
   -1.2764    9.2282   28.2354 H   0  0  0  0  0  0
    2.3115    7.1617   29.1856 H   0  0  0  0  0  0
    0.0169    7.8554   29.7471 H   0  0  0  0  0  0
    7.3852   15.1630   23.9259 H   0  0  0  0  0  0
    8.4591   13.8642   23.5216 H   0  0  0  0  0  0
    5.2041   15.0431   25.9714 H   0  0  0  0  0  0
    5.2734   15.7598   24.3686 H   0  0  0  0  0  0
    3.7763   15.1248   24.9696 H   0  0  0  0  0  0
    7.7549   10.1487   23.2817 H   0  0  0  0  0  0
    8.2226   11.5053   22.2830 H   0  0  0  0  0  0
    8.6944   11.4467   23.9739 H   0  0  0  0  0  0
    8.5242   13.1673   25.9677 H   0  0  0  0  0  0
    7.5127   14.5674   26.3519 H   0  0  0  0  0  0
   10.8900   15.8085   26.8082 H   0  0  0  0  0  0
   10.2719   14.2550   27.3761 H   0  0  0  0  0  0
    9.3037   15.7293   27.5663 H   0  0  0  0  0  0
  1 11  2  0  0  0
  2 15  2  0  0  0
  3 19  2  0  0  0
  4 19  1  0  0  0
  4 29  1  0  0  0
  5 27  1  0  0  0
  5 28  1  0  0  0
  6  7  1  0  0  0
  6 11  1  0  0  0
  6 16  1  0  0  0
  7 12  2  0  0  0
  8 14  1  0  0  0
  8 17  1  0  0  0
  8 24  1  0  0  0
  9 10  1  0  0  0
  9 11  1  0  0  0
  9 20  2  0  0  0
 10 12  1  0  0  0
 10 21  2  0  0  0
 12 19  1  0  0  0
 13 14  2  0  0  0
 13 15  1  0  0  0
 13 18  1  0  0  0
 14 25  1  0  0  0
 15 16  1  0  0  0
 16 30  1  0  0  0
 16 31  1  0  0  0
 17 18  2  0  0  0
 17 26  1  0  0  0
 18 32  1  0  0  0
 20 22  1  0  0  0
 20 33  1  0  0  0
 21 23  1  0  0  0
 21 34  1  0  0  0
 22 23  2  0  0  0
 22 35  1  0  0  0
 23 36  1  0  0  0
 24 27  1  0  0  0
 24 37  1  0  0  0
 24 38  1  0  0  0
 25 39  1  0  0  0
 25 40  1  0  0  0
 25 41  1  0  0  0
 26 42  1  0  0  0
 26 43  1  0  0  0
 26 44  1  0  0  0
 27 45  1  0  0  0
 27 46  1  0  0  0
 28 47  1  0  0  0
 28 48  1  0  0  0
 28 49  1  0  0  0
M  END
> <s_m_entry_id>
4859

> <s_m_entry_name>
dock_pv.178

> <s_m_Source_Path>
/home/csk/Desktop/cluster/DUD-E-result/hs90a

> <s_m_Source_File>
dock_pv.maegz

> <i_m_Source_File_Index>
178

> <chembl_id>
CHEMBL1380039

> <chembl_pref_name>
None

> <i_lp_mmshare_version>
53161

> <r_lp_tautomer_probability>
1

> <s_lp_Force_Field>
OPLS_2005

> <r_lp_Energy>
41.768843

> <b_lp_Chiralities_Consistent>
1

> <s_lp_Variant>
CHEMBL3880_lig57-1

> <s_i_glide_gridfile>
glide-grid_1uyg

> <i_i_glide_lignum>
63

> <i_i_glide_rotatable_bonds>
8

> <r_i_docking_score>
-8.3174140060121

> <r_i_glide_ligand_efficiency>
-0.297050500214718

> <r_i_glide_ligand_efficiency_sa>
-0.902020272040256

> <r_i_glide_ligand_efficiency_ln>
-1.91990336247439

> <r_i_glide_gscore>
-8.3174140060121

> <r_i_glide_lipo>
-3.96527925913124

> <r_i_glide_hbond>
-0.0304018339752726

> <r_i_glide_metal>
0

> <r_i_glide_rewards>
-1.82463943381415

> <r_i_glide_evdw>
-49.0876350402832

> <r_i_glide_ecoul>
-5.57250452041626

> <r_i_glide_erotb>
0.793163950985158

> <r_i_glide_esite>
0

> <r_i_glide_emodel>
-76.1554135370367

> <r_i_glide_energy>
-54.6601395606995

> <r_i_glide_einternal>
9.53704357147217

> <i_i_glide_confnum>
26

> <i_i_glide_posenum>
316

> <r_i_glide_eff_state_penalty>
0

> <s_user_duplicate_titles>
CHEMBL3880_lig57

> <i_f3d_flags>
0

> <s_m_subgroup_title>
dock_pv

> <s_m_subgroupid>
dock_pv

> <b_m_subgroup_collapsed>
1

$$$$
CHEMBL3880_lig286
                    3D
 Schrodinger Suite 2021-1.
 67 69  0  0  1  0            999 V2000
    5.2679    8.6339   21.9817 C   0  0  0  0  0  0
    4.4624    7.5338   21.6995 C   0  0  0  0  0  0
    3.5888    7.0304   22.6601 C   0  0  0  0  0  0
    3.4949    7.6326   23.9273 C   0  0  0  0  0  0
    4.3429    8.7126   24.2160 C   0  0  0  0  0  0
    5.2359    9.2048   23.2570 C   0  0  0  0  0  0
    2.8174    5.9523   22.3164 O   0  0  0  0  0  0
    2.4532    7.1470   24.9514 C   0  0  0  0  0  0
    1.0411    7.6383   24.5712 C   0  0  0  0  0  0
    2.7729    7.4992   26.4210 C   0  0  0  0  0  0
    6.0514    9.1691   20.9906 O   0  0  0  0  0  0
    6.0010   10.3574   23.5296 N   0  0  0  0  0  0
    5.5848   11.6626   23.7772 C   0  0  0  0  0  0
    6.8332   12.3433   23.9669 C   0  0  0  0  0  0
    7.8241   11.5053   23.7245 N   0  0  0  0  0  0
    7.3278   10.2510   23.4982 N   0  0  0  0  0  0
    7.1260   13.7224   24.3187 C   0  0  0  0  0  0
    6.4452   14.1765   25.3722 N   0  0  0  0  0  0
    7.9803   14.3887   23.7324 O   0  0  0  0  0  0
    6.4320   15.5159   25.9290 C   0  0  0  0  0  0
    5.3146   16.3685   25.3082 C   0  0  0  0  0  0
    4.1144   12.0640   23.7647 C   0  0  0  0  0  0
    3.6080   13.1521   24.4830 C   0  0  0  0  0  0
    2.2934   13.5741   24.3276 C   0  0  0  0  0  0
    1.4168   12.8295   23.5544 C   0  0  0  0  0  0
    1.8767   11.7211   22.8663 C   0  0  0  0  0  0
    3.2047   11.3611   22.9584 C   0  0  0  0  0  0
   -0.0203   13.2599   23.3805 C   0  0  0  0  0  0
   -0.9878   12.1676   23.5451 N   0  0  1  0  0  0
   -1.0049   11.6469   24.9182 C   0  0  0  0  0  0
   -1.7674   10.3298   25.0577 C   0  0  0  0  0  0
   -2.4495   13.2780   21.7245 C   0  0  0  0  0  0
   -2.3385   12.5346   23.0798 C   0  0  0  0  0  0
   -1.5448   12.7691   20.7670 O   0  0  0  0  0  0
    4.4884    7.0792   20.7202 H   0  0  0  0  0  0
    4.2775    9.2187   25.1664 H   0  0  0  0  0  0
    2.0383    5.8444   22.8650 H   0  0  0  0  0  0
    2.4527    6.0561   24.9063 H   0  0  0  0  0  0
    0.7572    7.3409   23.5614 H   0  0  0  0  0  0
    0.9794    8.7265   24.6153 H   0  0  0  0  0  0
    0.2838    7.2396   25.2472 H   0  0  0  0  0  0
    3.7856    7.1966   26.6917 H   0  0  0  0  0  0
    2.6761    8.5679   26.6169 H   0  0  0  0  0  0
    2.0918    6.9875   27.1015 H   0  0  0  0  0  0
    6.4383    8.4493   20.4795 H   0  0  0  0  0  0
    5.8972   13.4959   25.8756 H   0  0  0  0  0  0
    6.2876   15.4447   27.0081 H   0  0  0  0  0  0
    7.4119   15.9690   25.7829 H   0  0  0  0  0  0
    5.0217   17.1689   25.9799 H   0  0  0  0  0  0
    5.6413   16.8072   24.3672 H   0  0  0  0  0  0
    4.4040   15.8114   25.1070 H   0  0  0  0  0  0
    4.2003   13.7104   25.1670 H   0  0  0  0  0  0
    1.9536   14.4946   24.7674 H   0  0  0  0  0  0
    1.2135   11.1692   22.2232 H   0  0  0  0  0  0
    3.4972   10.5560   22.3115 H   0  0  0  0  0  0
   -0.2712   14.1410   23.9670 H   0  0  0  0  0  0
   -0.0144   13.5690   22.3447 H   0  0  0  0  0  0
    0.0153   11.4759   25.2654 H   0  0  0  0  0  0
   -1.4477   12.3689   25.5971 H   0  0  0  0  0  0
   -1.6768    9.9693   26.0809 H   0  0  0  0  0  0
   -2.8317   10.4357   24.8498 H   0  0  0  0  0  0
   -1.3622    9.5692   24.3912 H   0  0  0  0  0  0
   -3.4528   13.1695   21.3183 H   0  0  0  0  0  0
   -2.3389   14.3524   21.8375 H   0  0  0  0  0  0
   -2.9613   11.6433   23.0212 H   0  0  0  0  0  0
   -2.8047   13.1688   23.8349 H   0  0  0  0  0  0
   -2.0121   12.0615   20.2953 H   0  0  0  0  0  0
  1  2  2  0  0  0
  1  6  1  0  0  0
  1 11  1  0  0  0
  2  3  1  0  0  0
  2 35  1  0  0  0
  3  4  2  0  0  0
  3  7  1  0  0  0
  4  5  1  0  0  0
  4  8  1  0  0  0
  5  6  2  0  0  0
  5 36  1  0  0  0
  6 12  1  0  0  0
  7 37  1  0  0  0
  8  9  1  0  0  0
  8 10  1  0  0  0
  8 38  1  0  0  0
  9 39  1  0  0  0
  9 40  1  0  0  0
  9 41  1  0  0  0
 10 42  1  0  0  0
 10 43  1  0  0  0
 10 44  1  0  0  0
 11 45  1  0  0  0
 12 13  1  0  0  0
 12 16  1  0  0  0
 13 14  2  0  0  0
 13 22  1  0  0  0
 14 15  1  0  0  0
 14 17  1  0  0  0
 15 16  2  0  0  0
 17 18  1  0  0  0
 17 19  2  0  0  0
 18 20  1  0  0  0
 18 46  1  0  0  0
 20 21  1  0  0  0
 20 47  1  0  0  0
 20 48  1  0  0  0
 21 49  1  0  0  0
 21 50  1  0  0  0
 21 51  1  0  0  0
 22 23  2  0  0  0
 22 27  1  0  0  0
 23 24  1  0  0  0
 23 52  1  0  0  0
 24 25  2  0  0  0
 24 53  1  0  0  0
 25 26  1  0  0  0
 25 28  1  0  0  0
 26 27  2  0  0  0
 26 54  1  0  0  0
 27 55  1  0  0  0
 28 29  1  0  0  0
 28 56  1  0  0  0
 28 57  1  0  0  0
 29 30  1  0  0  0
 29 33  1  0  0  0
 30 31  1  0  0  0
 30 58  1  0  0  0
 30 59  1  0  0  0
 31 60  1  0  0  0
 31 61  1  0  0  0
 31 62  1  0  0  0
 32 33  1  0  0  0
 32 34  1  0  0  0
 32 63  1  0  0  0
 32 64  1  0  0  0
 33 65  1  0  0  0
 33 66  1  0  0  0
 34 67  1  0  0  0
M  END
> <s_m_entry_id>
4860

> <s_m_entry_name>
dock_pv.179

> <s_m_Source_Path>
/home/csk/Desktop/cluster/DUD-E-result/hs90a

> <s_m_Source_File>
dock_pv.maegz

> <i_m_Source_File_Index>
179

> <chembl_id>
CHEMBL3234773

> <chembl_pref_name>
None

> <i_lp_mmshare_version>
53161

> <r_lp_tautomer_probability>
1

> <s_lp_Force_Field>
OPLS_2005

> <r_lp_Energy>
37.544376

> <b_lp_Chiralities_Consistent>
1

> <s_lp_Variant>
CHEMBL3880_lig286-1

> <s_i_glide_gridfile>
glide-grid_1uyg

> <i_i_glide_lignum>
323

> <i_i_glide_rotatable_bonds>
14

> <r_i_docking_score>
-8.3127609864495

> <r_i_glide_ligand_efficiency>
-0.244492970189691

> <r_i_glide_ligand_efficiency_sa>
-0.792062310624875

> <r_i_glide_ligand_efficiency_ln>
-1.83652206695454

> <r_i_glide_gscore>
-8.3127609864495

> <r_i_glide_lipo>
-3.67951923093742

> <r_i_glide_hbond>
-0.590398982721119

> <r_i_glide_metal>
0

> <r_i_glide_rewards>
-1.19355483231324

> <r_i_glide_evdw>
-40.9072265625

> <r_i_glide_ecoul>
-10.2834720611572

> <r_i_glide_erotb>
0.738594196820869

> <r_i_glide_esite>
0

> <r_i_glide_emodel>
-61.0366870552668

> <r_i_glide_energy>
-51.1906986236572

> <r_i_glide_einternal>
23.1884899139404

> <i_i_glide_confnum>
128

> <i_i_glide_posenum>
393

> <r_i_glide_eff_state_penalty>
0

> <s_user_duplicate_titles>
CHEMBL3880_lig286

> <i_f3d_flags>
0

> <s_m_subgroup_title>
dock_pv

> <s_m_subgroupid>
dock_pv

> <b_m_subgroup_collapsed>
1

$$$$
CHEMBL3880_lig357
                    3D
 Schrodinger Suite 2021-1.
 54 57  0  0  1  0            999 V2000
    2.7383    6.6545   23.0877 C   0  0  0  0  0  0
    3.6612    6.9171   22.0737 C   0  0  0  0  0  0
    4.4619    8.0558   22.1308 C   0  0  0  0  0  0
    4.4070    8.8956   23.2483 C   0  0  0  0  0  0
    3.4975    8.6145   24.2715 C   0  0  0  0  0  0
    2.6364    7.5118   24.1973 C   0  0  0  0  0  0
    5.2610    8.3691   21.0626 O   0  0  0  0  0  0
    1.9102    5.5690   22.9627 O   0  0  0  0  0  0
    5.2626   10.1093   23.3832 C   0  0  0  0  0  0
    6.5777   10.0042   23.3506 N   0  0  0  0  0  0
    7.0842   11.2834   23.5669 O   0  0  0  0  0  0
    6.0240   12.1122   23.7223 C   0  0  0  0  0  0
    4.8307   11.4338   23.5670 C   0  0  0  0  0  0
    6.2436   13.4439   23.9670 N   0  0  0  0  0  0
    3.4396   11.9975   23.5789 C   0  0  0  0  0  0
    3.1130   13.1367   24.3211 C   0  0  0  0  0  0
    1.8342   13.6821   24.2357 C   0  0  0  0  0  0
    0.8445   13.0630   23.4831 C   0  0  0  0  0  0
    1.1846   11.9691   22.6991 C   0  0  0  0  0  0
    2.4611   11.4232   22.7670 C   0  0  0  0  0  0
   -0.4331   13.5690   23.5669 O   0  0  0  0  0  0
   -1.5202   12.8790   22.9516 C   0  0  0  0  0  0
    7.1906   13.9573   24.7678 C   0  0  0  0  0  0
    8.1815   13.3466   25.1662 O   0  0  0  0  0  0
    6.9728   15.3987   25.2479 C   0  0  0  0  0  0
    5.6513   16.0943   24.9412 C   0  0  0  0  0  0
    5.9245   15.5659   26.3341 C   0  0  0  0  0  0
    1.5945    7.2506   25.3002 C   0  0  0  0  0  0
    1.1292    8.5121   26.0621 C   0  0  0  0  0  0
    2.0754    6.1603   26.2754 C   0  0  0  0  0  0
    3.7050    6.2758   21.2060 H   0  0  0  0  0  0
    3.4576    9.2786   25.1225 H   0  0  0  0  0  0
    5.8114    7.6274   20.7710 H   0  0  0  0  0  0
    1.8647    5.1958   22.0767 H   0  0  0  0  0  0
    5.5113   14.0644   23.6607 H   0  0  0  0  0  0
    3.8383   13.6081   24.9640 H   0  0  0  0  0  0
    1.5871   14.5847   24.7670 H   0  0  0  0  0  0
    0.4523   11.5690   22.0245 H   0  0  0  0  0  0
    2.6985   10.5748   22.1441 H   0  0  0  0  0  0
   -2.4544   13.3793   23.2103 H   0  0  0  0  0  0
   -1.4366   12.8857   21.8638 H   0  0  0  0  0  0
   -1.5966   11.8471   23.2996 H   0  0  0  0  0  0
    7.8948   15.9690   25.3265 H   0  0  0  0  0  0
    5.6607   17.1684   24.7666 H   0  0  0  0  0  0
    4.8591   15.6183   24.3664 H   0  0  0  0  0  0
    5.3718   14.6949   26.6901 H   0  0  0  0  0  0
    6.0830   16.2877   27.1342 H   0  0  0  0  0  0
    0.7000    6.8709   24.8008 H   0  0  0  0  0  0
    0.8335    9.3054   25.3736 H   0  0  0  0  0  0
    1.9063    8.9060   26.7187 H   0  0  0  0  0  0
    0.2631    8.2911   26.6871 H   0  0  0  0  0  0
    2.3321    5.2399   25.7490 H   0  0  0  0  0  0
    2.9597    6.4828   26.8273 H   0  0  0  0  0  0
    1.3020    5.9122   27.0030 H   0  0  0  0  0  0
  1  2  2  0  0  0
  1  6  1  0  0  0
  1  8  1  0  0  0
  2  3  1  0  0  0
  2 31  1  0  0  0
  3  4  2  0  0  0
  3  7  1  0  0  0
  4  5  1  0  0  0
  4  9  1  0  0  0
  5  6  2  0  0  0
  5 32  1  0  0  0
  6 28  1  0  0  0
  7 33  1  0  0  0
  8 34  1  0  0  0
  9 10  2  0  0  0
  9 13  1  0  0  0
 10 11  1  0  0  0
 11 12  1  0  0  0
 12 13  2  0  0  0
 12 14  1  0  0  0
 13 15  1  0  0  0
 14 23  1  0  0  0
 14 35  1  0  0  0
 15 16  2  0  0  0
 15 20  1  0  0  0
 16 17  1  0  0  0
 16 36  1  0  0  0
 17 18  2  0  0  0
 17 37  1  0  0  0
 18 19  1  0  0  0
 18 21  1  0  0  0
 19 20  2  0  0  0
 19 38  1  0  0  0
 20 39  1  0  0  0
 21 22  1  0  0  0
 22 40  1  0  0  0
 22 41  1  0  0  0
 22 42  1  0  0  0
 23 24  2  0  0  0
 23 25  1  0  0  0
 25 26  1  0  0  0
 25 27  1  0  0  0
 25 43  1  0  0  0
 26 27  1  0  0  0
 26 44  1  0  0  0
 26 45  1  0  0  0
 27 46  1  0  0  0
 27 47  1  0  0  0
 28 29  1  0  0  0
 28 30  1  0  0  0
 28 48  1  0  0  0
 29 49  1  0  0  0
 29 50  1  0  0  0
 29 51  1  0  0  0
 30 52  1  0  0  0
 30 53  1  0  0  0
 30 54  1  0  0  0
M  END
> <s_m_entry_id>
4861

> <s_m_entry_name>
dock_pv.180

> <s_m_Source_Path>
/home/csk/Desktop/cluster/DUD-E-result/hs90a

> <s_m_Source_File>
dock_pv.maegz

> <i_m_Source_File_Index>
180

> <chembl_id>
CHEMBL3342597

> <chembl_pref_name>
None

> <i_lp_mmshare_version>
53161

> <r_lp_tautomer_probability>
0.999999999898

> <s_lp_Force_Field>
OPLS_2005

> <r_lp_Energy>
29.721836

> <b_lp_Chiralities_Consistent>
1

> <s_lp_Variant>
CHEMBL3880_lig357-1

> <s_i_glide_gridfile>
glide-grid_1uyg

> <i_i_glide_lignum>
394

> <i_i_glide_rotatable_bonds>
9

> <r_i_docking_score>
-8.30514948573485

> <r_i_glide_ligand_efficiency>
-0.276838316191162

> <r_i_glide_ligand_efficiency_sa>
-0.860201013987472

> <r_i_glide_ligand_efficiency_ln>
-1.88702045501043

> <r_i_glide_gscore>
-8.30514948573485

> <r_i_glide_lipo>
-3.72856721303204

> <r_i_glide_hbond>
-0.32

> <r_i_glide_metal>
0

> <r_i_glide_rewards>
-1.6573809309267

> <r_i_glide_evdw>
-38.083625793457

> <r_i_glide_ecoul>
-8.56591796875

> <r_i_glide_erotb>
0.589867643209242

> <r_i_glide_esite>
0

> <r_i_glide_emodel>
-60.7213709543349

> <r_i_glide_energy>
-46.649543762207

> <r_i_glide_einternal>
13.841233253479

> <i_i_glide_confnum>
35

> <i_i_glide_posenum>
67

> <r_i_glide_eff_state_penalty>
0

> <s_user_duplicate_titles>
CHEMBL3880_lig357

> <i_f3d_flags>
0

> <s_m_subgroup_title>
dock_pv

> <s_m_subgroupid>
dock_pv

> <b_m_subgroup_collapsed>
1

$$$$
CHEMBL3880_lig191
                    3D
 Schrodinger Suite 2021-1.
 65 68  0  0  1  0            999 V2000
    4.4609   16.4560   26.1960 C   0  0  0  0  0  0
    5.3232   15.2595   25.8388 C   0  0  0  0  0  0
    6.2192   14.9392   27.0351 C   0  0  0  0  0  0
    0.7042   11.6786   24.6969 C   0  0  0  0  0  0
    1.9415   12.1150   24.2325 C   0  0  0  0  0  0
    3.1005   11.4604   24.6447 C   0  0  0  0  0  0
    3.0105   10.3692   25.5040 C   0  0  0  0  0  0
    1.7780    9.8879   25.9367 C   0  0  0  0  0  0
    0.5959   10.5753   25.5658 C   0  0  0  0  0  0
   -0.7559   10.2281   26.1325 C   0  0  0  0  0  0
   -1.8008   10.4062   25.3220 N   0  0  0  0  0  0
   -0.9072    9.8420   27.2880 O   0  0  0  0  0  0
    1.8674    8.7423   26.7459 N   0  0  0  0  0  0
    1.4109    7.4558   26.2044 C   0  0  0  0  0  0
    4.3630   11.8854   24.1975 N   0  0  0  0  0  0
    6.4480   11.9069   23.3858 C   0  0  0  0  0  0
    5.3339   11.0974   23.5963 C   0  0  0  0  0  0
    6.2060   13.1700   23.9671 C   0  0  0  0  0  0
    4.9004   13.1423   24.4214 C   0  0  0  0  0  0
    4.2786   14.2000   25.3232 C   0  0  0  0  0  0
    6.3574   15.5791   24.7670 C   0  0  0  0  0  0
    7.0825   14.3410   24.1874 C   0  0  0  0  0  0
    8.2906   14.3681   23.9678 O   0  0  0  0  0  0
    7.6612   11.4632   22.6406 C   0  0  0  0  0  0
    5.2369    9.5728   23.3878 C   0  0  0  0  0  0
    1.8491    7.0597   24.7541 C   0  0  2  0  0  0
    3.2619    7.3880   24.4830 N   0  0  2  0  0  0
    3.7081    7.4763   23.0845 C   0  0  1  0  0  0
    3.9946    8.9603   22.6891 C   0  0  0  0  0  0
    0.8608    7.6179   23.7262 C   0  0  0  0  0  0
    4.9173    6.5445   22.9188 C   0  0  0  0  0  0
    5.0253   17.1690   26.7668 H   0  0  0  0  0  0
    4.0707   16.9626   25.3247 H   0  0  0  0  0  0
    3.6304   16.1742   26.8407 H   0  0  0  0  0  0
    6.5728   15.8299   27.5550 H   0  0  0  0  0  0
    5.6612   14.3690   27.7411 H   0  0  0  0  0  0
    7.1189   14.3687   26.8117 H   0  0  0  0  0  0
   -0.1705   12.2374   24.3935 H   0  0  0  0  0  0
    1.9953   12.9680   23.5711 H   0  0  0  0  0  0
    3.9148    9.8753   25.8253 H   0  0  0  0  0  0
   -2.7344   10.2470   25.6695 H   0  0  0  0  0  0
   -1.6672   10.6347   24.3503 H   0  0  0  0  0  0
    2.8138    8.6520   27.0826 H   0  0  0  0  0  0
    1.7622    6.6876   26.8935 H   0  0  0  0  0  0
    0.3221    7.4294   26.2665 H   0  0  0  0  0  0
    3.5494   14.6966   24.6788 H   0  0  0  0  0  0
    3.7081   13.7694   26.1464 H   0  0  0  0  0  0
    5.8582   16.1050   23.9670 H   0  0  0  0  0  0
    7.1161   16.2698   25.1305 H   0  0  0  0  0  0
    8.4555   11.1238   23.3056 H   0  0  0  0  0  0
    7.4628   10.6858   21.9030 H   0  0  0  0  0  0
    8.0603   12.2934   22.0683 H   0  0  0  0  0  0
    5.3361    9.1073   24.3637 H   0  0  0  0  0  0
    6.1139    9.2024   22.8588 H   0  0  0  0  0  0
    1.7685    5.9738   24.6780 H   0  0  0  0  0  0
    3.8527    6.7229   24.9609 H   0  0  0  0  0  0
    2.9599    7.0789   22.4008 H   0  0  0  0  0  0
    4.1212    9.0250   21.6080 H   0  0  0  0  0  0
    3.0999    9.5456   22.8860 H   0  0  0  0  0  0
   -0.1658    7.4702   24.0599 H   0  0  0  0  0  0
    1.0060    8.6835   23.5671 H   0  0  0  0  0  0
    0.9321    7.1122   22.7671 H   0  0  0  0  0  0
    5.2606    6.5536   21.8846 H   0  0  0  0  0  0
    5.7588    6.8318   23.5500 H   0  0  0  0  0  0
    4.6590    5.5125   23.1608 H   0  0  0  0  0  0
  1  2  1  0  0  0
  1 32  1  0  0  0
  1 33  1  0  0  0
  1 34  1  0  0  0
  2  3  1  0  0  0
  2 20  1  0  0  0
  2 21  1  0  0  0
  3 35  1  0  0  0
  3 36  1  0  0  0
  3 37  1  0  0  0
  4  9  1  0  0  0
  4  5  2  0  0  0
  4 38  1  0  0  0
  5  6  1  0  0  0
  5 39  1  0  0  0
  6 15  1  0  0  0
  6  7  2  0  0  0
  7  8  1  0  0  0
  7 40  1  0  0  0
  8  9  2  0  0  0
  8 13  1  0  0  0
  9 10  1  0  0  0
 10 11  1  0  0  0
 10 12  2  0  0  0
 11 41  1  0  0  0
 11 42  1  0  0  0
 13 14  1  0  0  0
 13 43  1  0  0  0
 14 26  1  0  0  0
 14 44  1  0  0  0
 14 45  1  0  0  0
 15 17  1  0  0  0
 15 19  1  0  0  0
 16 18  1  0  0  0
 16 17  2  0  0  0
 16 24  1  0  0  0
 17 25  1  0  0  0
 18 19  2  0  0  0
 18 22  1  0  0  0
 19 20  1  0  0  0
 20 46  1  0  0  0
 20 47  1  0  0  0
 21 22  1  0  0  0
 21 48  1  0  0  0
 21 49  1  0  0  0
 22 23  2  0  0  0
 24 50  1  0  0  0
 24 51  1  0  0  0
 24 52  1  0  0  0
 25 29  1  0  0  0
 25 53  1  0  0  0
 25 54  1  0  0  0
 26 27  1  0  0  0
 26 30  1  0  0  0
 26 55  1  0  0  0
 27 28  1  0  0  0
 27 56  1  0  0  0
 28 29  1  0  0  0
 28 31  1  0  0  0
 28 57  1  0  0  0
 29 58  1  0  0  0
 29 59  1  0  0  0
 30 60  1  0  0  0
 30 61  1  0  0  0
 30 62  1  0  0  0
 31 63  1  0  0  0
 31 64  1  0  0  0
 31 65  1  0  0  0
M  END
> <s_m_entry_id>
4862

> <s_m_entry_name>
dock_pv.181

> <s_m_Source_Path>
/home/csk/Desktop/cluster/DUD-E-result/hs90a

> <s_m_Source_File>
dock_pv.maegz

> <i_m_Source_File_Index>
181

> <chembl_id>
CHEMBL1760611

> <chembl_pref_name>
None

> <i_lp_mmshare_version>
53161

> <r_lp_tautomer_probability>
0.99995

> <s_lp_Force_Field>
OPLS_2005

> <r_lp_Energy>
43.650159

> <b_lp_Chiralities_Consistent>
1

> <s_lp_Variant>
CHEMBL3880_lig191-1

> <s_i_glide_gridfile>
glide-grid_1uyg

> <i_i_glide_lignum>
225

> <i_i_glide_rotatable_bonds>
1

> <r_i_docking_score>
-8.30037524234863

> <r_i_glide_ligand_efficiency>
-0.267754040075762

> <r_i_glide_ligand_efficiency_sa>
-0.841117360130834

> <r_i_glide_ligand_efficiency_ln>
-1.8719889931014

> <r_i_glide_gscore>
-8.30037524234863

> <r_i_glide_lipo>
-4.16633917671377

> <r_i_glide_hbond>
-0.035251283580497

> <r_i_glide_metal>
0

> <r_i_glide_rewards>
-2.34699397242302

> <r_i_glide_evdw>
-25.7707824707031

> <r_i_glide_ecoul>
-3.08834457397461

> <r_i_glide_erotb>
0

> <r_i_glide_esite>
0

> <r_i_glide_emodel>
-56.394564518315

> <r_i_glide_energy>
-28.8591270446777

> <r_i_glide_einternal>
0.038478322327137

> <i_i_glide_confnum>
3

> <i_i_glide_posenum>
383

> <r_i_glide_eff_state_penalty>
0

> <s_user_duplicate_titles>
CHEMBL3880_lig191

> <i_f3d_flags>
0

> <s_m_subgroup_title>
dock_pv

> <s_m_subgroupid>
dock_pv

> <b_m_subgroup_collapsed>
1

$$$$
CHEMBL3880_lig93
                    3D
 Schrodinger Suite 2021-1.
 47 49  0  0  1  0            999 V2000
    0.5120    6.2097   26.8598 S   0  0  0  0  0  0
    0.4537   11.4979   25.1677 O   0  0  0  0  0  0
   -1.6740   10.3687   27.5660 O   0  0  0  0  0  0
    2.5942   12.0962   23.5634 O   0  0  0  0  0  0
    0.3185    9.3438   27.0908 N   0  0  0  0  0  0
   -0.6948   10.8734   25.5392 C   0  0  0  0  0  0
   -0.7318   10.1675   26.7950 C   0  0  0  0  0  0
    0.2274   12.1399   23.9946 C   0  0  0  0  0  0
   -1.6985   11.2014   24.6385 C   0  0  0  0  0  0
   -1.1026   11.9683   23.6324 C   0  0  0  0  0  0
    1.4056   12.8827   23.4096 C   0  0  0  0  0  0
    0.3365    8.5938   28.3570 C   0  0  0  0  0  0
    1.2573    8.7899   26.0927 C   0  0  0  0  0  0
    3.7981   12.6824   23.9109 C   0  0  0  0  0  0
   -0.3402    7.2294   28.1072 C   0  0  0  0  0  0
    0.6411    7.4798   25.5568 C   0  0  0  0  0  0
    3.9326   13.9259   24.5478 C   0  0  0  0  0  0
    4.9493   11.9685   23.5677 C   0  0  0  0  0  0
    6.3392   13.7740   24.3673 C   0  0  0  0  0  0
    5.1955   14.4682   24.7676 C   0  0  0  0  0  0
    6.2157   12.5109   23.7822 C   0  0  0  0  0  0
    7.7114   14.4050   24.5671 C   0  0  0  0  0  0
    8.1095   14.5470   26.0492 C   0  0  0  0  0  0
    9.5042   15.1601   26.2410 C   0  0  0  0  0  0
   -2.7394   10.9116   24.6979 H   0  0  0  0  0  0
   -1.5976   12.3757   22.7624 H   0  0  0  0  0  0
    1.4450   13.8930   23.8072 H   0  0  0  0  0  0
    1.2631   13.0184   22.3376 H   0  0  0  0  0  0
    1.3702    8.4673   28.6819 H   0  0  0  0  0  0
   -0.1117    9.1702   29.1668 H   0  0  0  0  0  0
    1.5206    9.5009   25.3128 H   0  0  0  0  0  0
    2.2200    8.6070   26.5719 H   0  0  0  0  0  0
   -1.3779    7.3469   27.7991 H   0  0  0  0  0  0
   -0.3384    6.6505   29.0298 H   0  0  0  0  0  0
   -0.3404    7.6352   25.1053 H   0  0  0  0  0  0
    1.2842    7.0603   24.7836 H   0  0  0  0  0  0
    3.0820   14.4991   24.8755 H   0  0  0  0  0  0
    4.8555   11.0017   23.0958 H   0  0  0  0  0  0
    5.2832   15.4391   25.2337 H   0  0  0  0  0  0
    7.0930   11.9561   23.4815 H   0  0  0  0  0  0
    7.7086   15.3840   24.0855 H   0  0  0  0  0  0
    8.4601   13.8185   24.0351 H   0  0  0  0  0  0
    8.0815   13.5692   26.5296 H   0  0  0  0  0  0
    7.3777   15.1631   26.5744 H   0  0  0  0  0  0
    9.7502   15.2413   27.3005 H   0  0  0  0  0  0
    9.5619   16.1607   25.8122 H   0  0  0  0  0  0
   10.2753   14.5486   25.7715 H   0  0  0  0  0  0
  1 15  1  0  0  0
  1 16  1  0  0  0
  2  6  1  0  0  0
  2  8  1  0  0  0
  3  7  2  0  0  0
  4 11  1  0  0  0
  4 14  1  0  0  0
  5  7  1  0  0  0
  5 12  1  0  0  0
  5 13  1  0  0  0
  6  7  1  0  0  0
  6  9  2  0  0  0
  8 10  2  0  0  0
  8 11  1  0  0  0
  9 10  1  0  0  0
  9 25  1  0  0  0
 10 26  1  0  0  0
 11 27  1  0  0  0
 11 28  1  0  0  0
 12 15  1  0  0  0
 12 29  1  0  0  0
 12 30  1  0  0  0
 13 16  1  0  0  0
 13 31  1  0  0  0
 13 32  1  0  0  0
 14 17  2  0  0  0
 14 18  1  0  0  0
 15 33  1  0  0  0
 15 34  1  0  0  0
 16 35  1  0  0  0
 16 36  1  0  0  0
 17 20  1  0  0  0
 17 37  1  0  0  0
 18 21  2  0  0  0
 18 38  1  0  0  0
 19 20  2  0  0  0
 19 21  1  0  0  0
 19 22  1  0  0  0
 20 39  1  0  0  0
 21 40  1  0  0  0
 22 23  1  0  0  0
 22 41  1  0  0  0
 22 42  1  0  0  0
 23 24  1  0  0  0
 23 43  1  0  0  0
 23 44  1  0  0  0
 24 45  1  0  0  0
 24 46  1  0  0  0
 24 47  1  0  0  0
M  END
> <s_m_entry_id>
4863

> <s_m_entry_name>
dock_pv.182

> <s_m_Source_Path>
/home/csk/Desktop/cluster/DUD-E-result/hs90a

> <s_m_Source_File>
dock_pv.maegz

> <i_m_Source_File_Index>
182

> <chembl_id>
CHEMBL1451365

> <chembl_pref_name>
None

> <i_lp_mmshare_version>
53161

> <r_lp_tautomer_probability>
1

> <s_lp_Force_Field>
OPLS_2005

> <r_lp_Energy>
28.819081

> <b_lp_Chiralities_Consistent>
1

> <s_lp_Variant>
CHEMBL3880_lig93-1

> <s_i_glide_gridfile>
glide-grid_1uyg

> <i_i_glide_lignum>
104

> <i_i_glide_rotatable_bonds>
7

> <r_i_docking_score>
-8.29871904366804

> <r_i_glide_ligand_efficiency>
-0.345779960152835

> <r_i_glide_ligand_efficiency_sa>
-0.997401996846079

> <r_i_glide_ligand_efficiency_ln>
-1.98626427055319

> <r_i_glide_gscore>
-8.29871904366804

> <r_i_glide_lipo>
-4.423748034941

> <r_i_glide_hbond>
0

> <r_i_glide_metal>
0

> <r_i_glide_rewards>
-2.38606492213582

> <r_i_glide_evdw>
-44.0901870727539

> <r_i_glide_ecoul>
-1.59765815734863

> <r_i_glide_erotb>
0.955251990648774

> <r_i_glide_esite>
0

> <r_i_glide_emodel>
-65.323270666565

> <r_i_glide_energy>
-45.6878452301025

> <r_i_glide_einternal>
5.52352571487427

> <i_i_glide_confnum>
34

> <i_i_glide_posenum>
256

> <r_i_glide_eff_state_penalty>
0

> <s_user_duplicate_titles>
CHEMBL3880_lig93

> <i_f3d_flags>
0

> <s_m_subgroup_title>
dock_pv

> <s_m_subgroupid>
dock_pv

> <b_m_subgroup_collapsed>
1

$$$$
CHEMBL3880_lig762
                    3D
 Schrodinger Suite 2021-1.
 35 38  0  0  1  0            999 V2000
    0.0909    9.1682   27.7761 N   0  0  0  0  0  0
    1.2513    9.0273   27.0958 C   0  0  0  0  0  0
    1.5717    9.5614   25.8927 N   0  0  0  0  0  0
   -0.8705    9.9284   27.1961 C   0  0  0  0  0  0
   -0.6827   10.4972   25.9310 C   0  0  0  0  0  0
    0.5837   10.2865   25.3441 C   0  0  0  0  0  0
    0.6035   10.9580   24.1288 N   0  0  0  0  0  0
   -0.6434   11.5692   23.9187 C   0  0  0  0  0  0
   -1.4505   11.2680   25.0153 C   0  0  0  0  0  0
   -2.3410   10.2191   28.0362 Cl  0  0  0  0  0  0
    2.2349    8.2730   27.7078 N   0  0  0  0  0  0
    1.7917   10.9704   23.2587 C   0  0  0  0  0  0
    2.9199   11.8897   23.7124 C   0  0  0  0  0  0
    4.2560   11.4663   23.5670 C   0  0  0  0  0  0
    5.3224   12.3112   23.9008 C   0  0  0  0  0  0
    2.6435   13.1637   24.2378 C   0  0  0  0  0  0
    3.7216   13.9692   24.5856 C   0  0  0  0  0  0
    5.0127   13.5690   24.4031 C   0  0  0  0  0  0
    5.8568   14.5319   24.8586 O   0  0  0  0  0  0
    5.0451   15.6345   25.1641 C   0  0  0  0  0  0
    3.7129   15.1930   25.1683 O   0  0  0  0  0  0
   -1.0149   12.3891   22.7746 C   0  0  0  0  0  0
   -0.2213   12.7678   21.9142 O   0  0  0  0  0  0
   -2.3381   12.7386   22.7672 O   0  0  0  0  0  0
   -2.4764   11.5689   25.1627 H   0  0  0  0  0  0
    3.1479    8.2780   27.2832 H   0  0  0  0  0  0
    2.0998    8.0186   28.6738 H   0  0  0  0  0  0
    2.1566    9.9423   23.2108 H   0  0  0  0  0  0
    1.5263   11.2125   22.2356 H   0  0  0  0  0  0
    4.4730   10.4847   23.1707 H   0  0  0  0  0  0
    6.3453   11.9863   23.7805 H   0  0  0  0  0  0
    1.6275   13.5067   24.3678 H   0  0  0  0  0  0
    5.3132   16.0489   26.1372 H   0  0  0  0  0  0
    5.1705   16.3958   24.3922 H   0  0  0  0  0  0
   -2.8853   12.3686   23.4667 H   0  0  0  0  0  0
  1  2  2  0  0  0
  1  4  1  0  0  0
  2  3  1  0  0  0
  2 11  1  0  0  0
  3  6  2  0  0  0
  4  5  2  0  0  0
  4 10  1  0  0  0
  5  6  1  0  0  0
  5  9  1  0  0  0
  6  7  1  0  0  0
  7  8  1  0  0  0
  7 12  1  0  0  0
  8  9  2  0  0  0
  8 22  1  0  0  0
  9 25  1  0  0  0
 11 26  1  0  0  0
 11 27  1  0  0  0
 12 13  1  0  0  0
 12 28  1  0  0  0
 12 29  1  0  0  0
 13 14  2  0  0  0
 13 16  1  0  0  0
 14 15  1  0  0  0
 14 30  1  0  0  0
 15 18  2  0  0  0
 15 31  1  0  0  0
 16 17  2  0  0  0
 16 32  1  0  0  0
 17 18  1  0  0  0
 17 21  1  0  0  0
 18 19  1  0  0  0
 19 20  1  0  0  0
 20 21  1  0  0  0
 20 33  1  0  0  0
 20 34  1  0  0  0
 22 23  2  0  0  0
 22 24  1  0  0  0
 24 35  1  0  0  0
M  END
> <s_m_entry_id>
4864

> <s_m_entry_name>
dock_pv.183

> <s_m_Source_Path>
/home/csk/Desktop/cluster/DUD-E-result/hs90a

> <s_m_Source_File>
dock_pv.maegz

> <i_m_Source_File_Index>
183

> <chembl_id>
CHEMBL4079410

> <chembl_pref_name>
None

> <i_lp_mmshare_version>
53161

> <r_lp_tautomer_probability>
1

> <s_lp_Force_Field>
OPLS_2005

> <r_lp_Energy>
20.918448

> <b_lp_Chiralities_Consistent>
1

> <s_lp_Variant>
CHEMBL3880_lig762-1

> <s_i_glide_gridfile>
glide-grid_1uyg

> <i_i_glide_lignum>
863

> <i_i_glide_rotatable_bonds>
4

> <r_i_docking_score>
-8.29272569312079

> <r_i_glide_ligand_efficiency>
-0.345530237213366

> <r_i_glide_ligand_efficiency_sa>
-0.996681671242552

> <r_i_glide_ligand_efficiency_ln>
-1.9848297867503

> <r_i_glide_gscore>
-8.29272569312079

> <r_i_glide_lipo>
-2.751347860356

> <r_i_glide_hbond>
0

> <r_i_glide_metal>
0

> <r_i_glide_rewards>
-3.46029001047229

> <r_i_glide_evdw>
-43.4630279541016

> <r_i_glide_ecoul>
-2.54976439476013

> <r_i_glide_erotb>
0.474528234626597

> <r_i_glide_esite>
0

> <r_i_glide_emodel>
-69.6142158011014

> <r_i_glide_energy>
-46.0127923488617

> <r_i_glide_einternal>
0.477654635906219

> <i_i_glide_confnum>
1

> <i_i_glide_posenum>
156

> <r_i_glide_eff_state_penalty>
0

> <s_user_duplicate_titles>
CHEMBL3880_lig762

> <i_f3d_flags>
0

> <s_m_subgroup_title>
dock_pv

> <s_m_subgroupid>
dock_pv

> <b_m_subgroup_collapsed>
1

$$$$
CHEMBL3880_lig260
                    3D
 Schrodinger Suite 2021-1.
 44 46  0  0  1  0            999 V2000
   -1.7180   11.0039   25.9547 N   0  0  0  0  0  0
   -1.1723   11.2112   24.7394 C   0  0  0  0  0  0
    0.0252   10.7689   24.2939 N   0  0  0  0  0  0
   -1.0104   10.2590   26.8367 C   0  0  0  0  0  0
    0.2393    9.7041   26.4934 C   0  0  0  0  0  0
    0.6851   10.0060   25.1746 C   0  0  0  0  0  0
    1.8811    9.3385   24.9674 N   0  0  0  0  0  0
    2.2130    8.6893   26.1375 C   0  0  0  0  0  0
    1.2493    8.8832   27.1121 C   0  0  0  0  0  0
   -1.7350    9.9530   28.3667 Cl  0  0  0  0  0  0
   -1.9390   11.9287   23.8391 N   0  0  0  0  0  0
    2.6849    9.3179   23.7443 C   0  0  0  0  0  0
    3.8936   10.2518   23.7579 C   0  0  0  0  0  0
    5.2122    9.7957   23.5650 C   0  0  0  0  0  0
    6.2458   10.7505   23.5609 C   0  0  0  0  0  0
    5.9433   12.1021   23.7755 C   0  0  0  0  0  0
    4.6072   12.4615   23.9664 C   0  0  0  0  0  0
    3.5929   11.5655   23.9468 N   0  0  0  0  0  0
    5.5301    8.3089   23.4189 C   0  0  0  0  0  0
    7.0431   13.1509   23.8501 C   0  0  0  0  0  0
    7.5553   10.3783   23.3777 O   0  0  0  0  0  0
    7.9137   10.1780   22.0169 C   0  0  0  0  0  0
    1.2821    8.3665   28.4711 C   0  0  0  0  0  0
    1.3213    7.9772   29.6283 C   0  0  0  0  0  0
    1.3460    7.5689   31.0413 C   0  0  0  0  0  0
    2.4605    6.7688   31.3824 O   0  0  0  0  0  0
    3.1356    8.1265   26.1875 H   0  0  0  0  0  0
   -2.9285   12.0313   24.0668 H   0  0  0  0  0  0
   -1.6355   11.9373   22.8789 H   0  0  0  0  0  0
    2.9507    8.2811   23.5428 H   0  0  0  0  0  0
    2.0604    9.6111   22.9013 H   0  0  0  0  0  0
    4.3259   13.4909   24.1363 H   0  0  0  0  0  0
    6.5915    8.0941   23.5223 H   0  0  0  0  0  0
    5.0310    7.7382   24.2025 H   0  0  0  0  0  0
    5.1861    7.9346   22.4546 H   0  0  0  0  0  0
    7.6592   13.1246   22.9504 H   0  0  0  0  0  0
    6.6440   14.1607   23.9645 H   0  0  0  0  0  0
    7.6987   12.9365   24.6962 H   0  0  0  0  0  0
    8.9794    9.9658   21.9677 H   0  0  0  0  0  0
    7.3845    9.3357   21.5700 H   0  0  0  0  0  0
    7.7171   11.0672   21.4163 H   0  0  0  0  0  0
    0.4285    7.0172   31.2449 H   0  0  0  0  0  0
    1.3271    8.4657   31.6624 H   0  0  0  0  0  0
    3.2073    7.3593   31.5670 H   0  0  0  0  0  0
  1  2  2  0  0  0
  1  4  1  0  0  0
  2  3  1  0  0  0
  2 11  1  0  0  0
  3  6  2  0  0  0
  4  5  2  0  0  0
  4 10  1  0  0  0
  5  6  1  0  0  0
  5  9  1  0  0  0
  6  7  1  0  0  0
  7  8  1  0  0  0
  7 12  1  0  0  0
  8  9  2  0  0  0
  8 27  1  0  0  0
  9 23  1  0  0  0
 11 28  1  0  0  0
 11 29  1  0  0  0
 12 13  1  0  0  0
 12 30  1  0  0  0
 12 31  1  0  0  0
 13 14  2  0  0  0
 13 18  1  0  0  0
 14 15  1  0  0  0
 14 19  1  0  0  0
 15 16  2  0  0  0
 15 21  1  0  0  0
 16 17  1  0  0  0
 16 20  1  0  0  0
 17 18  2  0  0  0
 17 32  1  0  0  0
 19 33  1  0  0  0
 19 34  1  0  0  0
 19 35  1  0  0  0
 20 36  1  0  0  0
 20 37  1  0  0  0
 20 38  1  0  0  0
 21 22  1  0  0  0
 22 39  1  0  0  0
 22 40  1  0  0  0
 22 41  1  0  0  0
 23 24  3  0  0  0
 24 25  1  0  0  0
 25 26  1  0  0  0
 25 42  1  0  0  0
 25 43  1  0  0  0
 26 44  1  0  0  0
M  END
> <s_m_entry_id>
4865

> <s_m_entry_name>
dock_pv.184

> <s_m_Source_Path>
/home/csk/Desktop/cluster/DUD-E-result/hs90a

> <s_m_Source_File>
dock_pv.maegz

> <i_m_Source_File_Index>
184

> <chembl_id>
CHEMBL2205798

> <chembl_pref_name>
None

> <i_lp_mmshare_version>
53161

> <r_lp_tautomer_probability>
1

> <s_lp_Force_Field>
OPLS_2005

> <r_lp_Energy>
11.279286

> <b_lp_Chiralities_Consistent>
1

> <s_lp_Variant>
CHEMBL3880_lig260-1

> <s_i_glide_gridfile>
glide-grid_1uyg

> <i_i_glide_lignum>
294

> <i_i_glide_rotatable_bonds>
6

> <r_i_docking_score>
-8.2920483577493

> <r_i_glide_ligand_efficiency>
-0.318924936836512

> <r_i_glide_ligand_efficiency_sa>
-0.944813870469137

> <r_i_glide_ligand_efficiency_ln>
-1.94736034838754

> <r_i_glide_gscore>
-8.2920483577493

> <r_i_glide_lipo>
-3.25931177453741

> <r_i_glide_hbond>
-0.315206726802122

> <r_i_glide_metal>
0

> <r_i_glide_rewards>
-1.98310271910249

> <r_i_glide_evdw>
-43.6781806945801

> <r_i_glide_ecoul>
-7.24421358108521

> <r_i_glide_erotb>
0.55861924933195

> <r_i_glide_esite>
-0.0225053147474427

> <r_i_glide_emodel>
-75.7292843473117

> <r_i_glide_energy>
-50.9223942756653

> <r_i_glide_einternal>
2.8821017742157

> <i_i_glide_confnum>
3

> <i_i_glide_posenum>
197

> <r_i_glide_eff_state_penalty>
0

> <s_user_duplicate_titles>
CHEMBL3880_lig260

> <i_f3d_flags>
0

> <s_m_subgroup_title>
dock_pv

> <s_m_subgroupid>
dock_pv

> <b_m_subgroup_collapsed>
1

$$$$
CHEMBL3880_lig316
                    3D
 Schrodinger Suite 2021-1.
 47 50  0  0  1  0            999 V2000
    3.0486    8.5124   23.2937 C   0  0  0  0  0  0
    4.0777    8.5255   22.3571 C   0  0  0  0  0  0
    5.0934    9.4795   22.4240 C   0  0  0  0  0  0
    5.0920   10.4556   23.4453 C   0  0  0  0  0  0
    4.0697   10.4007   24.4092 C   0  0  0  0  0  0
    3.0435    9.4586   24.3221 C   0  0  0  0  0  0
    2.0546    7.5776   23.1677 O   0  0  0  0  0  0
    6.0573    9.4249   21.4467 O   0  0  0  0  0  0
    6.2198   11.4719   23.5670 C   0  0  0  0  0  0
    7.3677   11.0922   23.3225 O   0  0  0  0  0  0
    2.0488    9.4437   25.3143 N   0  0  0  0  0  0
    0.9610    8.9113   27.2231 C   0  0  0  0  0  0
    2.1079    8.7150   26.4813 C   0  0  0  0  0  0
    0.1333    9.8059   26.4737 C   0  0  0  0  0  0
    0.8498   10.1411   25.2822 C   0  0  0  0  0  0
    0.3204   11.0165   24.3245 C   0  0  0  0  0  0
   -0.9695   11.4994   24.5419 C   0  0  0  0  0  0
   -1.6889   11.1688   25.6846 C   0  0  0  0  0  0
   -1.1391   10.3605   26.6775 C   0  0  0  0  0  0
    5.9657   12.7557   23.9670 N   0  0  0  0  0  0
    4.6221   13.3827   23.9751 C   0  0  0  0  0  0
    4.4485   14.1925   25.2748 C   0  0  0  0  0  0
    5.5129   15.1865   25.3923 N   0  0  0  0  0  0
    6.8418   14.5711   25.4080 C   0  0  0  0  0  0
    7.1090   13.6776   24.1724 C   0  0  0  0  0  0
    5.3272   15.9684   26.6040 C   0  0  0  0  0  0
    4.0798    7.7942   21.5606 H   0  0  0  0  0  0
    4.0666   11.0860   25.2466 H   0  0  0  0  0  0
    2.0907    7.1129   22.3271 H   0  0  0  0  0  0
    6.1803    8.5310   21.1106 H   0  0  0  0  0  0
    0.7465    8.4608   28.1816 H   0  0  0  0  0  0
    2.9756    8.1031   26.6826 H   0  0  0  0  0  0
    0.8659   11.2737   23.4290 H   0  0  0  0  0  0
   -1.4304   12.1421   23.8032 H   0  0  0  0  0  0
   -2.6941   11.5496   25.7989 H   0  0  0  0  0  0
   -1.7076   10.1202   27.5647 H   0  0  0  0  0  0
    3.7892   12.7025   23.8177 H   0  0  0  0  0  0
    4.5598   14.1025   23.1670 H   0  0  0  0  0  0
    3.4820   14.6978   25.2559 H   0  0  0  0  0  0
    4.4604   13.5379   26.1461 H   0  0  0  0  0  0
    7.6056   15.3478   25.4689 H   0  0  0  0  0  0
    6.9218   13.9690   26.3112 H   0  0  0  0  0  0
    7.2090   14.3300   23.3067 H   0  0  0  0  0  0
    8.0588   13.1603   24.3238 H   0  0  0  0  0  0
    6.0594   16.7689   26.6344 H   0  0  0  0  0  0
    4.3348   16.4221   26.6455 H   0  0  0  0  0  0
    5.4751   15.3540   27.4913 H   0  0  0  0  0  0
  1  2  2  0  0  0
  1  6  1  0  0  0
  1  7  1  0  0  0
  2  3  1  0  0  0
  2 27  1  0  0  0
  3  4  2  0  0  0
  3  8  1  0  0  0
  4  5  1  0  0  0
  4  9  1  0  0  0
  5  6  2  0  0  0
  5 28  1  0  0  0
  6 11  1  0  0  0
  7 29  1  0  0  0
  8 30  1  0  0  0
  9 10  2  0  0  0
  9 20  1  0  0  0
 11 15  1  0  0  0
 11 13  1  0  0  0
 12 14  1  0  0  0
 12 13  2  0  0  0
 12 31  1  0  0  0
 13 32  1  0  0  0
 14 15  2  0  0  0
 14 19  1  0  0  0
 15 16  1  0  0  0
 16 17  2  0  0  0
 16 33  1  0  0  0
 17 18  1  0  0  0
 17 34  1  0  0  0
 18 19  2  0  0  0
 18 35  1  0  0  0
 19 36  1  0  0  0
 20 21  1  0  0  0
 20 25  1  0  0  0
 21 22  1  0  0  0
 21 37  1  0  0  0
 21 38  1  0  0  0
 22 23  1  0  0  0
 22 39  1  0  0  0
 22 40  1  0  0  0
 23 24  1  0  0  0
 23 26  1  0  0  0
 24 25  1  0  0  0
 24 41  1  0  0  0
 24 42  1  0  0  0
 25 43  1  0  0  0
 25 44  1  0  0  0
 26 45  1  0  0  0
 26 46  1  0  0  0
 26 47  1  0  0  0
M  END
> <s_m_entry_id>
4866

> <s_m_entry_name>
dock_pv.185

> <s_m_Source_Path>
/home/csk/Desktop/cluster/DUD-E-result/hs90a

> <s_m_Source_File>
dock_pv.maegz

> <i_m_Source_File_Index>
185

> <chembl_id>
CHEMBL3260477

> <chembl_pref_name>
None

> <i_lp_mmshare_version>
53161

> <r_lp_tautomer_probability>
1

> <s_lp_Force_Field>
OPLS_2005

> <r_lp_Energy>
52.643352

> <b_lp_Chiralities_Consistent>
1

> <s_lp_Variant>
CHEMBL3880_lig316-1

> <s_i_glide_gridfile>
glide-grid_1uyg

> <i_i_glide_lignum>
353

> <i_i_glide_rotatable_bonds>
5

> <r_i_docking_score>
-8.2811314722161

> <r_i_glide_ligand_efficiency>
-0.318505056623696

> <r_i_glide_ligand_efficiency_sa>
-0.94356997699082

> <r_i_glide_ligand_efficiency_ln>
-1.94479655364129

> <r_i_glide_gscore>
-8.2811314722161

> <r_i_glide_lipo>
-3.8565760507283

> <r_i_glide_hbond>
-0.0246630976733388

> <r_i_glide_metal>
0

> <r_i_glide_rewards>
-2.1103604250279

> <r_i_glide_evdw>
-40.5042724609375

> <r_i_glide_ecoul>
-4.85124254226685

> <r_i_glide_erotb>
0.463368105600331

> <r_i_glide_esite>
0

> <r_i_glide_emodel>
-63.2670234680048

> <r_i_glide_energy>
-45.3555150032043

> <r_i_glide_einternal>
5.36371231079102

> <i_i_glide_confnum>
43

> <i_i_glide_posenum>
229

> <r_i_glide_eff_state_penalty>
0

> <s_user_duplicate_titles>
CHEMBL3880_lig316

> <i_f3d_flags>
0

> <s_m_subgroup_title>
dock_pv

> <s_m_subgroupid>
dock_pv

> <b_m_subgroup_collapsed>
1

$$$$
CHEMBL3880_lig925
                    3D
 Schrodinger Suite 2021-1.
 56 60  0  0  1  0            999 V2000
    0.1141   13.1429   23.5339 N   0  0  0  0  0  0
   -0.5925   11.9980   23.6871 C   0  0  0  0  0  0
   -0.1479   10.8713   24.2963 N   0  0  0  0  0  0
    1.1338   10.8765   24.7677 C   0  0  0  0  0  0
   -1.8959   11.9920   23.2095 N   0  0  0  0  0  0
    1.4923    9.6950   25.6075 C   0  0  0  0  0  0
    0.7304    9.4022   26.7649 C   0  0  0  0  0  0
    1.0460    8.3122   27.5696 C   0  0  0  0  0  0
    2.1100    7.4871   27.2421 C   0  0  0  0  0  0
    2.8640    7.7532   26.1056 C   0  0  0  0  0  0
    2.5764    8.8528   25.2741 C   0  0  0  0  0  0
    3.3123    9.1241   24.1266 O   0  0  0  0  0  0
   -0.6192   10.3709   27.2714 Cl  0  0  0  0  0  0
    4.1946    8.1148   23.6182 C   0  0  0  0  0  0
    4.8875    8.5340   22.3087 C   0  0  0  0  0  0
    5.9436    9.5071   22.5571 N   0  0  0  0  0  0
    2.4915    6.1328   28.2415 Cl  0  0  0  0  0  0
    1.3829   13.1152   24.0091 C   0  0  0  0  0  0
    1.9673   11.9977   24.5856 C   0  0  0  0  0  0
    3.4058   12.3176   24.9520 C   0  0  0  0  0  0
    3.5007   13.7744   24.7468 N   0  0  0  0  0  0
    2.2891   14.3058   24.1199 C   0  0  0  0  0  0
    4.5582   14.5877   25.0203 C   0  0  0  0  0  0
    5.7576   13.9950   25.1662 N   0  0  0  0  0  0
    4.4610   15.8145   25.0647 O   0  0  0  0  0  0
    6.9040   14.6659   25.8087 C   0  0  0  0  0  0
    8.1688   13.8254   25.9682 C   0  0  0  0  0  0
    8.6991   14.4139   24.6580 C   0  0  0  0  0  0
    7.7336   15.5691   24.9008 C   0  0  0  0  0  0
    7.2903    9.2868   22.7113 C   0  0  0  0  0  0
    7.8299   10.5173   23.0291 C   0  0  0  0  0  0
    6.7433   11.3877   23.0425 C   0  0  0  0  0  0
    5.6139   10.7814   22.7690 N   0  0  0  0  0  0
   -2.5075   11.2377   23.4897 H   0  0  0  0  0  0
   -2.2899   12.8575   22.8737 H   0  0  0  0  0  0
    0.4609    8.1096   28.4548 H   0  0  0  0  0  0
    3.6804    7.0830   25.8927 H   0  0  0  0  0  0
    4.9631    7.8638   24.3510 H   0  0  0  0  0  0
    3.6169    7.2085   23.4282 H   0  0  0  0  0  0
    5.3415    7.6673   21.8292 H   0  0  0  0  0  0
    4.1705    8.9472   21.5978 H   0  0  0  0  0  0
    4.1078   11.7954   24.3133 H   0  0  0  0  0  0
    3.6610   12.0462   25.9689 H   0  0  0  0  0  0
    1.8542   15.0795   24.7456 H   0  0  0  0  0  0
    2.4918   14.7692   23.1671 H   0  0  0  0  0  0
    5.7372   12.9921   25.2584 H   0  0  0  0  0  0
    6.4747   15.0820   26.7254 H   0  0  0  0  0  0
    8.0023   12.7690   25.9660 H   0  0  0  0  0  0
    8.7556   14.0906   26.8505 H   0  0  0  0  0  0
    8.4602   13.8284   23.7716 H   0  0  0  0  0  0
    9.7548   14.6873   24.6613 H   0  0  0  0  0  0
    8.2025   16.3689   25.4666 H   0  0  0  0  0  0
    7.2183   15.9773   24.0331 H   0  0  0  0  0  0
    7.7264    8.3091   22.5862 H   0  0  0  0  0  0
    8.8607   10.7678   23.2258 H   0  0  0  0  0  0
    6.7760   12.4474   23.2388 H   0  0  0  0  0  0
  1 18  1  0  0  0
  1  2  2  0  0  0
  2  5  1  0  0  0
  2  3  1  0  0  0
  3  4  2  0  0  0
  4 19  1  0  0  0
  4  6  1  0  0  0
  5 34  1  0  0  0
  5 35  1  0  0  0
  6 11  1  0  0  0
  6  7  2  0  0  0
  7  8  1  0  0  0
  7 13  1  0  0  0
  8  9  2  0  0  0
  8 36  1  0  0  0
  9 17  1  0  0  0
  9 10  1  0  0  0
 10 11  2  0  0  0
 10 37  1  0  0  0
 11 12  1  0  0  0
 12 14  1  0  0  0
 14 15  1  0  0  0
 14 38  1  0  0  0
 14 39  1  0  0  0
 15 16  1  0  0  0
 15 40  1  0  0  0
 15 41  1  0  0  0
 16 30  1  0  0  0
 16 33  1  0  0  0
 18 19  2  0  0  0
 18 22  1  0  0  0
 19 20  1  0  0  0
 20 21  1  0  0  0
 20 42  1  0  0  0
 20 43  1  0  0  0
 21 22  1  0  0  0
 21 23  1  0  0  0
 22 44  1  0  0  0
 22 45  1  0  0  0
 23 24  1  0  0  0
 23 25  2  0  0  0
 24 26  1  0  0  0
 24 46  1  0  0  0
 26 27  1  0  0  0
 26 29  1  0  0  0
 26 47  1  0  0  0
 27 28  1  0  0  0
 27 48  1  0  0  0
 27 49  1  0  0  0
 28 29  1  0  0  0
 28 50  1  0  0  0
 28 51  1  0  0  0
 29 52  1  0  0  0
 29 53  1  0  0  0
 30 31  2  0  0  0
 30 54  1  0  0  0
 31 32  1  0  0  0
 31 55  1  0  0  0
 32 33  2  0  0  0
 32 56  1  0  0  0
M  END
> <s_m_entry_id>
4867

> <s_m_entry_name>
dock_pv.186

> <s_m_Source_Path>
/home/csk/Desktop/cluster/DUD-E-result/hs90a

> <s_m_Source_File>
dock_pv.maegz

> <i_m_Source_File_Index>
186

> <chembl_id>
CHEMBL1774918

> <chembl_pref_name>
None

> <i_lp_mmshare_version>
53161

> <r_lp_tautomer_probability>
0.999999987636

> <s_lp_Force_Field>
OPLS_2005

> <r_lp_Energy>
46.747944

> <b_lp_Chiralities_Consistent>
1

> <s_lp_Variant>
CHEMBL3880_lig925-1

> <s_i_glide_gridfile>
glide-grid_1uyg

> <i_i_glide_lignum>
1031

> <i_i_glide_rotatable_bonds>
8

> <r_i_docking_score>
-8.28106229354608

> <r_i_glide_ligand_efficiency>
-0.250941281622609

> <r_i_glide_ligand_efficiency_sa>
-0.804902774679552

> <r_i_glide_ligand_efficiency_ln>
-1.84166537703882

> <r_i_glide_gscore>
-8.28106229354608

> <r_i_glide_lipo>
-4.00013592703394

> <r_i_glide_hbond>
0

> <r_i_glide_metal>
0

> <r_i_glide_rewards>
-1.9785259797261

> <r_i_glide_evdw>
-47.5044441223145

> <r_i_glide_ecoul>
-3.4935290813446

> <r_i_glide_erotb>
0.596851181531365

> <r_i_glide_esite>
0

> <r_i_glide_emodel>
-71.3188514463317

> <r_i_glide_energy>
-50.9979732036591

> <r_i_glide_einternal>
4.40907144546509

> <i_i_glide_confnum>
4

> <i_i_glide_posenum>
93

> <r_i_glide_eff_state_penalty>
0

> <s_user_duplicate_titles>
CHEMBL3880_lig925

> <i_f3d_flags>
0

> <s_m_subgroup_title>
dock_pv

> <s_m_subgroupid>
dock_pv

> <b_m_subgroup_collapsed>
1

$$$$
CHEMBL3880_lig421
                    3D
 Schrodinger Suite 2021-1.
 51 53  0  0  1  0            999 V2000
   -0.5456   10.2194   26.3492 C   0  0  0  0  0  0
    0.1856    9.1193   26.7990 C   0  0  0  0  0  0
    1.2223    8.6010   26.0249 C   0  0  0  0  0  0
    1.5514    9.2136   24.8129 C   0  0  0  0  0  0
    0.8219   10.3121   24.3711 C   0  0  0  0  0  0
   -0.2482   10.8097   25.1086 C   0  0  0  0  0  0
   -1.0997   11.9191   24.4911 C   0  0  0  0  0  0
   -2.1032   11.3123   23.5051 C   0  0  0  0  0  0
   -0.2752   13.0350   23.8084 C   0  0  0  0  0  0
   -1.5475   10.6912   27.1510 O   0  0  0  0  0  0
    1.9157    7.5097   26.4778 O   0  0  0  0  0  0
    2.6666    8.8060   23.9362 C   0  0  0  0  0  0
    2.7336    7.5098   23.5480 O   0  0  0  0  0  0
    3.8307    7.3691   22.6995 N   0  0  0  0  0  0
    4.3821    8.5620   22.6112 C   0  0  0  0  0  0
    3.6992    9.5205   23.3684 C   0  0  0  0  0  0
    4.0200   10.9300   23.5664 C   0  0  0  0  0  0
    5.6227    8.8156   21.9631 C   0  0  0  0  0  0
    6.6523    8.7102   22.8215 N   0  0  0  0  0  0
    5.6808    9.1696   20.7821 O   0  0  0  0  0  0
    4.3613   12.0693   23.8352 C   0  0  0  0  0  0
    4.8134   13.3406   24.3672 C   0  0  0  0  0  0
    8.0385    9.0400   22.5453 C   0  0  0  0  0  0
    8.2869   10.5426   22.6780 C   0  0  0  0  0  0
    3.9000   14.1659   25.0258 C   0  0  0  0  0  0
    4.3551   15.2796   25.7231 C   0  0  0  0  0  0
    5.7152   15.5630   25.7489 C   0  0  0  0  0  0
    6.6289   14.7686   25.0581 C   0  0  0  0  0  0
    6.1766   13.6509   24.3631 C   0  0  0  0  0  0
   -0.0486    8.6563   27.7464 H   0  0  0  0  0  0
    1.0774   10.7685   23.4266 H   0  0  0  0  0  0
   -1.6844   12.3686   25.2880 H   0  0  0  0  0  0
   -2.7381   10.5899   24.0147 H   0  0  0  0  0  0
   -2.7431   12.0757   23.0644 H   0  0  0  0  0  0
   -1.6012   10.7911   22.6917 H   0  0  0  0  0  0
    0.5233   13.3968   24.4556 H   0  0  0  0  0  0
    0.1783   12.7088   22.8722 H   0  0  0  0  0  0
   -0.9111   13.8863   23.5672 H   0  0  0  0  0  0
   -1.6368   10.1661   27.9488 H   0  0  0  0  0  0
    2.5512    7.1922   25.8311 H   0  0  0  0  0  0
    6.4616    8.3254   23.7351 H   0  0  0  0  0  0
    8.6478    8.5001   23.2726 H   0  0  0  0  0  0
    8.3575    8.6822   21.5675 H   0  0  0  0  0  0
    9.3030   10.7686   22.3805 H   0  0  0  0  0  0
    7.6264   11.1243   22.0334 H   0  0  0  0  0  0
    8.1590   10.8823   23.7063 H   0  0  0  0  0  0
    2.8502   13.9187   25.0462 H   0  0  0  0  0  0
    3.6658   15.9045   26.2689 H   0  0  0  0  0  0
    6.0659   16.4022   26.3268 H   0  0  0  0  0  0
    7.6838   15.0029   25.0878 H   0  0  0  0  0  0
    6.8892   13.0067   23.8681 H   0  0  0  0  0  0
  1  2  2  0  0  0
  1  6  1  0  0  0
  1 10  1  0  0  0
  2  3  1  0  0  0
  2 30  1  0  0  0
  3  4  2  0  0  0
  3 11  1  0  0  0
  4  5  1  0  0  0
  4 12  1  0  0  0
  5  6  2  0  0  0
  5 31  1  0  0  0
  6  7  1  0  0  0
  7  8  1  0  0  0
  7  9  1  0  0  0
  7 32  1  0  0  0
  8 33  1  0  0  0
  8 34  1  0  0  0
  8 35  1  0  0  0
  9 36  1  0  0  0
  9 37  1  0  0  0
  9 38  1  0  0  0
 10 39  1  0  0  0
 11 40  1  0  0  0
 12 13  1  0  0  0
 12 16  2  0  0  0
 13 14  1  0  0  0
 14 15  2  0  0  0
 15 16  1  0  0  0
 15 18  1  0  0  0
 16 17  1  0  0  0
 17 21  3  0  0  0
 18 19  1  0  0  0
 18 20  2  0  0  0
 19 23  1  0  0  0
 19 41  1  0  0  0
 21 22  1  0  0  0
 22 25  2  0  0  0
 22 29  1  0  0  0
 23 24  1  0  0  0
 23 42  1  0  0  0
 23 43  1  0  0  0
 24 44  1  0  0  0
 24 45  1  0  0  0
 24 46  1  0  0  0
 25 26  1  0  0  0
 25 47  1  0  0  0
 26 27  2  0  0  0
 26 48  1  0  0  0
 27 28  1  0  0  0
 27 49  1  0  0  0
 28 29  2  0  0  0
 28 50  1  0  0  0
 29 51  1  0  0  0
M  END
> <s_m_entry_id>
4868

> <s_m_entry_name>
dock_pv.187

> <s_m_Source_Path>
/home/csk/Desktop/cluster/DUD-E-result/hs90a

> <s_m_Source_File>
dock_pv.maegz

> <i_m_Source_File_Index>
187

> <chembl_id>
CHEMBL3600496

> <chembl_pref_name>
None

> <i_lp_mmshare_version>
53161

> <r_lp_tautomer_probability>
0.999999999898

> <s_lp_Force_Field>
OPLS_2005

> <r_lp_Energy>
20.78226

> <b_lp_Chiralities_Consistent>
1

> <s_lp_Variant>
CHEMBL3880_lig421-1

> <s_i_glide_gridfile>
glide-grid_1uyg

> <i_i_glide_lignum>
463

> <i_i_glide_rotatable_bonds>
9

> <r_i_docking_score>
-8.28090681892212

> <r_i_glide_ligand_efficiency>
-0.285548510997315

> <r_i_glide_ligand_efficiency_sa>
-0.877295493901885

> <r_i_glide_ligand_efficiency_ln>
-1.8961176758543

> <r_i_glide_gscore>
-8.28090681892212

> <r_i_glide_lipo>
-4.66575976320952

> <r_i_glide_hbond>
-0.16762371797487

> <r_i_glide_metal>
0

> <r_i_glide_rewards>
-1.42267769430596

> <r_i_glide_evdw>
-45.1914482116699

> <r_i_glide_ecoul>
-2.7001748085022

> <r_i_glide_erotb>
0.639752988427052

> <r_i_glide_esite>
0

> <r_i_glide_emodel>
-55.1628042062191

> <r_i_glide_energy>
-47.8916230201721

> <r_i_glide_einternal>
9.04776096343994

> <i_i_glide_confnum>
5

> <i_i_glide_posenum>
121

> <r_i_glide_eff_state_penalty>
0

> <s_user_duplicate_titles>
CHEMBL3880_lig421

> <i_f3d_flags>
0

> <s_m_subgroup_title>
dock_pv

> <s_m_subgroupid>
dock_pv

> <b_m_subgroup_collapsed>
1

$$$$
CHEMBL3880_lig939
                    3D
 Schrodinger Suite 2021-1.
 44 47  0  0  1  0            999 V2000
    4.7210    7.1206   22.3302 C   0  0  0  0  0  0
    5.1996    8.5902   22.2961 C   0  0  0  0  0  0
    5.2249    9.1692   20.8608 C   0  0  0  0  0  0
    5.7347   15.0028   25.0115 N   0  0  0  0  0  0
    0.6479   10.7189   24.9070 C   0  0  0  0  0  0
    2.0289   10.7904   24.8451 C   0  0  0  0  0  0
    2.6404   11.8262   24.1367 C   0  0  0  0  0  0
    1.8751   12.8420   23.5675 C   0  0  0  0  0  0
    0.4903   12.7719   23.6314 C   0  0  0  0  0  0
   -0.1339   11.6940   24.2807 C   0  0  0  0  0  0
   -1.6304   11.5692   24.3452 C   0  0  0  0  0  0
   -2.1767   10.7709   25.1036 O   0  0  0  0  0  0
   -2.3389   12.3848   23.5671 N   0  0  0  0  0  0
    4.0377   11.8317   23.9910 N   0  0  0  0  0  0
    6.2268   12.4383   23.9669 C   0  0  0  0  0  0
    4.8968   12.8887   24.2527 C   0  0  0  0  0  0
    4.6880   14.1770   24.7652 C   0  0  0  0  0  0
    6.9908   14.5814   24.7336 C   0  0  0  0  0  0
    7.2905   13.3270   24.2001 C   0  0  0  0  0  0
    4.7844   10.7431   23.5800 C   0  0  0  0  0  0
    6.1275   11.0720   23.5359 C   0  0  0  0  0  0
    7.1538   10.1102   23.1457 C   0  0  0  0  0  0
    6.6223    8.6774   22.9355 C   0  0  0  0  0  0
    4.1940    9.3958   23.1608 C   0  0  0  0  0  0
    8.3357   10.4022   22.9948 O   0  0  0  0  0  0
    5.2610    6.4950   21.6225 H   0  0  0  0  0  0
    4.8339    6.6738   23.3189 H   0  0  0  0  0  0
    3.6671    7.0427   22.0578 H   0  0  0  0  0  0
    5.9772    8.6879   20.2373 H   0  0  0  0  0  0
    4.2605    9.0406   20.3667 H   0  0  0  0  0  0
    5.4551   10.2317   20.8561 H   0  0  0  0  0  0
    0.1936    9.8937   25.4395 H   0  0  0  0  0  0
    2.6127   10.0305   25.3432 H   0  0  0  0  0  0
    2.3447   13.6651   23.0528 H   0  0  0  0  0  0
   -0.0787   13.5650   23.1693 H   0  0  0  0  0  0
   -3.3553   12.3690   23.7016 H   0  0  0  0  0  0
   -1.9230   12.9390   22.8381 H   0  0  0  0  0  0
    3.7061   14.5463   25.0208 H   0  0  0  0  0  0
    7.7784   15.2879   24.9506 H   0  0  0  0  0  0
    8.3086   13.0231   24.0098 H   0  0  0  0  0  0
    6.6047    8.2242   23.9265 H   0  0  0  0  0  0
    7.3610    8.1131   22.3667 H   0  0  0  0  0  0
    4.0185    8.8458   24.0859 H   0  0  0  0  0  0
    3.2309    9.4914   22.6561 H   0  0  0  0  0  0
  1  2  1  0  0  0
  1 26  1  0  0  0
  1 27  1  0  0  0
  1 28  1  0  0  0
  2  3  1  0  0  0
  2 23  1  0  0  0
  2 24  1  0  0  0
  3 29  1  0  0  0
  3 30  1  0  0  0
  3 31  1  0  0  0
  4 17  2  0  0  0
  4 18  1  0  0  0
  5  6  2  0  0  0
  5 10  1  0  0  0
  5 32  1  0  0  0
  6  7  1  0  0  0
  6 33  1  0  0  0
  7  8  2  0  0  0
  7 14  1  0  0  0
  8  9  1  0  0  0
  8 34  1  0  0  0
  9 10  2  0  0  0
  9 35  1  0  0  0
 10 11  1  0  0  0
 11 12  2  0  0  0
 11 13  1  0  0  0
 13 36  1  0  0  0
 13 37  1  0  0  0
 14 16  1  0  0  0
 14 20  1  0  0  0
 15 21  1  0  0  0
 15 16  2  0  0  0
 15 19  1  0  0  0
 16 17  1  0  0  0
 17 38  1  0  0  0
 18 19  2  0  0  0
 18 39  1  0  0  0
 19 40  1  0  0  0
 20 21  2  0  0  0
 20 24  1  0  0  0
 21 22  1  0  0  0
 22 23  1  0  0  0
 22 25  2  0  0  0
 23 41  1  0  0  0
 23 42  1  0  0  0
 24 43  1  0  0  0
 24 44  1  0  0  0
M  END
> <s_m_entry_id>
4869

> <s_m_entry_name>
dock_pv.188

> <s_m_Source_Path>
/home/csk/Desktop/cluster/DUD-E-result/hs90a

> <s_m_Source_File>
dock_pv.maegz

> <i_m_Source_File_Index>
188

> <chembl_id>
CHEMBL3235327

> <chembl_pref_name>
None

> <i_lp_mmshare_version>
53161

> <r_lp_tautomer_probability>
0.99995

> <s_lp_Force_Field>
OPLS_2005

> <r_lp_Energy>
18.660522

> <b_lp_Chiralities_Consistent>
1

> <s_lp_Variant>
CHEMBL3880_lig939-1

> <s_i_glide_gridfile>
glide-grid_1uyg

> <i_i_glide_lignum>
1045

> <i_i_glide_rotatable_bonds>
2

> <r_i_docking_score>
-8.28003275475245

> <r_i_glide_ligand_efficiency>
-0.331201310190098

> <r_i_glide_ligand_efficiency_sa>
-0.968438504876093

> <r_i_glide_ligand_efficiency_ln>
-1.96261589543492

> <r_i_glide_gscore>
-8.28003275475245

> <r_i_glide_lipo>
-3.46773723571113

> <r_i_glide_hbond>
-0.16

> <r_i_glide_metal>
0

> <r_i_glide_rewards>
-2.34215459110973

> <r_i_glide_evdw>
-41.002140045166

> <r_i_glide_ecoul>
-2.4311146736145

> <r_i_glide_erotb>
0.169569996351132

> <r_i_glide_esite>
-0.064936720982238

> <r_i_glide_emodel>
-62.2133181101357

> <r_i_glide_energy>
-43.4332547187805

> <r_i_glide_einternal>
0.730845272541046

> <i_i_glide_confnum>
2

> <i_i_glide_posenum>
88

> <r_i_glide_eff_state_penalty>
0

> <s_user_duplicate_titles>
CHEMBL3880_lig939

> <i_f3d_flags>
0

> <s_m_subgroup_title>
dock_pv

> <s_m_subgroupid>
dock_pv

> <b_m_subgroup_collapsed>
1

$$$$
CHEMBL3880_lig239
                    3D
 Schrodinger Suite 2021-1.
 77 80  0  0  1  0            999 V2000
    0.4975   12.3560   22.4220 C   0  0  0  0  0  0
    1.8826   12.2714   22.4119 C   0  0  0  0  0  0
   -0.2240   11.9912   23.5721 C   0  0  0  0  0  0
    0.4829   11.6211   24.7400 C   0  0  0  0  0  0
    0.5298    9.9107   26.5245 C   0  0  2  0  0  0
   -0.1488   11.0267   25.8512 N   0  0  0  0  0  0
    1.0318    8.7947   25.5228 C   0  0  1  0  0  0
    4.1438    8.3388   24.2368 C   0  0  0  0  0  0
    3.5050    8.6775   25.6102 C   0  0  0  0  0  0
    2.2204    8.0200   25.9473 N   0  0  0  0  0  0
    1.8706   11.7616   24.7566 C   0  0  0  0  0  0
    2.5674   12.0105   23.5927 C   0  0  0  0  0  0
    4.0373    9.4184   23.1232 C   0  0  0  0  0  0
    4.7096   10.7667   23.4453 C   0  0  0  0  0  0
    3.9617   11.9173   23.6270 N   0  0  0  0  0  0
    6.0643   11.1082   23.6099 C   0  0  0  0  0  0
    7.2510   10.1868   23.4097 C   0  0  0  0  0  0
    6.1028   12.4775   23.9668 C   0  0  0  0  0  0
    4.7978   12.9522   23.9672 C   0  0  0  0  0  0
    4.3221   14.3262   24.4431 C   0  0  0  0  0  0
    5.4591   15.1111   25.1665 C   0  0  0  0  0  0
    6.8715   14.8061   24.5686 C   0  0  0  0  0  0
    7.2205   13.3166   24.4184 C   0  0  0  0  0  0
    8.3146   12.8778   24.7656 O   0  0  0  0  0  0
    5.1972   16.6113   24.9802 C   0  0  0  0  0  0
    5.4092   14.7936   26.6697 C   0  0  0  0  0  0
   -0.0727    8.0189   24.7811 C   0  0  0  0  0  0
   -0.3149    9.4154   27.7112 C   0  0  0  0  0  0
   -1.7215   11.9024   23.4981 C   0  0  0  0  0  0
   -2.3387   11.0266   24.0950 O   0  0  0  0  0  0
   -2.3392   12.8290   22.7676 N   0  0  0  0  0  0
    2.2382    6.8252   26.6110 C   0  0  0  0  0  0
    0.9564    6.2113   27.2014 C   0  0  0  0  0  0
    3.2845    6.1951   26.7821 O   0  0  0  0  0  0
    1.1493    5.5149   28.5717 C   0  0  0  0  0  0
    1.0624    6.3907   29.6909 O   0  0  0  0  0  0
    2.2071    7.1995   29.9400 C   0  0  0  0  0  0
   -0.0104   12.5805   21.4952 H   0  0  0  0  0  0
    2.4284   12.3678   21.4917 H   0  0  0  0  0  0
    1.4129   10.3489   26.9836 H   0  0  0  0  0  0
   -1.1398   10.8656   25.6875 H   0  0  0  0  0  0
    1.4410    9.3319   24.6705 H   0  0  0  0  0  0
    5.2011    8.1227   24.3905 H   0  0  0  0  0  0
    3.7196    7.4037   23.8647 H   0  0  0  0  0  0
    3.4645    9.7524   25.7690 H   0  0  0  0  0  0
    4.1983    8.3271   26.3649 H   0  0  0  0  0  0
    2.4381   11.5545   25.6425 H   0  0  0  0  0  0
    2.9844    9.5298   22.8539 H   0  0  0  0  0  0
    4.4970    9.0117   22.2190 H   0  0  0  0  0  0
    8.0734   10.7066   22.9118 H   0  0  0  0  0  0
    7.6467    9.8295   24.3605 H   0  0  0  0  0  0
    7.0106    9.3274   22.7847 H   0  0  0  0  0  0
    3.4237   14.2634   25.0612 H   0  0  0  0  0  0
    4.0186   14.8775   23.5670 H   0  0  0  0  0  0
    7.6550   15.2771   25.1631 H   0  0  0  0  0  0
    6.9737   15.2190   23.5684 H   0  0  0  0  0  0
    5.9987   17.1688   25.4208 H   0  0  0  0  0  0
    5.2054   16.9601   23.9669 H   0  0  0  0  0  0
    4.2742   16.9333   25.4594 H   0  0  0  0  0  0
    6.3908   14.7690   27.1443 H   0  0  0  0  0  0
    4.8417   15.5725   27.1701 H   0  0  0  0  0  0
    4.8619   13.8903   26.8967 H   0  0  0  0  0  0
   -0.7425    8.7666   24.3670 H   0  0  0  0  0  0
    0.3235    7.4579   23.9341 H   0  0  0  0  0  0
   -0.7010    7.3739   25.3915 H   0  0  0  0  0  0
    0.2905    8.8452   28.4124 H   0  0  0  0  0  0
   -0.7492   10.2403   28.2761 H   0  0  0  0  0  0
   -1.1424    8.7863   27.4013 H   0  0  0  0  0  0
   -3.3473   12.8007   22.7251 H   0  0  0  0  0  0
   -1.8312   13.5825   22.3364 H   0  0  0  0  0  0
    0.6193    5.4687   26.4815 H   0  0  0  0  0  0
    0.1503    6.9243   27.3040 H   0  0  0  0  0  0
    2.0658    4.9246   28.6223 H   0  0  0  0  0  0
    0.3319    4.8102   28.7010 H   0  0  0  0  0  0
    2.0708    7.7465   30.8713 H   0  0  0  0  0  0
    3.1018    6.5912   30.0463 H   0  0  0  0  0  0
    2.3729    7.9382   29.1579 H   0  0  0  0  0  0
  1  2  2  0  0  0
  1  3  1  0  0  0
  1 38  1  0  0  0
  2 12  1  0  0  0
  2 39  1  0  0  0
  3 29  1  0  0  0
  3  4  2  0  0  0
  4 11  1  0  0  0
  4  6  1  0  0  0
  5 28  1  0  0  0
  5  7  1  0  0  0
  5  6  1  0  0  0
  5 40  1  0  0  0
  6 41  1  0  0  0
  7 10  1  0  0  0
  7 27  1  0  0  0
  7 42  1  0  0  0
  8 13  1  0  0  0
  8  9  1  0  0  0
  8 43  1  0  0  0
  8 44  1  0  0  0
  9 10  1  0  0  0
  9 45  1  0  0  0
  9 46  1  0  0  0
 10 32  1  0  0  0
 11 12  2  0  0  0
 11 47  1  0  0  0
 12 15  1  0  0  0
 13 14  1  0  0  0
 13 48  1  0  0  0
 13 49  1  0  0  0
 14 15  1  0  0  0
 14 16  2  0  0  0
 15 19  1  0  0  0
 16 17  1  0  0  0
 16 18  1  0  0  0
 17 50  1  0  0  0
 17 51  1  0  0  0
 17 52  1  0  0  0
 18 19  2  0  0  0
 18 23  1  0  0  0
 19 20  1  0  0  0
 20 21  1  0  0  0
 20 53  1  0  0  0
 20 54  1  0  0  0
 21 22  1  0  0  0
 21 25  1  0  0  0
 21 26  1  0  0  0
 22 23  1  0  0  0
 22 55  1  0  0  0
 22 56  1  0  0  0
 23 24  2  0  0  0
 25 57  1  0  0  0
 25 58  1  0  0  0
 25 59  1  0  0  0
 26 60  1  0  0  0
 26 61  1  0  0  0
 26 62  1  0  0  0
 27 63  1  0  0  0
 27 64  1  0  0  0
 27 65  1  0  0  0
 28 66  1  0  0  0
 28 67  1  0  0  0
 28 68  1  0  0  0
 29 30  2  0  0  0
 29 31  1  0  0  0
 31 69  1  0  0  0
 31 70  1  0  0  0
 32 33  1  0  0  0
 32 34  2  0  0  0
 33 35  1  0  0  0
 33 71  1  0  0  0
 33 72  1  0  0  0
 35 36  1  0  0  0
 35 73  1  0  0  0
 35 74  1  0  0  0
 36 37  1  0  0  0
 37 75  1  0  0  0
 37 76  1  0  0  0
 37 77  1  0  0  0
M  END
> <s_m_entry_id>
4870

> <s_m_entry_name>
dock_pv.189

> <s_m_Source_Path>
/home/csk/Desktop/cluster/DUD-E-result/hs90a

> <s_m_Source_File>
dock_pv.maegz

> <i_m_Source_File_Index>
189

> <chembl_id>
CHEMBL1807802

> <chembl_pref_name>
None

> <i_lp_mmshare_version>
53161

> <r_lp_tautomer_probability>
0.99995

> <s_lp_Force_Field>
OPLS_2005

> <r_lp_Energy>
60.965868

> <b_lp_Chiralities_Consistent>
1

> <s_lp_Variant>
CHEMBL3880_lig239-1

> <s_i_glide_gridfile>
glide-grid_1uyg

> <i_i_glide_lignum>
273

> <i_i_glide_rotatable_bonds>
5

> <r_i_docking_score>
-8.27997023513808

> <r_i_glide_ligand_efficiency>
-0.223782979328056

> <r_i_glide_ligand_efficiency_sa>
-0.745694532845837

> <r_i_glide_ligand_efficiency_ln>
-1.79573143395862

> <r_i_glide_gscore>
-8.27997023513808

> <r_i_glide_lipo>
-4.65798027229308

> <r_i_glide_hbond>
-0.130108293630816

> <r_i_glide_metal>
0

> <r_i_glide_rewards>
-1.72937555230518

> <r_i_glide_evdw>
-35.0643653869629

> <r_i_glide_ecoul>
-1.64464521408081

> <r_i_glide_erotb>
0.237408934551258

> <r_i_glide_esite>
0

> <r_i_glide_emodel>
-72.6747421464765

> <r_i_glide_energy>
-36.7090106010437

> <r_i_glide_einternal>
3.33594131469727

> <i_i_glide_confnum>
4

> <i_i_glide_posenum>
33

> <r_i_glide_eff_state_penalty>
0

> <s_user_duplicate_titles>
CHEMBL3880_lig239

> <i_f3d_flags>
0

> <s_m_subgroup_title>
dock_pv

> <s_m_subgroupid>
dock_pv

> <b_m_subgroup_collapsed>
1

$$$$
CHEMBL3880_lig766
                    3D
 Schrodinger Suite 2021-1.
 59 62  0  0  1  0            999 V2000
    2.8002    9.7848   24.4664 C   0  0  0  0  0  0
    4.1831    9.7519   24.3669 C   0  0  0  0  0  0
    4.6521   10.8488   23.6867 N   0  0  0  0  0  0
    3.5421   11.5632   23.3340 C   0  0  0  0  0  0
    2.3857   10.9573   23.7978 C   0  0  0  0  0  0
    1.0180   11.4948   23.5672 C   0  0  0  0  0  0
   -0.0500   11.1805   24.4133 C   0  0  0  0  0  0
   -1.3318   11.6564   24.1489 C   0  0  0  0  0  0
   -1.5392   12.4890   23.0376 C   0  0  0  0  0  0
   -0.4893   12.7690   22.1713 C   0  0  0  0  0  0
    0.7862   12.2973   22.4451 C   0  0  0  0  0  0
    1.9789    8.7369   25.1321 C   0  0  0  0  0  0
    2.0854    8.5305   26.5114 C   0  0  0  0  0  0
    1.3148    7.5509   27.1449 C   0  0  0  0  0  0
    0.4305    6.7645   26.3895 C   0  0  0  0  0  0
    0.3292    6.9678   25.0121 C   0  0  0  0  0  0
    1.1001    7.9469   24.3861 C   0  0  0  0  0  0
    6.0387   11.1586   23.3325 C   0  0  0  0  0  0
    6.6542   12.4156   23.9670 C   0  0  0  0  0  0
    5.9091   13.5568   24.3100 C   0  0  0  0  0  0
    6.4774   14.6168   25.0317 C   0  0  0  0  0  0
    7.8204   14.5338   25.4101 C   0  0  0  0  0  0
    8.5744   13.3964   25.1088 C   0  0  0  0  0  0
    7.9902   12.3690   24.3670 C   0  0  0  0  0  0
   -0.3390    5.7886   26.9754 O   0  0  0  0  0  0
   -2.7390   13.0819   22.7670 O   0  0  0  0  0  0
    8.3944   15.5531   26.1164 O   0  0  0  0  0  0
   -2.3390   11.2793   25.0027 O   0  0  0  0  0  0
    1.4411    7.3738   28.5018 O   0  0  0  0  0  0
    8.3001   15.3736   27.5166 C   0  0  0  0  0  0
    9.8634   13.2067   25.5670 O   0  0  0  0  0  0
   10.8167   14.2322   25.3006 C   0  0  0  0  0  0
    5.7747   15.7346   25.4354 O   0  0  0  0  0  0
    4.3552   15.6867   25.4571 C   0  0  0  0  0  0
    4.8612    8.9969   24.7261 H   0  0  0  0  0  0
    3.6580   12.4715   22.7670 H   0  0  0  0  0  0
    0.1021   10.5592   25.2824 H   0  0  0  0  0  0
   -0.6643   13.3679   21.2900 H   0  0  0  0  0  0
    1.5857   12.5330   21.7616 H   0  0  0  0  0  0
    2.7649    9.1409   27.0888 H   0  0  0  0  0  0
   -0.3455    6.3703   24.4167 H   0  0  0  0  0  0
    1.0177    8.0821   23.3178 H   0  0  0  0  0  0
    6.1144   11.1917   22.2508 H   0  0  0  0  0  0
    6.6347   10.2932   23.6277 H   0  0  0  0  0  0
    4.8730   13.6199   24.0389 H   0  0  0  0  0  0
    8.5859   11.4938   24.1501 H   0  0  0  0  0  0
   -0.8871    5.3135   26.3465 H   0  0  0  0  0  0
   -3.4591   12.8080   23.3526 H   0  0  0  0  0  0
   -3.2358   11.5692   24.7669 H   0  0  0  0  0  0
    2.0706    7.9690   28.9151 H   0  0  0  0  0  0
    8.9702   16.1036   27.9668 H   0  0  0  0  0  0
    7.2882   15.5682   27.8762 H   0  0  0  0  0  0
    8.6097   14.3764   27.8420 H   0  0  0  0  0  0
   11.8075   13.7855   25.2177 H   0  0  0  0  0  0
   10.6177   14.7689   24.3713 H   0  0  0  0  0  0
   10.8555   14.9524   26.1182 H   0  0  0  0  0  0
    3.9859   16.6214   25.8779 H   0  0  0  0  0  0
    3.9947   14.8744   26.0905 H   0  0  0  0  0  0
    3.9334   15.5691   24.4586 H   0  0  0  0  0  0
  1  2  2  0  0  0
  1  5  1  0  0  0
  1 12  1  0  0  0
  2  3  1  0  0  0
  2 35  1  0  0  0
  3  4  1  0  0  0
  3 18  1  0  0  0
  4  5  2  0  0  0
  4 36  1  0  0  0
  5  6  1  0  0  0
  6  7  2  0  0  0
  6 11  1  0  0  0
  7  8  1  0  0  0
  7 37  1  0  0  0
  8  9  2  0  0  0
  8 28  1  0  0  0
  9 10  1  0  0  0
  9 26  1  0  0  0
 10 11  2  0  0  0
 10 38  1  0  0  0
 11 39  1  0  0  0
 12 13  2  0  0  0
 12 17  1  0  0  0
 13 14  1  0  0  0
 13 40  1  0  0  0
 14 15  2  0  0  0
 14 29  1  0  0  0
 15 16  1  0  0  0
 15 25  1  0  0  0
 16 17  2  0  0  0
 16 41  1  0  0  0
 17 42  1  0  0  0
 18 19  1  0  0  0
 18 43  1  0  0  0
 18 44  1  0  0  0
 19 20  2  0  0  0
 19 24  1  0  0  0
 20 21  1  0  0  0
 20 45  1  0  0  0
 21 22  2  0  0  0
 21 33  1  0  0  0
 22 23  1  0  0  0
 22 27  1  0  0  0
 23 24  2  0  0  0
 23 31  1  0  0  0
 24 46  1  0  0  0
 25 47  1  0  0  0
 26 48  1  0  0  0
 27 30  1  0  0  0
 28 49  1  0  0  0
 29 50  1  0  0  0
 30 51  1  0  0  0
 30 52  1  0  0  0
 30 53  1  0  0  0
 31 32  1  0  0  0
 32 54  1  0  0  0
 32 55  1  0  0  0
 32 56  1  0  0  0
 33 34  1  0  0  0
 34 57  1  0  0  0
 34 58  1  0  0  0
 34 59  1  0  0  0
M  END
> <s_m_entry_id>
4871

> <s_m_entry_name>
dock_pv.190

> <s_m_Source_Path>
/home/csk/Desktop/cluster/DUD-E-result/hs90a

> <s_m_Source_File>
dock_pv.maegz

> <i_m_Source_File_Index>
190

> <chembl_id>
CHEMBL4061614

> <chembl_pref_name>
None

> <i_lp_mmshare_version>
53161

> <r_lp_tautomer_probability>
0.999999999999552

> <s_lp_Force_Field>
OPLS_2005

> <r_lp_Energy>
33.049916

> <b_lp_Chiralities_Consistent>
1

> <s_lp_Variant>
CHEMBL3880_lig766-1

> <s_i_glide_gridfile>
glide-grid_1uyg

> <i_i_glide_lignum>
867

> <i_i_glide_rotatable_bonds>
11

> <r_i_docking_score>
-8.27940844772836

> <r_i_glide_ligand_efficiency>
-0.243512013168481

> <r_i_glide_ligand_efficiency_sa>
-0.788884390686152

> <r_i_glide_ligand_efficiency_ln>
-1.82915355564401

> <r_i_glide_gscore>
-8.27940844772836

> <r_i_glide_lipo>
-4.78302775961389

> <r_i_glide_hbond>
-0.0787130828725748

> <r_i_glide_metal>
0

> <r_i_glide_rewards>
-0.834703390414648

> <r_i_glide_evdw>
-44.643196105957

> <r_i_glide_ecoul>
-4.8403468132019

> <r_i_glide_erotb>
0.375247612450888

> <r_i_glide_esite>
0

> <r_i_glide_emodel>
-62.8612191777651

> <r_i_glide_energy>
-49.4835429191589

> <r_i_glide_einternal>
14.1127758026123

> <i_i_glide_confnum>
61

> <i_i_glide_posenum>
394

> <r_i_glide_eff_state_penalty>
0

> <s_user_duplicate_titles>
CHEMBL3880_lig766

> <i_f3d_flags>
0

> <s_m_subgroup_title>
dock_pv

> <s_m_subgroupid>
dock_pv

> <b_m_subgroup_collapsed>
1

$$$$
CHEMBL3880_lig944
                    3D
 Schrodinger Suite 2021-1.
 48 51  0  0  1  0            999 V2000
    5.2603    9.1702   20.9010 C   0  0  0  0  0  0
    5.2693    8.6225   22.3484 C   0  0  0  0  0  0
    4.8607    7.1337   22.4353 C   0  0  0  0  0  0
    0.6608   10.7371   24.9249 C   0  0  0  0  0  0
    2.0412   10.8199   24.8546 C   0  0  0  0  0  0
    2.6396   11.8610   24.1417 C   0  0  0  0  0  0
    1.8619   12.8604   23.5620 C   0  0  0  0  0  0
    0.4789   12.7764   23.6306 C   0  0  0  0  0  0
   -0.1309   11.6996   24.2927 C   0  0  0  0  0  0
   -1.6251   11.5689   24.3675 C   0  0  0  0  0  0
   -2.1638   10.8332   25.1921 O   0  0  0  0  0  0
   -2.3390   12.3113   23.5255 N   0  0  0  0  0  0
    4.0327   11.8707   23.9694 N   0  0  0  0  0  0
    4.7912   10.7870   23.5777 C   0  0  0  0  0  0
    6.1309   11.1575   23.5447 C   0  0  0  0  0  0
    7.1872   10.2180   23.1680 C   0  0  0  0  0  0
    6.7000    8.7690   22.9607 C   0  0  0  0  0  0
    4.2346    9.4175   23.1890 C   0  0  0  0  0  0
    8.3593   10.5416   23.0021 O   0  0  0  0  0  0
    6.2078   12.4984   23.9668 C   0  0  0  0  0  0
    4.9015   12.9069   24.2373 C   0  0  0  0  0  0
    4.5345   14.2463   24.8603 C   0  0  0  0  0  0
    5.6878   14.7722   25.5938 N   0  0  2  0  0  0
    6.9115   14.8071   24.7946 C   0  0  0  0  0  0
    7.3834   13.4203   24.2685 C   0  0  0  0  0  0
    5.3949   10.2479   20.8809 H   0  0  0  0  0  0
    6.0584    8.7513   20.2950 H   0  0  0  0  0  0
    4.3179    8.9478   20.3992 H   0  0  0  0  0  0
    4.7682    6.7946   23.4673 H   0  0  0  0  0  0
    3.9038    6.9531   21.9429 H   0  0  0  0  0  0
    5.5965    6.4823   21.9670 H   0  0  0  0  0  0
    0.2148    9.9133   25.4649 H   0  0  0  0  0  0
    2.6326   10.0639   25.3508 H   0  0  0  0  0  0
    2.3196   13.6849   23.0380 H   0  0  0  0  0  0
   -0.1030   13.5594   23.1665 H   0  0  0  0  0  0
   -3.3515   12.3269   23.6749 H   0  0  0  0  0  0
   -1.9254   12.7899   22.7427 H   0  0  0  0  0  0
    6.7232    8.3104   23.9489 H   0  0  0  0  0  0
    7.4458    8.2393   22.3668 H   0  0  0  0  0  0
    3.2710    9.4735   22.6778 H   0  0  0  0  0  0
    4.0701    8.8867   24.1275 H   0  0  0  0  0  0
    3.6631   14.1734   25.5139 H   0  0  0  0  0  0
    4.2798   14.9644   24.0787 H   0  0  0  0  0  0
    5.8115   14.2489   26.4489 H   0  0  0  0  0  0
    7.7151   15.2802   25.3602 H   0  0  0  0  0  0
    6.7341   15.4877   23.9670 H   0  0  0  0  0  0
    8.0610   13.5515   23.4264 H   0  0  0  0  0  0
    7.9998   12.9498   25.0349 H   0  0  0  0  0  0
  1  2  1  0  0  0
  1 26  1  0  0  0
  1 27  1  0  0  0
  1 28  1  0  0  0
  2  3  1  0  0  0
  2 17  1  0  0  0
  2 18  1  0  0  0
  3 29  1  0  0  0
  3 30  1  0  0  0
  3 31  1  0  0  0
  4  5  2  0  0  0
  4  9  1  0  0  0
  4 32  1  0  0  0
  5  6  1  0  0  0
  5 33  1  0  0  0
  6  7  2  0  0  0
  6 13  1  0  0  0
  7  8  1  0  0  0
  7 34  1  0  0  0
  8  9  2  0  0  0
  8 35  1  0  0  0
  9 10  1  0  0  0
 10 11  2  0  0  0
 10 12  1  0  0  0
 12 36  1  0  0  0
 12 37  1  0  0  0
 13 21  1  0  0  0
 13 14  1  0  0  0
 14 15  2  0  0  0
 14 18  1  0  0  0
 15 20  1  0  0  0
 15 16  1  0  0  0
 16 17  1  0  0  0
 16 19  2  0  0  0
 17 38  1  0  0  0
 17 39  1  0  0  0
 18 40  1  0  0  0
 18 41  1  0  0  0
 20 21  2  0  0  0
 20 25  1  0  0  0
 21 22  1  0  0  0
 22 23  1  0  0  0
 22 42  1  0  0  0
 22 43  1  0  0  0
 23 24  1  0  0  0
 23 44  1  0  0  0
 24 25  1  0  0  0
 24 45  1  0  0  0
 24 46  1  0  0  0
 25 47  1  0  0  0
 25 48  1  0  0  0
M  END
> <s_m_entry_id>
4872

> <s_m_entry_name>
dock_pv.191

> <s_m_Source_Path>
/home/csk/Desktop/cluster/DUD-E-result/hs90a

> <s_m_Source_File>
dock_pv.maegz

> <i_m_Source_File_Index>
191

> <chembl_id>
CHEMBL3235332

> <chembl_pref_name>
None

> <i_lp_mmshare_version>
53161

> <r_lp_tautomer_probability>
0.99995

> <s_lp_Force_Field>
OPLS_2005

> <r_lp_Energy>
32.172944

> <b_lp_Chiralities_Consistent>
1

> <s_lp_Variant>
CHEMBL3880_lig944-1

> <s_i_glide_gridfile>
glide-grid_1uyg

> <i_i_glide_lignum>
1053

> <i_i_glide_rotatable_bonds>
2

> <r_i_docking_score>
-8.27706343494576

> <r_i_glide_ligand_efficiency>
-0.33108253739783

> <r_i_glide_ligand_efficiency_sa>
-0.968091211125059

> <r_i_glide_ligand_efficiency_ln>
-1.9619120776574

> <r_i_glide_gscore>
-8.27706343494576

> <r_i_glide_lipo>
-3.54804274712685

> <r_i_glide_hbond>
-0.16

> <r_i_glide_metal>
0

> <r_i_glide_rewards>
-2.23467756384905

> <r_i_glide_evdw>
-42.0868148803711

> <r_i_glide_ecoul>
-2.21598339080811

> <r_i_glide_erotb>
0.165999523461303

> <r_i_glide_esite>
-0.0636043947913883

> <r_i_glide_emodel>
-60.381279628406

> <r_i_glide_energy>
-44.3027982711792

> <r_i_glide_einternal>
0.580515563488007

> <i_i_glide_confnum>
3

> <i_i_glide_posenum>
46

> <r_i_glide_eff_state_penalty>
0

> <s_user_duplicate_titles>
CHEMBL3880_lig944

> <i_f3d_flags>
0

> <s_m_subgroup_title>
dock_pv

> <s_m_subgroupid>
dock_pv

> <b_m_subgroup_collapsed>
1

$$$$
CHEMBL3880_lig953
                    3D
 Schrodinger Suite 2021-1.
 59 62  0  0  1  0            999 V2000
    5.3864    9.2723   21.0295 C   0  0  0  0  0  0
    5.4503    8.7272   22.4796 C   0  0  0  0  0  0
    5.1326    7.2163   22.5980 C   0  0  0  0  0  0
    0.7005   10.7065   24.9280 C   0  0  0  0  0  0
    2.0847   10.8733   24.8344 C   0  0  0  0  0  0
    2.6471   11.8893   24.0589 C   0  0  0  0  0  0
    1.8223   12.7886   23.3959 C   0  0  0  0  0  0
    0.4463   12.6734   23.5148 C   0  0  0  0  0  0
   -0.1385   11.6370   24.2662 C   0  0  0  0  0  0
   -1.6446   11.5701   24.3668 C   0  0  0  0  0  0
   -2.2139   11.0248   25.3093 O   0  0  0  0  0  0
   -2.3390   12.1855   23.4126 N   0  0  0  0  0  0
    4.0444   11.9666   23.9273 N   0  0  0  0  0  0
    4.8646   10.8990   23.6338 C   0  0  0  0  0  0
    6.1836   11.3318   23.6017 C   0  0  0  0  0  0
    7.2880   10.4156   23.3150 C   0  0  0  0  0  0
    6.8728    8.9483   23.0814 C   0  0  0  0  0  0
    4.3873    9.4817   23.3214 C   0  0  0  0  0  0
    8.4583   10.7689   23.2420 O   0  0  0  0  0  0
    6.1848   12.6954   23.9670 C   0  0  0  0  0  0
    4.8539   13.0661   24.1328 C   0  0  0  0  0  0
    4.3937   14.4676   24.5097 C   0  0  0  0  0  0
    5.4117   15.1973   25.2756 N   0  0  2  0  0  0
    6.7946   15.0666   24.7948 C   0  0  0  0  0  0
    7.3053   13.6703   24.3055 C   0  0  0  0  0  0
    5.2649   15.0149   26.7103 C   0  0  0  0  0  0
    0.1583    9.6319   25.6666 N   0  0  0  0  0  0
    0.8648    8.3774   25.9308 C   0  0  0  0  0  0
    0.7122    7.3381   24.8065 C   0  0  0  0  0  0
    1.2354    6.1617   25.1491 F   0  0  0  0  0  0
    1.2679    7.7282   23.6594 F   0  0  0  0  0  0
    5.6247   10.3328   20.9818 H   0  0  0  0  0  0
    6.0804    8.7682   20.3664 H   0  0  0  0  0  0
    4.3914    9.1415   20.6031 H   0  0  0  0  0  0
    4.8386    6.9298   23.6080 H   0  0  0  0  0  0
    4.3178    6.9262   21.9344 H   0  0  0  0  0  0
    5.9931    6.5921   22.3659 H   0  0  0  0  0  0
    2.7471   10.2165   25.3726 H   0  0  0  0  0  0
    2.2360   13.5735   22.7830 H   0  0  0  0  0  0
   -0.1565   13.4132   23.0083 H   0  0  0  0  0  0
   -3.3437   12.2851   23.5743 H   0  0  0  0  0  0
   -1.9287   12.4647   22.5376 H   0  0  0  0  0  0
    6.9135    8.4813   24.0654 H   0  0  0  0  0  0
    7.6423    8.4589   22.4816 H   0  0  0  0  0  0
    3.4094    9.4511   22.8366 H   0  0  0  0  0  0
    4.2783    8.9857   24.2870 H   0  0  0  0  0  0
    3.4029   14.5140   24.9640 H   0  0  0  0  0  0
    4.3185   14.9975   23.5672 H   0  0  0  0  0  0
    7.5057   15.5365   25.4766 H   0  0  0  0  0  0
    6.8420   15.7553   23.9651 H   0  0  0  0  0  0
    8.0607   13.7807   23.5290 H   0  0  0  0  0  0
    7.8437   13.2211   25.1399 H   0  0  0  0  0  0
    6.0592   15.5172   27.2648 H   0  0  0  0  0  0
    4.3155   15.4390   27.0391 H   0  0  0  0  0  0
    5.2557   13.9691   26.9750 H   0  0  0  0  0  0
   -0.8546    9.5854   25.6639 H   0  0  0  0  0  0
    0.4634    7.9716   26.8598 H   0  0  0  0  0  0
    1.9221    8.5331   26.1334 H   0  0  0  0  0  0
   -0.3400    7.1493   24.5930 H   0  0  0  0  0  0
  1  2  1  0  0  0
  1 32  1  0  0  0
  1 33  1  0  0  0
  1 34  1  0  0  0
  2  3  1  0  0  0
  2 17  1  0  0  0
  2 18  1  0  0  0
  3 35  1  0  0  0
  3 36  1  0  0  0
  3 37  1  0  0  0
  4  5  2  0  0  0
  4  9  1  0  0  0
  4 27  1  0  0  0
  5  6  1  0  0  0
  5 38  1  0  0  0
  6  7  2  0  0  0
  6 13  1  0  0  0
  7  8  1  0  0  0
  7 39  1  0  0  0
  8  9  2  0  0  0
  8 40  1  0  0  0
  9 10  1  0  0  0
 10 11  2  0  0  0
 10 12  1  0  0  0
 12 41  1  0  0  0
 12 42  1  0  0  0
 13 21  1  0  0  0
 13 14  1  0  0  0
 14 15  2  0  0  0
 14 18  1  0  0  0
 15 20  1  0  0  0
 15 16  1  0  0  0
 16 17  1  0  0  0
 16 19  2  0  0  0
 17 43  1  0  0  0
 17 44  1  0  0  0
 18 45  1  0  0  0
 18 46  1  0  0  0
 20 21  2  0  0  0
 20 25  1  0  0  0
 21 22  1  0  0  0
 22 23  1  0  0  0
 22 47  1  0  0  0
 22 48  1  0  0  0
 23 24  1  0  0  0
 23 26  1  0  0  0
 24 25  1  0  0  0
 24 49  1  0  0  0
 24 50  1  0  0  0
 25 51  1  0  0  0
 25 52  1  0  0  0
 26 53  1  0  0  0
 26 54  1  0  0  0
 26 55  1  0  0  0
 27 28  1  0  0  0
 27 56  1  0  0  0
 28 29  1  0  0  0
 28 57  1  0  0  0
 28 58  1  0  0  0
 29 30  1  0  0  0
 29 31  1  0  0  0
 29 59  1  0  0  0
M  END
> <s_m_entry_id>
4873

> <s_m_entry_name>
dock_pv.192

> <s_m_Source_Path>
/home/csk/Desktop/cluster/DUD-E-result/hs90a

> <s_m_Source_File>
dock_pv.maegz

> <i_m_Source_File_Index>
192

> <chembl_id>
CHEMBL3235341

> <chembl_pref_name>
None

> <i_lp_mmshare_version>
53161

> <r_lp_tautomer_probability>
0.99995

> <s_lp_Force_Field>
OPLS_2005

> <r_lp_Energy>
42.212856

> <b_lp_Chiralities_Consistent>
1

> <s_lp_Variant>
CHEMBL3880_lig953-1

> <s_i_glide_gridfile>
glide-grid_1uyg

> <i_i_glide_lignum>
1062

> <i_i_glide_rotatable_bonds>
5

> <r_i_docking_score>
-8.2697642007013

> <r_i_glide_ligand_efficiency>
-0.266766587119397

> <r_i_glide_ligand_efficiency_sa>
-0.838015394522112

> <r_i_glide_ligand_efficiency_ln>
-1.86508526509416

> <r_i_glide_gscore>
-8.2697642007013

> <r_i_glide_lipo>
-4.11549029621253

> <r_i_glide_hbond>
-0.16

> <r_i_glide_metal>
0

> <r_i_glide_rewards>
-1.75637128837685

> <r_i_glide_evdw>
-45.1982803344727

> <r_i_glide_ecoul>
-1.61661732196808

> <r_i_glide_erotb>
0.321844106131888

> <r_i_glide_esite>
-0.0573401072249653

> <r_i_glide_emodel>
-59.1173481653194

> <r_i_glide_energy>
-46.8148976564407

> <r_i_glide_einternal>
0.481828570365906

> <i_i_glide_confnum>
8

> <i_i_glide_posenum>
34

> <r_i_glide_eff_state_penalty>
0

> <s_user_duplicate_titles>
CHEMBL3880_lig953

> <i_f3d_flags>
0

> <s_m_subgroup_title>
dock_pv

> <s_m_subgroupid>
dock_pv

> <b_m_subgroup_collapsed>
1

$$$$
CHEMBL3880_lig430
                    3D
 Schrodinger Suite 2021-1.
 55 58  0  0  1  0            999 V2000
    9.0460   14.1469   26.0816 C   0  0  0  0  0  0
    8.8601   13.1690   25.1668 N   0  0  0  0  0  0
    7.6141   13.1104   24.6654 C   0  0  0  0  0  0
    6.5483   13.9779   25.0566 C   0  0  0  0  0  0
    6.8778   14.9404   26.0293 C   0  0  0  0  0  0
    8.1332   15.0295   26.5342 N   0  0  0  0  0  0
    7.0928   12.2005   23.7428 N   0  0  0  0  0  0
    5.3556   13.5696   24.3658 C   0  0  0  0  0  0
    5.7628   12.5113   23.5729 C   0  0  0  0  0  0
   10.3093   14.2336   26.6376 N   0  0  0  0  0  0
    7.7658   11.0934   23.0435 C   0  0  0  0  0  0
    7.2805    9.6798   23.4184 C   0  0  0  0  0  0
    6.1536    9.0284   22.8643 C   0  0  0  0  0  0
    5.8090    7.7547   23.3561 C   0  0  0  0  0  0
    6.6201    7.1413   24.3238 C   0  0  0  0  0  0
    7.7483    7.8267   24.7661 C   0  0  0  0  0  0
    8.0607    9.0746   24.3482 N   0  0  0  0  0  0
    6.2759    5.7899   24.9272 C   0  0  0  0  0  0
    5.3226    9.6125   21.7308 C   0  0  0  0  0  0
    4.6445    7.1499   22.9381 O   0  0  0  0  0  0
    4.7933    6.1142   21.9728 C   0  0  0  0  0  0
    5.6615   15.9690   26.6921 Cl  0  0  0  0  0  0
    3.9628   14.1615   24.5155 C   0  0  0  0  0  0
    2.7731   13.2504   24.2230 C   0  0  0  0  0  0
    1.6171   13.8005   23.6671 C   0  0  0  0  0  0
    0.4589   13.0380   23.5532 C   0  0  0  0  0  0
    0.4410   11.7202   24.0041 C   0  0  0  0  0  0
    1.6016   11.1270   24.5173 C   0  0  0  0  0  0
    2.7638   11.9103   24.6274 C   0  0  0  0  0  0
    1.5245    9.8035   24.9106 O   0  0  0  0  0  0
    2.6884    9.1564   25.4157 C   0  0  0  0  0  0
   -1.2103   10.7684   23.9673 Br  0  0  0  0  0  0
    5.1640   11.9291   22.8949 H   0  0  0  0  0  0
   10.3894   14.7954   27.4732 H   0  0  0  0  0  0
   10.9371   13.4660   26.4602 H   0  0  0  0  0  0
    7.6717   11.2641   21.9719 H   0  0  0  0  0  0
    8.8368   11.1680   23.2434 H   0  0  0  0  0  0
    8.4063    7.4001   25.5094 H   0  0  0  0  0  0
    6.6338    4.9859   24.2852 H   0  0  0  0  0  0
    6.7138    5.6729   25.9197 H   0  0  0  0  0  0
    5.1970    5.6843   25.0475 H   0  0  0  0  0  0
    5.0859    8.8375   21.0032 H   0  0  0  0  0  0
    4.3734    9.9988   22.1019 H   0  0  0  0  0  0
    5.8572   10.3689   21.1690 H   0  0  0  0  0  0
    3.9113    5.4742   22.0003 H   0  0  0  0  0  0
    4.8602    6.5286   20.9672 H   0  0  0  0  0  0
    5.6655    5.4816   22.1421 H   0  0  0  0  0  0
    3.8868   15.1004   23.9676 H   0  0  0  0  0  0
    3.8096   14.4278   25.5597 H   0  0  0  0  0  0
    1.6015   14.8377   23.3662 H   0  0  0  0  0  0
   -0.4449   13.4842   23.1650 H   0  0  0  0  0  0
    3.6545   11.5020   25.0792 H   0  0  0  0  0  0
    2.4576    8.1135   25.6294 H   0  0  0  0  0  0
    3.5022    9.1701   24.6898 H   0  0  0  0  0  0
    3.0275    9.6175   26.3447 H   0  0  0  0  0  0
  1  2  1  0  0  0
  1  6  2  0  0  0
  1 10  1  0  0  0
  2  3  2  0  0  0
  3  4  1  0  0  0
  3  7  1  0  0  0
  4  5  2  0  0  0
  4  8  1  0  0  0
  5  6  1  0  0  0
  5 22  1  0  0  0
  7  9  1  0  0  0
  7 11  1  0  0  0
  8  9  2  0  0  0
  8 23  1  0  0  0
  9 33  1  0  0  0
 10 34  1  0  0  0
 10 35  1  0  0  0
 11 12  1  0  0  0
 11 36  1  0  0  0
 11 37  1  0  0  0
 12 13  1  0  0  0
 12 17  2  0  0  0
 13 14  2  0  0  0
 13 19  1  0  0  0
 14 15  1  0  0  0
 14 20  1  0  0  0
 15 16  2  0  0  0
 15 18  1  0  0  0
 16 17  1  0  0  0
 16 38  1  0  0  0
 18 39  1  0  0  0
 18 40  1  0  0  0
 18 41  1  0  0  0
 19 42  1  0  0  0
 19 43  1  0  0  0
 19 44  1  0  0  0
 20 21  1  0  0  0
 21 45  1  0  0  0
 21 46  1  0  0  0
 21 47  1  0  0  0
 23 24  1  0  0  0
 23 48  1  0  0  0
 23 49  1  0  0  0
 24 25  1  0  0  0
 24 29  2  0  0  0
 25 26  2  0  0  0
 25 50  1  0  0  0
 26 27  1  0  0  0
 26 51  1  0  0  0
 27 28  2  0  0  0
 27 32  1  0  0  0
 28 29  1  0  0  0
 28 30  1  0  0  0
 29 52  1  0  0  0
 30 31  1  0  0  0
 31 53  1  0  0  0
 31 54  1  0  0  0
 31 55  1  0  0  0
M  END
> <s_m_entry_id>
4874

> <s_m_entry_name>
dock_pv.193

> <s_m_Source_Path>
/home/csk/Desktop/cluster/DUD-E-result/hs90a

> <s_m_Source_File>
dock_pv.maegz

> <i_m_Source_File_Index>
193

> <chembl_id>
CHEMBL3922135

> <chembl_pref_name>
None

> <i_lp_mmshare_version>
53161

> <r_lp_tautomer_probability>
1

> <s_lp_Force_Field>
OPLS_2005

> <r_lp_Energy>
16.543398

> <b_lp_Chiralities_Consistent>
1

> <s_lp_Variant>
CHEMBL3880_lig430-1

> <s_i_glide_gridfile>
glide-grid_1uyg

> <i_i_glide_lignum>
472

> <i_i_glide_rotatable_bonds>
6

> <r_i_docking_score>
-8.26188013086992

> <r_i_glide_ligand_efficiency>
-0.258183754089685

> <r_i_glide_ligand_efficiency_sa>
-0.819682324739195

> <r_i_glide_ligand_efficiency_ln>
-1.85006017164836

> <r_i_glide_gscore>
-8.26188013086992

> <r_i_glide_lipo>
-4.33775891412084

> <r_i_glide_hbond>
-0.0154072473338889

> <r_i_glide_metal>
0

> <r_i_glide_rewards>
-1.78421980683242

> <r_i_glide_evdw>
-48.6159210205078

> <r_i_glide_ecoul>
-0.00745275570079684

> <r_i_glide_erotb>
0.307419801797739

> <r_i_glide_esite>
0

> <r_i_glide_emodel>
-59.6683861257843

> <r_i_glide_energy>
-48.6233737762086

> <r_i_glide_einternal>
2.95562362670898

> <i_i_glide_confnum>
9

> <i_i_glide_posenum>
99

> <r_i_glide_eff_state_penalty>
0

> <s_user_duplicate_titles>
CHEMBL3880_lig430

> <i_f3d_flags>
0

> <s_m_subgroup_title>
dock_pv

> <s_m_subgroupid>
dock_pv

> <b_m_subgroup_collapsed>
1

$$$$
CHEMBL3880_lig389
                    3D
 Schrodinger Suite 2021-1.
 57 60  0  0  1  0            999 V2000
    1.9434    9.9166   25.5452 N   0  0  0  0  0  0
    0.6908   10.0000   26.0831 C   0  0  0  0  0  0
    1.8815   10.4904   24.3214 C   0  0  0  0  0  0
   -0.0637   10.6392   25.1193 C   0  0  0  0  0  0
    0.2438    9.5691   27.2886 N   0  0  0  0  0  0
    0.6853   10.9526   24.0466 N   0  0  0  0  0  0
   -1.4335   10.8443   25.4131 C   0  0  0  0  0  0
   -1.0423    9.8949   27.4842 C   0  0  0  0  0  0
   -1.8920   10.5021   26.6458 N   0  0  0  0  0  0
   -2.3387   11.3807   24.5024 N   0  0  0  0  0  0
    3.2271   10.5345   23.1669 S   0  0  0  0  0  0
    4.2818   11.8376   23.8014 C   0  0  0  0  0  0
    5.6963   11.8329   23.5658 C   0  0  0  0  0  0
    6.4537   12.9556   23.9671 C   0  0  0  0  0  0
    3.6734   12.9308   24.4512 C   0  0  0  0  0  0
    3.1269    9.3353   26.2024 C   0  0  0  0  0  0
    3.0000    7.8157   26.4751 C   0  0  0  0  0  0
    2.5400    6.9376   25.2954 C   0  0  0  0  0  0
    3.3862    7.1652   24.1284 N   0  0  1  0  0  0
    3.1136    6.2783   23.0020 C   0  0  0  0  0  0
    4.0860    6.6755   21.8796 C   0  0  0  0  0  0
    1.6509    6.3692   22.5268 C   0  0  0  0  0  0
    4.4701   13.9982   24.8378 C   0  0  0  0  0  0
    5.8117   14.0077   24.6063 C   0  0  0  0  0  0
    6.3510   15.1484   25.1142 O   0  0  0  0  0  0
    5.2627   15.9492   25.4940 C   0  0  0  0  0  0
    4.1165   15.1366   25.4919 O   0  0  0  0  0  0
    6.3560   10.7594   22.8953 N   0  0  0  0  0  0
    6.3510    9.4591   23.5615 C   0  0  0  0  0  0
    7.6340   11.0136   22.2243 C   0  0  0  0  0  0
   -1.4527    9.6118   28.4423 H   0  0  0  0  0  0
   -2.0206   11.6080   23.5734 H   0  0  0  0  0  0
   -3.3119   11.5601   24.7653 H   0  0  0  0  0  0
    7.5191   13.0043   23.8111 H   0  0  0  0  0  0
    2.6071   12.9631   24.6265 H   0  0  0  0  0  0
    3.2572    9.9102   27.1224 H   0  0  0  0  0  0
    3.9900    9.5520   25.5777 H   0  0  0  0  0  0
    2.3132    7.6625   27.3100 H   0  0  0  0  0  0
    3.9602    7.4450   26.8364 H   0  0  0  0  0  0
    1.5069    7.1893   25.0530 H   0  0  0  0  0  0
    2.5720    5.8871   25.5851 H   0  0  0  0  0  0
    3.2813    8.1191   23.8146 H   0  0  0  0  0  0
    3.3335    5.2525   23.3051 H   0  0  0  0  0  0
    3.9603    6.0262   21.0137 H   0  0  0  0  0  0
    5.1246    6.5925   22.1996 H   0  0  0  0  0  0
    3.9196    7.6995   21.5446 H   0  0  0  0  0  0
    1.5118    5.8418   21.5831 H   0  0  0  0  0  0
    0.9599    5.9184   23.2374 H   0  0  0  0  0  0
    1.3431    7.4022   22.3676 H   0  0  0  0  0  0
    5.1414   16.7569   24.7691 H   0  0  0  0  0  0
    5.4328   16.3694   26.4865 H   0  0  0  0  0  0
    5.3898    9.1964   23.9884 H   0  0  0  0  0  0
    6.6062    8.6674   22.8546 H   0  0  0  0  0  0
    7.0844    9.4437   24.3671 H   0  0  0  0  0  0
    7.6329   11.9487   21.6640 H   0  0  0  0  0  0
    8.4537   11.0638   22.9417 H   0  0  0  0  0  0
    7.8523   10.2179   21.5127 H   0  0  0  0  0  0
  1  2  1  0  0  0
  1  3  1  0  0  0
  1 16  1  0  0  0
  2  4  1  0  0  0
  2  5  2  0  0  0
  3  6  2  0  0  0
  3 11  1  0  0  0
  4  7  2  0  0  0
  4  6  1  0  0  0
  5  8  1  0  0  0
  7  9  1  0  0  0
  7 10  1  0  0  0
  8  9  2  0  0  0
  8 31  1  0  0  0
 10 32  1  0  0  0
 10 33  1  0  0  0
 11 12  1  0  0  0
 12 13  2  0  0  0
 12 15  1  0  0  0
 13 14  1  0  0  0
 13 28  1  0  0  0
 14 24  2  0  0  0
 14 34  1  0  0  0
 15 23  2  0  0  0
 15 35  1  0  0  0
 16 17  1  0  0  0
 16 36  1  0  0  0
 16 37  1  0  0  0
 17 18  1  0  0  0
 17 38  1  0  0  0
 17 39  1  0  0  0
 18 19  1  0  0  0
 18 40  1  0  0  0
 18 41  1  0  0  0
 19 20  1  0  0  0
 19 42  1  0  0  0
 20 21  1  0  0  0
 20 22  1  0  0  0
 20 43  1  0  0  0
 21 44  1  0  0  0
 21 45  1  0  0  0
 21 46  1  0  0  0
 22 47  1  0  0  0
 22 48  1  0  0  0
 22 49  1  0  0  0
 23 24  1  0  0  0
 23 27  1  0  0  0
 24 25  1  0  0  0
 25 26  1  0  0  0
 26 27  1  0  0  0
 26 50  1  0  0  0
 26 51  1  0  0  0
 28 29  1  0  0  0
 28 30  1  0  0  0
 29 52  1  0  0  0
 29 53  1  0  0  0
 29 54  1  0  0  0
 30 55  1  0  0  0
 30 56  1  0  0  0
 30 57  1  0  0  0
M  END
> <s_m_entry_id>
4875

> <s_m_entry_name>
dock_pv.194

> <s_m_Source_Path>
/home/csk/Desktop/cluster/DUD-E-result/hs90a

> <s_m_Source_File>
dock_pv.maegz

> <i_m_Source_File_Index>
194

> <chembl_id>
CHEMBL3426785

> <chembl_pref_name>
None

> <i_lp_mmshare_version>
53161

> <r_lp_tautomer_probability>
0.999997216410988

> <s_lp_Force_Field>
OPLS_2005

> <r_lp_Energy>
29.260905

> <b_lp_Chiralities_Consistent>
1

> <s_lp_Variant>
CHEMBL3880_lig389-1

> <s_i_glide_gridfile>
glide-grid_1uyg

> <i_i_glide_lignum>
431

> <i_i_glide_rotatable_bonds>
8

> <r_i_docking_score>
-8.25492535892599

> <r_i_glide_ligand_efficiency>
-0.275164178630866

> <r_i_glide_ligand_efficiency_sa>
-0.854999079346582

> <r_i_glide_ligand_efficiency_ln>
-1.87560898616377

> <r_i_glide_gscore>
-8.25492535892599

> <r_i_glide_lipo>
-2.61701612641333

> <r_i_glide_hbond>
-0.154267687012044

> <r_i_glide_metal>
0

> <r_i_glide_rewards>
-3.01374187878788

> <r_i_glide_evdw>
-44.468189239502

> <r_i_glide_ecoul>
-5.58684110641479

> <r_i_glide_erotb>
0.646271202395456

> <r_i_glide_esite>
-0.0547352411708707

> <r_i_glide_emodel>
-69.0593307203817

> <r_i_glide_energy>
-50.0550303459167

> <r_i_glide_einternal>
8.87319946289062

> <i_i_glide_confnum>
21

> <i_i_glide_posenum>
245

> <r_i_glide_eff_state_penalty>
0

> <s_user_duplicate_titles>
CHEMBL3880_lig389

> <i_f3d_flags>
0

> <s_m_subgroup_title>
dock_pv

> <s_m_subgroupid>
dock_pv

> <b_m_subgroup_collapsed>
1

$$$$
CHEMBL3880_lig918
                    3D
 Schrodinger Suite 2021-1.
 58 62  0  0  1  0            999 V2000
    0.1833   12.9951   23.6865 N   0  0  0  0  0  0
   -0.4401   11.8066   23.8705 C   0  0  0  0  0  0
    0.1292   10.6808   24.3683 N   0  0  0  0  0  0
    1.4542   10.7395   24.6847 C   0  0  0  0  0  0
   -1.7816   11.7321   23.5259 N   0  0  0  0  0  0
    2.0363    9.4822   25.2337 C   0  0  0  0  0  0
    1.5190    8.8798   26.4011 C   0  0  0  0  0  0
    2.0747    7.7011   26.8951 C   0  0  0  0  0  0
    3.1460    7.1030   26.2428 C   0  0  0  0  0  0
    3.6619    7.6809   25.0885 C   0  0  0  0  0  0
    3.1141    8.8625   24.5764 C   0  0  0  0  0  0
    3.6488    9.4604   23.4580 O   0  0  0  0  0  0
    0.1990    9.5683   27.2894 Cl  0  0  0  0  0  0
    3.7069    8.6990   22.2509 C   0  0  0  0  0  0
    5.0349    7.9665   22.0222 C   0  0  0  0  0  0
    6.2222    8.7689   22.5108 C   0  0  0  0  0  0
    3.8447    5.6562   26.8707 Cl  0  0  0  0  0  0
    1.4885   13.0289   24.0524 C   0  0  0  0  0  0
    2.1887   11.9260   24.5131 C   0  0  0  0  0  0
    3.6359   12.3040   24.7669 C   0  0  0  0  0  0
    3.6063   13.7725   24.6829 N   0  0  0  0  0  0
    2.3397   14.2615   24.1261 C   0  0  0  0  0  0
    4.6270   14.6247   24.9522 C   0  0  0  0  0  0
    5.8721   14.1422   24.7670 N   0  0  0  0  0  0
    4.4408   15.8123   25.2197 O   0  0  0  0  0  0
    7.1011   14.9550   24.8360 C   0  0  0  0  0  0
    7.9478   14.7745   26.0983 C   0  0  0  0  0  0
    8.8212   13.8047   25.2840 C   0  0  0  0  0  0
    8.2735   14.4557   23.9997 C   0  0  0  0  0  0
    6.4024    9.9862   21.9362 N   0  0  0  0  0  0
    7.4009   10.7693   22.4147 C   0  0  0  0  0  0
    8.2452   10.3662   23.4463 C   0  0  0  0  0  0
    8.0610    9.0955   23.9938 C   0  0  0  0  0  0
    7.0360    8.2807   23.5321 C   0  0  0  0  0  0
   -2.2992   10.9009   23.7731 H   0  0  0  0  0  0
   -2.2723   12.5748   23.2658 H   0  0  0  0  0  0
    1.6774    7.2554   27.7949 H   0  0  0  0  0  0
    4.5071    7.2151   24.6108 H   0  0  0  0  0  0
    2.8609    8.0222   22.1340 H   0  0  0  0  0  0
    3.6494    9.4340   21.4501 H   0  0  0  0  0  0
    5.0165    6.9886   22.5029 H   0  0  0  0  0  0
    5.1595    7.7518   20.9608 H   0  0  0  0  0  0
    4.3187   11.8809   24.0294 H   0  0  0  0  0  0
    3.9740   11.9869   25.7519 H   0  0  0  0  0  0
    1.8978   15.0153   24.7665 H   0  0  0  0  0  0
    2.4640   14.7430   23.1672 H   0  0  0  0  0  0
    5.9945   13.1469   24.6639 H   0  0  0  0  0  0
    6.7691   15.9741   24.6298 H   0  0  0  0  0  0
    7.4316   14.3701   26.9685 H   0  0  0  0  0  0
    8.4665   15.6845   26.3992 H   0  0  0  0  0  0
    8.5189   12.7687   25.4004 H   0  0  0  0  0  0
    9.8966   13.8906   25.4456 H   0  0  0  0  0  0
    8.8787   15.2771   23.6180 H   0  0  0  0  0  0
    8.0217   13.7952   23.1691 H   0  0  0  0  0  0
    7.5248   11.7403   21.9592 H   0  0  0  0  0  0
    9.0384   11.0078   23.7999 H   0  0  0  0  0  0
    8.7185    8.7383   24.7696 H   0  0  0  0  0  0
    6.8758    7.3021   23.9598 H   0  0  0  0  0  0
  1 18  1  0  0  0
  1  2  2  0  0  0
  2  5  1  0  0  0
  2  3  1  0  0  0
  3  4  2  0  0  0
  4 19  1  0  0  0
  4  6  1  0  0  0
  5 35  1  0  0  0
  5 36  1  0  0  0
  6 11  1  0  0  0
  6  7  2  0  0  0
  7  8  1  0  0  0
  7 13  1  0  0  0
  8  9  2  0  0  0
  8 37  1  0  0  0
  9 17  1  0  0  0
  9 10  1  0  0  0
 10 11  2  0  0  0
 10 38  1  0  0  0
 11 12  1  0  0  0
 12 14  1  0  0  0
 14 15  1  0  0  0
 14 39  1  0  0  0
 14 40  1  0  0  0
 15 16  1  0  0  0
 15 41  1  0  0  0
 15 42  1  0  0  0
 16 30  2  0  0  0
 16 34  1  0  0  0
 18 19  2  0  0  0
 18 22  1  0  0  0
 19 20  1  0  0  0
 20 21  1  0  0  0
 20 43  1  0  0  0
 20 44  1  0  0  0
 21 22  1  0  0  0
 21 23  1  0  0  0
 22 45  1  0  0  0
 22 46  1  0  0  0
 23 24  1  0  0  0
 23 25  2  0  0  0
 24 26  1  0  0  0
 24 47  1  0  0  0
 26 27  1  0  0  0
 26 29  1  0  0  0
 26 48  1  0  0  0
 27 28  1  0  0  0
 27 49  1  0  0  0
 27 50  1  0  0  0
 28 29  1  0  0  0
 28 51  1  0  0  0
 28 52  1  0  0  0
 29 53  1  0  0  0
 29 54  1  0  0  0
 30 31  1  0  0  0
 31 32  2  0  0  0
 31 55  1  0  0  0
 32 33  1  0  0  0
 32 56  1  0  0  0
 33 34  2  0  0  0
 33 57  1  0  0  0
 34 58  1  0  0  0
M  END
> <s_m_entry_id>
4876

> <s_m_entry_name>
dock_pv.195

> <s_m_Source_Path>
/home/csk/Desktop/cluster/DUD-E-result/hs90a

> <s_m_Source_File>
dock_pv.maegz

> <i_m_Source_File_Index>
195

> <chembl_id>
CHEMBL1774911

> <chembl_pref_name>
None

> <i_lp_mmshare_version>
53161

> <r_lp_tautomer_probability>
0.999999987636

> <s_lp_Force_Field>
OPLS_2005

> <r_lp_Energy>
43.205963

> <b_lp_Chiralities_Consistent>
1

> <s_lp_Variant>
CHEMBL3880_lig918-1

> <s_i_glide_gridfile>
glide-grid_1uyg

> <i_i_glide_lignum>
1024

> <i_i_glide_rotatable_bonds>
8

> <r_i_docking_score>
-8.25371442829602

> <r_i_glide_ligand_efficiency>
-0.242756306714589

> <r_i_glide_ligand_efficiency_sa>
-0.786436195142699

> <r_i_glide_ligand_efficiency_ln>
-1.82347702605858

> <r_i_glide_gscore>
-8.25371442829602

> <r_i_glide_lipo>
-3.9530841423204

> <r_i_glide_hbond>
0

> <r_i_glide_metal>
0

> <r_i_glide_rewards>
-1.86116295108856

> <r_i_glide_evdw>
-51.456241607666

> <r_i_glide_ecoul>
-2.93066000938416

> <r_i_glide_erotb>
0.572943746903867

> <r_i_glide_esite>
0

> <r_i_glide_emodel>
-72.4200934017207

> <r_i_glide_energy>
-54.3869016170502

> <r_i_glide_einternal>
8.72951221466064

> <i_i_glide_confnum>
74

> <i_i_glide_posenum>
251

> <r_i_glide_eff_state_penalty>
0

> <s_user_duplicate_titles>
CHEMBL3880_lig918

> <i_f3d_flags>
0

> <s_m_subgroup_title>
dock_pv

> <s_m_subgroupid>
dock_pv

> <b_m_subgroup_collapsed>
1

$$$$
CHEMBL3880_lig147
                    3D
 Schrodinger Suite 2021-1.
 42 44  0  0  1  0            999 V2000
    4.1124    9.7901   23.3768 C   0  0  0  0  0  0
    2.9774    9.7150   24.3698 C   0  0  0  0  0  0
    2.9840    8.6859   25.3382 C   0  0  0  0  0  0
    1.9473    8.5590   26.2535 C   0  0  0  0  0  0
    0.8598    9.4169   26.2115 C   0  0  0  0  0  0
    0.7979   10.4223   25.2446 C   0  0  0  0  0  0
    1.8596   10.5972   24.3285 C   0  0  0  0  0  0
    1.7580   11.7557   23.3143 C   0  0  0  0  0  0
    2.0379   13.1170   23.9671 C   0  0  0  0  0  0
    3.3193   13.3254   24.6273 C   0  0  0  0  0  0
    3.7820   14.5437   24.9784 C   0  0  0  0  0  0
    5.0853   14.7724   25.5788 C   0  0  0  0  0  0
    6.2375   14.2077   25.1670 C   0  0  0  0  0  0
    6.3866   13.2959   23.9670 C   0  0  2  0  0  0
    7.2920   12.1027   23.9082 C   0  0  1  0  0  0
    7.1065   11.0189   22.8172 C   0  0  0  0  0  0
    6.5469    9.6319   23.2125 C   0  0  1  0  0  0
    7.5566    8.7583   23.9663 C   0  0  0  0  0  0
    5.3337    9.6987   23.9668 O   0  0  0  0  0  0
    3.9649    9.9689   22.1692 O   0  0  0  0  0  0
    3.9789    7.7430   25.4202 O   0  0  0  0  0  0
   -0.1371    9.2525   27.1403 O   0  0  0  0  0  0
   -0.6056   11.4494   25.2104 Cl  0  0  0  0  0  0
    1.1831   13.9974   23.8824 O   0  0  0  0  0  0
    7.6608   13.3498   23.3986 O   0  0  0  0  0  0
    7.8791   11.8192   24.7628 H   0  0  0  0  0  0
    5.5697   13.2944   23.2456 H   0  0  0  0  0  0
    1.9894    7.7721   26.9931 H   0  0  0  0  0  0
    0.7534   11.7682   22.8898 H   0  0  0  0  0  0
    2.4245   11.6501   22.4651 H   0  0  0  0  0  0
    3.9099   12.4412   24.8198 H   0  0  0  0  0  0
    3.1843   15.4177   24.7653 H   0  0  0  0  0  0
    5.1250   15.4131   26.4490 H   0  0  0  0  0  0
    7.1461   14.4246   25.7084 H   0  0  0  0  0  0
    8.0670   10.8735   22.3233 H   0  0  0  0  0  0
    6.4611   11.4020   22.0394 H   0  0  0  0  0  0
    6.3443    9.0928   22.2840 H   0  0  0  0  0  0
    8.4728    8.6459   23.3927 H   0  0  0  0  0  0
    7.8167    9.1694   24.9385 H   0  0  0  0  0  0
    7.1560    7.7577   24.1259 H   0  0  0  0  0  0
    4.6851    7.9071   24.7914 H   0  0  0  0  0  0
    0.0755    8.5786   27.7894 H   0  0  0  0  0  0
  1  2  1  0  0  0
  1 19  1  0  0  0
  1 20  2  0  0  0
  2  3  2  0  0  0
  2  7  1  0  0  0
  3  4  1  0  0  0
  3 21  1  0  0  0
  4  5  2  0  0  0
  4 28  1  0  0  0
  5  6  1  0  0  0
  5 22  1  0  0  0
  6  7  2  0  0  0
  6 23  1  0  0  0
  7  8  1  0  0  0
  8  9  1  0  0  0
  8 29  1  0  0  0
  8 30  1  0  0  0
  9 10  1  0  0  0
  9 24  2  0  0  0
 10 11  2  0  0  0
 10 31  1  0  0  0
 11 12  1  0  0  0
 11 32  1  0  0  0
 12 13  2  0  0  0
 12 33  1  0  0  0
 13 14  1  0  0  0
 13 34  1  0  0  0
 14 15  1  0  0  0
 14 25  1  0  0  0
 14 27  1  0  0  0
 15 16  1  0  0  0
 15 25  1  0  0  0
 15 26  1  0  0  0
 16 17  1  0  0  0
 16 35  1  0  0  0
 16 36  1  0  0  0
 17 18  1  0  0  0
 17 19  1  0  0  0
 17 37  1  0  0  0
 18 38  1  0  0  0
 18 39  1  0  0  0
 18 40  1  0  0  0
 21 41  1  0  0  0
 22 42  1  0  0  0
M  END
> <s_m_entry_id>
4877

> <s_m_entry_name>
dock_pv.196

> <s_m_Source_Path>
/home/csk/Desktop/cluster/DUD-E-result/hs90a

> <s_m_Source_File>
dock_pv.maegz

> <i_m_Source_File_Index>
196

> <chembl_id>
CHEMBL414883

> <chembl_pref_name>
RADICICOL

> <i_lp_mmshare_version>
53161

> <r_lp_tautomer_probability>
1

> <s_lp_Force_Field>
OPLS_2005

> <r_lp_Energy>
30.391296

> <b_lp_Chiralities_Consistent>
1

> <s_lp_Variant>
CHEMBL3880_lig147-1

> <s_i_glide_gridfile>
glide-grid_1uyg

> <i_i_glide_lignum>
167

> <i_i_glide_rotatable_bonds>
2

> <r_i_docking_score>
-8.25369681511774

> <r_i_glide_ligand_efficiency>
-0.33014787260471

> <r_i_glide_ligand_efficiency_sa>
-0.965358234693623

> <r_i_glide_ligand_efficiency_ln>
-1.95637348851707

> <r_i_glide_gscore>
-8.25369681511774

> <r_i_glide_lipo>
-4.04385969680482

> <r_i_glide_hbond>
0

> <r_i_glide_metal>
0

> <r_i_glide_rewards>
-2.31745900265893

> <r_i_glide_evdw>
-34.2497444152832

> <r_i_glide_ecoul>
-1.19927263259888

> <r_i_glide_erotb>
0

> <r_i_glide_esite>
0

> <r_i_glide_emodel>
-50.5838837831785

> <r_i_glide_energy>
-35.4490170478821

> <r_i_glide_einternal>
0.0252166148275137

> <i_i_glide_confnum>
1

> <i_i_glide_posenum>
32

> <r_i_glide_eff_state_penalty>
0

> <s_user_duplicate_titles>
CHEMBL3880_lig147

> <i_f3d_flags>
0

> <s_m_subgroup_title>
dock_pv

> <s_m_subgroupid>
dock_pv

> <b_m_subgroup_collapsed>
1

$$$$
CHEMBL3880_lig920
                    3D
 Schrodinger Suite 2021-1.
 59 62  0  0  1  0            999 V2000
   -1.9390   11.9694   23.1985 N   0  0  0  0  0  0
   -1.1246   12.5156   22.2596 C   0  0  0  0  0  0
    0.2365   12.5554   22.3055 N   0  0  0  0  0  0
    0.8160   12.0001   23.4103 C   0  0  0  0  0  0
   -1.7503   13.1045   21.1681 N   0  0  0  0  0  0
    2.2895   12.0928   23.5678 C   0  0  0  0  0  0
    2.8858   13.3181   23.9090 C   0  0  0  0  0  0
    4.2620   13.4046   24.1215 C   0  0  0  0  0  0
    5.0637   12.2799   23.9572 C   0  0  0  0  0  0
    4.4813   11.0507   23.6643 C   0  0  0  0  0  0
    3.0956   10.9411   23.4935 C   0  0  0  0  0  0
    2.5176    9.7322   23.1670 O   0  0  0  0  0  0
    1.9496   14.7689   23.9886 Cl  0  0  0  0  0  0
    2.8335    8.5928   23.9662 C   0  0  0  0  0  0
    2.9319    7.3268   23.0986 C   0  0  0  0  0  0
    4.2500    7.1111   22.3058 C   0  0  0  0  0  0
    6.7850   12.4252   23.9773 Cl  0  0  0  0  0  0
   -1.3234   11.4376   24.2829 C   0  0  0  0  0  0
    0.0490   11.4284   24.4197 C   0  0  0  0  0  0
    0.4438   10.8299   25.7252 C   0  0  0  0  0  0
   -0.8258   10.4479   26.3328 N   0  0  0  0  0  0
   -1.9764   10.8205   25.4969 C   0  0  0  0  0  0
   -0.9069    9.7269   27.4768 C   0  0  0  0  0  0
    0.2034    9.0139   27.7546 N   0  0  0  0  0  0
   -1.9388    9.6484   28.1417 O   0  0  0  0  0  0
    0.3404    7.9728   28.7574 C   0  0  0  0  0  0
    0.2365    6.5336   28.2349 C   0  0  0  0  0  0
    1.2933    6.1772   29.2930 C   0  0  0  0  0  0
    1.7766    7.6317   29.1770 C   0  0  0  0  0  0
    4.5870    8.2669   21.4440 C   0  0  0  0  0  0
    5.4177    6.8584   23.2892 C   0  0  0  0  0  0
    4.0659    5.8702   21.4073 C   0  0  0  0  0  0
    4.8610    9.1690   20.7664 N   0  0  0  0  0  0
   -2.7319   12.8929   21.0354 H   0  0  0  0  0  0
   -1.1840   13.4399   20.4054 H   0  0  0  0  0  0
    4.7172   14.3610   24.3365 H   0  0  0  0  0  0
    5.1142   10.1874   23.5216 H   0  0  0  0  0  0
    2.0004    8.4432   24.6513 H   0  0  0  0  0  0
    3.7125    8.7089   24.6008 H   0  0  0  0  0  0
    2.0846    7.3314   22.4095 H   0  0  0  0  0  0
    2.7628    6.4601   23.7396 H   0  0  0  0  0  0
    1.1364   10.0012   25.6244 H   0  0  0  0  0  0
    0.9191   11.5657   26.3622 H   0  0  0  0  0  0
   -2.6263   11.5213   26.0178 H   0  0  0  0  0  0
   -2.6016    9.9688   25.2391 H   0  0  0  0  0  0
    0.9403    9.0388   27.0669 H   0  0  0  0  0  0
   -0.3390    8.1706   29.5844 H   0  0  0  0  0  0
   -0.7406    6.0631   28.3412 H   0  0  0  0  0  0
    0.5895    6.3956   27.2081 H   0  0  0  0  0  0
    0.8740    5.9305   30.2712 H   0  0  0  0  0  0
    2.0170    5.4146   29.0035 H   0  0  0  0  0  0
    2.5259    7.7754   28.3948 H   0  0  0  0  0  0
    2.1261    8.1028   30.0977 H   0  0  0  0  0  0
    5.1929    6.0415   23.9762 H   0  0  0  0  0  0
    6.3373    6.5950   22.7670 H   0  0  0  0  0  0
    5.6460    7.7401   23.8884 H   0  0  0  0  0  0
    3.8285    4.9829   21.9936 H   0  0  0  0  0  0
    3.2547    6.0091   20.6918 H   0  0  0  0  0  0
    4.9655    5.6530   20.8323 H   0  0  0  0  0  0
  1 18  1  0  0  0
  1  2  2  0  0  0
  2  5  1  0  0  0
  2  3  1  0  0  0
  3  4  2  0  0  0
  4 19  1  0  0  0
  4  6  1  0  0  0
  5 34  1  0  0  0
  5 35  1  0  0  0
  6 11  1  0  0  0
  6  7  2  0  0  0
  7  8  1  0  0  0
  7 13  1  0  0  0
  8  9  2  0  0  0
  8 36  1  0  0  0
  9 17  1  0  0  0
  9 10  1  0  0  0
 10 11  2  0  0  0
 10 37  1  0  0  0
 11 12  1  0  0  0
 12 14  1  0  0  0
 14 15  1  0  0  0
 14 38  1  0  0  0
 14 39  1  0  0  0
 15 16  1  0  0  0
 15 40  1  0  0  0
 15 41  1  0  0  0
 16 30  1  0  0  0
 16 31  1  0  0  0
 16 32  1  0  0  0
 18 19  2  0  0  0
 18 22  1  0  0  0
 19 20  1  0  0  0
 20 21  1  0  0  0
 20 42  1  0  0  0
 20 43  1  0  0  0
 21 22  1  0  0  0
 21 23  1  0  0  0
 22 44  1  0  0  0
 22 45  1  0  0  0
 23 24  1  0  0  0
 23 25  2  0  0  0
 24 26  1  0  0  0
 24 46  1  0  0  0
 26 27  1  0  0  0
 26 29  1  0  0  0
 26 47  1  0  0  0
 27 28  1  0  0  0
 27 48  1  0  0  0
 27 49  1  0  0  0
 28 29  1  0  0  0
 28 50  1  0  0  0
 28 51  1  0  0  0
 29 52  1  0  0  0
 29 53  1  0  0  0
 30 33  3  0  0  0
 31 54  1  0  0  0
 31 55  1  0  0  0
 31 56  1  0  0  0
 32 57  1  0  0  0
 32 58  1  0  0  0
 32 59  1  0  0  0
M  END
> <s_m_entry_id>
4878

> <s_m_entry_name>
dock_pv.197

> <s_m_Source_Path>
/home/csk/Desktop/cluster/DUD-E-result/hs90a

> <s_m_Source_File>
dock_pv.maegz

> <i_m_Source_File_Index>
197

> <chembl_id>
CHEMBL1774913

> <chembl_pref_name>
None

> <i_lp_mmshare_version>
53161

> <r_lp_tautomer_probability>
0.999999987636

> <s_lp_Force_Field>
OPLS_2005

> <r_lp_Energy>
42.76396

> <b_lp_Chiralities_Consistent>
1

> <s_lp_Variant>
CHEMBL3880_lig920-1

> <s_i_glide_gridfile>
glide-grid_1uyg

> <i_i_glide_lignum>
1026

> <i_i_glide_rotatable_bonds>
8

> <r_i_docking_score>
-8.25334108727834

> <r_i_glide_ligand_efficiency>
-0.250101245069041

> <r_i_glide_ligand_efficiency_sa>
-0.802208328598671

> <r_i_glide_ligand_efficiency_ln>
-1.8355003242976

> <r_i_glide_gscore>
-8.25334108727834

> <r_i_glide_lipo>
-3.37990034167583

> <r_i_glide_hbond>
-0.0261438147644114

> <r_i_glide_metal>
0

> <r_i_glide_rewards>
-1.56185178614109

> <r_i_glide_evdw>
-55.9464988708496

> <r_i_glide_ecoul>
-7.04434967041016

> <r_i_glide_erotb>
0.594559055470991

> <r_i_glide_esite>
-0.0260268060639962

> <r_i_glide_emodel>
-86.6129229466613

> <r_i_glide_energy>
-62.9908485412598

> <r_i_glide_einternal>
8.50647258758545

> <i_i_glide_confnum>
130

> <i_i_glide_posenum>
159

> <r_i_glide_eff_state_penalty>
0

> <s_user_duplicate_titles>
CHEMBL3880_lig920

> <i_f3d_flags>
0

> <s_m_subgroup_title>
dock_pv

> <s_m_subgroupid>
dock_pv

> <b_m_subgroup_collapsed>
1

$$$$
CHEMBL3880_lig761
                    3D
 Schrodinger Suite 2021-1.
 31 34  0  0  1  0            999 V2000
   -1.4910   10.9018   25.6428 N   0  0  0  0  0  0
   -1.0319   11.4230   24.4828 C   0  0  0  0  0  0
    0.2230   11.3441   23.9894 N   0  0  0  0  0  0
   -0.6181   10.1799   26.3909 C   0  0  0  0  0  0
    0.7043    9.9706   25.9639 C   0  0  0  0  0  0
    1.0416   10.6011   24.7587 N   0  0  0  0  0  0
    2.3741   10.3107   24.5473 C   0  0  0  0  0  0
    2.8614    9.5445   25.5070 N   0  0  0  0  0  0
    1.8920    9.3129   26.3667 C   0  0  0  0  0  0
   -1.1437    9.5302   27.9021 Cl  0  0  0  0  0  0
   -1.9391   12.1074   23.6983 N   0  0  0  0  0  0
    3.1860   10.8493   23.3770 C   0  0  0  0  0  0
    4.1452   11.9614   23.7886 C   0  0  0  0  0  0
    5.5316   11.8254   23.5670 C   0  0  0  0  0  0
    6.4266   12.8313   23.9670 C   0  0  0  0  0  0
    3.6425   13.1287   24.3911 C   0  0  0  0  0  0
    4.5500   14.1121   24.7679 C   0  0  0  0  0  0
    5.8931   13.9690   24.5645 C   0  0  0  0  0  0
    6.5429   15.0497   25.0693 O   0  0  0  0  0  0
    5.5403   15.9647   25.4263 C   0  0  0  0  0  0
    4.3123   15.2868   25.4082 O   0  0  0  0  0  0
    2.0583    8.7147   27.2516 H   0  0  0  0  0  0
   -1.6371   12.4415   22.7987 H   0  0  0  0  0  0
   -2.9214   12.1150   23.9683 H   0  0  0  0  0  0
    3.7426   10.0364   22.9091 H   0  0  0  0  0  0
    2.5364   11.2407   22.5927 H   0  0  0  0  0  0
    5.9211   10.9294   23.1072 H   0  0  0  0  0  0
    7.4897   12.7169   23.8139 H   0  0  0  0  0  0
    2.5844   13.2481   24.5732 H   0  0  0  0  0  0
    5.7341   16.3692   26.4202 H   0  0  0  0  0  0
    5.5147   16.7693   24.6905 H   0  0  0  0  0  0
  1  2  1  0  0  0
  1  4  2  0  0  0
  2  3  2  0  0  0
  2 11  1  0  0  0
  3  6  1  0  0  0
  4  5  1  0  0  0
  4 10  1  0  0  0
  5  6  1  0  0  0
  5  9  2  0  0  0
  6  7  1  0  0  0
  7  8  2  0  0  0
  7 12  1  0  0  0
  8  9  1  0  0  0
  9 22  1  0  0  0
 11 23  1  0  0  0
 11 24  1  0  0  0
 12 13  1  0  0  0
 12 25  1  0  0  0
 12 26  1  0  0  0
 13 14  2  0  0  0
 13 16  1  0  0  0
 14 15  1  0  0  0
 14 27  1  0  0  0
 15 18  2  0  0  0
 15 28  1  0  0  0
 16 17  2  0  0  0
 16 29  1  0  0  0
 17 18  1  0  0  0
 17 21  1  0  0  0
 18 19  1  0  0  0
 19 20  1  0  0  0
 20 21  1  0  0  0
 20 30  1  0  0  0
 20 31  1  0  0  0
M  END
> <s_m_entry_id>
4879

> <s_m_entry_name>
dock_pv.198

> <s_m_Source_Path>
/home/csk/Desktop/cluster/DUD-E-result/hs90a

> <s_m_Source_File>
dock_pv.maegz

> <i_m_Source_File_Index>
198

> <chembl_id>
CHEMBL4103668

> <chembl_pref_name>
None

> <i_lp_mmshare_version>
53161

> <r_lp_tautomer_probability>
1

> <s_lp_Force_Field>
OPLS_2005

> <r_lp_Energy>
32.470758

> <b_lp_Chiralities_Consistent>
1

> <s_lp_Variant>
CHEMBL3880_lig761-1

> <s_i_glide_gridfile>
glide-grid_1uyg

> <i_i_glide_lignum>
862

> <i_i_glide_rotatable_bonds>
2

> <r_i_docking_score>
-8.24649560284848

> <r_i_glide_ligand_efficiency>
-0.392690266802309

> <r_i_glide_ligand_efficiency_sa>
-1.08340266981096

> <r_i_glide_ligand_efficiency_ln>
-2.0389293741909

> <r_i_glide_gscore>
-8.24649560284848

> <r_i_glide_lipo>
-2.70739786935307

> <r_i_glide_hbond>
-0.16

> <r_i_glide_metal>
0

> <r_i_glide_rewards>
-3.36118067971127

> <r_i_glide_evdw>
-38.152702331543

> <r_i_glide_ecoul>
-3.25446343421936

> <r_i_glide_erotb>
0.399653635976755

> <r_i_glide_esite>
-0.0217660580508443

> <r_i_glide_emodel>
-62.2527069818707

> <r_i_glide_energy>
-41.4071657657623

> <r_i_glide_einternal>
0.241309598088264

> <i_i_glide_confnum>
1

> <i_i_glide_posenum>
100

> <r_i_glide_eff_state_penalty>
0

> <s_user_duplicate_titles>
CHEMBL3880_lig761

> <i_f3d_flags>
0

> <s_m_subgroup_title>
dock_pv

> <s_m_subgroupid>
dock_pv

> <b_m_subgroup_collapsed>
1

$$$$
CHEMBL3880_lig329
                    3D
 Schrodinger Suite 2021-1.
 44 47  0  0  1  0            999 V2000
    6.9468    9.9820   22.7493 C   0  0  0  0  0  0
    6.1743    8.8250   22.8097 C   0  0  0  0  0  0
    4.9288    8.8264   23.4307 C   0  0  0  0  0  0
    4.4279   10.0011   24.0159 C   0  0  0  0  0  0
    5.1976   11.1690   23.9558 C   0  0  0  0  0  0
    6.4554   11.1633   23.3365 C   0  0  0  0  0  0
    8.0598    9.9291   22.1315 O   0  5  0  0  0  0
    4.2186    7.6539   23.4223 O   0  0  0  0  0  0
    3.1093   10.0067   24.7587 C   0  0  0  0  0  0
    2.9265    9.1856   25.6594 O   0  0  0  0  0  0
    7.2589   12.4365   23.2051 N   0  3  0  0  0  0
    2.1715   10.9265   24.4189 N   0  0  0  0  0  0
    0.8540   10.9567   25.0583 C   0  0  0  0  0  0
    2.2433   11.8480   23.2834 C   0  0  0  0  0  0
    0.7893   12.0832   22.9692 C   0  0  0  0  0  0
   -0.0087   11.5713   23.9877 C   0  0  0  0  0  0
   -1.3972   11.6748   23.9112 C   0  0  0  0  0  0
   -1.9794   12.2736   22.7951 C   0  0  0  0  0  0
   -1.1842   12.7689   21.7634 C   0  0  0  0  0  0
    0.2060   12.6989   21.8613 C   0  0  0  0  0  0
    7.1536   13.3948   24.3373 C   0  0  0  0  0  0
    6.0462   14.2431   24.4026 C   0  0  0  0  0  0
    5.9500   15.1306   25.4704 C   0  0  0  0  0  0
    6.9624   15.1688   26.4268 C   0  0  0  0  0  0
    8.0994   14.3692   26.3117 C   0  0  0  0  0  0
    8.2059   13.4761   25.2483 C   0  0  0  0  0  0
    6.5367    7.9084   22.3678 H   0  0  0  0  0  0
    4.8013   12.0634   24.4084 H   0  0  0  0  0  0
    8.2318   12.1873   23.0665 H   0  0  0  0  0  0
    4.6771    6.9526   22.9560 H   0  0  0  0  0  0
    7.0065   12.9038   22.3482 H   0  0  0  0  0  0
    0.8769   11.5663   25.9619 H   0  0  0  0  0  0
    0.5178    9.9562   25.3374 H   0  0  0  0  0  0
    2.7786   11.4084   22.4415 H   0  0  0  0  0  0
    2.7468   12.7729   23.5675 H   0  0  0  0  0  0
   -2.0369   11.2926   24.6936 H   0  0  0  0  0  0
   -3.0571   12.3536   22.7347 H   0  0  0  0  0  0
   -1.6487   13.2247   20.9009 H   0  0  0  0  0  0
    0.8129   13.1075   21.0690 H   0  0  0  0  0  0
    5.2565   14.2084   23.6643 H   0  0  0  0  0  0
    5.0918   15.7806   25.5631 H   0  0  0  0  0  0
    6.8638   15.8494   27.2611 H   0  0  0  0  0  0
    8.8801   14.4300   27.0573 H   0  0  0  0  0  0
    9.0715   12.8326   25.1693 H   0  0  0  0  0  0
  1  2  2  0  0  0
  1  7  1  0  0  0
  1  6  1  0  0  0
  2  3  1  0  0  0
  2 27  1  0  0  0
  3  4  2  0  0  0
  3  8  1  0  0  0
  4  5  1  0  0  0
  4  9  1  0  0  0
  5 28  1  0  0  0
  5  6  2  0  0  0
  6 11  1  0  0  0
  8 30  1  0  0  0
  9 10  2  0  0  0
  9 12  1  0  0  0
 11 21  1  0  0  0
 11 29  1  0  0  0
 11 31  1  0  0  0
 12 13  1  0  0  0
 12 14  1  0  0  0
 13 16  1  0  0  0
 13 32  1  0  0  0
 13 33  1  0  0  0
 14 15  1  0  0  0
 14 34  1  0  0  0
 14 35  1  0  0  0
 15 16  2  0  0  0
 15 20  1  0  0  0
 16 17  1  0  0  0
 17 18  2  0  0  0
 17 36  1  0  0  0
 18 19  1  0  0  0
 18 37  1  0  0  0
 19 20  2  0  0  0
 19 38  1  0  0  0
 20 39  1  0  0  0
 21 22  2  0  0  0
 21 26  1  0  0  0
 22 23  1  0  0  0
 22 40  1  0  0  0
 23 24  2  0  0  0
 23 41  1  0  0  0
 24 25  1  0  0  0
 24 42  1  0  0  0
 25 26  2  0  0  0
 25 43  1  0  0  0
 26 44  1  0  0  0
M  CHG  2   7  -1  11   1
M  END
> <s_m_entry_id>
4880

> <s_m_entry_name>
dock_pv.199

> <s_m_Source_Path>
/home/csk/Desktop/cluster/DUD-E-result/hs90a

> <s_m_Source_File>
dock_pv.maegz

> <i_m_Source_File_Index>
199

> <chembl_id>
CHEMBL3260492

> <chembl_pref_name>
None

> <i_lp_mmshare_version>
53161

> <r_lp_tautomer_probability>
0.998816439804576

> <s_lp_Force_Field>
OPLS_2005

> <r_lp_Energy>
26.361662

> <b_lp_Chiralities_Consistent>
1

> <s_lp_Variant>
CHEMBL3880_lig329-1

> <s_i_glide_gridfile>
glide-grid_1uyg

> <i_i_glide_lignum>
366

> <i_i_glide_rotatable_bonds>
5

> <r_i_docking_score>
-8.24317485650263

> <r_i_glide_ligand_efficiency>
-0.317045186788563

> <r_i_glide_ligand_efficiency_sa>
-0.939245118348547

> <r_i_glide_ligand_efficiency_ln>
-1.9358825669868

> <r_i_glide_gscore>
-8.24317485650263

> <r_i_glide_lipo>
-4.38575005703036

> <r_i_glide_hbond>
0

> <r_i_glide_metal>
0

> <r_i_glide_rewards>
-2.05559447522492

> <r_i_glide_evdw>
-40.977840423584

> <r_i_glide_ecoul>
-2.57843089103699

> <r_i_glide_erotb>
0.633826330587397

> <r_i_glide_esite>
0

> <r_i_glide_emodel>
-64.6335843426203

> <r_i_glide_energy>
-43.556271314621

> <r_i_glide_einternal>
4.42543315887451

> <i_i_glide_confnum>
25

> <i_i_glide_posenum>
356

> <r_i_glide_eff_state_penalty>
0

> <s_user_duplicate_titles>
CHEMBL3880_lig329

> <i_f3d_flags>
0

> <s_m_subgroup_title>
dock_pv

> <s_m_subgroupid>
dock_pv

> <b_m_subgroup_collapsed>
1

$$$$
CHEMBL3880_lig324
                    3D
 Schrodinger Suite 2021-1.
 48 52  0  0  1  0            999 V2000
    0.3109    9.0174   27.6826 C   0  0  0  0  0  0
    1.1243    8.1018   28.3449 C   0  0  0  0  0  0
    2.2082    7.5061   27.6976 C   0  0  0  0  0  0
    2.5099    7.8112   26.3508 C   0  0  0  0  0  0
    1.6418    8.6968   25.6947 C   0  0  0  0  0  0
    0.5850    9.3442   26.3465 C   0  0  0  0  0  0
   -0.7433    9.5649   28.3669 O   0  0  0  0  0  0
    2.9558    6.6173   28.4261 O   0  0  0  0  0  0
    3.7029    7.1696   25.6308 C   0  0  0  0  0  0
    4.1393    6.1016   26.0705 O   0  0  0  0  0  0
   -0.1559   10.3031   25.6056 N   0  0  0  0  0  0
   -1.9392   11.1557   24.5462 C   0  0  0  0  0  0
   -1.5221   10.4537   25.6371 C   0  0  0  0  0  0
   -0.7917   11.6584   23.8880 C   0  0  0  0  0  0
    0.3311   11.1702   24.6222 C   0  0  0  0  0  0
    1.6367   11.5580   24.2875 C   0  0  0  0  0  0
    1.8047   12.3531   23.1563 C   0  0  0  0  0  0
    0.7206   12.7699   22.3937 C   0  0  0  0  0  0
   -0.5896   12.4600   22.7520 C   0  0  0  0  0  0
    4.3042    7.7701   24.5575 N   0  0  0  0  0  0
    5.5039    7.2071   23.9156 C   0  0  0  0  0  0
    4.1031    9.1457   24.0949 C   0  0  0  0  0  0
    5.4474    9.5524   23.5673 C   0  0  0  0  0  0
    6.2726    8.4403   23.4920 C   0  0  0  0  0  0
    7.5898    8.5841   23.0514 C   0  0  0  0  0  0
    8.0609    9.8471   22.6826 C   0  0  0  0  0  0
    7.2288   10.9625   22.7659 C   0  0  0  0  0  0
    5.9146   10.8164   23.2060 C   0  0  0  0  0  0
   -1.7151   12.9934   21.9660 N   0  3  0  0  0  0
   -2.7391   13.3049   22.5551 O   0  0  0  0  0  0
   -1.5390   13.1690   20.7671 O   0  5  0  0  0  0
    0.9222    7.8499   29.3759 H   0  0  0  0  0  0
    1.7434    8.8680   24.6368 H   0  0  0  0  0  0
   -0.7324    9.3705   29.3127 H   0  0  0  0  0  0
    3.6287    6.2209   27.8589 H   0  0  0  0  0  0
   -2.9671   11.2842   24.2616 H   0  0  0  0  0  0
   -2.1231    9.9689   26.3852 H   0  0  0  0  0  0
    2.4814   11.2753   24.8912 H   0  0  0  0  0  0
    2.7993   12.6639   22.8689 H   0  0  0  0  0  0
    0.8700   13.3997   21.5302 H   0  0  0  0  0  0
    5.2236    6.5995   23.0543 H   0  0  0  0  0  0
    6.0843    6.5804   24.5950 H   0  0  0  0  0  0
    3.8339    9.7868   24.9305 H   0  0  0  0  0  0
    3.3445    9.2018   23.3133 H   0  0  0  0  0  0
    8.2445    7.7282   22.9740 H   0  0  0  0  0  0
    9.0729    9.9723   22.3315 H   0  0  0  0  0  0
    7.6038   11.9366   22.4874 H   0  0  0  0  0  0
    5.2777   11.6865   23.2737 H   0  0  0  0  0  0
  1  2  2  0  0  0
  1  6  1  0  0  0
  1  7  1  0  0  0
  2  3  1  0  0  0
  2 32  1  0  0  0
  3  4  2  0  0  0
  3  8  1  0  0  0
  4  5  1  0  0  0
  4  9  1  0  0  0
  5  6  2  0  0  0
  5 33  1  0  0  0
  6 11  1  0  0  0
  7 34  1  0  0  0
  8 35  1  0  0  0
  9 10  2  0  0  0
  9 20  1  0  0  0
 11 15  1  0  0  0
 11 13  1  0  0  0
 12 14  1  0  0  0
 12 13  2  0  0  0
 12 36  1  0  0  0
 13 37  1  0  0  0
 14 15  2  0  0  0
 14 19  1  0  0  0
 15 16  1  0  0  0
 16 17  2  0  0  0
 16 38  1  0  0  0
 17 18  1  0  0  0
 17 39  1  0  0  0
 18 19  2  0  0  0
 18 40  1  0  0  0
 19 29  1  0  0  0
 20 21  1  0  0  0
 20 22  1  0  0  0
 21 24  1  0  0  0
 21 41  1  0  0  0
 21 42  1  0  0  0
 22 23  1  0  0  0
 22 43  1  0  0  0
 22 44  1  0  0  0
 23 24  2  0  0  0
 23 28  1  0  0  0
 24 25  1  0  0  0
 25 26  2  0  0  0
 25 45  1  0  0  0
 26 27  1  0  0  0
 26 46  1  0  0  0
 27 28  2  0  0  0
 27 47  1  0  0  0
 28 48  1  0  0  0
 29 30  2  0  0  0
 29 31  1  0  0  0
M  CHG  2  29   1  31  -1
M  END
> <s_m_entry_id>
4881

> <s_m_entry_name>
dock_pv.200

> <s_m_Source_Path>
/home/csk/Desktop/cluster/DUD-E-result/hs90a

> <s_m_Source_File>
dock_pv.maegz

> <i_m_Source_File_Index>
200

> <chembl_id>
CHEMBL3260487

> <chembl_pref_name>
None

> <i_lp_mmshare_version>
53161

> <r_lp_tautomer_probability>
1

> <s_lp_Force_Field>
OPLS_2005

> <r_lp_Energy>
42.66217

> <b_lp_Chiralities_Consistent>
1

> <s_lp_Variant>
CHEMBL3880_lig324-1

> <s_i_glide_gridfile>
glide-grid_1uyg

> <i_i_glide_lignum>
361

> <i_i_glide_rotatable_bonds>
6

> <r_i_docking_score>
-8.22216147399849

> <r_i_glide_ligand_efficiency>
-0.265231015290274

> <r_i_glide_ligand_efficiency_sa>
-0.833191578893269

> <r_i_glide_ligand_efficiency_ln>
-1.85434939137431

> <r_i_glide_gscore>
-8.22216147399849

> <r_i_glide_lipo>
-3.9665778112036

> <r_i_glide_hbond>
-0.32

> <r_i_glide_metal>
0

> <r_i_glide_rewards>
-1.42620492533515

> <r_i_glide_evdw>
-47.5393867492676

> <r_i_glide_ecoul>
-3.17142796516418

> <r_i_glide_erotb>
0.343304794778269

> <r_i_glide_esite>
0

> <r_i_glide_emodel>
-69.6614998189555

> <r_i_glide_energy>
-50.7108147144318

> <r_i_glide_einternal>
4.43159818649292

> <i_i_glide_confnum>
14

> <i_i_glide_posenum>
284

> <r_i_glide_eff_state_penalty>
0

> <s_user_duplicate_titles>
CHEMBL3880_lig324

> <i_f3d_flags>
0

> <s_m_subgroup_title>
dock_pv

> <s_m_subgroupid>
dock_pv

> <b_m_subgroup_collapsed>
1

$$$$
CHEMBL3880_lig948
                    3D
 Schrodinger Suite 2021-1.
 63 67  0  0  1  0            999 V2000
    5.0866    7.2804   22.5966 C   0  0  0  0  0  0
    5.4301    8.7863   22.4767 C   0  0  0  0  0  0
    5.3959    9.3217   21.0230 C   0  0  0  0  0  0
    0.7325   10.7017   24.9310 C   0  0  0  0  0  0
    2.1096   10.9062   24.8405 C   0  0  0  0  0  0
    2.6495   11.9714   24.1161 C   0  0  0  0  0  0
    1.7981   12.9107   23.5407 C   0  0  0  0  0  0
    0.4232   12.7584   23.6618 C   0  0  0  0  0  0
   -0.1246   11.6572   24.3421 C   0  0  0  0  0  0
   -1.6184   11.5510   24.4680 C   0  0  0  0  0  0
   -2.1474   11.1672   25.5079 O   0  0  0  0  0  0
   -2.3390   11.9253   23.4167 N   0  0  0  0  0  0
    4.0470   12.0437   23.9487 N   0  0  0  0  0  0
    4.8597   10.9726   23.6293 C   0  0  0  0  0  0
    6.1850   11.3860   23.6060 C   0  0  0  0  0  0
    7.2801   10.4474   23.3341 C   0  0  0  0  0  0
    6.8448    8.9869   23.0983 C   0  0  0  0  0  0
    4.3717    9.5605   23.3036 C   0  0  0  0  0  0
    8.4610   10.7690   23.2806 O   0  0  0  0  0  0
    6.1964   12.7523   23.9671 C   0  0  0  0  0  0
    4.8684   13.1363   24.1408 C   0  0  0  0  0  0
    4.4279   14.5457   24.5119 C   0  0  0  0  0  0
    5.4511   15.2503   25.2925 N   0  0  2  0  0  0
    6.8271   15.1174   24.7932 C   0  0  0  0  0  0
    7.3250   13.7193   24.2969 C   0  0  0  0  0  0
    5.3073   15.0231   26.7217 C   0  0  0  0  0  0
    0.2169    9.5382   25.5454 N   0  0  0  0  0  0
    1.0336    8.4299   26.0283 C   0  0  0  0  0  0
    1.4316    7.4603   24.9032 C   0  0  0  0  0  0
    1.6668    6.0058   25.2180 C   0  0  0  0  0  0
    0.4620    6.4276   24.3921 C   0  0  0  0  0  0
    5.9385    6.6426   22.3670 H   0  0  0  0  0  0
    4.7863    6.9998   23.6068 H   0  0  0  0  0  0
    4.2689    7.0027   21.9305 H   0  0  0  0  0  0
    6.0613    8.7690   20.3672 H   0  0  0  0  0  0
    4.3958    9.2354   20.5965 H   0  0  0  0  0  0
    5.6867   10.3689   20.9667 H   0  0  0  0  0  0
    2.7816   10.2166   25.3204 H   0  0  0  0  0  0
    2.1877   13.7543   22.9932 H   0  0  0  0  0  0
   -0.2136   13.5136   23.2217 H   0  0  0  0  0  0
   -3.3489   11.9691   23.5671 H   0  0  0  0  0  0
   -1.9355   12.1134   22.5145 H   0  0  0  0  0  0
    6.8666    8.5215   24.0838 H   0  0  0  0  0  0
    7.6145    8.4859   22.5097 H   0  0  0  0  0  0
    4.2578    9.0603   24.2657 H   0  0  0  0  0  0
    3.3984    9.5447   22.8091 H   0  0  0  0  0  0
    4.3718   15.0779   23.5671 H   0  0  0  0  0  0
    3.4356   14.6107   24.9603 H   0  0  0  0  0  0
    6.8659   15.8083   23.9635 H   0  0  0  0  0  0
    7.5473   15.5766   25.4719 H   0  0  0  0  0  0
    7.8771   13.2631   25.1189 H   0  0  0  0  0  0
    8.0613   13.8324   23.5035 H   0  0  0  0  0  0
    6.1188   15.4812   27.2891 H   0  0  0  0  0  0
    4.3735   15.4668   27.0692 H   0  0  0  0  0  0
    5.2609   13.9690   26.9528 H   0  0  0  0  0  0
   -0.7620    9.3444   25.3803 H   0  0  0  0  0  0
    0.4577    7.9145   26.7980 H   0  0  0  0  0  0
    1.9240    8.7875   26.5448 H   0  0  0  0  0  0
    2.0804    7.9297   24.1640 H   0  0  0  0  0  0
    1.5145    5.6556   26.2392 H   0  0  0  0  0  0
    2.4949    5.4964   24.7239 H   0  0  0  0  0  0
    0.4609    6.2178   23.3212 H   0  0  0  0  0  0
   -0.5375    6.3847   24.8275 H   0  0  0  0  0  0
  1  2  1  0  0  0
  1 32  1  0  0  0
  1 33  1  0  0  0
  1 34  1  0  0  0
  2  3  1  0  0  0
  2 17  1  0  0  0
  2 18  1  0  0  0
  3 35  1  0  0  0
  3 36  1  0  0  0
  3 37  1  0  0  0
  4  5  2  0  0  0
  4  9  1  0  0  0
  4 27  1  0  0  0
  5  6  1  0  0  0
  5 38  1  0  0  0
  6  7  2  0  0  0
  6 13  1  0  0  0
  7  8  1  0  0  0
  7 39  1  0  0  0
  8  9  2  0  0  0
  8 40  1  0  0  0
  9 10  1  0  0  0
 10 11  2  0  0  0
 10 12  1  0  0  0
 12 41  1  0  0  0
 12 42  1  0  0  0
 13 21  1  0  0  0
 13 14  1  0  0  0
 14 15  2  0  0  0
 14 18  1  0  0  0
 15 20  1  0  0  0
 15 16  1  0  0  0
 16 17  1  0  0  0
 16 19  2  0  0  0
 17 43  1  0  0  0
 17 44  1  0  0  0
 18 45  1  0  0  0
 18 46  1  0  0  0
 20 21  2  0  0  0
 20 25  1  0  0  0
 21 22  1  0  0  0
 22 23  1  0  0  0
 22 47  1  0  0  0
 22 48  1  0  0  0
 23 24  1  0  0  0
 23 26  1  0  0  0
 24 25  1  0  0  0
 24 49  1  0  0  0
 24 50  1  0  0  0
 25 51  1  0  0  0
 25 52  1  0  0  0
 26 53  1  0  0  0
 26 54  1  0  0  0
 26 55  1  0  0  0
 27 28  1  0  0  0
 27 56  1  0  0  0
 28 29  1  0  0  0
 28 57  1  0  0  0
 28 58  1  0  0  0
 29 30  1  0  0  0
 29 31  1  0  0  0
 29 59  1  0  0  0
 30 31  1  0  0  0
 30 60  1  0  0  0
 30 61  1  0  0  0
 31 62  1  0  0  0
 31 63  1  0  0  0
M  END
> <s_m_entry_id>
4882

> <s_m_entry_name>
dock_pv.201

> <s_m_Source_Path>
/home/csk/Desktop/cluster/DUD-E-result/hs90a

> <s_m_Source_File>
dock_pv.maegz

> <i_m_Source_File_Index>
201

> <chembl_id>
CHEMBL3235336

> <chembl_pref_name>
None

> <i_lp_mmshare_version>
53161

> <r_lp_tautomer_probability>
0.99995

> <s_lp_Force_Field>
OPLS_2005

> <r_lp_Energy>
51.010189

> <b_lp_Chiralities_Consistent>
1

> <s_lp_Variant>
CHEMBL3880_lig948-1

> <s_i_glide_gridfile>
glide-grid_1uyg

> <i_i_glide_lignum>
1057

> <i_i_glide_rotatable_bonds>
5

> <r_i_docking_score>
-8.22109473630683

> <r_i_glide_ligand_efficiency>
-0.265196604396995

> <r_i_glide_ligand_efficiency_sa>
-0.833083481179014

> <r_i_glide_ligand_efficiency_ln>
-1.85410880933325

> <r_i_glide_gscore>
-8.22109473630683

> <r_i_glide_lipo>
-4.22310373366742

> <r_i_glide_hbond>
-0.16

> <r_i_glide_metal>
0

> <r_i_glide_rewards>
-1.63962816761027

> <r_i_glide_evdw>
-45.7748146057129

> <r_i_glide_ecoul>
-2.07494711875916

> <r_i_glide_erotb>
0.447663053267853

> <r_i_glide_esite>
-0.0460430901974745

> <r_i_glide_emodel>
-59.8603921049392

> <r_i_glide_energy>
-47.849761724472

> <r_i_glide_einternal>
1.68835771083832

> <i_i_glide_confnum>
10

> <i_i_glide_posenum>
60

> <r_i_glide_eff_state_penalty>
0

> <s_user_duplicate_titles>
CHEMBL3880_lig948

> <i_f3d_flags>
0

> <s_m_subgroup_title>
dock_pv

> <s_m_subgroupid>
dock_pv

> <b_m_subgroup_collapsed>
1

$$$$
CHEMBL3880_lig894
                    3D
 Schrodinger Suite 2021-1.
 49 51  0  0  1  0            999 V2000
    2.6381   11.2302   23.5536 C   0  0  0  0  0  0
    3.7111   11.8852   24.0642 N   0  0  0  0  0  0
    2.9717   10.2412   22.7670 N   0  0  0  0  0  0
    4.3099   10.2227   22.7771 C   0  0  0  0  0  0
    4.8184   11.2186   23.5917 C   0  0  0  0  0  0
    0.9474   11.6019   23.9087 S   0  0  0  0  0  0
    5.2346    9.3901   22.1071 C   0  0  0  0  0  0
    6.1373   11.4379   23.8165 N   0  0  0  0  0  0
    0.0253    8.8623   27.4675 C   0  0  0  0  0  0
    1.1696    8.5994   26.6954 C   0  0  0  0  0  0
   -0.8302    9.9200   27.1265 C   0  0  0  0  0  0
    0.6260   10.5122   25.2786 C   0  0  0  0  0  0
    6.5617    9.6005   22.3052 N   0  0  0  0  0  0
   -0.5200   10.7370   26.0337 C   0  0  0  0  0  0
    1.4614    9.4408   25.6117 C   0  0  0  0  0  0
    6.2302   14.8750   25.9669 C   0  0  0  0  0  0
    6.6878   15.1755   27.0571 C   0  0  0  0  0  0
    6.9186   10.5865   23.1364 C   0  0  0  0  0  0
    3.6612   13.0444   24.9943 C   0  0  0  0  0  0
    4.8603    8.3691   21.2395 N   0  0  0  0  0  0
   -0.3388    8.0393   28.5105 O   0  0  0  0  0  0
   -1.9645   10.1045   27.8903 O   0  0  0  0  0  0
    1.9387    7.4977   27.0300 O   0  0  0  0  0  0
    5.7612   14.6291   24.5961 C   0  0  0  0  0  0
    0.5582    7.9899   29.6143 C   0  0  0  0  0  0
    4.2544   14.3504   24.4206 C   0  0  0  0  0  0
    3.0806    7.1651   26.2476 C   0  0  0  0  0  0
   -3.1396   10.5473   27.2139 C   0  0  0  0  0  0
   -1.1641   11.5594   25.7608 H   0  0  0  0  0  0
    2.3352    9.2346   25.0207 H   0  0  0  0  0  0
    7.1205   15.5205   27.9670 H   0  0  0  0  0  0
    7.9826   10.7161   23.2752 H   0  0  0  0  0  0
    2.6060   13.2313   25.1672 H   0  0  0  0  0  0
    4.0613   12.7276   25.9512 H   0  0  0  0  0  0
    3.8812    8.1391   21.1334 H   0  0  0  0  0  0
    5.5893    7.7421   20.9180 H   0  0  0  0  0  0
    6.3868   13.8616   24.1533 H   0  0  0  0  0  0
    6.0085   15.5428   24.0613 H   0  0  0  0  0  0
    0.0610    7.5172   30.4606 H   0  0  0  0  0  0
    1.4518    7.4042   29.4028 H   0  0  0  0  0  0
    0.8613    8.9878   29.9329 H   0  0  0  0  0  0
    4.0331   14.3691   23.3605 H   0  0  0  0  0  0
    3.7041   15.1930   24.8444 H   0  0  0  0  0  0
    3.5619    6.2829   26.6682 H   0  0  0  0  0  0
    2.8037    6.9327   25.2185 H   0  0  0  0  0  0
    3.8165    7.9689   26.2478 H   0  0  0  0  0  0
   -4.0066   10.4517   27.8677 H   0  0  0  0  0  0
   -3.0839   11.5678   26.8907 H   0  0  0  0  0  0
   -3.3267    9.9726   26.3083 H   0  0  0  0  0  0
  1  2  1  0  0  0
  1  3  2  0  0  0
  1  6  1  0  0  0
  2  5  1  0  0  0
  2 19  1  0  0  0
  3  4  1  0  0  0
  4  7  2  0  0  0
  4  5  1  0  0  0
  5  8  2  0  0  0
  6 12  1  0  0  0
  7 13  1  0  0  0
  7 20  1  0  0  0
  8 18  1  0  0  0
  9 10  1  0  0  0
  9 21  1  0  0  0
  9 11  2  0  0  0
 10 15  2  0  0  0
 10 23  1  0  0  0
 11 14  1  0  0  0
 11 22  1  0  0  0
 12 14  2  0  0  0
 12 15  1  0  0  0
 13 18  2  0  0  0
 14 29  1  0  0  0
 15 30  1  0  0  0
 16 24  1  0  0  0
 16 17  3  0  0  0
 17 31  1  0  0  0
 18 32  1  0  0  0
 19 26  1  0  0  0
 19 33  1  0  0  0
 19 34  1  0  0  0
 20 35  1  0  0  0
 20 36  1  0  0  0
 21 25  1  0  0  0
 22 28  1  0  0  0
 23 27  1  0  0  0
 24 26  1  0  0  0
 24 37  1  0  0  0
 24 38  1  0  0  0
 25 39  1  0  0  0
 25 40  1  0  0  0
 25 41  1  0  0  0
 26 42  1  0  0  0
 26 43  1  0  0  0
 27 44  1  0  0  0
 27 45  1  0  0  0
 27 46  1  0  0  0
 28 47  1  0  0  0
 28 48  1  0  0  0
 28 49  1  0  0  0
M  END
> <s_m_entry_id>
4883

> <s_m_entry_name>
dock_pv.202

> <s_m_Source_Path>
/home/csk/Desktop/cluster/DUD-E-result/hs90a

> <s_m_Source_File>
dock_pv.maegz

> <i_m_Source_File_Index>
202

> <chembl_id>
CHEMBL190518

> <chembl_pref_name>
None

> <i_lp_mmshare_version>
53161

> <r_lp_tautomer_probability>
0.999997216410988

> <s_lp_Force_Field>
OPLS_2005

> <r_lp_Energy>
24.240375

> <b_lp_Chiralities_Consistent>
1

> <s_lp_Variant>
CHEMBL3880_lig894-1

> <s_i_glide_gridfile>
glide-grid_1uyg

> <i_i_glide_lignum>
1000

> <i_i_glide_rotatable_bonds>
9

> <r_i_docking_score>
-8.20807681496362

> <r_i_glide_ligand_efficiency>
-0.293145600534415

> <r_i_glide_ligand_efficiency_sa>
-0.890162696747938

> <r_i_glide_ligand_efficiency_ln>
-1.89466512850098

> <r_i_glide_gscore>
-8.20807681496362

> <r_i_glide_lipo>
-3.38359965625738

> <r_i_glide_hbond>
-0.368380633486782

> <r_i_glide_metal>
0

> <r_i_glide_rewards>
-2.27197950713451

> <r_i_glide_evdw>
-42.8235168457031

> <r_i_glide_ecoul>
-4.9809136390686

> <r_i_glide_erotb>
0.736763630516615

> <r_i_glide_esite>
-0.0325677604561195

> <r_i_glide_emodel>
-67.8907068023163

> <r_i_glide_energy>
-47.8044304847717

> <r_i_glide_einternal>
6.34762573242188

> <i_i_glide_confnum>
101

> <i_i_glide_posenum>
327

> <r_i_glide_eff_state_penalty>
0

> <s_user_duplicate_titles>
CHEMBL3880_lig894

> <i_f3d_flags>
0

> <s_m_subgroup_title>
dock_pv

> <s_m_subgroupid>
dock_pv

> <b_m_subgroup_collapsed>
1

$$$$
CHEMBL3880_lig822
                    3D
 Schrodinger Suite 2021-1.
 44 45  0  0  1  0            999 V2000
   -0.8063   10.0700   26.6196 C   0  0  0  0  0  0
   -1.8205   10.7514   25.9361 C   0  0  0  0  0  0
   -1.5356   11.3858   24.7317 C   0  0  0  0  0  0
   -0.2355   11.3918   24.2282 C   0  0  0  0  0  0
    0.8121   10.7632   24.9395 C   0  0  0  0  0  0
    0.4901   10.0549   26.1054 C   0  0  0  0  0  0
   -0.0415   12.0188   23.0239 O   0  0  0  0  0  0
   -3.1025   10.7690   26.4232 O   0  0  0  0  0  0
   -1.1325    9.2369   28.1015 Cl  0  0  0  0  0  0
    2.2712   10.8347   24.5144 C   0  0  0  0  0  0
    2.7940   12.0368   24.1458 N   0  0  0  0  0  0
    2.9483    9.8052   24.5327 O   0  0  0  0  0  0
    2.2095   13.3111   24.5505 C   0  0  0  0  0  0
    4.0181   12.1604   23.3405 C   0  0  0  0  0  0
    5.2776   12.7817   23.9670 C   0  0  0  0  0  0
    6.4794   12.0734   23.8941 C   0  0  0  0  0  0
    7.6605   12.6416   24.3646 C   0  0  0  0  0  0
    7.6623   13.9212   24.9289 C   0  0  0  0  0  0
    6.4659   14.6423   24.9896 C   0  0  0  0  0  0
    5.2909   14.0844   24.4873 C   0  0  0  0  0  0
    8.9605   14.5130   25.4125 C   0  0  0  0  0  0
    8.9383   15.1685   26.5806 N   0  0  0  0  0  0
    9.9972   14.3690   24.7670 O   0  0  0  0  0  0
   10.1359   15.7473   27.1919 C   0  0  0  0  0  0
   11.0856   14.6910   27.7873 C   0  0  0  0  0  0
   -2.3267   11.8822   24.1893 H   0  0  0  0  0  0
    1.2637    9.5391   26.6593 H   0  0  0  0  0  0
   -0.8660   12.3565   22.6656 H   0  0  0  0  0  0
   -3.7596   11.1774   25.8420 H   0  0  0  0  0  0
    1.2379   13.1834   25.0211 H   0  0  0  0  0  0
    2.8609   13.7811   25.2862 H   0  0  0  0  0  0
    2.0871   13.9794   23.6974 H   0  0  0  0  0  0
    4.2839   11.1878   22.9220 H   0  0  0  0  0  0
    3.7374   12.7690   22.4865 H   0  0  0  0  0  0
    6.5064   11.0812   23.4664 H   0  0  0  0  0  0
    8.5733   12.0655   24.3001 H   0  0  0  0  0  0
    6.4453   15.6516   25.3784 H   0  0  0  0  0  0
    4.4160   14.7117   24.4625 H   0  0  0  0  0  0
    8.0805   15.1931   27.1119 H   0  0  0  0  0  0
   10.6751   16.3592   26.4645 H   0  0  0  0  0  0
    9.8213   16.4395   27.9670 H   0  0  0  0  0  0
   11.9079   15.1681   28.3199 H   0  0  0  0  0  0
   10.5709   14.0386   28.4930 H   0  0  0  0  0  0
   11.5258   14.0655   27.0104 H   0  0  0  0  0  0
  1  2  2  0  0  0
  1  6  1  0  0  0
  1  9  1  0  0  0
  2  3  1  0  0  0
  2  8  1  0  0  0
  3  4  2  0  0  0
  3 26  1  0  0  0
  4  5  1  0  0  0
  4  7  1  0  0  0
  5  6  2  0  0  0
  5 10  1  0  0  0
  6 27  1  0  0  0
  7 28  1  0  0  0
  8 29  1  0  0  0
 10 11  1  0  0  0
 10 12  2  0  0  0
 11 13  1  0  0  0
 11 14  1  0  0  0
 13 30  1  0  0  0
 13 31  1  0  0  0
 13 32  1  0  0  0
 14 15  1  0  0  0
 14 33  1  0  0  0
 14 34  1  0  0  0
 15 16  2  0  0  0
 15 20  1  0  0  0
 16 17  1  0  0  0
 16 35  1  0  0  0
 17 18  2  0  0  0
 17 36  1  0  0  0
 18 19  1  0  0  0
 18 21  1  0  0  0
 19 20  2  0  0  0
 19 37  1  0  0  0
 20 38  1  0  0  0
 21 22  1  0  0  0
 21 23  2  0  0  0
 22 24  1  0  0  0
 22 39  1  0  0  0
 24 25  1  0  0  0
 24 40  1  0  0  0
 24 41  1  0  0  0
 25 42  1  0  0  0
 25 43  1  0  0  0
 25 44  1  0  0  0
M  END
> <s_m_entry_id>
4884

> <s_m_entry_name>
dock_pv.203

> <s_m_Source_Path>
/home/csk/Desktop/cluster/DUD-E-result/hs90a

> <s_m_Source_File>
dock_pv.maegz

> <i_m_Source_File_Index>
203

> <chembl_id>
CHEMBL4283580

> <chembl_pref_name>
None

> <i_lp_mmshare_version>
53161

> <r_lp_tautomer_probability>
0.999999999898

> <s_lp_Force_Field>
OPLS_2005

> <r_lp_Energy>
26.974892

> <b_lp_Chiralities_Consistent>
1

> <s_lp_Variant>
CHEMBL3880_lig822-1

> <s_i_glide_gridfile>
glide-grid_1uyg

> <i_i_glide_lignum>
923

> <i_i_glide_rotatable_bonds>
9

> <r_i_docking_score>
-8.20647275312142

> <r_i_glide_ligand_efficiency>
-0.328258910124857

> <r_i_glide_ligand_efficiency_sa>
-0.959834874901641

> <r_i_glide_ligand_efficiency_ln>
-1.945179970633

> <r_i_glide_gscore>
-8.20647275312142

> <r_i_glide_lipo>
-3.4087536248118

> <r_i_glide_hbond>
-0.474637101057701

> <r_i_glide_metal>
0

> <r_i_glide_rewards>
-1.82466645497966

> <r_i_glide_evdw>
-36.5963706970215

> <r_i_glide_ecoul>
-10.2937822341919

> <r_i_glide_erotb>
0.875470297707601

> <r_i_glide_esite>
0

> <r_i_glide_emodel>
-64.0385151061919

> <r_i_glide_energy>
-46.8901529312134

> <r_i_glide_einternal>
9.73390674591064

> <i_i_glide_confnum>
56

> <i_i_glide_posenum>
202

> <r_i_glide_eff_state_penalty>
0

> <s_user_duplicate_titles>
CHEMBL3880_lig822

> <i_f3d_flags>
0

> <s_m_subgroup_title>
dock_pv

> <s_m_subgroupid>
dock_pv

> <b_m_subgroup_collapsed>
1

$$$$
CHEMBL3880_lig228
                    3D
 Schrodinger Suite 2021-1.
 65 68  0  0  1  0            999 V2000
    2.0603    7.2801   23.8131 C   0  0  0  0  0  0
    2.7724    8.3984   23.3713 C   0  0  0  0  0  0
    1.5548    7.2105   25.1241 C   0  0  0  0  0  0
    1.7815    8.3231   25.9700 C   0  0  0  0  0  0
   -0.2957    8.9212   26.9958 C   0  0  2  0  0  0
    1.1169    8.5850   27.1624 N   0  0  0  0  0  0
   -0.6023   10.2919   26.2855 C   0  0  1  0  0  0
    0.9294   11.8953   23.4706 C   0  0  0  0  0  0
   -0.3482   11.6073   24.1305 N   0  0  2  0  0  0
   -0.4213   10.2738   24.7387 C   0  0  0  0  0  0
    2.6032    9.3600   25.5749 C   0  0  0  0  0  0
    3.0444    9.4367   24.2657 C   0  0  0  0  0  0
    2.0237   12.3305   24.4681 C   0  0  0  0  0  0
    3.4480   11.8941   24.1133 C   0  0  0  0  0  0
    3.8046   10.5645   23.9421 N   0  0  0  0  0  0
    4.6109   12.6654   24.0471 C   0  0  0  0  0  0
    4.6822   14.1465   24.3665 C   0  0  0  0  0  0
    5.6700   11.7849   23.7253 C   0  0  0  0  0  0
    5.1449   10.5014   23.6918 C   0  0  0  0  0  0
    5.9064    9.2086   23.4242 C   0  0  0  0  0  0
    7.2330    9.5367   22.7266 C   0  0  0  0  0  0
    7.9552   10.7614   23.3679 C   0  0  0  0  0  0
    7.1051   12.0318   23.5653 C   0  0  0  0  0  0
    7.6145   13.1511   23.5688 O   0  0  0  0  0  0
    8.1461    8.3131   22.9258 C   0  0  0  0  0  0
    6.8564    9.8229   21.2670 C   0  0  0  0  0  0
   -2.0387   10.7690   26.5800 C   0  0  0  0  0  0
   -0.9214    8.7699   28.3682 C   0  0  0  0  0  0
    0.8119    5.9590   25.5590 C   0  0  0  0  0  0
    0.4995    5.0807   24.7661 O   0  0  0  0  0  0
    0.5485    5.8045   26.8547 N   0  0  0  0  0  0
    1.8924    6.4710   23.1140 H   0  0  0  0  0  0
    3.1171    8.4372   22.3478 H   0  0  0  0  0  0
   -0.7386    8.1485   26.3684 H   0  0  0  0  0  0
    1.5815    9.2694   27.7429 H   0  0  0  0  0  0
    0.0876   11.0242   26.7027 H   0  0  0  0  0  0
    1.2526   11.0547   22.8570 H   0  0  0  0  0  0
    0.7531   12.7221   22.7816 H   0  0  0  0  0  0
   -1.1252   11.7492   23.4977 H   0  0  0  0  0  0
   -1.3016    9.7847   24.3179 H   0  0  0  0  0  0
    0.3696    9.6234   24.3891 H   0  0  0  0  0  0
    2.8118   10.1717   26.2601 H   0  0  0  0  0  0
    1.7824   11.9737   25.4658 H   0  0  0  0  0  0
    1.9720   13.4151   24.5680 H   0  0  0  0  0  0
    5.6635   14.5956   24.2169 H   0  0  0  0  0  0
    3.9811   14.7090   23.7522 H   0  0  0  0  0  0
    4.3760   14.3396   25.3948 H   0  0  0  0  0  0
    5.3429    8.4809   22.8403 H   0  0  0  0  0  0
    6.1123    8.7249   24.3673 H   0  0  0  0  0  0
    8.8560   11.0291   22.8140 H   0  0  0  0  0  0
    8.2892   10.4862   24.3665 H   0  0  0  0  0  0
    8.9836    8.3259   22.2310 H   0  0  0  0  0  0
    8.5512    8.2606   23.9379 H   0  0  0  0  0  0
    7.6158    7.3733   22.7678 H   0  0  0  0  0  0
    7.6463   10.3686   20.7538 H   0  0  0  0  0  0
    6.6643    8.8692   20.7666 H   0  0  0  0  0  0
    5.9247   10.3684   21.1595 H   0  0  0  0  0  0
   -2.7628    9.9816   26.3919 H   0  0  0  0  0  0
   -2.1581   11.0938   27.6126 H   0  0  0  0  0  0
   -2.3380   11.5900   25.9372 H   0  0  0  0  0  0
   -2.0028    8.8602   28.3631 H   0  0  0  0  0  0
   -0.6792    7.7964   28.7948 H   0  0  0  0  0  0
   -0.5381    9.5194   29.0602 H   0  0  0  0  0  0
    0.0641    4.9816   27.1686 H   0  0  0  0  0  0
    0.7564    6.5718   27.4794 H   0  0  0  0  0  0
  1  3  1  0  0  0
  1  2  2  0  0  0
  1 32  1  0  0  0
  2 12  1  0  0  0
  2 33  1  0  0  0
  3  4  2  0  0  0
  3 29  1  0  0  0
  4 11  1  0  0  0
  4  6  1  0  0  0
  5  6  1  0  0  0
  5 28  1  0  0  0
  5  7  1  0  0  0
  5 34  1  0  0  0
  6 35  1  0  0  0
  7 10  1  0  0  0
  7 27  1  0  0  0
  7 36  1  0  0  0
  8 13  1  0  0  0
  8  9  1  0  0  0
  8 37  1  0  0  0
  8 38  1  0  0  0
  9 10  1  0  0  0
  9 39  1  0  0  0
 10 40  1  0  0  0
 10 41  1  0  0  0
 11 12  2  0  0  0
 11 42  1  0  0  0
 12 15  1  0  0  0
 13 14  1  0  0  0
 13 43  1  0  0  0
 13 44  1  0  0  0
 14 16  2  0  0  0
 14 15  1  0  0  0
 15 19  1  0  0  0
 16 18  1  0  0  0
 16 17  1  0  0  0
 17 45  1  0  0  0
 17 46  1  0  0  0
 17 47  1  0  0  0
 18 19  2  0  0  0
 18 23  1  0  0  0
 19 20  1  0  0  0
 20 21  1  0  0  0
 20 48  1  0  0  0
 20 49  1  0  0  0
 21 22  1  0  0  0
 21 25  1  0  0  0
 21 26  1  0  0  0
 22 23  1  0  0  0
 22 50  1  0  0  0
 22 51  1  0  0  0
 23 24  2  0  0  0
 25 52  1  0  0  0
 25 53  1  0  0  0
 25 54  1  0  0  0
 26 55  1  0  0  0
 26 56  1  0  0  0
 26 57  1  0  0  0
 27 58  1  0  0  0
 27 59  1  0  0  0
 27 60  1  0  0  0
 28 61  1  0  0  0
 28 62  1  0  0  0
 28 63  1  0  0  0
 29 30  2  0  0  0
 29 31  1  0  0  0
 31 64  1  0  0  0
 31 65  1  0  0  0
M  END
> <s_m_entry_id>
4885

> <s_m_entry_name>
dock_pv.204

> <s_m_Source_Path>
/home/csk/Desktop/cluster/DUD-E-result/hs90a

> <s_m_Source_File>
dock_pv.maegz

> <i_m_Source_File_Index>
204

> <chembl_id>
CHEMBL1807791

> <chembl_pref_name>
None

> <i_lp_mmshare_version>
53161

> <r_lp_tautomer_probability>
0.99995

> <s_lp_Force_Field>
OPLS_2005

> <r_lp_Energy>
50.176953

> <b_lp_Chiralities_Consistent>
1

> <s_lp_Variant>
CHEMBL3880_lig228-1

> <s_i_glide_gridfile>
glide-grid_1uyg

> <i_i_glide_lignum>
262

> <i_i_glide_rotatable_bonds>
1

> <r_i_docking_score>
-8.20278688974865

> <r_i_glide_ligand_efficiency>
-0.264606028701569

> <r_i_glide_ligand_efficiency_sa>
-0.831228258117756

> <r_i_glide_ligand_efficiency_ln>
-1.84997982886627

> <r_i_glide_gscore>
-8.20278688974865

> <r_i_glide_lipo>
-3.71937784741316

> <r_i_glide_hbond>
0

> <r_i_glide_metal>
0

> <r_i_glide_rewards>
-1.67175456998441

> <r_i_glide_evdw>
-40.050365447998

> <r_i_glide_ecoul>
-5.39424133300781

> <r_i_glide_erotb>
0

> <r_i_glide_esite>
0

> <r_i_glide_emodel>
-58.6603486489939

> <r_i_glide_energy>
-45.4446067810059

> <r_i_glide_einternal>
3.96398901939392

> <i_i_glide_confnum>
1

> <i_i_glide_posenum>
328

> <r_i_glide_eff_state_penalty>
0

> <s_user_duplicate_titles>
CHEMBL3880_lig228

> <i_f3d_flags>
0

> <s_m_subgroup_title>
dock_pv

> <s_m_subgroupid>
dock_pv

> <b_m_subgroup_collapsed>
1

$$$$
CHEMBL3880_lig904
                    3D
 Schrodinger Suite 2021-1.
 38 40  0  0  1  0            999 V2000
   -1.5117   11.0277   25.6025 N   0  0  0  0  0  0
   -1.0422   11.5689   24.4542 C   0  0  0  0  0  0
    0.2105   11.4707   23.9511 N   0  0  0  0  0  0
   -0.6558   10.2604   26.3257 C   0  0  0  0  0  0
    0.6615   10.0371   25.8874 C   0  0  0  0  0  0
    1.0301   10.7028   24.6837 C   0  0  0  0  0  0
    2.3693   10.4225   24.4366 N   0  0  0  0  0  0
    2.8142    9.5647   25.4209 C   0  0  0  0  0  0
    1.8081    9.3010   26.3318 C   0  0  0  0  0  0
   -1.2000    9.5719   27.8131 Cl  0  0  0  0  0  0
   -1.9390   12.3077   23.7024 N   0  0  0  0  0  0
    3.1970   10.9237   23.3365 C   0  0  0  0  0  0
    4.2995   11.9057   23.7592 C   0  0  0  0  0  0
    4.0319   13.1965   24.2553 C   0  0  0  0  0  0
    5.1210   14.0246   24.5908 C   0  0  0  0  0  0
    6.4296   13.5687   24.3670 C   0  0  0  0  0  0
    6.6039   12.2807   23.8530 C   0  0  0  0  0  0
    5.5668   11.4528   23.5665 N   0  0  0  0  0  0
    2.6059   13.7118   24.3673 C   0  0  0  0  0  0
    7.6351   14.4424   24.6764 C   0  0  0  0  0  0
    4.9250   15.2956   25.0802 O   0  0  0  0  0  0
    4.6626   15.3532   26.4758 C   0  0  0  0  0  0
    3.8372    9.2181   25.3923 H   0  0  0  0  0  0
    1.8975    8.6774   27.2093 H   0  0  0  0  0  0
   -1.6619   12.5987   22.7792 H   0  0  0  0  0  0
   -2.9236   12.2957   23.9687 H   0  0  0  0  0  0
    3.6239   10.0540   22.8322 H   0  0  0  0  0  0
    2.5537   11.4002   22.5977 H   0  0  0  0  0  0
    7.5912   11.8860   23.6652 H   0  0  0  0  0  0
    2.5510   14.7797   24.5718 H   0  0  0  0  0  0
    2.0636   13.5469   23.4368 H   0  0  0  0  0  0
    2.0951   13.1688   25.1578 H   0  0  0  0  0  0
    7.5396   14.8835   25.6692 H   0  0  0  0  0  0
    8.5659   13.8741   24.6621 H   0  0  0  0  0  0
    7.7030   15.2638   23.9615 H   0  0  0  0  0  0
    4.5040   16.3913   26.7661 H   0  0  0  0  0  0
    3.7704   14.7911   26.7533 H   0  0  0  0  0  0
    5.5039   14.9715   27.0542 H   0  0  0  0  0  0
  1  2  2  0  0  0
  1  4  1  0  0  0
  2  3  1  0  0  0
  2 11  1  0  0  0
  3  6  2  0  0  0
  4  5  2  0  0  0
  4 10  1  0  0  0
  5  6  1  0  0  0
  5  9  1  0  0  0
  6  7  1  0  0  0
  7  8  1  0  0  0
  7 12  1  0  0  0
  8  9  2  0  0  0
  8 23  1  0  0  0
  9 24  1  0  0  0
 11 25  1  0  0  0
 11 26  1  0  0  0
 12 13  1  0  0  0
 12 27  1  0  0  0
 12 28  1  0  0  0
 13 14  2  0  0  0
 13 18  1  0  0  0
 14 15  1  0  0  0
 14 19  1  0  0  0
 15 16  2  0  0  0
 15 21  1  0  0  0
 16 17  1  0  0  0
 16 20  1  0  0  0
 17 18  2  0  0  0
 17 29  1  0  0  0
 19 30  1  0  0  0
 19 31  1  0  0  0
 19 32  1  0  0  0
 20 33  1  0  0  0
 20 34  1  0  0  0
 20 35  1  0  0  0
 21 22  1  0  0  0
 22 36  1  0  0  0
 22 37  1  0  0  0
 22 38  1  0  0  0
M  END
> <s_m_entry_id>
4886

> <s_m_entry_name>
dock_pv.205

> <s_m_Source_Path>
/home/csk/Desktop/cluster/DUD-E-result/hs90a

> <s_m_Source_File>
dock_pv.maegz

> <i_m_Source_File_Index>
205

> <chembl_id>
CHEMBL2205243

> <chembl_pref_name>
None

> <i_lp_mmshare_version>
53161

> <r_lp_tautomer_probability>
1

> <s_lp_Force_Field>
OPLS_2005

> <r_lp_Energy>
8.353011

> <b_lp_Chiralities_Consistent>
1

> <s_lp_Variant>
CHEMBL3880_lig904-1

> <s_i_glide_gridfile>
glide-grid_1uyg

> <i_i_glide_lignum>
1010

> <i_i_glide_rotatable_bonds>
3

> <r_i_docking_score>
-8.19793867953276

> <r_i_glide_ligand_efficiency>
-0.372633576342398

> <r_i_glide_ligand_efficiency_sa>
-1.04413393575836

> <r_i_glide_ligand_efficiency_ln>
-2.00387524035668

> <r_i_glide_gscore>
-8.19793867953276

> <r_i_glide_lipo>
-3.60271556895858

> <r_i_glide_hbond>
-0.16

> <r_i_glide_metal>
0

> <r_i_glide_rewards>
-2.51307568331836

> <r_i_glide_evdw>
-39.7071380615234

> <r_i_glide_ecoul>
-1.88846385478973

> <r_i_glide_erotb>
0.369095185546766

> <r_i_glide_esite>
-0.0226161315079567

> <r_i_glide_emodel>
-61.1476124081562

> <r_i_glide_energy>
-41.5956019163132

> <r_i_glide_einternal>
2.23770117759705

> <i_i_glide_confnum>
4

> <i_i_glide_posenum>
68

> <r_i_glide_eff_state_penalty>
0

> <s_user_duplicate_titles>
CHEMBL3880_lig904

> <i_f3d_flags>
0

> <s_m_subgroup_title>
dock_pv

> <s_m_subgroupid>
dock_pv

> <b_m_subgroup_collapsed>
1

$$$$
CHEMBL3880_lig429
                    3D
 Schrodinger Suite 2021-1.
 55 58  0  0  1  0            999 V2000
   -0.0161   11.6579   23.9172 C   0  0  0  0  0  0
    0.9679   10.7312   23.9676 N   0  0  0  0  0  0
    2.2021   11.2477   24.0306 C   0  0  0  0  0  0
    2.5091   12.6290   24.0728 C   0  0  0  0  0  0
    1.4016   13.4784   23.9658 C   0  0  0  0  0  0
    0.1356   12.9985   23.8778 N   0  0  0  0  0  0
    3.3976   10.5599   24.0784 N   0  0  0  0  0  0
    3.9267   12.7849   24.2542 C   0  0  0  0  0  0
    4.4114   11.4799   24.2332 C   0  0  0  0  0  0
   -1.3157   11.1762   23.9131 N   0  0  0  0  0  0
    3.5528    9.1062   24.0648 C   0  0  0  0  0  0
    2.8225    8.3926   25.2054 C   0  0  0  0  0  0
    2.1296    7.1830   25.0297 C   0  0  0  0  0  0
    1.4526    6.6478   26.1407 C   0  0  0  0  0  0
    1.5000    7.3070   27.3792 C   0  0  0  0  0  0
    2.2192    8.4959   27.4585 C   0  0  0  0  0  0
    2.8608    9.0377   26.4001 N   0  0  0  0  0  0
    0.8067    6.7575   28.6164 C   0  0  0  0  0  0
    2.0968    6.4708   23.6792 C   0  0  0  0  0  0
    0.7173    5.5006   26.0094 O   0  0  0  0  0  0
   -0.6369    5.7633   25.6889 C   0  0  0  0  0  0
    1.6610   15.1690   23.9654 Cl  0  0  0  0  0  0
    4.6352   14.1282   24.4605 C   0  0  0  0  0  0
    6.0942   14.1148   24.8981 C   0  0  0  0  0  0
    6.5066   14.9185   25.9669 C   0  0  0  0  0  0
    7.8130   14.8336   26.4460 C   0  0  0  0  0  0
    8.7205   13.9452   25.8562 C   0  0  0  0  0  0
    8.2968   13.1687   24.7815 C   0  0  0  0  0  0
    7.0145   13.2808   24.2701 C   0  0  0  0  0  0
   10.0246   13.7552   26.2699 O   0  0  0  0  0  0
   10.4608   14.3576   27.4830 C   0  0  0  0  0  0
    5.4192   11.1138   24.3591 H   0  0  0  0  0  0
   -2.0905   11.8258   23.9128 H   0  0  0  0  0  0
   -1.4642   10.1792   23.9682 H   0  0  0  0  0  0
    3.1951    8.7685   23.0925 H   0  0  0  0  0  0
    4.6134    8.8579   24.1160 H   0  0  0  0  0  0
    2.2886    9.0478   28.3827 H   0  0  0  0  0  0
    0.7412    5.6697   28.5817 H   0  0  0  0  0  0
    1.3668    7.0086   29.5177 H   0  0  0  0  0  0
   -0.1982    7.1702   28.7078 H   0  0  0  0  0  0
    1.7270    5.4473   23.7512 H   0  0  0  0  0  0
    1.4713    7.0185   22.9722 H   0  0  0  0  0  0
    3.1007    6.4068   23.2588 H   0  0  0  0  0  0
   -1.1388    4.8130   25.5457 H   0  0  0  0  0  0
   -1.1386    6.2892   26.5006 H   0  0  0  0  0  0
   -0.7435    6.3551   24.7755 H   0  0  0  0  0  0
    4.0802   14.6842   25.2169 H   0  0  0  0  0  0
    4.5603   14.7393   23.5671 H   0  0  0  0  0  0
    5.8110   15.5870   26.4539 H   0  0  0  0  0  0
    8.0933   15.4456   27.2897 H   0  0  0  0  0  0
    8.9508   12.4230   24.3671 H   0  0  0  0  0  0
    6.7251   12.6730   23.4262 H   0  0  0  0  0  0
   11.5095   14.1123   27.6490 H   0  0  0  0  0  0
    9.8977   13.9688   28.3321 H   0  0  0  0  0  0
   10.3794   15.4454   27.4581 H   0  0  0  0  0  0
  1  2  1  0  0  0
  1  6  2  0  0  0
  1 10  1  0  0  0
  2  3  2  0  0  0
  3  4  1  0  0  0
  3  7  1  0  0  0
  4  5  2  0  0  0
  4  8  1  0  0  0
  5  6  1  0  0  0
  5 22  1  0  0  0
  7  9  1  0  0  0
  7 11  1  0  0  0
  8  9  2  0  0  0
  8 23  1  0  0  0
  9 32  1  0  0  0
 10 33  1  0  0  0
 10 34  1  0  0  0
 11 12  1  0  0  0
 11 35  1  0  0  0
 11 36  1  0  0  0
 12 13  1  0  0  0
 12 17  2  0  0  0
 13 14  2  0  0  0
 13 19  1  0  0  0
 14 15  1  0  0  0
 14 20  1  0  0  0
 15 16  2  0  0  0
 15 18  1  0  0  0
 16 17  1  0  0  0
 16 37  1  0  0  0
 18 38  1  0  0  0
 18 39  1  0  0  0
 18 40  1  0  0  0
 19 41  1  0  0  0
 19 42  1  0  0  0
 19 43  1  0  0  0
 20 21  1  0  0  0
 21 44  1  0  0  0
 21 45  1  0  0  0
 21 46  1  0  0  0
 23 24  1  0  0  0
 23 47  1  0  0  0
 23 48  1  0  0  0
 24 25  1  0  0  0
 24 29  2  0  0  0
 25 26  2  0  0  0
 25 49  1  0  0  0
 26 27  1  0  0  0
 26 50  1  0  0  0
 27 28  2  0  0  0
 27 30  1  0  0  0
 28 29  1  0  0  0
 28 51  1  0  0  0
 29 52  1  0  0  0
 30 31  1  0  0  0
 31 53  1  0  0  0
 31 54  1  0  0  0
 31 55  1  0  0  0
M  END
> <s_m_entry_id>
4887

> <s_m_entry_name>
dock_pv.206

> <s_m_Source_Path>
/home/csk/Desktop/cluster/DUD-E-result/hs90a

> <s_m_Source_File>
dock_pv.maegz

> <i_m_Source_File_Index>
206

> <chembl_id>
CHEMBL3901656

> <chembl_pref_name>
None

> <i_lp_mmshare_version>
53161

> <r_lp_tautomer_probability>
1

> <s_lp_Force_Field>
OPLS_2005

> <r_lp_Energy>
16.156973

> <b_lp_Chiralities_Consistent>
1

> <s_lp_Variant>
CHEMBL3880_lig429-1

> <s_i_glide_gridfile>
glide-grid_1uyg

> <i_i_glide_lignum>
471

> <i_i_glide_rotatable_bonds>
6

> <r_i_docking_score>
-8.18930446906587

> <r_i_glide_ligand_efficiency>
-0.26417111190535

> <r_i_glide_ligand_efficiency_sa>
-0.829862018910278

> <r_i_glide_ligand_efficiency_ln>
-1.84693912981573

> <r_i_glide_gscore>
-8.18930446906587

> <r_i_glide_lipo>
-4.02511537114763

> <r_i_glide_hbond>
0

> <r_i_glide_metal>
0

> <r_i_glide_rewards>
-1.87770497971347

> <r_i_glide_evdw>
-41.6711769104004

> <r_i_glide_ecoul>
-4.1262788772583

> <r_i_glide_erotb>
0.416016558903994

> <r_i_glide_esite>
0

> <r_i_glide_emodel>
-63.0457196864339

> <r_i_glide_energy>
-45.7974557876587

> <r_i_glide_einternal>
3.1669545173645

> <i_i_glide_confnum>
2

> <i_i_glide_posenum>
202

> <r_i_glide_eff_state_penalty>
0

> <s_user_duplicate_titles>
CHEMBL3880_lig429

> <i_f3d_flags>
0

> <s_m_subgroup_title>
dock_pv

> <s_m_subgroupid>
dock_pv

> <b_m_subgroup_collapsed>
1

$$$$
CHEMBL3880_lig82
                    3D
 Schrodinger Suite 2021-1.
 40 42  0  0  1  0            999 V2000
    1.2747   12.6445   22.6283 O   0  0  0  0  0  0
    5.5457   10.9951   24.1776 O   0  0  0  0  0  0
    7.9835   13.2556   24.7139 O   0  0  0  0  0  0
   -0.4668   12.7690   21.2819 O   0  0  0  0  0  0
   10.3765   13.8420   25.6461 O   0  0  0  0  0  0
    9.6599   15.8019   26.6001 O   0  0  0  0  0  0
    1.3451   11.0330   24.4462 C   0  0  0  0  0  0
    1.9882   11.8720   23.5280 C   0  0  0  0  0  0
   -0.1350   11.0553   24.4595 C   0  0  0  0  0  0
   -0.7960   11.6677   23.4418 C   0  0  0  0  0  0
   -0.0507   12.3695   22.3695 C   0  0  0  0  0  0
    4.1631   11.0718   24.2363 C   0  0  0  0  0  0
    3.3780   11.9379   23.4636 C   0  0  0  0  0  0
    2.1229   10.1765   25.2267 C   0  0  0  0  0  0
    3.5092   10.1852   25.0997 C   0  0  0  0  0  0
    6.6887   13.1689   24.3036 C   0  0  0  0  0  0
    8.1263   14.4061   25.4297 C   0  0  0  0  0  0
    6.3273   11.9577   23.4532 C   0  0  0  0  0  0
    5.9924   14.2776   24.7670 C   0  0  0  0  0  0
    6.8977   15.0497   25.5004 C   0  0  0  0  0  0
   -0.8305   10.2822   25.5788 C   0  0  0  0  0  0
    9.4412   14.7676   25.9656 C   0  0  0  0  0  0
   -2.3018   11.6513   23.2325 C   0  0  0  0  0  0
   11.7108   13.9783   26.1167 C   0  0  0  0  0  0
    3.8189   12.6290   22.7673 H   0  0  0  0  0  0
    1.6705    9.4816   25.9189 H   0  0  0  0  0  0
    4.0612    9.4806   25.6933 H   0  0  0  0  0  0
    5.8904   12.2325   22.4992 H   0  0  0  0  0  0
    7.2446   11.4359   23.1800 H   0  0  0  0  0  0
    4.9473   14.4941   24.5988 H   0  0  0  0  0  0
    6.6867   15.9756   26.0132 H   0  0  0  0  0  0
   -1.9067   10.4348   25.6136 H   0  0  0  0  0  0
   -0.6505    9.2130   25.4713 H   0  0  0  0  0  0
   -0.4456   10.6001   26.5479 H   0  0  0  0  0  0
   -2.7389   12.5468   23.6764 H   0  0  0  0  0  0
   -2.5895   11.6138   22.1790 H   0  0  0  0  0  0
   -2.7389   10.7698   23.6906 H   0  0  0  0  0  0
   12.3626   13.2882   25.5824 H   0  0  0  0  0  0
   11.7656   13.7515   27.1826 H   0  0  0  0  0  0
   12.0926   14.9888   25.9640 H   0  0  0  0  0  0
  1  8  1  0  0  0
  1 11  1  0  0  0
  2 12  1  0  0  0
  2 18  1  0  0  0
  3 16  1  0  0  0
  3 17  1  0  0  0
  4 11  2  0  0  0
  5 22  1  0  0  0
  5 24  1  0  0  0
  6 22  2  0  0  0
  7  8  1  0  0  0
  7  9  1  0  0  0
  7 14  2  0  0  0
  8 13  2  0  0  0
  9 10  2  0  0  0
  9 21  1  0  0  0
 10 11  1  0  0  0
 10 23  1  0  0  0
 12 13  1  0  0  0
 12 15  2  0  0  0
 13 25  1  0  0  0
 14 15  1  0  0  0
 14 26  1  0  0  0
 15 27  1  0  0  0
 16 18  1  0  0  0
 16 19  2  0  0  0
 17 20  2  0  0  0
 17 22  1  0  0  0
 18 28  1  0  0  0
 18 29  1  0  0  0
 19 20  1  0  0  0
 19 30  1  0  0  0
 20 31  1  0  0  0
 21 32  1  0  0  0
 21 33  1  0  0  0
 21 34  1  0  0  0
 23 35  1  0  0  0
 23 36  1  0  0  0
 23 37  1  0  0  0
 24 38  1  0  0  0
 24 39  1  0  0  0
 24 40  1  0  0  0
M  END
> <s_m_entry_id>
4888

> <s_m_entry_name>
dock_pv.207

> <s_m_Source_Path>
/home/csk/Desktop/cluster/DUD-E-result/hs90a

> <s_m_Source_File>
dock_pv.maegz

> <i_m_Source_File_Index>
207

> <chembl_id>
CHEMBL1376094

> <chembl_pref_name>
None

> <i_lp_mmshare_version>
53161

> <r_lp_tautomer_probability>
1

> <s_lp_Force_Field>
OPLS_2005

> <r_lp_Energy>
18.248136

> <b_lp_Chiralities_Consistent>
1

> <s_lp_Variant>
CHEMBL3880_lig82-1

> <s_i_glide_gridfile>
glide-grid_1uyg

> <i_i_glide_lignum>
92

> <i_i_glide_rotatable_bonds>
5

> <r_i_docking_score>
-8.18697922552484

> <r_i_glide_ligand_efficiency>
-0.341124134396868

> <r_i_glide_ligand_efficiency_sa>
-0.983972271468368

> <r_i_glide_ligand_efficiency_ln>
-1.95951980466538

> <r_i_glide_gscore>
-8.18697922552484

> <r_i_glide_lipo>
-3.89341884916058

> <r_i_glide_hbond>
-0.389036297715026

> <r_i_glide_metal>
0

> <r_i_glide_rewards>
-2.05030975200414

> <r_i_glide_evdw>
-40.7871398925781

> <r_i_glide_ecoul>
-3.4117066860199

> <r_i_glide_erotb>
0.696898670886793

> <r_i_glide_esite>
0

> <r_i_glide_emodel>
-61.8497353642813

> <r_i_glide_energy>
-44.198846578598

> <r_i_glide_einternal>
4.76866579055786

> <i_i_glide_confnum>
27

> <i_i_glide_posenum>
352

> <r_i_glide_eff_state_penalty>
0

> <s_user_duplicate_titles>
CHEMBL3880_lig82

> <i_f3d_flags>
0

> <s_m_subgroup_title>
dock_pv

> <s_m_subgroupid>
dock_pv

> <b_m_subgroup_collapsed>
1

$$$$
CHEMBL3880_lig257
                    3D
 Schrodinger Suite 2021-1.
 48 50  0  0  1  0            999 V2000
   -1.5992   10.8751   25.7821 N   0  0  0  0  0  0
   -1.0768   11.3287   24.6216 C   0  0  0  0  0  0
    0.1904   11.1694   24.1739 N   0  0  0  0  0  0
   -0.7956   10.1321   26.5830 C   0  0  0  0  0  0
    0.5284    9.8281   26.2095 C   0  0  0  0  0  0
    0.9533   10.4165   24.9791 C   0  0  0  0  0  0
    2.2776   10.0631   24.7796 N   0  0  0  0  0  0
    2.6543    9.2516   25.8283 C   0  0  0  0  0  0
    1.6270    9.0598   26.7443 C   0  0  0  0  0  0
   -1.4583    9.5644   28.0733 Cl  0  0  0  0  0  0
   -1.9390   12.0194   23.7878 N   0  0  0  0  0  0
    3.1679   10.5073   23.6979 C   0  0  0  0  0  0
    3.8942   11.8352   23.9669 C   0  0  0  0  0  0
    5.2795   12.0211   23.7696 C   0  0  0  0  0  0
    5.8513   13.2599   24.1324 C   0  0  0  0  0  0
    5.0207   14.2786   24.6395 C   0  0  0  0  0  0
    3.6601   14.0119   24.7659 C   0  0  0  0  0  0
    3.0972   12.8275   24.4388 N   0  0  0  0  0  0
    6.1548   10.9104   23.1956 C   0  0  0  0  0  0
    5.5327   15.6718   24.9796 C   0  0  0  0  0  0
    7.2062   13.4571   23.9661 O   0  0  0  0  0  0
    7.9707   13.5754   25.1607 C   0  0  0  0  0  0
    1.6243    8.2183   28.0167 C   0  0  0  0  0  0
    3.0148    7.6963   28.4490 C   0  0  0  0  0  0
    2.9958    6.6431   29.5705 C   0  0  0  0  0  0
    2.4610    7.1670   30.7676 O   0  0  0  0  0  0
    3.6607    8.8628   25.8398 H   0  0  0  0  0  0
   -2.9369   11.9990   24.0007 H   0  0  0  0  0  0
   -1.6154   12.2582   22.8647 H   0  0  0  0  0  0
    3.8703    9.6974   23.5055 H   0  0  0  0  0  0
    2.5739   10.6080   22.7888 H   0  0  0  0  0  0
    2.9826   14.7691   25.1220 H   0  0  0  0  0  0
    7.1316   11.2695   22.8718 H   0  0  0  0  0  0
    6.2986   10.1209   23.9330 H   0  0  0  0  0  0
    5.6872   10.4693   22.3154 H   0  0  0  0  0  0
    6.3955   15.9352   24.3673 H   0  0  0  0  0  0
    4.7759   16.4267   24.7682 H   0  0  0  0  0  0
    5.8073   15.7459   26.0330 H   0  0  0  0  0  0
    9.0324   13.5130   24.9118 H   0  0  0  0  0  0
    7.8112   14.5255   25.6727 H   0  0  0  0  0  0
    7.7508   12.7691   25.8575 H   0  0  0  0  0  0
    0.9516    7.3700   27.8754 H   0  0  0  0  0  0
    1.1998    8.7847   28.8462 H   0  0  0  0  0  0
    3.6376    8.5300   28.7708 H   0  0  0  0  0  0
    3.5161    7.2486   27.5901 H   0  0  0  0  0  0
    3.9947    6.2430   29.7512 H   0  0  0  0  0  0
    2.3537    5.8103   29.2795 H   0  0  0  0  0  0
    3.1342    7.7192   31.1908 H   0  0  0  0  0  0
  1  2  2  0  0  0
  1  4  1  0  0  0
  2  3  1  0  0  0
  2 11  1  0  0  0
  3  6  2  0  0  0
  4  5  2  0  0  0
  4 10  1  0  0  0
  5  6  1  0  0  0
  5  9  1  0  0  0
  6  7  1  0  0  0
  7  8  1  0  0  0
  7 12  1  0  0  0
  8  9  2  0  0  0
  8 27  1  0  0  0
  9 23  1  0  0  0
 11 28  1  0  0  0
 11 29  1  0  0  0
 12 13  1  0  0  0
 12 30  1  0  0  0
 12 31  1  0  0  0
 13 14  2  0  0  0
 13 18  1  0  0  0
 14 15  1  0  0  0
 14 19  1  0  0  0
 15 16  2  0  0  0
 15 21  1  0  0  0
 16 17  1  0  0  0
 16 20  1  0  0  0
 17 18  2  0  0  0
 17 32  1  0  0  0
 19 33  1  0  0  0
 19 34  1  0  0  0
 19 35  1  0  0  0
 20 36  1  0  0  0
 20 37  1  0  0  0
 20 38  1  0  0  0
 21 22  1  0  0  0
 22 39  1  0  0  0
 22 40  1  0  0  0
 22 41  1  0  0  0
 23 24  1  0  0  0
 23 42  1  0  0  0
 23 43  1  0  0  0
 24 25  1  0  0  0
 24 44  1  0  0  0
 24 45  1  0  0  0
 25 26  1  0  0  0
 25 46  1  0  0  0
 25 47  1  0  0  0
 26 48  1  0  0  0
M  END
> <s_m_entry_id>
4889

> <s_m_entry_name>
dock_pv.208

> <s_m_Source_Path>
/home/csk/Desktop/cluster/DUD-E-result/hs90a

> <s_m_Source_File>
dock_pv.maegz

> <i_m_Source_File_Index>
208

> <chembl_id>
CHEMBL2205800

> <chembl_pref_name>
None

> <i_lp_mmshare_version>
53161

> <r_lp_tautomer_probability>
1

> <s_lp_Force_Field>
OPLS_2005

> <r_lp_Energy>
8.876288

> <b_lp_Chiralities_Consistent>
1

> <s_lp_Variant>
CHEMBL3880_lig257-1

> <s_i_glide_gridfile>
glide-grid_1uyg

> <i_i_glide_lignum>
291

> <i_i_glide_rotatable_bonds>
7

> <r_i_docking_score>
-8.18571017090274

> <r_i_glide_ligand_efficiency>
-0.314835006573182

> <r_i_glide_ligand_efficiency_sa>
-0.932697468157122

> <r_i_glide_ligand_efficiency_ln>
-1.92238717413068

> <r_i_glide_gscore>
-8.18571017090274

> <r_i_glide_lipo>
-3.73322472381909

> <r_i_glide_hbond>
-0.304

> <r_i_glide_metal>
0

> <r_i_glide_rewards>
-2.06380397519736

> <r_i_glide_evdw>
-40.7829093933105

> <r_i_glide_ecoul>
-4.70239448547363

> <r_i_glide_erotb>
0.684930877328719

> <r_i_glide_esite>
-0.0251077067284418

> <r_i_glide_emodel>
-66.3881838053567

> <r_i_glide_energy>
-45.4853038787842

> <r_i_glide_einternal>
3.34300947189331

> <i_i_glide_confnum>
64

> <i_i_glide_posenum>
50

> <r_i_glide_eff_state_penalty>
0

> <s_user_duplicate_titles>
CHEMBL3880_lig257

> <i_f3d_flags>
0

> <s_m_subgroup_title>
dock_pv

> <s_m_subgroupid>
dock_pv

> <b_m_subgroup_collapsed>
1

$$$$
CHEMBL3880_lig78
                    3D
 Schrodinger Suite 2021-1.
 36 38  0  0  1  0            999 V2000
    5.0646   12.2114   23.5682 O   0  0  0  0  0  0
    6.9725   11.2161   22.9705 O   0  0  0  0  0  0
    0.5166   10.0817   25.3421 O   0  0  0  0  0  0
   -0.8739   10.6615   27.1168 O   0  0  0  0  0  0
    4.9115   14.2121   24.7670 N   0  0  0  0  0  0
    7.1202   13.1801   24.3956 C   0  0  0  0  0  0
    6.3059   14.1902   24.9368 C   0  0  0  0  0  0
    6.4334   12.1474   23.5676 C   0  0  0  0  0  0
    4.3398   13.2312   24.1715 C   0  0  0  0  0  0
    8.4605   13.1083   24.7671 C   0  0  0  0  0  0
    0.7813   11.9116   23.7733 C   0  0  0  0  0  0
    6.8680   15.1690   25.7573 C   0  0  0  0  0  0
    2.9308   13.1537   24.0175 C   0  0  0  0  0  0
   -0.0333   10.9715   24.4359 C   0  0  0  0  0  0
    2.2253   12.0053   24.0394 C   0  0  0  0  0  0
    9.0177   14.0737   25.6015 C   0  0  0  0  0  0
    8.2238   15.1095   26.0878 C   0  0  0  0  0  0
    0.2080   12.7690   22.8231 C   0  0  0  0  0  0
   -1.3952   10.9000   24.1107 C   0  0  0  0  0  0
   -1.1460   12.6927   22.5175 C   0  0  0  0  0  0
   -1.9397   11.7564   23.1617 C   0  0  0  0  0  0
    0.0103    9.9692   26.6043 C   0  0  0  0  0  0
    0.6702    8.8445   27.3899 C   0  0  0  0  0  0
    9.0522   12.2646   24.4422 H   0  0  0  0  0  0
    6.2495   15.9482   26.1791 H   0  0  0  0  0  0
    2.4522   14.1099   23.8645 H   0  0  0  0  0  0
    2.7303   11.0665   24.2278 H   0  0  0  0  0  0
   10.0524   14.0004   25.9008 H   0  0  0  0  0  0
    8.6549   15.8357   26.7564 H   0  0  0  0  0  0
    0.8146   13.4918   22.2985 H   0  0  0  0  0  0
   -2.0363   10.1679   24.5837 H   0  0  0  0  0  0
   -1.5819   13.3473   21.7778 H   0  0  0  0  0  0
   -2.9881   11.6858   22.9152 H   0  0  0  0  0  0
    1.7347    9.0462   27.5117 H   0  0  0  0  0  0
    0.2216    8.7586   28.3795 H   0  0  0  0  0  0
    0.5458    7.8955   26.8693 H   0  0  0  0  0  0
  1  8  1  0  0  0
  1  9  1  0  0  0
  2  8  2  0  0  0
  3 14  1  0  0  0
  3 22  1  0  0  0
  4 22  2  0  0  0
  5  7  1  0  0  0
  5  9  2  0  0  0
  6  7  1  0  0  0
  6  8  1  0  0  0
  6 10  2  0  0  0
  7 12  2  0  0  0
  9 13  1  0  0  0
 10 16  1  0  0  0
 10 24  1  0  0  0
 11 14  1  0  0  0
 11 15  1  0  0  0
 11 18  2  0  0  0
 12 17  1  0  0  0
 12 25  1  0  0  0
 13 15  2  0  0  0
 13 26  1  0  0  0
 14 19  2  0  0  0
 15 27  1  0  0  0
 16 17  2  0  0  0
 16 28  1  0  0  0
 17 29  1  0  0  0
 18 20  1  0  0  0
 18 30  1  0  0  0
 19 21  1  0  0  0
 19 31  1  0  0  0
 20 21  2  0  0  0
 20 32  1  0  0  0
 21 33  1  0  0  0
 22 23  1  0  0  0
 23 34  1  0  0  0
 23 35  1  0  0  0
 23 36  1  0  0  0
M  END
> <s_m_entry_id>
4890

> <s_m_entry_name>
dock_pv.209

> <s_m_Source_Path>
/home/csk/Desktop/cluster/DUD-E-result/hs90a

> <s_m_Source_File>
dock_pv.maegz

> <i_m_Source_File_Index>
209

> <chembl_id>
CHEMBL1438346

> <chembl_pref_name>
None

> <i_lp_mmshare_version>
53161

> <r_lp_tautomer_probability>
1

> <s_lp_Force_Field>
OPLS_2005

> <r_lp_Energy>
28.141814

> <b_lp_Chiralities_Consistent>
1

> <s_lp_Variant>
CHEMBL3880_lig78-1

> <s_i_glide_gridfile>
glide-grid_1uyg

> <i_i_glide_lignum>
88

> <i_i_glide_rotatable_bonds>
4

> <r_i_docking_score>
-8.18382706837218

> <r_i_glide_ligand_efficiency>
-0.355818568190095

> <r_i_glide_ligand_efficiency_sa>
-1.01190067583627

> <r_i_glide_ligand_efficiency_ln>
-1.97892359197351

> <r_i_glide_gscore>
-8.18382706837218

> <r_i_glide_lipo>
-4.164706063028

> <r_i_glide_hbond>
-0.0652811858475366

> <r_i_glide_metal>
0

> <r_i_glide_rewards>
-2.31691971426341

> <r_i_glide_evdw>
-37.7231025695801

> <r_i_glide_ecoul>
-2.2533164024353

> <r_i_glide_erotb>
0.587232483611062

> <r_i_glide_esite>
0

> <r_i_glide_emodel>
-55.7344375214205

> <r_i_glide_energy>
-39.9764189720154

> <r_i_glide_einternal>
4.85402727127075

> <i_i_glide_confnum>
6

> <i_i_glide_posenum>
97

> <r_i_glide_eff_state_penalty>
0

> <s_user_duplicate_titles>
CHEMBL3880_lig78

> <i_f3d_flags>
0

> <s_m_subgroup_title>
dock_pv

> <s_m_subgroupid>
dock_pv

> <b_m_subgroup_collapsed>
1

$$$$
CHEMBL3880_lig759
                    3D
 Schrodinger Suite 2021-1.
 31 34  0  0  1  0            999 V2000
   -1.4941   11.0257   25.6057 N   0  0  0  0  0  0
   -1.0337   11.5694   24.4518 C   0  0  0  0  0  0
    0.2167   11.4816   23.9367 N   0  0  0  0  0  0
   -0.6248   10.2704   26.3281 C   0  0  0  0  0  0
    0.6857   10.0642   25.8717 C   0  0  0  0  0  0
    1.0318   10.7119   24.6679 C   0  0  0  0  0  0
    2.3539   10.3773   24.4280 N   0  0  0  0  0  0
    2.8458    9.5885   25.4112 N   0  0  0  0  0  0
    1.8723    9.3735   26.2634 C   0  0  0  0  0  0
   -1.1445    9.5750   27.8190 Cl  0  0  0  0  0  0
   -1.9390   12.2988   23.7029 N   0  0  0  0  0  0
    3.2396   10.8361   23.3625 C   0  0  0  0  0  0
    4.1868   11.9557   23.7847 C   0  0  0  0  0  0
    5.5745   11.8235   23.5670 C   0  0  0  0  0  0
    6.4658   12.8337   23.9667 C   0  0  0  0  0  0
    3.6767   13.1201   24.3860 C   0  0  0  0  0  0
    4.5814   14.1058   24.7671 C   0  0  0  0  0  0
    5.9255   13.9689   24.5642 C   0  0  0  0  0  0
    6.5704   15.0548   25.0648 O   0  0  0  0  0  0
    5.5631   15.9648   25.4248 C   0  0  0  0  0  0
    4.3376   15.2815   25.4027 O   0  0  0  0  0  0
    2.0285    8.7632   27.1409 H   0  0  0  0  0  0
   -1.6547   12.6231   22.7936 H   0  0  0  0  0  0
   -2.9218   12.2683   23.9673 H   0  0  0  0  0  0
    3.7896    9.9708   22.9890 H   0  0  0  0  0  0
    2.6245   11.1913   22.5343 H   0  0  0  0  0  0
    5.9707   10.9305   23.1060 H   0  0  0  0  0  0
    7.5299   12.7272   23.8140 H   0  0  0  0  0  0
    2.6190   13.2402   24.5644 H   0  0  0  0  0  0
    5.7561   16.3689   26.4198 H   0  0  0  0  0  0
    5.5328   16.7717   24.6921 H   0  0  0  0  0  0
  1  2  2  0  0  0
  1  4  1  0  0  0
  2  3  1  0  0  0
  2 11  1  0  0  0
  3  6  2  0  0  0
  4  5  2  0  0  0
  4 10  1  0  0  0
  5  6  1  0  0  0
  5  9  1  0  0  0
  6  7  1  0  0  0
  7  8  1  0  0  0
  7 12  1  0  0  0
  8  9  2  0  0  0
  9 22  1  0  0  0
 11 23  1  0  0  0
 11 24  1  0  0  0
 12 13  1  0  0  0
 12 25  1  0  0  0
 12 26  1  0  0  0
 13 14  2  0  0  0
 13 16  1  0  0  0
 14 15  1  0  0  0
 14 27  1  0  0  0
 15 18  2  0  0  0
 15 28  1  0  0  0
 16 17  2  0  0  0
 16 29  1  0  0  0
 17 18  1  0  0  0
 17 21  1  0  0  0
 18 19  1  0  0  0
 19 20  1  0  0  0
 20 21  1  0  0  0
 20 30  1  0  0  0
 20 31  1  0  0  0
M  END
> <s_m_entry_id>
4891

> <s_m_entry_name>
dock_pv.210

> <s_m_Source_Path>
/home/csk/Desktop/cluster/DUD-E-result/hs90a

> <s_m_Source_File>
dock_pv.maegz

> <i_m_Source_File_Index>
210

> <chembl_id>
CHEMBL4095912

> <chembl_pref_name>
None

> <i_lp_mmshare_version>
53161

> <r_lp_tautomer_probability>
1

> <s_lp_Force_Field>
OPLS_2005

> <r_lp_Energy>
13.629104

> <b_lp_Chiralities_Consistent>
1

> <s_lp_Variant>
CHEMBL3880_lig759-1

> <s_i_glide_gridfile>
glide-grid_1uyg

> <i_i_glide_lignum>
860

> <i_i_glide_rotatable_bonds>
2

> <r_i_docking_score>
-8.17611411644405

> <r_i_glide_ligand_efficiency>
-0.389338767449717

> <r_i_glide_ligand_efficiency_sa>
-1.07415613722935

> <r_i_glide_ligand_efficiency_ln>
-2.02152769389659

> <r_i_glide_gscore>
-8.17611411644405

> <r_i_glide_lipo>
-2.68552223909709

> <r_i_glide_hbond>
-0.16

> <r_i_glide_metal>
0

> <r_i_glide_rewards>
-3.33619617299127

> <r_i_glide_evdw>
-37.8814239501953

> <r_i_glide_ecoul>
-3.18005394935608

> <r_i_glide_erotb>
0.399653635976755

> <r_i_glide_esite>
-0.0229700504192686

> <r_i_glide_emodel>
-61.4831187051584

> <r_i_glide_energy>
-41.0614778995514

> <r_i_glide_einternal>
0.48979726433754

> <i_i_glide_confnum>
4

> <i_i_glide_posenum>
366

> <r_i_glide_eff_state_penalty>
0

> <s_user_duplicate_titles>
CHEMBL3880_lig759

> <i_f3d_flags>
0

> <s_m_subgroup_title>
dock_pv

> <s_m_subgroupid>
dock_pv

> <b_m_subgroup_collapsed>
1

$$$$
CHEMBL3880_lig760
                    3D
 Schrodinger Suite 2021-1.
 31 34  0  0  1  0            999 V2000
   -1.4867   11.0210   25.6142 N   0  0  0  0  0  0
   -1.0263   11.5688   24.4621 C   0  0  0  0  0  0
    0.2279   11.4866   23.9524 N   0  0  0  0  0  0
   -0.6169   10.2675   26.3372 C   0  0  0  0  0  0
    0.6957   10.0625   25.8821 C   0  0  0  0  0  0
    1.0431   10.7138   24.6809 C   0  0  0  0  0  0
    2.3648   10.3801   24.4404 N   0  0  0  0  0  0
    2.8573    9.5892   25.4210 N   0  0  0  0  0  0
    1.8837    9.3726   26.2732 C   0  0  0  0  0  0
   -1.1391    9.5726   27.8284 Cl  0  0  0  0  0  0
   -1.9390   12.2825   23.7055 N   0  0  0  0  0  0
    3.2458   10.8326   23.3665 C   0  0  0  0  0  0
    4.2251   11.9338   23.7841 C   0  0  0  0  0  0
    5.6221   11.8176   23.5670 C   0  0  0  0  0  0
    6.4946   12.8420   23.9670 C   0  0  0  0  0  0
    3.7108   13.0980   24.3855 C   0  0  0  0  0  0
    4.6022   14.0938   24.7671 C   0  0  0  0  0  0
    5.9464   13.9690   24.5685 C   0  0  0  0  0  0
    6.5813   15.0608   25.0690 O   0  0  0  0  0  0
    5.5655   15.9624   25.4247 C   0  0  0  0  0  0
    4.3462   15.2679   25.4007 O   0  0  0  0  0  0
    6.3909   10.2933   22.7153 Br  0  0  0  0  0  0
    2.0377    8.7606   27.1507 H   0  0  0  0  0  0
   -1.6614   12.6005   22.7917 H   0  0  0  0  0  0
   -2.9234   12.2404   23.9675 H   0  0  0  0  0  0
    3.7416    9.9514   22.9629 H   0  0  0  0  0  0
    2.6226   11.2182   22.5589 H   0  0  0  0  0  0
    7.5592   12.7490   23.8116 H   0  0  0  0  0  0
    2.6513   13.2128   24.5587 H   0  0  0  0  0  0
    5.7496   16.3688   26.4201 H   0  0  0  0  0  0
    5.5318   16.7691   24.6903 H   0  0  0  0  0  0
  1  2  2  0  0  0
  1  4  1  0  0  0
  2  3  1  0  0  0
  2 11  1  0  0  0
  3  6  2  0  0  0
  4  5  2  0  0  0
  4 10  1  0  0  0
  5  6  1  0  0  0
  5  9  1  0  0  0
  6  7  1  0  0  0
  7  8  1  0  0  0
  7 12  1  0  0  0
  8  9  2  0  0  0
  9 23  1  0  0  0
 11 24  1  0  0  0
 11 25  1  0  0  0
 12 13  1  0  0  0
 12 26  1  0  0  0
 12 27  1  0  0  0
 13 14  2  0  0  0
 13 16  1  0  0  0
 14 15  1  0  0  0
 14 22  1  0  0  0
 15 18  2  0  0  0
 15 28  1  0  0  0
 16 17  2  0  0  0
 16 29  1  0  0  0
 17 18  1  0  0  0
 17 21  1  0  0  0
 18 19  1  0  0  0
 19 20  1  0  0  0
 20 21  1  0  0  0
 20 30  1  0  0  0
 20 31  1  0  0  0
M  END
> <s_m_entry_id>
4892

> <s_m_entry_name>
dock_pv.211

> <s_m_Source_Path>
/home/csk/Desktop/cluster/DUD-E-result/hs90a

> <s_m_Source_File>
dock_pv.maegz

> <i_m_Source_File_Index>
211

> <chembl_id>
CHEMBL4068596

> <chembl_pref_name>
None

> <i_lp_mmshare_version>
53161

> <r_lp_tautomer_probability>
1

> <s_lp_Force_Field>
OPLS_2005

> <r_lp_Energy>
13.450664

> <b_lp_Chiralities_Consistent>
1

> <s_lp_Variant>
CHEMBL3880_lig760-1

> <s_i_glide_gridfile>
glide-grid_1uyg

> <i_i_glide_lignum>
861

> <i_i_glide_rotatable_bonds>
2

> <r_i_docking_score>
-8.17173531315436

> <r_i_glide_ligand_efficiency>
-0.371442514234289

> <r_i_glide_ligand_efficiency_sa>
-1.04079653288962

> <r_i_glide_ligand_efficiency_ln>
-1.99747018182278

> <r_i_glide_gscore>
-8.17173531315436

> <r_i_glide_lipo>
-2.91844746327933

> <r_i_glide_hbond>
-0.16

> <r_i_glide_metal>
0

> <r_i_glide_rewards>
-2.7871788106192

> <r_i_glide_evdw>
-40.7013854980469

> <r_i_glide_ecoul>
-3.41735649108887

> <r_i_glide_erotb>
0.265377862777378

> <r_i_glide_esite>
-0.0238141534675273

> <r_i_glide_emodel>
-65.5467922518753

> <r_i_glide_energy>
-44.1187419891357

> <r_i_glide_einternal>
1.22552859783173

> <i_i_glide_confnum>
4

> <i_i_glide_posenum>
240

> <r_i_glide_eff_state_penalty>
0

> <s_user_duplicate_titles>
CHEMBL3880_lig760

> <i_f3d_flags>
0

> <s_m_subgroup_title>
dock_pv

> <s_m_subgroupid>
dock_pv

> <b_m_subgroup_collapsed>
1

$$$$
CHEMBL3880_lig263
                    3D
 Schrodinger Suite 2021-1.
 37 39  0  0  1  0            999 V2000
    7.6250   13.2099   24.3558 N   0  0  0  0  0  0
    7.1246   12.0901   23.7784 C   0  0  0  0  0  0
    5.8209   11.7797   23.5646 N   0  0  0  0  0  0
    6.7390   14.1538   24.7669 C   0  0  0  0  0  0
    3.6048   12.8056   23.8759 N   0  0  0  0  0  0
    3.2603   14.0314   24.4100 C   0  0  0  0  0  0
    4.2665   14.7410   24.8583 N   0  0  0  0  0  0
    5.3600   13.9674   24.5744 C   0  0  0  0  0  0
    4.9811   12.7435   23.9672 C   0  0  0  0  0  0
    7.3412   15.5682   25.5400 Cl  0  0  0  0  0  0
    8.0557   11.1621   23.3459 N   0  0  0  0  0  0
    2.6941   11.8239   23.2926 C   0  0  0  0  0  0
    1.7986   11.1453   24.3245 C   0  0  0  0  0  0
    0.4477   11.4931   24.5185 C   0  0  0  0  0  0
   -0.2547   10.8460   25.5547 C   0  0  0  0  0  0
    0.3922    9.8697   26.3286 C   0  0  0  0  0  0
    1.7231    9.5686   26.0361 C   0  0  0  0  0  0
    2.4263   10.1946   25.0639 N   0  0  0  0  0  0
   -0.3050    9.1510   27.4753 C   0  0  0  0  0  0
   -0.2334   12.5423   23.6407 C   0  0  0  0  0  0
   -1.5566   11.1717   25.8480 O   0  0  0  0  0  0
   -2.5246   10.5515   25.0116 C   0  0  0  0  0  0
    2.2267   14.3387   24.4231 H   0  0  0  0  0  0
    7.7173   10.3610   22.8369 H   0  0  0  0  0  0
    9.0119   11.4876   23.2469 H   0  0  0  0  0  0
    2.1201   12.3182   22.5095 H   0  0  0  0  0  0
    3.2861   11.0616   22.7819 H   0  0  0  0  0  0
    2.2636    8.8291   26.6085 H   0  0  0  0  0  0
   -1.2580    9.6093   27.7442 H   0  0  0  0  0  0
   -0.4797    8.1073   27.2153 H   0  0  0  0  0  0
    0.3233    9.1696   28.3662 H   0  0  0  0  0  0
   -1.2362   12.7984   23.9755 H   0  0  0  0  0  0
    0.3352   13.4701   23.6242 H   0  0  0  0  0  0
   -0.3037   12.1818   22.6144 H   0  0  0  0  0  0
   -3.4553   10.4230   25.5645 H   0  0  0  0  0  0
   -2.7388   11.1558   24.1316 H   0  0  0  0  0  0
   -2.2101    9.5690   24.6682 H   0  0  0  0  0  0
  1  2  2  0  0  0
  1  4  1  0  0  0
  2 11  1  0  0  0
  2  3  1  0  0  0
  3  9  2  0  0  0
  4 10  1  0  0  0
  4  8  2  0  0  0
  5 12  1  0  0  0
  5  6  1  0  0  0
  5  9  1  0  0  0
  6  7  2  0  0  0
  6 23  1  0  0  0
  7  8  1  0  0  0
  8  9  1  0  0  0
 11 24  1  0  0  0
 11 25  1  0  0  0
 12 13  1  0  0  0
 12 26  1  0  0  0
 12 27  1  0  0  0
 13 14  2  0  0  0
 13 18  1  0  0  0
 14 15  1  0  0  0
 14 20  1  0  0  0
 15 16  2  0  0  0
 15 21  1  0  0  0
 16 17  1  0  0  0
 16 19  1  0  0  0
 17 18  2  0  0  0
 17 28  1  0  0  0
 19 29  1  0  0  0
 19 30  1  0  0  0
 19 31  1  0  0  0
 20 32  1  0  0  0
 20 33  1  0  0  0
 20 34  1  0  0  0
 21 22  1  0  0  0
 22 35  1  0  0  0
 22 36  1  0  0  0
 22 37  1  0  0  0
M  END
> <s_m_entry_id>
4893

> <s_m_entry_name>
dock_pv.212

> <s_m_Source_Path>
/home/csk/Desktop/cluster/DUD-E-result/hs90a

> <s_m_Source_File>
dock_pv.maegz

> <i_m_Source_File_Index>
212

> <chembl_id>
CHEMBL467399

> <chembl_pref_name>
BIIB021

> <i_lp_mmshare_version>
53161

> <r_lp_tautomer_probability>
1

> <s_lp_Force_Field>
OPLS_2005

> <r_lp_Energy>
12.241135

> <b_lp_Chiralities_Consistent>
1

> <s_lp_Variant>
CHEMBL3880_lig263-1

> <s_i_glide_gridfile>
glide-grid_1uyg

> <i_i_glide_lignum>
297

> <i_i_glide_rotatable_bonds>
3

> <r_i_docking_score>
-8.15095787906965

> <r_i_glide_ligand_efficiency>
-0.370498085412257

> <r_i_glide_ligand_efficiency_sa>
-1.03815020618801

> <r_i_glide_ligand_efficiency_ln>
-1.99239141905716

> <r_i_glide_gscore>
-8.15095787906965

> <r_i_glide_lipo>
-2.68232562833634

> <r_i_glide_hbond>
-0.368015783779568

> <r_i_glide_metal>
0

> <r_i_glide_rewards>
-3.05964487995579

> <r_i_glide_evdw>
-38.4811172485352

> <r_i_glide_ecoul>
-3.21868467330933

> <r_i_glide_erotb>
0.36708293149922

> <r_i_glide_esite>
-0.00119595507401569

> <r_i_glide_emodel>
-59.5458534204933

> <r_i_glide_energy>
-41.6998019218445

> <r_i_glide_einternal>
2.806565284729

> <i_i_glide_confnum>
3

> <i_i_glide_posenum>
118

> <r_i_glide_eff_state_penalty>
0

> <s_user_duplicate_titles>
CHEMBL3880_lig263,495617

> <i_f3d_flags>
0

> <s_m_subgroup_title>
dock_pv

> <s_m_subgroupid>
dock_pv

> <b_m_subgroup_collapsed>
1

$$$$
CHEMBL3880_lig903
                    3D
 Schrodinger Suite 2021-1.
 51 53  0  0  1  0            999 V2000
    2.3169   14.6604   24.3669 Cl  0  0  0  0  0  0
    3.8402   13.8459   24.3190 C   0  0  0  0  0  0
    4.9742   14.5278   24.7670 C   0  0  0  0  0  0
    4.8424   15.7902   25.2932 O   0  0  0  0  0  0
    4.7441   15.8214   26.7058 C   0  0  0  0  0  0
    6.2451   13.9689   24.5992 C   0  0  0  0  0  0
    7.3170   14.6598   25.1226 O   0  0  0  0  0  0
    8.3677   14.9866   24.2286 C   0  0  0  0  0  0
    6.3855   12.7158   23.9670 C   0  0  0  0  0  0
    7.6609   12.2040   23.8340 O   0  0  0  0  0  0
    7.8575   10.9385   23.2143 C   0  0  0  0  0  0
    5.2315   12.0211   23.5673 C   0  0  0  0  0  0
    3.9597   12.5707   23.7444 C   0  0  0  0  0  0
    2.7465   11.8209   23.1912 C   0  0  0  0  0  0
    1.9266   11.1398   24.2470 C   0  0  0  0  0  0
    2.4323   10.1602   24.9618 N   0  0  0  0  0  0
    1.4578    9.8223   25.8237 C   0  0  0  0  0  0
    1.4076    8.8803   26.8744 C   0  0  0  0  0  0
    2.4611    8.0393   27.2042 N   0  0  0  0  0  0
    0.3278   10.5853   25.6225 C   0  0  0  0  0  0
   -0.8033   10.5341   26.3680 N   0  0  0  0  0  0
   -0.7391    9.6216   27.3525 C   0  0  0  0  0  0
    0.2832    8.8006   27.6277 N   0  0  0  0  0  0
    0.6236   11.3841   24.5519 N   0  0  0  0  0  0
   -0.2934   12.3944   23.9769 C   0  0  0  0  0  0
   -0.3817   12.3899   22.4305 C   0  0  0  0  0  0
   -1.8066   12.3266   21.8518 C   0  0  0  0  0  0
   -2.7258   13.3812   22.3053 C   0  0  0  0  0  0
   -3.5392   14.1795   22.7372 C   0  0  0  0  0  0
   -1.8216    9.5291   28.1575 F   0  0  0  0  0  0
    4.4715   16.8290   27.0181 H   0  0  0  0  0  0
    3.9756   15.1412   27.0801 H   0  0  0  0  0  0
    5.6992   15.5671   27.1671 H   0  0  0  0  0  0
    8.7584   15.9689   24.4824 H   0  0  0  0  0  0
    9.1844   14.2789   24.3610 H   0  0  0  0  0  0
    8.0614   15.0039   23.1802 H   0  0  0  0  0  0
    8.9249   10.7254   23.1791 H   0  0  0  0  0  0
    7.3801   10.1373   23.7805 H   0  0  0  0  0  0
    7.4872   10.9304   22.1883 H   0  0  0  0  0  0
    5.3086   11.0487   23.1063 H   0  0  0  0  0  0
    3.0605   11.0692   22.4663 H   0  0  0  0  0  0
    2.1647   12.5330   22.6175 H   0  0  0  0  0  0
    3.3235    8.1060   26.6854 H   0  0  0  0  0  0
    2.3639    7.4485   28.0152 H   0  0  0  0  0  0
   -1.2717   12.2118   24.4259 H   0  0  0  0  0  0
    0.0610   13.3474   24.3581 H   0  0  0  0  0  0
    0.1111   13.2841   22.0515 H   0  0  0  0  0  0
    0.1899   11.5691   22.0094 H   0  0  0  0  0  0
   -1.7659   12.3790   20.7670 H   0  0  0  0  0  0
   -2.2759   11.3744   22.1030 H   0  0  0  0  0  0
   -4.3143   14.7690   23.1668 H   0  0  0  0  0  0
  1  2  1  0  0  0
  2  3  2  0  0  0
  2 13  1  0  0  0
  3  4  1  0  0  0
  3  6  1  0  0  0
  4  5  1  0  0  0
  5 31  1  0  0  0
  5 32  1  0  0  0
  5 33  1  0  0  0
  6  7  1  0  0  0
  6  9  2  0  0  0
  7  8  1  0  0  0
  8 34  1  0  0  0
  8 35  1  0  0  0
  8 36  1  0  0  0
  9 10  1  0  0  0
  9 12  1  0  0  0
 10 11  1  0  0  0
 11 37  1  0  0  0
 11 38  1  0  0  0
 11 39  1  0  0  0
 12 13  2  0  0  0
 12 40  1  0  0  0
 13 14  1  0  0  0
 14 15  1  0  0  0
 14 41  1  0  0  0
 14 42  1  0  0  0
 15 16  2  0  0  0
 15 24  1  0  0  0
 16 17  1  0  0  0
 17 18  2  0  0  0
 17 20  1  0  0  0
 18 19  1  0  0  0
 18 23  1  0  0  0
 19 43  1  0  0  0
 19 44  1  0  0  0
 20 21  2  0  0  0
 20 24  1  0  0  0
 21 22  1  0  0  0
 22 23  2  0  0  0
 22 30  1  0  0  0
 24 25  1  0  0  0
 25 26  1  0  0  0
 25 45  1  0  0  0
 25 46  1  0  0  0
 26 27  1  0  0  0
 26 47  1  0  0  0
 26 48  1  0  0  0
 27 28  1  0  0  0
 27 49  1  0  0  0
 27 50  1  0  0  0
 28 29  3  0  0  0
 29 51  1  0  0  0
M  END
> <s_m_entry_id>
4894

> <s_m_entry_name>
dock_pv.213

> <s_m_Source_Path>
/home/csk/Desktop/cluster/DUD-E-result/hs90a

> <s_m_Source_File>
dock_pv.maegz

> <i_m_Source_File_Index>
213

> <chembl_id>
CHEMBL112953

> <chembl_pref_name>
None

> <i_lp_mmshare_version>
53161

> <r_lp_tautomer_probability>
0.999997216410988

> <s_lp_Force_Field>
OPLS_2005

> <r_lp_Energy>
29.695795

> <b_lp_Chiralities_Consistent>
1

> <s_lp_Variant>
CHEMBL3880_lig903-1

> <s_i_glide_gridfile>
glide-grid_1uyg

> <i_i_glide_lignum>
1009

> <i_i_glide_rotatable_bonds>
9

> <r_i_docking_score>
-8.14978918912294

> <r_i_glide_ligand_efficiency>
-0.271659639637431

> <r_i_glide_ligand_efficiency_sa>
-0.844109661880144

> <r_i_glide_ligand_efficiency_ln>
-1.85172090283419

> <r_i_glide_gscore>
-8.14978918912294

> <r_i_glide_lipo>
-3.66303097959706

> <r_i_glide_hbond>
0

> <r_i_glide_metal>
0

> <r_i_glide_rewards>
-2.59115099456653

> <r_i_glide_evdw>
-52.3454818725586

> <r_i_glide_ecoul>
0.580116152763367

> <r_i_glide_erotb>
0.63464945575407

> <r_i_glide_esite>
0

> <r_i_glide_emodel>
-72.6814972396009

> <r_i_glide_energy>
-51.7653657197952

> <r_i_glide_einternal>
7.95056056976318

> <i_i_glide_confnum>
38

> <i_i_glide_posenum>
393

> <r_i_glide_eff_state_penalty>
0

> <s_user_duplicate_titles>
CHEMBL3880_lig903,183085

> <i_f3d_flags>
0

> <s_m_subgroup_title>
dock_pv

> <s_m_subgroupid>
dock_pv

> <b_m_subgroup_collapsed>
1

$$$$
CHEMBL3880_lig926
                    3D
 Schrodinger Suite 2021-1.
 46 49  0  0  1  0            999 V2000
   -1.1818   10.3691   26.2582 N   0  0  0  0  0  0
   -0.9033   10.9484   25.0605 C   0  0  0  0  0  0
    0.2946   10.9115   24.4182 N   0  0  0  0  0  0
    1.2930   10.2072   25.0226 C   0  0  0  0  0  0
   -1.9389   11.6078   24.4092 N   0  0  0  0  0  0
    2.5506   10.0521   24.2458 C   0  0  0  0  0  0
    2.7991    8.8560   23.5463 C   0  0  0  0  0  0
    3.9636    8.7015   22.7932 C   0  0  0  0  0  0
    4.9021    9.7251   22.7403 C   0  0  0  0  0  0
    4.6819   10.8973   23.4531 C   0  0  0  0  0  0
    3.5065   11.0829   24.1898 C   0  0  0  0  0  0
    3.3108   12.2549   24.8898 O   0  0  0  0  0  0
    1.6589    7.5521   23.5549 Cl  0  0  0  0  0  0
    3.3239   13.4654   24.1299 C   0  0  0  0  0  0
    3.9343   14.6456   24.9247 C   0  0  0  0  0  0
    5.3686   14.5342   25.2006 N   0  0  0  0  0  0
    6.3251    9.5613   21.7774 Cl  0  0  0  0  0  0
   -0.1634    9.6687   26.8249 C   0  0  0  0  0  0
    1.0947    9.5699   26.2533 C   0  0  0  0  0  0
    2.0127    8.7585   27.1284 C   0  0  0  0  0  0
    1.1484    8.3693   28.2526 N   0  0  0  0  0  0
   -0.2237    8.8751   28.1082 C   0  0  0  0  0  0
    1.5497    7.6569   29.3360 C   0  0  0  0  0  0
    2.8577    7.4158   29.4329 N   0  0  0  0  0  0
    0.7941    7.2663   30.2203 O   0  0  0  0  0  0
    6.0656   15.1690   26.1989 C   0  0  0  0  0  0
    7.3896   14.8063   26.0227 C   0  0  0  0  0  0
    7.3898   14.0141   24.8741 C   0  0  0  0  0  0
    6.1881   13.8748   24.3670 N   0  0  0  0  0  0
   -1.7716   11.9597   23.4802 H   0  0  0  0  0  0
   -2.8905   11.5689   24.7667 H   0  0  0  0  0  0
    4.1306    7.7894   22.2389 H   0  0  0  0  0  0
    5.4289   11.6719   23.4178 H   0  0  0  0  0  0
    3.8251   13.3695   23.1674 H   0  0  0  0  0  0
    2.2864   13.7021   23.8916 H   0  0  0  0  0  0
    3.7956   15.5690   24.3663 H   0  0  0  0  0  0
    3.4147   14.7649   25.8746 H   0  0  0  0  0  0
    2.8608    9.3477   27.4783 H   0  0  0  0  0  0
    2.4086    7.8779   26.6201 H   0  0  0  0  0  0
   -0.9400    8.0544   28.0606 H   0  0  0  0  0  0
   -0.5036    9.4855   28.9665 H   0  0  0  0  0  0
    3.2184    7.0560   30.3048 H   0  0  0  0  0  0
    3.5004    7.7448   28.7320 H   0  0  0  0  0  0
    5.5691   15.7914   26.9272 H   0  0  0  0  0  0
    8.2355   15.0875   26.6329 H   0  0  0  0  0  0
    8.2488   13.5472   24.4177 H   0  0  0  0  0  0
  1  2  2  0  0  0
  1 18  1  0  0  0
  2  5  1  0  0  0
  2  3  1  0  0  0
  3  4  2  0  0  0
  4 19  1  0  0  0
  4  6  1  0  0  0
  5 30  1  0  0  0
  5 31  1  0  0  0
  6  7  2  0  0  0
  6 11  1  0  0  0
  7  8  1  0  0  0
  7 13  1  0  0  0
  8  9  2  0  0  0
  8 32  1  0  0  0
  9 17  1  0  0  0
  9 10  1  0  0  0
 10 11  2  0  0  0
 10 33  1  0  0  0
 11 12  1  0  0  0
 12 14  1  0  0  0
 14 15  1  0  0  0
 14 34  1  0  0  0
 14 35  1  0  0  0
 15 16  1  0  0  0
 15 36  1  0  0  0
 15 37  1  0  0  0
 16 26  1  0  0  0
 16 29  1  0  0  0
 18 19  2  0  0  0
 18 22  1  0  0  0
 19 20  1  0  0  0
 20 21  1  0  0  0
 20 38  1  0  0  0
 20 39  1  0  0  0
 21 22  1  0  0  0
 21 23  1  0  0  0
 22 40  1  0  0  0
 22 41  1  0  0  0
 23 24  1  0  0  0
 23 25  2  0  0  0
 24 42  1  0  0  0
 24 43  1  0  0  0
 26 27  2  0  0  0
 26 44  1  0  0  0
 27 28  1  0  0  0
 27 45  1  0  0  0
 28 29  2  0  0  0
 28 46  1  0  0  0
M  END
> <s_m_entry_id>
4895

> <s_m_entry_name>
dock_pv.214

> <s_m_Source_Path>
/home/csk/Desktop/cluster/DUD-E-result/hs90a

> <s_m_Source_File>
dock_pv.maegz

> <i_m_Source_File_Index>
214

> <chembl_id>
CHEMBL1774919

> <chembl_pref_name>
None

> <i_lp_mmshare_version>
53161

> <r_lp_tautomer_probability>
0.999999987636

> <s_lp_Force_Field>
OPLS_2005

> <r_lp_Energy>
26.93497

> <b_lp_Chiralities_Consistent>
1

> <s_lp_Variant>
CHEMBL3880_lig926-1

> <s_i_glide_gridfile>
glide-grid_1uyg

> <i_i_glide_lignum>
1032

> <i_i_glide_rotatable_bonds>
6

> <r_i_docking_score>
-8.1479164862081

> <r_i_glide_ligand_efficiency>
-0.280962637455452

> <r_i_glide_ligand_efficiency_sa>
-0.863206237474567

> <r_i_glide_ligand_efficiency_ln>
-1.86566626200665

> <r_i_glide_gscore>
-8.1479164862081

> <r_i_glide_lipo>
-3.74755981663301

> <r_i_glide_hbond>
-0.103553686004184

> <r_i_glide_metal>
0

> <r_i_glide_rewards>
-1.60797768658889

> <r_i_glide_evdw>
-51.8945121765137

> <r_i_glide_ecoul>
-3.06255507469177

> <r_i_glide_erotb>
0.422366750363506

> <r_i_glide_esite>
-0.0570831773160748

> <r_i_glide_emodel>
-79.0386642371779

> <r_i_glide_energy>
-54.9570672512054

> <r_i_glide_einternal>
6.80976390838623

> <i_i_glide_confnum>
1

> <i_i_glide_posenum>
198

> <r_i_glide_eff_state_penalty>
0

> <s_user_duplicate_titles>
CHEMBL3880_lig926

> <i_f3d_flags>
0

> <s_m_subgroup_title>
dock_pv

> <s_m_subgroupid>
dock_pv

> <b_m_subgroup_collapsed>
1

$$$$
CHEMBL3880_lig73
                    3D
 Schrodinger Suite 2021-1.
 41 43  0  0  1  0            999 V2000
    3.6497   14.6938   24.8036 O   0  0  0  0  0  0
    7.3598   11.1208   23.0212 O   0  0  0  0  0  0
    5.3959    9.1624   23.5666 O   0  0  0  0  0  0
    3.6450    9.9774   22.3662 O   0  0  0  0  0  0
   -1.4495   11.1954   23.9056 O   0  0  0  0  0  0
    4.0850   12.4492   23.9694 C   0  0  0  0  0  0
    5.0320   11.5184   23.5675 C   0  0  0  0  0  0
    4.4491   13.7998   24.5095 C   0  0  0  0  0  0
    5.9120   13.9694   24.7827 C   0  0  0  0  0  0
    6.8642   13.0191   24.3668 C   0  0  0  0  0  0
    6.4918   11.8122   23.5642 C   0  0  0  0  0  0
    2.6113   12.1706   24.0187 C   0  0  0  0  0  0
    4.6112   10.1679   23.1030 C   0  0  0  0  0  0
    6.3404   15.0620   25.5560 C   0  0  0  0  0  0
    8.1973   13.1701   24.7645 C   0  0  0  0  0  0
    1.7195   12.9841   23.3114 C   0  0  0  0  0  0
    2.0954   11.1028   24.7650 C   0  0  0  0  0  0
    7.6675   15.1689   25.9610 C   0  0  0  0  0  0
    8.6032   14.2278   25.5650 C   0  0  0  0  0  0
    0.3648   12.7079   23.2939 C   0  0  0  0  0  0
    0.7334   10.8128   24.7361 C   0  0  0  0  0  0
   -0.1327   11.5905   23.9708 C   0  0  0  0  0  0
    5.1684    7.8142   23.1765 C   0  0  0  0  0  0
    6.2953    6.9389   23.7331 C   0  0  0  0  0  0
   -2.2753   11.7960   22.9142 C   0  0  0  0  0  0
    5.6401   15.8098   25.9049 H   0  0  0  0  0  0
    8.9224   12.4155   24.5001 H   0  0  0  0  0  0
    2.0652   13.8475   22.7685 H   0  0  0  0  0  0
    2.7550   10.4743   25.3464 H   0  0  0  0  0  0
    7.9701   15.9688   26.6097 H   0  0  0  0  0  0
    9.6283   14.3042   25.8974 H   0  0  0  0  0  0
   -0.2828   13.3637   22.7367 H   0  0  0  0  0  0
    0.3515    9.9615   25.2802 H   0  0  0  0  0  0
    4.2022    7.4756   23.5537 H   0  0  0  0  0  0
    5.1443    7.7350   22.0876 H   0  0  0  0  0  0
    6.1494    5.8954   23.4544 H   0  0  0  0  0  0
    7.2628    7.2528   23.3395 H   0  0  0  0  0  0
    6.3393    6.9935   24.8215 H   0  0  0  0  0  0
   -3.1388   11.1690   22.7706 H   0  0  0  0  0  0
   -2.6133   12.7873   23.2174 H   0  0  0  0  0  0
   -1.7940   11.8587   21.9365 H   0  0  0  0  0  0
  1  8  2  0  0  0
  2 11  2  0  0  0
  3 13  1  0  0  0
  3 23  1  0  0  0
  4 13  2  0  0  0
  5 22  1  0  0  0
  5 25  1  0  0  0
  6  7  2  0  0  0
  6  8  1  0  0  0
  6 12  1  0  0  0
  7 11  1  0  0  0
  7 13  1  0  0  0
  8  9  1  0  0  0
  9 10  1  0  0  0
  9 14  2  0  0  0
 10 11  1  0  0  0
 10 15  2  0  0  0
 12 16  2  0  0  0
 12 17  1  0  0  0
 14 18  1  0  0  0
 14 26  1  0  0  0
 15 19  1  0  0  0
 15 27  1  0  0  0
 16 20  1  0  0  0
 16 28  1  0  0  0
 17 21  2  0  0  0
 17 29  1  0  0  0
 18 19  2  0  0  0
 18 30  1  0  0  0
 19 31  1  0  0  0
 20 22  2  0  0  0
 20 32  1  0  0  0
 21 22  1  0  0  0
 21 33  1  0  0  0
 23 24  1  0  0  0
 23 34  1  0  0  0
 23 35  1  0  0  0
 24 36  1  0  0  0
 24 37  1  0  0  0
 24 38  1  0  0  0
 25 39  1  0  0  0
 25 40  1  0  0  0
 25 41  1  0  0  0
M  END
> <s_m_entry_id>
4896

> <s_m_entry_name>
dock_pv.215

> <s_m_Source_Path>
/home/csk/Desktop/cluster/DUD-E-result/hs90a

> <s_m_Source_File>
dock_pv.maegz

> <i_m_Source_File_Index>
215

> <chembl_id>
CHEMBL1310221

> <chembl_pref_name>
None

> <i_lp_mmshare_version>
53161

> <r_lp_tautomer_probability>
1

> <s_lp_Force_Field>
OPLS_2005

> <r_lp_Energy>
28.616151

> <b_lp_Chiralities_Consistent>
1

> <s_lp_Variant>
CHEMBL3880_lig73-1

> <s_i_glide_gridfile>
glide-grid_1uyg

> <i_i_glide_lignum>
80

> <i_i_glide_rotatable_bonds>
5

> <r_i_docking_score>
-8.13989126179061

> <r_i_glide_ligand_efficiency>
-0.325595650471624

> <r_i_glide_ligand_efficiency_sa>
-0.952047456442478

> <r_i_glide_ligand_efficiency_ln>
-1.92939816190132

> <r_i_glide_gscore>
-8.13989126179061

> <r_i_glide_lipo>
-3.51668919400443

> <r_i_glide_hbond>
0

> <r_i_glide_metal>
0

> <r_i_glide_rewards>
-2.91826925873814

> <r_i_glide_evdw>
-38.4556846618652

> <r_i_glide_ecoul>
-1.88650798797607

> <r_i_glide_erotb>
0.500827622241642

> <r_i_glide_esite>
0

> <r_i_glide_emodel>
-56.0361666287396

> <r_i_glide_energy>
-40.3421926498413

> <r_i_glide_einternal>
5.68289184570312

> <i_i_glide_confnum>
24

> <i_i_glide_posenum>
31

> <r_i_glide_eff_state_penalty>
0

> <s_user_duplicate_titles>
CHEMBL3880_lig73

> <i_f3d_flags>
0

> <s_m_subgroup_title>
dock_pv

> <s_m_subgroupid>
dock_pv

> <b_m_subgroup_collapsed>
1

$$$$
CHEMBL3880_lig387
                    3D
 Schrodinger Suite 2021-1.
 37 39  0  0  1  0            999 V2000
    3.5992   11.7134   24.1643 N   0  0  0  0  0  0
    4.7093   11.1592   23.5757 C   0  0  0  0  0  0
    2.5782   10.8467   23.9311 C   0  0  0  0  0  0
    4.2471   10.0171   22.9488 C   0  0  0  0  0  0
    5.9934   11.5993   23.5669 N   0  0  0  0  0  0
    2.9351    9.8410   23.1680 N   0  0  0  0  0  0
    5.1873    9.2606   22.2118 C   0  0  0  0  0  0
    6.7934   10.7935   22.8541 C   0  0  0  0  0  0
    6.4794    9.6806   22.1773 N   0  0  0  0  0  0
    4.8608    8.1068   21.5081 N   0  0  0  0  0  0
    0.9270   11.0564   24.5393 S   0  0  0  0  0  0
    0.6812    9.5062   25.3699 C   0  0  0  0  0  0
    0.6184    9.4689   26.7629 C   0  0  0  0  0  0
    0.3381    8.2755   27.4328 C   0  0  0  0  0  0
    0.0804    7.1091   26.6973 C   0  0  0  0  0  0
    0.1541    7.1412   25.3032 C   0  0  0  0  0  0
    0.4608    8.3325   24.6445 C   0  0  0  0  0  0
    3.5567   12.9647   24.9663 C   0  0  0  0  0  0
    4.1038   14.2085   24.2285 C   0  0  0  0  0  0
    4.4792   15.4008   25.1373 C   0  0  0  0  0  0
    5.6815   15.2370   25.9738 C   0  0  0  0  0  0
    6.6712   15.1689   26.6846 C   0  0  0  0  0  0
    0.3130    8.2748   29.1616 Cl  0  0  0  0  0  0
   -0.3255    5.6210   27.4820 Cl  0  0  0  0  0  0
    7.8295   11.0963   22.7976 H   0  0  0  0  0  0
    3.9071    7.7665   21.5174 H   0  0  0  0  0  0
    5.6190    7.5687   21.1072 H   0  0  0  0  0  0
    0.7861   10.3690   27.3285 H   0  0  0  0  0  0
   -0.0437    6.2465   24.7294 H   0  0  0  0  0  0
    0.5007    8.3431   23.5676 H   0  0  0  0  0  0
    2.5080   13.1417   25.1867 H   0  0  0  0  0  0
    4.0611   12.7622   25.9076 H   0  0  0  0  0  0
    4.9408   13.9706   23.5707 H   0  0  0  0  0  0
    3.3091   14.5433   23.5671 H   0  0  0  0  0  0
    4.6595   16.2854   24.5275 H   0  0  0  0  0  0
    3.6613   15.6492   25.8110 H   0  0  0  0  0  0
    7.5335   15.1276   27.3134 H   0  0  0  0  0  0
  1  2  1  0  0  0
  1  3  1  0  0  0
  1 18  1  0  0  0
  2  4  2  0  0  0
  2  5  1  0  0  0
  3  6  2  0  0  0
  3 11  1  0  0  0
  4  7  1  0  0  0
  4  6  1  0  0  0
  5  8  2  0  0  0
  7  9  2  0  0  0
  7 10  1  0  0  0
  8  9  1  0  0  0
  8 25  1  0  0  0
 10 26  1  0  0  0
 10 27  1  0  0  0
 11 12  1  0  0  0
 12 13  2  0  0  0
 12 17  1  0  0  0
 13 14  1  0  0  0
 13 28  1  0  0  0
 14 15  2  0  0  0
 14 23  1  0  0  0
 15 16  1  0  0  0
 15 24  1  0  0  0
 16 17  2  0  0  0
 16 29  1  0  0  0
 17 30  1  0  0  0
 18 19  1  0  0  0
 18 31  1  0  0  0
 18 32  1  0  0  0
 19 20  1  0  0  0
 19 33  1  0  0  0
 19 34  1  0  0  0
 20 21  1  0  0  0
 20 35  1  0  0  0
 20 36  1  0  0  0
 21 22  3  0  0  0
 22 37  1  0  0  0
M  END
> <s_m_entry_id>
4897

> <s_m_entry_name>
dock_pv.216

> <s_m_Source_Path>
/home/csk/Desktop/cluster/DUD-E-result/hs90a

> <s_m_Source_File>
dock_pv.maegz

> <i_m_Source_File_Index>
216

> <chembl_id>
CHEMBL3426738

> <chembl_pref_name>
None

> <i_lp_mmshare_version>
53161

> <r_lp_tautomer_probability>
0.999997216410988

> <s_lp_Force_Field>
OPLS_2005

> <r_lp_Energy>
9.907872

> <b_lp_Chiralities_Consistent>
1

> <s_lp_Variant>
CHEMBL3880_lig387-1

> <s_i_glide_gridfile>
glide-grid_1uyg

> <i_i_glide_lignum>
429

> <i_i_glide_rotatable_bonds>
6

> <r_i_docking_score>
-8.13914799143

> <r_i_glide_ligand_efficiency>
-0.339131166309583

> <r_i_glide_ligand_efficiency_sa>
-0.978223556739411

> <r_i_glide_ligand_efficiency_ln>
-1.94807159551417

> <r_i_glide_gscore>
-8.13914799143

> <r_i_glide_lipo>
-3.26393286352137

> <r_i_glide_hbond>
-0.32

> <r_i_glide_metal>
0

> <r_i_glide_rewards>
-2.52852024187371

> <r_i_glide_evdw>
-44.1095237731934

> <r_i_glide_ecoul>
-4.01576614379883

> <r_i_glide_erotb>
0.812499555330734

> <r_i_glide_esite>
-0.0313533311361513

> <r_i_glide_emodel>
-68.8311527193909

> <r_i_glide_energy>
-48.1252899169922

> <r_i_glide_einternal>
1.6193882226944

> <i_i_glide_confnum>
83

> <i_i_glide_posenum>
392

> <r_i_glide_eff_state_penalty>
0

> <s_user_duplicate_titles>
CHEMBL3880_lig387

> <i_f3d_flags>
0

> <s_m_subgroup_title>
dock_pv

> <s_m_subgroupid>
dock_pv

> <b_m_subgroup_collapsed>
1

$$$$
CHEMBL3880_lig825
                    3D
 Schrodinger Suite 2021-1.
 37 38  0  0  1  0            999 V2000
   -0.7303   10.1633   26.0744 C   0  0  0  0  0  0
   -1.8755   10.8445   25.6657 C   0  0  0  0  0  0
   -1.8234   11.6446   24.5349 C   0  0  0  0  0  0
   -0.6237   11.8601   23.8644 C   0  0  0  0  0  0
    0.5717   11.2173   24.2801 C   0  0  0  0  0  0
    0.4535   10.3096   25.3527 C   0  0  0  0  0  0
   -0.6956   12.7520   22.8243 O   0  0  0  0  0  0
   -3.0503   10.7690   26.3670 O   0  0  0  0  0  0
   -0.7390    9.1415   27.4722 Cl  0  0  0  0  0  0
    1.9028   11.4989   23.5670 C   0  0  0  0  0  0
    3.1243   11.3368   24.1708 N   0  0  0  0  0  0
    1.8576   11.9690   22.4258 O   0  0  0  0  0  0
    3.4526   10.5589   25.3692 C   0  0  0  0  0  0
    4.3206   12.0174   23.6256 C   0  0  0  0  0  0
    4.8048   13.2603   24.3671 C   0  0  0  0  0  0
    3.9181   14.0916   25.0606 C   0  0  0  0  0  0
    4.3892   15.2048   25.7545 C   0  0  0  0  0  0
    5.7492   15.5027   25.7546 C   0  0  0  0  0  0
    6.6461   14.6897   25.0564 C   0  0  0  0  0  0
    6.1704   13.5693   24.3670 C   0  0  0  0  0  0
    8.1305   15.0020   25.0659 C   0  0  0  0  0  0
   -2.7173   12.1583   24.2117 H   0  0  0  0  0  0
    1.2540    9.6680   25.6672 H   0  0  0  0  0  0
   -1.5991   13.0223   22.6454 H   0  0  0  0  0  0
   -3.7977   11.1925   25.9210 H   0  0  0  0  0  0
    2.8095   10.7692   26.2181 H   0  0  0  0  0  0
    3.4097    9.4917   25.1486 H   0  0  0  0  0  0
    4.4610   10.7689   25.7138 H   0  0  0  0  0  0
    5.1357   11.2957   23.5509 H   0  0  0  0  0  0
    4.1419   12.3689   22.6210 H   0  0  0  0  0  0
    2.8610   13.8749   25.0693 H   0  0  0  0  0  0
    3.6999   15.8371   26.2941 H   0  0  0  0  0  0
    6.0978   16.3688   26.2982 H   0  0  0  0  0  0
    6.8648   12.9360   23.8336 H   0  0  0  0  0  0
    8.4085   15.5690   25.9549 H   0  0  0  0  0  0
    8.7149   14.0815   25.0868 H   0  0  0  0  0  0
    8.4069   15.5690   24.1770 H   0  0  0  0  0  0
  1  2  2  0  0  0
  1  6  1  0  0  0
  1  9  1  0  0  0
  2  3  1  0  0  0
  2  8  1  0  0  0
  3  4  2  0  0  0
  3 22  1  0  0  0
  4  5  1  0  0  0
  4  7  1  0  0  0
  5  6  2  0  0  0
  5 10  1  0  0  0
  6 23  1  0  0  0
  7 24  1  0  0  0
  8 25  1  0  0  0
 10 11  1  0  0  0
 10 12  2  0  0  0
 11 13  1  0  0  0
 11 14  1  0  0  0
 13 26  1  0  0  0
 13 27  1  0  0  0
 13 28  1  0  0  0
 14 15  1  0  0  0
 14 29  1  0  0  0
 14 30  1  0  0  0
 15 16  2  0  0  0
 15 20  1  0  0  0
 16 17  1  0  0  0
 16 31  1  0  0  0
 17 18  2  0  0  0
 17 32  1  0  0  0
 18 19  1  0  0  0
 18 33  1  0  0  0
 19 20  2  0  0  0
 19 21  1  0  0  0
 20 34  1  0  0  0
 21 35  1  0  0  0
 21 36  1  0  0  0
 21 37  1  0  0  0
M  END
> <s_m_entry_id>
4898

> <s_m_entry_name>
dock_pv.217

> <s_m_Source_Path>
/home/csk/Desktop/cluster/DUD-E-result/hs90a

> <s_m_Source_File>
dock_pv.maegz

> <i_m_Source_File_Index>
217

> <chembl_id>
CHEMBL4277126

> <chembl_pref_name>
None

> <i_lp_mmshare_version>
53161

> <r_lp_tautomer_probability>
0.999999999898

> <s_lp_Force_Field>
OPLS_2005

> <r_lp_Energy>
24.359074

> <b_lp_Chiralities_Consistent>
1

> <s_lp_Variant>
CHEMBL3880_lig825-1

> <s_i_glide_gridfile>
glide-grid_1uyg

> <i_i_glide_lignum>
926

> <i_i_glide_rotatable_bonds>
6

> <r_i_docking_score>
-8.1341527066396

> <r_i_glide_ligand_efficiency>
-0.387340605078076

> <r_i_glide_ligand_efficiency_sa>
-1.06864335875949

> <r_i_glide_ligand_efficiency_ln>
-2.01115282011345

> <r_i_glide_gscore>
-8.1341527066396

> <r_i_glide_lipo>
-3.80368990709749

> <r_i_glide_hbond>
-0.208344401103965

> <r_i_glide_metal>
0

> <r_i_glide_rewards>
-2.30937512787069

> <r_i_glide_evdw>
-35.5745544433594

> <r_i_glide_ecoul>
-5.49294519424438

> <r_i_glide_erotb>
0.789926230737177

> <r_i_glide_esite>
0

> <r_i_glide_emodel>
-56.6700056880284

> <r_i_glide_energy>
-41.0674996376038

> <r_i_glide_einternal>
7.1598048210144

> <i_i_glide_confnum>
7

> <i_i_glide_posenum>
161

> <r_i_glide_eff_state_penalty>
0

> <s_user_duplicate_titles>
CHEMBL3880_lig825

> <i_f3d_flags>
0

> <s_m_subgroup_title>
dock_pv

> <s_m_subgroupid>
dock_pv

> <b_m_subgroup_collapsed>
1

$$$$
CHEMBL3880_lig978
                    3D
 Schrodinger Suite 2021-1.
 58 62  0  0  1  0            999 V2000
    4.6114   15.4639   24.4239 C   0  0  0  0  0  0
    5.0636   14.4333   25.4303 C   0  0  0  0  0  0
    5.0562   15.0557   26.8252 C   0  0  0  0  0  0
    0.1008   11.7501   24.2343 C   0  0  0  0  0  0
    1.4345   11.8311   23.8647 C   0  0  0  0  0  0
    0.6297    9.7714   25.5254 C   0  0  0  0  0  0
   -0.2961   10.7327   25.1142 C   0  0  0  0  0  0
    2.3551   10.8734   24.3013 C   0  0  0  0  0  0
    1.9566    9.7591   25.0711 C   0  0  0  0  0  0
    2.8622    8.7117   25.3748 N   0  0  0  0  0  0
    3.6251    8.0381   24.3019 C   0  0  0  0  0  0
    3.9774    8.8163   23.0117 C   0  0  0  0  0  0
    4.5186   10.1993   23.3098 C   0  0  0  0  0  0
    3.7006   11.0872   23.9729 N   0  0  0  0  0  0
    5.7533   10.8074   23.0846 C   0  0  0  0  0  0
    5.7077   12.0307   23.7898 C   0  0  0  0  0  0
    4.4607   12.1604   24.3670 C   0  0  0  0  0  0
    4.0394   13.2509   25.3594 C   0  0  0  0  0  0
    6.5345   14.0300   25.1214 C   0  0  0  0  0  0
    6.7322   13.0445   23.9670 C   0  0  0  0  0  0
   -1.6817   10.6470   25.6601 C   0  0  0  0  0  0
   -1.9142   10.7688   26.8586 O   0  0  0  0  0  0
   -2.6187   10.3691   24.7673 N   0  0  0  0  0  0
    7.6610   13.1585   23.1895 O   0  0  0  0  0  0
    6.9457   10.1763   22.3931 C   0  0  0  0  0  0
   -0.9947   12.9182   23.5673 Cl  0  0  0  0  0  0
    2.6124    7.8061   26.5121 C   0  0  0  0  0  0
    1.4308    6.8489   26.3870 C   0  0  0  0  0  0
    0.8193    6.3208   25.2486 C   0  0  0  0  0  0
   -0.2446    5.5409   25.5671 O   0  0  0  0  0  0
   -0.3276    5.5355   26.9157 C   0  0  0  0  0  0
    0.6854    6.3118   27.4465 C   0  0  0  0  0  0
    4.4220   14.9273   23.5124 H   0  0  0  0  0  0
    3.6892   15.9354   24.7555 H   0  0  0  0  0  0
    5.3540   16.2512   24.2925 H   0  0  0  0  0  0
    5.4617   14.3700   27.5626 H   0  0  0  0  0  0
    5.6627   15.9621   26.8686 H   0  0  0  0  0  0
    4.0459   15.3241   27.1402 H   0  0  0  0  0  0
    1.7535   12.6485   23.2322 H   0  0  0  0  0  0
    0.2764    9.0043   26.1939 H   0  0  0  0  0  0
    3.1444    7.0995   24.0261 H   0  0  0  0  0  0
    4.5763    7.7356   24.7425 H   0  0  0  0  0  0
    3.0970    8.8564   22.3681 H   0  0  0  0  0  0
    4.6782    8.2216   22.4242 H   0  0  0  0  0  0
    4.0610   12.7683   26.3284 H   0  0  0  0  0  0
    3.0216   13.6071   25.1987 H   0  0  0  0  0  0
    7.0058   13.5677   25.9801 H   0  0  0  0  0  0
    7.1437   14.9098   24.9117 H   0  0  0  0  0  0
   -3.5922   10.4385   25.0370 H   0  0  0  0  0  0
   -2.3727   10.1717   23.8103 H   0  0  0  0  0  0
    7.8922   10.5181   22.8133 H   0  0  0  0  0  0
    6.9516    9.0913   22.5083 H   0  0  0  0  0  0
    6.9628   10.3842   21.3233 H   0  0  0  0  0  0
    2.4622    8.4387   27.3882 H   0  0  0  0  0  0
    3.5217    7.2469   26.7389 H   0  0  0  0  0  0
    0.9984    6.4371   24.1900 H   0  0  0  0  0  0
   -1.1373    4.9652   27.3435 H   0  0  0  0  0  0
    0.8562    6.4978   28.4970 H   0  0  0  0  0  0
  1  2  1  0  0  0
  1 33  1  0  0  0
  1 34  1  0  0  0
  1 35  1  0  0  0
  2  3  1  0  0  0
  2 18  1  0  0  0
  2 19  1  0  0  0
  3 36  1  0  0  0
  3 37  1  0  0  0
  3 38  1  0  0  0
  4  5  2  0  0  0
  4  7  1  0  0  0
  4 26  1  0  0  0
  5  8  1  0  0  0
  5 39  1  0  0  0
  6  9  1  0  0  0
  6  7  2  0  0  0
  6 40  1  0  0  0
  7 21  1  0  0  0
  8  9  2  0  0  0
  8 14  1  0  0  0
  9 10  1  0  0  0
 10 11  1  0  0  0
 10 27  1  0  0  0
 11 12  1  0  0  0
 11 41  1  0  0  0
 11 42  1  0  0  0
 12 13  1  0  0  0
 12 43  1  0  0  0
 12 44  1  0  0  0
 13 14  1  0  0  0
 13 15  2  0  0  0
 14 17  1  0  0  0
 15 16  1  0  0  0
 15 25  1  0  0  0
 16 17  2  0  0  0
 16 20  1  0  0  0
 17 18  1  0  0  0
 18 45  1  0  0  0
 18 46  1  0  0  0
 19 20  1  0  0  0
 19 47  1  0  0  0
 19 48  1  0  0  0
 20 24  2  0  0  0
 21 22  2  0  0  0
 21 23  1  0  0  0
 23 49  1  0  0  0
 23 50  1  0  0  0
 25 51  1  0  0  0
 25 52  1  0  0  0
 25 53  1  0  0  0
 27 28  1  0  0  0
 27 54  1  0  0  0
 27 55  1  0  0  0
 28 29  2  0  0  0
 28 32  1  0  0  0
 29 30  1  0  0  0
 29 56  1  0  0  0
 30 31  1  0  0  0
 31 32  2  0  0  0
 31 57  1  0  0  0
 32 58  1  0  0  0
M  END
> <s_m_entry_id>
4899

> <s_m_entry_name>
dock_pv.218

> <s_m_Source_Path>
/home/csk/Desktop/cluster/DUD-E-result/hs90a

> <s_m_Source_File>
dock_pv.maegz

> <i_m_Source_File_Index>
218

> <chembl_id>
CHEMBL3401155

> <chembl_pref_name>
None

> <i_lp_mmshare_version>
53161

> <r_lp_tautomer_probability>
0.99995

> <s_lp_Force_Field>
OPLS_2005

> <r_lp_Energy>
33.195127

> <b_lp_Chiralities_Consistent>
1

> <s_lp_Variant>
CHEMBL3880_lig978-1

> <s_i_glide_gridfile>
glide-grid_1uyg

> <i_i_glide_lignum>
1087

> <i_i_glide_rotatable_bonds>
3

> <r_i_docking_score>
-8.13232050402373

> <r_i_glide_ligand_efficiency>
-0.254135015750742

> <r_i_glide_ligand_efficiency_sa>
-0.80682838175728

> <r_i_glide_ligand_efficiency_ln>
-1.82104823953546

> <r_i_glide_gscore>
-8.13232050402373

> <r_i_glide_lipo>
-4.26699934771402

> <r_i_glide_hbond>
-0.157653543418776

> <r_i_glide_metal>
0

> <r_i_glide_rewards>
-1.89500607971422

> <r_i_glide_evdw>
-32.3833465576172

> <r_i_glide_ecoul>
-2.33156681060791

> <r_i_glide_erotb>
0.196433156488582

> <r_i_glide_esite>
-0.0401923401932511

> <r_i_glide_emodel>
-37.2858539890727

> <r_i_glide_energy>
-34.7149133682251

> <r_i_glide_einternal>
7.08894681930542

> <i_i_glide_confnum>
5

> <i_i_glide_posenum>
194

> <r_i_glide_eff_state_penalty>
0

> <s_user_duplicate_titles>
CHEMBL3880_lig978

> <i_f3d_flags>
0

> <s_m_subgroup_title>
dock_pv

> <s_m_subgroupid>
dock_pv

> <b_m_subgroup_collapsed>
1

$$$$
CHEMBL3880_lig142
                    3D
 Schrodinger Suite 2021-1.
 48 50  0  0  1  0            999 V2000
    1.6444    6.7564   32.6327 P   0  0  0  0  0  0
    0.7762    5.6060   32.9985 O   0  0  0  0  0  0
    3.2130    6.3700   32.4535 O   0  0  0  0  0  0
    1.6603    7.9687   33.7019 O   0  0  0  0  0  0
    1.6947    7.1749   29.5249 P   0  0  1  0  0  0
    3.1508    6.9122   29.2335 O   0  0  0  0  0  0
    0.7090    5.8412   29.1595 O   0  0  0  0  0  0
    1.2607    7.5211   31.1914 N   0  0  3  0  0  0
    0.5881    8.5712   27.0665 P   0  0  2  0  0  0
    0.0577    7.3185   26.4636 O   0  0  0  0  0  0
    1.9446    9.1423   26.3964 O   0  0  0  0  0  0
    0.9839    8.4105   28.6201 O   0  0  0  0  0  0
   -0.4319    9.8451   27.0368 O   0  0  0  0  0  0
   -1.0677   10.2056   25.8139 C   0  0  0  0  0  0
   -0.4022   11.4464   25.1848 C   0  0  1  0  0  0
    1.0037   11.2625   25.1689 O   0  0  0  0  0  0
   -0.7476   11.6825   23.7057 C   0  0  1  0  0  0
   -1.7314   12.6928   23.5253 O   0  0  0  0  0  0
    0.5944   11.9846   23.0091 C   0  0  1  0  0  0
    0.6664   13.1691   22.2595 O   0  0  0  0  0  0
    1.5821   12.0288   24.1705 C   0  0  2  0  0  0
    2.9886   11.5366   23.8864 N   0  0  0  0  0  0
    3.3539   10.3348   23.3958 C   0  0  0  0  0  0
    4.6445   10.2127   23.1989 N   0  0  0  0  0  0
    5.1485   11.4024   23.5664 C   0  0  0  0  0  0
    6.4729   11.9014   23.5671 C   0  0  0  0  0  0
    7.5794   11.1646   23.1512 N   0  0  0  0  0  0
    6.6804   13.1780   23.9782 N   0  0  0  0  0  0
    5.6155   13.8952   24.3666 C   0  0  0  0  0  0
    4.3195   13.5389   24.4021 N   0  0  0  0  0  0
    4.1453   12.2602   23.9831 C   0  0  0  0  0  0
    3.8313    7.1188   32.2706 H   0  0  0  0  0  0
    2.3815    8.6389   33.5668 H   0  0  0  0  0  0
    0.0524    5.8941   28.4321 H   0  0  0  0  0  0
    0.6910    8.3584   31.3145 H   0  0  0  0  0  0
    2.0407   10.1171   26.4513 H   0  0  0  0  0  0
   -1.0707    9.3706   25.1076 H   0  0  0  0  0  0
   -2.1160   10.4276   26.0284 H   0  0  0  0  0  0
   -0.6092   12.3321   25.7843 H   0  0  0  0  0  0
   -1.1429   10.7640   23.2690 H   0  0  0  0  0  0
   -2.5949   12.3682   23.8132 H   0  0  0  0  0  0
    0.8713   11.1690   22.3558 H   0  0  0  0  0  0
   -0.2382   13.4033   22.0271 H   0  0  0  0  0  0
    1.6753   13.0462   24.5614 H   0  0  0  0  0  0
    2.6147    9.5688   23.2065 H   0  0  0  0  0  0
    7.4551   10.1982   22.8876 H   0  0  0  0  0  0
    8.4913   11.6035   23.1647 H   0  0  0  0  0  0
    5.8262   14.9069   24.6828 H   0  0  0  0  0  0
  1  2  2  0  0  0
  1  3  1  0  0  0
  1  4  1  0  0  0
  1  8  1  0  0  0
  3 32  1  0  0  0
  4 33  1  0  0  0
  5  6  2  0  0  0
  5  7  1  0  0  0
  5  8  1  0  0  0
  5 12  1  0  0  0
  7 34  1  0  0  0
  8 35  1  0  0  0
  9 10  2  0  0  0
  9 11  1  0  0  0
  9 12  1  0  0  0
  9 13  1  0  0  0
 11 36  1  0  0  0
 13 14  1  0  0  0
 14 15  1  0  0  0
 14 37  1  0  0  0
 14 38  1  0  0  0
 15 16  1  0  0  0
 15 17  1  0  0  0
 15 39  1  0  0  0
 16 21  1  0  0  0
 17 18  1  0  0  0
 17 19  1  0  0  0
 17 40  1  0  0  0
 18 41  1  0  0  0
 19 20  1  0  0  0
 19 21  1  0  0  0
 19 42  1  0  0  0
 20 43  1  0  0  0
 21 22  1  0  0  0
 21 44  1  0  0  0
 22 23  1  0  0  0
 22 31  1  0  0  0
 23 24  2  0  0  0
 23 45  1  0  0  0
 24 25  1  0  0  0
 25 26  1  0  0  0
 25 31  2  0  0  0
 26 27  1  0  0  0
 26 28  2  0  0  0
 27 46  1  0  0  0
 27 47  1  0  0  0
 28 29  1  0  0  0
 29 30  2  0  0  0
 29 48  1  0  0  0
 30 31  1  0  0  0
M  END
> <s_m_entry_id>
4900

> <s_m_entry_name>
dock_pv.219

> <s_m_Source_Path>
/home/csk/Desktop/cluster/DUD-E-result/hs90a

> <s_m_Source_File>
dock_pv.maegz

> <i_m_Source_File_Index>
219

> <chembl_id>
CHEMBL1230989

> <chembl_pref_name>
None

> <i_lp_mmshare_version>
53161

> <r_lp_tautomer_probability>
0.999997216410988

> <s_lp_Force_Field>
OPLS_2005

> <r_lp_Energy>
0.835588

> <b_lp_Chiralities_Consistent>
1

> <s_lp_Variant>
CHEMBL3880_lig142-2

> <s_i_glide_gridfile>
glide-grid_1uyg

> <i_i_glide_lignum>
160

> <i_i_glide_rotatable_bonds>
14

> <r_i_docking_score>
-8.12026795161537

> <r_i_glide_ligand_efficiency>
-0.261944127471464

> <r_i_glide_ligand_efficiency_sa>
-0.822866213104497

> <r_i_glide_ligand_efficiency_ln>
-1.83136927941547

> <r_i_glide_gscore>
-8.12026795161537

> <r_i_glide_lipo>
-1.29628552521886

> <r_i_glide_hbond>
-0.457269160955106

> <r_i_glide_metal>
0

> <r_i_glide_rewards>
-1.57476039052

> <r_i_glide_evdw>
-47.131290435791

> <r_i_glide_ecoul>
-19.6047096252441

> <r_i_glide_erotb>
0.638739665717655

> <r_i_glide_esite>
-0.133421575062887

> <r_i_glide_emodel>
-99.1213464709537

> <r_i_glide_energy>
-66.7360000610352

> <r_i_glide_einternal>
12.0858516693115

> <i_i_glide_confnum>
348

> <i_i_glide_posenum>
168

> <r_i_glide_eff_state_penalty>
0

> <s_user_duplicate_titles>
CHEMBL3880_lig142

> <i_f3d_flags>
0

> <s_m_subgroup_title>
dock_pv

> <s_m_subgroupid>
dock_pv

> <b_m_subgroup_collapsed>
1

$$$$
CHEMBL3880_lig386
                    3D
 Schrodinger Suite 2021-1.
 36 38  0  0  1  0            999 V2000
    3.6464   11.9502   24.0613 N   0  0  0  0  0  0
    4.7600   11.3169   23.5665 C   0  0  0  0  0  0
    2.5764   11.2635   23.5876 C   0  0  0  0  0  0
    4.2636   10.2795   22.7982 C   0  0  0  0  0  0
    6.0736   11.6139   23.7313 N   0  0  0  0  0  0
    2.9215   10.2561   22.8253 N   0  0  0  0  0  0
    5.2053    9.4659   22.1238 C   0  0  0  0  0  0
    6.8677   10.7732   23.0518 C   0  0  0  0  0  0
    6.5274    9.7450   22.2667 N   0  0  0  0  0  0
    4.8583    8.4037   21.2956 N   0  0  0  0  0  0
    0.8804   11.6664   23.9117 S   0  0  0  0  0  0
    0.4940   10.6454   25.3175 C   0  0  0  0  0  0
   -0.7286   10.8496   25.9656 C   0  0  0  0  0  0
   -1.0258   10.0984   27.1046 C   0  0  0  0  0  0
   -0.1831    9.1549   27.5910 N   0  0  0  0  0  0
    0.9896    8.9406   26.9452 C   0  0  0  0  0  0
    1.3633    9.6607   25.8098 C   0  0  0  0  0  0
    3.6260   13.1179   24.9690 C   0  0  0  0  0  0
    4.3063   14.3628   24.3652 C   0  0  0  0  0  0
    4.5482   15.5163   25.3594 C   0  0  0  0  0  0
    5.6887   15.3065   26.2665 C   0  0  0  0  0  0
    6.6744   15.1691   26.9743 C   0  0  0  0  0  0
   -2.5073   10.3731   27.9456 Cl  0  0  0  0  0  0
    2.0675    7.7492   27.5706 Cl  0  0  0  0  0  0
    7.9294   10.9588   23.1393 H   0  0  0  0  0  0
    3.8857    8.1331   21.2109 H   0  0  0  0  0  0
    5.6064    7.8076   20.9597 H   0  0  0  0  0  0
   -1.4270   11.5865   25.5994 H   0  0  0  0  0  0
    2.3150    9.4502   25.3465 H   0  0  0  0  0  0
    2.5825   13.3435   25.1664 H   0  0  0  0  0  0
    4.0615   12.7821   25.9057 H   0  0  0  0  0  0
    5.2488   14.1066   23.8794 H   0  0  0  0  0  0
    3.6646   14.7318   23.5680 H   0  0  0  0  0  0
    4.7720   16.4325   24.8102 H   0  0  0  0  0  0
    3.6618   15.7107   25.9613 H   0  0  0  0  0  0
    7.5557   15.0647   27.5668 H   0  0  0  0  0  0
  1  2  1  0  0  0
  1  3  1  0  0  0
  1 18  1  0  0  0
  2  4  2  0  0  0
  2  5  1  0  0  0
  3  6  2  0  0  0
  3 11  1  0  0  0
  4  7  1  0  0  0
  4  6  1  0  0  0
  5  8  2  0  0  0
  7  9  2  0  0  0
  7 10  1  0  0  0
  8  9  1  0  0  0
  8 25  1  0  0  0
 10 26  1  0  0  0
 10 27  1  0  0  0
 11 12  1  0  0  0
 12 13  2  0  0  0
 12 17  1  0  0  0
 13 14  1  0  0  0
 13 28  1  0  0  0
 14 15  2  0  0  0
 14 23  1  0  0  0
 15 16  1  0  0  0
 16 17  2  0  0  0
 16 24  1  0  0  0
 17 29  1  0  0  0
 18 19  1  0  0  0
 18 30  1  0  0  0
 18 31  1  0  0  0
 19 20  1  0  0  0
 19 32  1  0  0  0
 19 33  1  0  0  0
 20 21  1  0  0  0
 20 34  1  0  0  0
 20 35  1  0  0  0
 21 22  3  0  0  0
 22 36  1  0  0  0
M  END
> <s_m_entry_id>
4901

> <s_m_entry_name>
dock_pv.220

> <s_m_Source_Path>
/home/csk/Desktop/cluster/DUD-E-result/hs90a

> <s_m_Source_File>
dock_pv.maegz

> <i_m_Source_File_Index>
220

> <chembl_id>
CHEMBL3426736

> <chembl_pref_name>
None

> <i_lp_mmshare_version>
53161

> <r_lp_tautomer_probability>
0.999997216410988

> <s_lp_Force_Field>
OPLS_2005

> <r_lp_Energy>
6.266921

> <b_lp_Chiralities_Consistent>
1

> <s_lp_Variant>
CHEMBL3880_lig386-1

> <s_i_glide_gridfile>
glide-grid_1uyg

> <i_i_glide_lignum>
428

> <i_i_glide_rotatable_bonds>
6

> <r_i_docking_score>
-8.11851190594053

> <r_i_glide_ligand_efficiency>
-0.338271329414189

> <r_i_glide_ligand_efficiency_sa>
-0.975743357956204

> <r_i_glide_ligand_efficiency_ln>
-1.94313243332828

> <r_i_glide_gscore>
-8.11851190594053

> <r_i_glide_lipo>
-3.28032668243204

> <r_i_glide_hbond>
-0.338026999428121

> <r_i_glide_metal>
0

> <r_i_glide_rewards>
-2.41531939918979

> <r_i_glide_evdw>
-45.4743499755859

> <r_i_glide_ecoul>
-3.94622945785522

> <r_i_glide_erotb>
0.808712158011447

> <r_i_glide_esite>
-0.0278990654444453

> <r_i_glide_emodel>
-70.648494618777

> <r_i_glide_energy>
-49.4205794334412

> <r_i_glide_einternal>
3.06041288375854

> <i_i_glide_confnum>
4

> <i_i_glide_posenum>
379

> <r_i_glide_eff_state_penalty>
0

> <s_user_duplicate_titles>
CHEMBL3880_lig386

> <i_f3d_flags>
0

> <s_m_subgroup_title>
dock_pv

> <s_m_subgroupid>
dock_pv

> <b_m_subgroup_collapsed>
1

$$$$
CHEMBL3880_lig331
                    3D
 Schrodinger Suite 2021-1.
 44 47  0  0  1  0            999 V2000
    1.3353    7.9909   24.4955 C   0  0  0  0  0  0
    0.5424    8.8492   25.2510 C   0  0  0  0  0  0
    0.7090   10.2320   25.1755 C   0  0  0  0  0  0
    1.6890   10.8082   24.3346 C   0  0  0  0  0  0
    2.4471    9.9402   23.5325 C   0  0  0  0  0  0
    2.2930    8.5551   23.6362 C   0  0  0  0  0  0
    1.1583    6.7323   24.6129 O   0  5  0  0  0  0
   -0.1277   10.9769   25.9658 O   0  0  0  0  0  0
    1.8999   12.3203   24.2956 C   0  0  0  0  0  0
    0.9160   13.0591   24.3657 O   0  0  0  0  0  0
    3.1532    7.6926   22.7674 N   0  3  0  0  0  0
    3.1594   12.8475   24.2828 N   0  0  0  0  0  0
    3.4058   14.2555   24.6285 C   0  0  0  0  0  0
    4.4087   12.1571   23.9670 C   0  0  0  0  0  0
    5.4774   13.1688   24.2692 C   0  0  0  0  0  0
    4.9086   14.3403   24.7405 C   0  0  0  0  0  0
    5.7305   15.3673   25.2070 C   0  0  0  0  0  0
    7.1186   15.1957   25.1917 C   0  0  0  0  0  0
    7.6868   14.0376   24.6671 C   0  0  0  0  0  0
    6.8637   13.0228   24.1884 C   0  0  0  0  0  0
    4.5491    7.6739   23.2758 C   0  0  0  0  0  0
    4.8367    6.8400   24.3591 C   0  0  0  0  0  0
    6.1491    6.7681   24.8275 C   0  0  0  0  0  0
    7.1546    7.5224   24.2202 C   0  0  0  0  0  0
    6.8486    8.3700   23.1553 C   0  0  0  0  0  0
    5.5459    8.4416   22.6565 C   0  0  0  0  0  0
    5.2344    9.4390   21.2743 Cl  0  0  0  0  0  0
    8.7823    7.3852   24.7665 Cl  0  0  0  0  0  0
   -0.2133    8.4421   25.9083 H   0  0  0  0  0  0
    3.1375   10.3280   22.8061 H   0  0  0  0  0  0
    2.7698    6.7559   22.7554 H   0  0  0  0  0  0
   -0.7723   10.4255   26.4132 H   0  0  0  0  0  0
    3.1127    7.9974   21.8019 H   0  0  0  0  0  0
    2.9169   14.5231   25.5647 H   0  0  0  0  0  0
    3.0028   14.9152   23.8593 H   0  0  0  0  0  0
    4.4440   11.8833   22.9136 H   0  0  0  0  0  0
    4.5195   11.2505   24.5614 H   0  0  0  0  0  0
    5.3148   16.2847   25.5959 H   0  0  0  0  0  0
    7.7601   15.9709   25.5775 H   0  0  0  0  0  0
    8.7589   13.9194   24.6516 H   0  0  0  0  0  0
    7.3093   12.1122   23.8145 H   0  0  0  0  0  0
    4.0670    6.2480   24.8349 H   0  0  0  0  0  0
    6.3866    6.1171   25.6561 H   0  0  0  0  0  0
    7.6364    8.9369   22.6822 H   0  0  0  0  0  0
  1  2  2  0  0  0
  1  7  1  0  0  0
  1  6  1  0  0  0
  2  3  1  0  0  0
  2 29  1  0  0  0
  3  4  2  0  0  0
  3  8  1  0  0  0
  4  5  1  0  0  0
  4  9  1  0  0  0
  5 30  1  0  0  0
  5  6  2  0  0  0
  6 11  1  0  0  0
  8 32  1  0  0  0
  9 10  2  0  0  0
  9 12  1  0  0  0
 11 21  1  0  0  0
 11 31  1  0  0  0
 11 33  1  0  0  0
 12 13  1  0  0  0
 12 14  1  0  0  0
 13 16  1  0  0  0
 13 34  1  0  0  0
 13 35  1  0  0  0
 14 15  1  0  0  0
 14 36  1  0  0  0
 14 37  1  0  0  0
 15 16  2  0  0  0
 15 20  1  0  0  0
 16 17  1  0  0  0
 17 18  2  0  0  0
 17 38  1  0  0  0
 18 19  1  0  0  0
 18 39  1  0  0  0
 19 20  2  0  0  0
 19 40  1  0  0  0
 20 41  1  0  0  0
 21 22  2  0  0  0
 21 26  1  0  0  0
 22 23  1  0  0  0
 22 42  1  0  0  0
 23 24  2  0  0  0
 23 43  1  0  0  0
 24 25  1  0  0  0
 24 28  1  0  0  0
 25 26  2  0  0  0
 25 44  1  0  0  0
 26 27  1  0  0  0
M  CHG  2   7  -1  11   1
M  END
> <s_m_entry_id>
4902

> <s_m_entry_name>
dock_pv.221

> <s_m_Source_Path>
/home/csk/Desktop/cluster/DUD-E-result/hs90a

> <s_m_Source_File>
dock_pv.maegz

> <i_m_Source_File_Index>
221

> <chembl_id>
CHEMBL3260494

> <chembl_pref_name>
None

> <i_lp_mmshare_version>
53161

> <r_lp_tautomer_probability>
0.998816439804576

> <s_lp_Force_Field>
OPLS_2005

> <r_lp_Energy>
23.808487

> <b_lp_Chiralities_Consistent>
1

> <s_lp_Variant>
CHEMBL3880_lig331-1

> <s_i_glide_gridfile>
glide-grid_1uyg

> <i_i_glide_lignum>
368

> <i_i_glide_rotatable_bonds>
5

> <r_i_docking_score>
-8.10860183187444

> <r_i_glide_ligand_efficiency>
-0.289592922566944

> <r_i_glide_ligand_efficiency_sa>
-0.879374674023274

> <r_i_glide_ligand_efficiency_ln>
-1.87170338169158

> <r_i_glide_gscore>
-8.10860183187444

> <r_i_glide_lipo>
-4.04739730786273

> <r_i_glide_hbond>
0

> <r_i_glide_metal>
0

> <r_i_glide_rewards>
-2.12138315461947

> <r_i_glide_evdw>
-40.0626411437988

> <r_i_glide_ecoul>
-2.5390317440033

> <r_i_glide_erotb>
0.457997428704742

> <r_i_glide_esite>
-0.0138319793065453

> <r_i_glide_emodel>
-62.56902567764

> <r_i_glide_energy>
-42.6016728878021

> <r_i_glide_einternal>
4.19335079193115

> <i_i_glide_confnum>
5

> <i_i_glide_posenum>
162

> <r_i_glide_eff_state_penalty>
0

> <s_user_duplicate_titles>
CHEMBL3880_lig331

> <i_f3d_flags>
0

> <s_m_subgroup_title>
dock_pv

> <s_m_subgroupid>
dock_pv

> <b_m_subgroup_collapsed>
1

$$$$
CHEMBL3880_lig294
                    3D
 Schrodinger Suite 2021-1.
 74 76  0  0  1  0            999 V2000
    0.5307    9.0577   27.6122 C   0  0  0  0  0  0
    1.3412    8.3453   28.4926 C   0  0  0  0  0  0
    2.5017    7.7237   28.0433 C   0  0  0  0  0  0
    2.8391    7.7574   26.6804 C   0  0  0  0  0  0
    2.0338    8.5065   25.8131 C   0  0  0  0  0  0
    0.9189    9.2175   26.2640 C   0  0  0  0  0  0
    3.2942    7.0823   28.9622 O   0  0  0  0  0  0
    4.0627    6.9868   26.1554 C   0  0  0  0  0  0
    4.6055    7.4544   24.7874 C   0  0  0  0  0  0
    3.8020    5.4724   26.1333 C   0  0  0  0  0  0
   -0.6384    9.5689   28.1209 O   0  0  0  0  0  0
    0.1796   10.0233   25.3492 N   0  0  0  0  0  0
    0.5576   10.9418   24.3677 C   0  0  0  0  0  0
   -0.6677   11.4210   23.8544 C   0  0  0  0  0  0
   -1.6612   10.8286   24.4925 N   0  0  0  0  0  0
   -1.1429    9.9689   25.4121 N   0  0  0  0  0  0
   -0.8673   12.3582   22.7661 C   0  0  0  0  0  0
   -2.1570   12.6697   22.5652 N   0  0  0  0  0  0
    0.0582   12.7687   22.0621 O   0  0  0  0  0  0
   -2.6999   13.4666   21.4886 C   0  0  0  0  0  0
   -3.7792   14.4032   22.0146 C   0  0  0  0  0  0
    1.9531   11.3719   24.0473 C   0  0  0  0  0  0
    2.2932   12.6838   24.3672 C   0  0  0  0  0  0
    3.6026   13.1216   24.2316 C   0  0  0  0  0  0
    4.5864   12.2531   23.7459 C   0  0  0  0  0  0
    4.2187   10.9791   23.3064 C   0  0  0  0  0  0
    2.8985   10.5497   23.4311 C   0  0  0  0  0  0
    6.0542   12.6734   23.6862 C   0  0  0  0  0  0
    6.4002   13.5691   24.7677 N   0  0  2  0  0  0
    6.7697   14.9456   24.5246 C   0  0  0  0  0  0
    8.2133   15.0634   23.9840 C   0  0  0  0  0  0
    9.3045   14.8134   24.9475 N   0  0  0  0  0  0
    9.2914   15.7911   26.0373 C   0  0  0  0  0  0
   10.5109   15.8035   26.9574 C   0  0  0  0  0  0
   10.8331   13.0180   25.5661 C   0  0  0  0  0  0
    9.3711   13.4378   25.4312 C   0  0  0  0  0  0
    1.0636    8.2708   29.5342 H   0  0  0  0  0  0
    2.2574    8.5038   24.7645 H   0  0  0  0  0  0
    3.2965    7.5026   29.8285 H   0  0  0  0  0  0
    4.8615    7.1686   26.8749 H   0  0  0  0  0  0
    4.7514    8.5339   24.7660 H   0  0  0  0  0  0
    3.9331    7.1905   23.9707 H   0  0  0  0  0  0
    5.5707    6.9942   24.5738 H   0  0  0  0  0  0
    3.5069    5.0999   27.1146 H   0  0  0  0  0  0
    3.0102    5.2156   25.4291 H   0  0  0  0  0  0
    4.6992    4.9318   25.8338 H   0  0  0  0  0  0
   -0.7381    9.4184   29.0649 H   0  0  0  0  0  0
   -2.8399   12.2873   23.2079 H   0  0  0  0  0  0
   -1.9394   14.0269   20.9461 H   0  0  0  0  0  0
   -3.1370   12.7757   20.7673 H   0  0  0  0  0  0
   -3.9387   15.1678   21.2627 H   0  0  0  0  0  0
   -4.7244   13.8971   22.1957 H   0  0  0  0  0  0
   -3.5390   14.9012   22.9530 H   0  0  0  0  0  0
    1.5492   13.3556   24.7668 H   0  0  0  0  0  0
    3.8524   14.1264   24.5377 H   0  0  0  0  0  0
    4.9559   10.3133   22.8811 H   0  0  0  0  0  0
    2.6239    9.5740   23.0600 H   0  0  0  0  0  0
    6.6883   11.7878   23.7438 H   0  0  0  0  0  0
    6.2859   13.1689   22.7670 H   0  0  0  0  0  0
    7.0886   13.1444   25.3718 H   0  0  0  0  0  0
    6.0122   15.4829   23.9670 H   0  0  0  0  0  0
    6.7240   15.4369   25.4944 H   0  0  0  0  0  0
    8.3328   14.3792   23.1482 H   0  0  0  0  0  0
    8.3542   16.0533   23.5549 H   0  0  0  0  0  0
    9.2601   16.7688   25.5759 H   0  0  0  0  0  0
    8.3989   15.6801   26.6534 H   0  0  0  0  0  0
   10.4610   16.7013   27.5670 H   0  0  0  0  0  0
   10.5197   14.9561   27.6416 H   0  0  0  0  0  0
   11.4482   15.8270   26.3996 H   0  0  0  0  0  0
   10.8608   11.9618   25.3439 H   0  0  0  0  0  0
   11.4799   13.4896   24.8167 H   0  0  0  0  0  0
   11.2522   13.1800   26.5580 H   0  0  0  0  0  0
    8.8235   13.2979   26.3644 H   0  0  0  0  0  0
    8.9010   12.7705   24.7085 H   0  0  0  0  0  0
  1  2  2  0  0  0
  1  6  1  0  0  0
  1 11  1  0  0  0
  2  3  1  0  0  0
  2 37  1  0  0  0
  3  4  2  0  0  0
  3  7  1  0  0  0
  4  5  1  0  0  0
  4  8  1  0  0  0
  5  6  2  0  0  0
  5 38  1  0  0  0
  6 12  1  0  0  0
  7 39  1  0  0  0
  8  9  1  0  0  0
  8 10  1  0  0  0
  8 40  1  0  0  0
  9 41  1  0  0  0
  9 42  1  0  0  0
  9 43  1  0  0  0
 10 44  1  0  0  0
 10 45  1  0  0  0
 10 46  1  0  0  0
 11 47  1  0  0  0
 12 13  1  0  0  0
 12 16  1  0  0  0
 13 14  2  0  0  0
 13 22  1  0  0  0
 14 15  1  0  0  0
 14 17  1  0  0  0
 15 16  2  0  0  0
 17 18  1  0  0  0
 17 19  2  0  0  0
 18 20  1  0  0  0
 18 48  1  0  0  0
 20 21  1  0  0  0
 20 49  1  0  0  0
 20 50  1  0  0  0
 21 51  1  0  0  0
 21 52  1  0  0  0
 21 53  1  0  0  0
 22 23  2  0  0  0
 22 27  1  0  0  0
 23 24  1  0  0  0
 23 54  1  0  0  0
 24 25  2  0  0  0
 24 55  1  0  0  0
 25 26  1  0  0  0
 25 28  1  0  0  0
 26 27  2  0  0  0
 26 56  1  0  0  0
 27 57  1  0  0  0
 28 29  1  0  0  0
 28 58  1  0  0  0
 28 59  1  0  0  0
 29 30  1  0  0  0
 29 60  1  0  0  0
 30 31  1  0  0  0
 30 61  1  0  0  0
 30 62  1  0  0  0
 31 32  1  0  0  0
 31 63  1  0  0  0
 31 64  1  0  0  0
 32 33  1  0  0  0
 32 36  1  0  0  0
 33 34  1  0  0  0
 33 65  1  0  0  0
 33 66  1  0  0  0
 34 67  1  0  0  0
 34 68  1  0  0  0
 34 69  1  0  0  0
 35 36  1  0  0  0
 35 70  1  0  0  0
 35 71  1  0  0  0
 35 72  1  0  0  0
 36 73  1  0  0  0
 36 74  1  0  0  0
M  END
> <s_m_entry_id>
4903

> <s_m_entry_name>
dock_pv.222

> <s_m_Source_Path>
/home/csk/Desktop/cluster/DUD-E-result/hs90a

> <s_m_Source_File>
dock_pv.maegz

> <i_m_Source_File_Index>
222

> <chembl_id>
CHEMBL3235109

> <chembl_pref_name>
None

> <i_lp_mmshare_version>
53161

> <r_lp_tautomer_probability>
1

> <s_lp_Force_Field>
OPLS_2005

> <r_lp_Energy>
41.770757

> <b_lp_Chiralities_Consistent>
1

> <s_lp_Variant>
CHEMBL3880_lig294-1

> <s_i_glide_gridfile>
glide-grid_1uyg

> <i_i_glide_lignum>
331

> <i_i_glide_rotatable_bonds>
15

> <r_i_docking_score>
-8.1074715845629

> <r_i_glide_ligand_efficiency>
-0.225207544015636

> <r_i_glide_ligand_efficiency_sa>
-0.743618925353608

> <r_i_glide_ligand_efficiency_ln>
-1.76883126118244

> <r_i_glide_gscore>
-8.1074715845629

> <r_i_glide_lipo>
-3.85098778352928

> <r_i_glide_hbond>
-0.440134617989544

> <r_i_glide_metal>
0

> <r_i_glide_rewards>
-0.90823988226617

> <r_i_glide_evdw>
-47.839973449707

> <r_i_glide_ecoul>
-8.43868446350098

> <r_i_glide_erotb>
0.749692041232596

> <r_i_glide_esite>
0

> <r_i_glide_emodel>
-70.3859733488767

> <r_i_glide_energy>
-56.278657913208

> <r_i_glide_einternal>
12.2938404083252

> <i_i_glide_confnum>
60

> <i_i_glide_posenum>
142

> <r_i_glide_eff_state_penalty>
0

> <s_user_duplicate_titles>
CHEMBL3880_lig294

> <i_f3d_flags>
0

> <s_m_subgroup_title>
dock_pv

> <s_m_subgroupid>
dock_pv

> <b_m_subgroup_collapsed>
1

$$$$
CHEMBL3880_lig168
                    3D
 Schrodinger Suite 2021-1.
 40 43  0  0  1  0            999 V2000
   -1.0364    9.7716   27.4456 N   0  0  0  0  0  0
   -1.6194   10.7684   26.7669 C   0  0  0  0  0  0
   -1.1389   11.4891   25.7403 N   0  0  0  0  0  0
    0.1865    9.3535   27.0203 C   0  0  0  0  0  0
    0.7838   10.0095   25.9152 C   0  0  0  0  0  0
    0.0813   11.0605   25.3484 C   0  0  0  0  0  0
    0.8905   11.5497   24.3549 N   0  0  0  0  0  0
    1.9890   10.7508   24.3538 C   0  0  0  0  0  0
    1.9577    9.8295   25.2886 N   0  0  0  0  0  0
    0.6307   12.7314   23.4825 C   0  0  0  0  0  0
    0.7969    8.3181   27.7222 N   0  0  0  0  0  0
   -0.0542   12.3640   22.1501 C   0  0  0  0  0  0
    3.2956   10.8461   23.1752 S   0  0  0  0  0  0
    4.4068   12.0542   23.8804 C   0  0  0  0  0  0
   -1.5410   11.9606   22.2480 C   0  0  0  0  0  0
   -2.4476   13.0724   22.5533 C   0  0  0  0  0  0
   -3.2452   13.9690   22.7673 C   0  0  0  0  0  0
    3.9230   13.0960   24.6971 C   0  0  0  0  0  0
    6.6584   13.0253   23.9707 C   0  0  0  0  0  0
    5.7859   12.0078   23.5521 C   0  0  0  0  0  0
    6.5247   10.5964   22.4983 Br  0  0  0  0  0  0
    6.1286   14.0596   24.7347 C   0  0  0  0  0  0
    4.8082   14.0902   25.0829 C   0  0  0  0  0  0
    4.5656   15.1806   25.8544 O   0  0  0  0  0  0
    5.7280   15.9586   25.7607 C   0  0  0  0  0  0
    6.7565   15.1375   25.2733 O   0  0  0  0  0  0
   -2.6006   11.0628   27.1173 H   0  0  0  0  0  0
    0.0608   13.4627   24.0660 H   0  0  0  0  0  0
    1.5956   13.1937   23.2734 H   0  0  0  0  0  0
    1.7293    8.0282   27.4588 H   0  0  0  0  0  0
    0.3401    7.9696   28.5521 H   0  0  0  0  0  0
    0.0363   13.1987   21.4572 H   0  0  0  0  0  0
    0.5259   11.5788   21.6812 H   0  0  0  0  0  0
   -1.9050   11.5743   21.2994 H   0  0  0  0  0  0
   -1.6967   11.1711   22.9845 H   0  0  0  0  0  0
   -3.9537   14.7332   22.9914 H   0  0  0  0  0  0
    2.8978   13.1530   25.0181 H   0  0  0  0  0  0
    7.7052   12.9964   23.7069 H   0  0  0  0  0  0
    5.9883   16.3690   26.7356 H   0  0  0  0  0  0
    5.5528   16.7739   25.0549 H   0  0  0  0  0  0
  1  2  2  0  0  0
  1  4  1  0  0  0
  2  3  1  0  0  0
  2 27  1  0  0  0
  3  6  2  0  0  0
  4  5  2  0  0  0
  4 11  1  0  0  0
  5  9  1  0  0  0
  5  6  1  0  0  0
  6  7  1  0  0  0
  7  8  1  0  0  0
  7 10  1  0  0  0
  8 13  1  0  0  0
  8  9  2  0  0  0
 10 12  1  0  0  0
 10 28  1  0  0  0
 10 29  1  0  0  0
 11 30  1  0  0  0
 11 31  1  0  0  0
 12 15  1  0  0  0
 12 32  1  0  0  0
 12 33  1  0  0  0
 13 14  1  0  0  0
 14 18  2  0  0  0
 14 20  1  0  0  0
 15 16  1  0  0  0
 15 34  1  0  0  0
 15 35  1  0  0  0
 16 17  3  0  0  0
 17 36  1  0  0  0
 18 23  1  0  0  0
 18 37  1  0  0  0
 19 22  1  0  0  0
 19 20  2  0  0  0
 19 38  1  0  0  0
 20 21  1  0  0  0
 22 23  2  0  0  0
 22 26  1  0  0  0
 23 24  1  0  0  0
 24 25  1  0  0  0
 25 26  1  0  0  0
 25 39  1  0  0  0
 25 40  1  0  0  0
M  END
> <s_m_entry_id>
4904

> <s_m_entry_name>
dock_pv.223

> <s_m_Source_Path>
/home/csk/Desktop/cluster/DUD-E-result/hs90a

> <s_m_Source_File>
dock_pv.maegz

> <i_m_Source_File_Index>
223

> <chembl_id>
CHEMBL365159

> <chembl_pref_name>
None

> <i_lp_mmshare_version>
53161

> <r_lp_tautomer_probability>
0.999997216410988

> <s_lp_Force_Field>
OPLS_2005

> <r_lp_Energy>
21.818038

> <b_lp_Chiralities_Consistent>
1

> <s_lp_Variant>
CHEMBL3880_lig168-1

> <s_i_glide_gridfile>
glide-grid_1uyg

> <i_i_glide_lignum>
199

> <i_i_glide_rotatable_bonds>
6

> <r_i_docking_score>
-8.10492551301805

> <r_i_glide_ligand_efficiency>
-0.311727904346848

> <r_i_glide_ligand_efficiency_sa>
-0.923492690037463

> <r_i_glide_ligand_efficiency_ln>
-1.90341516230254

> <r_i_glide_gscore>
-8.10492551301805

> <r_i_glide_lipo>
-3.29259802663411

> <r_i_glide_hbond>
-0.107011884376027

> <r_i_glide_metal>
0

> <r_i_glide_rewards>
-2.64624536632598

> <r_i_glide_evdw>
-48.2481269836426

> <r_i_glide_ecoul>
-1.89631497859955

> <r_i_glide_erotb>
0.63882820161207

> <r_i_glide_esite>
-0.00104484132193778

> <r_i_glide_emodel>
-69.5019281047138

> <r_i_glide_energy>
-50.1444419622421

> <r_i_glide_einternal>
4.55155420303345

> <i_i_glide_confnum>
87

> <i_i_glide_posenum>
299

> <r_i_glide_eff_state_penalty>
0

> <s_user_duplicate_titles>
CHEMBL3880_lig168,321074

> <i_f3d_flags>
0

> <s_m_subgroup_title>
dock_pv

> <s_m_subgroupid>
dock_pv

> <b_m_subgroup_collapsed>
1

$$$$
CHEMBL3880_lig763
                    3D
 Schrodinger Suite 2021-1.
 37 39  0  0  1  0            999 V2000
   -1.3667   10.7721   25.6728 N   0  0  0  0  0  0
   -0.9682   11.3485   24.5124 C   0  0  0  0  0  0
    0.2753   11.3393   23.9683 N   0  0  0  0  0  0
   -0.4355   10.0721   26.3731 C   0  0  0  0  0  0
    0.8806    9.9643   25.8962 C   0  0  0  0  0  0
    1.1619   10.6376   24.6880 C   0  0  0  0  0  0
    2.5091   10.4193   24.4410 N   0  0  0  0  0  0
    3.0626    9.6458   25.4028 N   0  0  0  0  0  0
    2.1181    9.3587   26.2681 C   0  0  0  0  0  0
   -0.8882    9.3280   27.8640 Cl  0  0  0  0  0  0
   -1.9390   12.0209   23.7911 N   0  0  0  0  0  0
    3.3423   10.9114   23.3445 C   0  0  0  0  0  0
    4.4405   11.8980   23.7589 C   0  0  0  0  0  0
    4.1652   13.1887   24.2510 C   0  0  0  0  0  0
    5.2514   14.0213   24.5850 C   0  0  0  0  0  0
    5.7095   11.4483   23.5672 N   0  0  0  0  0  0
    6.7410   12.2795   23.8574 C   0  0  0  0  0  0
    6.5627   13.5685   24.3671 C   0  0  0  0  0  0
    7.7673   14.4416   24.6828 C   0  0  0  0  0  0
    2.7343   13.6958   24.3668 C   0  0  0  0  0  0
    5.0479   15.2917   25.0707 O   0  0  0  0  0  0
    4.8037   15.3545   26.4687 C   0  0  0  0  0  0
    2.3280    8.7535   27.1395 H   0  0  0  0  0  0
   -1.7073   12.3748   22.8783 H   0  0  0  0  0  0
   -2.9098   11.9691   24.0992 H   0  0  0  0  0  0
    3.7677   10.0396   22.8428 H   0  0  0  0  0  0
    2.6989   11.3882   22.6051 H   0  0  0  0  0  0
    7.7304   11.8869   23.6733 H   0  0  0  0  0  0
    7.6445   14.9195   25.6543 H   0  0  0  0  0  0
    8.6893   13.8621   24.7285 H   0  0  0  0  0  0
    7.8698   15.2297   23.9376 H   0  0  0  0  0  0
    2.6759   14.7669   24.5550 H   0  0  0  0  0  0
    2.1880   13.5132   23.4428 H   0  0  0  0  0  0
    2.2264   13.1620   25.1653 H   0  0  0  0  0  0
    4.6243   16.3910   26.7537 H   0  0  0  0  0  0
    3.9286   14.7738   26.7629 H   0  0  0  0  0  0
    5.6620   14.9962   27.0405 H   0  0  0  0  0  0
  1  2  2  0  0  0
  1  4  1  0  0  0
  2  3  1  0  0  0
  2 11  1  0  0  0
  3  6  2  0  0  0
  4  5  2  0  0  0
  4 10  1  0  0  0
  5  6  1  0  0  0
  5  9  1  0  0  0
  6  7  1  0  0  0
  7  8  1  0  0  0
  7 12  1  0  0  0
  8  9  2  0  0  0
  9 23  1  0  0  0
 11 24  1  0  0  0
 11 25  1  0  0  0
 12 13  1  0  0  0
 12 26  1  0  0  0
 12 27  1  0  0  0
 13 14  2  0  0  0
 13 16  1  0  0  0
 14 15  1  0  0  0
 14 20  1  0  0  0
 15 18  2  0  0  0
 15 21  1  0  0  0
 16 17  2  0  0  0
 17 18  1  0  0  0
 17 28  1  0  0  0
 18 19  1  0  0  0
 19 29  1  0  0  0
 19 30  1  0  0  0
 19 31  1  0  0  0
 20 32  1  0  0  0
 20 33  1  0  0  0
 20 34  1  0  0  0
 21 22  1  0  0  0
 22 35  1  0  0  0
 22 36  1  0  0  0
 22 37  1  0  0  0
M  END
> <s_m_entry_id>
4905

> <s_m_entry_name>
dock_pv.224

> <s_m_Source_Path>
/home/csk/Desktop/cluster/DUD-E-result/hs90a

> <s_m_Source_File>
dock_pv.maegz

> <i_m_Source_File_Index>
224

> <chembl_id>
CHEMBL4080323

> <chembl_pref_name>
None

> <i_lp_mmshare_version>
53161

> <r_lp_tautomer_probability>
1

> <s_lp_Force_Field>
OPLS_2005

> <r_lp_Energy>
7.637582

> <b_lp_Chiralities_Consistent>
1

> <s_lp_Variant>
CHEMBL3880_lig763-1

> <s_i_glide_gridfile>
glide-grid_1uyg

> <i_i_glide_lignum>
864

> <i_i_glide_rotatable_bonds>
3

> <r_i_docking_score>
-8.10410579560679

> <r_i_glide_ligand_efficiency>
-0.368368445254854

> <r_i_glide_ligand_efficiency_sa>
-1.03218287071297

> <r_i_glide_ligand_efficiency_ln>
-1.98093906088757

> <r_i_glide_gscore>
-8.10410579560679

> <r_i_glide_lipo>
-3.42892558587707

> <r_i_glide_hbond>
-0.16

> <r_i_glide_metal>
0

> <r_i_glide_rewards>
-2.6027537856397

> <r_i_glide_evdw>
-39.7868270874023

> <r_i_glide_ecoul>
-1.76365113258362

> <r_i_glide_erotb>
0.36708293149922

> <r_i_glide_esite>
-0.0256203313315815

> <r_i_glide_emodel>
-60.551548171507

> <r_i_glide_energy>
-41.550478219986

> <r_i_glide_einternal>
2.4484760761261

> <i_i_glide_confnum>
2

> <i_i_glide_posenum>
298

> <r_i_glide_eff_state_penalty>
0

> <s_user_duplicate_titles>
CHEMBL3880_lig763

> <i_f3d_flags>
0

> <s_m_subgroup_title>
dock_pv

> <s_m_subgroupid>
dock_pv

> <b_m_subgroup_collapsed>
1

$$$$
CHEMBL3880_lig264
                    3D
 Schrodinger Suite 2021-1.
 60 63  0  0  1  0            999 V2000
    0.5893   13.1206   23.5530 C   0  0  0  0  0  0
    1.9720   13.1825   23.5786 C   0  0  0  0  0  0
    2.6910   12.0846   24.0316 C   0  0  0  0  0  0
    2.0186   10.9857   24.5729 C   0  0  0  0  0  0
    0.6259   10.8802   24.5051 C   0  0  0  0  0  0
   -0.0974   11.9661   23.9512 C   0  0  0  0  0  0
    4.0774   12.0160   23.8326 N   0  0  0  0  0  0
    4.8933   13.0154   24.1937 N   0  0  0  0  0  0
    6.1279   12.5944   23.9670 C   0  0  0  0  0  0
    4.7555   11.0045   23.2039 C   0  0  0  0  0  0
    6.0986   11.3153   23.3441 C   0  0  0  0  0  0
    7.1384   10.3824   22.9156 C   0  0  0  0  0  0
    6.6042    9.1690   22.1216 C   0  0  0  0  0  0
    5.2076    8.6068   22.5610 C   0  0  0  0  0  0
    4.1616    9.7457   22.5680 C   0  0  0  0  0  0
    8.3283   10.5116   23.1834 O   0  0  0  0  0  0
    5.2929    7.9694   23.9670 C   0  0  0  0  0  0
    4.7072    7.5861   21.5166 C   0  0  0  0  0  0
   -0.0282    9.6825   24.8772 N   0  0  0  0  0  0
    0.4478    8.6167   25.7633 C   0  0  2  0  0  0
    1.0399    9.1285   27.0921 C   0  0  0  0  0  0
    1.3346    7.9419   28.0318 C   0  0  0  0  0  0
    2.2148    6.8589   27.3603 C   0  0  2  0  0  0
    1.7046    6.4321   25.9598 C   0  0  0  0  0  0
    1.3857    7.6303   25.0413 C   0  0  0  0  0  0
    2.3204    5.7301   28.2030 O   0  0  0  0  0  0
   -1.5854   11.9592   23.7209 C   0  0  0  0  0  0
   -2.0806   12.5538   22.7672 O   0  0  0  0  0  0
   -2.3390   11.3545   24.6331 N   0  0  0  0  0  0
    7.2885   13.4741   24.4613 C   0  0  0  0  0  0
    8.3705   12.7691   24.7670 F   0  0  0  0  0  0
    7.6613   14.3764   23.5670 F   0  0  0  0  0  0
    6.9635   14.1549   25.5622 F   0  0  0  0  0  0
    0.0483   13.9690   23.1671 H   0  0  0  0  0  0
    2.4723   14.0549   23.1854 H   0  0  0  0  0  0
    2.6083   10.1717   24.9557 H   0  0  0  0  0  0
    7.3661    8.3892   22.1430 H   0  0  0  0  0  0
    6.5494    9.5015   21.0859 H   0  0  0  0  0  0
    3.2256    9.3990   22.9967 H   0  0  0  0  0  0
    3.9222    9.9983   21.5369 H   0  0  0  0  0  0
    6.2342    7.4386   24.1178 H   0  0  0  0  0  0
    5.1824    8.6993   24.7632 H   0  0  0  0  0  0
    4.4931    7.2428   24.1180 H   0  0  0  0  0  0
    5.2609    6.6501   21.5680 H   0  0  0  0  0  0
    3.6606    7.3236   21.6775 H   0  0  0  0  0  0
    4.7916    7.9631   20.4963 H   0  0  0  0  0  0
   -0.8854    9.4750   24.3795 H   0  0  0  0  0  0
   -0.4511    8.0413   25.9862 H   0  0  0  0  0  0
    0.3430    9.8183   27.5694 H   0  0  0  0  0  0
    1.9626    9.6855   26.9417 H   0  0  0  0  0  0
    1.8237    8.3065   28.9369 H   0  0  0  0  0  0
    0.3933    7.4977   28.3602 H   0  0  0  0  0  0
    3.2259    7.2616   27.2729 H   0  0  0  0  0  0
    2.4432    5.7940   25.4724 H   0  0  0  0  0  0
    0.8067    5.8209   26.0696 H   0  0  0  0  0  0
    2.3187    8.1039   24.7498 H   0  0  0  0  0  0
    0.9257    7.2740   24.1178 H   0  0  0  0  0  0
    2.6915    5.0125   27.6855 H   0  0  0  0  0  0
   -3.3522   11.4809   24.5588 H   0  0  0  0  0  0
   -1.9280   10.8463   25.4003 H   0  0  0  0  0  0
  1  6  1  0  0  0
  1  2  2  0  0  0
  1 34  1  0  0  0
  2  3  1  0  0  0
  2 35  1  0  0  0
  3  4  2  0  0  0
  3  7  1  0  0  0
  4  5  1  0  0  0
  4 36  1  0  0  0
  5 19  1  0  0  0
  5  6  2  0  0  0
  6 27  1  0  0  0
  7 10  1  0  0  0
  7  8  1  0  0  0
  8  9  2  0  0  0
  9 11  1  0  0  0
  9 30  1  0  0  0
 10 11  2  0  0  0
 10 15  1  0  0  0
 11 12  1  0  0  0
 12 16  2  0  0  0
 12 13  1  0  0  0
 13 14  1  0  0  0
 13 37  1  0  0  0
 13 38  1  0  0  0
 14 17  1  0  0  0
 14 18  1  0  0  0
 14 15  1  0  0  0
 15 39  1  0  0  0
 15 40  1  0  0  0
 17 41  1  0  0  0
 17 42  1  0  0  0
 17 43  1  0  0  0
 18 44  1  0  0  0
 18 45  1  0  0  0
 18 46  1  0  0  0
 19 20  1  0  0  0
 19 47  1  0  0  0
 20 21  1  0  0  0
 20 25  1  0  0  0
 20 48  1  0  0  0
 21 22  1  0  0  0
 21 49  1  0  0  0
 21 50  1  0  0  0
 22 23  1  0  0  0
 22 51  1  0  0  0
 22 52  1  0  0  0
 23 24  1  0  0  0
 23 26  1  0  0  0
 23 53  1  0  0  0
 24 25  1  0  0  0
 24 54  1  0  0  0
 24 55  1  0  0  0
 25 56  1  0  0  0
 25 57  1  0  0  0
 26 58  1  0  0  0
 27 28  2  0  0  0
 27 29  1  0  0  0
 29 59  1  0  0  0
 29 60  1  0  0  0
 30 31  1  0  0  0
 30 32  1  0  0  0
 30 33  1  0  0  0
M  END
> <s_m_entry_id>
4906

> <s_m_entry_name>
dock_pv.225

> <s_m_Source_Path>
/home/csk/Desktop/cluster/DUD-E-result/hs90a

> <s_m_Source_File>
dock_pv.maegz

> <i_m_Source_File_Index>
225

> <chembl_id>
CHEMBL560895

> <chembl_pref_name>
None

> <i_lp_mmshare_version>
53161

> <r_lp_tautomer_probability>
0.99995

> <s_lp_Force_Field>
OPLS_2005

> <r_lp_Energy>
31.011471

> <b_lp_Chiralities_Consistent>
1

> <s_lp_Variant>
CHEMBL3880_lig264-1

> <s_i_glide_gridfile>
glide-grid_1uyg

> <i_i_glide_lignum>
298

> <i_i_glide_rotatable_bonds>
6

> <r_i_docking_score>
-8.09531267751221

> <r_i_glide_ligand_efficiency>
-0.245312505379158

> <r_i_glide_ligand_efficiency_sa>
-0.786848281663861

> <r_i_glide_ligand_efficiency_ln>
-1.80035562419293

> <r_i_glide_gscore>
-8.09531267751221

> <r_i_glide_lipo>
-3.43579299120292

> <r_i_glide_hbond>
-0.176538272937214

> <r_i_glide_metal>
0

> <r_i_glide_rewards>
-2.22423755359221

> <r_i_glide_evdw>
-43.3678588867188

> <r_i_glide_ecoul>
-2.126797914505

> <r_i_glide_erotb>
0.280330652028947

> <r_i_glide_esite>
-0.0516618802971269

> <r_i_glide_emodel>
-59.5551841667304

> <r_i_glide_energy>
-45.4946568012238

> <r_i_glide_einternal>
7.06917905807495

> <i_i_glide_confnum>
11

> <i_i_glide_posenum>
252

> <r_i_glide_eff_state_penalty>
0

> <s_user_duplicate_titles>
CHEMBL3880_lig264

> <i_f3d_flags>
0

> <s_m_subgroup_title>
dock_pv

> <s_m_subgroupid>
dock_pv

> <b_m_subgroup_collapsed>
1

$$$$
CHEMBL3880_lig916
                    3D
 Schrodinger Suite 2021-1.
 52 55  0  0  1  0            999 V2000
    3.8708    8.9762   23.2137 N   0  0  0  0  0  0
    2.8707    8.0938   23.4702 C   0  0  0  0  0  0
    1.7177    8.3657   24.1349 N   0  0  0  0  0  0
    1.5367    9.6544   24.5418 C   0  0  0  0  0  0
    3.0454    6.7938   23.0177 N   0  0  0  0  0  0
    0.3424    9.9109   25.3852 C   0  0  0  0  0  0
    0.3069    9.4459   26.7164 C   0  0  0  0  0  0
   -0.8063    9.6795   27.5215 C   0  0  0  0  0  0
   -1.8964   10.3704   27.0084 C   0  0  0  0  0  0
   -1.8687   10.8289   25.6992 C   0  0  0  0  0  0
   -0.7471   10.6471   24.8823 C   0  0  0  0  0  0
   -0.6676   11.1690   23.6006 O   0  0  0  0  0  0
    1.6462    8.6041   27.4230 Cl  0  0  0  0  0  0
   -1.7365   11.9703   23.0928 C   0  0  0  0  0  0
   -1.2578   12.6912   21.8294 C   0  0  0  0  0  0
   -2.3392   13.5689   21.1828 C   0  0  0  0  0  0
   -3.2998   10.6613   27.9670 Cl  0  0  0  0  0  0
    3.6479   10.2474   23.6331 C   0  0  0  0  0  0
    2.4780   10.6481   24.2563 C   0  0  0  0  0  0
    2.5069   12.1277   24.5267 C   0  0  0  0  0  0
    3.8767   12.5049   24.1674 N   0  0  0  0  0  0
    4.6265   11.3867   23.5669 C   0  0  0  0  0  0
    4.4042   13.6888   24.5721 C   0  0  0  0  0  0
    5.7297   13.8165   24.3671 N   0  0  0  0  0  0
    3.7289   14.5795   25.0920 O   0  0  0  0  0  0
    6.5437   14.9660   24.7718 C   0  0  0  0  0  0
    6.9349   14.9736   26.2482 C   0  0  0  0  0  0
    8.2383   14.2570   25.8523 C   0  0  0  0  0  0
    8.0341   14.8240   24.4351 C   0  0  0  0  0  0
    3.8130    6.6191   22.3875 H   0  0  0  0  0  0
    2.2445    6.1787   23.0389 H   0  0  0  0  0  0
   -0.8256    9.3199   28.5397 H   0  0  0  0  0  0
   -2.7388   11.3358   25.3284 H   0  0  0  0  0  0
   -2.6006   11.3410   22.8757 H   0  0  0  0  0  0
   -2.0384   12.7295   23.8172 H   0  0  0  0  0  0
   -0.3776   13.2771   22.0823 H   0  0  0  0  0  0
   -0.9236   11.9691   21.0922 H   0  0  0  0  0  0
   -1.9292   14.1652   20.3673 H   0  0  0  0  0  0
   -3.1390   12.9600   20.7672 H   0  0  0  0  0  0
   -2.7865   14.2551   21.9026 H   0  0  0  0  0  0
    1.7868   12.6737   23.9153 H   0  0  0  0  0  0
    2.2935   12.3680   25.5669 H   0  0  0  0  0  0
    5.5347   11.1696   24.1312 H   0  0  0  0  0  0
    4.9393   11.6113   22.5514 H   0  0  0  0  0  0
    6.1041   13.2687   23.6090 H   0  0  0  0  0  0
    6.0000   15.8224   24.3667 H   0  0  0  0  0  0
    7.0836   15.9690   26.6522 H   0  0  0  0  0  0
    6.2422   14.4561   26.9069 H   0  0  0  0  0  0
    9.1344   14.5914   26.3759 H   0  0  0  0  0  0
    8.1694   13.1692   25.9039 H   0  0  0  0  0  0
    8.2701   14.1669   23.5975 H   0  0  0  0  0  0
    8.5287   15.7821   24.2691 H   0  0  0  0  0  0
  1  2  2  0  0  0
  1 18  1  0  0  0
  2  5  1  0  0  0
  2  3  1  0  0  0
  3  4  2  0  0  0
  4 19  1  0  0  0
  4  6  1  0  0  0
  5 30  1  0  0  0
  5 31  1  0  0  0
  6  7  2  0  0  0
  6 11  1  0  0  0
  7  8  1  0  0  0
  7 13  1  0  0  0
  8  9  2  0  0  0
  8 32  1  0  0  0
  9 17  1  0  0  0
  9 10  1  0  0  0
 10 11  2  0  0  0
 10 33  1  0  0  0
 11 12  1  0  0  0
 12 14  1  0  0  0
 14 15  1  0  0  0
 14 34  1  0  0  0
 14 35  1  0  0  0
 15 16  1  0  0  0
 15 36  1  0  0  0
 15 37  1  0  0  0
 16 38  1  0  0  0
 16 39  1  0  0  0
 16 40  1  0  0  0
 18 19  2  0  0  0
 18 22  1  0  0  0
 19 20  1  0  0  0
 20 21  1  0  0  0
 20 41  1  0  0  0
 20 42  1  0  0  0
 21 22  1  0  0  0
 21 23  1  0  0  0
 22 43  1  0  0  0
 22 44  1  0  0  0
 23 24  1  0  0  0
 23 25  2  0  0  0
 24 26  1  0  0  0
 24 45  1  0  0  0
 26 27  1  0  0  0
 26 29  1  0  0  0
 26 46  1  0  0  0
 27 28  1  0  0  0
 27 47  1  0  0  0
 27 48  1  0  0  0
 28 29  1  0  0  0
 28 49  1  0  0  0
 28 50  1  0  0  0
 29 51  1  0  0  0
 29 52  1  0  0  0
M  END
> <s_m_entry_id>
4907

> <s_m_entry_name>
dock_pv.226

> <s_m_Source_Path>
/home/csk/Desktop/cluster/DUD-E-result/hs90a

> <s_m_Source_File>
dock_pv.maegz

> <i_m_Source_File_Index>
226

> <chembl_id>
CHEMBL1774909

> <chembl_pref_name>
None

> <i_lp_mmshare_version>
53161

> <r_lp_tautomer_probability>
0.999999987636

> <s_lp_Force_Field>
OPLS_2005

> <r_lp_Energy>
43.923946

> <b_lp_Chiralities_Consistent>
1

> <s_lp_Variant>
CHEMBL3880_lig916-1

> <s_i_glide_gridfile>
glide-grid_1uyg

> <i_i_glide_lignum>
1022

> <i_i_glide_rotatable_bonds>
7

> <r_i_docking_score>
-8.09225529364228

> <r_i_glide_ligand_efficiency>
-0.279043285987665

> <r_i_glide_ligand_efficiency_sa>
-0.857309381672299

> <r_i_glide_ligand_efficiency_ln>
-1.85292126035514

> <r_i_glide_gscore>
-8.09225529364228

> <r_i_glide_lipo>
-4.04810538810443

> <r_i_glide_hbond>
0

> <r_i_glide_metal>
0

> <r_i_glide_rewards>
-1.78488038462306

> <r_i_glide_evdw>
-51.2759666442871

> <r_i_glide_ecoul>
-2.04592633247375

> <r_i_glide_erotb>
0.628148565816257

> <r_i_glide_esite>
-0.0167308046456299

> <r_i_glide_emodel>
-74.509481892912

> <r_i_glide_energy>
-53.3218929767609

> <r_i_glide_einternal>
3.54528141021729

> <i_i_glide_confnum>
2

> <i_i_glide_posenum>
363

> <r_i_glide_eff_state_penalty>
0

> <s_user_duplicate_titles>
CHEMBL3880_lig916

> <i_f3d_flags>
0

> <s_m_subgroup_title>
dock_pv

> <s_m_subgroupid>
dock_pv

> <b_m_subgroup_collapsed>
1

$$$$
CHEMBL3880_lig212
                    3D
 Schrodinger Suite 2021-1.
 63 67  0  0  1  0            999 V2000
    6.6965    9.0311   22.8721 C   0  0  0  0  0  0
    6.2432   10.3524   22.9401 C   0  0  0  0  0  0
    5.1266   10.6640   23.7198 C   0  0  0  0  0  0
    4.4613    9.6248   24.3670 C   0  0  0  0  0  0
    4.8474    8.2893   24.2482 C   0  0  0  0  0  0
    6.0354    7.9859   23.5527 C   0  0  0  0  0  0
    6.6333    6.5957   23.5680 C   0  0  0  0  0  0
    5.9530    5.5750   23.5818 O   0  0  0  0  0  0
    7.9640    6.5297   23.5676 N   0  0  0  0  0  0
    3.3185   12.3817   23.8746 C   0  0  0  0  0  0
    4.6540   11.9890   23.9155 N   0  0  0  0  0  0
    3.2560   13.7273   24.1943 C   0  0  0  0  0  0
    4.5482   14.1134   24.6202 C   0  0  0  0  0  0
    5.4140   13.1106   24.2394 C   0  0  0  0  0  0
    6.9434   13.1771   24.3643 C   0  0  0  0  0  0
    7.5010   14.3964   25.1818 C   0  0  0  0  0  0
    6.4065   15.1725   25.9547 C   0  0  0  0  0  0
    5.0504   15.3225   25.2668 C   0  0  0  0  0  0
    8.5326   13.9651   26.2556 C   0  0  0  0  0  0
    8.2441   15.2922   24.1977 C   0  0  0  0  0  0
    4.4603   16.3842   25.3185 O   0  0  0  0  0  0
    1.9837   14.5258   24.0953 C   0  0  0  0  0  0
    2.1400   11.4599   23.5147 C   0  0  0  0  0  0
    1.2783   11.0877   24.7611 C   0  0  0  0  0  0
    0.5084    9.7367   24.8110 C   0  0  0  0  0  0
    1.4065    8.5889   24.9344 N   0  0  1  0  0  0
    0.9032    7.4281   25.6587 C   0  0  0  0  0  0
    1.8982    6.2838   25.3542 C   0  0  0  0  0  0
    2.8532    6.8619   24.2883 C   0  0  1  0  0  0
    1.9393    7.9662   23.7272 C   0  0  0  0  0  0
    4.0651    7.3626   24.9637 N   0  0  0  0  0  0
    3.0726    6.0851   23.5541 H   0  0  0  0  0  0
    7.5840    8.8301   22.2879 H   0  0  0  0  0  0
    6.7810   11.1223   22.4074 H   0  0  0  0  0  0
    3.6309    9.8567   25.0136 H   0  0  0  0  0  0
    8.4048    5.6235   23.5447 H   0  0  0  0  0  0
    8.5170    7.3704   23.5919 H   0  0  0  0  0  0
    7.4076   13.0978   23.3815 H   0  0  0  0  0  0
    7.2998   12.3310   24.8939 H   0  0  0  0  0  0
    6.7501   16.1670   26.2261 H   0  0  0  0  0  0
    6.1721   14.6846   26.8998 H   0  0  0  0  0  0
    9.1262   14.8071   26.6163 H   0  0  0  0  0  0
    8.0610   13.5687   27.1469 H   0  0  0  0  0  0
    9.2335   13.2204   25.8764 H   0  0  0  0  0  0
    8.8968   15.9689   24.7328 H   0  0  0  0  0  0
    8.9104   14.7163   23.5683 H   0  0  0  0  0  0
    7.5844   15.8758   23.5710 H   0  0  0  0  0  0
    2.1296   15.5690   24.3166 H   0  0  0  0  0  0
    1.5701   14.4674   23.0895 H   0  0  0  0  0  0
    1.1960   14.1454   24.7430 H   0  0  0  0  0  0
    2.4754   10.5963   22.9576 H   0  0  0  0  0  0
    1.4902   11.9645   22.7998 H   0  0  0  0  0  0
    0.5392   11.8792   24.8853 H   0  0  0  0  0  0
    1.8848   11.1513   25.6640 H   0  0  0  0  0  0
   -0.1618    9.6096   23.9663 H   0  0  0  0  0  0
   -0.1417    9.7641   25.6878 H   0  0  0  0  0  0
   -0.1145    7.1809   25.3468 H   0  0  0  0  0  0
    0.8203    7.6558   26.7224 H   0  0  0  0  0  0
    1.3742    5.4146   24.9526 H   0  0  0  0  0  0
    2.4238    5.9676   26.2564 H   0  0  0  0  0  0
    1.0895    7.5781   23.1577 H   0  0  0  0  0  0
    2.4402    8.6104   23.0138 H   0  0  0  0  0  0
    3.7737    7.7693   25.8407 H   0  0  0  0  0  0
  1  6  1  0  0  0
  1  2  2  0  0  0
  1 33  1  0  0  0
  2  3  1  0  0  0
  2 34  1  0  0  0
  3 11  1  0  0  0
  3  4  2  0  0  0
  4  5  1  0  0  0
  4 35  1  0  0  0
  5  6  2  0  0  0
  5 31  1  0  0  0
  6  7  1  0  0  0
  7  9  1  0  0  0
  7  8  2  0  0  0
  9 36  1  0  0  0
  9 37  1  0  0  0
 10 11  1  0  0  0
 10 23  1  0  0  0
 10 12  2  0  0  0
 11 14  1  0  0  0
 12 22  1  0  0  0
 12 13  1  0  0  0
 13 18  1  0  0  0
 13 14  2  0  0  0
 14 15  1  0  0  0
 15 16  1  0  0  0
 15 38  1  0  0  0
 15 39  1  0  0  0
 16 17  1  0  0  0
 16 19  1  0  0  0
 16 20  1  0  0  0
 17 18  1  0  0  0
 17 40  1  0  0  0
 17 41  1  0  0  0
 18 21  2  0  0  0
 19 42  1  0  0  0
 19 43  1  0  0  0
 19 44  1  0  0  0
 20 45  1  0  0  0
 20 46  1  0  0  0
 20 47  1  0  0  0
 22 48  1  0  0  0
 22 49  1  0  0  0
 22 50  1  0  0  0
 23 24  1  0  0  0
 23 51  1  0  0  0
 23 52  1  0  0  0
 24 25  1  0  0  0
 24 53  1  0  0  0
 24 54  1  0  0  0
 25 26  1  0  0  0
 25 55  1  0  0  0
 25 56  1  0  0  0
 26 27  1  0  0  0
 26 30  1  0  0  0
 27 28  1  0  0  0
 27 57  1  0  0  0
 27 58  1  0  0  0
 28 29  1  0  0  0
 28 59  1  0  0  0
 28 60  1  0  0  0
 29 30  1  0  0  0
 29 31  1  0  0  0
 29 32  1  0  0  0
 30 61  1  0  0  0
 30 62  1  0  0  0
 31 63  1  0  0  0
M  END
> <s_m_entry_id>
4908

> <s_m_entry_name>
dock_pv.227

> <s_m_Source_Path>
/home/csk/Desktop/cluster/DUD-E-result/hs90a

> <s_m_Source_File>
dock_pv.maegz

> <i_m_Source_File_Index>
227

> <chembl_id>
CHEMBL1779546

> <chembl_pref_name>
None

> <i_lp_mmshare_version>
53161

> <r_lp_tautomer_probability>
0.99995

> <s_lp_Force_Field>
OPLS_2005

> <r_lp_Energy>
66.846343

> <b_lp_Chiralities_Consistent>
1

> <s_lp_Variant>
CHEMBL3880_lig212-1

> <s_i_glide_gridfile>
glide-grid_1uyg

> <i_i_glide_lignum>
246

> <i_i_glide_rotatable_bonds>
1

> <r_i_docking_score>
-8.09095789015215

> <r_i_glide_ligand_efficiency>
-0.260998641617811

> <r_i_glide_ligand_efficiency_sa>
-0.819896082140123

> <r_i_glide_ligand_efficiency_ln>
-1.82475896231

> <r_i_glide_gscore>
-8.09095789015215

> <r_i_glide_lipo>
-4.4899243925167

> <r_i_glide_hbond>
0

> <r_i_glide_metal>
0

> <r_i_glide_rewards>
-1.83857338631322

> <r_i_glide_evdw>
-38.1922302246094

> <r_i_glide_ecoul>
1.1428941488266

> <r_i_glide_erotb>
0

> <r_i_glide_esite>
-0.0242827224157526

> <r_i_glide_emodel>
-68.9093642553231

> <r_i_glide_energy>
-37.0493360757828

> <r_i_glide_einternal>
4.17963361740112

> <i_i_glide_confnum>
1

> <i_i_glide_posenum>
107

> <r_i_glide_eff_state_penalty>
0

> <s_user_duplicate_titles>
CHEMBL3880_lig212

> <i_f3d_flags>
0

> <s_m_subgroup_title>
dock_pv

> <s_m_subgroupid>
dock_pv

> <b_m_subgroup_collapsed>
1

$$$$
CHEMBL3880_lig14
                    3D
 Schrodinger Suite 2021-1.
 37 39  0  0  1  0            999 V2000
    1.4255   11.1690   25.5670 O   0  0  0  0  0  0
   -2.7390   10.7690   26.5986 O   0  0  0  0  0  0
    1.6048   12.4412   23.6776 N   0  0  0  0  0  0
    0.8610   12.8310   22.6312 N   0  0  0  0  0  0
   -1.5799   10.5072   25.9043 N   0  0  0  0  0  0
   -0.3849   11.6723   24.0461 C   0  0  0  0  0  0
    0.9532   11.6848   24.5602 C   0  0  0  0  0  0
   -0.3075   12.3690   22.8027 C   0  0  0  0  0  0
    2.9395   12.8348   23.8244 C   0  0  0  0  0  0
   -1.4745   11.1516   24.6596 C   0  0  0  0  0  0
   -0.7390    9.5451   26.5172 C   0  0  0  0  0  0
    3.2114   14.0942   24.3670 C   0  0  0  0  0  0
    3.9767   11.9334   23.5670 C   0  0  0  0  0  0
   -1.4808   12.5694   21.8600 C   0  0  0  0  0  0
   -0.7159    9.3670   27.9102 C   0  0  0  0  0  0
    0.0369    8.6790   25.7260 C   0  0  0  0  0  0
    4.5240   14.4571   24.6519 C   0  0  0  0  0  0
    5.2920   12.3112   23.8246 C   0  0  0  0  0  0
    5.5584   13.5690   24.3670 C   0  0  0  0  0  0
    0.0757    8.3805   28.4921 C   0  0  0  0  0  0
    0.8289    7.6917   26.3045 C   0  0  0  0  0  0
    0.8475    7.5486   27.6881 C   0  0  0  0  0  0
   -3.3902   10.2627   26.1035 H   0  0  0  0  0  0
   -2.4271   11.2531   24.1542 H   0  0  0  0  0  0
    2.4050   14.7757   24.5919 H   0  0  0  0  0  0
    3.7646   10.9466   23.1806 H   0  0  0  0  0  0
   -2.2511   13.1854   22.3249 H   0  0  0  0  0  0
   -1.1759   13.0607   20.9355 H   0  0  0  0  0  0
   -1.9391   11.6167   21.5919 H   0  0  0  0  0  0
   -1.3057   10.0017   28.5544 H   0  0  0  0  0  0
    0.0166    8.7671   24.6497 H   0  0  0  0  0  0
    4.7402   15.4261   25.0777 H   0  0  0  0  0  0
    6.1022   11.6259   23.6232 H   0  0  0  0  0  0
    6.5786   13.8549   24.5766 H   0  0  0  0  0  0
    0.0912    8.2706   29.5670 H   0  0  0  0  0  0
    1.4226    7.0398   25.6807 H   0  0  0  0  0  0
    1.4652    6.7871   28.1406 H   0  0  0  0  0  0
  1  7  2  0  0  0
  2  5  1  0  0  0
  2 23  1  0  0  0
  3  4  1  0  0  0
  3  7  1  0  0  0
  3  9  1  0  0  0
  4  8  2  0  0  0
  5 10  1  0  0  0
  5 11  1  0  0  0
  6  7  1  0  0  0
  6  8  1  0  0  0
  6 10  2  0  0  0
  8 14  1  0  0  0
  9 12  2  0  0  0
  9 13  1  0  0  0
 10 24  1  0  0  0
 11 15  2  0  0  0
 11 16  1  0  0  0
 12 17  1  0  0  0
 12 25  1  0  0  0
 13 18  2  0  0  0
 13 26  1  0  0  0
 14 27  1  0  0  0
 14 28  1  0  0  0
 14 29  1  0  0  0
 15 20  1  0  0  0
 15 30  1  0  0  0
 16 21  2  0  0  0
 16 31  1  0  0  0
 17 19  2  0  0  0
 17 32  1  0  0  0
 18 19  1  0  0  0
 18 33  1  0  0  0
 19 34  1  0  0  0
 20 22  2  0  0  0
 20 35  1  0  0  0
 21 22  1  0  0  0
 21 36  1  0  0  0
 22 37  1  0  0  0
M  END
> <s_m_entry_id>
4909

> <s_m_entry_name>
dock_pv.228

> <s_m_Source_Path>
/home/csk/Desktop/cluster/DUD-E-result/hs90a

> <s_m_Source_File>
dock_pv.maegz

> <i_m_Source_File_Index>
228

> <chembl_id>
CHEMBL1363786

> <chembl_pref_name>
None

> <i_lp_mmshare_version>
53161

> <r_lp_tautomer_probability>
1

> <s_lp_Force_Field>
OPLS_2005

> <r_lp_Energy>
33.935405

> <b_lp_Chiralities_Consistent>
1

> <s_lp_Variant>
CHEMBL3880_lig14-1

> <s_i_glide_gridfile>
glide-grid_1uyg

> <i_i_glide_lignum>
17

> <i_i_glide_rotatable_bonds>
4

> <r_i_docking_score>
-8.08291284953598

> <r_i_glide_ligand_efficiency>
-0.367405129524363

> <r_i_glide_ligand_efficiency_sa>
-1.02948362215108

> <r_i_glide_ligand_efficiency_ln>
-1.97575873183637

> <r_i_glide_gscore>
-8.08291284953598

> <r_i_glide_lipo>
-3.245687510065

> <r_i_glide_hbond>
0

> <r_i_glide_metal>
0

> <r_i_glide_rewards>
-3.05143461597894

> <r_i_glide_evdw>
-36.4649696350098

> <r_i_glide_ecoul>
-2.58178687095642

> <r_i_glide_erotb>
0.424725788901916

> <r_i_glide_esite>
0

> <r_i_glide_emodel>
-49.3669266131818

> <r_i_glide_energy>
-39.0467565059662

> <r_i_glide_einternal>
13.794337272644

> <i_i_glide_confnum>
1

> <i_i_glide_posenum>
368

> <r_i_glide_eff_state_penalty>
0

> <s_user_duplicate_titles>
CHEMBL3880_lig14

> <i_f3d_flags>
0

> <s_m_subgroup_title>
dock_pv

> <s_m_subgroupid>
dock_pv

> <b_m_subgroup_collapsed>
1

$$$$
CHEMBL3880_lig928
                    3D
 Schrodinger Suite 2021-1.
 52 55  0  0  1  0            999 V2000
   -1.4564   11.5686   23.5650 N   0  0  0  0  0  0
   -0.7893   12.3077   22.6445 C   0  0  0  0  0  0
    0.5514   12.5488   22.6331 N   0  0  0  0  0  0
    1.2816   11.9476   23.6197 C   0  0  0  0  0  0
   -1.5390   12.7691   21.5719 N   0  0  0  0  0  0
    2.7389   12.2124   23.6755 C   0  0  0  0  0  0
    3.2106   13.4661   24.0888 C   0  0  0  0  0  0
    4.5727   13.6946   24.2608 C   0  0  0  0  0  0
    5.4845   12.6886   23.9670 C   0  0  0  0  0  0
    5.0283   11.4389   23.5591 C   0  0  0  0  0  0
    3.6549   11.1819   23.4113 C   0  0  0  0  0  0
    3.1335    9.9690   22.9865 O   0  0  0  0  0  0
    2.1197   14.7690   24.3670 Cl  0  0  0  0  0  0
    3.9873    8.8786   22.6485 C   0  0  0  0  0  0
    4.6046    8.2269   23.9175 C   0  0  0  0  0  0
    6.0302    7.8964   23.8289 N   0  0  0  0  0  0
    7.1792   12.9863   24.1079 Cl  0  0  0  0  0  0
   -0.6846   10.9848   24.5144 C   0  0  0  0  0  0
    0.6875   11.1161   24.5692 C   0  0  0  0  0  0
    1.2634   10.2436   25.6579 C   0  0  0  0  0  0
    0.0676    9.7118   26.3182 N   0  0  0  0  0  0
   -1.1538   10.0444   25.5778 C   0  0  0  0  0  0
    0.0609    8.8938   27.4021 C   0  0  0  0  0  0
    1.2705    8.4318   27.7811 N   0  0  0  0  0  0
   -0.9786    8.5532   27.9670 O   0  0  0  0  0  0
    6.7443    7.1308   24.7167 C   0  0  0  0  0  0
    8.0611    7.2183   24.3090 C   0  0  0  0  0  0
    8.0294    8.0173   23.1671 C   0  0  0  0  0  0
    6.8266    8.4645   22.9092 N   0  0  0  0  0  0
    1.5266    7.3829   28.7692 C   0  0  0  0  0  0
    1.2602    7.8049   30.2222 C   0  0  0  0  0  0
   -1.0909   13.2902   20.8367 H   0  0  0  0  0  0
   -2.5110   12.4901   21.5053 H   0  0  0  0  0  0
    4.9232   14.6674   24.5739 H   0  0  0  0  0  0
    5.7646   10.6874   23.3422 H   0  0  0  0  0  0
    3.3809    8.1341   22.1313 H   0  0  0  0  0  0
    4.7050    9.2090   21.8976 H   0  0  0  0  0  0
    4.4852    8.8908   24.7721 H   0  0  0  0  0  0
    4.0591    7.3165   24.1684 H   0  0  0  0  0  0
    1.8980   10.7691   26.3664 H   0  0  0  0  0  0
    1.8600    9.4281   25.2470 H   0  0  0  0  0  0
   -1.5390    9.1690   25.0755 H   0  0  0  0  0  0
   -1.9348   10.4516   26.2213 H   0  0  0  0  0  0
    2.0806    8.7878   27.2985 H   0  0  0  0  0  0
    6.2661    6.6350   25.5487 H   0  0  0  0  0  0
    8.9266    6.7691   24.7643 H   0  0  0  0  0  0
    8.8609    8.2757   22.5323 H   0  0  0  0  0  0
    2.5698    7.0793   28.6717 H   0  0  0  0  0  0
    0.9318    6.5006   28.5240 H   0  0  0  0  0  0
    1.5732    7.0236   30.9146 H   0  0  0  0  0  0
    0.1972    7.9690   30.3936 H   0  0  0  0  0  0
    1.8005    8.7132   30.4917 H   0  0  0  0  0  0
  1 18  1  0  0  0
  1  2  2  0  0  0
  2  5  1  0  0  0
  2  3  1  0  0  0
  3  4  2  0  0  0
  4 19  1  0  0  0
  4  6  1  0  0  0
  5 32  1  0  0  0
  5 33  1  0  0  0
  6  7  2  0  0  0
  6 11  1  0  0  0
  7  8  1  0  0  0
  7 13  1  0  0  0
  8  9  2  0  0  0
  8 34  1  0  0  0
  9 17  1  0  0  0
  9 10  1  0  0  0
 10 11  2  0  0  0
 10 35  1  0  0  0
 11 12  1  0  0  0
 12 14  1  0  0  0
 14 15  1  0  0  0
 14 36  1  0  0  0
 14 37  1  0  0  0
 15 16  1  0  0  0
 15 38  1  0  0  0
 15 39  1  0  0  0
 16 26  1  0  0  0
 16 29  1  0  0  0
 18 19  2  0  0  0
 18 22  1  0  0  0
 19 20  1  0  0  0
 20 21  1  0  0  0
 20 40  1  0  0  0
 20 41  1  0  0  0
 21 22  1  0  0  0
 21 23  1  0  0  0
 22 42  1  0  0  0
 22 43  1  0  0  0
 23 24  1  0  0  0
 23 25  2  0  0  0
 24 30  1  0  0  0
 24 44  1  0  0  0
 26 27  2  0  0  0
 26 45  1  0  0  0
 27 28  1  0  0  0
 27 46  1  0  0  0
 28 29  2  0  0  0
 28 47  1  0  0  0
 30 31  1  0  0  0
 30 48  1  0  0  0
 30 49  1  0  0  0
 31 50  1  0  0  0
 31 51  1  0  0  0
 31 52  1  0  0  0
M  END
> <s_m_entry_id>
4910

> <s_m_entry_name>
dock_pv.229

> <s_m_Source_Path>
/home/csk/Desktop/cluster/DUD-E-result/hs90a

> <s_m_Source_File>
dock_pv.maegz

> <i_m_Source_File_Index>
229

> <chembl_id>
CHEMBL1774921

> <chembl_pref_name>
None

> <i_lp_mmshare_version>
53161

> <r_lp_tautomer_probability>
0.999999987636

> <s_lp_Force_Field>
OPLS_2005

> <r_lp_Energy>
28.592623

> <b_lp_Chiralities_Consistent>
1

> <s_lp_Variant>
CHEMBL3880_lig928-1

> <s_i_glide_gridfile>
glide-grid_1uyg

> <i_i_glide_lignum>
1034

> <i_i_glide_rotatable_bonds>
8

> <r_i_docking_score>
-8.06696582844637

> <r_i_glide_ligand_efficiency>
-0.260224704143431

> <r_i_glide_ligand_efficiency_sa>
-0.817464849934728

> <r_i_glide_ligand_efficiency_ln>
-1.81934801712696

> <r_i_glide_gscore>
-8.06696582844637

> <r_i_glide_lipo>
-3.94762060862305

> <r_i_glide_hbond>
0

> <r_i_glide_metal>
0

> <r_i_glide_rewards>
-1.82678066722333

> <r_i_glide_evdw>
-49.2308807373047

> <r_i_glide_ecoul>
-2.6429340839386

> <r_i_glide_erotb>
0.565419596856037

> <r_i_glide_esite>
0

> <r_i_glide_emodel>
-71.7594720370666

> <r_i_glide_energy>
-51.8738148212433

> <r_i_glide_einternal>
5.45190334320068

> <i_i_glide_confnum>
66

> <i_i_glide_posenum>
129

> <r_i_glide_eff_state_penalty>
0

> <s_user_duplicate_titles>
CHEMBL3880_lig928

> <i_f3d_flags>
0

> <s_m_subgroup_title>
dock_pv

> <s_m_subgroupid>
dock_pv

> <b_m_subgroup_collapsed>
1

$$$$
CHEMBL3880_lig446
                    3D
 Schrodinger Suite 2021-1.
 68 72  0  0  1  0            999 V2000
    3.6669    6.0032   21.0815 C   0  0  0  0  0  0
    4.5856    6.3578   22.1093 O   0  0  0  0  0  0
    4.6785    5.4456   23.1634 C   0  0  2  0  0  0
    3.4909    5.3886   23.8954 O   0  0  0  0  0  0
    3.4323    6.5173   24.7468 C   0  0  1  0  0  0
    2.4302    6.2733   25.8955 C   0  0  0  0  0  0
    2.2433    7.4388   26.7062 O   0  0  0  0  0  0
    1.3406    8.3610   26.0618 N   0  0  0  0  0  0
    1.8246    9.5456   25.4246 C   0  0  0  0  0  0
    3.0756    9.7079   25.1697 N   0  0  0  0  0  0
    3.4456   10.8488   24.3113 C   0  0  2  0  0  0
    2.3967   11.0835   23.1667 C   0  0  0  0  0  0
    0.9966   11.1684   23.7683 C   0  0  0  0  0  0
    0.0522   11.9548   23.1753 N   0  0  0  0  0  0
   -1.1430   12.0366   23.7997 C   0  0  0  0  0  0
   -2.1346   12.7711   23.1644 N   0  0  0  0  0  0
   -1.4533   11.4789   24.9922 N   0  0  0  0  0  0
   -0.4916   10.7221   25.5894 C   0  0  0  0  0  0
   -0.8380   10.3163   27.0147 C   0  0  0  0  0  0
    0.7464   10.4590   24.9582 C   0  0  0  0  0  0
    4.8661   10.7257   23.7093 C   0  0  0  0  0  0
    5.1372    9.5286   23.0401 C   0  0  0  0  0  0
    6.3705    9.2909   22.4671 C   0  0  0  0  0  0
    7.3648   10.2435   22.5364 C   0  0  0  0  0  0
    8.5589    9.9722   21.9726 F   0  0  0  0  0  0
    7.1164   11.4659   23.1577 C   0  0  0  0  0  0
    5.8641   11.7572   23.7260 C   0  0  0  0  0  0
    5.6421   13.1486   24.2652 C   0  0  0  0  0  0
    6.6269   13.9696   24.8441 C   0  0  0  0  0  0
    6.2489   15.2228   25.3353 C   0  0  0  0  0  0
    4.9198   15.6382   25.2083 C   0  0  0  0  0  0
    4.0204   14.7854   24.5675 C   0  0  0  0  0  0
    2.7232   15.1691   24.3671 O   0  0  0  0  0  0
    1.7145   14.2668   24.0012 C   0  0  0  0  0  0
    4.3848   13.5892   24.0838 N   0  0  0  0  0  0
    4.9120    6.7090   25.1598 C   0  0  1  0  0  0
    5.2191    6.3703   26.5089 O   0  0  0  0  0  0
    5.7516    5.9265   24.1333 C   0  0  1  0  0  0
    6.4392    4.8057   24.6499 O   0  0  0  0  0  0
    3.7018    6.7547   20.2935 H   0  0  0  0  0  0
    2.6400    5.9607   21.4573 H   0  0  0  0  0  0
    3.9188    5.0398   20.6299 H   0  0  0  0  0  0
    4.9311    4.4753   22.7359 H   0  0  0  0  0  0
    3.0641    7.3274   24.1170 H   0  0  0  0  0  0
    1.4792    5.9149   25.5008 H   0  0  0  0  0  0
    2.7927    5.4776   26.5432 H   0  0  0  0  0  0
    0.4135    8.2588   26.4399 H   0  0  0  0  0  0
    3.4553   11.6753   25.0153 H   0  0  0  0  0  0
    2.6453   11.9546   22.5621 H   0  0  0  0  0  0
    2.4193   10.2387   22.4812 H   0  0  0  0  0  0
   -3.0672   12.7611   23.5735 H   0  0  0  0  0  0
   -1.9787   13.1048   22.2235 H   0  0  0  0  0  0
    0.0211    9.9756   27.5779 H   0  0  0  0  0  0
   -1.2321   11.1675   27.5628 H   0  0  0  0  0  0
   -1.5987    9.5459   27.0337 H   0  0  0  0  0  0
    4.3816    8.7635   22.9638 H   0  0  0  0  0  0
    6.5640    8.3612   21.9687 H   0  0  0  0  0  0
    7.9062   12.2034   23.1565 H   0  0  0  0  0  0
    7.6420   13.6236   24.9660 H   0  0  0  0  0  0
    6.9693   15.8701   25.8168 H   0  0  0  0  0  0
    4.6057   16.6077   25.5645 H   0  0  0  0  0  0
    0.7396   14.7544   24.0605 H   0  0  0  0  0  0
    1.8641   13.9310   22.9757 H   0  0  0  0  0  0
    1.7077   13.4368   24.7084 H   0  0  0  0  0  0
    5.1502    7.7638   25.0572 H   0  0  0  0  0  0
    4.6297    6.8674   27.0846 H   0  0  0  0  0  0
    6.4569    6.5803   23.6205 H   0  0  0  0  0  0
    6.7712    5.0776   25.5175 H   0  0  0  0  0  0
  1  2  1  0  0  0
  1 40  1  0  0  0
  1 41  1  0  0  0
  1 42  1  0  0  0
  2  3  1  0  0  0
  3  4  1  0  0  0
  3 38  1  0  0  0
  3 43  1  0  0  0
  4  5  1  0  0  0
  5  6  1  0  0  0
  5 36  1  0  0  0
  5 44  1  0  0  0
  6  7  1  0  0  0
  6 45  1  0  0  0
  6 46  1  0  0  0
  7  8  1  0  0  0
  8  9  1  0  0  0
  8 47  1  0  0  0
  9 10  2  0  0  0
  9 20  1  0  0  0
 10 11  1  0  0  0
 11 12  1  0  0  0
 11 21  1  0  0  0
 11 48  1  0  0  0
 12 13  1  0  0  0
 12 49  1  0  0  0
 12 50  1  0  0  0
 13 14  2  0  0  0
 13 20  1  0  0  0
 14 15  1  0  0  0
 15 16  1  0  0  0
 15 17  2  0  0  0
 16 51  1  0  0  0
 16 52  1  0  0  0
 17 18  1  0  0  0
 18 19  1  0  0  0
 18 20  2  0  0  0
 19 53  1  0  0  0
 19 54  1  0  0  0
 19 55  1  0  0  0
 21 22  2  0  0  0
 21 27  1  0  0  0
 22 23  1  0  0  0
 22 56  1  0  0  0
 23 24  2  0  0  0
 23 57  1  0  0  0
 24 25  1  0  0  0
 24 26  1  0  0  0
 26 27  2  0  0  0
 26 58  1  0  0  0
 27 28  1  0  0  0
 28 29  2  0  0  0
 28 35  1  0  0  0
 29 30  1  0  0  0
 29 59  1  0  0  0
 30 31  2  0  0  0
 30 60  1  0  0  0
 31 32  1  0  0  0
 31 61  1  0  0  0
 32 33  1  0  0  0
 32 35  2  0  0  0
 33 34  1  0  0  0
 34 62  1  0  0  0
 34 63  1  0  0  0
 34 64  1  0  0  0
 36 37  1  0  0  0
 36 38  1  0  0  0
 36 65  1  0  0  0
 37 66  1  0  0  0
 38 39  1  0  0  0
 38 67  1  0  0  0
 39 68  1  0  0  0
M  END
> <s_m_entry_id>
4911

> <s_m_entry_name>
dock_pv.230

> <s_m_Source_Path>
/home/csk/Desktop/cluster/DUD-E-result/hs90a

> <s_m_Source_File>
dock_pv.maegz

> <i_m_Source_File_Index>
230

> <chembl_id>
CHEMBL3675261

> <chembl_pref_name>
None

> <i_lp_mmshare_version>
53161

> <r_lp_tautomer_probability>
1

> <s_lp_Force_Field>
OPLS_2005

> <r_lp_Energy>
47.437943

> <b_lp_Chiralities_Consistent>
1

> <s_lp_Variant>
CHEMBL3880_lig446-2

> <s_i_glide_gridfile>
glide-grid_1uyg

> <i_i_glide_lignum>
489

> <i_i_glide_rotatable_bonds>
10

> <r_i_docking_score>
-8.06529442651577

> <r_i_glide_ligand_efficiency>
-0.206802421192712

> <r_i_glide_ligand_efficiency_sa>
-0.701310736335329

> <r_i_glide_ligand_efficiency_ln>
-1.72942807204216

> <r_i_glide_gscore>
-8.06529442651577

> <r_i_glide_lipo>
-4.48052289750247

> <r_i_glide_hbond>
-0.157833492845574

> <r_i_glide_metal>
0

> <r_i_glide_rewards>
-1.26652252576823

> <r_i_glide_evdw>
-46.044677734375

> <r_i_glide_ecoul>
-1.8849378824234

> <r_i_glide_erotb>
0.424559058682763

> <r_i_glide_esite>
0

> <r_i_glide_emodel>
-62.3596815486663

> <r_i_glide_energy>
-47.9296156167984

> <r_i_glide_einternal>
6.75207567214966

> <i_i_glide_confnum>
118

> <i_i_glide_posenum>
266

> <r_i_glide_eff_state_penalty>
0

> <s_user_duplicate_titles>
CHEMBL3880_lig446

> <i_f3d_flags>
0

> <s_m_subgroup_title>
dock_pv

> <s_m_subgroupid>
dock_pv

> <b_m_subgroup_collapsed>
1

$$$$
CHEMBL3880_lig960
                    3D
 Schrodinger Suite 2021-1.
 58 62  0  0  1  0            999 V2000
    5.6075    9.2111   21.1382 C   0  0  0  0  0  0
    5.5388    8.7291   22.6061 C   0  0  0  0  0  0
    5.2444    7.2175   22.7414 C   0  0  0  0  0  0
    2.0279   10.7642   24.8219 C   0  0  0  0  0  0
    2.5411   11.8295   24.0766 C   0  0  0  0  0  0
    1.6630   12.7093   23.4457 C   0  0  0  0  0  0
    0.2919   12.4958   23.5314 C   0  0  0  0  0  0
    3.9386   11.9580   23.9358 N   0  0  0  0  0  0
    4.8050   10.9182   23.6544 C   0  0  0  0  0  0
    6.1125   11.3886   23.6760 C   0  0  0  0  0  0
    7.2603   10.4904   23.5128 C   0  0  0  0  0  0
    6.8978    9.0043   23.3170 C   0  0  0  0  0  0
    4.3901    9.4811   23.3316 C   0  0  0  0  0  0
    8.4280   10.8633   23.5297 O   0  0  0  0  0  0
    6.0554   12.7688   23.9670 C   0  0  0  0  0  0
    4.7098   13.0870   24.1322 C   0  0  0  0  0  0
    4.2001   14.4708   24.5088 C   0  0  0  0  0  0
    5.1890   15.2353   25.2798 N   0  0  2  0  0  0
    6.5725   15.1655   24.7892 C   0  0  0  0  0  0
    7.1371   13.7916   24.2950 C   0  0  0  0  0  0
    5.0819   15.0046   26.7097 C   0  0  0  0  0  0
   -0.2211   11.4096   24.2555 C   0  0  0  0  0  0
    0.6616   10.5033   24.8809 C   0  0  0  0  0  0
    0.1573    9.2568   25.5982 C   0  0  0  0  0  0
   -1.7232   11.2389   24.1975 C   0  0  0  0  0  0
   -0.7003    9.5397   26.8353 C   0  0  0  0  0  0
   -2.3390   10.7690   25.3000 N   0  0  0  0  0  0
   -1.7859   10.6144   26.6483 C   0  0  0  0  0  0
   -2.3306   11.5253   23.1671 O   0  0  0  0  0  0
    4.7085    8.9337   20.5862 H   0  0  0  0  0  0
    5.7191   10.2906   21.0637 H   0  0  0  0  0  0
    6.4573    8.7692   20.6258 H   0  0  0  0  0  0
    4.3469    6.9372   22.1882 H   0  0  0  0  0  0
    6.0609    6.6042   22.3670 H   0  0  0  0  0  0
    5.0920    6.9205   23.7800 H   0  0  0  0  0  0
    2.6974   10.1008   25.3476 H   0  0  0  0  0  0
    2.0278   13.5454   22.8738 H   0  0  0  0  0  0
   -0.3725   13.1721   23.0130 H   0  0  0  0  0  0
    7.7250    8.5094   22.8068 H   0  0  0  0  0  0
    6.8660    8.5815   24.3209 H   0  0  0  0  0  0
    3.4590    9.4223   22.7642 H   0  0  0  0  0  0
    4.2176    8.9906   24.2898 H   0  0  0  0  0  0
    4.1040   14.9995   23.5670 H   0  0  0  0  0  0
    3.2097   14.4783   24.9658 H   0  0  0  0  0  0
    6.5894   15.8636   23.9670 H   0  0  0  0  0  0
    7.2680   15.6555   25.4726 H   0  0  0  0  0  0
    7.7061   13.3623   25.1200 H   0  0  0  0  0  0
    7.8787   13.9375   23.5102 H   0  0  0  0  0  0
    5.7977   15.6189   27.2572 H   0  0  0  0  0  0
    4.0831   15.2632   27.0639 H   0  0  0  0  0  0
    5.2608   13.9690   26.9491 H   0  0  0  0  0  0
   -0.3997    8.6575   24.8751 H   0  0  0  0  0  0
    0.9980    8.6266   25.8927 H   0  0  0  0  0  0
   -1.1390    8.6004   27.1669 H   0  0  0  0  0  0
   -0.0590    9.8381   27.6657 H   0  0  0  0  0  0
   -3.3391   10.6638   25.1794 H   0  0  0  0  0  0
   -2.6144   10.4118   27.3287 H   0  0  0  0  0  0
   -1.3732   11.5690   26.9570 H   0  0  0  0  0  0
  1  2  1  0  0  0
  1 30  1  0  0  0
  1 31  1  0  0  0
  1 32  1  0  0  0
  2  3  1  0  0  0
  2 12  1  0  0  0
  2 13  1  0  0  0
  3 33  1  0  0  0
  3 34  1  0  0  0
  3 35  1  0  0  0
  4 23  2  0  0  0
  4  5  1  0  0  0
  4 36  1  0  0  0
  5  6  2  0  0  0
  5  8  1  0  0  0
  6  7  1  0  0  0
  6 37  1  0  0  0
  7 22  2  0  0  0
  7 38  1  0  0  0
  8 16  1  0  0  0
  8  9  1  0  0  0
  9 10  2  0  0  0
  9 13  1  0  0  0
 10 15  1  0  0  0
 10 11  1  0  0  0
 11 12  1  0  0  0
 11 14  2  0  0  0
 12 39  1  0  0  0
 12 40  1  0  0  0
 13 41  1  0  0  0
 13 42  1  0  0  0
 15 16  2  0  0  0
 15 20  1  0  0  0
 16 17  1  0  0  0
 17 18  1  0  0  0
 17 43  1  0  0  0
 17 44  1  0  0  0
 18 19  1  0  0  0
 18 21  1  0  0  0
 19 20  1  0  0  0
 19 45  1  0  0  0
 19 46  1  0  0  0
 20 47  1  0  0  0
 20 48  1  0  0  0
 21 49  1  0  0  0
 21 50  1  0  0  0
 21 51  1  0  0  0
 22 23  1  0  0  0
 22 25  1  0  0  0
 23 24  1  0  0  0
 24 26  1  0  0  0
 24 52  1  0  0  0
 24 53  1  0  0  0
 25 27  1  0  0  0
 25 29  2  0  0  0
 26 28  1  0  0  0
 26 54  1  0  0  0
 26 55  1  0  0  0
 27 28  1  0  0  0
 27 56  1  0  0  0
 28 57  1  0  0  0
 28 58  1  0  0  0
M  END
> <s_m_entry_id>
4912

> <s_m_entry_name>
dock_pv.231

> <s_m_Source_Path>
/home/csk/Desktop/cluster/DUD-E-result/hs90a

> <s_m_Source_File>
dock_pv.maegz

> <i_m_Source_File_Index>
231

> <chembl_id>
CHEMBL3235348

> <chembl_pref_name>
None

> <i_lp_mmshare_version>
53161

> <r_lp_tautomer_probability>
0.99995

> <s_lp_Force_Field>
OPLS_2005

> <r_lp_Energy>
46.731495

> <b_lp_Chiralities_Consistent>
1

> <s_lp_Variant>
CHEMBL3880_lig960-1

> <s_i_glide_gridfile>
glide-grid_1uyg

> <i_i_glide_lignum>
1069

> <i_i_glide_rotatable_bonds>
1

> <r_i_docking_score>
-8.06340523781581

> <r_i_glide_ligand_efficiency>
-0.278048456476407

> <r_i_glide_ligand_efficiency_sa>
-0.854252950229604

> <r_i_glide_ligand_efficiency_ln>
-1.84631532914517

> <r_i_glide_gscore>
-8.06340523781581

> <r_i_glide_lipo>
-4.30374706289944

> <r_i_glide_hbond>
-0.0334041130179809

> <r_i_glide_metal>
0

> <r_i_glide_rewards>
-2.04934056203405

> <r_i_glide_evdw>
-44.9312324523926

> <r_i_glide_ecoul>
3.16633749008179

> <r_i_glide_erotb>
0.127320670803556

> <r_i_glide_esite>
-0.0326231715605387

> <r_i_glide_emodel>
-47.255241296983

> <r_i_glide_energy>
-41.7648949623108

> <r_i_glide_einternal>
0.134166270494461

> <i_i_glide_confnum>
3

> <i_i_glide_posenum>
338

> <r_i_glide_eff_state_penalty>
0

> <s_user_duplicate_titles>
CHEMBL3880_lig960

> <i_f3d_flags>
0

> <s_m_subgroup_title>
dock_pv

> <s_m_subgroupid>
dock_pv

> <b_m_subgroup_collapsed>
1

$$$$
CHEMBL3880_lig837 
                    3D
 Schrodinger Suite 2021-1.
 53 55  0  0  1  0            999 V2000
    8.3947   15.3376   23.6594 C   0  0  0  0  0  0
    7.8966   14.6565   24.9394 C   0  0  0  0  0  0
    8.5911   15.2355   26.1889 C   0  0  0  0  0  0
   -1.2395   10.3628   26.8670 C   0  0  0  0  0  0
   -1.3753   11.0254   25.6367 C   0  0  0  0  0  0
   -0.3457   10.9975   24.6983 C   0  0  0  0  0  0
    0.8441   10.3095   24.9670 C   0  0  0  0  0  0
    0.9561    9.6092   26.1714 C   0  0  0  0  0  0
   -0.0724    9.6293   27.1289 C   0  0  0  0  0  0
    2.0050   10.2214   23.9672 C   0  0  0  0  0  0
    2.3310   11.5420   23.2482 C   0  0  0  0  0  0
    3.4796   12.3284   23.7728 C   0  0  0  0  0  0
    1.5753   11.9702   22.3742 O   0  0  0  0  0  0
    4.8173   11.9317   23.5674 C   0  0  0  0  0  0
    4.2358   14.3920   24.7786 C   0  0  0  0  0  0
    3.2020   13.5623   24.3667 C   0  0  0  0  0  0
    5.5584   14.0123   24.5817 C   0  0  0  0  0  0
    5.8752   12.7799   23.9669 C   0  0  0  0  0  0
    7.3479   12.4362   23.7879 C   0  0  0  0  0  0
    8.1646   13.1415   24.8879 C   0  0  0  0  0  0
    6.4881   14.9147   25.0901 O   0  0  0  0  0  0
    5.0826   10.7964   22.8245 O   0  0  0  0  0  0
    5.5267    9.6376   23.5174 C   0  0  0  0  0  0
   -0.0147    8.9466   28.3321 O   0  0  0  0  0  0
    1.1316    8.1657   28.6483 C   0  0  0  0  0  0
   -2.2115   10.3689   27.8514 O   0  0  0  0  0  0
   -3.5527   10.6848   27.5005 C   0  0  0  0  0  0
    9.4798   15.3457   23.6555 H   0  0  0  0  0  0
    8.0606   14.8307   22.7668 H   0  0  0  0  0  0
    8.0598   16.3677   23.5680 H   0  0  0  0  0  0
    9.5256   14.7205   26.4165 H   0  0  0  0  0  0
    8.8555   16.2805   26.0359 H   0  0  0  0  0  0
    7.9607   15.1619   27.0768 H   0  0  0  0  0  0
   -2.2766   11.5680   25.3915 H   0  0  0  0  0  0
   -0.4915   11.5107   23.7593 H   0  0  0  0  0  0
    1.8617    9.0524   26.3583 H   0  0  0  0  0  0
    2.8912    9.8946   24.5059 H   0  0  0  0  0  0
    1.7865    9.4558   23.2230 H   0  0  0  0  0  0
    4.0129   15.3382   25.2493 H   0  0  0  0  0  0
    2.1813   13.8941   24.5023 H   0  0  0  0  0  0
    7.5453   11.3694   23.8330 H   0  0  0  0  0  0
    7.6613   12.7346   22.7892 H   0  0  0  0  0  0
    9.2254   12.9225   24.7722 H   0  0  0  0  0  0
    7.8682   12.7690   25.8643 H   0  0  0  0  0  0
    6.1062    9.0189   22.8323 H   0  0  0  0  0  0
    6.1627    9.8618   24.3670 H   0  0  0  0  0  0
    4.6917    9.0330   23.8655 H   0  0  0  0  0  0
    1.0014    7.7260   29.6371 H   0  0  0  0  0  0
    1.2643    7.3489   27.9371 H   0  0  0  0  0  0
    2.0409    8.7674   28.6754 H   0  0  0  0  0  0
   -4.2040   10.5298   28.3606 H   0  0  0  0  0  0
   -3.9161   10.0524   26.6924 H   0  0  0  0  0  0
   -3.6982   11.6984   27.1721 H   0  0  0  0  0  0
  1  2  1  0  0  0
  1 28  1  0  0  0
  1 29  1  0  0  0
  1 30  1  0  0  0
  2  3  1  0  0  0
  2 20  1  0  0  0
  2 21  1  0  0  0
  3 31  1  0  0  0
  3 32  1  0  0  0
  3 33  1  0  0  0
  4  5  2  0  0  0
  4  9  1  0  0  0
  4 26  1  0  0  0
  5  6  1  0  0  0
  5 34  1  0  0  0
  6  7  2  0  0  0
  6 35  1  0  0  0
  7  8  1  0  0  0
  7 10  1  0  0  0
  8  9  2  0  0  0
  8 36  1  0  0  0
  9 24  1  0  0  0
 10 11  1  0  0  0
 10 37  1  0  0  0
 10 38  1  0  0  0
 11 12  1  0  0  0
 11 13  2  0  0  0
 12 14  2  0  0  0
 12 16  1  0  0  0
 14 18  1  0  0  0
 14 22  1  0  0  0
 15 17  1  0  0  0
 15 16  2  0  0  0
 15 39  1  0  0  0
 16 40  1  0  0  0
 17 18  2  0  0  0
 17 21  1  0  0  0
 18 19  1  0  0  0
 19 20  1  0  0  0
 19 41  1  0  0  0
 19 42  1  0  0  0
 20 43  1  0  0  0
 20 44  1  0  0  0
 22 23  1  0  0  0
 23 45  1  0  0  0
 23 46  1  0  0  0
 23 47  1  0  0  0
 24 25  1  0  0  0
 25 48  1  0  0  0
 25 49  1  0  0  0
 25 50  1  0  0  0
 26 27  1  0  0  0
 27 51  1  0  0  0
 27 52  1  0  0  0
 27 53  1  0  0  0
M  END
> <s_m_entry_id>
4913

> <s_m_entry_name>
dock_pv.232

> <s_m_Source_Path>
/home/csk/Desktop/cluster/DUD-E-result/hs90a

> <s_m_Source_File>
dock_pv.maegz

> <i_m_Source_File_Index>
232

> <chembl_id>
CHEMBL4580915

> <chembl_pref_name>
None

> <i_lp_mmshare_version>
53161

> <r_lp_tautomer_probability>
0.99990000499975

> <s_lp_Force_Field>
OPLS_2005

> <r_lp_Energy>
41.218211

> <b_lp_Chiralities_Consistent>
1

> <s_lp_Variant>
CHEMBL3880_lig837 -1

> <s_i_glide_gridfile>
glide-grid_1uyg

> <i_i_glide_lignum>
938

> <i_i_glide_rotatable_bonds>
6

> <r_i_docking_score>
-8.06198629042893

> <r_i_glide_ligand_efficiency>
-0.298592084830701

> <r_i_glide_ligand_efficiency_sa>
-0.895776253507993

> <r_i_glide_ligand_efficiency_ln>
-1.8766974961802

> <r_i_glide_gscore>
-8.06198629042893

> <r_i_glide_lipo>
-4.54400029534731

> <r_i_glide_hbond>
-0.00379202438561086

> <r_i_glide_metal>
0

> <r_i_glide_rewards>
-1.9691652493552

> <r_i_glide_evdw>
-36.4724197387695

> <r_i_glide_ecoul>
-0.954466223716736

> <r_i_glide_erotb>
0.421762199155173

> <r_i_glide_esite>
0

> <r_i_glide_emodel>
-37.0311867673054

> <r_i_glide_energy>
-37.4268859624863

> <r_i_glide_einternal>
12.3985347747803

> <i_i_glide_confnum>
8

> <i_i_glide_posenum>
19

> <r_i_glide_eff_state_penalty>
0

> <s_user_duplicate_titles>
CHEMBL3880_lig837 

> <i_f3d_flags>
0

> <s_m_subgroup_title>
dock_pv

> <s_m_subgroupid>
dock_pv

> <b_m_subgroup_collapsed>
1

$$$$
CHEMBL3880_lig31
                    3D
 Schrodinger Suite 2021-1.
 45 46  0  0  1  0            999 V2000
    1.9327   11.4759   23.5819 O   0  0  0  0  0  0
    4.9339   14.0274   24.3451 O   0  0  0  0  0  0
    6.9459   12.5395   23.4570 O   0  0  0  0  0  0
    0.6549    9.9676   25.5225 O   0  0  0  0  0  0
   -1.1390   11.0603   26.4097 O   0  0  0  0  0  0
   11.0338   13.9460   26.3790 O   0  0  0  0  0  0
   -0.4596   11.5682   24.1573 C   0  0  0  0  0  0
    0.6340   11.8234   23.2982 C   0  0  0  0  0  0
    6.1569   14.2246   24.9467 C   0  0  0  0  0  0
    7.2096   13.4202   24.4892 C   0  0  0  0  0  0
    8.6817   14.4009   26.1628 C   0  0  0  0  0  0
   -0.3472   10.8759   25.4815 C   0  0  0  0  0  0
    8.4614   13.5157   25.1070 C   0  0  0  0  0  0
    6.3665   15.1024   26.0200 C   0  0  0  0  0  0
   -1.7387   11.9715   23.7480 C   0  0  0  0  0  0
    0.4134   12.4026   22.0467 C   0  0  0  0  0  0
    7.6156   15.1689   26.6385 C   0  0  0  0  0  0
   -1.9384   12.5662   22.5061 C   0  0  0  0  0  0
   -0.8679   12.7690   21.6464 C   0  0  0  0  0  0
    2.6123   12.2495   24.5670 C   0  0  0  0  0  0
    3.7448   14.5131   24.9498 C   0  0  0  0  0  0
   10.0306   14.5455   26.7690 C   0  0  0  0  0  0
    2.5910   13.7666   24.2701 C   0  0  0  0  0  0
    7.5593   11.2522   23.4802 C   0  0  0  0  0  0
    0.8933    9.1996   26.6940 C   0  0  0  0  0  0
    9.2656   12.8859   24.7674 H   0  0  0  0  0  0
    5.5705   15.7219   26.4012 H   0  0  0  0  0  0
   -2.6044   11.8018   24.3778 H   0  0  0  0  0  0
    1.2485   12.5758   21.3875 H   0  0  0  0  0  0
    7.7387   15.8222   27.4923 H   0  0  0  0  0  0
   -2.9352   12.8509   22.2060 H   0  0  0  0  0  0
   -1.0352   13.2092   20.6765 H   0  0  0  0  0  0
    2.2194   12.0541   25.5667 H   0  0  0  0  0  0
    3.6375   11.8764   24.5759 H   0  0  0  0  0  0
    3.6584   15.5807   24.7774 H   0  0  0  0  0  0
    3.7232   14.3339   26.0272 H   0  0  0  0  0  0
   10.0852   15.2449   27.6029 H   0  0  0  0  0  0
    2.6645   13.9203   23.1930 H   0  0  0  0  0  0
    1.6313   14.1946   24.5647 H   0  0  0  0  0  0
    7.2179   10.6868   22.6128 H   0  0  0  0  0  0
    8.6444   11.2772   23.4308 H   0  0  0  0  0  0
    7.2607   10.6958   24.3670 H   0  0  0  0  0  0
    1.7342    8.5272   26.5262 H   0  0  0  0  0  0
    0.0228    8.5960   26.9554 H   0  0  0  0  0  0
    1.1390    9.8392   27.5430 H   0  0  0  0  0  0
  1  8  1  0  0  0
  1 20  1  0  0  0
  2  9  1  0  0  0
  2 21  1  0  0  0
  3 10  1  0  0  0
  3 24  1  0  0  0
  4 12  1  0  0  0
  4 25  1  0  0  0
  5 12  2  0  0  0
  6 22  2  0  0  0
  7  8  1  0  0  0
  7 12  1  0  0  0
  7 15  2  0  0  0
  8 16  2  0  0  0
  9 10  1  0  0  0
  9 14  2  0  0  0
 10 13  2  0  0  0
 11 13  1  0  0  0
 11 17  2  0  0  0
 11 22  1  0  0  0
 13 26  1  0  0  0
 14 17  1  0  0  0
 14 27  1  0  0  0
 15 18  1  0  0  0
 15 28  1  0  0  0
 16 19  1  0  0  0
 16 29  1  0  0  0
 17 30  1  0  0  0
 18 19  2  0  0  0
 18 31  1  0  0  0
 19 32  1  0  0  0
 20 23  1  0  0  0
 20 33  1  0  0  0
 20 34  1  0  0  0
 21 23  1  0  0  0
 21 35  1  0  0  0
 21 36  1  0  0  0
 22 37  1  0  0  0
 23 38  1  0  0  0
 23 39  1  0  0  0
 24 40  1  0  0  0
 24 41  1  0  0  0
 24 42  1  0  0  0
 25 43  1  0  0  0
 25 44  1  0  0  0
 25 45  1  0  0  0
M  END
> <s_m_entry_id>
4914

> <s_m_entry_name>
dock_pv.233

> <s_m_Source_Path>
/home/csk/Desktop/cluster/DUD-E-result/hs90a

> <s_m_Source_File>
dock_pv.maegz

> <i_m_Source_File_Index>
233

> <chembl_id>
CHEMBL1349639

> <chembl_pref_name>
None

> <i_lp_mmshare_version>
53161

> <r_lp_tautomer_probability>
1

> <s_lp_Force_Field>
OPLS_2005

> <r_lp_Energy>
27.850277

> <b_lp_Chiralities_Consistent>
1

> <s_lp_Variant>
CHEMBL3880_lig31-1

> <s_i_glide_gridfile>
glide-grid_1uyg

> <i_i_glide_lignum>
36

> <i_i_glide_rotatable_bonds>
10

> <r_i_docking_score>
-8.04788859460376

> <r_i_glide_ligand_efficiency>
-0.32191554378415

> <r_i_glide_ligand_efficiency_sa>
-0.941286759221334

> <r_i_glide_ligand_efficiency_ln>
-1.90759077268058

> <r_i_glide_gscore>
-8.04788859460376

> <r_i_glide_lipo>
-3.98221251685524

> <r_i_glide_hbond>
-0.205720802770658

> <r_i_glide_metal>
0

> <r_i_glide_rewards>
-2.11440814965436

> <r_i_glide_evdw>
-45.1625061035156

> <r_i_glide_ecoul>
-4.05466938018799

> <r_i_glide_erotb>
1.12077858688048

> <r_i_glide_esite>
0

> <r_i_glide_emodel>
-65.1616599324618

> <r_i_glide_energy>
-49.2171754837036

> <r_i_glide_einternal>
12.971489906311

> <i_i_glide_confnum>
129

> <i_i_glide_posenum>
190

> <r_i_glide_eff_state_penalty>
0

> <s_user_duplicate_titles>
CHEMBL3880_lig31

> <i_f3d_flags>
0

> <s_m_subgroup_title>
dock_pv

> <s_m_subgroupid>
dock_pv

> <b_m_subgroup_collapsed>
1

$$$$
CHEMBL3880_lig755
                    3D
 Schrodinger Suite 2021-1.
 47 50  0  0  1  0            999 V2000
   -3.3664   10.5342   27.4987 C   0  0  0  0  0  0
   -2.0194   10.1079   27.7166 O   0  0  0  0  0  0
   -1.0555   10.3046   26.7418 C   0  0  0  0  0  0
   -1.2348   11.1706   25.6537 C   0  0  0  0  0  0
   -0.1768   11.3966   24.7636 C   0  0  0  0  0  0
    0.0112   12.2660   23.6425 C   0  0  0  0  0  0
    1.2957   12.0576   23.1853 C   0  0  0  0  0  0
    1.9056   11.0657   23.9218 N   0  0  0  0  0  0
    3.1913   10.5477   23.6731 C   0  0  0  0  0  0
    3.3310    9.1935   23.3734 C   0  0  0  0  0  0
    4.5963    8.6545   23.1739 C   0  0  0  0  0  0
    5.7359    9.4574   23.2907 C   0  0  0  0  0  0
    7.0331    8.7847   23.2111 C   0  0  0  0  0  0
    8.0605    8.2571   23.1639 N   0  0  0  0  0  0
    5.6130   10.8416   23.5667 C   0  0  0  0  0  0
    6.7934   11.6079   23.7192 N   0  0  0  0  0  0
    7.1498   12.8520   24.2669 C   0  0  0  0  0  0
    8.4506   12.9304   24.7673 C   0  0  0  0  0  0
    8.9059   14.0793   25.3969 C   0  0  0  0  0  0
    8.0569   15.1688   25.5000 C   0  0  0  0  0  0
    6.7633   15.1254   24.9889 C   0  0  0  0  0  0
    6.3084   13.9656   24.3689 C   0  0  0  0  0  0
    4.3224   11.3677   23.7516 C   0  0  0  0  0  0
    1.0317   10.6596   24.9262 C   0  0  0  0  0  0
    1.1940    9.7357   25.9661 C   0  0  0  0  0  0
    0.1459    9.5954   26.8930 C   0  0  0  0  0  0
    0.2342    8.7677   27.9993 O   0  0  0  0  0  0
    1.4464    8.0733   28.2712 C   0  0  0  0  0  0
   -4.0294    9.9693   28.1528 H   0  0  0  0  0  0
   -3.5390   11.5688   27.7531 H   0  0  0  0  0  0
   -3.7045   10.3691   26.4756 H   0  0  0  0  0  0
   -2.1596   11.7079   25.5165 H   0  0  0  0  0  0
   -0.6988   12.9696   23.2314 H   0  0  0  0  0  0
    1.8311   12.5148   22.3656 H   0  0  0  0  0  0
    2.4626    8.5527   23.3013 H   0  0  0  0  0  0
    4.6802    7.5961   22.9629 H   0  0  0  0  0  0
    7.6106   11.0234   23.6237 H   0  0  0  0  0  0
    9.1119   12.0769   24.6995 H   0  0  0  0  0  0
    9.9061   14.1248   25.8025 H   0  0  0  0  0  0
    8.4196   16.0654   25.9670 H   0  0  0  0  0  0
    6.1221   15.9920   25.0599 H   0  0  0  0  0  0
    5.3222   13.9867   23.9444 H   0  0  0  0  0  0
    4.1635   12.3958   24.0135 H   0  0  0  0  0  0
    2.1230    9.1974   26.0712 H   0  0  0  0  0  0
    1.3364    7.5119   29.1992 H   0  0  0  0  0  0
    1.6857    7.3616   27.4796 H   0  0  0  0  0  0
    2.2817    8.7639   28.4014 H   0  0  0  0  0  0
  1  2  1  0  0  0
  1 29  1  0  0  0
  1 30  1  0  0  0
  1 31  1  0  0  0
  2  3  1  0  0  0
  3  4  2  0  0  0
  3 26  1  0  0  0
  4  5  1  0  0  0
  4 32  1  0  0  0
  5  6  1  0  0  0
  5 24  2  0  0  0
  6  7  2  0  0  0
  6 33  1  0  0  0
  7  8  1  0  0  0
  7 34  1  0  0  0
  8  9  1  0  0  0
  8 24  1  0  0  0
  9 10  2  0  0  0
  9 23  1  0  0  0
 10 11  1  0  0  0
 10 35  1  0  0  0
 11 12  2  0  0  0
 11 36  1  0  0  0
 12 13  1  0  0  0
 12 15  1  0  0  0
 13 14  3  0  0  0
 15 16  1  0  0  0
 15 23  2  0  0  0
 16 17  1  0  0  0
 16 37  1  0  0  0
 17 18  2  0  0  0
 17 22  1  0  0  0
 18 19  1  0  0  0
 18 38  1  0  0  0
 19 20  2  0  0  0
 19 39  1  0  0  0
 20 21  1  0  0  0
 20 40  1  0  0  0
 21 22  2  0  0  0
 21 41  1  0  0  0
 22 42  1  0  0  0
 23 43  1  0  0  0
 24 25  1  0  0  0
 25 26  2  0  0  0
 25 44  1  0  0  0
 26 27  1  0  0  0
 27 28  1  0  0  0
 28 45  1  0  0  0
 28 46  1  0  0  0
 28 47  1  0  0  0
M  END
> <s_m_entry_id>
4915

> <s_m_entry_name>
dock_pv.234

> <s_m_Source_Path>
/home/csk/Desktop/cluster/DUD-E-result/hs90a

> <s_m_Source_File>
dock_pv.maegz

> <i_m_Source_File_Index>
234

> <chembl_id>
CHEMBL3907316

> <chembl_pref_name>
None

> <i_lp_mmshare_version>
53161

> <r_lp_tautomer_probability>
1

> <s_lp_Force_Field>
OPLS_2005

> <r_lp_Energy>
31.346987

> <b_lp_Chiralities_Consistent>
1

> <s_lp_Variant>
CHEMBL3880_lig755-1

> <s_i_glide_gridfile>
glide-grid_1uyg

> <i_i_glide_lignum>
856

> <i_i_glide_rotatable_bonds>
5

> <r_i_docking_score>
-8.01841640031105

> <r_i_glide_ligand_efficiency>
-0.286372014296823

> <r_i_glide_ligand_efficiency_sa>
-0.869594099501664

> <r_i_glide_ligand_efficiency_ln>
-1.85088593612742

> <r_i_glide_gscore>
-8.01841640031105

> <r_i_glide_lipo>
-4.38500251357665

> <r_i_glide_hbond>
0

> <r_i_glide_metal>
0

> <r_i_glide_rewards>
-1.77342586715096

> <r_i_glide_evdw>
-43.2378158569336

> <r_i_glide_ecoul>
-0.812993586063385

> <r_i_glide_erotb>
0.423851811172754

> <r_i_glide_esite>
0

> <r_i_glide_emodel>
-58.5839765635585

> <r_i_glide_energy>
-44.050809442997

> <r_i_glide_einternal>
8.51049327850342

> <i_i_glide_confnum>
1

> <i_i_glide_posenum>
79

> <r_i_glide_eff_state_penalty>
0

> <s_user_duplicate_titles>
CHEMBL3880_lig755

> <i_f3d_flags>
0

> <s_m_subgroup_title>
dock_pv

> <s_m_subgroupid>
dock_pv

> <b_m_subgroup_collapsed>
1

$$$$
CHEMBL3880_lig940
                    3D
 Schrodinger Suite 2021-1.
 44 47  0  0  1  0            999 V2000
    0.4246    6.8533   26.6364 C   0  0  0  0  0  0
    1.0745    7.8587   27.6251 C   0  0  0  0  0  0
    1.8345    7.1451   28.7647 C   0  0  0  0  0  0
   -0.2904   12.4986   22.8054 C   0  0  0  0  0  0
    4.8602    8.6878   23.4697 C   0  0  0  0  0  0
    3.5711    8.8689   23.9556 C   0  0  0  0  0  0
    3.1104   10.1533   24.2578 C   0  0  0  0  0  0
    3.9240   11.2621   24.0124 C   0  0  0  0  0  0
    5.2133   11.0798   23.5194 C   0  0  0  0  0  0
    5.7000    9.7924   23.2620 C   0  0  0  0  0  0
    7.1123    9.6110   22.7656 C   0  0  0  0  0  0
    7.6611   10.4471   22.0573 O   0  0  0  0  0  0
    7.7496    8.5100   23.1660 N   0  0  0  0  0  0
    1.8155   10.3256   24.7900 N   0  0  0  0  0  0
   -0.3584   10.9484   25.0670 C   0  0  0  0  0  0
    0.8096   11.1321   24.2676 C   0  0  0  0  0  0
    0.8761   11.9018   23.1675 N   0  0  0  0  0  0
   -1.4963   12.3516   23.4855 C   0  0  0  0  0  0
   -1.5423   11.5686   24.6387 C   0  0  0  0  0  0
    1.3354    9.7424   25.9560 C   0  0  0  0  0  0
    0.0206   10.1294   26.1762 C   0  0  0  0  0  0
   -0.7402    9.7313   27.3538 C   0  0  0  0  0  0
   -0.0320    8.7330   28.2859 C   0  0  0  0  0  0
    2.0912    8.7685   26.8641 C   0  0  0  0  0  0
   -1.8798   10.1366   27.5816 O   0  0  0  0  0  0
   -0.2797    6.1941   27.1451 H   0  0  0  0  0  0
   -0.1218    7.3460   25.8310 H   0  0  0  0  0  0
    1.1809    6.2204   26.1685 H   0  0  0  0  0  0
    1.1655    6.5136   29.3509 H   0  0  0  0  0  0
    2.6269    6.5068   28.3727 H   0  0  0  0  0  0
    2.2981    7.8556   29.4507 H   0  0  0  0  0  0
   -0.2470   13.1095   21.9160 H   0  0  0  0  0  0
    5.1910    7.6852   23.2433 H   0  0  0  0  0  0
    2.9349    8.0054   24.0895 H   0  0  0  0  0  0
    3.5687   12.2636   24.2221 H   0  0  0  0  0  0
    5.8370   11.9478   23.3524 H   0  0  0  0  0  0
    8.6948    8.3501   22.8546 H   0  0  0  0  0  0
    7.2825    7.8247   23.7370 H   0  0  0  0  0  0
   -2.3955   12.8389   23.1308 H   0  0  0  0  0  0
   -2.4685   11.4504   25.1854 H   0  0  0  0  0  0
   -0.7891    8.1191   28.7666 H   0  0  0  0  0  0
    0.4177    9.3308   29.0745 H   0  0  0  0  0  0
    2.8341    8.1578   26.3543 H   0  0  0  0  0  0
    2.6408    9.3800   27.5829 H   0  0  0  0  0  0
  1  2  1  0  0  0
  1 26  1  0  0  0
  1 27  1  0  0  0
  1 28  1  0  0  0
  2  3  1  0  0  0
  2 23  1  0  0  0
  2 24  1  0  0  0
  3 29  1  0  0  0
  3 30  1  0  0  0
  3 31  1  0  0  0
  4 17  2  0  0  0
  4 18  1  0  0  0
  4 32  1  0  0  0
  5  6  2  0  0  0
  5 10  1  0  0  0
  5 33  1  0  0  0
  6  7  1  0  0  0
  6 34  1  0  0  0
  7  8  2  0  0  0
  7 14  1  0  0  0
  8  9  1  0  0  0
  8 35  1  0  0  0
  9 10  2  0  0  0
  9 36  1  0  0  0
 10 11  1  0  0  0
 11 12  2  0  0  0
 11 13  1  0  0  0
 13 37  1  0  0  0
 13 38  1  0  0  0
 14 16  1  0  0  0
 14 20  1  0  0  0
 15 21  1  0  0  0
 15 16  2  0  0  0
 15 19  1  0  0  0
 16 17  1  0  0  0
 18 19  2  0  0  0
 18 39  1  0  0  0
 19 40  1  0  0  0
 20 21  2  0  0  0
 20 24  1  0  0  0
 21 22  1  0  0  0
 22 23  1  0  0  0
 22 25  2  0  0  0
 23 41  1  0  0  0
 23 42  1  0  0  0
 24 43  1  0  0  0
 24 44  1  0  0  0
M  END
> <s_m_entry_id>
4916

> <s_m_entry_name>
dock_pv.235

> <s_m_Source_Path>
/home/csk/Desktop/cluster/DUD-E-result/hs90a

> <s_m_Source_File>
dock_pv.maegz

> <i_m_Source_File_Index>
235

> <chembl_id>
CHEMBL3235328

> <chembl_pref_name>
None

> <i_lp_mmshare_version>
53161

> <r_lp_tautomer_probability>
0.99995

> <s_lp_Force_Field>
OPLS_2005

> <r_lp_Energy>
20.805195

> <b_lp_Chiralities_Consistent>
1

> <s_lp_Variant>
CHEMBL3880_lig940-1

> <s_i_glide_gridfile>
glide-grid_1uyg

> <i_i_glide_lignum>
1046

> <i_i_glide_rotatable_bonds>
2

> <r_i_docking_score>
-8.01730907008859

> <r_i_glide_ligand_efficiency>
-0.320692362803544

> <r_i_glide_ligand_efficiency_sa>
-0.937710156340833

> <r_i_glide_ligand_efficiency_ln>
-1.90034250897609

> <r_i_glide_gscore>
-8.01730907008859

> <r_i_glide_lipo>
-2.92198801338051

> <r_i_glide_hbond>
0

> <r_i_glide_metal>
0

> <r_i_glide_rewards>
-2.52864418111097

> <r_i_glide_evdw>
-45.1020698547363

> <r_i_glide_ecoul>
-3.20762252807617

> <r_i_glide_erotb>
0.169569996351132

> <r_i_glide_esite>
0

> <r_i_glide_emodel>
-68.6536679847986

> <r_i_glide_energy>
-48.3096923828125

> <r_i_glide_einternal>
1.93618452548981

> <i_i_glide_confnum>
6

> <i_i_glide_posenum>
63

> <r_i_glide_eff_state_penalty>
0

> <s_user_duplicate_titles>
CHEMBL3880_lig940

> <i_f3d_flags>
0

> <s_m_subgroup_title>
dock_pv

> <s_m_subgroupid>
dock_pv

> <b_m_subgroup_collapsed>
1

$$$$
CHEMBL3880_lig100
                    3D
 Schrodinger Suite 2021-1.
 39 40  0  0  1  0            999 V2000
    3.2062   12.8610   23.9967 O   0  0  0  0  0  0
    5.5295   11.5700   23.1695 O   0  0  0  0  0  0
   -1.0174   12.7691   21.1672 O   0  0  0  0  0  0
   -2.7390   13.1690   22.6092 O   0  0  0  0  0  0
   11.5644   14.1687   26.2465 O   0  5  0  0  0  0
   10.4609   15.9812   26.7671 O   0  0  0  0  0  0
   10.5440   14.8419   26.3223 N   0  3  0  0  0  0
    4.4444   13.3321   24.3670 C   0  0  0  0  0  0
    5.6328   12.7018   23.9595 C   0  0  0  0  0  0
    6.9150   14.3942   25.1687 C   0  0  0  0  0  0
    6.8614   13.2498   24.3658 C   0  0  0  0  0  0
    4.4969   14.4932   25.1395 C   0  0  0  0  0  0
    1.3024   11.4631   24.4983 C   0  0  0  0  0  0
    5.7226   15.0198   25.5409 C   0  0  0  0  0  0
   -0.8134   11.9741   23.4089 C   0  0  0  0  0  0
    2.8196   11.5973   24.5422 C   0  0  0  0  0  0
    0.5835   12.0417   23.4517 C   0  0  0  0  0  0
    0.6112   10.7686   25.4968 C   0  0  0  0  0  0
    8.1894   14.9201   25.6815 C   0  0  0  0  0  0
   -1.4960   11.2733   24.4142 C   0  0  0  0  0  0
   -1.5358   12.6373   22.2740 C   0  0  0  0  0  0
   -0.7810   10.6725   25.4529 C   0  0  0  0  0  0
    9.3292   14.2026   25.8075 C   0  0  0  0  0  0
    6.7101   10.8804   22.7667 C   0  0  0  0  0  0
   -3.0736   12.8682   23.4590 H   0  0  0  0  0  0
    7.7847   12.7770   24.0700 H   0  0  0  0  0  0
    3.5806   14.9799   25.4379 H   0  0  0  0  0  0
    5.7358   15.9072   26.1599 H   0  0  0  0  0  0
    3.2521   10.7887   23.9534 H   0  0  0  0  0  0
    3.1761   11.4810   25.5670 H   0  0  0  0  0  0
    1.1208   12.5725   22.6765 H   0  0  0  0  0  0
    1.1497   10.3073   26.3128 H   0  0  0  0  0  0
    8.1754   15.9652   25.9564 H   0  0  0  0  0  0
   -2.5732   11.1699   24.4017 H   0  0  0  0  0  0
   -1.3095   10.1297   26.2238 H   0  0  0  0  0  0
    9.4630   13.1589   25.5669 H   0  0  0  0  0  0
    6.4341   10.0229   22.1530 H   0  0  0  0  0  0
    7.3648   11.5141   22.1655 H   0  0  0  0  0  0
    7.2673   10.5070   23.6277 H   0  0  0  0  0  0
  1  8  1  0  0  0
  1 16  1  0  0  0
  2  9  1  0  0  0
  2 24  1  0  0  0
  3 21  2  0  0  0
  4 21  1  0  0  0
  4 25  1  0  0  0
  5  7  1  0  0  0
  6  7  2  0  0  0
  7 23  1  0  0  0
  8  9  1  0  0  0
  8 12  2  0  0  0
  9 11  2  0  0  0
 10 11  1  0  0  0
 10 14  2  0  0  0
 10 19  1  0  0  0
 11 26  1  0  0  0
 12 14  1  0  0  0
 12 27  1  0  0  0
 13 16  1  0  0  0
 13 17  1  0  0  0
 13 18  2  0  0  0
 14 28  1  0  0  0
 15 17  2  0  0  0
 15 20  1  0  0  0
 15 21  1  0  0  0
 16 29  1  0  0  0
 16 30  1  0  0  0
 17 31  1  0  0  0
 18 22  1  0  0  0
 18 32  1  0  0  0
 19 23  2  0  0  0
 19 33  1  0  0  0
 20 22  2  0  0  0
 20 34  1  0  0  0
 22 35  1  0  0  0
 23 36  1  0  0  0
 24 37  1  0  0  0
 24 38  1  0  0  0
 24 39  1  0  0  0
M  CHG  2   5  -1   7   1
M  END
> <s_m_entry_id>
4917

> <s_m_entry_name>
dock_pv.236

> <s_m_Source_Path>
/home/csk/Desktop/cluster/DUD-E-result/hs90a

> <s_m_Source_File>
dock_pv.maegz

> <i_m_Source_File_Index>
236

> <chembl_id>
CHEMBL1562712

> <chembl_pref_name>
None

> <i_lp_mmshare_version>
53161

> <r_lp_tautomer_probability>
1

> <s_lp_Force_Field>
OPLS_2005

> <r_lp_Energy>
26.262157

> <b_lp_Chiralities_Consistent>
1

> <s_lp_Variant>
CHEMBL3880_lig100-1

> <s_i_glide_gridfile>
glide-grid_1uyg

> <i_i_glide_lignum>
114

> <i_i_glide_rotatable_bonds>
8

> <r_i_docking_score>
-8.01665393593037

> <r_i_glide_ligand_efficiency>
-0.334027247330432

> <r_i_glide_ligand_efficiency_sa>
-0.963501306845878

> <r_i_glide_ligand_efficiency_ln>
-1.91875314714716

> <r_i_glide_gscore>
-8.01665393593037

> <r_i_glide_lipo>
-4.02391964154929

> <r_i_glide_hbond>
0

> <r_i_glide_metal>
0

> <r_i_glide_rewards>
-2.14616258675194

> <r_i_glide_evdw>
-46.8375511169434

> <r_i_glide_ecoul>
-3.63004636764526

> <r_i_glide_erotb>
1.03981280336481

> <r_i_glide_esite>
0

> <r_i_glide_emodel>
-69.5962098367972

> <r_i_glide_energy>
-50.4675974845886

> <r_i_glide_einternal>
12.1184177398682

> <i_i_glide_confnum>
97

> <i_i_glide_posenum>
52

> <r_i_glide_eff_state_penalty>
0

> <s_user_duplicate_titles>
CHEMBL3880_lig100

> <i_f3d_flags>
0

> <s_m_subgroup_title>
dock_pv

> <s_m_subgroupid>
dock_pv

> <b_m_subgroup_collapsed>
1

$$$$
CHEMBL3880_lig326
                    3D
 Schrodinger Suite 2021-1.
 53 57  0  0  1  0            999 V2000
    2.9269    6.9457   23.1340 C   0  0  0  0  0  0
    3.6618    7.1645   21.9705 C   0  0  0  0  0  0
    4.6159    8.1802   21.9078 C   0  0  0  0  0  0
    4.8859    8.9756   23.0350 C   0  0  0  0  0  0
    4.1891    8.7010   24.2207 C   0  0  0  0  0  0
    3.2102    7.7035   24.2763 C   0  0  0  0  0  0
    1.9592    5.9736   23.1430 O   0  0  0  0  0  0
    5.2595    8.3715   20.7125 O   0  0  0  0  0  0
    5.9720   10.0365   23.0149 C   0  0  0  0  0  0
    7.0751    9.7515   22.5422 O   0  0  0  0  0  0
    2.5570    7.4694   25.5038 N   0  0  0  0  0  0
    0.9535    7.4528   27.0944 C   0  0  0  0  0  0
    1.2178    7.6727   25.7576 C   0  0  0  0  0  0
    2.1888    7.0689   27.7207 C   0  0  0  0  0  0
    3.1663    7.0408   26.6779 C   0  0  0  0  0  0
    4.4835    6.6350   26.9150 C   0  0  0  0  0  0
    4.8304    6.3216   28.2264 C   0  0  0  0  0  0
    3.9113    6.3942   29.2632 C   0  0  0  0  0  0
    2.5708    6.7517   29.0464 C   0  0  0  0  0  0
    5.7115   11.2666   23.5318 N   0  0  0  0  0  0
    4.3822   11.8058   23.8396 C   0  0  0  0  0  0
    6.7623   12.2797   23.6762 C   0  0  0  0  0  0
    6.0442   13.4476   24.3107 C   0  0  0  0  0  0
    4.6779   13.1863   24.3670 C   0  0  0  0  0  0
    3.8068   14.1273   24.9132 C   0  0  0  0  0  0
    4.3177   15.3129   25.4412 C   0  0  0  0  0  0
    5.6866   15.5667   25.3957 C   0  0  0  0  0  0
    6.5556   14.6419   24.8181 C   0  0  0  0  0  0
    1.6064    6.7496   30.2000 C   0  0  0  0  0  0
    2.0619    7.1689   31.3903 N   0  0  0  0  0  0
    0.4574    6.3640   30.0286 O   0  0  0  0  0  0
    1.2316    7.2787   32.5815 C   0  0  0  0  0  0
    3.4582    6.5729   21.0907 H   0  0  0  0  0  0
    4.4230    9.2522   25.1220 H   0  0  0  0  0  0
    1.8078    5.5677   22.2834 H   0  0  0  0  0  0
    6.0231    7.7756   20.6622 H   0  0  0  0  0  0
   -0.0098    7.5671   27.5713 H   0  0  0  0  0  0
    0.5667    7.9904   24.9516 H   0  0  0  0  0  0
    5.2187    6.5963   26.1234 H   0  0  0  0  0  0
    5.8481    6.0286   28.4476 H   0  0  0  0  0  0
    4.2583    6.1516   30.2594 H   0  0  0  0  0  0
    3.7469   11.8141   22.9524 H   0  0  0  0  0  0
    3.8660   11.2171   24.5931 H   0  0  0  0  0  0
    7.5694   11.9003   24.3040 H   0  0  0  0  0  0
    7.2057   12.5250   22.7107 H   0  0  0  0  0  0
    2.7470   13.9320   24.9590 H   0  0  0  0  0  0
    3.6609   16.0406   25.8913 H   0  0  0  0  0  0
    6.0618   16.4864   25.8125 H   0  0  0  0  0  0
    7.6147   14.8510   24.7876 H   0  0  0  0  0  0
    2.9927    7.5710   31.4568 H   0  0  0  0  0  0
    1.8416    7.5693   33.4365 H   0  0  0  0  0  0
    0.7403    6.3320   32.8136 H   0  0  0  0  0  0
    0.4631    8.0374   32.4299 H   0  0  0  0  0  0
  1  2  2  0  0  0
  1  6  1  0  0  0
  1  7  1  0  0  0
  2  3  1  0  0  0
  2 33  1  0  0  0
  3  4  2  0  0  0
  3  8  1  0  0  0
  4  5  1  0  0  0
  4  9  1  0  0  0
  5  6  2  0  0  0
  5 34  1  0  0  0
  6 11  1  0  0  0
  7 35  1  0  0  0
  8 36  1  0  0  0
  9 10  2  0  0  0
  9 20  1  0  0  0
 11 15  1  0  0  0
 11 13  1  0  0  0
 12 14  1  0  0  0
 12 13  2  0  0  0
 12 37  1  0  0  0
 13 38  1  0  0  0
 14 15  2  0  0  0
 14 19  1  0  0  0
 15 16  1  0  0  0
 16 17  2  0  0  0
 16 39  1  0  0  0
 17 18  1  0  0  0
 17 40  1  0  0  0
 18 19  2  0  0  0
 18 41  1  0  0  0
 19 29  1  0  0  0
 20 21  1  0  0  0
 20 22  1  0  0  0
 21 24  1  0  0  0
 21 42  1  0  0  0
 21 43  1  0  0  0
 22 23  1  0  0  0
 22 44  1  0  0  0
 22 45  1  0  0  0
 23 24  2  0  0  0
 23 28  1  0  0  0
 24 25  1  0  0  0
 25 26  2  0  0  0
 25 46  1  0  0  0
 26 27  1  0  0  0
 26 47  1  0  0  0
 27 28  2  0  0  0
 27 48  1  0  0  0
 28 49  1  0  0  0
 29 30  1  0  0  0
 29 31  2  0  0  0
 30 32  1  0  0  0
 30 50  1  0  0  0
 32 51  1  0  0  0
 32 52  1  0  0  0
 32 53  1  0  0  0
M  END
> <s_m_entry_id>
4918

> <s_m_entry_name>
dock_pv.237

> <s_m_Source_Path>
/home/csk/Desktop/cluster/DUD-E-result/hs90a

> <s_m_Source_File>
dock_pv.maegz

> <i_m_Source_File_Index>
237

> <chembl_id>
CHEMBL3260489

> <chembl_pref_name>
None

> <i_lp_mmshare_version>
53161

> <r_lp_tautomer_probability>
1

> <s_lp_Force_Field>
OPLS_2005

> <r_lp_Energy>
43.419381

> <b_lp_Chiralities_Consistent>
1

> <s_lp_Variant>
CHEMBL3880_lig326-1

> <s_i_glide_gridfile>
glide-grid_1uyg

> <i_i_glide_lignum>
363

> <i_i_glide_rotatable_bonds>
7

> <r_i_docking_score>
-8.0141078185916

> <r_i_glide_ligand_efficiency>
-0.250440869330987

> <r_i_glide_ligand_efficiency_sa>
-0.795100197945144

> <r_i_glide_ligand_efficiency_ln>
-1.7945771969111

> <r_i_glide_gscore>
-8.0141078185916

> <r_i_glide_lipo>
-2.9496882727871

> <r_i_glide_hbond>
-0.111365781833575

> <r_i_glide_metal>
0

> <r_i_glide_rewards>
-1.88977527441693

> <r_i_glide_evdw>
-39.414421081543

> <r_i_glide_ecoul>
-9.1362361907959

> <r_i_glide_erotb>
0.434666218793792

> <r_i_glide_esite>
-0.156788225651254

> <r_i_glide_emodel>
-67.2374291059389

> <r_i_glide_energy>
-48.5506572723389

> <r_i_glide_einternal>
9.62912178039551

> <i_i_glide_confnum>
1

> <i_i_glide_posenum>
314

> <r_i_glide_eff_state_penalty>
0

> <s_user_duplicate_titles>
CHEMBL3880_lig326

> <i_f3d_flags>
0

> <s_m_subgroup_title>
dock_pv

> <s_m_subgroupid>
dock_pv

> <b_m_subgroup_collapsed>
1

$$$$
CHEMBL3880_lig81
                    3D
 Schrodinger Suite 2021-1.
 39 41  0  0  1  0            999 V2000
    1.9124   11.1693   22.7678 O   0  0  0  0  0  0
    4.8972   13.6087   24.3669 N   0  0  0  0  0  0
    3.0231   11.0321   24.7302 N   0  0  0  0  0  0
    6.1220   13.9690   24.9084 C   0  0  0  0  0  0
    5.8391   14.8946   25.9438 C   0  0  0  0  0  0
    3.9072   14.4632   24.8248 C   0  0  0  0  0  0
    4.4609   15.2459   25.8207 C   0  0  0  0  0  0
    7.4242   13.4978   24.6657 C   0  0  0  0  0  0
    4.6933   12.4829   23.4639 C   0  0  0  0  0  0
    6.8692   15.2502   26.8194 C   0  0  0  0  0  0
    8.4300   13.9250   25.5331 C   0  0  0  0  0  0
    8.1582   14.7687   26.6031 C   0  0  0  0  0  0
    4.3758   11.1436   24.1628 C   0  0  0  0  0  0
    2.4903   14.4369   24.2755 C   0  0  0  0  0  0
    1.8913   11.0330   23.9926 C   0  0  0  0  0  0
    0.5712   10.9243   24.7263 C   0  0  0  0  0  0
    0.4845   10.3689   26.0125 C   0  0  0  0  0  0
   -0.6042   11.3716   24.1020 C   0  0  0  0  0  0
   -0.7392   10.3080   26.6754 C   0  0  0  0  0  0
   -1.8310   11.2813   24.7524 C   0  0  0  0  0  0
   -1.8909   10.7690   26.0431 C   0  0  0  0  0  0
    2.9451   11.0170   25.7365 H   0  0  0  0  0  0
    3.9220   15.9700   26.4122 H   0  0  0  0  0  0
    7.6440   12.7915   23.8787 H   0  0  0  0  0  0
    5.5984   12.3691   22.8675 H   0  0  0  0  0  0
    3.9242   12.7150   22.7480 H   0  0  0  0  0  0
    6.6772   15.9284   27.6373 H   0  0  0  0  0  0
    9.4368   13.5579   25.3990 H   0  0  0  0  0  0
    8.9551   15.0548   27.2759 H   0  0  0  0  0  0
    5.1990   10.7685   24.7672 H   0  0  0  0  0  0
    4.3847   10.4003   23.3610 H   0  0  0  0  0  0
    1.9922   15.3972   24.3665 H   0  0  0  0  0  0
    2.4459   14.2105   23.2129 H   0  0  0  0  0  0
    1.8633   13.7000   24.7669 H   0  0  0  0  0  0
    1.3612    9.9926   26.5199 H   0  0  0  0  0  0
   -0.5787   11.7879   23.1043 H   0  0  0  0  0  0
   -0.7962    9.8951   27.6723 H   0  0  0  0  0  0
   -2.7386   11.6145   24.2653 H   0  0  0  0  0  0
   -2.8468   10.7165   26.5456 H   0  0  0  0  0  0
  1 15  2  0  0  0
  2  4  1  0  0  0
  2  6  1  0  0  0
  2  9  1  0  0  0
  3 13  1  0  0  0
  3 15  1  0  0  0
  3 22  1  0  0  0
  4  5  1  0  0  0
  4  8  2  0  0  0
  5  7  1  0  0  0
  5 10  2  0  0  0
  6  7  2  0  0  0
  6 14  1  0  0  0
  7 23  1  0  0  0
  8 11  1  0  0  0
  8 24  1  0  0  0
  9 13  1  0  0  0
  9 25  1  0  0  0
  9 26  1  0  0  0
 10 12  1  0  0  0
 10 27  1  0  0  0
 11 12  2  0  0  0
 11 28  1  0  0  0
 12 29  1  0  0  0
 13 30  1  0  0  0
 13 31  1  0  0  0
 14 32  1  0  0  0
 14 33  1  0  0  0
 14 34  1  0  0  0
 15 16  1  0  0  0
 16 17  2  0  0  0
 16 18  1  0  0  0
 17 19  1  0  0  0
 17 35  1  0  0  0
 18 20  2  0  0  0
 18 36  1  0  0  0
 19 21  2  0  0  0
 19 37  1  0  0  0
 20 21  1  0  0  0
 20 38  1  0  0  0
 21 39  1  0  0  0
M  END
> <s_m_entry_id>
4919

> <s_m_entry_name>
dock_pv.238

> <s_m_Source_Path>
/home/csk/Desktop/cluster/DUD-E-result/hs90a

> <s_m_Source_File>
dock_pv.maegz

> <i_m_Source_File_Index>
238

> <chembl_id>
CHEMBL1530789

> <chembl_pref_name>
None

> <i_lp_mmshare_version>
53161

> <r_lp_tautomer_probability>
1

> <s_lp_Force_Field>
OPLS_2005

> <r_lp_Energy>
14.04353

> <b_lp_Chiralities_Consistent>
1

> <s_lp_Variant>
CHEMBL3880_lig81-1

> <s_i_glide_gridfile>
glide-grid_1uyg

> <i_i_glide_lignum>
91

> <i_i_glide_rotatable_bonds>
5

> <r_i_docking_score>
-8.00370359592339

> <r_i_glide_ligand_efficiency>
-0.381128742663018

> <r_i_glide_ligand_efficiency_sa>
-1.05150530137963

> <r_i_glide_ligand_efficiency_ln>
-1.97889954108612

> <r_i_glide_gscore>
-8.00370359592339

> <r_i_glide_lipo>
-4.10895955595752

> <r_i_glide_hbond>
0

> <r_i_glide_metal>
0

> <r_i_glide_rewards>
-2.74806250272739

> <r_i_glide_evdw>
-34.461742401123

> <r_i_glide_ecoul>
-2.36104774475098

> <r_i_glide_erotb>
0.930562744530322

> <r_i_glide_esite>
0

> <r_i_glide_emodel>
-53.5068992054463

> <r_i_glide_energy>
-36.822790145874

> <r_i_glide_einternal>
1.69973003864288

> <i_i_glide_confnum>
4

> <i_i_glide_posenum>
300

> <r_i_glide_eff_state_penalty>
0

> <s_user_duplicate_titles>
CHEMBL3880_lig81

> <i_f3d_flags>
0

> <s_m_subgroup_title>
dock_pv

> <s_m_subgroupid>
dock_pv

> <b_m_subgroup_collapsed>
1

$$$$
CHEMBL3880_lig123
                    3D
 Schrodinger Suite 2021-1.
 36 39  0  0  1  0            999 V2000
    7.2383   11.7234   23.3960 C   0  0  0  0  0  0
    7.6705   10.7636   22.4392 O   0  0  0  0  0  0
    7.2817    9.4318   22.7575 C   0  0  0  0  0  0
    5.7691    9.3242   22.9173 C   0  0  0  0  0  0
    5.0817    8.1346   22.6806 C   0  0  0  0  0  0
    3.7034    8.0490   22.8357 C   0  0  0  0  0  0
    2.9623    9.1554   23.2360 C   0  0  0  0  0  0
    5.7235   11.6815   23.5668 C   0  0  0  0  0  0
    5.0132   10.4682   23.3301 C   0  0  0  0  0  0
    3.5950   10.4055   23.4846 C   0  0  0  0  0  0
    2.8796   11.5894   23.8590 C   0  0  0  0  0  0
    3.6071   12.7690   24.0785 C   0  0  0  0  0  0
    4.9912   12.7953   23.9669 C   0  0  0  0  0  0
    1.4009   11.5747   24.0253 C   0  0  0  0  0  0
    0.9251   10.9902   25.1556 N   0  0  0  0  0  0
   -0.4257   11.0299   25.2887 C   0  0  0  0  0  0
   -1.2833   11.5702   24.3901 N   0  0  0  0  0  0
   -0.6934   12.0945   23.2919 C   0  0  0  0  0  0
    0.6410   12.1412   23.0470 N   0  0  0  0  0  0
   -1.1388   10.3689   26.7627 S   0  0  0  0  0  0
   -1.5429   12.6031   22.3288 N   0  0  0  0  0  0
    0.1344    9.3560   27.5652 C   0  0  0  0  0  0
    2.8274   14.2560   24.4994 Cl  0  0  0  0  0  0
    7.5633   12.7093   23.0629 H   0  0  0  0  0  0
    7.7196   11.5429   24.3591 H   0  0  0  0  0  0
    7.6353    8.7688   21.9667 H   0  0  0  0  0  0
    7.7740    9.1153   23.6785 H   0  0  0  0  0  0
    5.6278    7.2560   22.3671 H   0  0  0  0  0  0
    3.1998    7.1148   22.6309 H   0  0  0  0  0  0
    1.8906    9.0591   23.3405 H   0  0  0  0  0  0
    5.5095   13.7270   24.1461 H   0  0  0  0  0  0
   -1.1700   12.9535   21.4631 H   0  0  0  0  0  0
   -2.5363   12.5059   22.4882 H   0  0  0  0  0  0
   -0.1729    9.0991   28.5785 H   0  0  0  0  0  0
    1.0835    9.8883   27.6127 H   0  0  0  0  0  0
    0.2883    8.4337   27.0059 H   0  0  0  0  0  0
  1  8  1  0  0  0
  1  2  1  0  0  0
  1 24  1  0  0  0
  1 25  1  0  0  0
  2  3  1  0  0  0
  3  4  1  0  0  0
  3 26  1  0  0  0
  3 27  1  0  0  0
  4  5  1  0  0  0
  4  9  2  0  0  0
  5  6  2  0  0  0
  5 28  1  0  0  0
  6  7  1  0  0  0
  6 29  1  0  0  0
  7 10  2  0  0  0
  7 30  1  0  0  0
  8 13  2  0  0  0
  8  9  1  0  0  0
  9 10  1  0  0  0
 10 11  1  0  0  0
 11 12  2  0  0  0
 11 14  1  0  0  0
 12 13  1  0  0  0
 12 23  1  0  0  0
 13 31  1  0  0  0
 14 15  2  0  0  0
 14 19  1  0  0  0
 15 16  1  0  0  0
 16 17  2  0  0  0
 16 20  1  0  0  0
 17 18  1  0  0  0
 18 19  2  0  0  0
 18 21  1  0  0  0
 20 22  1  0  0  0
 21 32  1  0  0  0
 21 33  1  0  0  0
 22 34  1  0  0  0
 22 35  1  0  0  0
 22 36  1  0  0  0
M  END
> <s_m_entry_id>
4920

> <s_m_entry_name>
dock_pv.239

> <s_m_Source_Path>
/home/csk/Desktop/cluster/DUD-E-result/hs90a

> <s_m_Source_File>
dock_pv.maegz

> <i_m_Source_File_Index>
239

> <chembl_id>
CHEMBL1834096

> <chembl_pref_name>
None

> <i_lp_mmshare_version>
53161

> <r_lp_tautomer_probability>
1

> <s_lp_Force_Field>
OPLS_2005

> <r_lp_Energy>
32.318031

> <b_lp_Chiralities_Consistent>
1

> <s_lp_Variant>
CHEMBL3880_lig123-1

> <s_i_glide_gridfile>
glide-grid_1uyg

> <i_i_glide_lignum>
137

> <i_i_glide_rotatable_bonds>
2

> <r_i_docking_score>
-8.00172110477519

> <r_i_glide_ligand_efficiency>
-0.347900917598921

> <r_i_glide_ligand_efficiency_sa>
-0.989383930785563

> <r_i_glide_ligand_efficiency_ln>
-1.93488871873017

> <r_i_glide_gscore>
-8.00172110477519

> <r_i_glide_lipo>
-2.95896879003629

> <r_i_glide_hbond>
0

> <r_i_glide_metal>
0

> <r_i_glide_rewards>
-2.54824509816302

> <r_i_glide_evdw>
-43.3323860168457

> <r_i_glide_ecoul>
-3.25079679489136

> <r_i_glide_erotb>
0.159731603500114

> <r_i_glide_esite>
0

> <r_i_glide_emodel>
-67.9439757021647

> <r_i_glide_energy>
-46.5831828117371

> <r_i_glide_einternal>
1.04041373729706

> <i_i_glide_confnum>
7

> <i_i_glide_posenum>
117

> <r_i_glide_eff_state_penalty>
0

> <s_user_duplicate_titles>
CHEMBL3880_lig123

> <i_f3d_flags>
0

> <s_m_subgroup_title>
dock_pv

> <s_m_subgroupid>
dock_pv

> <b_m_subgroup_collapsed>
1

$$$$
CHEMBL3880_lig427
                    3D
 Schrodinger Suite 2021-1.
 54 57  0  0  1  0            999 V2000
   -0.7128   12.2034   22.7840 C   0  0  0  0  0  0
    0.6166   11.9689   22.9060 N   0  0  0  0  0  0
    0.9197   11.2021   23.9704 C   0  0  0  0  0  0
   -0.0133   10.7374   24.9469 C   0  0  0  0  0  0
   -1.3435   11.1544   24.7446 C   0  0  0  0  0  0
   -1.6929   11.8623   23.6437 N   0  0  0  0  0  0
    2.1618   10.6961   24.3178 N   0  0  0  0  0  0
    0.7008    9.9353   25.9087 C   0  0  0  0  0  0
    2.0174    9.9676   25.4791 C   0  0  0  0  0  0
   -1.1344   12.7691   21.5953 N   0  0  0  0  0  0
    3.4423   10.9587   23.6559 C   0  0  0  0  0  0
    4.1115   12.2860   24.0357 C   0  0  0  0  0  0
    5.5041   12.4860   23.9582 C   0  0  0  0  0  0
    6.0309   13.7275   24.3670 C   0  0  0  0  0  0
    5.1485   14.7276   24.8150 C   0  0  0  0  0  0
    3.7878   14.4405   24.8491 C   0  0  0  0  0  0
    3.2706   13.2573   24.4690 N   0  0  0  0  0  0
    5.6104   16.1256   25.1689 C   0  0  0  0  0  0
    6.4301   11.3955   23.4289 C   0  0  0  0  0  0
    7.3860   13.9589   24.2589 O   0  0  0  0  0  0
    8.0977   14.0587   25.4874 C   0  0  0  0  0  0
   -2.5781   10.7689   25.8860 Cl  0  0  0  0  0  0
    0.0996    9.2205   27.1106 C   0  0  0  0  0  0
    0.9315    8.1234   27.7742 C   0  0  0  0  0  0
    0.9758    8.0392   29.1681 C   0  0  0  0  0  0
    1.6771    7.0138   29.8046 C   0  0  0  0  0  0
    2.3462    6.0583   29.0357 C   0  0  0  0  0  0
    2.3001    6.1240   27.6419 C   0  0  0  0  0  0
    1.5854    7.1451   27.0149 C   0  0  0  0  0  0
    1.6852    6.9322   31.3203 C   0  0  0  0  0  0
    2.8905    9.5155   25.9311 H   0  0  0  0  0  0
   -2.1309   12.8455   21.4318 H   0  0  0  0  0  0
   -0.4511   13.0898   20.9284 H   0  0  0  0  0  0
    4.1065   10.1234   23.8843 H   0  0  0  0  0  0
    3.2703   10.9388   22.5789 H   0  0  0  0  0  0
    3.0646   15.1698   25.1653 H   0  0  0  0  0  0
    6.5104   16.3690   24.6088 H   0  0  0  0  0  0
    4.8618   16.8655   24.8856 H   0  0  0  0  0  0
    5.8078   16.2209   26.2371 H   0  0  0  0  0  0
    7.3888   11.7905   23.0872 H   0  0  0  0  0  0
    6.6154   10.6445   24.1982 H   0  0  0  0  0  0
    5.9875   10.8984   22.5642 H   0  0  0  0  0  0
    9.1623   14.1507   25.2759 H   0  0  0  0  0  0
    7.8083   14.9267   26.0771 H   0  0  0  0  0  0
    7.9656   13.1689   26.1000 H   0  0  0  0  0  0
   -0.7927    8.7064   26.7689 H   0  0  0  0  0  0
   -0.2435    9.9459   27.8494 H   0  0  0  0  0  0
    0.4607    8.7748   29.7683 H   0  0  0  0  0  0
    2.9041    5.2678   29.5138 H   0  0  0  0  0  0
    2.8112    5.3811   27.0479 H   0  0  0  0  0  0
    1.5380    7.1732   25.9354 H   0  0  0  0  0  0
    2.4613    7.5702   31.7384 H   0  0  0  0  0  0
    0.7261    7.2563   31.7283 H   0  0  0  0  0  0
    1.8462    5.9138   31.6696 H   0  0  0  0  0  0
  1  2  1  0  0  0
  1  6  2  0  0  0
  1 10  1  0  0  0
  2  3  2  0  0  0
  3  4  1  0  0  0
  3  7  1  0  0  0
  4  5  2  0  0  0
  4  8  1  0  0  0
  5  6  1  0  0  0
  5 22  1  0  0  0
  7  9  1  0  0  0
  7 11  1  0  0  0
  8  9  2  0  0  0
  8 23  1  0  0  0
  9 31  1  0  0  0
 10 32  1  0  0  0
 10 33  1  0  0  0
 11 12  1  0  0  0
 11 34  1  0  0  0
 11 35  1  0  0  0
 12 13  1  0  0  0
 12 17  2  0  0  0
 13 14  2  0  0  0
 13 19  1  0  0  0
 14 15  1  0  0  0
 14 20  1  0  0  0
 15 16  2  0  0  0
 15 18  1  0  0  0
 16 17  1  0  0  0
 16 36  1  0  0  0
 18 37  1  0  0  0
 18 38  1  0  0  0
 18 39  1  0  0  0
 19 40  1  0  0  0
 19 41  1  0  0  0
 19 42  1  0  0  0
 20 21  1  0  0  0
 21 43  1  0  0  0
 21 44  1  0  0  0
 21 45  1  0  0  0
 23 24  1  0  0  0
 23 46  1  0  0  0
 23 47  1  0  0  0
 24 25  1  0  0  0
 24 29  2  0  0  0
 25 26  2  0  0  0
 25 48  1  0  0  0
 26 27  1  0  0  0
 26 30  1  0  0  0
 27 28  2  0  0  0
 27 49  1  0  0  0
 28 29  1  0  0  0
 28 50  1  0  0  0
 29 51  1  0  0  0
 30 52  1  0  0  0
 30 53  1  0  0  0
 30 54  1  0  0  0
M  END
> <s_m_entry_id>
4921

> <s_m_entry_name>
dock_pv.240

> <s_m_Source_Path>
/home/csk/Desktop/cluster/DUD-E-result/hs90a

> <s_m_Source_File>
dock_pv.maegz

> <i_m_Source_File_Index>
240

> <chembl_id>
CHEMBL3910684

> <chembl_pref_name>
None

> <i_lp_mmshare_version>
53161

> <r_lp_tautomer_probability>
1

> <s_lp_Force_Field>
OPLS_2005

> <r_lp_Energy>
14.464989

> <b_lp_Chiralities_Consistent>
1

> <s_lp_Variant>
CHEMBL3880_lig427-1

> <s_i_glide_gridfile>
glide-grid_1uyg

> <i_i_glide_lignum>
469

> <i_i_glide_rotatable_bonds>
5

> <r_i_docking_score>
-7.98479690117341

> <r_i_glide_ligand_efficiency>
-0.26615989670578

> <r_i_glide_ligand_efficiency_sa>
-0.827020681887901

> <r_i_glide_ligand_efficiency_ln>
-1.8142328572771

> <r_i_glide_gscore>
-7.98479690117341

> <r_i_glide_lipo>
-3.98046770525832

> <r_i_glide_hbond>
0

> <r_i_glide_metal>
0

> <r_i_glide_rewards>
-1.89580604050652

> <r_i_glide_evdw>
-50.6603202819824

> <r_i_glide_ecoul>
-0.13690422475338

> <r_i_glide_erotb>
0.445028492403562

> <r_i_glide_esite>
0

> <r_i_glide_emodel>
-69.6862144075797

> <r_i_glide_energy>
-50.7972245067358

> <r_i_glide_einternal>
5.67456340789795

> <i_i_glide_confnum>
13

> <i_i_glide_posenum>
48

> <r_i_glide_eff_state_penalty>
0

> <s_user_duplicate_titles>
CHEMBL3880_lig427

> <i_f3d_flags>
0

> <s_m_subgroup_title>
dock_pv

> <s_m_subgroupid>
dock_pv

> <b_m_subgroup_collapsed>
1

$$$$
CHEMBL3880_lig156
                    3D
 Schrodinger Suite 2021-1.
 38 40  0  0  1  0            999 V2000
   -0.6830   10.9810   24.5946 C   0  0  0  0  0  0
   -1.9353   11.0384   24.1883 N   0  0  0  0  0  0
    0.1622   11.7068   23.7146 C   0  0  0  0  0  0
   -0.3397   10.2040   25.8393 C   0  0  0  0  0  0
   -1.9213   11.7483   23.0646 N   0  0  0  0  0  0
   -0.6742   12.1708   22.7053 C   0  0  0  0  0  0
   -1.1999   10.1374   26.9509 C   0  0  0  0  0  0
    0.8568    9.4761   25.8953 C   0  0  0  0  0  0
   -0.8616    9.3807   28.0672 C   0  0  0  0  0  0
    1.2057    8.7276   27.0199 C   0  0  0  0  0  0
    0.3400    8.6844   28.1152 C   0  0  0  0  0  0
    1.6262   11.9608   23.7937 C   0  0  0  0  0  0
    2.0680   13.1932   24.2710 C   0  0  0  0  0  0
    2.5542   11.0069   23.3759 C   0  0  0  0  0  0
    2.7086    7.8707   27.0274 Cl  0  0  0  0  0  0
   -2.4144   10.7690   26.9733 O   0  0  0  0  0  0
    0.6505    7.9883   29.2535 O   0  0  0  0  0  0
    4.3677   12.4974   23.9668 C   0  0  0  0  0  0
    3.9167   11.2688   23.4851 C   0  0  0  0  0  0
    3.4306   13.4619   24.3669 C   0  0  0  0  0  0
    5.7357   12.6894   23.9670 O   0  0  0  0  0  0
   -0.4226   12.9361   21.4301 C   0  0  0  0  0  0
    6.2647   13.8951   24.5084 C   0  0  0  0  0  0
   -2.7675   11.9309   22.5407 H   0  0  0  0  0  0
    1.5267    9.4584   25.0560 H   0  0  0  0  0  0
   -1.5406    9.3416   28.9056 H   0  0  0  0  0  0
    1.3518   13.9458   24.5654 H   0  0  0  0  0  0
    2.2231   10.0600   22.9742 H   0  0  0  0  0  0
   -2.6975   11.0644   26.1010 H   0  0  0  0  0  0
    0.0881    8.2475   29.9899 H   0  0  0  0  0  0
    4.6319   10.5252   23.1661 H   0  0  0  0  0  0
    3.7396   14.4287   24.7324 H   0  0  0  0  0  0
    0.4611   13.5687   21.5161 H   0  0  0  0  0  0
   -0.2516   12.2813   20.5804 H   0  0  0  0  0  0
   -1.2689   13.5689   21.1641 H   0  0  0  0  0  0
    7.3519   13.8779   24.4318 H   0  0  0  0  0  0
    6.0083   14.0016   25.5636 H   0  0  0  0  0  0
    5.9091   14.7715   23.9673 H   0  0  0  0  0  0
  1  4  1  0  0  0
  1  2  2  0  0  0
  1  3  1  0  0  0
  2  5  1  0  0  0
  3  6  2  0  0  0
  3 12  1  0  0  0
  4  7  2  0  0  0
  4  8  1  0  0  0
  5 24  1  0  0  0
  5  6  1  0  0  0
  6 22  1  0  0  0
  7  9  1  0  0  0
  7 16  1  0  0  0
  8 10  2  0  0  0
  8 25  1  0  0  0
  9 11  2  0  0  0
  9 26  1  0  0  0
 10 11  1  0  0  0
 10 15  1  0  0  0
 11 17  1  0  0  0
 12 13  2  0  0  0
 12 14  1  0  0  0
 13 20  1  0  0  0
 13 27  1  0  0  0
 14 19  2  0  0  0
 14 28  1  0  0  0
 16 29  1  0  0  0
 17 30  1  0  0  0
 18 19  1  0  0  0
 18 21  1  0  0  0
 18 20  2  0  0  0
 19 31  1  0  0  0
 20 32  1  0  0  0
 21 23  1  0  0  0
 22 33  1  0  0  0
 22 34  1  0  0  0
 22 35  1  0  0  0
 23 36  1  0  0  0
 23 37  1  0  0  0
 23 38  1  0  0  0
M  END
> <s_m_entry_id>
4922

> <s_m_entry_name>
dock_pv.241

> <s_m_Source_Path>
/home/csk/Desktop/cluster/DUD-E-result/hs90a

> <s_m_Source_File>
dock_pv.maegz

> <i_m_Source_File_Index>
241

> <chembl_id>
CHEMBL371380

> <chembl_pref_name>
None

> <i_lp_mmshare_version>
53161

> <r_lp_tautomer_probability>
0.4999999999745

> <s_lp_Force_Field>
OPLS_2005

> <r_lp_Energy>
21.610373

> <b_lp_Chiralities_Consistent>
1

> <s_lp_Variant>
CHEMBL3880_lig156-2

> <s_i_glide_gridfile>
glide-grid_1uyg

> <i_i_glide_lignum>
182

> <i_i_glide_rotatable_bonds>
5

> <r_i_docking_score>
-7.98028183064817

> <r_i_glide_ligand_efficiency>
-0.346968775245572

> <r_i_glide_ligand_efficiency_sa>
-0.986733041929124

> <r_i_glide_ligand_efficiency_ln>
-1.92970450784567

> <r_i_glide_gscore>
-7.98028183064817

> <r_i_glide_lipo>
-4.20731992432359

> <r_i_glide_hbond>
-0.250971763312052

> <r_i_glide_metal>
0

> <r_i_glide_rewards>
-1.31815187585377

> <r_i_glide_evdw>
-38.7940788269043

> <r_i_glide_ecoul>
-4.05357933044434

> <r_i_glide_erotb>
0.343902573753116

> <r_i_glide_esite>
0

> <r_i_glide_emodel>
-60.7730034392426

> <r_i_glide_energy>
-42.8476581573486

> <r_i_glide_einternal>
4.15137958526611

> <i_i_glide_confnum>
16

> <i_i_glide_posenum>
53

> <r_i_glide_eff_state_penalty>
0

> <s_user_duplicate_titles>
CHEMBL3880_lig156,CHEMBL3880_lig156,316695

> <i_f3d_flags>
0

> <s_m_subgroup_title>
dock_pv

> <s_m_subgroupid>
dock_pv

> <b_m_subgroup_collapsed>
1

$$$$
CHEMBL3880_lig444
                    3D
 Schrodinger Suite 2021-1.
 64 67  0  0  1  0            999 V2000
    4.2722    7.4834   19.6392 C   0  0  0  0  0  0
    4.8115    8.7698   19.9426 O   0  0  0  0  0  0
    5.3957    8.9693   21.1731 C   0  0  0  0  0  0
    6.4610    9.8622   21.2508 C   0  0  0  0  0  0
    7.1456   10.0084   22.4547 C   0  0  0  0  0  0
    6.7464    9.2475   23.5510 C   0  0  0  0  0  0
    5.6544    8.3792   23.4126 C   0  0  0  0  0  0
    4.9779    8.2376   22.2431 N   0  0  0  0  0  0
    5.1993    7.5373   24.5439 C   0  0  0  0  0  0
    6.1165    6.6002   25.0421 C   0  0  0  0  0  0
    5.8144    5.8111   26.1444 C   0  0  0  0  0  0
    6.7284    4.9451   26.6324 F   0  0  0  0  0  0
    4.5730    5.9267   26.7531 C   0  0  0  0  0  0
    3.6491    6.8518   26.2761 C   0  0  0  0  0  0
    3.9420    7.6952   25.1861 C   0  0  0  0  0  0
    2.8994    8.7586   24.7377 C   0  0  1  0  0  0
    1.6271    8.8670   25.6566 C   0  0  0  0  0  0
    0.7128    9.9794   25.1633 C   0  0  0  0  0  0
   -0.6220    9.8607   25.3538 N   0  0  0  0  0  0
   -1.4018   10.8283   24.8338 C   0  0  0  0  0  0
   -2.7389   10.7690   25.1680 N   0  0  0  0  0  0
   -0.9883   11.8536   24.0582 N   0  0  0  0  0  0
    0.3507   11.9477   23.8479 C   0  0  0  0  0  0
    0.7358   13.0346   22.8535 C   0  0  0  0  0  0
    1.2693   11.0552   24.4501 C   0  0  0  0  0  0
    2.7440   11.1076   24.4035 C   0  0  0  0  0  0
    3.5133   10.0846   24.5081 N   0  0  0  0  0  0
    3.2639   12.4327   24.3672 N   0  0  0  0  0  0
    4.6232   12.5896   23.9667 O   0  0  0  0  0  0
    5.1809   13.6664   24.7078 C   0  0  0  0  0  0
    6.6968   13.6749   24.4675 C   0  0  0  0  0  0
    7.4623   14.8417   25.1445 C   0  0  2  0  0  0
    8.7261   15.1220   24.3298 C   0  0  0  0  0  0
    7.7604   14.5786   26.6450 C   0  0  0  0  0  0
    8.8374   15.3366   27.1669 O   0  0  0  0  0  0
    3.6610    7.5592   18.7412 H   0  0  0  0  0  0
    5.0599    6.7695   19.4207 H   0  0  0  0  0  0
    3.6610    7.0605   20.4348 H   0  0  0  0  0  0
    6.8007   10.3700   20.3657 H   0  0  0  0  0  0
    7.9892   10.6802   22.5294 H   0  0  0  0  0  0
    7.2774    9.3316   24.4867 H   0  0  0  0  0  0
    7.0882    6.4953   24.5804 H   0  0  0  0  0  0
    4.3343    5.3094   27.6059 H   0  0  0  0  0  0
    2.7095    6.9075   26.8013 H   0  0  0  0  0  0
    2.5764    8.3789   23.7655 H   0  0  0  0  0  0
    1.9298    9.1137   26.6753 H   0  0  0  0  0  0
    1.0774    7.9251   25.6944 H   0  0  0  0  0  0
   -3.4107   11.4333   24.7686 H   0  0  0  0  0  0
   -3.0616   10.0047   25.7367 H   0  0  0  0  0  0
    1.6290   12.7669   22.2906 H   0  0  0  0  0  0
   -0.0560   13.1688   22.1159 H   0  0  0  0  0  0
    0.8989   13.9844   23.3623 H   0  0  0  0  0  0
    2.7383   13.1037   23.8326 H   0  0  0  0  0  0
    4.9573   13.5696   25.7728 H   0  0  0  0  0  0
    4.7450   14.6059   24.3618 H   0  0  0  0  0  0
    6.8571   13.7047   23.3901 H   0  0  0  0  0  0
    7.1317   12.7196   24.7667 H   0  0  0  0  0  0
    6.8545   15.7468   25.0838 H   0  0  0  0  0  0
    9.4017   14.2721   24.3672 H   0  0  0  0  0  0
    8.4618   15.3501   23.2957 H   0  0  0  0  0  0
    9.2610   15.9691   24.7355 H   0  0  0  0  0  0
    8.0611   13.5448   26.7825 H   0  0  0  0  0  0
    6.8727   14.7685   27.2498 H   0  0  0  0  0  0
    8.9118   15.1704   28.1198 H   0  0  0  0  0  0
  1  2  1  0  0  0
  1 36  1  0  0  0
  1 37  1  0  0  0
  1 38  1  0  0  0
  2  3  1  0  0  0
  3  4  2  0  0  0
  3  8  1  0  0  0
  4  5  1  0  0  0
  4 39  1  0  0  0
  5  6  2  0  0  0
  5 40  1  0  0  0
  6  7  1  0  0  0
  6 41  1  0  0  0
  7  8  2  0  0  0
  7  9  1  0  0  0
  9 10  2  0  0  0
  9 15  1  0  0  0
 10 11  1  0  0  0
 10 42  1  0  0  0
 11 12  1  0  0  0
 11 13  2  0  0  0
 13 14  1  0  0  0
 13 43  1  0  0  0
 14 15  2  0  0  0
 14 44  1  0  0  0
 15 16  1  0  0  0
 16 17  1  0  0  0
 16 27  1  0  0  0
 16 45  1  0  0  0
 17 18  1  0  0  0
 17 46  1  0  0  0
 17 47  1  0  0  0
 18 19  2  0  0  0
 18 25  1  0  0  0
 19 20  1  0  0  0
 20 21  1  0  0  0
 20 22  2  0  0  0
 21 48  1  0  0  0
 21 49  1  0  0  0
 22 23  1  0  0  0
 23 24  1  0  0  0
 23 25  2  0  0  0
 24 50  1  0  0  0
 24 51  1  0  0  0
 24 52  1  0  0  0
 25 26  1  0  0  0
 26 27  2  0  0  0
 26 28  1  0  0  0
 28 29  1  0  0  0
 28 53  1  0  0  0
 29 30  1  0  0  0
 30 31  1  0  0  0
 30 54  1  0  0  0
 30 55  1  0  0  0
 31 32  1  0  0  0
 31 56  1  0  0  0
 31 57  1  0  0  0
 32 33  1  0  0  0
 32 34  1  0  0  0
 32 58  1  0  0  0
 33 59  1  0  0  0
 33 60  1  0  0  0
 33 61  1  0  0  0
 34 35  1  0  0  0
 34 62  1  0  0  0
 34 63  1  0  0  0
 35 64  1  0  0  0
M  END
> <s_m_entry_id>
4923

> <s_m_entry_name>
dock_pv.242

> <s_m_Source_Path>
/home/csk/Desktop/cluster/DUD-E-result/hs90a

> <s_m_Source_File>
dock_pv.maegz

> <i_m_Source_File_Index>
242

> <chembl_id>
CHEMBL3675259

> <chembl_pref_name>
None

> <i_lp_mmshare_version>
53161

> <r_lp_tautomer_probability>
1

> <s_lp_Force_Field>
OPLS_2005

> <r_lp_Energy>
20.39528

> <b_lp_Chiralities_Consistent>
1

> <s_lp_Variant>
CHEMBL3880_lig444-1

> <s_i_glide_gridfile>
glide-grid_1uyg

> <i_i_glide_lignum>
486

> <i_i_glide_rotatable_bonds>
10

> <r_i_docking_score>
-7.97532259185753

> <r_i_glide_ligand_efficiency>
-0.227866359767358

> <r_i_glide_ligand_efficiency_sa>
-0.745365971776972

> <r_i_glide_ligand_efficiency_ln>
-1.750760311661

> <r_i_glide_gscore>
-7.97532259185753

> <r_i_glide_lipo>
-3.39198855358417

> <r_i_glide_hbond>
-0.69956723872666

> <r_i_glide_metal>
0

> <r_i_glide_rewards>
-0.840840013104629

> <r_i_glide_evdw>
-43.539665222168

> <r_i_glide_ecoul>
-9.79738426208496

> <r_i_glide_erotb>
0.702592257953384

> <r_i_glide_esite>
-0.0989281439743115

> <r_i_glide_emodel>
-67.9259879260255

> <r_i_glide_energy>
-53.3370494842529

> <r_i_glide_einternal>
16.8267917633057

> <i_i_glide_confnum>
50

> <i_i_glide_posenum>
304

> <r_i_glide_eff_state_penalty>
0

> <s_user_duplicate_titles>
CHEMBL3880_lig444

> <i_f3d_flags>
0

> <s_m_subgroup_title>
dock_pv

> <s_m_subgroupid>
dock_pv

> <b_m_subgroup_collapsed>
1

$$$$
CHEMBL3880_lig414
                    3D
 Schrodinger Suite 2021-1.
 59 61  0  0  1  0            999 V2000
   -1.0282   10.3015   26.2947 C   0  0  0  0  0  0
   -0.3390    9.2540   26.9151 C   0  0  0  0  0  0
    0.7845    8.6852   26.3138 C   0  0  0  0  0  0
    1.2470    9.1938   25.0977 C   0  0  0  0  0  0
    0.5678   10.2535   24.5030 C   0  0  0  0  0  0
   -0.5632   10.8226   25.0773 C   0  0  0  0  0  0
   -1.2254   11.9990   24.3550 C   0  0  0  0  0  0
   -2.0548   11.5520   23.1520 C   0  0  0  0  0  0
   -0.2049   13.0762   23.9179 C   0  0  0  0  0  0
   -2.1713   10.7690   26.8880 O   0  0  0  0  0  0
    1.4231    7.6433   26.9316 O   0  0  0  0  0  0
    2.4583    8.7412   24.3653 C   0  0  0  0  0  0
    2.6393    7.4165   24.1454 O   0  0  0  0  0  0
    3.7767    7.2605   23.3493 N   0  0  0  0  0  0
    4.2393    8.4720   23.1074 C   0  0  0  0  0  0
    3.4791    9.4498   23.7653 C   0  0  0  0  0  0
    3.6672   10.8919   23.8208 C   0  0  0  0  0  0
    5.4383    8.7394   22.3669 C   0  0  0  0  0  0
    6.5556    8.5464   23.0894 N   0  0  0  0  0  0
    5.4053    9.1690   21.2106 O   0  0  0  0  0  0
    3.8082   12.0965   23.9386 C   0  0  0  0  0  0
    4.0915   13.5282   24.1207 C   0  0  0  0  0  0
    7.9044    8.8549   22.6297 C   0  0  0  0  0  0
    8.2642   10.3143   22.8981 C   0  0  0  0  0  0
    5.3875   13.7535   24.7670 N   0  0  0  0  0  0
    6.5739   13.1355   24.1366 C   0  0  0  0  0  0
    7.8427   13.1737   24.9983 C   0  0  0  0  0  0
    8.2655   14.9298   25.2800 S   0  0  0  0  0  0
    6.6627   15.3588   26.1467 C   0  0  0  0  0  0
    5.4974   15.1493   25.1901 C   0  0  0  0  0  0
    9.3846   15.0291   26.2201 O   0  0  0  0  0  0
    8.3737   15.5690   23.9671 O   0  0  0  0  0  0
   -0.6989    8.8599   27.8544 H   0  0  0  0  0  0
    0.9272   10.6487   23.5670 H   0  0  0  0  0  0
   -1.9388   12.4408   25.0428 H   0  0  0  0  0  0
   -2.7390   10.7689   23.4506 H   0  0  0  0  0  0
   -2.6516   12.3713   22.7484 H   0  0  0  0  0  0
   -1.4307   11.1690   22.3494 H   0  0  0  0  0  0
    0.4612   13.3615   24.7334 H   0  0  0  0  0  0
    0.4229   12.7416   23.0917 H   0  0  0  0  0  0
   -0.7182   13.9690   23.5670 H   0  0  0  0  0  0
   -2.7949   11.1641   26.2697 H   0  0  0  0  0  0
    2.1411    7.2941   26.3982 H   0  0  0  0  0  0
    6.4741    8.0966   23.9889 H   0  0  0  0  0  0
    3.2788   13.9395   24.7215 H   0  0  0  0  0  0
    4.0617   14.0306   23.1670 H   0  0  0  0  0  0
    8.6002    8.1946   23.1483 H   0  0  0  0  0  0
    8.0296    8.6503   21.5670 H   0  0  0  0  0  0
    9.2611   10.5392   22.5364 H   0  0  0  0  0  0
    7.5822   10.9926   22.3855 H   0  0  0  0  0  0
    8.2474   10.5213   23.9668 H   0  0  0  0  0  0
    6.7612   13.5690   23.1669 H   0  0  0  0  0  0
    6.3693   12.0827   23.9518 H   0  0  0  0  0  0
    7.6610   12.7690   25.9760 H   0  0  0  0  0  0
    8.6959   12.6794   24.5437 H   0  0  0  0  0  0
    6.5536   14.7577   27.0436 H   0  0  0  0  0  0
    6.6866   16.3690   26.4776 H   0  0  0  0  0  0
    4.5912   15.4203   25.7363 H   0  0  0  0  0  0
    5.5309   15.8372   24.3460 H   0  0  0  0  0  0
  1  2  2  0  0  0
  1  6  1  0  0  0
  1 10  1  0  0  0
  2  3  1  0  0  0
  2 33  1  0  0  0
  3  4  2  0  0  0
  3 11  1  0  0  0
  4  5  1  0  0  0
  4 12  1  0  0  0
  5  6  2  0  0  0
  5 34  1  0  0  0
  6  7  1  0  0  0
  7  8  1  0  0  0
  7  9  1  0  0  0
  7 35  1  0  0  0
  8 36  1  0  0  0
  8 37  1  0  0  0
  8 38  1  0  0  0
  9 39  1  0  0  0
  9 40  1  0  0  0
  9 41  1  0  0  0
 10 42  1  0  0  0
 11 43  1  0  0  0
 12 13  1  0  0  0
 12 16  2  0  0  0
 13 14  1  0  0  0
 14 15  2  0  0  0
 15 16  1  0  0  0
 15 18  1  0  0  0
 16 17  1  0  0  0
 17 21  3  0  0  0
 18 19  1  0  0  0
 18 20  2  0  0  0
 19 23  1  0  0  0
 19 44  1  0  0  0
 21 22  1  0  0  0
 22 25  1  0  0  0
 22 45  1  0  0  0
 22 46  1  0  0  0
 23 24  1  0  0  0
 23 47  1  0  0  0
 23 48  1  0  0  0
 24 49  1  0  0  0
 24 50  1  0  0  0
 24 51  1  0  0  0
 25 26  1  0  0  0
 25 30  1  0  0  0
 26 27  1  0  0  0
 26 52  1  0  0  0
 26 53  1  0  0  0
 27 28  1  0  0  0
 27 54  1  0  0  0
 27 55  1  0  0  0
 28 29  1  0  0  0
 28 31  2  0  0  0
 28 32  2  0  0  0
 29 30  1  0  0  0
 29 56  1  0  0  0
 29 57  1  0  0  0
 30 58  1  0  0  0
 30 59  1  0  0  0
M  END
> <s_m_entry_id>
4924

> <s_m_entry_name>
dock_pv.243

> <s_m_Source_Path>
/home/csk/Desktop/cluster/DUD-E-result/hs90a

> <s_m_Source_File>
dock_pv.maegz

> <i_m_Source_File_Index>
243

> <chembl_id>
CHEMBL3600503

> <chembl_pref_name>
None

> <i_lp_mmshare_version>
53161

> <r_lp_tautomer_probability>
0.999999999898

> <s_lp_Force_Field>
OPLS_2005

> <r_lp_Energy>
17.761056

> <b_lp_Chiralities_Consistent>
1

> <s_lp_Variant>
CHEMBL3880_lig414-1

> <s_i_glide_gridfile>
glide-grid_1uyg

> <i_i_glide_lignum>
456

> <i_i_glide_rotatable_bonds>
10

> <r_i_docking_score>
-7.97195242983805

> <r_i_glide_ligand_efficiency>
-0.249123513432439

> <r_i_glide_ligand_efficiency_sa>
-0.790917853671631

> <r_i_glide_ligand_efficiency_ln>
-1.78513745625668

> <r_i_glide_gscore>
-7.97195242983805

> <r_i_glide_lipo>
-4.32800830747394

> <r_i_glide_hbond>
-0.0618535544088112

> <r_i_glide_metal>
0

> <r_i_glide_rewards>
-0.88985348619149

> <r_i_glide_evdw>
-45.0660552978516

> <r_i_glide_ecoul>
-6.07737112045288

> <r_i_glide_erotb>
0.472671351196706

> <r_i_glide_esite>
0

> <r_i_glide_emodel>
-60.0592550984081

> <r_i_glide_energy>
-51.1434264183044

> <r_i_glide_einternal>
12.8060283660889

> <i_i_glide_confnum>
5

> <i_i_glide_posenum>
42

> <r_i_glide_eff_state_penalty>
0

> <s_user_duplicate_titles>
CHEMBL3880_lig414

> <i_f3d_flags>
0

> <s_m_subgroup_title>
dock_pv

> <s_m_subgroupid>
dock_pv

> <b_m_subgroup_collapsed>
1

$$$$
CHEMBL3880_lig984
                    3D
 Schrodinger Suite 2021-1.
 54 57  0  0  1  0            999 V2000
    5.8927    7.2167   24.6497 C   0  0  0  0  0  0
    5.2020    7.5314   23.2960 C   0  0  0  0  0  0
    4.8097    6.2449   22.5351 C   0  0  0  0  0  0
    0.6974    9.4589   26.5774 C   0  0  0  0  0  0
    1.9158    9.5756   25.9043 C   0  0  0  0  0  0
   -0.1638   11.2649   25.2393 C   0  0  0  0  0  0
   -0.3541   10.3475   26.2788 C   0  0  0  0  0  0
    2.0995   10.5389   24.9022 C   0  0  0  0  0  0
    1.0228   11.3565   24.5115 C   0  0  0  0  0  0
    1.2104   12.3423   23.5321 N   0  0  0  0  0  0
    1.9841   13.5237   23.9255 C   0  0  0  0  0  0
    3.2933   13.2544   24.7145 C   0  0  0  0  0  0
    4.0307   11.9880   24.2899 C   0  0  0  0  0  0
    3.3933   10.7556   24.3578 N   0  0  0  0  0  0
    5.3340   11.8005   23.8317 C   0  0  0  0  0  0
    5.4175   10.4568   23.4332 C   0  0  0  0  0  0
    4.2167    9.8309   23.7523 C   0  0  0  0  0  0
    3.8937    8.3574   23.5106 C   0  0  0  0  0  0
    6.2053    8.3079   22.3931 C   0  0  0  0  0  0
    6.5292    9.7505   22.8047 C   0  0  0  0  0  0
   -1.6644   10.3689   27.0376 C   0  0  0  0  0  0
   -1.7545   10.0692   28.2236 O   0  0  0  0  0  0
   -2.7402   10.7692   26.3531 N   0  0  0  0  0  0
    7.6473   10.2366   22.6400 O   0  0  0  0  0  0
    6.3945   12.8737   23.6892 C   0  0  0  0  0  0
    0.5796    8.2282   27.7920 Cl  0  0  0  0  0  0
    0.2318   12.5265   22.4523 C   0  0  0  0  0  0
   -1.1452   13.0951   22.8335 C   0  0  0  0  0  0
    6.6625    7.9432   24.9039 H   0  0  0  0  0  0
    5.1863    7.1630   25.4783 H   0  0  0  0  0  0
    6.4047    6.2564   24.6141 H   0  0  0  0  0  0
    4.3525    6.4611   21.5671 H   0  0  0  0  0  0
    5.6802    5.6175   22.3453 H   0  0  0  0  0  0
    4.0980    5.6458   23.1052 H   0  0  0  0  0  0
    2.7386    8.9458   26.2085 H   0  0  0  0  0  0
   -0.9469   11.9689   25.0377 H   0  0  0  0  0  0
    1.3494   14.2306   24.4609 H   0  0  0  0  0  0
    2.2647   14.0582   23.0273 H   0  0  0  0  0  0
    3.0589   13.1686   25.7691 H   0  0  0  0  0  0
    3.9115   14.1518   24.6927 H   0  0  0  0  0  0
    3.3069    8.3412   22.5902 H   0  0  0  0  0  0
    3.2662    7.9042   24.2751 H   0  0  0  0  0  0
    5.8169    8.3703   21.3764 H   0  0  0  0  0  0
    7.1591    7.7827   22.3674 H   0  0  0  0  0  0
   -3.6414   10.8520   26.8062 H   0  0  0  0  0  0
   -2.6915   10.9432   25.3607 H   0  0  0  0  0  0
    6.9640   12.7687   22.7677 H   0  0  0  0  0  0
    5.9757   13.8783   23.6661 H   0  0  0  0  0  0
    7.1212   12.8269   24.4992 H   0  0  0  0  0  0
    0.1207   11.5804   21.9277 H   0  0  0  0  0  0
    0.6822   13.1924   21.7154 H   0  0  0  0  0  0
   -1.6196   13.5568   21.9676 H   0  0  0  0  0  0
   -1.8319   12.3138   23.1583 H   0  0  0  0  0  0
   -1.0725   13.8420   23.6242 H   0  0  0  0  0  0
  1  2  1  0  0  0
  1 29  1  0  0  0
  1 30  1  0  0  0
  1 31  1  0  0  0
  2  3  1  0  0  0
  2 18  1  0  0  0
  2 19  1  0  0  0
  3 32  1  0  0  0
  3 33  1  0  0  0
  3 34  1  0  0  0
  4  5  2  0  0  0
  4  7  1  0  0  0
  4 26  1  0  0  0
  5  8  1  0  0  0
  5 35  1  0  0  0
  6  9  1  0  0  0
  6  7  2  0  0  0
  6 36  1  0  0  0
  7 21  1  0  0  0
  8  9  2  0  0  0
  8 14  1  0  0  0
  9 10  1  0  0  0
 10 11  1  0  0  0
 10 27  1  0  0  0
 11 12  1  0  0  0
 11 37  1  0  0  0
 11 38  1  0  0  0
 12 13  1  0  0  0
 12 39  1  0  0  0
 12 40  1  0  0  0
 13 14  1  0  0  0
 13 15  2  0  0  0
 14 17  1  0  0  0
 15 16  1  0  0  0
 15 25  1  0  0  0
 16 17  2  0  0  0
 16 20  1  0  0  0
 17 18  1  0  0  0
 18 41  1  0  0  0
 18 42  1  0  0  0
 19 20  1  0  0  0
 19 43  1  0  0  0
 19 44  1  0  0  0
 20 24  2  0  0  0
 21 22  2  0  0  0
 21 23  1  0  0  0
 23 45  1  0  0  0
 23 46  1  0  0  0
 25 47  1  0  0  0
 25 48  1  0  0  0
 25 49  1  0  0  0
 27 28  1  0  0  0
 27 50  1  0  0  0
 27 51  1  0  0  0
 28 52  1  0  0  0
 28 53  1  0  0  0
 28 54  1  0  0  0
M  END
> <s_m_entry_id>
4925

> <s_m_entry_name>
dock_pv.244

> <s_m_Source_Path>
/home/csk/Desktop/cluster/DUD-E-result/hs90a

> <s_m_Source_File>
dock_pv.maegz

> <i_m_Source_File_Index>
244

> <chembl_id>
CHEMBL3401149

> <chembl_pref_name>
None

> <i_lp_mmshare_version>
53161

> <r_lp_tautomer_probability>
0.99995

> <s_lp_Force_Field>
OPLS_2005

> <r_lp_Energy>
35.377614

> <b_lp_Chiralities_Consistent>
1

> <s_lp_Variant>
CHEMBL3880_lig984-1

> <s_i_glide_gridfile>
glide-grid_1uyg

> <i_i_glide_lignum>
1093

> <i_i_glide_rotatable_bonds>
2

> <r_i_docking_score>
-7.97156927628972

> <r_i_glide_ligand_efficiency>
-0.284698902724633

> <r_i_glide_ligand_efficiency_sa>
-0.864513547358477

> <r_i_glide_ligand_efficiency_ln>
-1.84007224441196

> <r_i_glide_gscore>
-7.97156927628972

> <r_i_glide_lipo>
-3.62390343785216

> <r_i_glide_hbond>
0

> <r_i_glide_metal>
0

> <r_i_glide_rewards>
-2.09150562598668

> <r_i_glide_evdw>
-38.7661170959473

> <r_i_glide_ecoul>
-1.67817616462708

> <r_i_glide_erotb>
0

> <r_i_glide_esite>
-0.0661279329594519

> <r_i_glide_emodel>
-54.3864364952724

> <r_i_glide_energy>
-40.4442932605743

> <r_i_glide_einternal>
3.85285091400146

> <i_i_glide_confnum>
1

> <i_i_glide_posenum>
308

> <r_i_glide_eff_state_penalty>
0

> <s_user_duplicate_titles>
CHEMBL3880_lig984

> <i_f3d_flags>
0

> <s_m_subgroup_title>
dock_pv

> <s_m_subgroupid>
dock_pv

> <b_m_subgroup_collapsed>
1

$$$$
CHEMBL3880_lig178
                    3D
 Schrodinger Suite 2021-1.
 59 62  0  0  1  0            999 V2000
    8.0455    8.3738   22.9217 C   0  0  0  0  0  0
    7.0604    9.5523   22.7355 C   0  0  0  0  0  0
    6.6672    9.8280   21.2719 C   0  0  0  0  0  0
    1.7358    7.3919   24.0030 C   0  0  0  0  0  0
    2.5143    8.4599   23.5705 C   0  0  0  0  0  0
    2.8541    9.4645   24.4701 C   0  0  0  0  0  0
    2.4036    9.4057   25.7825 C   0  0  0  0  0  0
    1.5330    8.4092   26.1996 C   0  0  0  0  0  0
    1.2483    7.3280   25.3293 C   0  0  0  0  0  0
    0.4794    6.1058   25.7791 C   0  0  0  0  0  0
    0.7850    4.9727   25.1593 N   0  0  0  0  0  0
   -0.3305    6.1018   26.6989 O   0  0  0  0  0  0
    0.9441    8.6563   27.4485 N   0  0  0  0  0  0
   -0.4346    9.1385   27.3443 C   0  0  0  0  0  0
   -0.6203   10.5180   26.6577 C   0  0  0  0  0  0
    3.6407   10.5680   24.1111 N   0  0  0  0  0  0
    4.4433   12.6767   24.1307 C   0  0  0  0  0  0
    3.2888   11.9025   24.2504 C   0  0  0  0  0  0
    5.4851   11.7897   23.7735 C   0  0  0  0  0  0
    4.9706   10.4992   23.7787 C   0  0  0  0  0  0
    5.7342    9.2078   23.4622 C   0  0  0  0  0  0
    7.7754   10.7923   23.3541 C   0  0  0  0  0  0
    6.9108   12.0490   23.5662 C   0  0  0  0  0  0
    7.4151   13.1696   23.5694 O   0  0  0  0  0  0
    4.5152   14.1743   24.3693 C   0  0  0  0  0  0
   -0.7252   10.4698   25.1075 C   0  0  0  0  0  0
   -0.5422   11.7703   24.4620 N   0  0  1  0  0  0
    0.7182   11.9210   23.7256 C   0  0  0  0  0  0
    1.8775   12.3497   24.6439 C   0  0  0  0  0  0
    8.4787    8.3394   23.9242 H   0  0  0  0  0  0
    7.5518    7.4146   22.7700 H   0  0  0  0  0  0
    8.8611    8.4365   22.2024 H   0  0  0  0  0  0
    5.7351   10.3688   21.1857 H   0  0  0  0  0  0
    7.4436   10.3727   20.7338 H   0  0  0  0  0  0
    6.4599    8.8919   20.7644 H   0  0  0  0  0  0
    1.5088    6.6238   23.2777 H   0  0  0  0  0  0
    2.8452    8.4910   22.5394 H   0  0  0  0  0  0
    2.6631   10.1995   26.4628 H   0  0  0  0  0  0
    0.2727    4.1563   25.4250 H   0  0  0  0  0  0
    1.4297    4.9559   24.3841 H   0  0  0  0  0  0
    1.4907    9.2489   28.0517 H   0  0  0  0  0  0
   -1.0156    8.4201   26.7758 H   0  0  0  0  0  0
   -0.8900    9.1376   28.3376 H   0  0  0  0  0  0
    0.1850   11.1703   26.9753 H   0  0  0  0  0  0
   -1.5326   10.9741   27.0351 H   0  0  0  0  0  0
    5.1445    8.5116   22.8604 H   0  0  0  0  0  0
    5.9592    8.6681   24.3660 H   0  0  0  0  0  0
    8.6641   11.0717   22.7866 H   0  0  0  0  0  0
    8.1203   10.5320   24.3540 H   0  0  0  0  0  0
    3.6529   14.6941   23.9522 H   0  0  0  0  0  0
    4.4913   14.3972   25.4362 H   0  0  0  0  0  0
    5.3990   14.6592   23.9599 H   0  0  0  0  0  0
   -1.7067   10.0795   24.8302 H   0  0  0  0  0  0
   -0.0267    9.7502   24.6818 H   0  0  0  0  0  0
   -1.3406   11.9738   23.8783 H   0  0  0  0  0  0
    0.5712   12.7000   22.9779 H   0  0  0  0  0  0
    0.9451   11.0118   23.1675 H   0  0  0  0  0  0
    1.6838   11.9756   25.6335 H   0  0  0  0  0  0
    1.8411   13.4313   24.7643 H   0  0  0  0  0  0
  1  2  1  0  0  0
  1 30  1  0  0  0
  1 31  1  0  0  0
  1 32  1  0  0  0
  2  3  1  0  0  0
  2 21  1  0  0  0
  2 22  1  0  0  0
  3 33  1  0  0  0
  3 34  1  0  0  0
  3 35  1  0  0  0
  4  5  2  0  0  0
  4  9  1  0  0  0
  4 36  1  0  0  0
  5  6  1  0  0  0
  5 37  1  0  0  0
  6 16  1  0  0  0
  6  7  2  0  0  0
  7  8  1  0  0  0
  7 38  1  0  0  0
  8  9  2  0  0  0
  8 13  1  0  0  0
  9 10  1  0  0  0
 10 11  1  0  0  0
 10 12  2  0  0  0
 11 39  1  0  0  0
 11 40  1  0  0  0
 13 14  1  0  0  0
 13 41  1  0  0  0
 14 15  1  0  0  0
 14 42  1  0  0  0
 14 43  1  0  0  0
 15 26  1  0  0  0
 15 44  1  0  0  0
 15 45  1  0  0  0
 16 20  1  0  0  0
 16 18  1  0  0  0
 17 19  1  0  0  0
 17 18  2  0  0  0
 17 25  1  0  0  0
 18 29  1  0  0  0
 19 20  2  0  0  0
 19 23  1  0  0  0
 20 21  1  0  0  0
 21 46  1  0  0  0
 21 47  1  0  0  0
 22 23  1  0  0  0
 22 48  1  0  0  0
 22 49  1  0  0  0
 23 24  2  0  0  0
 25 50  1  0  0  0
 25 51  1  0  0  0
 25 52  1  0  0  0
 26 27  1  0  0  0
 26 53  1  0  0  0
 26 54  1  0  0  0
 27 28  1  0  0  0
 27 55  1  0  0  0
 28 29  1  0  0  0
 28 56  1  0  0  0
 28 57  1  0  0  0
 29 58  1  0  0  0
 29 59  1  0  0  0
M  END
> <s_m_entry_id>
4926

> <s_m_entry_name>
dock_pv.245

> <s_m_Source_Path>
/home/csk/Desktop/cluster/DUD-E-result/hs90a

> <s_m_Source_File>
dock_pv.maegz

> <i_m_Source_File_Index>
245

> <chembl_id>
CHEMBL1760598

> <chembl_pref_name>
None

> <i_lp_mmshare_version>
53161

> <r_lp_tautomer_probability>
0.99995

> <s_lp_Force_Field>
OPLS_2005

> <r_lp_Energy>
44.10417

> <b_lp_Chiralities_Consistent>
1

> <s_lp_Variant>
CHEMBL3880_lig178-1

> <s_i_glide_gridfile>
glide-grid_1uyg

> <i_i_glide_lignum>
209

> <i_i_glide_rotatable_bonds>
1

> <r_i_docking_score>
-7.96478653585334

> <r_i_glide_ligand_efficiency>
-0.27464781158115

> <r_i_glide_ligand_efficiency_sa>
-0.843805091711448

> <r_i_glide_ligand_efficiency_ln>
-1.82373414715028

> <r_i_glide_gscore>
-7.96478653585334

> <r_i_glide_lipo>
-3.64578653104706

> <r_i_glide_hbond>
0

> <r_i_glide_metal>
0

> <r_i_glide_rewards>
-1.91786131767248

> <r_i_glide_evdw>
-41.3362770080566

> <r_i_glide_ecoul>
-2.22883224487305

> <r_i_glide_erotb>
0

> <r_i_glide_esite>
0

> <r_i_glide_emodel>
-45.5681650083827

> <r_i_glide_energy>
-43.5651092529297

> <r_i_glide_einternal>
1.45011150836945

> <i_i_glide_confnum>
1

> <i_i_glide_posenum>
272

> <r_i_glide_eff_state_penalty>
0

> <s_user_duplicate_titles>
CHEMBL3880_lig178

> <i_f3d_flags>
0

> <s_m_subgroup_title>
dock_pv

> <s_m_subgroupid>
dock_pv

> <b_m_subgroup_collapsed>
1

$$$$
CHEMBL3880_lig915
                    3D
 Schrodinger Suite 2021-1.
 55 58  0  0  1  0            999 V2000
    3.8356    7.6332   24.9366 C   0  0  0  0  0  0
    2.4313    7.7179   26.8865 C   0  0  0  0  0  0
    8.3917   13.9547   25.7652 C   0  0  0  0  0  0
    7.4181   15.0272   26.2748 C   0  0  0  0  0  0
    8.0642   14.4282   24.3412 C   0  0  0  0  0  0
    3.5266   12.1934   24.4699 C   0  0  0  0  0  0
    2.0887   14.1153   24.0778 C   0  0  0  0  0  0
    5.9701    9.5893   23.1689 C   0  0  0  0  0  0
    7.3369    8.9715   22.7897 C   0  0  0  0  0  0
    4.7436    8.9221   22.5032 C   0  0  0  0  0  0
    3.4640    7.1220   26.1746 C   0  0  0  0  0  0
    3.1869    8.7525   24.3883 C   0  0  0  0  0  0
    1.7644    8.8212   26.3610 C   0  0  0  0  0  0
    2.0857   11.7635   24.3498 C   0  0  0  0  0  0
    1.2958   12.8466   24.0017 C   0  0  0  0  0  0
    2.1280    9.3464   25.1034 C   0  0  0  0  0  0
    1.4315   10.5441   24.5614 C   0  0  0  0  0  0
   -0.5775   11.5361   23.9661 C   0  0  0  0  0  0
    6.7604   15.0072   24.8914 C   0  0  0  0  0  0
    4.3333   14.4880   25.0524 C   0  0  0  0  0  0
    7.7296    7.6948   23.5686 C   0  0  0  0  0  0
   -1.9388   11.3993   23.7561 N   0  0  0  0  0  0
   -0.0354   12.7621   23.7673 N   0  0  0  0  0  0
    0.0881   10.4241   24.3672 N   0  0  0  0  0  0
    5.5962   14.1214   24.7658 N   0  0  0  0  0  0
    3.3877   13.6488   24.5717 N   0  0  0  0  0  0
    4.0612   15.5773   25.5560 O   0  0  0  0  0  0
    3.5294    9.2988   23.1589 O   0  0  0  0  0  0
    7.9240    7.9653   24.8565 F   0  0  0  0  0  0
    8.8617    7.1775   23.0999 F   0  0  0  0  0  0
    6.8059    6.7393   23.5025 F   0  0  0  0  0  0
    4.2949    5.7608   26.8330 Cl  0  0  0  0  0  0
    0.5145    9.5332   27.3296 Cl  0  0  0  0  0  0
    4.6374    7.1383   24.4184 H   0  0  0  0  0  0
    2.1524    7.3299   27.8551 H   0  0  0  0  0  0
    9.4289   14.0704   26.0814 H   0  0  0  0  0  0
    8.0588   12.9376   25.9653 H   0  0  0  0  0  0
    7.9089   15.9689   26.4976 H   0  0  0  0  0  0
    6.7757   14.7700   27.1178 H   0  0  0  0  0  0
    7.9618   13.6606   23.5726 H   0  0  0  0  0  0
    8.7426   15.1973   23.9665 H   0  0  0  0  0  0
    4.0145   11.7823   25.3546 H   0  0  0  0  0  0
    4.1120   11.9162   23.5941 H   0  0  0  0  0  0
    2.1672   14.6532   23.1461 H   0  0  0  0  0  0
    1.6248   14.8093   24.7670 H   0  0  0  0  0  0
    5.8601    9.5898   24.2527 H   0  0  0  0  0  0
    5.9709   10.6425   22.8860 H   0  0  0  0  0  0
    8.1170    9.7148   22.9612 H   0  0  0  0  0  0
    7.3630    8.7696   21.7186 H   0  0  0  0  0  0
    4.6718    9.2670   21.4708 H   0  0  0  0  0  0
    4.8351    7.8391   22.4234 H   0  0  0  0  0  0
    6.4180   15.9465   24.4470 H   0  0  0  0  0  0
   -2.5140   12.2140   23.5886 H   0  0  0  0  0  0
   -2.3701   10.5120   23.9676 H   0  0  0  0  0  0
    5.6703   13.4287   24.0378 H   0  0  0  0  0  0
  1 12  1  0  0  0
  1 11  2  0  0  0
  1 34  1  0  0  0
  2 13  2  0  0  0
  2 11  1  0  0  0
  2 35  1  0  0  0
  3  5  1  0  0  0
  3  4  1  0  0  0
  3 36  1  0  0  0
  3 37  1  0  0  0
  4 19  1  0  0  0
  4 38  1  0  0  0
  4 39  1  0  0  0
  5 19  1  0  0  0
  5 40  1  0  0  0
  5 41  1  0  0  0
  6 26  1  0  0  0
  6 14  1  0  0  0
  6 42  1  0  0  0
  6 43  1  0  0  0
  7 15  1  0  0  0
  7 26  1  0  0  0
  7 44  1  0  0  0
  7 45  1  0  0  0
  8  9  1  0  0  0
  8 10  1  0  0  0
  8 46  1  0  0  0
  8 47  1  0  0  0
  9 21  1  0  0  0
  9 48  1  0  0  0
  9 49  1  0  0  0
 10 28  1  0  0  0
 10 50  1  0  0  0
 10 51  1  0  0  0
 11 32  1  0  0  0
 12 28  1  0  0  0
 12 16  2  0  0  0
 13 16  1  0  0  0
 13 33  1  0  0  0
 14 15  2  0  0  0
 14 17  1  0  0  0
 15 23  1  0  0  0
 16 17  1  0  0  0
 17 24  2  0  0  0
 18 23  2  0  0  0
 18 22  1  0  0  0
 18 24  1  0  0  0
 19 25  1  0  0  0
 19 52  1  0  0  0
 20 25  1  0  0  0
 20 26  1  0  0  0
 20 27  2  0  0  0
 21 30  1  0  0  0
 21 31  1  0  0  0
 21 29  1  0  0  0
 22 53  1  0  0  0
 22 54  1  0  0  0
 25 55  1  0  0  0
M  END
> <s_m_entry_id>
4927

> <s_m_entry_name>
dock_pv.246

> <s_m_Source_Path>
/home/csk/Desktop/cluster/DUD-E-result/hs90a

> <s_m_Source_File>
dock_pv.maegz

> <i_m_Source_File_Index>
246

> <chembl_id>
CHEMBL1738803

> <chembl_pref_name>
None

> <i_lp_mmshare_version>
53161

> <r_lp_tautomer_probability>
0.999999987636

> <s_lp_Force_Field>
OPLS_2005

> <r_lp_Energy>
45.747321

> <b_lp_Chiralities_Consistent>
1

> <s_lp_Variant>
CHEMBL3880_lig915-1

> <s_i_glide_gridfile>
glide-grid_1uyg

> <i_i_glide_lignum>
1021

> <i_i_glide_rotatable_bonds>
9

> <r_i_docking_score>
-7.96382788989265

> <r_i_glide_ligand_efficiency>
-0.241328117875535

> <r_i_glide_ligand_efficiency_sa>
-0.774068221976879

> <r_i_glide_ligand_efficiency_ln>
-1.77111408821813

> <r_i_glide_gscore>
-7.96382788989265

> <r_i_glide_lipo>
-3.85318999719256

> <r_i_glide_hbond>
0

> <r_i_glide_metal>
0

> <r_i_glide_rewards>
-1.88347594300196

> <r_i_glide_evdw>
-52.0920333862305

> <r_i_glide_ecoul>
-1.64122474193573

> <r_i_glide_erotb>
0.643077772048131

> <r_i_glide_esite>
-0.0194543411443753

> <r_i_glide_emodel>
-74.1344042295367

> <r_i_glide_energy>
-53.7332581281662

> <r_i_glide_einternal>
6.44281101226807

> <i_i_glide_confnum>
221

> <i_i_glide_posenum>
342

> <r_i_glide_eff_state_penalty>
0

> <s_user_duplicate_titles>
CHEMBL3880_lig915

> <i_f3d_flags>
0

> <s_m_subgroup_title>
dock_pv

> <s_m_subgroupid>
dock_pv

> <b_m_subgroup_collapsed>
1

$$$$
CHEMBL3880_lig988
                    3D
 Schrodinger Suite 2021-1.
 50 53  0  0  1  0            999 V2000
    8.8017   13.8905   26.0365 C   0  0  0  0  0  0
    7.6639   14.1549   25.0266 C   0  0  0  0  0  0
    8.1428   15.1266   23.9677 C   0  0  0  0  0  0
    7.5290    8.9583   22.7142 C   0  0  0  0  0  0
    6.8597   10.1802   22.6675 C   0  0  0  0  0  0
    5.7100    8.0051   23.9666 C   0  0  0  0  0  0
    6.9765    7.8614   23.3970 C   0  0  0  0  0  0
    5.6520   10.3465   23.3564 C   0  0  0  0  0  0
    5.0567    9.2321   23.9669 C   0  0  0  0  0  0
    3.9461    9.3540   24.7678 O   0  0  0  0  0  0
    2.6915    9.6280   24.1590 C   0  0  1  0  0  0
    2.7265   10.8157   23.1663 C   0  0  0  0  0  0
    3.7205   11.9052   23.5670 C   0  0  0  0  0  0
    5.0784   11.6240   23.5670 N   0  0  0  0  0  0
    3.5296   13.2282   23.9670 C   0  0  0  0  0  0
    4.7983   13.6985   24.3686 C   0  0  0  0  0  0
    5.7509   12.7637   23.9671 C   0  0  0  0  0  0
    7.2608   12.8514   24.2430 C   0  0  0  0  0  0
    6.5108   14.8522   25.8097 C   0  0  0  0  0  0
    5.1591   14.9196   25.0953 C   0  0  0  0  0  0
    7.7092    6.5514   23.5668 C   0  0  0  0  0  0
    7.2610    5.6523   24.2752 O   0  0  0  0  0  0
    8.8606    6.4038   22.9060 N   0  0  0  0  0  0
    4.4612   15.9254   25.1671 O   0  0  0  0  0  0
    2.1860   13.9166   24.0882 C   0  0  0  0  0  0
    2.1721    8.3036   23.5665 C   0  0  0  0  0  0
    8.4234   13.5691   27.0050 H   0  0  0  0  0  0
    9.5060   13.1376   25.6782 H   0  0  0  0  0  0
    9.3748   14.7972   26.2378 H   0  0  0  0  0  0
    7.4182   15.1689   23.1671 H   0  0  0  0  0  0
    8.2733   16.1046   24.3972 H   0  0  0  0  0  0
    9.1030   14.8185   23.5672 H   0  0  0  0  0  0
    8.4906    8.8895   22.2294 H   0  0  0  0  0  0
    7.3262   11.0072   22.1536 H   0  0  0  0  0  0
    5.2518    7.1867   24.5047 H   0  0  0  0  0  0
    2.0354    9.9129   24.9836 H   0  0  0  0  0  0
    1.7192   11.2151   23.0457 H   0  0  0  0  0  0
    2.9993   10.4374   22.1803 H   0  0  0  0  0  0
    7.8154   12.7959   23.3072 H   0  0  0  0  0  0
    7.5710   11.9556   24.7671 H   0  0  0  0  0  0
    6.7828   15.8736   26.0811 H   0  0  0  0  0  0
    6.3119   14.3689   26.7607 H   0  0  0  0  0  0
    9.3783    5.5455   23.0085 H   0  0  0  0  0  0
    9.0740    7.0327   22.1475 H   0  0  0  0  0  0
    2.1995   14.7661   24.7668 H   0  0  0  0  0  0
    1.8185   14.2660   23.1251 H   0  0  0  0  0  0
    1.4276   13.2335   24.4706 H   0  0  0  0  0  0
    1.1476    8.3692   23.2106 H   0  0  0  0  0  0
    2.7891    7.9745   22.7293 H   0  0  0  0  0  0
    2.1936    7.5128   24.3173 H   0  0  0  0  0  0
  1  2  1  0  0  0
  1 27  1  0  0  0
  1 28  1  0  0  0
  1 29  1  0  0  0
  2  3  1  0  0  0
  2 18  1  0  0  0
  2 19  1  0  0  0
  3 30  1  0  0  0
  3 31  1  0  0  0
  3 32  1  0  0  0
  4  5  2  0  0  0
  4  7  1  0  0  0
  4 33  1  0  0  0
  5  8  1  0  0  0
  5 34  1  0  0  0
  6  9  1  0  0  0
  6  7  2  0  0  0
  6 35  1  0  0  0
  7 21  1  0  0  0
  8  9  2  0  0  0
  8 14  1  0  0  0
  9 10  1  0  0  0
 10 11  1  0  0  0
 11 12  1  0  0  0
 11 26  1  0  0  0
 11 36  1  0  0  0
 12 13  1  0  0  0
 12 37  1  0  0  0
 12 38  1  0  0  0
 13 14  1  0  0  0
 13 15  2  0  0  0
 14 17  1  0  0  0
 15 16  1  0  0  0
 15 25  1  0  0  0
 16 17  2  0  0  0
 16 20  1  0  0  0
 17 18  1  0  0  0
 18 39  1  0  0  0
 18 40  1  0  0  0
 19 20  1  0  0  0
 19 41  1  0  0  0
 19 42  1  0  0  0
 20 24  2  0  0  0
 21 22  2  0  0  0
 21 23  1  0  0  0
 23 43  1  0  0  0
 23 44  1  0  0  0
 25 45  1  0  0  0
 25 46  1  0  0  0
 25 47  1  0  0  0
 26 48  1  0  0  0
 26 49  1  0  0  0
 26 50  1  0  0  0
M  END
> <s_m_entry_id>
4928

> <s_m_entry_name>
dock_pv.247

> <s_m_Source_Path>
/home/csk/Desktop/cluster/DUD-E-result/hs90a

> <s_m_Source_File>
dock_pv.maegz

> <i_m_Source_File_Index>
247

> <chembl_id>
CHEMBL3403718

> <chembl_pref_name>
None

> <i_lp_mmshare_version>
53161

> <r_lp_tautomer_probability>
0.99995

> <s_lp_Force_Field>
OPLS_2005

> <r_lp_Energy>
29.288152

> <b_lp_Chiralities_Consistent>
1

> <s_lp_Variant>
CHEMBL3880_lig988-2

> <s_i_glide_gridfile>
glide-grid_1uyg

> <i_i_glide_lignum>
1098

> <i_i_glide_rotatable_bonds>
1

> <r_i_docking_score>
-7.96379433727631

> <r_i_glide_ligand_efficiency>
-0.306299782202935

> <r_i_glide_ligand_efficiency_sa>
-0.907411899544751

> <r_i_glide_ligand_efficiency_ln>
-1.87027096876875

> <r_i_glide_gscore>
-7.96379433727631

> <r_i_glide_lipo>
-3.90677893415616

> <r_i_glide_hbond>
-0.00560946960980838

> <r_i_glide_metal>
0

> <r_i_glide_rewards>
-2.47163454221754

> <r_i_glide_evdw>
-32.838062286377

> <r_i_glide_ecoul>
0.596426129341125

> <r_i_glide_erotb>
0

> <r_i_glide_esite>
-0.0273321963751218

> <r_i_glide_emodel>
-46.7084583036713

> <r_i_glide_energy>
-32.2416361570358

> <r_i_glide_einternal>
0.240623086690903

> <i_i_glide_confnum>
1

> <i_i_glide_posenum>
40

> <r_i_glide_eff_state_penalty>
0

> <s_user_duplicate_titles>
CHEMBL3880_lig988

> <i_f3d_flags>
0

> <s_m_subgroup_title>
dock_pv

> <s_m_subgroupid>
dock_pv

> <b_m_subgroup_collapsed>
1

$$$$
CHEMBL3880_lig41
                    3D
 Schrodinger Suite 2021-1.
 33 35  0  0  1  0            999 V2000
    8.4212   14.7692   24.7610 S   0  0  0  0  0  0
   11.1108   13.9709   25.6450 O   0  0  0  0  0  0
    1.8244   13.2863   23.7886 N   0  0  0  0  0  0
    2.4750   11.3611   24.7288 N   0  0  0  0  0  0
    5.7741   14.8193   25.1650 N   0  0  0  0  0  0
    2.8377   12.6086   24.2735 C   0  0  0  0  0  0
    0.7446   12.4524   23.9307 C   0  0  0  0  0  0
    1.1175   11.2329   24.5518 C   0  0  0  0  0  0
    4.2297   13.1224   24.3673 C   0  0  0  0  0  0
    4.5120   14.3376   25.0054 C   0  0  0  0  0  0
    5.3050   12.3883   23.8523 C   0  0  0  0  0  0
   -0.5947   12.6583   23.5671 C   0  0  0  0  0  0
    0.1930   10.2310   24.8553 C   0  0  0  0  0  0
    6.7970   14.1016   24.6321 C   0  0  0  0  0  0
    6.6057   12.8871   23.9670 C   0  0  0  0  0  0
   -1.5257   11.6664   23.8769 C   0  0  0  0  0  0
   -1.1383   10.4889   24.5160 C   0  0  0  0  0  0
    8.9142   14.6223   26.5082 C   0  0  0  0  0  0
   10.3940   14.2189   26.6188 C   0  0  0  0  0  0
   10.9683   14.1332   28.0252 C   0  0  0  0  0  0
    3.1225   10.7157   25.1546 H   0  0  0  0  0  0
    3.7176   14.9375   25.4277 H   0  0  0  0  0  0
    5.1357   11.4446   23.3554 H   0  0  0  0  0  0
   -0.9093   13.5692   23.0845 H   0  0  0  0  0  0
    0.4829    9.3060   25.3320 H   0  0  0  0  0  0
    7.4437   12.3437   23.5543 H   0  0  0  0  0  0
   -2.5676   11.8107   23.6248 H   0  0  0  0  0  0
   -1.8911    9.7448   24.7354 H   0  0  0  0  0  0
    8.2957   13.8747   27.0035 H   0  0  0  0  0  0
    8.7533   15.5687   27.0221 H   0  0  0  0  0  0
   10.3092   13.5625   28.6794 H   0  0  0  0  0  0
   11.0914   15.1349   28.4382 H   0  0  0  0  0  0
   11.9470   13.6559   28.0125 H   0  0  0  0  0  0
  1 14  1  0  0  0
  1 18  1  0  0  0
  2 19  2  0  0  0
  3  6  2  0  0  0
  3  7  1  0  0  0
  4  6  1  0  0  0
  4  8  1  0  0  0
  4 21  1  0  0  0
  5 10  2  0  0  0
  5 14  1  0  0  0
  6  9  1  0  0  0
  7  8  1  0  0  0
  7 12  2  0  0  0
  8 13  2  0  0  0
  9 10  1  0  0  0
  9 11  2  0  0  0
 10 22  1  0  0  0
 11 15  1  0  0  0
 11 23  1  0  0  0
 12 16  1  0  0  0
 12 24  1  0  0  0
 13 17  1  0  0  0
 13 25  1  0  0  0
 14 15  2  0  0  0
 15 26  1  0  0  0
 16 17  2  0  0  0
 16 27  1  0  0  0
 17 28  1  0  0  0
 18 19  1  0  0  0
 18 29  1  0  0  0
 18 30  1  0  0  0
 19 20  1  0  0  0
 20 31  1  0  0  0
 20 32  1  0  0  0
 20 33  1  0  0  0
M  END
> <s_m_entry_id>
4929

> <s_m_entry_name>
dock_pv.248

> <s_m_Source_Path>
/home/csk/Desktop/cluster/DUD-E-result/hs90a

> <s_m_Source_File>
dock_pv.maegz

> <i_m_Source_File_Index>
248

> <chembl_id>
CHEMBL1507355

> <chembl_pref_name>
None

> <i_lp_mmshare_version>
53161

> <r_lp_tautomer_probability>
0.99999997

> <s_lp_Force_Field>
OPLS_2005

> <r_lp_Energy>
8.518155

> <b_lp_Chiralities_Consistent>
1

> <s_lp_Variant>
CHEMBL3880_lig41-1

> <s_i_glide_gridfile>
glide-grid_1uyg

> <i_i_glide_lignum>
46

> <i_i_glide_rotatable_bonds>
4

> <r_i_docking_score>
-7.960887133629

> <r_i_glide_ligand_efficiency>
-0.39804435668145

> <r_i_glide_ligand_efficiency_sa>
-1.08045861288339

> <r_i_glide_ligand_efficiency_ln>
-1.99234748191681

> <r_i_glide_gscore>
-7.960887133629

> <r_i_glide_lipo>
-3.15221165371757

> <r_i_glide_hbond>
-0.0575565692619888

> <r_i_glide_metal>
0

> <r_i_glide_rewards>
-2.71283359394241

> <r_i_glide_evdw>
-41.7621383666992

> <r_i_glide_ecoul>
-4.17892503738403

> <r_i_glide_erotb>
0.67666035723553

> <r_i_glide_esite>
0

> <r_i_glide_emodel>
-63.7005294878672

> <r_i_glide_energy>
-45.9410634040833

> <r_i_glide_einternal>
8.35727691650391

> <i_i_glide_confnum>
1

> <i_i_glide_posenum>
355

> <r_i_glide_eff_state_penalty>
0

> <s_user_duplicate_titles>
CHEMBL3880_lig41

> <i_f3d_flags>
0

> <s_m_subgroup_title>
dock_pv

> <s_m_subgroupid>
dock_pv

> <b_m_subgroup_collapsed>
1

$$$$
CHEMBL3880_lig330
                    3D
 Schrodinger Suite 2021-1.
 47 50  0  0  1  0            999 V2000
   -0.5127   10.4361   24.8089 C   0  0  0  0  0  0
   -0.1778   11.5958   24.1189 C   0  0  0  0  0  0
    1.0810   11.7376   23.5420 C   0  0  0  0  0  0
    2.0686   10.7482   23.7228 C   0  0  0  0  0  0
    1.7169    9.5553   24.3624 C   0  0  0  0  0  0
    0.4301    9.3958   24.8715 C   0  0  0  0  0  0
   -1.6640   10.3697   25.3374 O   0  5  0  0  0  0
    1.2666   12.8472   22.7640 O   0  0  0  0  0  0
    3.4922   10.8782   23.2338 C   0  0  0  0  0  0
    3.9715    9.9683   22.5528 O   0  0  0  0  0  0
    0.0623    8.0427   25.3747 N   0  3  0  0  0  0
    4.2327   11.9391   23.6461 N   0  0  0  0  0  0
    3.7474   13.0551   24.4580 C   0  0  0  0  0  0
    5.6790   12.0038   23.4247 C   0  0  0  0  0  0
    6.0979   13.2360   24.1838 C   0  0  0  0  0  0
    4.9856   13.8325   24.7669 C   0  0  0  0  0  0
    5.1185   14.9705   25.5541 C   0  0  0  0  0  0
    6.3832   15.5008   25.7680 C   0  0  0  0  0  0
    7.5103   14.9107   25.1918 C   0  0  0  0  0  0
    7.3681   13.7753   24.3921 C   0  0  0  0  0  0
    0.6674    7.7851   26.6989 C   0  0  0  0  0  0
    1.8634    7.0705   26.7644 C   0  0  0  0  0  0
    2.4246    6.8320   28.0168 C   0  0  0  0  0  0
    1.7846    7.3000   29.1692 C   0  0  0  0  0  0
    0.5798    8.0012   29.0773 C   0  0  0  0  0  0
    0.0106    8.2533   27.8345 C   0  0  0  0  0  0
    2.3989    7.0555   30.5319 C   0  0  0  0  0  0
   -0.9098   12.3837   24.0007 H   0  0  0  0  0  0
    2.4395    8.7533   24.4442 H   0  0  0  0  0  0
   -0.9452    7.9744   25.4265 H   0  0  0  0  0  0
    0.4519   13.3431   22.6631 H   0  0  0  0  0  0
    0.3337    7.3325   24.7113 H   0  0  0  0  0  0
    3.2312   12.7006   25.3521 H   0  0  0  0  0  0
    3.0628   13.6955   23.9068 H   0  0  0  0  0  0
    5.9207   12.0584   22.3670 H   0  0  0  0  0  0
    6.1579   11.1011   23.8072 H   0  0  0  0  0  0
    4.2588   15.4306   26.0191 H   0  0  0  0  0  0
    6.4698   16.3691   26.3931 H   0  0  0  0  0  0
    8.4878   15.3325   25.3709 H   0  0  0  0  0  0
    8.2438   13.3095   23.9661 H   0  0  0  0  0  0
    2.3649    6.7123   25.8755 H   0  0  0  0  0  0
    3.3594    6.2947   28.0859 H   0  0  0  0  0  0
    0.0881    8.3683   29.9662 H   0  0  0  0  0  0
   -0.9139    8.8113   27.7653 H   0  0  0  0  0  0
    1.6341    6.7663   31.2547 H   0  0  0  0  0  0
    3.1522    6.2676   30.5129 H   0  0  0  0  0  0
    2.8603    7.9740   30.8868 H   0  0  0  0  0  0
  1  2  2  0  0  0
  1  7  1  0  0  0
  1  6  1  0  0  0
  2  3  1  0  0  0
  2 28  1  0  0  0
  3  4  2  0  0  0
  3  8  1  0  0  0
  4  5  1  0  0  0
  4  9  1  0  0  0
  5 29  1  0  0  0
  5  6  2  0  0  0
  6 11  1  0  0  0
  8 31  1  0  0  0
  9 10  2  0  0  0
  9 12  1  0  0  0
 11 21  1  0  0  0
 11 30  1  0  0  0
 11 32  1  0  0  0
 12 13  1  0  0  0
 12 14  1  0  0  0
 13 16  1  0  0  0
 13 33  1  0  0  0
 13 34  1  0  0  0
 14 15  1  0  0  0
 14 35  1  0  0  0
 14 36  1  0  0  0
 15 16  2  0  0  0
 15 20  1  0  0  0
 16 17  1  0  0  0
 17 18  2  0  0  0
 17 37  1  0  0  0
 18 19  1  0  0  0
 18 38  1  0  0  0
 19 20  2  0  0  0
 19 39  1  0  0  0
 20 40  1  0  0  0
 21 22  2  0  0  0
 21 26  1  0  0  0
 22 23  1  0  0  0
 22 41  1  0  0  0
 23 24  2  0  0  0
 23 42  1  0  0  0
 24 25  1  0  0  0
 24 27  1  0  0  0
 25 26  2  0  0  0
 25 43  1  0  0  0
 26 44  1  0  0  0
 27 45  1  0  0  0
 27 46  1  0  0  0
 27 47  1  0  0  0
M  CHG  2   7  -1  11   1
M  END
> <s_m_entry_id>
4930

> <s_m_entry_name>
dock_pv.249

> <s_m_Source_Path>
/home/csk/Desktop/cluster/DUD-E-result/hs90a

> <s_m_Source_File>
dock_pv.maegz

> <i_m_Source_File_Index>
249

> <chembl_id>
CHEMBL3260493

> <chembl_pref_name>
None

> <i_lp_mmshare_version>
53161

> <r_lp_tautomer_probability>
0.998816439804576

> <s_lp_Force_Field>
OPLS_2005

> <r_lp_Energy>
25.83374

> <b_lp_Chiralities_Consistent>
1

> <s_lp_Variant>
CHEMBL3880_lig330-1

> <s_i_glide_gridfile>
glide-grid_1uyg

> <i_i_glide_lignum>
367

> <i_i_glide_rotatable_bonds>
5

> <r_i_docking_score>
-7.9556848889556

> <r_i_glide_ligand_efficiency>
-0.294654995887244

> <r_i_glide_ligand_efficiency_sa>
-0.883964986690598

> <r_i_glide_ligand_efficiency_ln>
-1.85195228243278

> <r_i_glide_gscore>
-7.9556848889556

> <r_i_glide_lipo>
-4.13772525942628

> <r_i_glide_hbond>
0

> <r_i_glide_metal>
0

> <r_i_glide_rewards>
-2.27675656541627

> <r_i_glide_evdw>
-36.7423896789551

> <r_i_glide_ecoul>
-1.96455788612366

> <r_i_glide_erotb>
0.590600102753257

> <r_i_glide_esite>
0

> <r_i_glide_emodel>
-58.05636843388

> <r_i_glide_energy>
-38.7069475650787

> <r_i_glide_einternal>
1.65437483787537

> <i_i_glide_confnum>
12

> <i_i_glide_posenum>
377

> <r_i_glide_eff_state_penalty>
0

> <s_user_duplicate_titles>
CHEMBL3880_lig330

> <i_f3d_flags>
0

> <s_m_subgroup_title>
dock_pv

> <s_m_subgroupid>
dock_pv

> <b_m_subgroup_collapsed>
1

$$$$
CHEMBL3880_lig27
                    3D
 Schrodinger Suite 2021-1.
 59 62  0  0  1  0            999 V2000
    3.5692   14.6075   24.8068 O   0  0  0  0  0  0
    9.6755   14.8409   26.8953 O   0  0  0  0  0  0
    4.2951   12.6592   23.9668 N   0  0  0  0  0  0
    1.5357   10.7630   23.5673 N   0  0  1  0  0  0
    6.0245    9.3235   23.2981 N   0  0  0  0  0  0
    6.1751   10.4651   22.6124 N   0  0  0  0  0  0
    4.6152   13.7724   24.5939 C   0  0  0  0  0  0
    3.0148   12.7902   23.6737 C   0  0  0  0  0  0
    2.5448   13.9677   24.2008 C   0  0  0  0  0  0
    5.9604   14.1573   25.1040 C   0  0  0  0  0  0
    2.2398   11.8080   22.8201 C   0  0  0  0  0  0
    2.3605    9.7130   24.2029 C   0  0  1  0  0  0
    6.0854   14.9975   26.2110 C   0  0  0  0  0  0
    7.0997   13.5616   24.5568 C   0  0  0  0  0  0
    0.4611   11.3045   24.4147 C   0  0  0  0  0  0
    8.4727   14.5713   26.2731 C   0  0  0  0  0  0
    7.3329   15.1690   26.8047 C   0  0  0  0  0  0
    8.3401   13.7440   25.1553 C   0  0  0  0  0  0
    1.2139   14.6358   24.1283 C   0  0  0  0  0  0
    1.4792    8.5962   24.8286 C   0  0  0  0  0  0
    3.5243    9.0966   23.3703 C   0  0  0  0  0  0
   -0.4673   10.1974   24.9351 C   0  0  0  0  0  0
    0.3200    9.1241   25.6899 C   0  0  0  0  0  0
    4.8556    9.1518   24.1462 C   0  0  0  0  0  0
    7.1035    8.4888   23.1736 C   0  0  0  0  0  0
    7.3542   10.3686   22.0489 C   0  0  0  0  0  0
    7.9909    9.1687   22.3652 C   0  0  0  0  0  0
   10.8700   14.2438   26.3975 C   0  0  0  0  0  0
   12.0674   14.9195   27.0614 C   0  0  0  0  0  0
    2.8607   11.3775   22.0446 H   0  0  0  0  0  0
    1.4862   12.3537   22.2508 H   0  0  0  0  0  0
    2.7682   10.2445   25.0649 H   0  0  0  0  0  0
    5.2154   15.4560   26.6583 H   0  0  0  0  0  0
    7.0163   12.8926   23.7127 H   0  0  0  0  0  0
   -0.1433   11.9922   23.8204 H   0  0  0  0  0  0
    0.8861   11.8864   25.2340 H   0  0  0  0  0  0
    7.4168   15.7795   27.6914 H   0  0  0  0  0  0
    9.1840   13.2037   24.7670 H   0  0  0  0  0  0
    0.8611   14.5446   23.1086 H   0  0  0  0  0  0
    0.4623   14.1790   24.7669 H   0  0  0  0  0  0
    1.2612   15.6861   24.3665 H   0  0  0  0  0  0
    1.0695    7.9691   24.0344 H   0  0  0  0  0  0
    2.0970    7.9554   25.4590 H   0  0  0  0  0  0
    3.6318    9.5690   22.3988 H   0  0  0  0  0  0
    3.3094    8.0581   23.1133 H   0  0  0  0  0  0
   -1.0391    9.7724   24.1095 H   0  0  0  0  0  0
   -1.2120   10.6353   25.6008 H   0  0  0  0  0  0
   -0.3372    8.3051   25.9842 H   0  0  0  0  0  0
    0.7178    9.5482   26.6135 H   0  0  0  0  0  0
    4.9762    8.2624   24.7660 H   0  0  0  0  0  0
    4.8608   10.0175   24.8066 H   0  0  0  0  0  0
    7.1424    7.5285   23.6672 H   0  0  0  0  0  0
    7.7465   11.1561   21.4235 H   0  0  0  0  0  0
    8.9523    8.8278   22.0197 H   0  0  0  0  0  0
   10.8672   13.1738   26.6116 H   0  0  0  0  0  0
   10.9642   14.3775   25.3183 H   0  0  0  0  0  0
   13.0037   14.4506   26.7593 H   0  0  0  0  0  0
   12.1086   15.9683   26.7671 H   0  0  0  0  0  0
   11.9972   14.8703   28.1490 H   0  0  0  0  0  0
  1  7  1  0  0  0
  1  9  1  0  0  0
  2 16  1  0  0  0
  2 28  1  0  0  0
  3  7  2  0  0  0
  3  8  1  0  0  0
  4 11  1  0  0  0
  4 12  1  0  0  0
  4 15  1  0  0  0
  5  6  1  0  0  0
  5 24  1  0  0  0
  5 25  1  0  0  0
  6 26  2  0  0  0
  7 10  1  0  0  0
  8  9  2  0  0  0
  8 11  1  0  0  0
  9 19  1  0  0  0
 10 13  2  0  0  0
 10 14  1  0  0  0
 11 30  1  0  0  0
 11 31  1  0  0  0
 12 20  1  0  0  0
 12 21  1  0  0  0
 12 32  1  0  0  0
 13 17  1  0  0  0
 13 33  1  0  0  0
 14 18  2  0  0  0
 14 34  1  0  0  0
 15 22  1  0  0  0
 15 35  1  0  0  0
 15 36  1  0  0  0
 16 17  2  0  0  0
 16 18  1  0  0  0
 17 37  1  0  0  0
 18 38  1  0  0  0
 19 39  1  0  0  0
 19 40  1  0  0  0
 19 41  1  0  0  0
 20 23  1  0  0  0
 20 42  1  0  0  0
 20 43  1  0  0  0
 21 24  1  0  0  0
 21 44  1  0  0  0
 21 45  1  0  0  0
 22 23  1  0  0  0
 22 46  1  0  0  0
 22 47  1  0  0  0
 23 48  1  0  0  0
 23 49  1  0  0  0
 24 50  1  0  0  0
 24 51  1  0  0  0
 25 27  2  0  0  0
 25 52  1  0  0  0
 26 27  1  0  0  0
 26 53  1  0  0  0
 27 54  1  0  0  0
 28 29  1  0  0  0
 28 55  1  0  0  0
 28 56  1  0  0  0
 29 57  1  0  0  0
 29 58  1  0  0  0
 29 59  1  0  0  0
M  END
> <s_m_entry_id>
4931

> <s_m_entry_name>
dock_pv.250

> <s_m_Source_Path>
/home/csk/Desktop/cluster/DUD-E-result/hs90a

> <s_m_Source_File>
dock_pv.maegz

> <i_m_Source_File_Index>
250

> <chembl_id>
CHEMBL1458996

> <chembl_pref_name>
None

> <i_lp_mmshare_version>
53161

> <r_lp_tautomer_probability>
1

> <s_lp_Force_Field>
OPLS_2005

> <r_lp_Energy>
29.732029

> <b_lp_Chiralities_Consistent>
1

> <s_lp_Variant>
CHEMBL3880_lig27-2

> <s_i_glide_gridfile>
glide-grid_1uyg

> <i_i_glide_lignum>
32

> <i_i_glide_rotatable_bonds>
8

> <r_i_docking_score>
-7.95366267575789

> <r_i_glide_ligand_efficiency>
-0.274264230198548

> <r_i_glide_ligand_efficiency_sa>
-0.842626608176984

> <r_i_glide_ligand_efficiency_ln>
-1.82118706526517

> <r_i_glide_gscore>
-7.95366267575789

> <r_i_glide_lipo>
-5.36075521222057

> <r_i_glide_hbond>
0

> <r_i_glide_metal>
0

> <r_i_glide_rewards>
-1.8019478484148

> <r_i_glide_evdw>
-38.0704345703125

> <r_i_glide_ecoul>
1.55650925636292

> <r_i_glide_erotb>
0.879085724938669

> <r_i_glide_esite>
0

> <r_i_glide_emodel>
-50.1357234266967

> <r_i_glide_energy>
-36.5139253139496

> <r_i_glide_einternal>
8.73340034484863

> <i_i_glide_confnum>
5

> <i_i_glide_posenum>
1

> <r_i_glide_eff_state_penalty>
0

> <s_user_duplicate_titles>
CHEMBL3880_lig27

> <i_f3d_flags>
0

> <s_m_subgroup_title>
dock_pv

> <s_m_subgroupid>
dock_pv

> <b_m_subgroup_collapsed>
1

$$$$
CHEMBL3880_lig401
                    3D
 Schrodinger Suite 2021-1.
 70 72  0  0  1  0            999 V2000
    7.9932   13.1719   24.7916 C   0  0  0  0  0  0
    7.3230   14.2729   25.3240 C   0  0  0  0  0  0
    5.9536   14.4284   25.1258 C   0  0  0  0  0  0
    5.2568   13.4794   24.3669 C   0  0  0  0  0  0
    5.9658   12.4512   23.7353 C   0  0  0  0  0  0
    7.3304   12.2625   23.9446 C   0  0  0  0  0  0
    8.0160   11.0533   23.2670 C   0  0  0  0  0  0
    7.6610   10.9272   21.7712 C   0  0  0  0  0  0
    7.7138    9.7194   23.9665 C   0  0  0  0  0  0
    9.2940   12.9981   25.1671 O   0  0  0  0  0  0
    5.3197   15.4770   25.7398 O   0  0  0  0  0  0
    3.7762   13.4145   24.2511 C   0  0  0  0  0  0
    3.0824   14.5773   24.2064 O   0  0  0  0  0  0
    1.7413   14.2909   23.9669 N   0  0  0  0  0  0
    1.6472   12.9794   23.9400 C   0  0  0  0  0  0
    2.8897   12.3535   24.1533 C   0  0  0  0  0  0
    3.1697   10.9198   24.2503 C   0  0  0  0  0  0
    0.4148   12.2908   23.7005 C   0  0  0  0  0  0
    0.1217   11.4135   24.6779 N   0  0  0  0  0  0
   -0.2611   12.4961   22.6922 O   0  0  0  0  0  0
    3.2317    9.7075   24.3863 C   0  0  0  0  0  0
    3.1438    8.2433   24.6139 C   0  0  0  0  0  0
   -1.0130   10.5078   24.7258 C   0  0  0  0  0  0
   -2.3390   11.1949   24.4516 C   0  0  0  0  0  0
    1.9433    7.6505   23.8317 C   0  0  0  0  0  0
    4.4307    7.5705   24.0953 C   0  0  0  0  0  0
    3.0386    7.9455   26.0540 N   0  0  0  0  0  0
    2.0589    8.2675   26.9287 C   0  0  0  0  0  0
    1.0656    8.9143   26.5954 O   0  0  0  0  0  0
    2.3005    7.9101   28.4173 C   0  0  0  0  0  0
    1.0250    8.1329   29.2766 C   0  0  0  0  0  0
    1.3414    7.8422   30.7583 C   0  0  0  0  0  0
    1.9081    6.4240   30.9575 C   0  0  0  0  0  0
    3.1197    6.1511   30.0427 C   0  0  0  0  0  0
    2.8154    6.4504   28.5595 C   0  0  0  0  0  0
    7.8600   14.9671   25.9534 H   0  0  0  0  0  0
    5.4376   11.7423   23.1157 H   0  0  0  0  0  0
    9.0941   11.1690   23.3178 H   0  0  0  0  0  0
    7.6610   11.8961   21.2754 H   0  0  0  0  0  0
    8.3663   10.2774   21.2539 H   0  0  0  0  0  0
    6.6725   10.4922   21.6256 H   0  0  0  0  0  0
    8.4177    9.5418   24.7705 H   0  0  0  0  0  0
    6.7027    9.7014   24.3668 H   0  0  0  0  0  0
    7.8136    8.8682   23.2930 H   0  0  0  0  0  0
    9.6788   12.2385   24.7235 H   0  0  0  0  0  0
    5.9264   16.0575   26.2065 H   0  0  0  0  0  0
    0.8199   11.2642   25.3952 H   0  0  0  0  0  0
   -0.8506    9.6993   24.0135 H   0  0  0  0  0  0
   -1.0489   10.0440   25.7111 H   0  0  0  0  0  0
   -3.1395   10.6945   24.9846 H   0  0  0  0  0  0
   -2.3388   12.2377   24.7666 H   0  0  0  0  0  0
   -2.5821   11.1820   23.3878 H   0  0  0  0  0  0
    2.0517    7.7877   22.7555 H   0  0  0  0  0  0
    1.8452    6.5782   24.0076 H   0  0  0  0  0  0
    0.9934    8.1054   24.1160 H   0  0  0  0  0  0
    4.6093    7.7817   23.0393 H   0  0  0  0  0  0
    5.3129    7.8922   24.6487 H   0  0  0  0  0  0
    4.3762    6.4866   24.1962 H   0  0  0  0  0  0
    3.8607    7.5157   26.4470 H   0  0  0  0  0  0
    3.1087    8.5834   28.7076 H   0  0  0  0  0  0
    0.2232    7.4535   28.9832 H   0  0  0  0  0  0
    0.6883    9.1691   29.2339 H   0  0  0  0  0  0
    0.4470    7.9681   31.3688 H   0  0  0  0  0  0
    2.0608    8.5755   31.1273 H   0  0  0  0  0  0
    1.1210    5.7003   30.7479 H   0  0  0  0  0  0
    2.1943    6.2858   32.0013 H   0  0  0  0  0  0
    3.4467    5.1174   30.1569 H   0  0  0  0  0  0
    3.9596    6.7690   30.3667 H   0  0  0  0  0  0
    3.7532    6.2880   28.0250 H   0  0  0  0  0  0
    2.0526    5.7334   28.2500 H   0  0  0  0  0  0
  1  2  2  0  0  0
  1  6  1  0  0  0
  1 10  1  0  0  0
  2  3  1  0  0  0
  2 36  1  0  0  0
  3  4  2  0  0  0
  3 11  1  0  0  0
  4  5  1  0  0  0
  4 12  1  0  0  0
  5  6  2  0  0  0
  5 37  1  0  0  0
  6  7  1  0  0  0
  7  8  1  0  0  0
  7  9  1  0  0  0
  7 38  1  0  0  0
  8 39  1  0  0  0
  8 40  1  0  0  0
  8 41  1  0  0  0
  9 42  1  0  0  0
  9 43  1  0  0  0
  9 44  1  0  0  0
 10 45  1  0  0  0
 11 46  1  0  0  0
 12 13  1  0  0  0
 12 16  2  0  0  0
 13 14  1  0  0  0
 14 15  2  0  0  0
 15 16  1  0  0  0
 15 18  1  0  0  0
 16 17  1  0  0  0
 17 21  3  0  0  0
 18 19  1  0  0  0
 18 20  2  0  0  0
 19 23  1  0  0  0
 19 47  1  0  0  0
 21 22  1  0  0  0
 22 25  1  0  0  0
 22 26  1  0  0  0
 22 27  1  0  0  0
 23 24  1  0  0  0
 23 48  1  0  0  0
 23 49  1  0  0  0
 24 50  1  0  0  0
 24 51  1  0  0  0
 24 52  1  0  0  0
 25 53  1  0  0  0
 25 54  1  0  0  0
 25 55  1  0  0  0
 26 56  1  0  0  0
 26 57  1  0  0  0
 26 58  1  0  0  0
 27 28  1  0  0  0
 27 59  1  0  0  0
 28 29  2  0  0  0
 28 30  1  0  0  0
 30 31  1  0  0  0
 30 35  1  0  0  0
 30 60  1  0  0  0
 31 32  1  0  0  0
 31 61  1  0  0  0
 31 62  1  0  0  0
 32 33  1  0  0  0
 32 63  1  0  0  0
 32 64  1  0  0  0
 33 34  1  0  0  0
 33 65  1  0  0  0
 33 66  1  0  0  0
 34 35  1  0  0  0
 34 67  1  0  0  0
 34 68  1  0  0  0
 35 69  1  0  0  0
 35 70  1  0  0  0
M  END
> <s_m_entry_id>
4932

> <s_m_entry_name>
dock_pv.251

> <s_m_Source_Path>
/home/csk/Desktop/cluster/DUD-E-result/hs90a

> <s_m_Source_File>
dock_pv.maegz

> <i_m_Source_File_Index>
251

> <chembl_id>
CHEMBL3600789

> <chembl_pref_name>
None

> <i_lp_mmshare_version>
53161

> <r_lp_tautomer_probability>
0.999999999898

> <s_lp_Force_Field>
OPLS_2005

> <r_lp_Energy>
22.521366

> <b_lp_Chiralities_Consistent>
1

> <s_lp_Variant>
CHEMBL3880_lig401-1

> <s_i_glide_gridfile>
glide-grid_1uyg

> <i_i_glide_lignum>
443

> <i_i_glide_rotatable_bonds>
12

> <r_i_docking_score>
-7.95360857051574

> <r_i_glide_ligand_efficiency>
-0.227245959157593

> <r_i_glide_ligand_efficiency_sa>
-0.743336600245953

> <r_i_glide_ligand_efficiency_ln>
-1.74599360205974

> <r_i_glide_gscore>
-7.95360857051574

> <r_i_glide_lipo>
-4.01683858946251

> <r_i_glide_hbond>
-0.086932708752989

> <r_i_glide_metal>
0

> <r_i_glide_rewards>
-1.39947270094212

> <r_i_glide_evdw>
-48.2917518615723

> <r_i_glide_ecoul>
-4.32065916061401

> <r_i_glide_erotb>
0.612321895812595

> <r_i_glide_esite>
0

> <r_i_glide_emodel>
-71.8519115197123

> <r_i_glide_energy>
-52.6124110221863

> <r_i_glide_einternal>
13.2410831451416

> <i_i_glide_confnum>
16

> <i_i_glide_posenum>
11

> <r_i_glide_eff_state_penalty>
0

> <s_user_duplicate_titles>
CHEMBL3880_lig401

> <i_f3d_flags>
0

> <s_m_subgroup_title>
dock_pv

> <s_m_subgroupid>
dock_pv

> <b_m_subgroup_collapsed>
1

$$$$
CHEMBL3880_lig282
                    3D
 Schrodinger Suite 2021-1.
 64 67  0  0  1  0            999 V2000
   -1.4425   11.0506   24.5786 C   0  0  0  0  0  0
   -1.3136   11.8098   23.4165 C   0  0  0  0  0  0
   -0.0488   12.1158   22.9090 C   0  0  0  0  0  0
    1.1107   11.7205   23.5976 C   0  0  0  0  0  0
    0.9685   10.9732   24.7664 C   0  0  0  0  0  0
   -0.2882   10.5889   25.2347 C   0  0  0  0  0  0
    0.0188   12.7685   21.7070 O   0  0  0  0  0  0
    2.5219   12.0928   23.1239 C   0  0  0  0  0  0
    3.5230   10.9157   23.1839 C   0  0  0  0  0  0
    3.0496   13.3076   23.9110 C   0  0  0  0  0  0
   -2.7000   10.7690   25.0514 O   0  0  0  0  0  0
   -0.3395    9.7640   26.3787 N   0  0  0  0  0  0
    0.4573    8.6795   26.7307 C   0  0  0  0  0  0
    0.0660    8.3968   28.0495 C   0  0  0  0  0  0
   -0.9566    9.1691   28.3670 N   0  0  0  0  0  0
   -1.1752   10.0776   27.3693 N   0  0  0  0  0  0
    0.6545    7.4281   28.9484 C   0  0  0  0  0  0
    0.8609    7.9086   30.1884 N   0  0  0  0  0  0
    0.9877    6.2995   28.5815 O   0  0  0  0  0  0
    1.5058    7.2042   31.2903 C   0  0  0  0  0  0
    0.5142    6.3451   32.0869 C   0  0  0  0  0  0
    1.5364    8.0773   25.8821 C   0  0  0  0  0  0
    1.3274    7.7291   24.5429 C   0  0  0  0  0  0
    2.3669    7.1722   23.7950 C   0  0  0  0  0  0
    3.6174    6.9558   24.3853 C   0  0  0  0  0  0
    3.8104    7.2845   25.7283 C   0  0  0  0  0  0
    2.7839    7.8568   26.4638 C   0  0  0  0  0  0
    4.7480    6.3000   23.5904 C   0  0  0  0  0  0
    6.0728    6.8452   23.9174 N   0  0  0  0  0  0
    7.1777    6.0009   23.4892 C   0  0  0  0  0  0
    8.4170    6.8995   23.5604 C   0  0  0  0  0  0
    7.8647    8.3213   23.4284 C   0  0  0  0  0  0
    6.3548    8.1241   23.2774 C   0  0  0  0  0  0
   -2.2037   12.1319   22.8936 H   0  0  0  0  0  0
    1.8497   10.6787   25.3184 H   0  0  0  0  0  0
   -0.8597   12.9601   21.3702 H   0  0  0  0  0  0
    2.4608   12.3692   22.0722 H   0  0  0  0  0  0
    3.1607   10.0583   22.6156 H   0  0  0  0  0  0
    3.7192   10.5805   24.2023 H   0  0  0  0  0  0
    4.4895   11.2000   22.7673 H   0  0  0  0  0  0
    2.3880   14.1673   23.8015 H   0  0  0  0  0  0
    3.1350   13.0885   24.9765 H   0  0  0  0  0  0
    4.0381   13.6112   23.5648 H   0  0  0  0  0  0
   -3.4164   11.3124   24.6825 H   0  0  0  0  0  0
    0.4175    8.7892   30.4277 H   0  0  0  0  0  0
    2.3383    6.5967   30.9282 H   0  0  0  0  0  0
    1.9503    7.9515   31.9507 H   0  0  0  0  0  0
    1.0147    5.8511   32.9194 H   0  0  0  0  0  0
   -0.2855    6.9567   32.5049 H   0  0  0  0  0  0
    0.0610    5.5774   31.4622 H   0  0  0  0  0  0
    0.3621    7.8869   24.0827 H   0  0  0  0  0  0
    2.1946    6.9032   22.7625 H   0  0  0  0  0  0
    4.7642    7.1065   26.2029 H   0  0  0  0  0  0
    2.9650    8.1226   27.4942 H   0  0  0  0  0  0
    4.7268    5.2360   23.8340 H   0  0  0  0  0  0
    4.5567    6.3785   22.5177 H   0  0  0  0  0  0
    7.2502    5.1466   24.1640 H   0  0  0  0  0  0
    7.0191    5.5692   22.4999 H   0  0  0  0  0  0
    8.9436    6.7700   24.5058 H   0  0  0  0  0  0
    9.1181    6.6623   22.7600 H   0  0  0  0  0  0
    8.2793    8.8378   22.5619 H   0  0  0  0  0  0
    8.0955    8.9195   24.3106 H   0  0  0  0  0  0
    6.0320    8.1496   22.2341 H   0  0  0  0  0  0
    5.7773    8.9028   23.7772 H   0  0  0  0  0  0
  1  2  2  0  0  0
  1  6  1  0  0  0
  1 11  1  0  0  0
  2  3  1  0  0  0
  2 34  1  0  0  0
  3  4  2  0  0  0
  3  7  1  0  0  0
  4  5  1  0  0  0
  4  8  1  0  0  0
  5  6  2  0  0  0
  5 35  1  0  0  0
  6 12  1  0  0  0
  7 36  1  0  0  0
  8  9  1  0  0  0
  8 10  1  0  0  0
  8 37  1  0  0  0
  9 38  1  0  0  0
  9 39  1  0  0  0
  9 40  1  0  0  0
 10 41  1  0  0  0
 10 42  1  0  0  0
 10 43  1  0  0  0
 11 44  1  0  0  0
 12 13  1  0  0  0
 12 16  1  0  0  0
 13 14  2  0  0  0
 13 22  1  0  0  0
 14 15  1  0  0  0
 14 17  1  0  0  0
 15 16  2  0  0  0
 17 18  1  0  0  0
 17 19  2  0  0  0
 18 20  1  0  0  0
 18 45  1  0  0  0
 20 21  1  0  0  0
 20 46  1  0  0  0
 20 47  1  0  0  0
 21 48  1  0  0  0
 21 49  1  0  0  0
 21 50  1  0  0  0
 22 23  2  0  0  0
 22 27  1  0  0  0
 23 24  1  0  0  0
 23 51  1  0  0  0
 24 25  2  0  0  0
 24 52  1  0  0  0
 25 26  1  0  0  0
 25 28  1  0  0  0
 26 27  2  0  0  0
 26 53  1  0  0  0
 27 54  1  0  0  0
 28 29  1  0  0  0
 28 55  1  0  0  0
 28 56  1  0  0  0
 29 30  1  0  0  0
 29 33  1  0  0  0
 30 31  1  0  0  0
 30 57  1  0  0  0
 30 58  1  0  0  0
 31 32  1  0  0  0
 31 59  1  0  0  0
 31 60  1  0  0  0
 32 33  1  0  0  0
 32 61  1  0  0  0
 32 62  1  0  0  0
 33 63  1  0  0  0
 33 64  1  0  0  0
M  END
> <s_m_entry_id>
4933

> <s_m_entry_name>
dock_pv.252

> <s_m_Source_Path>
/home/csk/Desktop/cluster/DUD-E-result/hs90a

> <s_m_Source_File>
dock_pv.maegz

> <i_m_Source_File_Index>
252

> <chembl_id>
CHEMBL3234769

> <chembl_pref_name>
None

> <i_lp_mmshare_version>
53161

> <r_lp_tautomer_probability>
1

> <s_lp_Force_Field>
OPLS_2005

> <r_lp_Energy>
42.713177

> <b_lp_Chiralities_Consistent>
1

> <s_lp_Variant>
CHEMBL3880_lig282-1

> <s_i_glide_gridfile>
glide-grid_1uyg

> <i_i_glide_lignum>
318

> <i_i_glide_rotatable_bonds>
10

> <r_i_docking_score>
-7.95315711454743

> <r_i_glide_ligand_efficiency>
-0.241004761046892

> <r_i_glide_ligand_efficiency_sa>
-0.773031043849377

> <r_i_glide_ligand_efficiency_ln>
-1.76874096303168

> <r_i_glide_gscore>
-7.95315711454743

> <r_i_glide_lipo>
-3.24846652327065

> <r_i_glide_hbond>
-0.456

> <r_i_glide_metal>
0

> <r_i_glide_rewards>
-0.957332342169745

> <r_i_glide_evdw>
-51.9172439575195

> <r_i_glide_ecoul>
-8.59870910644531

> <r_i_glide_erotb>
0.595031976711397

> <r_i_glide_esite>
-0.000721661975654547

> <r_i_glide_emodel>
-83.6566292411017

> <r_i_glide_energy>
-60.5159530639648

> <r_i_glide_einternal>
12.4007253646851

> <i_i_glide_confnum>
59

> <i_i_glide_posenum>
134

> <r_i_glide_eff_state_penalty>
0

> <s_user_duplicate_titles>
CHEMBL3880_lig282

> <i_f3d_flags>
0

> <s_m_subgroup_title>
dock_pv

> <s_m_subgroupid>
dock_pv

> <b_m_subgroup_collapsed>
1

$$$$
CHEMBL3880_lig350
                    3D
 Schrodinger Suite 2021-1.
 51 54  0  0  1  0            999 V2000
    3.2981    6.6257   22.9323 C   0  0  0  0  0  0
    4.0610    7.1036   21.8652 C   0  0  0  0  0  0
    4.7999    8.2783   21.9993 C   0  0  0  0  0  0
    4.8240    8.9543   23.2246 C   0  0  0  0  0  0
    4.0694    8.4657   24.2965 C   0  0  0  0  0  0
    3.3059    7.3078   24.1551 C   0  0  0  0  0  0
    2.3679    6.7557   25.5001 Cl  0  0  0  0  0  0
    5.4745    8.7690   20.9123 O   0  0  0  0  0  0
    2.5185    5.5119   22.7587 O   0  0  0  0  0  0
    5.6043   10.2063   23.3993 C   0  0  0  0  0  0
    6.9211   10.1419   23.3931 N   0  0  0  0  0  0
    7.3831   11.4351   23.6045 O   0  0  0  0  0  0
    6.2977   12.2308   23.7395 C   0  0  0  0  0  0
    5.1091   11.5139   23.5670 C   0  0  0  0  0  0
    6.5247   13.5667   23.9670 N   0  0  0  0  0  0
    3.6702   12.0026   23.5670 C   0  0  0  0  0  0
    3.3640   13.2781   24.0445 C   0  0  0  0  0  0
    2.0705   13.7914   24.0088 C   0  0  0  0  0  0
    1.0246   13.0179   23.5363 C   0  0  0  0  0  0
    1.3089   11.7447   23.0576 C   0  0  0  0  0  0
    2.6086   11.2408   23.0615 C   0  0  0  0  0  0
   -0.2387   13.5690   23.5670 O   0  0  0  0  0  0
   -1.3665   12.7919   23.1670 C   0  0  0  0  0  0
    7.2165   14.0738   25.0085 C   0  0  0  0  0  0
    6.8323   15.4933   25.5246 C   0  0  0  0  0  0
    8.1499   13.4871   25.5532 O   0  0  0  0  0  0
    5.6631   16.1882   24.7685 C   0  0  0  0  0  0
    4.4590   16.2250   25.6916 C   0  0  0  0  0  0
    4.7655   15.1997   26.7560 C   0  0  0  0  0  0
    6.2669   15.4198   26.9614 C   0  0  0  0  0  0
    4.0346    6.5911   20.9146 H   0  0  0  0  0  0
    4.0610    8.9945   25.2394 H   0  0  0  0  0  0
    5.9147    8.0455   20.4513 H   0  0  0  0  0  0
    2.3977    5.2539   21.8409 H   0  0  0  0  0  0
    5.8693   14.1825   23.5125 H   0  0  0  0  0  0
    4.1351   13.8988   24.4337 H   0  0  0  0  0  0
    1.8637   14.7869   24.3670 H   0  0  0  0  0  0
    0.5031   11.1690   22.6639 H   0  0  0  0  0  0
    2.7646   10.2642   22.6358 H   0  0  0  0  0  0
   -2.2760   13.3764   23.3091 H   0  0  0  0  0  0
   -1.3135   12.5202   22.1116 H   0  0  0  0  0  0
   -1.4658   11.8856   23.7666 H   0  0  0  0  0  0
    7.7605   16.0584   25.5155 H   0  0  0  0  0  0
    5.2890   15.6003   23.9670 H   0  0  0  0  0  0
    5.8959   17.1689   24.3670 H   0  0  0  0  0  0
    3.5420   15.9690   25.1721 H   0  0  0  0  0  0
    4.3389   17.2130   26.1343 H   0  0  0  0  0  0
    4.5744   14.1734   26.4478 H   0  0  0  0  0  0
    4.0868   15.3919   27.5670 H   0  0  0  0  0  0
    6.4174   16.3690   27.4657 H   0  0  0  0  0  0
    6.7702   14.7099   27.6049 H   0  0  0  0  0  0
  1  2  2  0  0  0
  1  6  1  0  0  0
  1  9  1  0  0  0
  2  3  1  0  0  0
  2 31  1  0  0  0
  3  4  2  0  0  0
  3  8  1  0  0  0
  4  5  1  0  0  0
  4 10  1  0  0  0
  5  6  2  0  0  0
  5 32  1  0  0  0
  6  7  1  0  0  0
  8 33  1  0  0  0
  9 34  1  0  0  0
 10 11  2  0  0  0
 10 14  1  0  0  0
 11 12  1  0  0  0
 12 13  1  0  0  0
 13 14  2  0  0  0
 13 15  1  0  0  0
 14 16  1  0  0  0
 15 24  1  0  0  0
 15 35  1  0  0  0
 16 17  2  0  0  0
 16 21  1  0  0  0
 17 18  1  0  0  0
 17 36  1  0  0  0
 18 19  2  0  0  0
 18 37  1  0  0  0
 19 20  1  0  0  0
 19 22  1  0  0  0
 20 21  2  0  0  0
 20 38  1  0  0  0
 21 39  1  0  0  0
 22 23  1  0  0  0
 23 40  1  0  0  0
 23 41  1  0  0  0
 23 42  1  0  0  0
 24 25  1  0  0  0
 24 26  2  0  0  0
 25 27  1  0  0  0
 25 30  1  0  0  0
 25 43  1  0  0  0
 27 28  1  0  0  0
 27 44  1  0  0  0
 27 45  1  0  0  0
 28 29  1  0  0  0
 28 46  1  0  0  0
 28 47  1  0  0  0
 29 30  1  0  0  0
 29 48  1  0  0  0
 29 49  1  0  0  0
 30 50  1  0  0  0
 30 51  1  0  0  0
M  END
> <s_m_entry_id>
4934

> <s_m_entry_name>
dock_pv.253

> <s_m_Source_Path>
/home/csk/Desktop/cluster/DUD-E-result/hs90a

> <s_m_Source_File>
dock_pv.maegz

> <i_m_Source_File_Index>
253

> <chembl_id>
CHEMBL3342590

> <chembl_pref_name>
None

> <i_lp_mmshare_version>
53161

> <r_lp_tautomer_probability>
0.999999999898

> <s_lp_Force_Field>
OPLS_2005

> <r_lp_Energy>
42.115513

> <b_lp_Chiralities_Consistent>
1

> <s_lp_Variant>
CHEMBL3880_lig350-1

> <s_i_glide_gridfile>
glide-grid_1uyg

> <i_i_glide_lignum>
387

> <i_i_glide_rotatable_bonds>
8

> <r_i_docking_score>
-7.9521291810387

> <r_i_glide_ligand_efficiency>
-0.26507097270129

> <r_i_glide_ligand_efficiency_sa>
-0.823637141828472

> <r_i_glide_ligand_efficiency_ln>
-1.80681039531917

> <r_i_glide_gscore>
-7.9521291810387

> <r_i_glide_lipo>
-3.94724737697165

> <r_i_glide_hbond>
-0.295221075528301

> <r_i_glide_metal>
0

> <r_i_glide_rewards>
-1.47130164326089

> <r_i_glide_evdw>
-34.3672523498535

> <r_i_glide_ecoul>
-7.06727695465088

> <r_i_glide_erotb>
0.540095075412453

> <r_i_glide_esite>
0

> <r_i_glide_emodel>
-52.003860160908

> <r_i_glide_energy>
-41.4345293045044

> <r_i_glide_einternal>
13.7027378082275

> <i_i_glide_confnum>
144

> <i_i_glide_posenum>
19

> <r_i_glide_eff_state_penalty>
0

> <s_user_duplicate_titles>
CHEMBL3880_lig350

> <i_f3d_flags>
0

> <s_m_subgroup_title>
dock_pv

> <s_m_subgroupid>
dock_pv

> <b_m_subgroup_collapsed>
1

$$$$
CHEMBL3880_lig990
                    3D
 Schrodinger Suite 2021-1.
 38 40  0  0  1  0            999 V2000
   -0.8653    9.8228   27.3623 C   0  0  0  0  0  0
    0.3419    9.1691   27.5833 C   0  0  0  0  0  0
    1.2936    9.0919   26.5699 C   0  0  0  0  0  0
    1.0371    9.6745   25.3160 C   0  0  0  0  0  0
   -0.2021   10.2912   25.0902 C   0  0  0  0  0  0
   -1.1412   10.3784   26.1163 C   0  0  0  0  0  0
    2.4632    8.4290   26.8428 O   0  0  0  0  0  0
   -1.7862    9.9082   28.3669 O   0  0  0  0  0  0
    2.0623    9.6030   24.2110 C   0  0  0  0  0  0
    2.0665    8.5575   23.5665 O   0  0  0  0  0  0
    6.5570   11.3579   23.1674 C   0  0  0  0  0  0
    7.0153   10.1232   22.7315 C   0  0  0  0  0  0
    6.1464    9.0463   22.7070 C   0  0  0  0  0  0
    4.8284    9.2047   23.1240 C   0  0  0  0  0  0
    5.2274   11.5437   23.5669 C   0  0  0  0  0  0
    4.3186   10.4511   23.5666 C   0  0  0  0  0  0
    2.9644   10.6355   24.0601 N   0  0  0  0  0  0
    2.4550   11.9981   24.4087 C   0  0  1  0  0  0
    3.6127   12.8493   24.9648 C   0  0  0  0  0  0
    4.7960   12.9288   24.0156 C   0  0  0  0  0  0
    8.2967    9.9718   22.3293 F   0  0  0  0  0  0
    1.7318   12.7050   23.2447 C   0  0  0  0  0  0
    0.5530    8.7269   28.5460 H   0  0  0  0  0  0
   -0.4490   10.7070   24.1240 H   0  0  0  0  0  0
   -2.0919   10.8617   25.9384 H   0  0  0  0  0  0
    3.0375    8.3582   26.0769 H   0  0  0  0  0  0
   -1.4506    9.5885   29.2138 H   0  0  0  0  0  0
    7.2461   12.1897   23.1770 H   0  0  0  0  0  0
    6.4956    8.0805   22.3700 H   0  0  0  0  0  0
    4.2472    8.3010   23.0868 H   0  0  0  0  0  0
    1.7519   11.9600   25.2396 H   0  0  0  0  0  0
    3.2619   13.8496   25.2215 H   0  0  0  0  0  0
    3.9435   12.4189   25.9088 H   0  0  0  0  0  0
    5.6203   13.4613   24.4927 H   0  0  0  0  0  0
    4.5043   13.5333   23.1670 H   0  0  0  0  0  0
    1.4561   13.7250   23.5171 H   0  0  0  0  0  0
    2.3710   12.7688   22.3665 H   0  0  0  0  0  0
    0.8121   12.1930   22.9642 H   0  0  0  0  0  0
  1  2  2  0  0  0
  1  6  1  0  0  0
  1  8  1  0  0  0
  2  3  1  0  0  0
  2 23  1  0  0  0
  3  4  2  0  0  0
  3  7  1  0  0  0
  4  5  1  0  0  0
  4  9  1  0  0  0
  5  6  2  0  0  0
  5 24  1  0  0  0
  6 25  1  0  0  0
  7 26  1  0  0  0
  8 27  1  0  0  0
  9 17  1  0  0  0
  9 10  2  0  0  0
 11 15  1  0  0  0
 11 12  2  0  0  0
 11 28  1  0  0  0
 12 13  1  0  0  0
 12 21  1  0  0  0
 13 14  2  0  0  0
 13 29  1  0  0  0
 14 16  1  0  0  0
 14 30  1  0  0  0
 15 16  2  0  0  0
 15 20  1  0  0  0
 16 17  1  0  0  0
 17 18  1  0  0  0
 18 19  1  0  0  0
 18 22  1  0  0  0
 18 31  1  0  0  0
 19 20  1  0  0  0
 19 32  1  0  0  0
 19 33  1  0  0  0
 20 34  1  0  0  0
 20 35  1  0  0  0
 22 36  1  0  0  0
 22 37  1  0  0  0
 22 38  1  0  0  0
M  END
> <s_m_entry_id>
4935

> <s_m_entry_name>
dock_pv.254

> <s_m_Source_Path>
/home/csk/Desktop/cluster/DUD-E-result/hs90a

> <s_m_Source_File>
dock_pv.maegz

> <i_m_Source_File_Index>
254

> <chembl_id>
CHEMBL3714988

> <chembl_pref_name>
None

> <i_lp_mmshare_version>
53161

> <r_lp_tautomer_probability>
0.999999999898

> <s_lp_Force_Field>
OPLS_2005

> <r_lp_Energy>
43.04194

> <b_lp_Chiralities_Consistent>
1

> <s_lp_Variant>
CHEMBL3880_lig990-2

> <s_i_glide_gridfile>
glide-grid_1uyg

> <i_i_glide_lignum>
1102

> <i_i_glide_rotatable_bonds>
4

> <r_i_docking_score>
-7.94188775653482

> <r_i_glide_ligand_efficiency>
-0.36099489802431

> <r_i_glide_ligand_efficiency_sa>
-1.01152190138783

> <r_i_glide_ligand_efficiency_ln>
-1.94128705509163

> <r_i_glide_gscore>
-7.94188775653482

> <r_i_glide_lipo>
-3.5032170145147

> <r_i_glide_hbond>
-0.320821087756537

> <r_i_glide_metal>
0

> <r_i_glide_rewards>
-2.25844293921462

> <r_i_glide_evdw>
-33.5563507080078

> <r_i_glide_ecoul>
-3.91209864616394

> <r_i_glide_erotb>
0.40522561727602

> <r_i_glide_esite>
0

> <r_i_glide_emodel>
-50.4626426131698

> <r_i_glide_energy>
-37.4684493541718

> <r_i_glide_einternal>
6.72836112976074

> <i_i_glide_confnum>
12

> <i_i_glide_posenum>
229

> <r_i_glide_eff_state_penalty>
0

> <s_user_duplicate_titles>
CHEMBL3880_lig990

> <i_f3d_flags>
0

> <s_m_subgroup_title>
dock_pv

> <s_m_subgroupid>
dock_pv

> <b_m_subgroup_collapsed>
1

$$$$
CHEMBL3880_lig92
                    3D
 Schrodinger Suite 2021-1.
 35 36  0  0  1  0            999 V2000
    3.9528   13.9748   24.9025 S   0  0  0  0  0  0
    5.4378   14.3828   24.2425 O   0  0  0  0  0  0
    4.0616   13.9723   26.3608 O   0  0  0  0  0  0
    2.8964   14.7521   24.2504 O   0  0  0  0  0  0
    2.2168    7.6251   23.4049 O   0  5  0  0  0  0
    4.1255    7.6891   22.3948 O   0  0  0  0  0  0
   11.6643   14.0368   26.0769 O   0  0  0  0  0  0
    3.2422    8.2121   23.0688 N   0  3  0  0  0  0
    9.9293   14.3878   27.5317 N   0  0  0  0  0  0
    3.7783   12.2747   24.3386 C   0  0  0  0  0  0
    6.5578   14.3884   25.0361 C   0  0  0  0  0  0
    2.5901   11.6024   24.6232 C   0  0  0  0  0  0
    4.7825   11.6275   23.6149 C   0  0  0  0  0  0
    3.4235    9.6211   23.4989 C   0  0  0  0  0  0
    2.4145   10.2849   24.2109 C   0  0  0  0  0  0
    4.6073   10.3107   23.1998 C   0  0  0  0  0  0
    6.6045   15.1692   26.1901 C   0  0  0  0  0  0
    7.6624   13.6180   24.6769 C   0  0  0  0  0  0
    8.8283   14.3691   26.6605 C   0  0  0  0  0  0
    7.7149   15.1299   27.0190 C   0  0  0  0  0  0
    8.7924   13.6003   25.4902 C   0  0  0  0  0  0
   11.2301   14.2406   27.2115 C   0  0  0  0  0  0
   12.2097   14.3661   28.3679 C   0  0  0  0  0  0
    9.7186   14.6987   28.4781 H   0  0  0  0  0  0
    1.7990   12.0985   25.1645 H   0  0  0  0  0  0
    5.6977   12.1327   23.3568 H   0  0  0  0  0  0
    1.4871    9.7828   24.4498 H   0  0  0  0  0  0
    5.4004    9.8273   22.6457 H   0  0  0  0  0  0
    5.7604   15.7834   26.4689 H   0  0  0  0  0  0
    7.6499   13.0260   23.7754 H   0  0  0  0  0  0
    7.6653   15.6658   27.9508 H   0  0  0  0  0  0
    9.6204   12.9636   25.2203 H   0  0  0  0  0  0
   11.7407   14.8500   29.2236 H   0  0  0  0  0  0
   13.0717   14.9640   28.0732 H   0  0  0  0  0  0
   12.5578   13.3871   28.6911 H   0  0  0  0  0  0
  1  2  1  0  0  0
  1  3  2  0  0  0
  1  4  2  0  0  0
  1 10  1  0  0  0
  2 11  1  0  0  0
  5  8  1  0  0  0
  6  8  2  0  0  0
  7 22  2  0  0  0
  8 14  1  0  0  0
  9 19  1  0  0  0
  9 22  1  0  0  0
  9 24  1  0  0  0
 10 12  2  0  0  0
 10 13  1  0  0  0
 11 17  2  0  0  0
 11 18  1  0  0  0
 12 15  1  0  0  0
 12 25  1  0  0  0
 13 16  2  0  0  0
 13 26  1  0  0  0
 14 15  2  0  0  0
 14 16  1  0  0  0
 15 27  1  0  0  0
 16 28  1  0  0  0
 17 20  1  0  0  0
 17 29  1  0  0  0
 18 21  2  0  0  0
 18 30  1  0  0  0
 19 20  2  0  0  0
 19 21  1  0  0  0
 20 31  1  0  0  0
 21 32  1  0  0  0
 22 23  1  0  0  0
 23 33  1  0  0  0
 23 34  1  0  0  0
 23 35  1  0  0  0
M  CHG  2   5  -1   8   1
M  END
> <s_m_entry_id>
4936

> <s_m_entry_name>
dock_pv.255

> <s_m_Source_Path>
/home/csk/Desktop/cluster/DUD-E-result/hs90a

> <s_m_Source_File>
dock_pv.maegz

> <i_m_Source_File_Index>
255

> <chembl_id>
CHEMBL1430889

> <chembl_pref_name>
None

> <i_lp_mmshare_version>
53161

> <r_lp_tautomer_probability>
1

> <s_lp_Force_Field>
OPLS_2005

> <r_lp_Energy>
18.062647

> <b_lp_Chiralities_Consistent>
1

> <s_lp_Variant>
CHEMBL3880_lig92-1

> <s_i_glide_gridfile>
glide-grid_1uyg

> <i_i_glide_lignum>
103

> <i_i_glide_rotatable_bonds>
6

> <r_i_docking_score>
-7.94007364270794

> <r_i_glide_ligand_efficiency>
-0.345220593161215

> <r_i_glide_ligand_efficiency_sa>
-0.981761444629848

> <r_i_glide_ligand_efficiency_ln>
-1.91998180341403

> <r_i_glide_gscore>
-7.94007364270794

> <r_i_glide_lipo>
-2.86438552826587

> <r_i_glide_hbond>
-0.32

> <r_i_glide_metal>
0

> <r_i_glide_rewards>
-2.86688213632711

> <r_i_glide_evdw>
-36.3086738586426

> <r_i_glide_ecoul>
-4.94135189056396

> <r_i_glide_erotb>
0.667830498401766

> <r_i_glide_esite>
0

> <r_i_glide_emodel>
-59.4969119633982

> <r_i_glide_energy>
-41.2500257492065

> <r_i_glide_einternal>
3.60287356376648

> <i_i_glide_confnum>
24

> <i_i_glide_posenum>
273

> <r_i_glide_eff_state_penalty>
0

> <s_user_duplicate_titles>
CHEMBL3880_lig92

> <i_f3d_flags>
0

> <s_m_subgroup_title>
dock_pv

> <s_m_subgroupid>
dock_pv

> <b_m_subgroup_collapsed>
1

$$$$
CHEMBL3880_lig929
                    3D
 Schrodinger Suite 2021-1.
 53 57  0  0  1  0            999 V2000
    5.7349    9.9099   22.4763 N   0  0  0  0  0  0
    4.6653    9.1019   22.2966 C   0  0  0  0  0  0
    3.4146    9.3284   22.7718 N   0  0  0  0  0  0
    3.2075   10.4792   23.4773 C   0  0  0  0  0  0
    4.8609    7.9546   21.5433 N   0  0  0  0  0  0
    1.8421   10.6280   24.0590 C   0  0  0  0  0  0
    0.9727   11.6671   23.6764 C   0  0  0  0  0  0
   -0.2906   11.7926   24.2592 C   0  0  0  0  0  0
   -0.7147   10.8842   25.2236 C   0  0  0  0  0  0
    0.1180    9.8358   25.5922 C   0  0  0  0  0  0
    1.3752    9.6823   24.9943 C   0  0  0  0  0  0
    2.1636    8.6088   25.3365 O   0  0  0  0  0  0
    1.3823   12.7676   22.4090 Cl  0  0  0  0  0  0
    1.5957    7.3143   25.1056 C   0  0  0  0  0  0
    2.1385    6.2939   26.1211 C   0  0  0  0  0  0
    1.9264    6.7502   27.4883 N   0  0  0  0  0  0
   -2.2798   11.0302   25.9372 Cl  0  0  0  0  0  0
    5.4947   11.0548   23.1615 C   0  0  0  0  0  0
    4.2497   11.4098   23.6596 C   0  0  0  0  0  0
    4.3349   12.7805   24.3076 C   0  0  0  0  0  0
    5.7429   13.1689   24.1020 N   0  0  0  0  0  0
    6.5131   12.1230   23.4075 C   0  0  0  0  0  0
    6.3102   14.2084   24.7678 C   0  0  0  0  0  0
    7.6499   14.1306   24.8886 N   0  0  0  0  0  0
    5.6466   15.1121   25.2782 O   0  0  0  0  0  0
    0.7905    6.6412   28.2527 C   0  0  0  0  0  0
    1.0833    7.3051   29.4295 C   0  0  0  0  0  0
    2.3837    7.7848   29.2575 C   0  0  0  0  0  0
    2.8885    7.4624   28.0905 N   0  0  0  0  0  0
    8.4979   15.0270   25.6590 C   0  0  0  0  0  0
    8.3933   15.0241   27.1670 C   0  0  0  0  0  0
    9.6055   14.4236   26.4898 C   0  0  0  0  0  0
    4.0688    7.3515   21.3746 H   0  0  0  0  0  0
    5.8008    7.6820   21.2660 H   0  0  0  0  0  0
   -0.9567   12.5876   23.9541 H   0  0  0  0  0  0
   -0.2129    9.1287   26.3389 H   0  0  0  0  0  0
    0.5021    7.3000   25.1330 H   0  0  0  0  0  0
    1.8674    7.0038   24.0956 H   0  0  0  0  0  0
    1.6536    5.3246   25.9982 H   0  0  0  0  0  0
    3.2068    6.1328   25.9601 H   0  0  0  0  0  0
    4.0636   12.7723   25.3661 H   0  0  0  0  0  0
    3.6897   13.5128   23.8193 H   0  0  0  0  0  0
    6.9364   12.5050   22.4774 H   0  0  0  0  0  0
    7.3431   11.7486   24.0076 H   0  0  0  0  0  0
    8.1236   13.4622   24.2999 H   0  0  0  0  0  0
   -0.0873    6.1265   27.8921 H   0  0  0  0  0  0
    0.4579    7.4539   30.2965 H   0  0  0  0  0  0
    2.9501    8.3683   29.9668 H   0  0  0  0  0  0
    8.6859   15.9697   25.1580 H   0  0  0  0  0  0
    7.6587   14.3701   27.6393 H   0  0  0  0  0  0
    8.4970   15.9681   27.6983 H   0  0  0  0  0  0
   10.5563   14.9559   26.5457 H   0  0  0  0  0  0
    9.7345   13.3382   26.4940 H   0  0  0  0  0  0
  1 18  1  0  0  0
  1  2  2  0  0  0
  2  5  1  0  0  0
  2  3  1  0  0  0
  3  4  2  0  0  0
  4 19  1  0  0  0
  4  6  1  0  0  0
  5 33  1  0  0  0
  5 34  1  0  0  0
  6 11  1  0  0  0
  6  7  2  0  0  0
  7  8  1  0  0  0
  7 13  1  0  0  0
  8  9  2  0  0  0
  8 35  1  0  0  0
  9 17  1  0  0  0
  9 10  1  0  0  0
 10 11  2  0  0  0
 10 36  1  0  0  0
 11 12  1  0  0  0
 12 14  1  0  0  0
 14 15  1  0  0  0
 14 37  1  0  0  0
 14 38  1  0  0  0
 15 16  1  0  0  0
 15 39  1  0  0  0
 15 40  1  0  0  0
 16 26  1  0  0  0
 16 29  1  0  0  0
 18 19  2  0  0  0
 18 22  1  0  0  0
 19 20  1  0  0  0
 20 21  1  0  0  0
 20 41  1  0  0  0
 20 42  1  0  0  0
 21 22  1  0  0  0
 21 23  1  0  0  0
 22 43  1  0  0  0
 22 44  1  0  0  0
 23 24  1  0  0  0
 23 25  2  0  0  0
 24 30  1  0  0  0
 24 45  1  0  0  0
 26 27  2  0  0  0
 26 46  1  0  0  0
 27 28  1  0  0  0
 27 47  1  0  0  0
 28 29  2  0  0  0
 28 48  1  0  0  0
 30 31  1  0  0  0
 30 32  1  0  0  0
 30 49  1  0  0  0
 31 32  1  0  0  0
 31 50  1  0  0  0
 31 51  1  0  0  0
 32 52  1  0  0  0
 32 53  1  0  0  0
M  END
> <s_m_entry_id>
4937

> <s_m_entry_name>
dock_pv.256

> <s_m_Source_Path>
/home/csk/Desktop/cluster/DUD-E-result/hs90a

> <s_m_Source_File>
dock_pv.maegz

> <i_m_Source_File_Index>
256

> <chembl_id>
CHEMBL1774922

> <chembl_pref_name>
None

> <i_lp_mmshare_version>
53161

> <r_lp_tautomer_probability>
0.999999987636

> <s_lp_Force_Field>
OPLS_2005

> <r_lp_Energy>
47.630642

> <b_lp_Chiralities_Consistent>
1

> <s_lp_Variant>
CHEMBL3880_lig929-1

> <s_i_glide_gridfile>
glide-grid_1uyg

> <i_i_glide_lignum>
1035

> <i_i_glide_rotatable_bonds>
8

> <r_i_docking_score>
-7.93508101518495

> <r_i_glide_ligand_efficiency>
-0.24797128172453

> <r_i_glide_ligand_efficiency_sa>
-0.787259746025365

> <r_i_glide_ligand_efficiency_ln>
-1.77688094143905

> <r_i_glide_gscore>
-7.93508101518495

> <r_i_glide_lipo>
-3.65402395802391

> <r_i_glide_hbond>
-0.32

> <r_i_glide_metal>
0

> <r_i_glide_rewards>
-1.52817001522214

> <r_i_glide_evdw>
-49.8708076477051

> <r_i_glide_ecoul>
-3.60420393943787

> <r_i_glide_erotb>
0.629507726683647

> <r_i_glide_esite>
-0.0282237953216152

> <r_i_glide_emodel>
-73.9890181298197

> <r_i_glide_energy>
-53.4750115871429

> <r_i_glide_einternal>
6.34322118759155

> <i_i_glide_confnum>
41

> <i_i_glide_posenum>
79

> <r_i_glide_eff_state_penalty>
0

> <s_user_duplicate_titles>
CHEMBL3880_lig929

> <i_f3d_flags>
0

> <s_m_subgroup_title>
dock_pv

> <s_m_subgroupid>
dock_pv

> <b_m_subgroup_collapsed>
1

$$$$
CHEMBL3880_lig47
                    3D
 Schrodinger Suite 2021-1.
 38 41  0  0  1  0            999 V2000
    0.2960   10.7511   24.8709 S   0  0  0  0  0  0
    0.5610   12.1741   25.0877 O   0  0  0  0  0  0
   -0.7881   10.3737   23.9670 O   0  0  0  0  0  0
    3.2590    8.3544   25.6332 O   0  0  0  0  0  0
    4.5819    9.0631   22.6738 O   0  0  0  0  0  0
    3.6615   14.6099   24.7974 O   0  0  0  0  0  0
    6.5315   14.7595   24.8734 O   0  0  0  0  0  0
    1.7908    9.8654   24.5562 N   0  0  0  0  0  0
    0.0903    9.8884   26.4032 C   0  0  0  0  0  0
    1.1756    9.0622   26.6751 C   0  0  0  0  0  0
    2.2292    9.0277   25.6159 C   0  0  0  0  0  0
    2.4048    9.8973   23.1912 C   0  0  0  0  0  0
   -1.0251    9.9694   27.2279 C   0  0  0  0  0  0
    1.1720    8.3151   27.8537 C   0  0  0  0  0  0
    3.9435   10.0171   23.1196 C   0  0  0  0  0  0
    4.5931   11.2908   23.5670 C   0  0  0  0  0  0
   -1.0354    9.1693   28.3670 C   0  0  0  0  0  0
    0.0628    8.3682   28.6974 C   0  0  0  0  0  0
    4.4620   13.5693   24.3812 C   0  0  0  0  0  0
    3.8336   12.4012   23.9670 C   0  0  0  0  0  0
    5.8609   13.6647   24.3671 C   0  0  0  0  0  0
    5.9961   11.3969   23.5642 C   0  0  0  0  0  0
    6.6292   12.5784   23.9566 C   0  0  0  0  0  0
    4.2993   15.4318   25.7730 C   0  0  0  0  0  0
    5.6983   15.8595   25.2660 C   0  0  0  0  0  0
    1.9529   10.6971   22.6051 H   0  0  0  0  0  0
    2.1152    8.9627   22.7107 H   0  0  0  0  0  0
   -1.8755   10.5940   26.9923 H   0  0  0  0  0  0
    2.0034    7.6738   28.1115 H   0  0  0  0  0  0
   -1.8885    9.1922   29.0285 H   0  0  0  0  0  0
    0.0609    7.7886   29.6088 H   0  0  0  0  0  0
    2.7563   12.3861   23.9774 H   0  0  0  0  0  0
    6.6119   10.5612   23.2604 H   0  0  0  0  0  0
    7.7075   12.6393   23.9689 H   0  0  0  0  0  0
    3.6672   16.2989   25.9711 H   0  0  0  0  0  0
    4.4041   14.8795   26.7094 H   0  0  0  0  0  0
    5.6034   16.5589   24.4344 H   0  0  0  0  0  0
    6.2183   16.3690   26.0726 H   0  0  0  0  0  0
  1  2  2  0  0  0
  1  3  2  0  0  0
  1  8  1  0  0  0
  1  9  1  0  0  0
  4 11  2  0  0  0
  5 15  2  0  0  0
  6 19  1  0  0  0
  6 24  1  0  0  0
  7 21  1  0  0  0
  7 25  1  0  0  0
  8 11  1  0  0  0
  8 12  1  0  0  0
  9 10  1  0  0  0
  9 13  2  0  0  0
 10 11  1  0  0  0
 10 14  2  0  0  0
 12 15  1  0  0  0
 12 26  1  0  0  0
 12 27  1  0  0  0
 13 17  1  0  0  0
 13 28  1  0  0  0
 14 18  1  0  0  0
 14 29  1  0  0  0
 15 16  1  0  0  0
 16 20  1  0  0  0
 16 22  2  0  0  0
 17 18  2  0  0  0
 17 30  1  0  0  0
 18 31  1  0  0  0
 19 20  2  0  0  0
 19 21  1  0  0  0
 20 32  1  0  0  0
 21 23  2  0  0  0
 22 23  1  0  0  0
 22 33  1  0  0  0
 23 34  1  0  0  0
 24 25  1  0  0  0
 24 35  1  0  0  0
 24 36  1  0  0  0
 25 37  1  0  0  0
 25 38  1  0  0  0
M  END
> <s_m_entry_id>
4938

> <s_m_entry_name>
dock_pv.257

> <s_m_Source_Path>
/home/csk/Desktop/cluster/DUD-E-result/hs90a

> <s_m_Source_File>
dock_pv.maegz

> <i_m_Source_File_Index>
257

> <chembl_id>
CHEMBL1607801

> <chembl_pref_name>
None

> <i_lp_mmshare_version>
53161

> <r_lp_tautomer_probability>
0.99990000499975

> <s_lp_Force_Field>
OPLS_2005

> <r_lp_Energy>
34.118489

> <b_lp_Chiralities_Consistent>
1

> <s_lp_Variant>
CHEMBL3880_lig47-1

> <s_i_glide_gridfile>
glide-grid_1uyg

> <i_i_glide_lignum>
52

> <i_i_glide_rotatable_bonds>
3

> <r_i_docking_score>
-7.93474675924721

> <r_i_glide_ligand_efficiency>
-0.317389870369888

> <r_i_glide_ligand_efficiency_sa>
-0.928053609894873

> <r_i_glide_ligand_efficiency_ln>
-1.88077276711388

> <r_i_glide_gscore>
-7.93474675924721

> <r_i_glide_lipo>
-3.69743116673299

> <r_i_glide_hbond>
0

> <r_i_glide_metal>
0

> <r_i_glide_rewards>
-2.79434260495967

> <r_i_glide_evdw>
-38.2782211303711

> <r_i_glide_ecoul>
0.171165272593498

> <r_i_glide_erotb>
0.445263278074978

> <r_i_glide_esite>
0

> <r_i_glide_emodel>
-53.9925149064867

> <r_i_glide_energy>
-38.1070558577776

> <r_i_glide_einternal>
1.37976276874542

> <i_i_glide_confnum>
27

> <i_i_glide_posenum>
8

> <r_i_glide_eff_state_penalty>
0

> <s_user_duplicate_titles>
CHEMBL3880_lig47

> <i_f3d_flags>
0

> <s_m_subgroup_title>
dock_pv

> <s_m_subgroupid>
dock_pv

> <b_m_subgroup_collapsed>
1

$$$$
CHEMBL3880_lig435
                    3D
 Schrodinger Suite 2021-1.
 41 43  0  0  1  0            999 V2000
    2.0399   12.0159   24.1608 C   0  0  0  0  0  0
    1.3175   13.0044   23.9971 O   0  0  0  0  0  0
    3.5489   12.2218   24.1043 C   0  0  0  0  0  0
    4.4556   11.2843   23.5670 C   0  0  0  0  0  0
    5.8193   11.5690   23.5139 C   0  0  0  0  0  0
    6.3104   12.7896   23.9670 C   0  0  0  0  0  0
    5.4358   13.7472   24.5086 C   0  0  0  0  0  0
    4.0633   13.4518   24.5432 C   0  0  0  0  0  0
    5.9865   15.0662   25.0909 C   0  0  0  0  0  0
    6.7862   14.8535   26.3901 C   0  0  0  0  0  0
    4.9303   16.1631   25.3099 C   0  0  0  0  0  0
    7.6608   13.0207   23.8972 O   0  0  0  0  0  0
    4.0547   10.1097   22.9848 O   0  0  0  0  0  0
    2.1952    9.7577   25.2114 C   0  0  0  0  0  0
    1.3359    9.3526   26.4078 C   0  0  0  0  0  0
    0.0328    9.8278   26.5703 C   0  0  0  0  0  0
   -0.6110   10.8205   25.6263 C   0  0  0  0  0  0
    0.0453   10.5882   24.2512 C   0  0  0  0  0  0
    1.5140   10.7713   24.3599 N   0  0  0  0  0  0
    1.7032    8.4744   27.4359 C   0  0  0  0  0  0
    0.6922    8.2805   28.3670 C   0  0  0  0  0  0
   -0.7390    9.1690   27.9670 S   0  0  0  0  0  0
    6.4947   10.8402   23.0903 H   0  0  0  0  0  0
    3.3719   14.1755   24.9477 H   0  0  0  0  0  0
    6.6840   15.4555   24.3479 H   0  0  0  0  0  0
    7.4212   13.9690   26.3551 H   0  0  0  0  0  0
    6.1258   14.7690   27.2532 H   0  0  0  0  0  0
    7.4434   15.6990   26.5803 H   0  0  0  0  0  0
    4.4610   16.4022   24.3670 H   0  0  0  0  0  0
    4.1655   15.8780   26.0328 H   0  0  0  0  0  0
    5.3633   17.0855   25.6742 H   0  0  0  0  0  0
    8.1519   12.3120   23.4735 H   0  0  0  0  0  0
    3.1018    9.9938   23.0098 H   0  0  0  0  0  0
    2.5048    8.8919   24.6256 H   0  0  0  0  0  0
    3.1345   10.1361   25.6179 H   0  0  0  0  0  0
   -0.4819   11.8498   25.9600 H   0  0  0  0  0  0
   -1.6877   10.6575   25.5591 H   0  0  0  0  0  0
   -0.3887   11.1690   23.4349 H   0  0  0  0  0  0
   -0.1385    9.5515   23.9670 H   0  0  0  0  0  0
    2.6722    8.0009   27.4991 H   0  0  0  0  0  0
    0.7181    7.6689   29.2569 H   0  0  0  0  0  0
  1  2  2  0  0  0
  1  3  1  0  0  0
  1 19  1  0  0  0
  3  4  1  0  0  0
  3  8  2  0  0  0
  4  5  2  0  0  0
  4 13  1  0  0  0
  5  6  1  0  0  0
  5 23  1  0  0  0
  6  7  2  0  0  0
  6 12  1  0  0  0
  7  8  1  0  0  0
  7  9  1  0  0  0
  8 24  1  0  0  0
  9 10  1  0  0  0
  9 11  1  0  0  0
  9 25  1  0  0  0
 10 26  1  0  0  0
 10 27  1  0  0  0
 10 28  1  0  0  0
 11 29  1  0  0  0
 11 30  1  0  0  0
 11 31  1  0  0  0
 12 32  1  0  0  0
 13 33  1  0  0  0
 14 15  1  0  0  0
 14 19  1  0  0  0
 14 34  1  0  0  0
 14 35  1  0  0  0
 15 16  2  0  0  0
 15 20  1  0  0  0
 16 17  1  0  0  0
 16 22  1  0  0  0
 17 18  1  0  0  0
 17 36  1  0  0  0
 17 37  1  0  0  0
 18 19  1  0  0  0
 18 38  1  0  0  0
 18 39  1  0  0  0
 20 21  2  0  0  0
 20 40  1  0  0  0
 21 22  1  0  0  0
 21 41  1  0  0  0
M  END
> <s_m_entry_id>
4939

> <s_m_entry_name>
dock_pv.258

> <s_m_Source_Path>
/home/csk/Desktop/cluster/DUD-E-result/hs90a

> <s_m_Source_File>
dock_pv.maegz

> <i_m_Source_File_Index>
258

> <chembl_id>
CHEMBL3935883

> <chembl_pref_name>
None

> <i_lp_mmshare_version>
53161

> <r_lp_tautomer_probability>
0.999999999898

> <s_lp_Force_Field>
OPLS_2005

> <r_lp_Energy>
28.322313

> <b_lp_Chiralities_Consistent>
1

> <s_lp_Variant>
CHEMBL3880_lig435-1

> <s_i_glide_gridfile>
glide-grid_1uyg

> <i_i_glide_lignum>
477

> <i_i_glide_rotatable_bonds>
5

> <r_i_docking_score>
-7.93360738440871

> <r_i_glide_ligand_efficiency>
-0.360618517473123

> <r_i_glide_ligand_efficiency_sa>
-1.0104672682812

> <r_i_glide_ligand_efficiency_ln>
-1.9392630301101

> <r_i_glide_gscore>
-7.93360738440871

> <r_i_glide_lipo>
-4.12120378145597

> <r_i_glide_hbond>
-0.0367390215757741

> <r_i_glide_metal>
0

> <r_i_glide_rewards>
-2.10972972217188

> <r_i_glide_evdw>
-34.6558647155762

> <r_i_glide_ecoul>
-2.01995706558228

> <r_i_glide_erotb>
0.36985193641107

> <r_i_glide_esite>
0

> <r_i_glide_emodel>
-50.9104009971469

> <r_i_glide_energy>
-36.6758217811584

> <r_i_glide_einternal>
2.56773042678833

> <i_i_glide_confnum>
16

> <i_i_glide_posenum>
337

> <r_i_glide_eff_state_penalty>
0

> <s_user_duplicate_titles>
CHEMBL3880_lig435

> <i_f3d_flags>
0

> <s_m_subgroup_title>
dock_pv

> <s_m_subgroupid>
dock_pv

> <b_m_subgroup_collapsed>
1

$$$$
CHEMBL3880_lig222
                    3D
 Schrodinger Suite 2021-1.
 43 45  0  0  1  0            999 V2000
    5.0653   13.7612   24.3670 C   0  0  0  0  0  0
    6.2770   13.1693   23.9691 C   0  0  0  0  0  0
    6.3013   11.8290   23.5564 C   0  0  0  0  0  0
    3.8796   13.0208   24.3686 C   0  0  0  0  0  0
    3.9301   11.6850   23.9666 C   0  0  0  0  0  0
    5.1070   11.1135   23.5671 C   0  0  0  0  0  0
    4.8148    9.8146   23.2390 N   0  0  0  0  0  0
    3.5100    9.5363   23.4269 C   0  0  0  0  0  0
    2.9606   10.7020   23.8686 N   0  0  0  0  0  0
    2.9589    8.4535   23.2426 O   0  0  0  0  0  0
    1.6271   10.8570   24.2820 C   0  0  0  0  0  0
    1.1895   10.1811   25.4281 C   0  0  0  0  0  0
   -0.1329   10.2967   25.8515 C   0  0  0  0  0  0
   -1.0319   11.0764   25.1156 C   0  0  0  0  0  0
   -0.5988   11.7636   23.9809 C   0  0  0  0  0  0
    0.7308   11.6694   23.5671 C   0  0  0  0  0  0
    1.1300   12.3693   22.4557 O   0  0  0  0  0  0
   -0.6281    9.4682   27.2891 Cl  0  0  0  0  0  0
   -2.3391   11.1688   25.5050 O   0  0  0  0  0  0
    7.5592   13.9799   24.0064 C   0  0  0  0  0  0
    8.4611   13.5448   25.0761 N   0  0  0  0  0  0
    9.2577   14.3538   25.7871 C   0  0  0  0  0  0
    9.1049   15.5692   25.8543 O   0  0  0  0  0  0
   10.2662   13.6938   26.3777 N   0  0  0  0  0  0
   11.2416   14.3084   27.2823 C   0  0  0  0  0  0
   11.1772   13.7230   28.6970 C   0  0  0  0  0  0
    5.0430   14.7937   24.6857 H   0  0  0  0  0  0
    7.2287   11.3684   23.2480 H   0  0  0  0  0  0
    2.9565   13.4816   24.6891 H   0  0  0  0  0  0
    5.4825    9.1290   22.9181 H   0  0  0  0  0  0
    1.8758    9.5648   25.9931 H   0  0  0  0  0  0
   -1.2921   12.3725   23.4190 H   0  0  0  0  0  0
    2.0864   12.4425   22.4057 H   0  0  0  0  0  0
   -2.9460   11.5693   24.8682 H   0  0  0  0  0  0
    7.3308   15.0463   24.0730 H   0  0  0  0  0  0
    8.0611   13.8545   23.0495 H   0  0  0  0  0  0
    8.6070   12.5497   25.1468 H   0  0  0  0  0  0
   10.4184   12.7243   26.1432 H   0  0  0  0  0  0
   11.1286   15.3939   27.3421 H   0  0  0  0  0  0
   12.2358   14.1438   26.8652 H   0  0  0  0  0  0
   11.6607   14.3964   29.4023 H   0  0  0  0  0  0
   11.6948   12.7701   28.7647 H   0  0  0  0  0  0
   10.1510   13.5689   29.0324 H   0  0  0  0  0  0
  1  2  2  0  0  0
  1  4  1  0  0  0
  1 27  1  0  0  0
  2  3  1  0  0  0
  2 20  1  0  0  0
  3  6  2  0  0  0
  3 28  1  0  0  0
  4  5  2  0  0  0
  4 29  1  0  0  0
  5  9  1  0  0  0
  5  6  1  0  0  0
  6  7  1  0  0  0
  7  8  1  0  0  0
  7 30  1  0  0  0
  8  9  1  0  0  0
  8 10  2  0  0  0
  9 11  1  0  0  0
 11 16  1  0  0  0
 11 12  2  0  0  0
 12 13  1  0  0  0
 12 31  1  0  0  0
 13 14  2  0  0  0
 13 18  1  0  0  0
 14 15  1  0  0  0
 14 19  1  0  0  0
 15 16  2  0  0  0
 15 32  1  0  0  0
 16 17  1  0  0  0
 17 33  1  0  0  0
 19 34  1  0  0  0
 20 21  1  0  0  0
 20 35  1  0  0  0
 20 36  1  0  0  0
 21 22  1  0  0  0
 21 37  1  0  0  0
 22 23  2  0  0  0
 22 24  1  0  0  0
 24 25  1  0  0  0
 24 38  1  0  0  0
 25 26  1  0  0  0
 25 39  1  0  0  0
 25 40  1  0  0  0
 26 41  1  0  0  0
 26 42  1  0  0  0
 26 43  1  0  0  0
M  END
> <s_m_entry_id>
4940

> <s_m_entry_name>
dock_pv.259

> <s_m_Source_Path>
/home/csk/Desktop/cluster/DUD-E-result/hs90a

> <s_m_Source_File>
dock_pv.maegz

> <i_m_Source_File_Index>
259

> <chembl_id>
CHEMBL1801575

> <chembl_pref_name>
None

> <i_lp_mmshare_version>
53161

> <r_lp_tautomer_probability>
1

> <s_lp_Force_Field>
OPLS_2005

> <r_lp_Energy>
57.328139

> <b_lp_Chiralities_Consistent>
1

> <s_lp_Variant>
CHEMBL3880_lig222-1

> <s_i_glide_gridfile>
glide-grid_1uyg

> <i_i_glide_lignum>
256

> <i_i_glide_rotatable_bonds>
8

> <r_i_docking_score>
-7.92773238981478

> <r_i_glide_ligand_efficiency>
-0.304912784223645

> <r_i_glide_ligand_efficiency_sa>
-0.903302923488678

> <r_i_glide_ligand_efficiency_ln>
-1.86180193873631

> <r_i_glide_gscore>
-7.92773238981478

> <r_i_glide_lipo>
-3.75527140431116

> <r_i_glide_hbond>
-0.145335187813349

> <r_i_glide_metal>
0

> <r_i_glide_rewards>
-1.82151161530717

> <r_i_glide_evdw>
-48.4530754089355

> <r_i_glide_ecoul>
-3.09886717796326

> <r_i_glide_erotb>
0.681869664758169

> <r_i_glide_esite>
0

> <r_i_glide_emodel>
-73.0813410053046

> <r_i_glide_energy>
-51.5519425868988

> <r_i_glide_einternal>
2.998774766922

> <i_i_glide_confnum>
7

> <i_i_glide_posenum>
338

> <r_i_glide_eff_state_penalty>
0

> <s_user_duplicate_titles>
CHEMBL3880_lig222

> <i_f3d_flags>
0

> <s_m_subgroup_title>
dock_pv

> <s_m_subgroupid>
dock_pv

> <b_m_subgroup_collapsed>
1

$$$$
CHEMBL3880_lig83
                    3D
 Schrodinger Suite 2021-1.
 33 35  0  0  1  0            999 V2000
    9.5491   13.7533   25.1684 F   0  0  0  0  0  0
    8.8607   15.5690   24.2351 F   0  0  0  0  0  0
    8.4053   15.1693   26.3172 F   0  0  0  0  0  0
    2.2547   10.2984   23.2878 O   0  0  0  0  0  0
   -1.9390   11.5704   24.2703 O   0  0  0  0  0  0
   -2.4821   10.7688   26.3318 O   0  0  0  0  0  0
   -0.7532   11.6382   23.5041 N   0  0  0  0  0  0
    2.4270   12.3193   24.2056 N   0  0  0  0  0  0
    3.5774   10.7116   23.1671 N   0  0  0  0  0  0
    0.2623   11.1873   24.3257 C   0  0  0  0  0  0
    1.6441   11.3147   23.9382 C   0  0  0  0  0  0
   -0.2498   10.6527   25.4399 C   0  0  0  0  0  0
    3.5892   11.8954   23.7496 C   0  0  0  0  0  0
   -1.6696   10.9563   25.4290 C   0  0  0  0  0  0
    4.8526   12.6732   23.9670 C   0  0  0  0  0  0
    7.2418   13.9646   24.6536 C   0  0  0  0  0  0
    8.5400   14.6215   25.1094 C   0  0  0  0  0  0
    6.0836   12.1364   23.5697 C   0  0  0  0  0  0
    4.8278   13.8997   24.6497 C   0  0  0  0  0  0
    7.2667   12.7687   23.9296 C   0  0  0  0  0  0
    6.0144   14.5409   24.9909 C   0  0  0  0  0  0
    0.3789    9.9708   26.6400 C   0  0  0  0  0  0
   -0.7632   12.9392   22.8523 C   0  0  0  0  0  0
    6.1371   11.1960   23.0409 H   0  0  0  0  0  0
    3.8921   14.3418   24.9601 H   0  0  0  0  0  0
    8.2022   12.3044   23.6576 H   0  0  0  0  0  0
    5.9775   15.4702   25.5423 H   0  0  0  0  0  0
    1.4607   10.1040   26.6439 H   0  0  0  0  0  0
   -0.0211   10.3716   27.5670 H   0  0  0  0  0  0
    0.1695    8.9015   26.6137 H   0  0  0  0  0  0
    0.0911   13.0338   22.1820 H   0  0  0  0  0  0
   -1.6699   13.0613   22.2570 H   0  0  0  0  0  0
   -0.7173   13.7502   23.5773 H   0  0  0  0  0  0
  1 17  1  0  0  0
  2 17  1  0  0  0
  3 17  1  0  0  0
  4  9  1  0  0  0
  4 11  1  0  0  0
  5  7  1  0  0  0
  5 14  1  0  0  0
  6 14  2  0  0  0
  7 10  1  0  0  0
  7 23  1  0  0  0
  8 11  2  0  0  0
  8 13  1  0  0  0
  9 13  2  0  0  0
 10 11  1  0  0  0
 10 12  2  0  0  0
 12 14  1  0  0  0
 12 22  1  0  0  0
 13 15  1  0  0  0
 15 18  2  0  0  0
 15 19  1  0  0  0
 16 17  1  0  0  0
 16 20  2  0  0  0
 16 21  1  0  0  0
 18 20  1  0  0  0
 18 24  1  0  0  0
 19 21  2  0  0  0
 19 25  1  0  0  0
 20 26  1  0  0  0
 21 27  1  0  0  0
 22 28  1  0  0  0
 22 29  1  0  0  0
 22 30  1  0  0  0
 23 31  1  0  0  0
 23 32  1  0  0  0
 23 33  1  0  0  0
M  END
> <s_m_entry_id>
4941

> <s_m_entry_name>
dock_pv.260

> <s_m_Source_Path>
/home/csk/Desktop/cluster/DUD-E-result/hs90a

> <s_m_Source_File>
dock_pv.maegz

> <i_m_Source_File_Index>
260

> <chembl_id>
CHEMBL1327234

> <chembl_pref_name>
None

> <i_lp_mmshare_version>
53161

> <r_lp_tautomer_probability>
1

> <s_lp_Force_Field>
OPLS_2005

> <r_lp_Energy>
16.617225

> <b_lp_Chiralities_Consistent>
1

> <s_lp_Variant>
CHEMBL3880_lig83-1

> <s_i_glide_gridfile>
glide-grid_1uyg

> <i_i_glide_lignum>
93

> <i_i_glide_rotatable_bonds>
3

> <r_i_docking_score>
-7.9231052964049

> <r_i_glide_ligand_efficiency>
-0.344482838974126

> <r_i_glide_ligand_efficiency_sa>
-0.979663369860132

> <r_i_glide_ligand_efficiency_ln>
-1.9158787034175

> <r_i_glide_gscore>
-7.9231052964049

> <r_i_glide_lipo>
-3.15989315413951

> <r_i_glide_hbond>
0

> <r_i_glide_metal>
0

> <r_i_glide_rewards>
-2.986943544275

> <r_i_glide_evdw>
-37.3272743225098

> <r_i_glide_ecoul>
-1.43122041225433

> <r_i_glide_erotb>
0.354284077316658

> <r_i_glide_esite>
-0.049505897343408

> <r_i_glide_emodel>
-51.1309259062025

> <r_i_glide_energy>
-38.7584947347641

> <r_i_glide_einternal>
3.97977161407471

> <i_i_glide_confnum>
4

> <i_i_glide_posenum>
107

> <r_i_glide_eff_state_penalty>
0

> <s_user_duplicate_titles>
CHEMBL3880_lig83

> <i_f3d_flags>
0

> <s_m_subgroup_title>
dock_pv

> <s_m_subgroupid>
dock_pv

> <b_m_subgroup_collapsed>
1

$$$$
CHEMBL3880_lig269
                    3D
 Schrodinger Suite 2021-1.
 49 52  0  0  1  0            999 V2000
    0.4556    6.7572   29.7640 C   0  0  0  0  0  0
    1.8460    6.5118   29.1667 C   0  0  0  0  0  0
    2.9151    7.2898   29.9597 C   0  0  0  0  0  0
    1.7757    6.9392   27.7769 N   0  0  2  0  0  0
    2.9425    6.6469   26.9527 C   0  0  0  0  0  0
    2.8923    7.5206   25.6907 C   0  0  0  0  0  0
    3.0989    9.0258   25.9870 C   0  0  0  0  0  0
    2.0562    9.8568   25.3696 N   0  0  0  0  0  0
    0.7960   10.0548   25.8583 C   0  0  0  0  0  0
    0.2301    9.5832   26.9984 N   0  0  0  0  0  0
   -1.0342   10.0139   27.1290 C   0  0  0  0  0  0
   -1.7606   10.7680   26.2916 N   0  0  0  0  0  0
   -1.1752   11.1816   25.1369 C   0  0  0  0  0  0
   -1.9389   11.9006   24.2244 N   0  0  0  0  0  0
    0.1807   10.8562   24.9146 C   0  0  0  0  0  0
    1.0242   11.1693   23.9134 N   0  0  0  0  0  0
    2.1353   10.5399   24.2090 C   0  0  0  0  0  0
    3.5521   10.4957   23.1598 S   0  0  0  0  0  0
    4.5530   11.8459   23.7546 C   0  0  0  0  0  0
    3.9611   12.9674   24.3678 C   0  0  0  0  0  0
    4.7919   14.0104   24.7665 C   0  0  0  0  0  0
    4.4600   15.1712   25.3925 O   0  0  0  0  0  0
    5.6348   15.9403   25.4199 C   0  0  0  0  0  0
    6.7062   15.0985   25.0785 O   0  0  0  0  0  0
    6.1432   13.9692   24.5734 C   0  0  0  0  0  0
    6.7633   12.8842   23.9672 C   0  0  0  0  0  0
    5.9584   11.8096   23.5656 C   0  0  0  0  0  0
    6.9381   10.1961   22.6453 I   0  0  0  0  0  0
    0.3999    6.3882   30.7882 H   0  0  0  0  0  0
   -0.3345    6.2630   29.1912 H   0  0  0  0  0  0
    0.2154    7.8223   29.7906 H   0  0  0  0  0  0
    2.0598    5.4424   29.1956 H   0  0  0  0  0  0
    2.8595    7.0586   31.0254 H   0  0  0  0  0  0
    3.9283    7.0402   29.6426 H   0  0  0  0  0  0
    2.7915    8.3699   29.8583 H   0  0  0  0  0  0
    1.4672    7.9028   27.6858 H   0  0  0  0  0  0
    3.8702    6.8557   27.4824 H   0  0  0  0  0  0
    2.9430    5.5893   26.6825 H   0  0  0  0  0  0
    3.6754    7.1930   25.0054 H   0  0  0  0  0  0
    1.9590    7.3345   25.1569 H   0  0  0  0  0  0
    3.0464    9.2636   27.0508 H   0  0  0  0  0  0
    4.0586    9.3891   25.6193 H   0  0  0  0  0  0
   -1.5419    9.6956   28.0288 H   0  0  0  0  0  0
   -1.5371   12.1280   23.3276 H   0  0  0  0  0  0
   -2.9444   11.9716   24.3769 H   0  0  0  0  0  0
    2.8964   13.0351   24.5196 H   0  0  0  0  0  0
    5.7875   16.3684   26.4114 H   0  0  0  0  0  0
    5.5602   16.7392   24.6799 H   0  0  0  0  0  0
    7.8318   12.8572   23.8180 H   0  0  0  0  0  0
  1  2  1  0  0  0
  1 29  1  0  0  0
  1 30  1  0  0  0
  1 31  1  0  0  0
  2  3  1  0  0  0
  2  4  1  0  0  0
  2 32  1  0  0  0
  3 33  1  0  0  0
  3 34  1  0  0  0
  3 35  1  0  0  0
  4  5  1  0  0  0
  4 36  1  0  0  0
  5  6  1  0  0  0
  5 37  1  0  0  0
  5 38  1  0  0  0
  6  7  1  0  0  0
  6 39  1  0  0  0
  6 40  1  0  0  0
  7  8  1  0  0  0
  7 41  1  0  0  0
  7 42  1  0  0  0
  8  9  1  0  0  0
  8 17  1  0  0  0
  9 10  2  0  0  0
  9 15  1  0  0  0
 10 11  1  0  0  0
 11 12  2  0  0  0
 11 43  1  0  0  0
 12 13  1  0  0  0
 13 14  1  0  0  0
 13 15  2  0  0  0
 14 44  1  0  0  0
 14 45  1  0  0  0
 15 16  1  0  0  0
 16 17  2  0  0  0
 17 18  1  0  0  0
 18 19  1  0  0  0
 19 20  1  0  0  0
 19 27  2  0  0  0
 20 21  2  0  0  0
 20 46  1  0  0  0
 21 22  1  0  0  0
 21 25  1  0  0  0
 22 23  1  0  0  0
 23 24  1  0  0  0
 23 47  1  0  0  0
 23 48  1  0  0  0
 24 25  1  0  0  0
 25 26  2  0  0  0
 26 27  1  0  0  0
 26 49  1  0  0  0
 27 28  1  0  0  0
M  END
> <s_m_entry_id>
4942

> <s_m_entry_name>
dock_pv.261

> <s_m_Source_Path>
/home/csk/Desktop/cluster/DUD-E-result/hs90a

> <s_m_Source_File>
dock_pv.maegz

> <i_m_Source_File_Index>
261

> <chembl_id>
CHEMBL200102

> <chembl_pref_name>
PU-H71

> <i_lp_mmshare_version>
53161

> <r_lp_tautomer_probability>
0.999997216410988

> <s_lp_Force_Field>
OPLS_2005

> <r_lp_Energy>
24.949583

> <b_lp_Chiralities_Consistent>
1

> <s_lp_Variant>
CHEMBL3880_lig269-1

> <s_i_glide_gridfile>
glide-grid_1uyg

> <i_i_glide_lignum>
303

> <i_i_glide_rotatable_bonds>
7

> <r_i_docking_score>
-7.92174466453044

> <r_i_glide_ligand_efficiency>
-0.282919452304658

> <r_i_glide_ligand_efficiency_sa>
-0.859110087843185

> <r_i_glide_ligand_efficiency_ln>
-1.82857126110375

> <r_i_glide_gscore>
-7.92174466453044

> <r_i_glide_lipo>
-2.67534181478117

> <r_i_glide_hbond>
-0.178486939701967

> <r_i_glide_metal>
0

> <r_i_glide_rewards>
-2.42023208152523

> <r_i_glide_evdw>
-47.6342887878418

> <r_i_glide_ecoul>
-4.55210447311401

> <r_i_glide_erotb>
0.468512937143691

> <r_i_glide_esite>
-0.0516666553065718

> <r_i_glide_emodel>
-67.445572595501

> <r_i_glide_energy>
-52.1863932609558

> <r_i_glide_einternal>
10.2759876251221

> <i_i_glide_confnum>
37

> <i_i_glide_posenum>
128

> <r_i_glide_eff_state_penalty>
0

> <s_user_duplicate_titles>
CHEMBL3880_lig269,335628

> <i_f3d_flags>
0

> <s_m_subgroup_title>
dock_pv

> <s_m_subgroupid>
dock_pv

> <b_m_subgroup_collapsed>
1

$$$$
CHEMBL3880_lig367
                    3D
 Schrodinger Suite 2021-1.
 71 75  0  0  1  0            999 V2000
   -1.1390    9.9524   27.1786 C   0  0  0  0  0  0
   -0.6871    8.8967   27.9653 C   0  0  0  0  0  0
    0.2569    8.0011   27.4713 C   0  0  0  0  0  0
    0.7544    8.1468   26.1666 C   0  0  0  0  0  0
    0.2823    9.2049   25.3819 C   0  0  0  0  0  0
   -0.6221   10.1440   25.8881 C   0  0  0  0  0  0
    0.6882    6.9932   28.2939 O   0  0  0  0  0  0
   -2.1400   10.7346   27.6870 O   0  0  0  0  0  0
    1.8194    7.2565   25.5951 C   0  0  0  0  0  0
    1.7063    5.9450   25.6846 N   0  0  0  0  0  0
    2.8325    5.3966   25.0743 O   0  0  0  0  0  0
    3.6165    6.4246   24.6761 C   0  0  0  0  0  0
    3.0030    7.6448   24.9310 C   0  0  0  0  0  0
    4.7866    6.0959   24.0302 N   0  0  0  0  0  0
    3.5073    9.0157   24.5799 C   0  0  0  0  0  0
    4.2822    9.2049   23.4307 C   0  0  0  0  0  0
    4.7975   10.4570   23.1259 C   0  0  0  0  0  0
    4.4964   11.5558   23.9343 C   0  0  0  0  0  0
    3.6611   11.3885   25.0347 C   0  0  0  0  0  0
    3.2196   10.1178   25.3897 C   0  0  0  0  0  0
    5.9870    6.4247   24.5420 C   0  0  0  0  0  0
    6.1575    6.7679   25.7118 O   0  0  0  0  0  0
    7.1514    6.4472   23.5437 C   0  0  0  0  0  0
    7.7585    7.8304   23.3560 C   0  0  0  0  0  0
    8.5367    6.7706   24.0797 C   0  0  0  0  0  0
   -1.0217   11.3530   25.0318 C   0  0  0  0  0  0
   -2.0200   10.9584   23.9442 C   0  0  0  0  0  0
    0.1866   12.1022   24.4311 C   0  0  0  0  0  0
    5.0300   12.9352   23.5671 C   0  0  0  0  0  0
    5.8312   13.5691   24.6256 N   0  0  1  0  0  0
    7.2706   13.3854   24.3579 C   0  0  0  0  0  0
    8.1578   13.8502   25.5261 C   0  0  0  0  0  0
    7.8219   15.2715   25.9615 C   0  0  0  0  0  0
    6.3147   15.3787   26.2258 C   0  0  0  0  0  0
    5.4500   14.9386   25.0150 C   0  0  2  0  0  0
    3.9632   15.1407   25.3697 C   0  0  0  0  0  0
   -1.0789    8.7698   28.9639 H   0  0  0  0  0  0
    0.6582    9.3181   24.3742 H   0  0  0  0  0  0
    1.3590    6.4510   27.8722 H   0  0  0  0  0  0
   -2.6714   11.1666   27.0117 H   0  0  0  0  0  0
    4.7283    5.5403   23.1933 H   0  0  0  0  0  0
    4.5069    8.3797   22.7723 H   0  0  0  0  0  0
    5.4231   10.5700   22.2534 H   0  0  0  0  0  0
    3.4180   12.2393   25.6485 H   0  0  0  0  0  0
    2.6529   10.0050   26.3014 H   0  0  0  0  0  0
    7.0725    5.7541   22.7060 H   0  0  0  0  0  0
    7.3705    8.6806   23.9226 H   0  0  0  0  0  0
    8.0765    8.1274   22.3579 H   0  0  0  0  0  0
    9.4112    6.3690   23.5677 H   0  0  0  0  0  0
    8.7000    6.8826   25.1520 H   0  0  0  0  0  0
   -1.5305   12.0664   25.6739 H   0  0  0  0  0  0
   -2.8341   10.3692   24.3679 H   0  0  0  0  0  0
   -2.4579   11.8354   23.4661 H   0  0  0  0  0  0
   -1.5403   10.3691   23.1666 H   0  0  0  0  0  0
    0.9076   12.3690   25.2027 H   0  0  0  0  0  0
    0.7112   11.5078   23.6820 H   0  0  0  0  0  0
   -0.1255   13.0284   23.9468 H   0  0  0  0  0  0
    5.6753   12.7704   22.7088 H   0  0  0  0  0  0
    4.2092   13.5508   23.2063 H   0  0  0  0  0  0
    7.4590   12.3221   24.1928 H   0  0  0  0  0  0
    7.5472   13.8953   23.4346 H   0  0  0  0  0  0
    8.0616   13.1690   26.3665 H   0  0  0  0  0  0
    9.2057   13.7926   25.2342 H   0  0  0  0  0  0
    8.3844   15.5428   26.8554 H   0  0  0  0  0  0
    8.1126   15.9689   25.1770 H   0  0  0  0  0  0
    6.0640   14.7692   27.0944 H   0  0  0  0  0  0
    6.0585   16.3886   26.5188 H   0  0  0  0  0  0
    5.7188   15.5935   24.1859 H   0  0  0  0  0  0
    3.7818   16.1652   25.6909 H   0  0  0  0  0  0
    3.3014   14.9537   24.5264 H   0  0  0  0  0  0
    3.6617   14.4871   26.1888 H   0  0  0  0  0  0
  1  2  2  0  0  0
  1  6  1  0  0  0
  1  8  1  0  0  0
  2  3  1  0  0  0
  2 37  1  0  0  0
  3  4  2  0  0  0
  3  7  1  0  0  0
  4  5  1  0  0  0
  4  9  1  0  0  0
  5  6  2  0  0  0
  5 38  1  0  0  0
  6 26  1  0  0  0
  7 39  1  0  0  0
  8 40  1  0  0  0
  9 10  2  0  0  0
  9 13  1  0  0  0
 10 11  1  0  0  0
 11 12  1  0  0  0
 12 13  2  0  0  0
 12 14  1  0  0  0
 13 15  1  0  0  0
 14 21  1  0  0  0
 14 41  1  0  0  0
 15 16  2  0  0  0
 15 20  1  0  0  0
 16 17  1  0  0  0
 16 42  1  0  0  0
 17 18  2  0  0  0
 17 43  1  0  0  0
 18 19  1  0  0  0
 18 29  1  0  0  0
 19 20  2  0  0  0
 19 44  1  0  0  0
 20 45  1  0  0  0
 21 22  2  0  0  0
 21 23  1  0  0  0
 23 24  1  0  0  0
 23 25  1  0  0  0
 23 46  1  0  0  0
 24 25  1  0  0  0
 24 47  1  0  0  0
 24 48  1  0  0  0
 25 49  1  0  0  0
 25 50  1  0  0  0
 26 27  1  0  0  0
 26 28  1  0  0  0
 26 51  1  0  0  0
 27 52  1  0  0  0
 27 53  1  0  0  0
 27 54  1  0  0  0
 28 55  1  0  0  0
 28 56  1  0  0  0
 28 57  1  0  0  0
 29 30  1  0  0  0
 29 58  1  0  0  0
 29 59  1  0  0  0
 30 31  1  0  0  0
 30 35  1  0  0  0
 31 32  1  0  0  0
 31 60  1  0  0  0
 31 61  1  0  0  0
 32 33  1  0  0  0
 32 62  1  0  0  0
 32 63  1  0  0  0
 33 34  1  0  0  0
 33 64  1  0  0  0
 33 65  1  0  0  0
 34 35  1  0  0  0
 34 66  1  0  0  0
 34 67  1  0  0  0
 35 36  1  0  0  0
 35 68  1  0  0  0
 36 69  1  0  0  0
 36 70  1  0  0  0
 36 71  1  0  0  0
M  END
> <s_m_entry_id>
4943

> <s_m_entry_name>
dock_pv.262

> <s_m_Source_Path>
/home/csk/Desktop/cluster/DUD-E-result/hs90a

> <s_m_Source_File>
dock_pv.maegz

> <i_m_Source_File_Index>
262

> <chembl_id>
CHEMBL3342730

> <chembl_pref_name>
None

> <i_lp_mmshare_version>
53161

> <r_lp_tautomer_probability>
0.999999999898

> <s_lp_Force_Field>
OPLS_2005

> <r_lp_Energy>
40.781944

> <b_lp_Chiralities_Consistent>
1

> <s_lp_Variant>
CHEMBL3880_lig367-1

> <s_i_glide_gridfile>
glide-grid_1uyg

> <i_i_glide_lignum>
408

> <i_i_glide_rotatable_bonds>
10

> <r_i_docking_score>
-7.92133757590464

> <r_i_glide_ligand_efficiency>
-0.22003715488624

> <r_i_glide_ligand_efficiency_sa>
-0.726546676620259

> <r_i_glide_ligand_efficiency_ln>
-1.72822184925297

> <r_i_glide_gscore>
-7.92133757590464

> <r_i_glide_lipo>
-5.34228876612506

> <r_i_glide_hbond>
-0.049192852908263

> <r_i_glide_metal>
0

> <r_i_glide_rewards>
-0.590715168646394

> <r_i_glide_evdw>
-44.1254501342773

> <r_i_glide_ecoul>
-2.17729663848877

> <r_i_glide_erotb>
0.594094676780999

> <r_i_glide_esite>
-0.000368462518741079

> <r_i_glide_emodel>
-59.034407690364

> <r_i_glide_energy>
-46.3027467727661

> <r_i_glide_einternal>
12.4927730560303

> <i_i_glide_confnum>
21

> <i_i_glide_posenum>
281

> <r_i_glide_eff_state_penalty>
0

> <s_user_duplicate_titles>
CHEMBL3880_lig367

> <i_f3d_flags>
0

> <s_m_subgroup_title>
dock_pv

> <s_m_subgroupid>
dock_pv

> <b_m_subgroup_collapsed>
1

$$$$
CHEMBL3880_lig152
                    3D
 Schrodinger Suite 2021-1.
 40 43  0  0  1  0            999 V2000
   -0.3944   10.1491   25.4922 C   0  0  0  0  0  0
    0.2315   10.9358   24.4795 C   0  0  0  0  0  0
   -1.6926   10.3694   25.5110 N   0  0  0  0  0  0
    0.2020    9.1986   26.5036 C   0  0  0  0  0  0
   -1.9389   11.2248   24.5264 N   0  0  0  0  0  0
    1.6792   11.1050   24.1362 C   0  0  0  0  0  0
   -0.8175   11.6067   23.8496 C   0  0  0  0  0  0
   -0.1830    9.1691   27.8615 C   0  0  0  0  0  0
    2.4468   10.0805   23.5670 C   0  0  0  0  0  0
    3.8008   10.2784   23.2984 C   0  0  0  0  0  0
    1.1764    8.2819   26.0863 C   0  0  0  0  0  0
    0.4610    8.3255   28.7668 C   0  0  0  0  0  0
    4.4019   11.5123   23.5880 C   0  0  0  0  0  0
    2.2789   12.3502   24.3671 C   0  0  0  0  0  0
    4.5210    9.2050   22.8130 O   0  0  0  0  0  0
    5.7318   11.7628   23.3145 O   0  0  0  0  0  0
    3.6342   12.5560   24.0999 C   0  0  0  0  0  0
    1.4610    7.4632   28.3360 C   0  0  0  0  0  0
   -1.1750    9.9686   28.3659 O   0  0  0  0  0  0
    1.8036    7.4237   26.9897 C   0  0  0  0  0  0
    2.1014    6.6589   29.2379 O   0  0  0  0  0  0
   -0.8888   12.5735   22.6934 C   0  0  0  0  0  0
    5.8007    9.5485   22.2683 C   0  0  0  0  0  0
    6.5265   10.5813   23.1655 C   0  0  0  0  0  0
   -2.8793   11.5651   24.3401 H   0  0  0  0  0  0
    2.0018    9.1332   23.3069 H   0  0  0  0  0  0
    1.4495    8.2047   25.0513 H   0  0  0  0  0  0
    0.1807    8.3413   29.8098 H   0  0  0  0  0  0
    1.6929   13.1638   24.7667 H   0  0  0  0  0  0
    4.0875   13.5185   24.2888 H   0  0  0  0  0  0
   -1.2200    9.8928   29.3257 H   0  0  0  0  0  0
    2.5633    6.7385   26.6447 H   0  0  0  0  0  0
    2.0068    6.9877   30.1340 H   0  0  0  0  0  0
    0.0988   12.8214   22.3050 H   0  0  0  0  0  0
   -1.4689   12.1638   21.8658 H   0  0  0  0  0  0
   -1.3666   13.5095   22.9846 H   0  0  0  0  0  0
    6.3998    8.6435   22.1650 H   0  0  0  0  0  0
    5.6634    9.9682   21.2709 H   0  0  0  0  0  0
    6.7076   10.1407   24.1474 H   0  0  0  0  0  0
    7.4947   10.8485   22.7419 H   0  0  0  0  0  0
  1  4  1  0  0  0
  1  3  2  0  0  0
  1  2  1  0  0  0
  2  7  2  0  0  0
  2  6  1  0  0  0
  3  5  1  0  0  0
  4  8  2  0  0  0
  4 11  1  0  0  0
  5 25  1  0  0  0
  5  7  1  0  0  0
  6  9  2  0  0  0
  6 14  1  0  0  0
  7 22  1  0  0  0
  8 12  1  0  0  0
  8 19  1  0  0  0
  9 10  1  0  0  0
  9 26  1  0  0  0
 10 15  1  0  0  0
 10 13  2  0  0  0
 11 20  2  0  0  0
 11 27  1  0  0  0
 12 18  2  0  0  0
 12 28  1  0  0  0
 13 17  1  0  0  0
 13 16  1  0  0  0
 14 17  2  0  0  0
 14 29  1  0  0  0
 15 23  1  0  0  0
 16 24  1  0  0  0
 17 30  1  0  0  0
 18 20  1  0  0  0
 18 21  1  0  0  0
 19 31  1  0  0  0
 20 32  1  0  0  0
 21 33  1  0  0  0
 22 34  1  0  0  0
 22 35  1  0  0  0
 22 36  1  0  0  0
 23 24  1  0  0  0
 23 37  1  0  0  0
 23 38  1  0  0  0
 24 39  1  0  0  0
 24 40  1  0  0  0
M  END
> <s_m_entry_id>
4944

> <s_m_entry_name>
dock_pv.263

> <s_m_Source_Path>
/home/csk/Desktop/cluster/DUD-E-result/hs90a

> <s_m_Source_File>
dock_pv.maegz

> <i_m_Source_File_Index>
263

> <chembl_id>
CHEMBL188965

> <chembl_pref_name>
None

> <i_lp_mmshare_version>
53161

> <r_lp_tautomer_probability>
0.4999999999745

> <s_lp_Force_Field>
OPLS_2005

> <r_lp_Energy>
21.974679

> <b_lp_Chiralities_Consistent>
1

> <s_lp_Variant>
CHEMBL3880_lig152-2

> <s_i_glide_gridfile>
glide-grid_1uyg

> <i_i_glide_lignum>
174

> <i_i_glide_rotatable_bonds>
4

> <r_i_docking_score>
-7.92053145477967

> <r_i_glide_ligand_efficiency>
-0.330022143949153

> <r_i_glide_ligand_efficiency_sa>
-0.951948589596744

> <r_i_glide_ligand_efficiency_ln>
-1.89574662663455

> <r_i_glide_gscore>
-7.92053145477967

> <r_i_glide_lipo>
-3.58388821692699

> <r_i_glide_hbond>
-0.43942715322137

> <r_i_glide_metal>
0

> <r_i_glide_rewards>
-1.37274563636364

> <r_i_glide_evdw>
-39.6113739013672

> <r_i_glide_ecoul>
-5.99963855743408

> <r_i_glide_erotb>
0.356044030415794

> <r_i_glide_esite>
0

> <r_i_glide_emodel>
-67.7782469556226

> <r_i_glide_energy>
-45.6110124588013

> <r_i_glide_einternal>
1.92538070678711

> <i_i_glide_confnum>
26

> <i_i_glide_posenum>
344

> <r_i_glide_eff_state_penalty>
0

> <s_user_duplicate_titles>
CHEMBL3880_lig152,CHEMBL3880_lig152

> <i_f3d_flags>
0

> <s_m_subgroup_title>
dock_pv

> <s_m_subgroupid>
dock_pv

> <b_m_subgroup_collapsed>
1

$$$$
CHEMBL3880_lig959
                    3D
 Schrodinger Suite 2021-1.
 55 59  0  0  1  0            999 V2000
    5.2961    9.1690   21.1627 C   0  0  0  0  0  0
    5.4018    8.6485   22.6209 C   0  0  0  0  0  0
    5.1280    7.1340   22.7624 C   0  0  0  0  0  0
    0.4912   10.8886   24.8752 C   0  0  0  0  0  0
    1.8861   10.9797   24.9033 C   0  0  0  0  0  0
    2.5565   11.8237   24.0117 C   0  0  0  0  0  0
    1.8384   12.5639   23.0820 C   0  0  0  0  0  0
    0.4578   12.4857   23.0361 C   0  0  0  0  0  0
   -0.2166   11.6739   23.9495 C   0  0  0  0  0  0
   -1.7136   11.5939   23.8207 C   0  0  0  0  0  0
   -2.3390   11.9690   22.8330 O   0  0  0  0  0  0
   -2.3389   11.0081   24.8648 N   0  0  0  0  0  0
    3.9565   11.8873   23.9739 N   0  0  0  0  0  0
    4.7929   10.8225   23.7373 C   0  0  0  0  0  0
    6.1036   11.2857   23.6603 C   0  0  0  0  0  0
    7.2242   10.3898   23.3709 C   0  0  0  0  0  0
    6.8330    8.9091   23.1881 C   0  0  0  0  0  0
    4.3365    9.3899   23.4771 C   0  0  0  0  0  0
    8.3841   10.7690   23.2493 O   0  0  0  0  0  0
    6.0821   12.6642   23.9670 C   0  0  0  0  0  0
    4.7469   13.0039   24.1536 C   0  0  0  0  0  0
    4.2581   14.3984   24.5119 C   0  0  0  0  0  0
    5.2658   15.1605   25.2606 N   0  0  2  0  0  0
    6.6525   15.0523   24.7827 C   0  0  0  0  0  0
    7.1845   13.6750   24.2578 C   0  0  0  0  0  0
    5.1390   15.0002   26.6989 C   0  0  0  0  0  0
   -0.3024    9.9749   25.7960 C   0  0  0  0  0  0
   -1.6596   10.6408   26.1216 C   0  0  0  0  0  0
    4.3376    8.8982   20.7178 H   0  0  0  0  0  0
    5.3829   10.2513   21.1088 H   0  0  0  0  0  0
    6.0741    8.7690   20.5198 H   0  0  0  0  0  0
    4.2165    6.8428   22.2385 H   0  0  0  0  0  0
    5.9436    6.5312   22.3670 H   0  0  0  0  0  0
    5.0130    6.8346   23.8051 H   0  0  0  0  0  0
    2.4449   10.3869   25.6140 H   0  0  0  0  0  0
    2.3579   13.1690   22.3670 H   0  0  0  0  0  0
   -0.0787   13.0618   22.2939 H   0  0  0  0  0  0
   -3.3542   11.0179   24.8134 H   0  0  0  0  0  0
    7.5979    8.4211   22.5827 H   0  0  0  0  0  0
    6.9072    8.4685   24.1824 H   0  0  0  0  0  0
    3.3493    9.3312   23.0144 H   0  0  0  0  0  0
    4.2505    8.9174   24.4570 H   0  0  0  0  0  0
    4.1614   14.9170   23.5670 H   0  0  0  0  0  0
    3.2692   14.4231   24.9730 H   0  0  0  0  0  0
    6.6849   15.7577   23.9670 H   0  0  0  0  0  0
    7.3605   15.5252   25.4654 H   0  0  0  0  0  0
    7.7708   13.2334   25.0638 H   0  0  0  0  0  0
    7.9028   13.8132   23.4501 H   0  0  0  0  0  0
    5.8768   15.6050   27.2278 H   0  0  0  0  0  0
    4.1506   15.3229   27.0285 H   0  0  0  0  0  0
    5.2610   13.9690   26.9895 H   0  0  0  0  0  0
   -0.4718    9.0147   25.3056 H   0  0  0  0  0  0
    0.2480    9.7580   26.7124 H   0  0  0  0  0  0
   -2.2893    9.9691   26.7040 H   0  0  0  0  0  0
   -1.5105   11.5126   26.7570 H   0  0  0  0  0  0
  1  2  1  0  0  0
  1 29  1  0  0  0
  1 30  1  0  0  0
  1 31  1  0  0  0
  2  3  1  0  0  0
  2 17  1  0  0  0
  2 18  1  0  0  0
  3 32  1  0  0  0
  3 33  1  0  0  0
  3 34  1  0  0  0
  4  5  2  0  0  0
  4  9  1  0  0  0
  4 27  1  0  0  0
  5  6  1  0  0  0
  5 35  1  0  0  0
  6  7  2  0  0  0
  6 13  1  0  0  0
  7  8  1  0  0  0
  7 36  1  0  0  0
  8  9  2  0  0  0
  8 37  1  0  0  0
  9 10  1  0  0  0
 10 11  2  0  0  0
 10 12  1  0  0  0
 12 28  1  0  0  0
 12 38  1  0  0  0
 13 21  1  0  0  0
 13 14  1  0  0  0
 14 15  2  0  0  0
 14 18  1  0  0  0
 15 20  1  0  0  0
 15 16  1  0  0  0
 16 17  1  0  0  0
 16 19  2  0  0  0
 17 39  1  0  0  0
 17 40  1  0  0  0
 18 41  1  0  0  0
 18 42  1  0  0  0
 20 21  2  0  0  0
 20 25  1  0  0  0
 21 22  1  0  0  0
 22 23  1  0  0  0
 22 43  1  0  0  0
 22 44  1  0  0  0
 23 24  1  0  0  0
 23 26  1  0  0  0
 24 25  1  0  0  0
 24 45  1  0  0  0
 24 46  1  0  0  0
 25 47  1  0  0  0
 25 48  1  0  0  0
 26 49  1  0  0  0
 26 50  1  0  0  0
 26 51  1  0  0  0
 27 28  1  0  0  0
 27 52  1  0  0  0
 27 53  1  0  0  0
 28 54  1  0  0  0
 28 55  1  0  0  0
M  END
> <s_m_entry_id>
4945

> <s_m_entry_name>
dock_pv.264

> <s_m_Source_Path>
/home/csk/Desktop/cluster/DUD-E-result/hs90a

> <s_m_Source_File>
dock_pv.maegz

> <i_m_Source_File_Index>
264

> <chembl_id>
CHEMBL3235347

> <chembl_pref_name>
None

> <i_lp_mmshare_version>
53161

> <r_lp_tautomer_probability>
0.99995

> <s_lp_Force_Field>
OPLS_2005

> <r_lp_Energy>
43.557264

> <b_lp_Chiralities_Consistent>
1

> <s_lp_Variant>
CHEMBL3880_lig959-1

> <s_i_glide_gridfile>
glide-grid_1uyg

> <i_i_glide_lignum>
1068

> <i_i_glide_rotatable_bonds>
1

> <r_i_docking_score>
-7.91967252710817

> <r_i_glide_ligand_efficiency>
-0.28284544739672

> <r_i_glide_ligand_efficiency_sa>
-0.858885365356125

> <r_i_glide_ligand_efficiency_ln>
-1.82809295094609

> <r_i_glide_gscore>
-7.91967252710817

> <r_i_glide_lipo>
-4.15232530153682

> <r_i_glide_hbond>
-0.140099527815258

> <r_i_glide_metal>
0

> <r_i_glide_rewards>
-1.98570774430365

> <r_i_glide_evdw>
-43.0543556213379

> <r_i_glide_ecoul>
2.77157759666443

> <r_i_glide_erotb>
0.135930911786815

> <r_i_glide_esite>
-0.0404897236720246

> <r_i_glide_emodel>
-46.7196592022287

> <r_i_glide_energy>
-40.2827780246735

> <r_i_glide_einternal>
1.06401598453522

> <i_i_glide_confnum>
2

> <i_i_glide_posenum>
200

> <r_i_glide_eff_state_penalty>
0

> <s_user_duplicate_titles>
CHEMBL3880_lig959

> <i_f3d_flags>
0

> <s_m_subgroup_title>
dock_pv

> <s_m_subgroupid>
dock_pv

> <b_m_subgroup_collapsed>
1

$$$$
CHEMBL3880_lig284
                    3D
 Schrodinger Suite 2021-1.
 74 77  0  0  1  0            999 V2000
    0.0785    7.7112   27.4767 C   0  0  0  0  0  0
   -0.7034    8.6959   28.0729 C   0  0  0  0  0  0
   -1.1369    9.7979   27.3477 C   0  0  0  0  0  0
   -0.7391    9.9724   26.0142 C   0  0  0  0  0  0
    0.0397    8.9748   25.4129 C   0  0  0  0  0  0
    0.4623    7.8466   26.1327 C   0  0  0  0  0  0
   -1.9976   10.6632   27.9596 O   0  0  0  0  0  0
   -1.1464   11.2216   25.2213 C   0  0  0  0  0  0
   -2.3214   10.9444   24.2747 C   0  0  0  0  0  0
    0.0298   11.8864   24.4797 C   0  0  0  0  0  0
    0.4663    6.6386   28.2379 O   0  0  0  0  0  0
    1.3417    6.9243   25.5115 N   0  0  0  0  0  0
    2.4947    7.1973   24.8008 C   0  0  0  0  0  0
    3.0389    5.9438   24.4921 C   0  0  0  0  0  0
    2.1970    5.0075   24.9018 N   0  0  0  0  0  0
    1.1466    5.6018   25.5774 N   0  0  0  0  0  0
    4.2731    5.6879   23.7856 C   0  0  0  0  0  0
    5.2563    6.5622   24.0728 N   0  0  0  0  0  0
    4.4056    4.7298   23.0260 O   0  0  0  0  0  0
    6.6147    6.5320   23.5382 C   0  0  0  0  0  0
    7.6580    6.7936   24.6306 C   0  0  0  0  0  0
    2.9504    8.5769   24.5096 C   0  0  0  0  0  0
    2.9886    9.0333   23.1944 C   0  0  0  0  0  0
    3.2385   10.3819   22.9511 C   0  0  0  0  0  0
    3.4910   11.2555   23.9969 C   0  0  0  0  0  0
    3.4887   10.7679   25.2774 C   0  0  0  0  0  0
    3.2262    9.4400   25.5637 C   0  0  0  0  0  0
    3.7307   12.7489   23.7977 C   0  0  0  0  0  0
    4.8630   13.3092   24.5574 N   0  0  1  0  0  0
    6.2308   12.9448   24.0838 C   0  0  1  0  0  0
    7.3867   13.6175   24.8936 C   0  0  0  0  0  0
    7.1049   15.0669   25.3369 C   0  0  0  0  0  0
    5.6862   15.2342   25.8815 C   0  0  0  0  0  0
    4.6401   14.7225   24.8806 C   0  0  0  0  0  0
    6.5198   11.4548   23.7208 C   0  0  0  0  0  0
    7.9389   11.1179   23.2396 C   0  0  0  0  0  0
    8.0563    9.7450   22.9275 O   0  0  0  0  0  0
   -0.9860    8.6093   29.1101 H   0  0  0  0  0  0
    0.3200    9.0868   24.3755 H   0  0  0  0  0  0
   -2.6365   11.0426   27.3495 H   0  0  0  0  0  0
   -1.4925   11.9681   25.9317 H   0  0  0  0  0  0
   -3.1278   10.3990   24.7717 H   0  0  0  0  0  0
   -1.9965   10.3704   23.4117 H   0  0  0  0  0  0
   -2.7390   11.8727   23.8847 H   0  0  0  0  0  0
    0.8450   12.1184   25.1675 H   0  0  0  0  0  0
    0.4302   11.2552   23.6863 H   0  0  0  0  0  0
   -0.2800   12.8217   24.0116 H   0  0  0  0  0  0
    0.9590    5.9960   27.7220 H   0  0  0  0  0  0
    4.9979    7.3912   24.5850 H   0  0  0  0  0  0
    6.8412    5.5842   23.0421 H   0  0  0  0  0  0
    6.6895    7.3004   22.7677 H   0  0  0  0  0  0
    8.6638    6.7663   24.2104 H   0  0  0  0  0  0
    7.5327    7.7800   25.0789 H   0  0  0  0  0  0
    7.6094    6.0474   25.4229 H   0  0  0  0  0  0
    2.7624    8.3635   22.3743 H   0  0  0  0  0  0
    3.2115   10.7660   21.9638 H   0  0  0  0  0  0
    3.6778   11.5152   25.9977 H   0  0  0  0  0  0
    3.1860    9.1023   26.5869 H   0  0  0  0  0  0
    3.9199   12.9364   22.7654 H   0  0  0  0  0  0
    2.7988   13.2610   24.0453 H   0  0  0  0  0  0
    6.2654   13.5191   23.1669 H   0  0  0  0  0  0
    8.2746   13.6794   24.2623 H   0  0  0  0  0  0
    7.6607   13.0210   25.7654 H   0  0  0  0  0  0
    7.2365   15.7359   24.4840 H   0  0  0  0  0  0
    7.8340   15.3849   26.0824 H   0  0  0  0  0  0
    5.5056   16.2903   26.0840 H   0  0  0  0  0  0
    5.5620   14.7296   26.8399 H   0  0  0  0  0  0
    4.6264   15.3174   23.9692 H   0  0  0  0  0  0
    3.6542   14.8355   25.3334 H   0  0  0  0  0  0
    6.2817   10.8166   24.5723 H   0  0  0  0  0  0
    5.8512   11.1625   22.9152 H   0  0  0  0  0  0
    8.1592   11.7195   22.3628 H   0  0  0  0  0  0
    8.6911   11.3780   23.9826 H   0  0  0  0  0  0
    7.4798    9.5372   22.1853 H   0  0  0  0  0  0
  1  2  2  0  0  0
  1  6  1  0  0  0
  1 11  1  0  0  0
  2  3  1  0  0  0
  2 38  1  0  0  0
  3  4  2  0  0  0
  3  7  1  0  0  0
  4  5  1  0  0  0
  4  8  1  0  0  0
  5  6  2  0  0  0
  5 39  1  0  0  0
  6 12  1  0  0  0
  7 40  1  0  0  0
  8  9  1  0  0  0
  8 10  1  0  0  0
  8 41  1  0  0  0
  9 42  1  0  0  0
  9 43  1  0  0  0
  9 44  1  0  0  0
 10 45  1  0  0  0
 10 46  1  0  0  0
 10 47  1  0  0  0
 11 48  1  0  0  0
 12 13  1  0  0  0
 12 16  1  0  0  0
 13 14  2  0  0  0
 13 22  1  0  0  0
 14 15  1  0  0  0
 14 17  1  0  0  0
 15 16  2  0  0  0
 17 18  1  0  0  0
 17 19  2  0  0  0
 18 20  1  0  0  0
 18 49  1  0  0  0
 20 21  1  0  0  0
 20 50  1  0  0  0
 20 51  1  0  0  0
 21 52  1  0  0  0
 21 53  1  0  0  0
 21 54  1  0  0  0
 22 23  2  0  0  0
 22 27  1  0  0  0
 23 24  1  0  0  0
 23 55  1  0  0  0
 24 25  2  0  0  0
 24 56  1  0  0  0
 25 26  1  0  0  0
 25 28  1  0  0  0
 26 27  2  0  0  0
 26 57  1  0  0  0
 27 58  1  0  0  0
 28 29  1  0  0  0
 28 59  1  0  0  0
 28 60  1  0  0  0
 29 30  1  0  0  0
 29 34  1  0  0  0
 30 31  1  0  0  0
 30 35  1  0  0  0
 30 61  1  0  0  0
 31 32  1  0  0  0
 31 62  1  0  0  0
 31 63  1  0  0  0
 32 33  1  0  0  0
 32 64  1  0  0  0
 32 65  1  0  0  0
 33 34  1  0  0  0
 33 66  1  0  0  0
 33 67  1  0  0  0
 34 68  1  0  0  0
 34 69  1  0  0  0
 35 36  1  0  0  0
 35 70  1  0  0  0
 35 71  1  0  0  0
 36 37  1  0  0  0
 36 72  1  0  0  0
 36 73  1  0  0  0
 37 74  1  0  0  0
M  END
> <s_m_entry_id>
4946

> <s_m_entry_name>
dock_pv.265

> <s_m_Source_Path>
/home/csk/Desktop/cluster/DUD-E-result/hs90a

> <s_m_Source_File>
dock_pv.maegz

> <i_m_Source_File_Index>
265

> <chembl_id>
CHEMBL3234771

> <chembl_pref_name>
None

> <i_lp_mmshare_version>
53161

> <r_lp_tautomer_probability>
1

> <s_lp_Force_Field>
OPLS_2005

> <r_lp_Energy>
42.959989

> <b_lp_Chiralities_Consistent>
1

> <s_lp_Variant>
CHEMBL3880_lig284-2

> <s_i_glide_gridfile>
glide-grid_1uyg

> <i_i_glide_lignum>
321

> <i_i_glide_rotatable_bonds>
13

> <r_i_docking_score>
-7.91255118152359

> <r_i_glide_ligand_efficiency>
-0.213852734635773

> <r_i_glide_ligand_efficiency_sa>
-0.712604754529846

> <r_i_glide_ligand_efficiency_ln>
-1.71604685475435

> <r_i_glide_gscore>
-7.91255118152359

> <r_i_glide_lipo>
-4.88110427571337

> <r_i_glide_hbond>
-0.0375658225443435

> <r_i_glide_metal>
0

> <r_i_glide_rewards>
-0.476499117480811

> <r_i_glide_evdw>
-45.0754661560059

> <r_i_glide_ecoul>
-5.99369382858276

> <r_i_glide_erotb>
0.635445416302643

> <r_i_glide_esite>
0

> <r_i_glide_emodel>
-60.2717368809485

> <r_i_glide_energy>
-51.0691599845886

> <r_i_glide_einternal>
17.2204437255859

> <i_i_glide_confnum>
32

> <i_i_glide_posenum>
297

> <r_i_glide_eff_state_penalty>
0

> <s_user_duplicate_titles>
CHEMBL3880_lig284

> <i_f3d_flags>
0

> <s_m_subgroup_title>
dock_pv

> <s_m_subgroupid>
dock_pv

> <b_m_subgroup_collapsed>
1

$$$$
CHEMBL3880_lig18
                    3D
 Schrodinger Suite 2021-1.
 31 33  0  0  1  0            999 V2000
   -1.7426   11.9697   22.4755 O   0  0  0  0  0  0
   -1.5011   10.7341   26.8590 O   0  0  0  0  0  0
    4.4631   13.0741   24.2345 N   0  0  0  0  0  0
    0.0861   11.2733   25.2851 N   0  0  0  0  0  0
   -1.9390   11.2752   24.6580 N   0  0  0  0  0  0
    3.5500   11.1680   23.4118 C   0  0  0  0  0  0
    2.4958   12.1293   23.5694 C   0  0  0  0  0  0
    4.7829   11.8150   23.7466 C   0  0  0  0  0  0
    0.0864   11.6477   24.0040 C   0  0  0  0  0  0
    3.0992   13.2462   24.1019 C   0  0  0  0  0  0
    1.1045   12.0128   23.2029 C   0  0  0  0  0  0
   -1.2705   11.6604   23.5674 C   0  0  0  0  0  0
    3.5879    9.8343   22.9797 C   0  0  0  0  0  0
   -1.1555   11.0430   25.7231 C   0  0  0  0  0  0
    6.0234   11.1809   23.5679 C   0  0  0  0  0  0
    5.4363   14.0792   24.6904 C   0  0  0  0  0  0
    4.8183    9.2020   22.8217 C   0  0  0  0  0  0
    6.0080    9.8677   23.0975 C   0  0  0  0  0  0
    4.9157   15.0990   25.6248 C   0  0  0  0  0  0
    4.4619   15.9679   26.3529 C   0  0  0  0  0  0
    0.9216   11.1157   25.8263 H   0  0  0  0  0  0
   -2.9507   11.2626   24.6953 H   0  0  0  0  0  0
    2.6556   14.1947   24.3666 H   0  0  0  0  0  0
    0.9101   12.2881   22.1744 H   0  0  0  0  0  0
    2.6726    9.3039   22.7668 H   0  0  0  0  0  0
    6.9564   11.6714   23.7988 H   0  0  0  0  0  0
    6.2761   13.5760   25.1687 H   0  0  0  0  0  0
    5.8323   14.5890   23.8180 H   0  0  0  0  0  0
    4.8507    8.1798   22.4736 H   0  0  0  0  0  0
    6.9433    9.3439   22.9595 H   0  0  0  0  0  0
    4.0612   16.7562   26.9479 H   0  0  0  0  0  0
  1 12  2  0  0  0
  2 14  2  0  0  0
  3  8  1  0  0  0
  3 10  1  0  0  0
  3 16  1  0  0  0
  4  9  1  0  0  0
  4 14  1  0  0  0
  4 21  1  0  0  0
  5 12  1  0  0  0
  5 14  1  0  0  0
  5 22  1  0  0  0
  6  7  1  0  0  0
  6  8  1  0  0  0
  6 13  2  0  0  0
  7 10  2  0  0  0
  7 11  1  0  0  0
  8 15  2  0  0  0
  9 11  2  0  0  0
  9 12  1  0  0  0
 10 23  1  0  0  0
 11 24  1  0  0  0
 13 17  1  0  0  0
 13 25  1  0  0  0
 15 18  1  0  0  0
 15 26  1  0  0  0
 16 19  1  0  0  0
 16 27  1  0  0  0
 16 28  1  0  0  0
 17 18  2  0  0  0
 17 29  1  0  0  0
 18 30  1  0  0  0
 19 20  3  0  0  0
 20 31  1  0  0  0
M  END
> <s_m_entry_id>
4947

> <s_m_entry_name>
dock_pv.266

> <s_m_Source_Path>
/home/csk/Desktop/cluster/DUD-E-result/hs90a

> <s_m_Source_File>
dock_pv.maegz

> <i_m_Source_File_Index>
266

> <chembl_id>
CHEMBL1506658

> <chembl_pref_name>
None

> <i_lp_mmshare_version>
53161

> <r_lp_tautomer_probability>
0.499999999953765

> <s_lp_Force_Field>
OPLS_2005

> <r_lp_Energy>
28.250218

> <b_lp_Chiralities_Consistent>
1

> <s_lp_Variant>
CHEMBL3880_lig18-1

> <s_i_glide_gridfile>
glide-grid_1uyg

> <i_i_glide_lignum>
21

> <i_i_glide_rotatable_bonds>
3

> <r_i_docking_score>
-7.90649883241185

> <r_i_glide_ligand_efficiency>
-0.395324941620593

> <r_i_glide_ligand_efficiency_sa>
-1.07307698474274

> <r_i_glide_ligand_efficiency_ln>
-1.97873588396838

> <r_i_glide_gscore>
-7.90649883241185

> <r_i_glide_lipo>
-3.08096599088624

> <r_i_glide_hbond>
-0.23486685514401

> <r_i_glide_metal>
0

> <r_i_glide_rewards>
-2.89469845684816

> <r_i_glide_evdw>
-41.9769706726074

> <r_i_glide_ecoul>
-2.37124538421631

> <r_i_glide_erotb>
0.758567811729377

> <r_i_glide_esite>
0

> <r_i_glide_emodel>
-61.5534665742503

> <r_i_glide_energy>
-44.3482160568237

> <r_i_glide_einternal>
6.53649950027466

> <i_i_glide_confnum>
1

> <i_i_glide_posenum>
95

> <r_i_glide_eff_state_penalty>
0

> <s_user_duplicate_titles>
CHEMBL3880_lig18

> <i_f3d_flags>
0

> <s_m_subgroup_title>
dock_pv

> <s_m_subgroupid>
dock_pv

> <b_m_subgroup_collapsed>
1

$$$$
CHEMBL3880_lig99
                    3D
 Schrodinger Suite 2021-1.
 69 72  0  0  1  0            999 V2000
    5.3412   11.7971   23.5669 S   0  0  0  0  0  0
   -2.0523   10.3821   24.7672 O   0  0  0  0  0  0
    4.0841   13.8867   24.4755 N   0  0  0  0  0  0
    2.7047   12.3668   23.3023 N   0  0  0  0  0  0
   -0.4836   10.7706   26.3414 N   0  0  0  0  0  0
    1.0747    7.9594   26.8688 N   0  0  2  0  0  0
    5.3978   14.0894   24.7670 C   0  0  0  0  0  0
    6.2809   13.0967   24.2690 C   0  0  0  0  0  0
    3.8922   12.7463   23.8727 C   0  0  0  0  0  0
    5.9025   15.1591   25.5212 C   0  0  0  0  0  0
    7.6613   13.1683   24.4637 C   0  0  0  0  0  0
    8.1523   14.2138   25.2416 C   0  0  0  0  0  0
    7.2818   15.1694   25.7666 C   0  0  0  0  0  0
    1.5091   13.2214   23.2217 C   0  0  0  0  0  0
    2.3488   10.9860   22.9653 C   0  0  0  0  0  0
    0.0289   11.2668   23.9619 C   0  0  0  0  0  0
    0.3968   12.7522   24.1807 C   0  0  0  0  0  0
    1.3303   10.4246   23.9672 C   0  0  0  0  0  0
    5.0203   16.2540   26.1004 C   0  0  0  0  0  0
   -0.9271   10.7666   25.0707 C   0  0  0  0  0  0
    9.6346   14.2749   25.5692 C   0  0  0  0  0  0
    0.8865    5.8767   25.4807 C   0  0  2  0  0  0
    2.9455    7.3680   25.3092 C   0  0  2  0  0  0
    0.6045    6.5608   26.8381 C   0  0  0  0  0  0
    2.5355    7.9979   26.6684 C   0  0  0  0  0  0
   -1.2508   10.3714   27.5246 C   0  0  0  0  0  0
    2.4156    5.9208   25.2381 C   0  0  0  0  0  0
    0.6670    8.6434   28.1000 C   0  0  0  0  0  0
   -0.8419    9.0090   28.1303 C   0  0  0  0  0  0
    0.1138    6.5496   24.3240 C   0  0  0  0  0  0
    4.4446    7.4915   24.9933 C   0  0  0  0  0  0
    0.4716   11.0541   26.5044 H   0  0  0  0  0  0
    8.3143   12.3932   24.0875 H   0  0  0  0  0  0
    7.6945   15.9626   26.3696 H   0  0  0  0  0  0
    1.1528   13.2206   22.1911 H   0  0  0  0  0  0
    1.7674   14.2596   23.4393 H   0  0  0  0  0  0
    1.9207   11.0039   21.9670 H   0  0  0  0  0  0
    3.2113   10.3231   22.9024 H   0  0  0  0  0  0
   -0.4972   11.1722   23.0122 H   0  0  0  0  0  0
   -0.4611   13.3919   23.9670 H   0  0  0  0  0  0
    0.8063   12.9354   25.1670 H   0  0  0  0  0  0
    1.8321   10.4192   24.9381 H   0  0  0  0  0  0
    1.1478    9.4137   23.6153 H   0  0  0  0  0  0
    5.5068   16.7686   26.9250 H   0  0  0  0  0  0
    4.7636   16.9801   25.3285 H   0  0  0  0  0  0
    4.0934   15.8327   26.4929 H   0  0  0  0  0  0
    9.8119   14.8034   26.5065 H   0  0  0  0  0  0
   10.0411   13.2708   25.7022 H   0  0  0  0  0  0
   10.1877   14.7700   24.7719 H   0  0  0  0  0  0
    0.6012    4.8298   25.5617 H   0  0  0  0  0  0
    2.4122    7.9054   24.5308 H   0  0  0  0  0  0
   -0.4722    6.5162   26.9907 H   0  0  0  0  0  0
    1.0235    5.9915   27.6691 H   0  0  0  0  0  0
    3.0704    7.5391   27.5030 H   0  0  0  0  0  0
    2.8570    9.0404   26.6708 H   0  0  0  0  0  0
   -2.3194   10.3554   27.2939 H   0  0  0  0  0  0
   -1.1392   11.1565   28.2726 H   0  0  0  0  0  0
    2.9421    5.2979   25.9640 H   0  0  0  0  0  0
    2.6546    5.4990   24.2602 H   0  0  0  0  0  0
    0.9448    8.0636   28.9829 H   0  0  0  0  0  0
    1.2358    9.5691   28.1582 H   0  0  0  0  0  0
   -1.4101    8.2713   27.5726 H   0  0  0  0  0  0
   -1.2026    8.9598   29.1560 H   0  0  0  0  0  0
    0.2132    7.6303   24.3251 H   0  0  0  0  0  0
   -0.9560    6.3688   24.4043 H   0  0  0  0  0  0
    0.4581    6.1836   23.3550 H   0  0  0  0  0  0
    5.0626    7.1319   25.8155 H   0  0  0  0  0  0
    4.7086    6.9183   24.1049 H   0  0  0  0  0  0
    4.7117    8.5264   24.7816 H   0  0  0  0  0  0
  1  8  1  0  0  0
  1  9  1  0  0  0
  2 20  2  0  0  0
  3  7  1  0  0  0
  3  9  2  0  0  0
  4  9  1  0  0  0
  4 14  1  0  0  0
  4 15  1  0  0  0
  5 20  1  0  0  0
  5 26  1  0  0  0
  5 32  1  0  0  0
  6 24  1  0  0  0
  6 25  1  0  0  0
  6 28  1  0  0  0
  7  8  1  0  0  0
  7 10  2  0  0  0
  8 11  2  0  0  0
 10 13  1  0  0  0
 10 19  1  0  0  0
 11 12  1  0  0  0
 11 33  1  0  0  0
 12 13  2  0  0  0
 12 21  1  0  0  0
 13 34  1  0  0  0
 14 17  1  0  0  0
 14 35  1  0  0  0
 14 36  1  0  0  0
 15 18  1  0  0  0
 15 37  1  0  0  0
 15 38  1  0  0  0
 16 17  1  0  0  0
 16 18  1  0  0  0
 16 20  1  0  0  0
 16 39  1  0  0  0
 17 40  1  0  0  0
 17 41  1  0  0  0
 18 42  1  0  0  0
 18 43  1  0  0  0
 19 44  1  0  0  0
 19 45  1  0  0  0
 19 46  1  0  0  0
 21 47  1  0  0  0
 21 48  1  0  0  0
 21 49  1  0  0  0
 22 24  1  0  0  0
 22 27  1  0  0  0
 22 30  1  0  0  0
 22 50  1  0  0  0
 23 25  1  0  0  0
 23 27  1  0  0  0
 23 31  1  0  0  0
 23 51  1  0  0  0
 24 52  1  0  0  0
 24 53  1  0  0  0
 25 54  1  0  0  0
 25 55  1  0  0  0
 26 29  1  0  0  0
 26 56  1  0  0  0
 26 57  1  0  0  0
 27 58  1  0  0  0
 27 59  1  0  0  0
 28 29  1  0  0  0
 28 60  1  0  0  0
 28 61  1  0  0  0
 29 62  1  0  0  0
 29 63  1  0  0  0
 30 64  1  0  0  0
 30 65  1  0  0  0
 30 66  1  0  0  0
 31 67  1  0  0  0
 31 68  1  0  0  0
 31 69  1  0  0  0
M  END
> <s_m_entry_id>
4948

> <s_m_entry_name>
dock_pv.267

> <s_m_Source_Path>
/home/csk/Desktop/cluster/DUD-E-result/hs90a

> <s_m_Source_File>
dock_pv.maegz

> <i_m_Source_File_Index>
267

> <chembl_id>
CHEMBL1562186

> <chembl_pref_name>
None

> <i_lp_mmshare_version>
53161

> <r_lp_tautomer_probability>
1

> <s_lp_Force_Field>
OPLS_2005

> <r_lp_Energy>
27.927507

> <b_lp_Chiralities_Consistent>
1

> <s_lp_Variant>
CHEMBL3880_lig99-1

> <s_i_glide_gridfile>
glide-grid_1uyg

> <i_i_glide_lignum>
111

> <i_i_glide_rotatable_bonds>
7

> <r_i_docking_score>
-7.90024376152234

> <r_i_glide_ligand_efficiency>
-0.254846572952333

> <r_i_glide_ligand_efficiency_sa>
-0.80057009268433

> <r_i_glide_ligand_efficiency_ln>
-1.78174708161786

> <r_i_glide_gscore>
-7.90024376152234

> <r_i_glide_lipo>
-4.83977854615487

> <r_i_glide_hbond>
0

> <r_i_glide_metal>
0

> <r_i_glide_rewards>
-1.887367768896

> <r_i_glide_evdw>
-43.9299049377441

> <r_i_glide_ecoul>
2.06303238868713

> <r_i_glide_erotb>
0.713942942112672

> <r_i_glide_esite>
0

> <r_i_glide_emodel>
-50.857276757663

> <r_i_glide_energy>
-41.866872549057

> <r_i_glide_einternal>
9.90535068511963

> <i_i_glide_confnum>
28

> <i_i_glide_posenum>
90

> <r_i_glide_eff_state_penalty>
0

> <s_user_duplicate_titles>
CHEMBL3880_lig99

> <i_f3d_flags>
0

> <s_m_subgroup_title>
dock_pv

> <s_m_subgroupid>
dock_pv

> <b_m_subgroup_collapsed>
1

$$$$
CHEMBL3880_lig913
                    3D
 Schrodinger Suite 2021-1.
 54 56  0  0  1  0            999 V2000
   -1.4066   11.5653   23.5536 N   0  0  0  0  0  0
   -0.7296   12.3002   22.6383 C   0  0  0  0  0  0
    0.6133   12.5316   22.6328 N   0  0  0  0  0  0
    1.3369   11.9273   23.6236 C   0  0  0  0  0  0
   -1.4761   12.7690   21.5670 N   0  0  0  0  0  0
    2.7927   12.2147   23.7003 C   0  0  0  0  0  0
    3.2355   13.4833   24.1048 C   0  0  0  0  0  0
    4.5918   13.7469   24.2724 C   0  0  0  0  0  0
    5.5297   12.7689   23.9670 C   0  0  0  0  0  0
    5.1072   11.5070   23.5606 C   0  0  0  0  0  0
    3.7380   11.2071   23.4394 C   0  0  0  0  0  0
    3.2526    9.9724   23.0363 O   0  0  0  0  0  0
    2.1182   14.7690   24.3670 Cl  0  0  0  0  0  0
    4.1312    8.9770   22.5167 C   0  0  0  0  0  0
    4.9079    8.2435   23.6282 C   0  0  0  0  0  0
    6.1211    7.4665   23.0825 C   0  0  0  0  0  0
    7.1424    7.0254   24.1405 C   0  0  0  0  0  0
    8.1458    6.3690   23.5671 F   0  0  0  0  0  0
    7.6723    8.0733   24.7670 F   0  0  0  0  0  0
    6.5974    6.2298   25.0603 F   0  0  0  0  0  0
    7.2157   13.1170   24.0955 Cl  0  0  0  0  0  0
   -0.6447   10.9738   24.5046 C   0  0  0  0  0  0
    0.7296   11.0955   24.5655 C   0  0  0  0  0  0
    1.2897   10.2291   25.6634 C   0  0  0  0  0  0
    0.0840    9.7050   26.3161 N   0  0  0  0  0  0
   -1.1335   10.0432   25.5694 C   0  0  0  0  0  0
    0.0660    8.9078   27.4151 C   0  0  0  0  0  0
    1.2756    8.4704   27.8239 N   0  0  0  0  0  0
   -0.9794    8.5647   27.9670 O   0  0  0  0  0  0
    1.5487    7.4410   28.8294 C   0  0  0  0  0  0
    1.1404    7.8491   30.2580 C   0  0  0  0  0  0
    3.0285    7.0287   28.7734 C   0  0  0  0  0  0
   -1.0273   13.2987   20.8384 H   0  0  0  0  0  0
   -2.4521   12.5042   21.5048 H   0  0  0  0  0  0
    4.9176   14.7298   24.5808 H   0  0  0  0  0  0
    5.8675   10.7788   23.3284 H   0  0  0  0  0  0
    3.5269    8.2546   21.9671 H   0  0  0  0  0  0
    4.7986    9.4233   21.7769 H   0  0  0  0  0  0
    5.2513    8.9606   24.3670 H   0  0  0  0  0  0
    4.2372    7.5711   24.1653 H   0  0  0  0  0  0
    5.7758    6.5960   22.5226 H   0  0  0  0  0  0
    6.6562    8.0908   22.3669 H   0  0  0  0  0  0
    1.9173   10.7690   26.3668 H   0  0  0  0  0  0
    1.8924    9.4111   25.2663 H   0  0  0  0  0  0
   -1.5390    9.1690   25.0772 H   0  0  0  0  0  0
   -1.9071   10.4692   26.2097 H   0  0  0  0  0  0
    2.0838    8.8075   27.3249 H   0  0  0  0  0  0
    0.9607    6.5616   28.5554 H   0  0  0  0  0  0
    1.4278    7.0835   30.9789 H   0  0  0  0  0  0
    0.0618    7.9690   30.3495 H   0  0  0  0  0  0
    1.6310    8.7690   30.5767 H   0  0  0  0  0  0
    3.2500    6.2715   29.5263 H   0  0  0  0  0  0
    3.2965    6.6041   27.8050 H   0  0  0  0  0  0
    3.6867    7.8723   28.9882 H   0  0  0  0  0  0
  1 22  1  0  0  0
  1  2  2  0  0  0
  2  5  1  0  0  0
  2  3  1  0  0  0
  3  4  2  0  0  0
  4 23  1  0  0  0
  4  6  1  0  0  0
  5 33  1  0  0  0
  5 34  1  0  0  0
  6 11  1  0  0  0
  6  7  2  0  0  0
  7  8  1  0  0  0
  7 13  1  0  0  0
  8  9  2  0  0  0
  8 35  1  0  0  0
  9 10  1  0  0  0
  9 21  1  0  0  0
 10 11  2  0  0  0
 10 36  1  0  0  0
 11 12  1  0  0  0
 12 14  1  0  0  0
 14 15  1  0  0  0
 14 37  1  0  0  0
 14 38  1  0  0  0
 15 16  1  0  0  0
 15 39  1  0  0  0
 15 40  1  0  0  0
 16 17  1  0  0  0
 16 41  1  0  0  0
 16 42  1  0  0  0
 17 18  1  0  0  0
 17 19  1  0  0  0
 17 20  1  0  0  0
 22 23  2  0  0  0
 22 26  1  0  0  0
 23 24  1  0  0  0
 24 25  1  0  0  0
 24 43  1  0  0  0
 24 44  1  0  0  0
 25 26  1  0  0  0
 25 27  1  0  0  0
 26 45  1  0  0  0
 26 46  1  0  0  0
 27 28  1  0  0  0
 27 29  2  0  0  0
 28 30  1  0  0  0
 28 47  1  0  0  0
 30 31  1  0  0  0
 30 32  1  0  0  0
 30 48  1  0  0  0
 31 49  1  0  0  0
 31 50  1  0  0  0
 31 51  1  0  0  0
 32 52  1  0  0  0
 32 53  1  0  0  0
 32 54  1  0  0  0
M  END
> <s_m_entry_id>
4949

> <s_m_entry_name>
dock_pv.268

> <s_m_Source_Path>
/home/csk/Desktop/cluster/DUD-E-result/hs90a

> <s_m_Source_File>
dock_pv.maegz

> <i_m_Source_File_Index>
268

> <chembl_id>
CHEMBL1774907

> <chembl_pref_name>
None

> <i_lp_mmshare_version>
53161

> <r_lp_tautomer_probability>
0.999999987636

> <s_lp_Force_Field>
OPLS_2005

> <r_lp_Energy>
34.418775

> <b_lp_Chiralities_Consistent>
1

> <s_lp_Variant>
CHEMBL3880_lig913-1

> <s_i_glide_gridfile>
glide-grid_1uyg

> <i_i_glide_lignum>
1019

> <i_i_glide_rotatable_bonds>
9

> <r_i_docking_score>
-7.89034384192759

> <r_i_glide_ligand_efficiency>
-0.246573245060237

> <r_i_glide_ligand_efficiency_sa>
-0.782821256287316

> <r_i_glide_ligand_efficiency_ln>
-1.76686306885744

> <r_i_glide_gscore>
-7.89034384192759

> <r_i_glide_lipo>
-3.48787923264875

> <r_i_glide_hbond>
0

> <r_i_glide_metal>
0

> <r_i_glide_rewards>
-2.02504508322306

> <r_i_glide_evdw>
-46.7708129882812

> <r_i_glide_ecoul>
-4.07396745681763

> <r_i_glide_erotb>
0.588108805044545

> <r_i_glide_esite>
-0.0158925631636132

> <r_i_glide_emodel>
-70.9350380918948

> <r_i_glide_energy>
-50.8447804450989

> <r_i_glide_einternal>
4.83794021606445

> <i_i_glide_confnum>
58

> <i_i_glide_posenum>
34

> <r_i_glide_eff_state_penalty>
0

> <s_user_duplicate_titles>
CHEMBL3880_lig913

> <i_f3d_flags>
0

> <s_m_subgroup_title>
dock_pv

> <s_m_subgroupid>
dock_pv

> <b_m_subgroup_collapsed>
1

$$$$
CHEMBL3880_lig151
                    3D
 Schrodinger Suite 2021-1.
 46 49  0  0  1  0            999 V2000
    1.2190   10.3386   24.2988 C   0  0  0  0  0  0
    0.0321   11.0699   24.2553 C   0  0  0  0  0  0
   -1.0893   10.4996   24.8177 O   0  0  0  0  0  0
   -1.1339   13.0741   23.5043 O   0  0  0  0  0  0
   -0.0221   12.2739   23.5343 C   0  0  0  0  0  0
    1.0892   12.7400   22.8527 C   0  0  0  0  0  0
    2.2473   11.9766   22.8568 C   0  0  0  0  0  0
    2.3333   10.7825   23.5750 C   0  0  0  0  0  0
    3.5961    9.9934   23.5289 C   0  0  0  0  0  0
    3.6534    8.6125   23.3392 C   0  0  0  0  0  0
    2.6088    7.5393   23.1254 C   0  0  0  0  0  0
    4.9833    8.3182   23.3637 N   0  0  0  0  0  0
    4.9548   10.4244   23.6169 C   0  0  0  0  0  0
    5.7581    9.3810   23.5416 N   0  0  0  0  0  0
    5.5454   11.8100   23.8363 C   0  0  0  0  0  0
    4.7429   12.8367   24.3670 C   0  0  0  0  0  0
    5.2413   14.1090   24.6603 C   0  0  0  0  0  0
    4.2994   15.1892   25.1814 C   0  0  0  0  0  0
    4.3454   15.3136   26.7063 C   0  0  0  0  0  0
    6.6025   14.3568   24.4779 C   0  0  0  0  0  0
   -2.1673   11.4161   25.0072 C   0  0  0  0  0  0
    7.1604   15.5689   24.7762 O   0  0  0  0  0  0
    7.4206   13.3628   23.9667 C   0  0  0  0  0  0
   -2.3389   12.3812   23.7928 C   0  0  0  0  0  0
    6.9061   12.1181   23.6099 C   0  0  0  0  0  0
    7.7899   11.2314   23.0521 O   0  0  0  0  0  0
    1.2520    9.4051   24.8415 H   0  0  0  0  0  0
    1.0522   13.6825   22.3291 H   0  0  0  0  0  0
    3.1213   12.3593   22.3669 H   0  0  0  0  0  0
    1.6605    7.9539   22.7836 H   0  0  0  0  0  0
    2.9143    6.8194   22.3649 H   0  0  0  0  0  0
    2.4091    6.9811   24.0400 H   0  0  0  0  0  0
    5.3681    7.3916   23.2507 H   0  0  0  0  0  0
    3.7280   12.6423   24.6628 H   0  0  0  0  0  0
    3.2783   14.9718   24.8626 H   0  0  0  0  0  0
    4.5480   16.1464   24.7213 H   0  0  0  0  0  0
    3.6611   16.0847   27.0622 H   0  0  0  0  0  0
    5.3458   15.5688   27.0596 H   0  0  0  0  0  0
    4.0604   14.3693   27.1671 H   0  0  0  0  0  0
   -1.9393   11.9691   25.9147 H   0  0  0  0  0  0
   -3.0805   10.8466   25.1846 H   0  0  0  0  0  0
    6.5255   16.1802   25.1568 H   0  0  0  0  0  0
    8.4610   13.5856   23.8173 H   0  0  0  0  0  0
   -3.0726   13.1691   23.9673 H   0  0  0  0  0  0
   -2.6531   11.8104   22.9165 H   0  0  0  0  0  0
    8.6684   11.6141   22.9585 H   0  0  0  0  0  0
  1  2  2  0  0  0
  1  8  1  0  0  0
  1 27  1  0  0  0
  2  3  1  0  0  0
  2  5  1  0  0  0
  3 21  1  0  0  0
  4  5  1  0  0  0
  4 24  1  0  0  0
  5  6  2  0  0  0
  6  7  1  0  0  0
  6 28  1  0  0  0
  7  8  2  0  0  0
  7 29  1  0  0  0
  8  9  1  0  0  0
  9 10  2  0  0  0
  9 13  1  0  0  0
 10 12  1  0  0  0
 10 11  1  0  0  0
 11 30  1  0  0  0
 11 31  1  0  0  0
 11 32  1  0  0  0
 12 14  1  0  0  0
 12 33  1  0  0  0
 13 15  1  0  0  0
 13 14  2  0  0  0
 15 16  2  0  0  0
 15 25  1  0  0  0
 16 17  1  0  0  0
 16 34  1  0  0  0
 17 18  1  0  0  0
 17 20  2  0  0  0
 18 19  1  0  0  0
 18 35  1  0  0  0
 18 36  1  0  0  0
 19 37  1  0  0  0
 19 38  1  0  0  0
 19 39  1  0  0  0
 20 22  1  0  0  0
 20 23  1  0  0  0
 21 24  1  0  0  0
 21 40  1  0  0  0
 21 41  1  0  0  0
 22 42  1  0  0  0
 23 25  2  0  0  0
 23 43  1  0  0  0
 24 44  1  0  0  0
 24 45  1  0  0  0
 25 26  1  0  0  0
 26 46  1  0  0  0
M  END
> <s_m_entry_id>
4950

> <s_m_entry_name>
dock_pv.269

> <s_m_Source_Path>
/home/csk/Desktop/cluster/DUD-E-result/hs90a

> <s_m_Source_File>
dock_pv.maegz

> <i_m_Source_File_Index>
269

> <chembl_id>
CHEMBL399530

> <chembl_pref_name>
None

> <i_lp_mmshare_version>
53161

> <r_lp_tautomer_probability>
0.4999999999745

> <s_lp_Force_Field>
OPLS_2005

> <r_lp_Energy>
23.672729

> <b_lp_Chiralities_Consistent>
1

> <s_lp_Variant>
CHEMBL3880_lig151-2

> <s_i_glide_gridfile>
glide-grid_1uyg

> <i_i_glide_lignum>
172

> <i_i_glide_rotatable_bonds>
5

> <r_i_docking_score>
-7.88473603382133

> <r_i_glide_ligand_efficiency>
-0.303259078223897

> <r_i_glide_ligand_efficiency_sa>
-0.898403825971444

> <r_i_glide_ligand_efficiency_ln>
-1.8517043856138

> <r_i_glide_gscore>
-7.88473603382133

> <r_i_glide_lipo>
-3.85478532875021

> <r_i_glide_hbond>
-0.32

> <r_i_glide_metal>
0

> <r_i_glide_rewards>
-1.45764725422746

> <r_i_glide_evdw>
-36.1337966918945

> <r_i_glide_ecoul>
-5.01994562149048

> <r_i_glide_erotb>
0.307378226974638

> <r_i_glide_esite>
0

> <r_i_glide_emodel>
-61.4168334871848

> <r_i_glide_energy>
-41.153742313385

> <r_i_glide_einternal>
1.9318470954895

> <i_i_glide_confnum>
21

> <i_i_glide_posenum>
215

> <r_i_glide_eff_state_penalty>
0

> <s_user_duplicate_titles>
CHEMBL3880_lig151,CHEMBL3880_lig151,418966

> <i_f3d_flags>
0

> <s_m_subgroup_title>
dock_pv

> <s_m_subgroupid>
dock_pv

> <b_m_subgroup_collapsed>
1

$$$$
CHEMBL3880_lig155
                    3D
 Schrodinger Suite 2021-1.
 38 40  0  0  1  0            999 V2000
   -0.6916   11.0120   24.6759 C   0  0  0  0  0  0
   -1.9378   11.0863   24.2595 N   0  0  0  0  0  0
    0.1725   11.6946   23.7746 C   0  0  0  0  0  0
   -0.3910   10.2451   25.9408 C   0  0  0  0  0  0
   -1.9115   11.7808   23.1289 N   0  0  0  0  0  0
   -0.6574   12.1745   22.7646 C   0  0  0  0  0  0
   -1.3007   10.1568   27.0156 C   0  0  0  0  0  0
    0.8120    9.5334   26.0493 C   0  0  0  0  0  0
   -1.0055    9.3878   28.1361 C   0  0  0  0  0  0
    1.1129    8.7701   27.1766 C   0  0  0  0  0  0
    0.1960    8.6951   28.2254 C   0  0  0  0  0  0
    1.6479   11.8847   23.8320 C   0  0  0  0  0  0
    2.1686   13.0936   24.2918 C   0  0  0  0  0  0
    2.5107   10.8746   23.4063 C   0  0  0  0  0  0
    2.7759    7.8399   27.2511 Br  0  0  0  0  0  0
   -2.5265   10.7689   26.9970 O   0  0  0  0  0  0
    0.4621    7.9758   29.3601 O   0  0  0  0  0  0
    4.4184   12.2537   23.9649 C   0  0  0  0  0  0
    3.8878   11.0540   23.4940 C   0  0  0  0  0  0
    3.5480   13.2792   24.3668 C   0  0  0  0  0  0
    5.7972   12.3480   23.9668 O   0  0  0  0  0  0
   -0.4039   12.9281   21.4823 C   0  0  0  0  0  0
    6.4123   13.5681   24.3670 C   0  0  0  0  0  0
   -2.7540   11.9644   22.5988 H   0  0  0  0  0  0
    1.5284    9.5356   25.2498 H   0  0  0  0  0  0
   -1.7192    9.3272   28.9436 H   0  0  0  0  0  0
    1.5040   13.8899   24.5899 H   0  0  0  0  0  0
    2.1161    9.9434   23.0240 H   0  0  0  0  0  0
   -2.7907   11.0644   26.1190 H   0  0  0  0  0  0
    0.0173    8.3564   30.1251 H   0  0  0  0  0  0
    4.5507   10.2634   23.1735 H   0  0  0  0  0  0
    3.9216   14.2260   24.7251 H   0  0  0  0  0  0
    0.4767   13.5616   21.5666 H   0  0  0  0  0  0
   -0.2304   12.2662   20.6377 H   0  0  0  0  0  0
   -1.2432   13.5688   21.2059 H   0  0  0  0  0  0
    7.4945   13.4565   24.3248 H   0  0  0  0  0  0
    6.1500   13.8580   25.3845 H   0  0  0  0  0  0
    6.1383   14.3798   23.7007 H   0  0  0  0  0  0
  1  4  1  0  0  0
  1  2  2  0  0  0
  1  3  1  0  0  0
  2  5  1  0  0  0
  3  6  2  0  0  0
  3 12  1  0  0  0
  4  7  2  0  0  0
  4  8  1  0  0  0
  5 24  1  0  0  0
  5  6  1  0  0  0
  6 22  1  0  0  0
  7  9  1  0  0  0
  7 16  1  0  0  0
  8 10  2  0  0  0
  8 25  1  0  0  0
  9 11  2  0  0  0
  9 26  1  0  0  0
 10 11  1  0  0  0
 10 15  1  0  0  0
 11 17  1  0  0  0
 12 13  2  0  0  0
 12 14  1  0  0  0
 13 20  1  0  0  0
 13 27  1  0  0  0
 14 19  2  0  0  0
 14 28  1  0  0  0
 16 29  1  0  0  0
 17 30  1  0  0  0
 18 19  1  0  0  0
 18 21  1  0  0  0
 18 20  2  0  0  0
 19 31  1  0  0  0
 20 32  1  0  0  0
 21 23  1  0  0  0
 22 33  1  0  0  0
 22 34  1  0  0  0
 22 35  1  0  0  0
 23 36  1  0  0  0
 23 37  1  0  0  0
 23 38  1  0  0  0
M  END
> <s_m_entry_id>
4951

> <s_m_entry_name>
dock_pv.270

> <s_m_Source_Path>
/home/csk/Desktop/cluster/DUD-E-result/hs90a

> <s_m_Source_File>
dock_pv.maegz

> <i_m_Source_File_Index>
270

> <chembl_id>
CHEMBL364968

> <chembl_pref_name>
None

> <i_lp_mmshare_version>
53161

> <r_lp_tautomer_probability>
0.4999999999745

> <s_lp_Force_Field>
OPLS_2005

> <r_lp_Energy>
21.327604

> <b_lp_Chiralities_Consistent>
1

> <s_lp_Variant>
CHEMBL3880_lig155-2

> <s_i_glide_gridfile>
glide-grid_1uyg

> <i_i_glide_lignum>
180

> <i_i_glide_rotatable_bonds>
5

> <r_i_docking_score>
-7.88393060027732

> <r_i_glide_ligand_efficiency>
-0.342779591316405

> <r_i_glide_ligand_efficiency_sa>
-0.974819560092892

> <r_i_glide_ligand_efficiency_ln>
-1.90640590667734

> <r_i_glide_gscore>
-7.88393060027732

> <r_i_glide_lipo>
-4.20521240023965

> <r_i_glide_hbond>
-0.350577606756435

> <r_i_glide_metal>
0

> <r_i_glide_rewards>
-1.00030190544422

> <r_i_glide_evdw>
-38.255989074707

> <r_i_glide_ecoul>
-4.598952293396

> <r_i_glide_erotb>
0.274803609907731

> <r_i_glide_esite>
0

> <r_i_glide_emodel>
-61.1362808553538

> <r_i_glide_energy>
-42.854941368103

> <r_i_glide_einternal>
4.02216577529907

> <i_i_glide_confnum>
16

> <i_i_glide_posenum>
103

> <r_i_glide_eff_state_penalty>
0

> <s_user_duplicate_titles>
CHEMBL3880_lig155,CHEMBL3880_lig155,317091

> <i_f3d_flags>
0

> <s_m_subgroup_title>
dock_pv

> <s_m_subgroupid>
dock_pv

> <b_m_subgroup_collapsed>
1

$$$$
CHEMBL3880_lig169
                    3D
 Schrodinger Suite 2021-1.
 43 46  0  0  1  0            999 V2000
    2.1305   10.6665   24.0372 C   0  0  0  0  0  0
    1.9084   10.0917   25.2386 N   0  0  0  0  0  0
    1.0841   11.3088   23.5689 N   0  0  0  0  0  0
    0.1292   11.1152   24.5005 C   0  0  0  0  0  0
    0.6171   10.3762   25.5661 C   0  0  0  0  0  0
    3.6546   10.4928   23.1669 S   0  0  0  0  0  0
    4.6299   11.8662   23.7519 C   0  0  0  0  0  0
   -1.2316   11.5068   24.5722 C   0  0  0  0  0  0
   -0.0734   10.0133   26.6742 N   0  0  0  0  0  0
    4.0255   12.9800   24.3673 C   0  0  0  0  0  0
   -1.9394   11.1679   25.6789 N   0  0  0  0  0  0
    6.8270   12.9281   23.9671 C   0  0  0  0  0  0
    4.8422   14.0306   24.7664 C   0  0  0  0  0  0
    6.1937   14.0045   24.5760 C   0  0  0  0  0  0
    6.0346   11.8447   23.5654 C   0  0  0  0  0  0
    1.1964    7.0870   28.1701 C   0  0  0  0  0  0
    1.0147    7.7663   29.1684 C   0  0  0  0  0  0
   -1.3336   10.4561   26.6334 C   0  0  0  0  0  0
    6.7426   15.1372   25.0854 O   0  0  0  0  0  0
    4.4967   15.1809   25.4018 O   0  0  0  0  0  0
    5.6617   15.9601   25.4398 C   0  0  0  0  0  0
    2.8559    9.2948   26.0417 C   0  0  0  0  0  0
   -1.9125   12.2104   23.5841 N   0  0  0  0  0  0
    6.9214   10.3741   22.7286 Br  0  0  0  0  0  0
    1.4195    6.2449   26.9809 C   0  0  0  0  0  0
    2.9556    7.8316   25.5503 C   0  0  0  0  0  0
    1.6605    6.9818   25.6429 C   0  0  0  0  0  0
    2.9604   13.0405   24.5262 H   0  0  0  0  0  0
    7.8969   12.9093   23.8179 H   0  0  0  0  0  0
    0.8624    8.3688   30.0368 H   0  0  0  0  0  0
   -1.9453   10.2050   27.4879 H   0  0  0  0  0  0
    5.8091   16.3678   26.4400 H   0  0  0  0  0  0
    5.5763   16.7708   24.7134 H   0  0  0  0  0  0
    2.5276    9.3699   27.0792 H   0  0  0  0  0  0
    3.8112    9.8128   25.9669 H   0  0  0  0  0  0
   -1.4730   12.3831   22.6933 H   0  0  0  0  0  0
   -2.9098   12.3517   23.7281 H   0  0  0  0  0  0
    2.2610    5.5886   27.2028 H   0  0  0  0  0  0
    0.5428    5.6023   26.8895 H   0  0  0  0  0  0
    3.7533    7.3265   26.0982 H   0  0  0  0  0  0
    3.2942    7.8372   24.5127 H   0  0  0  0  0  0
    1.7108    6.2168   24.8657 H   0  0  0  0  0  0
    0.7857    7.5776   25.3790 H   0  0  0  0  0  0
  1  2  1  0  0  0
  1  3  2  0  0  0
  1  6  1  0  0  0
  2  5  1  0  0  0
  2 22  1  0  0  0
  3  4  1  0  0  0
  4  8  1  0  0  0
  4  5  2  0  0  0
  5  9  1  0  0  0
  6  7  1  0  0  0
  7 10  2  0  0  0
  7 15  1  0  0  0
  8 11  2  0  0  0
  8 23  1  0  0  0
  9 18  2  0  0  0
 10 13  1  0  0  0
 10 28  1  0  0  0
 11 18  1  0  0  0
 12 15  2  0  0  0
 12 14  1  0  0  0
 12 29  1  0  0  0
 13 14  2  0  0  0
 13 20  1  0  0  0
 14 19  1  0  0  0
 15 24  1  0  0  0
 16 25  1  0  0  0
 16 17  3  0  0  0
 17 30  1  0  0  0
 18 31  1  0  0  0
 19 21  1  0  0  0
 20 21  1  0  0  0
 21 32  1  0  0  0
 21 33  1  0  0  0
 22 26  1  0  0  0
 22 34  1  0  0  0
 22 35  1  0  0  0
 23 36  1  0  0  0
 23 37  1  0  0  0
 25 27  1  0  0  0
 25 38  1  0  0  0
 25 39  1  0  0  0
 26 27  1  0  0  0
 26 40  1  0  0  0
 26 41  1  0  0  0
 27 42  1  0  0  0
 27 43  1  0  0  0
M  END
> <s_m_entry_id>
4952

> <s_m_entry_name>
dock_pv.271

> <s_m_Source_Path>
/home/csk/Desktop/cluster/DUD-E-result/hs90a

> <s_m_Source_File>
dock_pv.maegz

> <i_m_Source_File_Index>
271

> <chembl_id>
CHEMBL1213891

> <chembl_pref_name>
None

> <i_lp_mmshare_version>
53161

> <r_lp_tautomer_probability>
0.999997216410988

> <s_lp_Force_Field>
OPLS_2005

> <r_lp_Energy>
21.936958

> <b_lp_Chiralities_Consistent>
1

> <s_lp_Variant>
CHEMBL3880_lig169-1

> <s_i_glide_gridfile>
glide-grid_1uyg

> <i_i_glide_lignum>
200

> <i_i_glide_rotatable_bonds>
7

> <r_i_docking_score>
-7.88132895220125

> <r_i_glide_ligand_efficiency>
-0.29190107230375

> <r_i_glide_ligand_efficiency_sa>
-0.875703215949192

> <r_i_glide_ligand_efficiency_ln>
-1.83464344620979

> <r_i_glide_gscore>
-7.88132895220125

> <r_i_glide_lipo>
-2.88202511881476

> <r_i_glide_hbond>
-0.149963784525527

> <r_i_glide_metal>
0

> <r_i_glide_rewards>
-2.60596456468159

> <r_i_glide_evdw>
-46.2970886230469

> <r_i_glide_ecoul>
-4.16782474517822

> <r_i_glide_erotb>
0.703343124437608

> <r_i_glide_esite>
-0.00669046568790536

> <r_i_glide_emodel>
-71.7947162066526

> <r_i_glide_energy>
-50.4649133682251

> <r_i_glide_einternal>
2.91924071311951

> <i_i_glide_confnum>
107

> <i_i_glide_posenum>
232

> <r_i_glide_eff_state_penalty>
0

> <s_user_duplicate_titles>
CHEMBL3880_lig169

> <i_f3d_flags>
0

> <s_m_subgroup_title>
dock_pv

> <s_m_subgroupid>
dock_pv

> <b_m_subgroup_collapsed>
1

$$$$
CHEMBL3880_lig153
                    3D
 Schrodinger Suite 2021-1.
 40 43  0  0  1  0            999 V2000
    0.4930    8.3676   28.8116 C   0  0  0  0  0  0
   -0.1822    9.1686   27.8907 C   0  0  0  0  0  0
    0.2641    9.2660   26.5545 C   0  0  0  0  0  0
    1.3445    8.4577   26.1790 C   0  0  0  0  0  0
    2.0185    7.6515   27.0956 C   0  0  0  0  0  0
    1.5987    7.6203   28.4255 C   0  0  0  0  0  0
    2.2651    6.8836   29.3708 O   0  0  0  0  0  0
   -1.2589    9.8679   28.3662 O   0  0  0  0  0  0
   -0.3607   10.1844   25.5248 C   0  0  0  0  0  0
   -1.6640   10.3692   25.5413 N   0  0  0  0  0  0
   -1.9391   11.2082   24.5510 N   0  0  0  0  0  0
   -0.8304   11.6171   23.8691 C   0  0  0  0  0  0
    0.2373   10.9676   24.4908 C   0  0  0  0  0  0
    1.6788   11.1491   24.1238 C   0  0  0  0  0  0
    2.4354   10.1316   23.5265 C   0  0  0  0  0  0
    3.6435   12.5849   24.0942 C   0  0  0  0  0  0
    2.2876   12.3855   24.3664 C   0  0  0  0  0  0
   -0.9319   12.5790   22.7094 C   0  0  0  0  0  0
    4.4023   11.5418   23.5679 C   0  0  0  0  0  0
    3.7911   10.3181   23.2625 C   0  0  0  0  0  0
    4.5005    9.2399   22.7727 O   0  0  0  0  0  0
    5.7957    9.5630   22.2538 C   0  0  0  0  0  0
    6.5200   10.5914   23.1578 C   0  0  0  0  0  0
    5.7355   11.7810   23.2988 O   0  0  0  0  0  0
    3.3762    6.7242   26.5577 Cl  0  0  0  0  0  0
    0.1614    8.3338   29.8392 H   0  0  0  0  0  0
    1.6735    8.4286   25.1614 H   0  0  0  0  0  0
    2.0790    7.1758   30.2658 H   0  0  0  0  0  0
   -1.3300    9.7688   29.3226 H   0  0  0  0  0  0
   -2.8888   11.5211   24.3664 H   0  0  0  0  0  0
    1.9805    9.1900   23.2606 H   0  0  0  0  0  0
    4.1044   13.5417   24.2938 H   0  0  0  0  0  0
    1.7072   13.2016   24.7673 H   0  0  0  0  0  0
    0.0328   13.0323   22.4663 H   0  0  0  0  0  0
   -1.2962   12.0797   21.8080 H   0  0  0  0  0  0
   -1.6247   13.3956   22.9252 H   0  0  0  0  0  0
    6.3827    8.6469   22.1705 H   0  0  0  0  0  0
    5.6853    9.9714   21.2487 H   0  0  0  0  0  0
    6.6862   10.1490   24.1409 H   0  0  0  0  0  0
    7.4959   10.8484   22.7418 H   0  0  0  0  0  0
  1  2  2  0  0  0
  1  6  1  0  0  0
  1 26  1  0  0  0
  2  8  1  0  0  0
  2  3  1  0  0  0
  3  9  1  0  0  0
  3  4  2  0  0  0
  4  5  1  0  0  0
  4 27  1  0  0  0
  5  6  2  0  0  0
  5 25  1  0  0  0
  6  7  1  0  0  0
  7 28  1  0  0  0
  8 29  1  0  0  0
  9 13  1  0  0  0
  9 10  2  0  0  0
 10 11  1  0  0  0
 11 12  1  0  0  0
 11 30  1  0  0  0
 12 13  2  0  0  0
 12 18  1  0  0  0
 13 14  1  0  0  0
 14 15  2  0  0  0
 14 17  1  0  0  0
 15 20  1  0  0  0
 15 31  1  0  0  0
 16 19  1  0  0  0
 16 17  2  0  0  0
 16 32  1  0  0  0
 17 33  1  0  0  0
 18 34  1  0  0  0
 18 35  1  0  0  0
 18 36  1  0  0  0
 19 20  2  0  0  0
 19 24  1  0  0  0
 20 21  1  0  0  0
 21 22  1  0  0  0
 22 23  1  0  0  0
 22 37  1  0  0  0
 22 38  1  0  0  0
 23 24  1  0  0  0
 23 39  1  0  0  0
 23 40  1  0  0  0
M  END
> <s_m_entry_id>
4953

> <s_m_entry_name>
dock_pv.272

> <s_m_Source_Path>
/home/csk/Desktop/cluster/DUD-E-result/hs90a

> <s_m_Source_File>
dock_pv.maegz

> <i_m_Source_File_Index>
272

> <chembl_id>
CHEMBL191074

> <chembl_pref_name>
None

> <i_lp_mmshare_version>
53161

> <r_lp_tautomer_probability>
0.4999999999745

> <s_lp_Force_Field>
OPLS_2005

> <r_lp_Energy>
21.354819

> <b_lp_Chiralities_Consistent>
1

> <s_lp_Variant>
CHEMBL3880_lig153-1

> <s_i_glide_gridfile>
glide-grid_1uyg

> <i_i_glide_lignum>
175

> <i_i_glide_rotatable_bonds>
4

> <r_i_docking_score>
-7.87675557939995

> <r_i_glide_ligand_efficiency>
-0.315070223175998

> <r_i_glide_ligand_efficiency_sa>
-0.921270920360819

> <r_i_glide_ligand_efficiency_ln>
-1.86702711963465

> <r_i_glide_gscore>
-7.87675557939995

> <r_i_glide_lipo>
-3.69827918094197

> <r_i_glide_hbond>
-0.438119652406298

> <r_i_glide_metal>
0

> <r_i_glide_rewards>
-1.137895

> <r_i_glide_evdw>
-40.7774620056152

> <r_i_glide_ecoul>
-5.74189901351929

> <r_i_glide_erotb>
0.297696206256972

> <r_i_glide_esite>
0

> <r_i_glide_emodel>
-68.8770359701333

> <r_i_glide_energy>
-46.5193610191345

> <r_i_glide_einternal>
1.89404237270355

> <i_i_glide_confnum>
19

> <i_i_glide_posenum>
235

> <r_i_glide_eff_state_penalty>
0

> <s_user_duplicate_titles>
CHEMBL3880_lig153,CHEMBL3880_lig153,315964

> <i_f3d_flags>
0

> <s_m_subgroup_title>
dock_pv

> <s_m_subgroupid>
dock_pv

> <b_m_subgroup_collapsed>
1

$$$$
CHEMBL3880_lig394
                    3D
 Schrodinger Suite 2021-1.
 66 68  0  0  1  0            999 V2000
   -1.4856   11.4305   24.6885 C   0  0  0  0  0  0
   -1.9701   10.9399   25.8915 C   0  0  0  0  0  0
   -1.1411   10.2301   26.7500 C   0  0  0  0  0  0
    0.1692    9.8958   26.3560 C   0  0  0  0  0  0
    0.6716   10.4672   25.1731 C   0  0  0  0  0  0
   -0.1368   11.2746   24.3530 C   0  0  0  0  0  0
    0.3964   12.0267   23.1208 C   0  0  0  0  0  0
    1.7462   11.5708   22.5650 C   0  0  0  0  0  0
    0.4745   13.5370   23.4132 C   0  0  0  0  0  0
   -2.3390   12.0883   23.8457 O   0  0  0  0  0  0
   -1.6729    9.8638   27.9610 O   0  0  0  0  0  0
    0.9947    8.9204   27.1587 C   0  0  0  0  0  0
    0.6056    8.7402   28.4460 O   0  0  0  0  0  0
    1.3691    7.7531   29.0457 N   0  0  0  0  0  0
    2.2347    7.3629   28.1390 C   0  0  0  0  0  0
    2.0799    8.0728   26.9171 C   0  0  0  0  0  0
    2.8582    7.9364   25.6827 C   0  0  0  0  0  0
    3.1935    6.3355   28.4420 C   0  0  0  0  0  0
    4.4636    6.7676   28.4093 N   0  0  0  0  0  0
    2.8463    5.1906   28.7429 O   0  0  0  0  0  0
    3.5940    7.9054   24.7041 C   0  0  0  0  0  0
    4.5954    8.0261   23.6158 C   0  0  0  0  0  0
    5.6461    5.9684   28.7138 C   0  0  0  0  0  0
    6.3744    5.5223   27.4437 C   0  0  0  0  0  0
    5.7343    7.0041   23.8437 C   0  0  0  0  0  0
    3.9534    7.7978   22.2268 C   0  0  0  0  0  0
    5.0741    9.3999   23.7380 N   0  0  0  0  0  0
    6.0502   10.0607   23.0903 C   0  0  0  0  0  0
    6.2170   11.4906   23.5303 C   0  0  0  0  0  0
    7.4693   12.1064   23.5439 C   0  0  0  0  0  0
    7.6610   13.3837   23.9672 N   0  0  0  0  0  0
    6.5835   14.1006   24.3683 C   0  0  0  0  0  0
    5.2928   13.5777   24.3671 C   0  0  0  0  0  0
    5.1272   12.2540   23.9671 C   0  0  0  0  0  0
    6.7662    9.5703   22.2172 O   0  0  0  0  0  0
    6.8608   15.5143   24.8344 C   0  0  0  0  0  0
   -2.9989   11.1231   26.1698 H   0  0  0  0  0  0
    1.7004   10.2957   24.8982 H   0  0  0  0  0  0
   -0.3251   11.8740   22.3163 H   0  0  0  0  0  0
    1.8909   10.4929   22.5607 H   0  0  0  0  0  0
    1.8903   11.9556   21.5585 H   0  0  0  0  0  0
    2.5219   12.0246   23.1501 H   0  0  0  0  0  0
   -0.5131   13.9685   23.5671 H   0  0  0  0  0  0
    1.0673   13.7406   24.3059 H   0  0  0  0  0  0
    0.9478   14.0699   22.5901 H   0  0  0  0  0  0
   -3.2873   11.9972   24.0775 H   0  0  0  0  0  0
   -1.0260    9.4128   28.5140 H   0  0  0  0  0  0
    4.6200    7.7483   28.2284 H   0  0  0  0  0  0
    6.3145    6.5824   29.3177 H   0  0  0  0  0  0
    5.4005    5.1072   29.3339 H   0  0  0  0  0  0
    7.2150    4.8776   27.6896 H   0  0  0  0  0  0
    5.7118    4.9777   26.7714 H   0  0  0  0  0  0
    6.7814    6.3702   26.9009 H   0  0  0  0  0  0
    5.3609    5.9789   23.8746 H   0  0  0  0  0  0
    6.4708    7.0437   23.0409 H   0  0  0  0  0  0
    6.2699    7.1924   24.7744 H   0  0  0  0  0  0
    3.5316    6.7997   22.1117 H   0  0  0  0  0  0
    3.1610    8.5131   22.0165 H   0  0  0  0  0  0
    4.6919    7.9110   21.4331 H   0  0  0  0  0  0
    4.6256    9.9045   24.4861 H   0  0  0  0  0  0
    8.3569   11.5720   23.2307 H   0  0  0  0  0  0
    4.4523   14.1602   24.7159 H   0  0  0  0  0  0
    4.1742   11.7915   24.0971 H   0  0  0  0  0  0
    5.9711   16.1412   24.7578 H   0  0  0  0  0  0
    7.1906   15.5138   25.8742 H   0  0  0  0  0  0
    7.6431   15.9685   24.2281 H   0  0  0  0  0  0
  1  2  2  0  0  0
  1  6  1  0  0  0
  1 10  1  0  0  0
  2  3  1  0  0  0
  2 37  1  0  0  0
  3  4  2  0  0  0
  3 11  1  0  0  0
  4  5  1  0  0  0
  4 12  1  0  0  0
  5  6  2  0  0  0
  5 38  1  0  0  0
  6  7  1  0  0  0
  7  8  1  0  0  0
  7  9  1  0  0  0
  7 39  1  0  0  0
  8 40  1  0  0  0
  8 41  1  0  0  0
  8 42  1  0  0  0
  9 43  1  0  0  0
  9 44  1  0  0  0
  9 45  1  0  0  0
 10 46  1  0  0  0
 11 47  1  0  0  0
 12 13  1  0  0  0
 12 16  2  0  0  0
 13 14  1  0  0  0
 14 15  2  0  0  0
 15 16  1  0  0  0
 15 18  1  0  0  0
 16 17  1  0  0  0
 17 21  3  0  0  0
 18 19  1  0  0  0
 18 20  2  0  0  0
 19 23  1  0  0  0
 19 48  1  0  0  0
 21 22  1  0  0  0
 22 25  1  0  0  0
 22 26  1  0  0  0
 22 27  1  0  0  0
 23 24  1  0  0  0
 23 49  1  0  0  0
 23 50  1  0  0  0
 24 51  1  0  0  0
 24 52  1  0  0  0
 24 53  1  0  0  0
 25 54  1  0  0  0
 25 55  1  0  0  0
 25 56  1  0  0  0
 26 57  1  0  0  0
 26 58  1  0  0  0
 26 59  1  0  0  0
 27 28  1  0  0  0
 27 60  1  0  0  0
 28 29  1  0  0  0
 28 35  2  0  0  0
 29 30  2  0  0  0
 29 34  1  0  0  0
 30 31  1  0  0  0
 30 61  1  0  0  0
 31 32  2  0  0  0
 32 33  1  0  0  0
 32 36  1  0  0  0
 33 34  2  0  0  0
 33 62  1  0  0  0
 34 63  1  0  0  0
 36 64  1  0  0  0
 36 65  1  0  0  0
 36 66  1  0  0  0
M  END
> <s_m_entry_id>
4954

> <s_m_entry_name>
dock_pv.273

> <s_m_Source_Path>
/home/csk/Desktop/cluster/DUD-E-result/hs90a

> <s_m_Source_File>
dock_pv.maegz

> <i_m_Source_File_Index>
273

> <chembl_id>
CHEMBL3600796

> <chembl_pref_name>
None

> <i_lp_mmshare_version>
53161

> <r_lp_tautomer_probability>
0.999999999898

> <s_lp_Force_Field>
OPLS_2005

> <r_lp_Energy>
21.686529

> <b_lp_Chiralities_Consistent>
1

> <s_lp_Variant>
CHEMBL3880_lig394-1

> <s_i_glide_gridfile>
glide-grid_1uyg

> <i_i_glide_lignum>
436

> <i_i_glide_rotatable_bonds>
12

> <r_i_docking_score>
-7.87644487809772

> <r_i_glide_ligand_efficiency>
-0.218790135502715

> <r_i_glide_ligand_efficiency_sa>
-0.722429109342815

> <r_i_glide_ligand_efficiency_ln>
-1.71842747545203

> <r_i_glide_gscore>
-7.87644487809772

> <r_i_glide_lipo>
-3.96345175819121

> <r_i_glide_hbond>
-0.16

> <r_i_glide_metal>
0

> <r_i_glide_rewards>
-0.849646896167473

> <r_i_glide_evdw>
-47.6982688903809

> <r_i_glide_ecoul>
-7.82192945480347

> <r_i_glide_erotb>
0.676572994391887

> <r_i_glide_esite>
-0.0217163553913631

> <r_i_glide_emodel>
-62.6322920427312

> <r_i_glide_energy>
-55.5201983451843

> <r_i_glide_einternal>
29.2526416778564

> <i_i_glide_confnum>
120

> <i_i_glide_posenum>
103

> <r_i_glide_eff_state_penalty>
0

> <s_user_duplicate_titles>
CHEMBL3880_lig394

> <i_f3d_flags>
0

> <s_m_subgroup_title>
dock_pv

> <s_m_subgroupid>
dock_pv

> <b_m_subgroup_collapsed>
1

$$$$
CHEMBL3880_lig185
                    3D
 Schrodinger Suite 2021-1.
 62 65  0  0  1  0            999 V2000
    8.2079    8.3682   22.7966 C   0  0  0  0  0  0
    7.1695    9.4987   22.7115 C   0  0  0  0  0  0
    6.7012    9.8200   21.2844 C   0  0  0  0  0  0
    1.9996    6.9745   23.6509 C   0  0  0  0  0  0
    2.7278    8.1205   23.3640 C   0  0  0  0  0  0
    3.0181    9.0240   24.3772 C   0  0  0  0  0  0
    2.5972    8.7803   25.6798 C   0  0  0  0  0  0
    1.7658    7.7015   25.9548 C   0  0  0  0  0  0
    1.5121    6.7275   24.9513 C   0  0  0  0  0  0
    0.7848    5.4196   25.1865 C   0  0  0  0  0  0
    0.0396    5.3008   26.2723 N   0  0  0  0  0  0
    0.8644    4.5073   24.3741 O   0  0  0  0  0  0
    1.1599    7.7681   27.2244 N   0  0  0  0  0  0
   -0.2161    8.2590   27.1706 C   0  0  0  0  0  0
   -0.3889    9.7375   26.7259 C   0  0  1  0  0  0
    3.7271   10.2057   24.1212 N   0  0  0  0  0  0
    4.3713   12.3698   24.1683 C   0  0  0  0  0  0
    3.2945   11.4999   24.3375 C   0  0  0  0  0  0
    5.4708   11.5729   23.8037 C   0  0  0  0  0  0
    5.0586   10.2459   23.8042 C   0  0  0  0  0  0
    5.9177    9.0259   23.4603 C   0  0  0  0  0  0
    7.8088   10.7608   23.3537 C   0  0  0  0  0  0
    6.8608   11.9481   23.5672 C   0  0  0  0  0  0
    7.2622   13.1094   23.5687 O   0  0  0  0  0  0
    4.3391   13.8689   24.3632 C   0  0  0  0  0  0
   -0.5246    9.8887   25.1725 C   0  0  0  0  0  0
   -0.5015   11.2518   24.6427 N   0  0  1  0  0  0
    0.7181   11.5526   23.8904 C   0  0  0  0  0  0
    1.8918   11.7995   24.8348 C   0  0  0  0  0  0
   -1.5951   10.3687   27.4316 C   0  0  0  0  0  0
    8.7712    8.3846   23.7356 H   0  0  0  0  0  0
    7.7462    7.3802   22.7683 H   0  0  0  0  0  0
    8.9097    8.4210   21.9708 H   0  0  0  0  0  0
    5.7729   10.3690   21.2525 H   0  0  0  0  0  0
    7.4586   10.3696   20.7359 H   0  0  0  0  0  0
    6.4640    8.8856   20.7658 H   0  0  0  0  0  0
    1.8194    6.2807   22.8498 H   0  0  0  0  0  0
    3.0593    8.2989   22.3502 H   0  0  0  0  0  0
    2.8406    9.4972   26.4491 H   0  0  0  0  0  0
   -0.5185    4.4789   26.4083 H   0  0  0  0  0  0
    0.0625    6.0418   26.9593 H   0  0  0  0  0  0
    1.7077    8.2923   27.8947 H   0  0  0  0  0  0
   -0.6815    8.0590   28.1361 H   0  0  0  0  0  0
   -0.7398    7.6520   26.4382 H   0  0  0  0  0  0
    0.4776   10.2862   27.0905 H   0  0  0  0  0  0
    5.3747    8.2729   22.8917 H   0  0  0  0  0  0
    6.2208    8.5272   24.3686 H   0  0  0  0  0  0
    8.6843   11.1072   22.8034 H   0  0  0  0  0  0
    8.1656   10.5059   24.3640 H   0  0  0  0  0  0
    3.3407   14.2979   24.3256 H   0  0  0  0  0  0
    4.8176   14.1689   25.2947 H   0  0  0  0  0  0
    4.8956   14.3685   23.5671 H   0  0  0  0  0  0
   -1.5126    9.5112   24.9044 H   0  0  0  0  0  0
    0.1278    9.2108   24.6225 H   0  0  0  0  0  0
   -1.3279   11.4269   24.0838 H   0  0  0  0  0  0
    0.5404   12.4679   23.3255 H   0  0  0  0  0  0
    0.9390   10.7712   23.1650 H   0  0  0  0  0  0
    1.7523   11.2563   25.7532 H   0  0  0  0  0  0
    1.8375   12.8093   25.1657 H   0  0  0  0  0  0
   -2.5500    9.9711   27.0985 H   0  0  0  0  0  0
   -1.5421   10.2714   28.5163 H   0  0  0  0  0  0
   -1.6069   11.4330   27.2006 H   0  0  0  0  0  0
  1  2  1  0  0  0
  1 31  1  0  0  0
  1 32  1  0  0  0
  1 33  1  0  0  0
  2  3  1  0  0  0
  2 21  1  0  0  0
  2 22  1  0  0  0
  3 34  1  0  0  0
  3 35  1  0  0  0
  3 36  1  0  0  0
  4  5  2  0  0  0
  4  9  1  0  0  0
  4 37  1  0  0  0
  5  6  1  0  0  0
  5 38  1  0  0  0
  6 16  1  0  0  0
  6  7  2  0  0  0
  7  8  1  0  0  0
  7 39  1  0  0  0
  8  9  2  0  0  0
  8 13  1  0  0  0
  9 10  1  0  0  0
 10 11  1  0  0  0
 10 12  2  0  0  0
 11 40  1  0  0  0
 11 41  1  0  0  0
 13 14  1  0  0  0
 13 42  1  0  0  0
 14 15  1  0  0  0
 14 43  1  0  0  0
 14 44  1  0  0  0
 15 26  1  0  0  0
 15 30  1  0  0  0
 15 45  1  0  0  0
 16 20  1  0  0  0
 16 18  1  0  0  0
 17 19  1  0  0  0
 17 18  2  0  0  0
 17 25  1  0  0  0
 18 29  1  0  0  0
 19 20  2  0  0  0
 19 23  1  0  0  0
 20 21  1  0  0  0
 21 46  1  0  0  0
 21 47  1  0  0  0
 22 23  1  0  0  0
 22 48  1  0  0  0
 22 49  1  0  0  0
 23 24  2  0  0  0
 25 50  1  0  0  0
 25 51  1  0  0  0
 25 52  1  0  0  0
 26 27  1  0  0  0
 26 53  1  0  0  0
 26 54  1  0  0  0
 27 28  1  0  0  0
 27 55  1  0  0  0
 28 29  1  0  0  0
 28 56  1  0  0  0
 28 57  1  0  0  0
 29 58  1  0  0  0
 29 59  1  0  0  0
 30 60  1  0  0  0
 30 61  1  0  0  0
 30 62  1  0  0  0
M  END
> <s_m_entry_id>
4955

> <s_m_entry_name>
dock_pv.274

> <s_m_Source_Path>
/home/csk/Desktop/cluster/DUD-E-result/hs90a

> <s_m_Source_File>
dock_pv.maegz

> <i_m_Source_File_Index>
274

> <chembl_id>
CHEMBL1760605

> <chembl_pref_name>
None

> <i_lp_mmshare_version>
53161

> <r_lp_tautomer_probability>
0.99995

> <s_lp_Force_Field>
OPLS_2005

> <r_lp_Energy>
46.456897

> <b_lp_Chiralities_Consistent>
1

> <s_lp_Variant>
CHEMBL3880_lig185-1

> <s_i_glide_gridfile>
glide-grid_1uyg

> <i_i_glide_lignum>
216

> <i_i_glide_rotatable_bonds>
1

> <r_i_docking_score>
-7.87584686177639

> <r_i_glide_ligand_efficiency>
-0.26252822872588

> <r_i_glide_ligand_efficiency_sa>
-0.815736245102716

> <r_i_glide_ligand_efficiency_ln>
-1.78947822122034

> <r_i_glide_gscore>
-7.87584686177639

> <r_i_glide_lipo>
-3.41667468849054

> <r_i_glide_hbond>
0

> <r_i_glide_metal>
0

> <r_i_glide_rewards>
-1.70777017667331

> <r_i_glide_evdw>
-40.6615905761719

> <r_i_glide_ecoul>
-4.78881645202637

> <r_i_glide_erotb>
0

> <r_i_glide_esite>
0

> <r_i_glide_emodel>
-47.321921147142

> <r_i_glide_energy>
-45.4504070281982

> <r_i_glide_einternal>
3.4951548576355

> <i_i_glide_confnum>
1

> <i_i_glide_posenum>
201

> <r_i_glide_eff_state_penalty>
0

> <s_user_duplicate_titles>
CHEMBL3880_lig185

> <i_f3d_flags>
0

> <s_m_subgroup_title>
dock_pv

> <s_m_subgroupid>
dock_pv

> <b_m_subgroup_collapsed>
1

$$$$
CHEMBL3880_lig325
                    3D
 Schrodinger Suite 2021-1.
 52 56  0  0  1  0            999 V2000
    4.5116    6.5481   24.8911 C   0  0  0  0  0  0
    5.8517    6.3166   24.6058 C   0  0  0  0  0  0
    6.6214    7.2873   23.9680 C   0  0  0  0  0  0
    6.0510    8.5164   23.5588 C   0  0  0  0  0  0
    4.6672    8.6686   23.7436 C   0  0  0  0  0  0
    3.9166    7.7431   24.4763 C   0  0  0  0  0  0
    3.8105    5.5844   25.5641 O   0  0  0  0  0  0
    7.9540    7.0034   23.8109 O   0  0  0  0  0  0
    6.9356    9.6459   23.0269 C   0  0  0  0  0  0
    8.0431    9.3412   22.5674 O   0  0  0  0  0  0
    2.6133    8.1278   24.8635 N   0  0  0  0  0  0
    0.5631    9.0492   24.6857 C   0  0  0  0  0  0
    1.6611    8.5971   23.9913 C   0  0  0  0  0  0
    0.8200    8.8552   26.0812 C   0  0  0  0  0  0
    2.0955    8.1995   26.1586 C   0  0  0  0  0  0
    2.6387    7.8069   27.3892 C   0  0  0  0  0  0
    1.8711    8.0289   28.5270 C   0  0  0  0  0  0
    0.6460    8.6812   28.4674 C   0  0  0  0  0  0
    0.1095    9.1678   27.2672 C   0  0  0  0  0  0
    6.6014   10.9679   23.1667 N   0  0  0  0  0  0
    5.3515   11.6104   23.6101 C   0  0  0  0  0  0
    7.6607   11.9753   23.0579 C   0  0  0  0  0  0
    7.1406   13.1258   23.8834 C   0  0  0  0  0  0
    5.7775   12.9808   24.0755 C   0  0  0  0  0  0
    5.0481   13.9612   24.7618 C   0  0  0  0  0  0
    5.7136   15.0590   25.3050 C   0  0  0  0  0  0
    7.0959   15.1691   25.1541 C   0  0  0  0  0  0
    7.8083   14.2235   24.4211 C   0  0  0  0  0  0
   -1.1666    9.9515   27.3513 C   0  0  0  0  0  0
   -1.4513   10.5967   26.1949 O   0  0  0  0  0  0
   -1.8750   10.0049   28.3608 O   0  0  0  0  0  0
   -2.7318   11.1608   25.9414 C   0  0  0  0  0  0
    6.3186    5.3924   24.9130 H   0  0  0  0  0  0
    4.1466    9.5336   23.3749 H   0  0  0  0  0  0
    4.3691    4.8378   25.7836 H   0  0  0  0  0  0
    8.3719    7.7057   23.2954 H   0  0  0  0  0  0
   -0.3232    9.4775   24.2404 H   0  0  0  0  0  0
    1.8643    8.5864   22.9298 H   0  0  0  0  0  0
    3.6097    7.3402   27.4693 H   0  0  0  0  0  0
    2.2541    7.7213   29.4899 H   0  0  0  0  0  0
    0.1293    8.8443   29.4038 H   0  0  0  0  0  0
    4.9130   11.0844   24.4580 H   0  0  0  0  0  0
    4.6190   11.6538   22.8051 H   0  0  0  0  0  0
    7.8128   12.2512   22.0142 H   0  0  0  0  0  0
    8.5979   11.5762   23.4545 H   0  0  0  0  0  0
    3.9874   13.8477   24.9282 H   0  0  0  0  0  0
    5.1676   15.8043   25.8642 H   0  0  0  0  0  0
    7.6238   15.9908   25.6050 H   0  0  0  0  0  0
    8.8717   14.3470   24.3032 H   0  0  0  0  0  0
   -2.6449   11.9267   25.1672 H   0  0  0  0  0  0
   -3.3985   10.3870   25.5653 H   0  0  0  0  0  0
   -3.1949   11.5688   26.8386 H   0  0  0  0  0  0
  1  2  2  0  0  0
  1  6  1  0  0  0
  1  7  1  0  0  0
  2  3  1  0  0  0
  2 33  1  0  0  0
  3  4  2  0  0  0
  3  8  1  0  0  0
  4  5  1  0  0  0
  4  9  1  0  0  0
  5  6  2  0  0  0
  5 34  1  0  0  0
  6 11  1  0  0  0
  7 35  1  0  0  0
  8 36  1  0  0  0
  9 10  2  0  0  0
  9 20  1  0  0  0
 11 15  1  0  0  0
 11 13  1  0  0  0
 12 14  1  0  0  0
 12 13  2  0  0  0
 12 37  1  0  0  0
 13 38  1  0  0  0
 14 15  2  0  0  0
 14 19  1  0  0  0
 15 16  1  0  0  0
 16 17  2  0  0  0
 16 39  1  0  0  0
 17 18  1  0  0  0
 17 40  1  0  0  0
 18 19  2  0  0  0
 18 41  1  0  0  0
 19 29  1  0  0  0
 20 21  1  0  0  0
 20 22  1  0  0  0
 21 24  1  0  0  0
 21 42  1  0  0  0
 21 43  1  0  0  0
 22 23  1  0  0  0
 22 44  1  0  0  0
 22 45  1  0  0  0
 23 24  2  0  0  0
 23 28  1  0  0  0
 24 25  1  0  0  0
 25 26  2  0  0  0
 25 46  1  0  0  0
 26 27  1  0  0  0
 26 47  1  0  0  0
 27 28  2  0  0  0
 27 48  1  0  0  0
 28 49  1  0  0  0
 29 30  1  0  0  0
 29 31  2  0  0  0
 30 32  1  0  0  0
 32 50  1  0  0  0
 32 51  1  0  0  0
 32 52  1  0  0  0
M  END
> <s_m_entry_id>
4956

> <s_m_entry_name>
dock_pv.275

> <s_m_Source_Path>
/home/csk/Desktop/cluster/DUD-E-result/hs90a

> <s_m_Source_File>
dock_pv.maegz

> <i_m_Source_File_Index>
275

> <chembl_id>
CHEMBL3260488

> <chembl_pref_name>
None

> <i_lp_mmshare_version>
53161

> <r_lp_tautomer_probability>
1

> <s_lp_Force_Field>
OPLS_2005

> <r_lp_Energy>
43.708037

> <b_lp_Chiralities_Consistent>
1

> <s_lp_Variant>
CHEMBL3880_lig325-1

> <s_i_glide_gridfile>
glide-grid_1uyg

> <i_i_glide_lignum>
362

> <i_i_glide_rotatable_bonds>
7

> <r_i_docking_score>
-7.87263821818382

> <r_i_glide_ligand_efficiency>
-0.246019944318244

> <r_i_glide_ligand_efficiency_sa>
-0.781064635929557

> <r_i_glide_ligand_efficiency_ln>
-1.76289829706414

> <r_i_glide_gscore>
-7.87263821818382

> <r_i_glide_lipo>
-3.64203441802904

> <r_i_glide_hbond>
-0.0152142471368056

> <r_i_glide_metal>
0

> <r_i_glide_rewards>
-2.48728541112144

> <r_i_glide_evdw>
-43.9142303466797

> <r_i_glide_ecoul>
0.231655925512314

> <r_i_glide_erotb>
0.432858986610609

> <r_i_glide_esite>
0

> <r_i_glide_emodel>
-52.4815279445908

> <r_i_glide_energy>
-43.6825744211674

> <r_i_glide_einternal>
14.7685079574585

> <i_i_glide_confnum>
13

> <i_i_glide_posenum>
385

> <r_i_glide_eff_state_penalty>
0

> <s_user_duplicate_titles>
CHEMBL3880_lig325

> <i_f3d_flags>
0

> <s_m_subgroup_title>
dock_pv

> <s_m_subgroupid>
dock_pv

> <b_m_subgroup_collapsed>
1

$$$$
CHEMBL3880_lig424
                    3D
 Schrodinger Suite 2021-1.
 60 62  0  0  1  0            999 V2000
    3.2360    6.8074   22.7672 C   0  0  0  0  0  0
    4.0924    7.2207   21.7504 C   0  0  0  0  0  0
    4.8566    8.3748   21.8977 C   0  0  0  0  0  0
    4.7946    9.1119   23.0802 C   0  0  0  0  0  0
    3.9167    8.7077   24.0915 C   0  0  0  0  0  0
    3.1331    7.5490   23.9581 C   0  0  0  0  0  0
    2.1775    7.0887   25.0787 C   0  0  0  0  0  0
    0.7000    7.2000   24.6489 C   0  0  0  0  0  0
    2.3960    7.7752   26.4466 C   0  0  0  0  0  0
    2.4968    5.6702   22.5713 O   0  0  0  0  0  0
    5.6610    8.7707   20.8667 O   0  0  0  0  0  0
    5.6528   10.3077   23.2995 C   0  0  0  0  0  0
    6.9928   10.1172   23.2690 O   0  0  0  0  0  0
    7.6209   11.3234   23.5668 N   0  0  0  0  0  0
    6.6709   12.2062   23.8096 C   0  0  0  0  0  0
    5.3920   11.6358   23.5660 C   0  0  0  0  0  0
    4.0667   12.2394   23.5899 C   0  0  0  0  0  0
    6.9699   13.5692   24.2316 C   0  0  0  0  0  0
    5.9783   14.1692   24.9098 N   0  0  0  0  0  0
    8.0611   14.1015   24.0308 O   0  0  0  0  0  0
    2.9609   12.7528   23.5685 C   0  0  0  0  0  0
    1.6138   13.3439   23.5175 C   0  0  0  0  0  0
    0.5803   12.3016   23.4861 N   0  0  0  0  0  0
   -0.6850   12.8925   23.0208 C   0  0  0  0  0  0
   -1.9142   11.9917   23.2335 C   0  0  0  0  0  0
   -1.9396   11.5156   24.5736 O   0  0  0  0  0  0
   -0.8064   10.7217   24.8681 C   0  0  0  0  0  0
    0.4529   11.6017   24.7805 C   0  0  0  0  0  0
    6.0422   15.4323   25.6243 C   0  0  0  0  0  0
    6.4210   15.1693   27.0866 C   0  0  0  0  0  0
    4.6968   16.1589   25.5078 C   0  0  0  0  0  0
    4.1477    6.6553   20.8301 H   0  0  0  0  0  0
    3.8673    9.3021   24.9912 H   0  0  0  0  0  0
    2.3896    6.0281   25.2407 H   0  0  0  0  0  0
    0.4385    6.4617   23.8903 H   0  0  0  0  0  0
    0.0167    7.0452   25.4836 H   0  0  0  0  0  0
    0.4997    8.1794   24.2232 H   0  0  0  0  0  0
    3.4348    7.6977   26.7708 H   0  0  0  0  0  0
    2.1235    8.8300   26.4194 H   0  0  0  0  0  0
    1.7877    7.3067   27.2211 H   0  0  0  0  0  0
    2.4030    5.4233   21.6467 H   0  0  0  0  0  0
    6.2286    8.0325   20.6019 H   0  0  0  0  0  0
    5.0653   13.7395   24.8589 H   0  0  0  0  0  0
    1.5685   13.9607   22.6207 H   0  0  0  0  0  0
    1.4871   14.0147   24.3671 H   0  0  0  0  0  0
   -0.5901   13.1694   21.9710 H   0  0  0  0  0  0
   -0.8706   13.8179   23.5663 H   0  0  0  0  0  0
   -2.8148   12.5727   23.0432 H   0  0  0  0  0  0
   -1.9245   11.1668   22.5196 H   0  0  0  0  0  0
   -0.9109   10.3012   25.8690 H   0  0  0  0  0  0
   -0.7562    9.8858   24.1731 H   0  0  0  0  0  0
    0.3857   12.3524   25.5669 H   0  0  0  0  0  0
    1.3520   11.0250   24.9973 H   0  0  0  0  0  0
    6.8054   16.0678   25.1720 H   0  0  0  0  0  0
    6.4611   16.0859   27.6627 H   0  0  0  0  0  0
    5.6606   14.5569   27.5655 H   0  0  0  0  0  0
    7.3971   14.6938   27.1796 H   0  0  0  0  0  0
    4.7117   17.1103   26.0356 H   0  0  0  0  0  0
    4.4614   16.3696   24.4652 H   0  0  0  0  0  0
    3.8852   15.5761   25.9422 H   0  0  0  0  0  0
  1  2  2  0  0  0
  1  6  1  0  0  0
  1 10  1  0  0  0
  2  3  1  0  0  0
  2 32  1  0  0  0
  3  4  2  0  0  0
  3 11  1  0  0  0
  4  5  1  0  0  0
  4 12  1  0  0  0
  5  6  2  0  0  0
  5 33  1  0  0  0
  6  7  1  0  0  0
  7  8  1  0  0  0
  7  9  1  0  0  0
  7 34  1  0  0  0
  8 35  1  0  0  0
  8 36  1  0  0  0
  8 37  1  0  0  0
  9 38  1  0  0  0
  9 39  1  0  0  0
  9 40  1  0  0  0
 10 41  1  0  0  0
 11 42  1  0  0  0
 12 13  1  0  0  0
 12 16  2  0  0  0
 13 14  1  0  0  0
 14 15  2  0  0  0
 15 16  1  0  0  0
 15 18  1  0  0  0
 16 17  1  0  0  0
 17 21  3  0  0  0
 18 19  1  0  0  0
 18 20  2  0  0  0
 19 29  1  0  0  0
 19 43  1  0  0  0
 21 22  1  0  0  0
 22 23  1  0  0  0
 22 44  1  0  0  0
 22 45  1  0  0  0
 23 24  1  0  0  0
 23 28  1  0  0  0
 24 25  1  0  0  0
 24 46  1  0  0  0
 24 47  1  0  0  0
 25 26  1  0  0  0
 25 48  1  0  0  0
 25 49  1  0  0  0
 26 27  1  0  0  0
 27 28  1  0  0  0
 27 50  1  0  0  0
 27 51  1  0  0  0
 28 52  1  0  0  0
 28 53  1  0  0  0
 29 30  1  0  0  0
 29 31  1  0  0  0
 29 54  1  0  0  0
 30 55  1  0  0  0
 30 56  1  0  0  0
 30 57  1  0  0  0
 31 58  1  0  0  0
 31 59  1  0  0  0
 31 60  1  0  0  0
M  END
> <s_m_entry_id>
4957

> <s_m_entry_name>
dock_pv.276

> <s_m_Source_Path>
/home/csk/Desktop/cluster/DUD-E-result/hs90a

> <s_m_Source_File>
dock_pv.maegz

> <i_m_Source_File_Index>
276

> <chembl_id>
CHEMBL3600435

> <chembl_pref_name>
None

> <i_lp_mmshare_version>
53161

> <r_lp_tautomer_probability>
0.999999999898

> <s_lp_Force_Field>
OPLS_2005

> <r_lp_Energy>
33.257288

> <b_lp_Chiralities_Consistent>
1

> <s_lp_Variant>
CHEMBL3880_lig424-1

> <s_i_glide_gridfile>
glide-grid_1uyg

> <i_i_glide_lignum>
466

> <i_i_glide_rotatable_bonds>
10

> <r_i_docking_score>
-7.87081494361161

> <r_i_glide_ligand_efficiency>
-0.253897256245536

> <r_i_glide_ligand_efficiency_sa>
-0.797587927552017

> <r_i_glide_ligand_efficiency_ln>
-1.77510998129403

> <r_i_glide_gscore>
-7.87081494361161

> <r_i_glide_lipo>
-3.62448259086574

> <r_i_glide_hbond>
-0.0027409257103548

> <r_i_glide_metal>
0

> <r_i_glide_rewards>
-1.22000475546108

> <r_i_glide_evdw>
-44.7710762023926

> <r_i_glide_ecoul>
-8.85513401031494

> <r_i_glide_erotb>
0.543237240092437

> <r_i_glide_esite>
0

> <r_i_glide_emodel>
-70.1799834043326

> <r_i_glide_energy>
-53.6262102127075

> <r_i_glide_einternal>
13.9624910354614

> <i_i_glide_confnum>
22

> <i_i_glide_posenum>
147

> <r_i_glide_eff_state_penalty>
0

> <s_user_duplicate_titles>
CHEMBL3880_lig424

> <i_f3d_flags>
0

> <s_m_subgroup_title>
dock_pv

> <s_m_subgroupid>
dock_pv

> <b_m_subgroup_collapsed>
1

$$$$
CHEMBL3880_lig365
                    3D
 Schrodinger Suite 2021-1.
 72 76  0  0  1  0            999 V2000
   -1.0244   12.2526   22.8154 C   0  0  0  0  0  0
   -2.1001   11.5748   23.3705 C   0  0  0  0  0  0
   -1.9961   10.9508   24.6127 C   0  0  0  0  0  0
   -0.7785   10.9425   25.2839 C   0  0  0  0  0  0
    0.2728   11.7028   24.7683 C   0  0  0  0  0  0
    0.1669   12.3678   23.5432 C   0  0  0  0  0  0
   -3.1047   10.3690   25.1670 O   0  0  0  0  0  0
   -1.1737   12.7690   21.5564 O   0  0  0  0  0  0
   -0.5412   10.0836   26.4761 C   0  0  0  0  0  0
   -1.3595   10.0504   27.5089 N   0  0  0  0  0  0
   -0.7909    9.1612   28.4161 O   0  0  0  0  0  0
    0.3693    8.7083   27.8884 C   0  0  0  0  0  0
    0.5517    9.2280   26.6299 C   0  0  0  0  0  0
    1.1847    7.9833   28.7174 N   0  0  0  0  0  0
    1.6751    9.0512   25.6833 C   0  0  0  0  0  0
    1.5817    8.3122   24.5012 C   0  0  0  0  0  0
    2.6739    8.2683   23.6305 C   0  0  0  0  0  0
    3.8372    8.9862   23.9371 C   0  0  0  0  0  0
    3.8774    9.7752   25.0819 C   0  0  0  0  0  0
    2.8229    9.7727   25.9669 C   0  0  0  0  0  0
    0.9929    6.6859   29.0055 C   0  0  0  0  0  0
    0.0612    6.0124   28.5659 O   0  0  0  0  0  0
    2.0238    5.9917   29.9171 C   0  0  0  0  0  0
    3.2617    6.7688   30.3489 C   0  0  0  0  0  0
    2.1267    6.5817   31.3184 C   0  0  0  0  0  0
    1.3676   13.1606   23.0334 C   0  0  0  0  0  0
    2.5486   12.2191   22.7674 C   0  0  0  0  0  0
    1.7738   14.2696   24.0222 C   0  0  0  0  0  0
    5.1085    8.8156   23.1208 C   0  0  0  0  0  0
    5.5638    9.9741   22.3326 N   0  0  1  0  0  0
    6.0207   11.1736   23.0754 C   0  0  0  0  0  0
    7.3756   11.0027   23.8163 C   0  0  1  0  0  0
    8.3648   10.5343   22.8947 O   0  0  0  0  0  0
    8.0362    9.3123   22.2448 C   0  0  2  0  0  0
    6.6936    9.5585   21.4856 C   0  0  0  0  0  0
    7.8895   12.3469   24.3670 C   0  0  0  0  0  0
    8.1743    8.0651   23.1541 C   0  0  0  0  0  0
   -3.0341   11.5349   22.8326 H   0  0  0  0  0  0
    1.2010   11.7579   25.3153 H   0  0  0  0  0  0
   -3.8883   10.8831   24.9047 H   0  0  0  0  0  0
   -2.0388   12.5583   21.1917 H   0  0  0  0  0  0
    2.0743    8.3898   28.9544 H   0  0  0  0  0  0
    0.6756    7.7723   24.2648 H   0  0  0  0  0  0
    2.6201    7.6598   22.7386 H   0  0  0  0  0  0
    4.7394   10.3690   25.3415 H   0  0  0  0  0  0
    2.8977   10.3690   26.8584 H   0  0  0  0  0  0
    2.1215    4.9197   29.7629 H   0  0  0  0  0  0
    3.4699    7.7688   29.9667 H   0  0  0  0  0  0
    4.1879    6.2202   30.5225 H   0  0  0  0  0  0
    2.2800    5.9209   32.1715 H   0  0  0  0  0  0
    1.5322    7.4570   31.5929 H   0  0  0  0  0  0
    1.0995   13.6446   22.0955 H   0  0  0  0  0  0
    2.3336   11.5146   21.9670 H   0  0  0  0  0  0
    3.4489   12.7689   22.5195 H   0  0  0  0  0  0
    2.7948   11.6414   23.6510 H   0  0  0  0  0  0
    0.9013   14.7702   24.4423 H   0  0  0  0  0  0
    2.3660   13.8559   24.8349 H   0  0  0  0  0  0
    2.3976   15.0339   23.5669 H   0  0  0  0  0  0
    5.8531    8.4719   23.8294 H   0  0  0  0  0  0
    4.9411    7.9908   22.4248 H   0  0  0  0  0  0
    6.1218   11.9903   22.3670 H   0  0  0  0  0  0
    5.2352   11.4859   23.7544 H   0  0  0  0  0  0
    7.2604   10.2917   24.6315 H   0  0  0  0  0  0
    8.8244    9.2074   21.5074 H   0  0  0  0  0  0
    6.4608    8.7690   20.7778 H   0  0  0  0  0  0
    6.8625   10.3997   20.8146 H   0  0  0  0  0  0
    7.2607   12.7524   25.1565 H   0  0  0  0  0  0
    8.8972   12.2398   24.7667 H   0  0  0  0  0  0
    7.9413   13.0950   23.5751 H   0  0  0  0  0  0
    7.5469    7.2489   22.7973 H   0  0  0  0  0  0
    9.1940    7.6807   23.1439 H   0  0  0  0  0  0
    7.9322    8.2530   24.1979 H   0  0  0  0  0  0
  1  2  2  0  0  0
  1  6  1  0  0  0
  1  8  1  0  0  0
  2  3  1  0  0  0
  2 38  1  0  0  0
  3  4  2  0  0  0
  3  7  1  0  0  0
  4  5  1  0  0  0
  4  9  1  0  0  0
  5  6  2  0  0  0
  5 39  1  0  0  0
  6 26  1  0  0  0
  7 40  1  0  0  0
  8 41  1  0  0  0
  9 10  2  0  0  0
  9 13  1  0  0  0
 10 11  1  0  0  0
 11 12  1  0  0  0
 12 13  2  0  0  0
 12 14  1  0  0  0
 13 15  1  0  0  0
 14 21  1  0  0  0
 14 42  1  0  0  0
 15 16  2  0  0  0
 15 20  1  0  0  0
 16 17  1  0  0  0
 16 43  1  0  0  0
 17 18  2  0  0  0
 17 44  1  0  0  0
 18 19  1  0  0  0
 18 29  1  0  0  0
 19 20  2  0  0  0
 19 45  1  0  0  0
 20 46  1  0  0  0
 21 22  2  0  0  0
 21 23  1  0  0  0
 23 24  1  0  0  0
 23 25  1  0  0  0
 23 47  1  0  0  0
 24 25  1  0  0  0
 24 48  1  0  0  0
 24 49  1  0  0  0
 25 50  1  0  0  0
 25 51  1  0  0  0
 26 27  1  0  0  0
 26 28  1  0  0  0
 26 52  1  0  0  0
 27 53  1  0  0  0
 27 54  1  0  0  0
 27 55  1  0  0  0
 28 56  1  0  0  0
 28 57  1  0  0  0
 28 58  1  0  0  0
 29 30  1  0  0  0
 29 59  1  0  0  0
 29 60  1  0  0  0
 30 31  1  0  0  0
 30 35  1  0  0  0
 31 32  1  0  0  0
 31 61  1  0  0  0
 31 62  1  0  0  0
 32 33  1  0  0  0
 32 36  1  0  0  0
 32 63  1  0  0  0
 33 34  1  0  0  0
 34 35  1  0  0  0
 34 37  1  0  0  0
 34 64  1  0  0  0
 35 65  1  0  0  0
 35 66  1  0  0  0
 36 67  1  0  0  0
 36 68  1  0  0  0
 36 69  1  0  0  0
 37 70  1  0  0  0
 37 71  1  0  0  0
 37 72  1  0  0  0
M  END
> <s_m_entry_id>
4958

> <s_m_entry_name>
dock_pv.277

> <s_m_Source_Path>
/home/csk/Desktop/cluster/DUD-E-result/hs90a

> <s_m_Source_File>
dock_pv.maegz

> <i_m_Source_File_Index>
277

> <chembl_id>
CHEMBL3342728

> <chembl_pref_name>
None

> <i_lp_mmshare_version>
53161

> <r_lp_tautomer_probability>
0.999999999898

> <s_lp_Force_Field>
OPLS_2005

> <r_lp_Energy>
41.963038

> <b_lp_Chiralities_Consistent>
1

> <s_lp_Variant>
CHEMBL3880_lig365-2

> <s_i_glide_gridfile>
glide-grid_1uyg

> <i_i_glide_lignum>
403

> <i_i_glide_rotatable_bonds>
10

> <r_i_docking_score>
-7.86773606088863

> <r_i_glide_ligand_efficiency>
-0.212641515159152

> <r_i_glide_ligand_efficiency_sa>
-0.70856870252757

> <r_i_glide_ligand_efficiency_ln>
-1.70632750570411

> <r_i_glide_gscore>
-7.86773606088863

> <r_i_glide_lipo>
-4.56113166126165

> <r_i_glide_hbond>
-0.16

> <r_i_glide_metal>
0

> <r_i_glide_rewards>
-0.153694463907501

> <r_i_glide_evdw>
-44.8192749023438

> <r_i_glide_ecoul>
-8.74695110321045

> <r_i_glide_erotb>
0.560096474879276

> <r_i_glide_esite>
0

> <r_i_glide_emodel>
-47.4048370776504

> <r_i_glide_energy>
-53.5662260055542

> <r_i_glide_einternal>
14.9803991317749

> <i_i_glide_confnum>
22

> <i_i_glide_posenum>
31

> <r_i_glide_eff_state_penalty>
0

> <s_user_duplicate_titles>
CHEMBL3880_lig365

> <i_f3d_flags>
0

> <s_m_subgroup_title>
dock_pv

> <s_m_subgroupid>
dock_pv

> <b_m_subgroup_collapsed>
1

$$$$
CHEMBL3880_lig290
                    3D
 Schrodinger Suite 2021-1.
 72 75  0  0  1  0            999 V2000
   -0.7352    9.9093   26.3744 C   0  0  0  0  0  0
   -1.6483   10.8555   25.8996 C   0  0  0  0  0  0
   -1.4296   11.5062   24.6829 C   0  0  0  0  0  0
   -0.2678   11.2572   23.9523 C   0  0  0  0  0  0
    0.5473   10.2070   24.3672 C   0  0  0  0  0  0
    0.3386    9.5076   25.5548 C   0  0  0  0  0  0
   -2.3384   12.4014   24.2021 O   0  0  0  0  0  0
    0.1735   12.1124   22.7448 C   0  0  0  0  0  0
    0.8521   13.4104   23.2301 C   0  0  0  0  0  0
   -0.9245   12.4029   21.6944 C   0  0  0  0  0  0
   -0.9465    9.3813   27.6247 O   0  0  0  0  0  0
    1.2036    8.4092   25.8460 N   0  0  0  0  0  0
    2.5534    8.2004   25.5339 C   0  0  0  0  0  0
    2.7906    6.8680   25.9604 C   0  0  0  0  0  0
    1.6694    6.3594   26.4414 N   0  0  0  0  0  0
    0.6768    7.3059   26.3877 N   0  0  0  0  0  0
    4.0015    6.0771   25.8468 C   0  0  0  0  0  0
    5.1430    6.7682   25.9624 N   0  0  0  0  0  0
    3.9675    4.8573   25.6961 O   0  0  0  0  0  0
    6.5023    6.2304   25.8934 C   0  0  0  0  0  0
    6.9977    5.6567   27.2315 C   0  0  0  0  0  0
    3.4545    9.2337   24.8897 C   0  0  0  0  0  0
    3.3183   10.5564   25.3030 C   0  0  0  0  0  0
    4.0596   11.5756   24.7351 C   0  0  0  0  0  0
    5.0543   11.2749   23.8078 C   0  0  0  0  0  0
    5.2045    9.9551   23.3638 C   0  0  0  0  0  0
    4.3924    8.9424   23.8899 C   0  0  0  0  0  0
    5.9385   12.4029   23.2842 C   0  0  0  0  0  0
    6.6075   13.1353   24.3654 N   0  0  1  0  0  0
    8.0478   13.0471   24.3975 C   0  0  0  0  0  0
    8.4751   13.9579   25.5599 C   0  0  2  0  0  0
    7.3996   15.0592   25.5164 C   0  0  0  0  0  0
    6.3669   14.5631   24.5040 C   0  0  0  0  0  0
    9.8887   14.3721   25.4917 N   0  0  0  0  0  0
   10.2122   15.4378   26.4417 C   0  0  0  0  0  0
   10.7674   13.2408   25.7846 C   0  0  0  0  0  0
   -2.5243   11.0941   26.4853 H   0  0  0  0  0  0
    1.3606    9.9375   23.7130 H   0  0  0  0  0  0
   -3.2848   12.2134   24.3669 H   0  0  0  0  0  0
    0.9517   11.5678   22.2156 H   0  0  0  0  0  0
    1.6767   13.1986   23.9101 H   0  0  0  0  0  0
    0.1477   14.0488   23.7632 H   0  0  0  0  0  0
    1.2553   13.9830   22.3964 H   0  0  0  0  0  0
   -1.6144   11.5692   21.5667 H   0  0  0  0  0  0
   -1.5348   13.2651   21.9689 H   0  0  0  0  0  0
   -0.4865   12.6252   20.7232 H   0  0  0  0  0  0
   -0.2989    8.7107   27.8524 H   0  0  0  0  0  0
    5.0645    7.7685   26.0817 H   0  0  0  0  0  0
    6.5698    5.4670   25.1164 H   0  0  0  0  0  0
    7.1686    7.0338   25.5769 H   0  0  0  0  0  0
    8.0514    5.3746   27.1656 H   0  0  0  0  0  0
    6.9090    6.3701   28.0499 H   0  0  0  0  0  0
    6.4313    4.7699   27.5094 H   0  0  0  0  0  0
    2.5892   10.8087   26.0508 H   0  0  0  0  0  0
    3.9150   12.5921   25.0741 H   0  0  0  0  0  0
    5.9497    9.7082   22.6212 H   0  0  0  0  0  0
    4.5063    7.9312   23.5280 H   0  0  0  0  0  0
    6.6547   12.0278   22.5499 H   0  0  0  0  0  0
    5.2685   13.0812   22.7686 H   0  0  0  0  0  0
    8.3388   12.0040   24.5207 H   0  0  0  0  0  0
    8.4599   13.3575   23.4410 H   0  0  0  0  0  0
    8.3129   13.4299   26.5001 H   0  0  0  0  0  0
    7.7928   16.0029   25.1496 H   0  0  0  0  0  0
    6.9138   15.1895   26.4830 H   0  0  0  0  0  0
    6.4704   15.1012   23.5670 H   0  0  0  0  0  0
    5.3372   14.7322   24.8225 H   0  0  0  0  0  0
   11.2735   15.6903   26.4041 H   0  0  0  0  0  0
    9.6714   16.3544   26.2116 H   0  0  0  0  0  0
    9.9651   15.1485   27.4638 H   0  0  0  0  0  0
   11.8113   13.5103   25.6152 H   0  0  0  0  0  0
   10.6719   12.9295   26.8269 H   0  0  0  0  0  0
   10.5490   12.3687   25.1662 H   0  0  0  0  0  0
  1  2  2  0  0  0
  1  6  1  0  0  0
  1 11  1  0  0  0
  2  3  1  0  0  0
  2 37  1  0  0  0
  3  4  2  0  0  0
  3  7  1  0  0  0
  4  5  1  0  0  0
  4  8  1  0  0  0
  5  6  2  0  0  0
  5 38  1  0  0  0
  6 12  1  0  0  0
  7 39  1  0  0  0
  8  9  1  0  0  0
  8 10  1  0  0  0
  8 40  1  0  0  0
  9 41  1  0  0  0
  9 42  1  0  0  0
  9 43  1  0  0  0
 10 44  1  0  0  0
 10 45  1  0  0  0
 10 46  1  0  0  0
 11 47  1  0  0  0
 12 13  1  0  0  0
 12 16  1  0  0  0
 13 14  2  0  0  0
 13 22  1  0  0  0
 14 15  1  0  0  0
 14 17  1  0  0  0
 15 16  2  0  0  0
 17 18  1  0  0  0
 17 19  2  0  0  0
 18 20  1  0  0  0
 18 48  1  0  0  0
 20 21  1  0  0  0
 20 49  1  0  0  0
 20 50  1  0  0  0
 21 51  1  0  0  0
 21 52  1  0  0  0
 21 53  1  0  0  0
 22 23  2  0  0  0
 22 27  1  0  0  0
 23 24  1  0  0  0
 23 54  1  0  0  0
 24 25  2  0  0  0
 24 55  1  0  0  0
 25 26  1  0  0  0
 25 28  1  0  0  0
 26 27  2  0  0  0
 26 56  1  0  0  0
 27 57  1  0  0  0
 28 29  1  0  0  0
 28 58  1  0  0  0
 28 59  1  0  0  0
 29 30  1  0  0  0
 29 33  1  0  0  0
 30 31  1  0  0  0
 30 60  1  0  0  0
 30 61  1  0  0  0
 31 32  1  0  0  0
 31 34  1  0  0  0
 31 62  1  0  0  0
 32 33  1  0  0  0
 32 63  1  0  0  0
 32 64  1  0  0  0
 33 65  1  0  0  0
 33 66  1  0  0  0
 34 35  1  0  0  0
 34 36  1  0  0  0
 35 67  1  0  0  0
 35 68  1  0  0  0
 35 69  1  0  0  0
 36 70  1  0  0  0
 36 71  1  0  0  0
 36 72  1  0  0  0
M  END
> <s_m_entry_id>
4960

> <s_m_entry_name>
dock_pv.279

> <s_m_Source_Path>
/home/csk/Desktop/cluster/DUD-E-result/hs90a

> <s_m_Source_File>
dock_pv.maegz

> <i_m_Source_File_Index>
279

> <chembl_id>
CHEMBL3234777

> <chembl_pref_name>
None

> <i_lp_mmshare_version>
53161

> <r_lp_tautomer_probability>
1

> <s_lp_Force_Field>
OPLS_2005

> <r_lp_Energy>
62.514561

> <b_lp_Chiralities_Consistent>
1

> <s_lp_Variant>
CHEMBL3880_lig290-1

> <s_i_glide_gridfile>
glide-grid_1uyg

> <i_i_glide_lignum>
327

> <i_i_glide_rotatable_bonds>
11

> <r_i_docking_score>
-7.86511065937133

> <r_i_glide_ligand_efficiency>
-0.218475296093648

> <r_i_glide_ligand_efficiency_sa>
-0.721389532520234

> <r_i_glide_ligand_efficiency_ln>
-1.71595465514114

> <r_i_glide_gscore>
-7.86511065937133

> <r_i_glide_lipo>
-4.27717816168354

> <r_i_glide_hbond>
-0.304018397922526

> <r_i_glide_metal>
0

> <r_i_glide_rewards>
-0.37901565981154

> <r_i_glide_evdw>
-33.8938980102539

> <r_i_glide_ecoul>
-11.4250040054321

> <r_i_glide_erotb>
0.503547061373795

> <r_i_glide_esite>
0

> <r_i_glide_emodel>
-41.582213620013

> <r_i_glide_energy>
-45.318902015686

> <r_i_glide_einternal>
15.6865463256836

> <i_i_glide_confnum>
5

> <i_i_glide_posenum>
123

> <r_i_glide_eff_state_penalty>
0

> <s_user_duplicate_titles>
CHEMBL3880_lig290

> <i_f3d_flags>
0

> <s_m_subgroup_title>
dock_pv

> <s_m_subgroupid>
dock_pv

> <b_m_subgroup_collapsed>
1

$$$$
CHEMBL3880_lig425
                    3D
 Schrodinger Suite 2021-1.
 51 53  0  0  1  0            999 V2000
    6.7233   13.1690   24.1527 C   0  0  0  0  0  0
    5.8997   14.1189   24.7538 C   0  0  0  0  0  0
    4.5222   13.9416   24.7597 C   0  0  0  0  0  0
    3.9669   12.7958   24.1805 C   0  0  0  0  0  0
    4.7993   11.8321   23.6058 C   0  0  0  0  0  0
    6.1903   12.0026   23.5671 C   0  0  0  0  0  0
    7.0951   10.9436   22.8978 C   0  0  0  0  0  0
    6.3547    9.9048   22.0224 C   0  0  0  0  0  0
    7.9608   10.1933   23.9253 C   0  0  0  0  0  0
    8.0610   13.4184   24.1737 O   0  0  0  0  0  0
    3.7449   14.9001   25.3485 O   0  0  0  0  0  0
    2.5041   12.5688   24.1266 C   0  0  0  0  0  0
    1.7734   13.5586   23.5677 O   0  0  0  0  0  0
    0.4438   13.1686   23.5671 N   0  0  0  0  0  0
    0.3793   11.9710   24.1260 C   0  0  0  0  0  0
    1.6721   11.5221   24.4897 C   0  0  0  0  0  0
    2.0898   10.2716   25.1192 C   0  0  0  0  0  0
   -0.8805   11.2864   24.3674 C   0  0  0  0  0  0
   -1.9390   11.8039   23.7436 N   0  0  0  0  0  0
   -0.9912   10.3270   25.1269 O   0  0  0  0  0  0
    2.4587    9.2381   25.6568 C   0  0  0  0  0  0
    2.9158    7.9868   26.2929 C   0  0  0  0  0  0
    2.4616    7.9193   27.6880 N   0  0  0  0  0  0
    3.3749    7.1196   28.5182 C   0  0  0  0  0  0
    2.8619    6.9916   29.9693 C   0  0  0  0  0  0
    1.5540    6.4276   29.9668 O   0  0  0  0  0  0
    0.6324    7.2632   29.2707 C   0  0  0  0  0  0
    1.0664    7.4600   27.8010 C   0  0  0  0  0  0
    6.3383   14.9985   25.2013 H   0  0  0  0  0  0
    4.3400   10.9564   23.1755 H   0  0  0  0  0  0
    7.7623   11.4848   22.2245 H   0  0  0  0  0  0
    5.7126   10.3689   21.2768 H   0  0  0  0  0  0
    7.0619    9.2738   21.4832 H   0  0  0  0  0  0
    5.7370    9.2367   22.6240 H   0  0  0  0  0  0
    8.7355   10.8275   24.3560 H   0  0  0  0  0  0
    7.3495    9.7904   24.7325 H   0  0  0  0  0  0
    8.4613    9.3438   23.4626 H   0  0  0  0  0  0
    8.5655   12.7691   23.6735 H   0  0  0  0  0  0
    4.2691   15.6235   25.6984 H   0  0  0  0  0  0
   -2.8749   11.4809   23.9669 H   0  0  0  0  0  0
   -1.8319   12.5721   23.0981 H   0  0  0  0  0  0
    4.0048    7.9772   26.2314 H   0  0  0  0  0  0
    2.5584    7.1360   25.7099 H   0  0  0  0  0  0
    4.3690    7.5689   28.5170 H   0  0  0  0  0  0
    3.4913    6.1261   28.0810 H   0  0  0  0  0  0
    3.5269    6.3499   30.5476 H   0  0  0  0  0  0
    2.8611    7.9628   30.4682 H   0  0  0  0  0  0
   -0.3390    6.7797   29.2915 H   0  0  0  0  0  0
    0.5188    8.2243   29.7776 H   0  0  0  0  0  0
    0.9507    6.5141   27.2677 H   0  0  0  0  0  0
    0.4025    8.1672   27.3003 H   0  0  0  0  0  0
  1  2  2  0  0  0
  1  6  1  0  0  0
  1 10  1  0  0  0
  2  3  1  0  0  0
  2 29  1  0  0  0
  3  4  2  0  0  0
  3 11  1  0  0  0
  4  5  1  0  0  0
  4 12  1  0  0  0
  5  6  2  0  0  0
  5 30  1  0  0  0
  6  7  1  0  0  0
  7  8  1  0  0  0
  7  9  1  0  0  0
  7 31  1  0  0  0
  8 32  1  0  0  0
  8 33  1  0  0  0
  8 34  1  0  0  0
  9 35  1  0  0  0
  9 36  1  0  0  0
  9 37  1  0  0  0
 10 38  1  0  0  0
 11 39  1  0  0  0
 12 13  1  0  0  0
 12 16  2  0  0  0
 13 14  1  0  0  0
 14 15  2  0  0  0
 15 16  1  0  0  0
 15 18  1  0  0  0
 16 17  1  0  0  0
 17 21  3  0  0  0
 18 19  1  0  0  0
 18 20  2  0  0  0
 19 40  1  0  0  0
 19 41  1  0  0  0
 21 22  1  0  0  0
 22 23  1  0  0  0
 22 42  1  0  0  0
 22 43  1  0  0  0
 23 24  1  0  0  0
 23 28  1  0  0  0
 24 25  1  0  0  0
 24 44  1  0  0  0
 24 45  1  0  0  0
 25 26  1  0  0  0
 25 46  1  0  0  0
 25 47  1  0  0  0
 26 27  1  0  0  0
 27 28  1  0  0  0
 27 48  1  0  0  0
 27 49  1  0  0  0
 28 50  1  0  0  0
 28 51  1  0  0  0
M  END
> <s_m_entry_id>
4961

> <s_m_entry_name>
dock_pv.280

> <s_m_Source_Path>
/home/csk/Desktop/cluster/DUD-E-result/hs90a

> <s_m_Source_File>
dock_pv.maegz

> <i_m_Source_File_Index>
280

> <chembl_id>
CHEMBL3600434

> <chembl_pref_name>
None

> <i_lp_mmshare_version>
53161

> <r_lp_tautomer_probability>
0.999999999898

> <s_lp_Force_Field>
OPLS_2005

> <r_lp_Energy>
30.862784

> <b_lp_Chiralities_Consistent>
1

> <s_lp_Variant>
CHEMBL3880_lig425-1

> <s_i_glide_gridfile>
glide-grid_1uyg

> <i_i_glide_lignum>
467

> <i_i_glide_rotatable_bonds>
8

> <r_i_docking_score>
-7.86494593451261

> <r_i_glide_ligand_efficiency>
-0.280890926232593

> <r_i_glide_ligand_efficiency_sa>
-0.852950287950431

> <r_i_glide_ligand_efficiency_ln>
-1.81546044653246

> <r_i_glide_gscore>
-7.86494593451261

> <r_i_glide_lipo>
-3.68996771576506

> <r_i_glide_hbond>
-0.312558502363062

> <r_i_glide_metal>
0

> <r_i_glide_rewards>
-1.41338080160515

> <r_i_glide_evdw>
-41.5446739196777

> <r_i_glide_ecoul>
-5.08438444137573

> <r_i_glide_erotb>
0.392869325393859

> <r_i_glide_esite>
-0.00201687798295155

> <r_i_glide_emodel>
-67.0874866441446

> <r_i_glide_energy>
-46.6290583610535

> <r_i_glide_einternal>
3.07641625404358

> <i_i_glide_confnum>
3

> <i_i_glide_posenum>
27

> <r_i_glide_eff_state_penalty>
0

> <s_user_duplicate_titles>
CHEMBL3880_lig425

> <i_f3d_flags>
0

> <s_m_subgroup_title>
dock_pv

> <s_m_subgroupid>
dock_pv

> <b_m_subgroup_collapsed>
1

$$$$
CHEMBL3880_lig291
                    3D
 Schrodinger Suite 2021-1.
 70 73  0  0  1  0            999 V2000
    1.1186    7.2960   25.5018 C   0  0  0  0  0  0
    1.7092    6.1491   26.0152 C   0  0  0  0  0  0
    2.3861    6.1874   27.2282 C   0  0  0  0  0  0
    2.5195    7.3967   27.9348 C   0  0  0  0  0  0
    1.9122    8.5517   27.4187 C   0  0  0  0  0  0
    1.2030    8.5008   26.2151 C   0  0  0  0  0  0
    2.9072    5.0152   27.7030 O   0  0  0  0  0  0
    3.2714    7.4858   29.2718 C   0  0  0  0  0  0
    4.6465    6.7716   29.2687 C   0  0  0  0  0  0
    2.3758    7.0242   30.4368 C   0  0  0  0  0  0
    0.4582    7.1948   24.3058 O   0  0  0  0  0  0
    0.5155    9.6323   25.7475 N   0  0  0  0  0  0
    0.8626   10.5536   24.7828 C   0  0  0  0  0  0
   -0.3664   11.1676   24.4450 C   0  0  0  0  0  0
   -1.2858   10.7702   25.3125 N   0  0  0  0  0  0
   -0.7418    9.8087   26.1329 N   0  0  0  0  0  0
   -0.6158   12.0664   23.3263 C   0  0  0  0  0  0
   -1.9129   12.3480   23.0831 N   0  0  0  0  0  0
    0.2988   12.4769   22.6085 O   0  0  0  0  0  0
   -2.3940   13.1199   21.9379 C   0  0  0  0  0  0
   -3.5293   14.0854   22.3166 C   0  0  0  0  0  0
    2.2590   10.7627   24.3036 C   0  0  0  0  0  0
    2.7334   12.0711   24.3646 C   0  0  0  0  0  0
    4.0226   12.3661   23.9559 C   0  0  0  0  0  0
    4.8649   11.3531   23.4944 C   0  0  0  0  0  0
    4.3998   10.0345   23.4504 C   0  0  0  0  0  0
    3.0967    9.7401   23.8500 C   0  0  0  0  0  0
    6.2433   11.6948   22.9377 C   0  0  0  0  0  0
    7.2620   11.8040   23.9681 N   0  0  2  0  0  0
    7.8271   13.1352   24.1966 C   0  0  0  0  0  0
    6.8495   14.2229   24.6970 C   0  0  0  0  0  0
    7.5438   15.5691   24.9333 C   0  0  0  0  0  0
    8.7620   15.4623   25.8697 C   0  0  0  0  0  0
    9.7521   14.4103   25.3588 C   0  0  0  0  0  0
    9.0315   13.0659   25.1670 C   0  0  0  0  0  0
    1.6267    5.2171   25.4736 H   0  0  0  0  0  0
    1.9735    9.4853   27.9611 H   0  0  0  0  0  0
    3.5296    5.1940   28.4101 H   0  0  0  0  0  0
    3.4874    8.5417   29.4471 H   0  0  0  0  0  0
    5.1203    6.8034   28.2869 H   0  0  0  0  0  0
    4.5739    5.7272   29.5716 H   0  0  0  0  0  0
    5.3402    7.2359   29.9671 H   0  0  0  0  0  0
    1.4441    7.5904   30.4608 H   0  0  0  0  0  0
    2.1192    5.9686   30.3557 H   0  0  0  0  0  0
    2.8612    7.1736   31.4011 H   0  0  0  0  0  0
   -0.1183    7.9360   24.1014 H   0  0  0  0  0  0
   -2.6244   11.9682   23.6974 H   0  0  0  0  0  0
   -1.5938   13.6635   21.4384 H   0  0  0  0  0  0
   -2.7382   12.4154   21.1798 H   0  0  0  0  0  0
   -3.6249   14.8665   21.5646 H   0  0  0  0  0  0
   -4.4890   13.5779   22.3668 H   0  0  0  0  0  0
   -3.3736   14.5587   23.2852 H   0  0  0  0  0  0
    2.0954   12.8705   24.7150 H   0  0  0  0  0  0
    4.3225   13.3967   23.9670 H   0  0  0  0  0  0
    5.0354    9.2421   23.0822 H   0  0  0  0  0  0
    2.7421    8.7223   23.7925 H   0  0  0  0  0  0
    6.5499   10.9152   22.2388 H   0  0  0  0  0  0
    6.1845   12.6158   22.3682 H   0  0  0  0  0  0
    8.0106   11.1501   23.7860 H   0  0  0  0  0  0
    8.1908   13.4963   23.2354 H   0  0  0  0  0  0
    6.0742   14.4046   23.9642 H   0  0  0  0  0  0
    6.3714   13.9244   25.6280 H   0  0  0  0  0  0
    7.8636   15.9692   23.9706 H   0  0  0  0  0  0
    6.8151   16.2728   25.3364 H   0  0  0  0  0  0
    9.2701   16.4191   25.9636 H   0  0  0  0  0  0
    8.4274   15.1957   26.8749 H   0  0  0  0  0  0
   10.1945   14.7539   24.4228 H   0  0  0  0  0  0
   10.5728   14.2965   26.0680 H   0  0  0  0  0  0
    8.6608   12.7692   26.1368 H   0  0  0  0  0  0
    9.7345   12.2891   24.8654 H   0  0  0  0  0  0
  1  2  2  0  0  0
  1  6  1  0  0  0
  1 11  1  0  0  0
  2  3  1  0  0  0
  2 36  1  0  0  0
  3  4  2  0  0  0
  3  7  1  0  0  0
  4  5  1  0  0  0
  4  8  1  0  0  0
  5  6  2  0  0  0
  5 37  1  0  0  0
  6 12  1  0  0  0
  7 38  1  0  0  0
  8  9  1  0  0  0
  8 10  1  0  0  0
  8 39  1  0  0  0
  9 40  1  0  0  0
  9 41  1  0  0  0
  9 42  1  0  0  0
 10 43  1  0  0  0
 10 44  1  0  0  0
 10 45  1  0  0  0
 11 46  1  0  0  0
 12 13  1  0  0  0
 12 16  1  0  0  0
 13 14  2  0  0  0
 13 22  1  0  0  0
 14 15  1  0  0  0
 14 17  1  0  0  0
 15 16  2  0  0  0
 17 18  1  0  0  0
 17 19  2  0  0  0
 18 20  1  0  0  0
 18 47  1  0  0  0
 20 21  1  0  0  0
 20 48  1  0  0  0
 20 49  1  0  0  0
 21 50  1  0  0  0
 21 51  1  0  0  0
 21 52  1  0  0  0
 22 23  2  0  0  0
 22 27  1  0  0  0
 23 24  1  0  0  0
 23 53  1  0  0  0
 24 25  2  0  0  0
 24 54  1  0  0  0
 25 26  1  0  0  0
 25 28  1  0  0  0
 26 27  2  0  0  0
 26 55  1  0  0  0
 27 56  1  0  0  0
 28 29  1  0  0  0
 28 57  1  0  0  0
 28 58  1  0  0  0
 29 30  1  0  0  0
 29 59  1  0  0  0
 30 31  1  0  0  0
 30 35  1  0  0  0
 30 60  1  0  0  0
 31 32  1  0  0  0
 31 61  1  0  0  0
 31 62  1  0  0  0
 32 33  1  0  0  0
 32 63  1  0  0  0
 32 64  1  0  0  0
 33 34  1  0  0  0
 33 65  1  0  0  0
 33 66  1  0  0  0
 34 35  1  0  0  0
 34 67  1  0  0  0
 34 68  1  0  0  0
 35 69  1  0  0  0
 35 70  1  0  0  0
M  END
> <s_m_entry_id>
4962

> <s_m_entry_name>
dock_pv.281

> <s_m_Source_Path>
/home/csk/Desktop/cluster/DUD-E-result/hs90a

> <s_m_Source_File>
dock_pv.maegz

> <i_m_Source_File_Index>
281

> <chembl_id>
CHEMBL3234778

> <chembl_pref_name>
None

> <i_lp_mmshare_version>
53161

> <r_lp_tautomer_probability>
1

> <s_lp_Force_Field>
OPLS_2005

> <r_lp_Energy>
30.875839

> <b_lp_Chiralities_Consistent>
1

> <s_lp_Variant>
CHEMBL3880_lig291-1

> <s_i_glide_gridfile>
glide-grid_1uyg

> <i_i_glide_lignum>
328

> <i_i_glide_rotatable_bonds>
11

> <r_i_docking_score>
-7.85816996225372

> <r_i_glide_ligand_efficiency>
-0.224519141778678

> <r_i_glide_ligand_efficiency_sa>
-0.734416999794319

> <r_i_glide_ligand_efficiency_ln>
-1.72504270940044

> <r_i_glide_gscore>
-7.85816996225372

> <r_i_glide_lipo>
-3.68356687721062

> <r_i_glide_hbond>
-0.0943004313900932

> <r_i_glide_metal>
0

> <r_i_glide_rewards>
-1.40981719283322

> <r_i_glide_evdw>
-50.4830741882324

> <r_i_glide_ecoul>
-5.12015676498413

> <r_i_glide_erotb>
0.62169176333945

> <r_i_glide_esite>
0

> <r_i_glide_emodel>
-58.5504044103198

> <r_i_glide_energy>
-55.6032309532166

> <r_i_glide_einternal>
23.7313823699951

> <i_i_glide_confnum>
8

> <i_i_glide_posenum>
151

> <r_i_glide_eff_state_penalty>
0

> <s_user_duplicate_titles>
CHEMBL3880_lig291

> <i_f3d_flags>
0

> <s_m_subgroup_title>
dock_pv

> <s_m_subgroupid>
dock_pv

> <b_m_subgroup_collapsed>
1

$$$$
CHEMBL3880_lig443
                    3D
 Schrodinger Suite 2021-1.
 62 65  0  0  1  0            999 V2000
    4.4611    7.9680   19.5787 C   0  0  0  0  0  0
    5.1274    9.1690   19.9675 O   0  0  0  0  0  0
    5.7695    9.2082   21.1896 C   0  0  0  0  0  0
    6.8840   10.0354   21.3340 C   0  0  0  0  0  0
    7.5903   10.0377   22.5343 C   0  0  0  0  0  0
    7.1646    9.2089   23.5664 C   0  0  0  0  0  0
    6.0263    8.4198   23.3652 C   0  0  0  0  0  0
    5.3293    8.4136   22.2001 N   0  0  0  0  0  0
    5.5102    7.5504   24.4394 C   0  0  0  0  0  0
    6.3661    6.5482   24.9166 C   0  0  0  0  0  0
    6.0031    5.7467   25.9901 C   0  0  0  0  0  0
    6.8610    4.8256   26.4731 F   0  0  0  0  0  0
    4.7608    5.9108   26.5817 C   0  0  0  0  0  0
    3.8973    6.9002   26.1220 C   0  0  0  0  0  0
    4.2566    7.7639   25.0669 C   0  0  0  0  0  0
    3.2982    8.9134   24.6366 C   0  0  1  0  0  0
    2.0035    9.0046   25.5048 C   0  0  0  0  0  0
    1.1179   10.1137   24.9835 C   0  0  0  0  0  0
   -0.2209    9.9439   25.0659 N   0  0  0  0  0  0
   -0.9844   10.9206   24.5484 C   0  0  0  0  0  0
   -2.3391   10.7695   24.7256 N   0  0  0  0  0  0
   -0.5482   12.0179   23.8973 N   0  0  0  0  0  0
    0.7987   12.1552   23.7859 C   0  0  0  0  0  0
    1.2027   13.3432   22.9310 C   0  0  0  0  0  0
    1.7064   11.2300   24.3615 C   0  0  0  0  0  0
    3.1909   11.2832   24.3716 C   0  0  0  0  0  0
    3.9503   10.2471   24.4867 N   0  0  0  0  0  0
    3.7025   12.6214   24.3438 N   0  0  0  0  0  0
    5.1131   12.8517   24.1858 O   0  0  0  0  0  0
    5.4585   13.9733   25.0118 C   0  0  0  0  0  0
    6.9744   14.0731   25.3469 C   0  0  0  0  0  0
    7.1880   14.9416   26.6234 C   0  0  0  0  0  0
    8.4989   14.8327   27.1582 O   0  0  0  0  0  0
    7.7889   14.5898   24.1376 C   0  0  0  0  0  0
    9.1526   14.7688   24.4658 O   0  0  0  0  0  0
    3.7653    8.1884   18.7691 H   0  0  0  0  0  0
    5.1776    7.2420   19.1953 H   0  0  0  0  0  0
    3.9004    7.4868   20.3792 H   0  0  0  0  0  0
    7.2284   10.6572   20.5189 H   0  0  0  0  0  0
    8.4607   10.6669   22.6581 H   0  0  0  0  0  0
    7.6943    9.1904   24.5081 H   0  0  0  0  0  0
    7.3390    6.4062   24.4669 H   0  0  0  0  0  0
    4.4729    5.2822   27.4115 H   0  0  0  0  0  0
    2.9597    6.9906   26.6460 H   0  0  0  0  0  0
    2.9928    8.5930   23.6365 H   0  0  0  0  0  0
    2.2615    9.2342   26.5400 H   0  0  0  0  0  0
    1.4476    8.0650   25.4985 H   0  0  0  0  0  0
   -2.9925   11.4632   24.3682 H   0  0  0  0  0  0
   -2.6752    9.9378   25.1838 H   0  0  0  0  0  0
    2.1017   13.1197   22.3673 H   0  0  0  0  0  0
    0.4363   13.5689   22.1904 H   0  0  0  0  0  0
    1.3668   14.2282   23.5465 H   0  0  0  0  0  0
    3.2412   13.2712   23.7269 H   0  0  0  0  0  0
    4.8991   13.9560   25.9518 H   0  0  0  0  0  0
    5.1351   14.8877   24.5088 H   0  0  0  0  0  0
    7.3319   13.0697   25.5680 H   0  0  0  0  0  0
    6.4504   14.7689   27.4074 H   0  0  0  0  0  0
    7.0066   15.9691   26.3506 H   0  0  0  0  0  0
    8.5168   15.1687   28.0650 H   0  0  0  0  0  0
    7.4112   15.5701   23.8585 H   0  0  0  0  0  0
    7.6632   13.9507   23.2619 H   0  0  0  0  0  0
    9.1819   14.9367   25.4204 H   0  0  0  0  0  0
  1  2  1  0  0  0
  1 36  1  0  0  0
  1 37  1  0  0  0
  1 38  1  0  0  0
  2  3  1  0  0  0
  3  4  2  0  0  0
  3  8  1  0  0  0
  4  5  1  0  0  0
  4 39  1  0  0  0
  5  6  2  0  0  0
  5 40  1  0  0  0
  6  7  1  0  0  0
  6 41  1  0  0  0
  7  8  2  0  0  0
  7  9  1  0  0  0
  9 10  2  0  0  0
  9 15  1  0  0  0
 10 11  1  0  0  0
 10 42  1  0  0  0
 11 12  1  0  0  0
 11 13  2  0  0  0
 13 14  1  0  0  0
 13 43  1  0  0  0
 14 15  2  0  0  0
 14 44  1  0  0  0
 15 16  1  0  0  0
 16 17  1  0  0  0
 16 27  1  0  0  0
 16 45  1  0  0  0
 17 18  1  0  0  0
 17 46  1  0  0  0
 17 47  1  0  0  0
 18 19  2  0  0  0
 18 25  1  0  0  0
 19 20  1  0  0  0
 20 21  1  0  0  0
 20 22  2  0  0  0
 21 48  1  0  0  0
 21 49  1  0  0  0
 22 23  1  0  0  0
 23 24  1  0  0  0
 23 25  2  0  0  0
 24 50  1  0  0  0
 24 51  1  0  0  0
 24 52  1  0  0  0
 25 26  1  0  0  0
 26 27  2  0  0  0
 26 28  1  0  0  0
 28 29  1  0  0  0
 28 53  1  0  0  0
 29 30  1  0  0  0
 30 31  1  0  0  0
 30 54  1  0  0  0
 30 55  1  0  0  0
 31 32  1  0  0  0
 31 34  1  0  0  0
 31 56  1  0  0  0
 32 33  1  0  0  0
 32 57  1  0  0  0
 32 58  1  0  0  0
 33 59  1  0  0  0
 34 35  1  0  0  0
 34 60  1  0  0  0
 34 61  1  0  0  0
 35 62  1  0  0  0
M  END
> <s_m_entry_id>
4963

> <s_m_entry_name>
dock_pv.282

> <s_m_Source_Path>
/home/csk/Desktop/cluster/DUD-E-result/hs90a

> <s_m_Source_File>
dock_pv.maegz

> <i_m_Source_File_Index>
282

> <chembl_id>
CHEMBL3675258

> <chembl_pref_name>
None

> <i_lp_mmshare_version>
53161

> <r_lp_tautomer_probability>
1

> <s_lp_Force_Field>
OPLS_2005

> <r_lp_Energy>
23.413437

> <b_lp_Chiralities_Consistent>
1

> <s_lp_Variant>
CHEMBL3880_lig443-1

> <s_i_glide_gridfile>
glide-grid_1uyg

> <i_i_glide_lignum>
485

> <i_i_glide_rotatable_bonds>
11

> <r_i_docking_score>
-7.85785852352607

> <r_i_glide_ligand_efficiency>
-0.224510243529316

> <r_i_glide_ligand_efficiency_sa>
-0.734387893030647

> <r_i_glide_ligand_efficiency_ln>
-1.72497434168771

> <r_i_glide_gscore>
-7.85785852352607

> <r_i_glide_lipo>
-3.40908892269957

> <r_i_glide_hbond>
-0.466785414855773

> <r_i_glide_metal>
0

> <r_i_glide_rewards>
-0.592338579686293

> <r_i_glide_evdw>
-45.391242980957

> <r_i_glide_ecoul>
-11.910493850708

> <r_i_glide_erotb>
0.697349789495217

> <r_i_glide_esite>
-0.0308591691255957

> <r_i_glide_emodel>
-72.3370549457838

> <r_i_glide_energy>
-57.301736831665

> <r_i_glide_einternal>
13.7773313522339

> <i_i_glide_confnum>
143

> <i_i_glide_posenum>
20

> <r_i_glide_eff_state_penalty>
0

> <s_user_duplicate_titles>
CHEMBL3880_lig443

> <i_f3d_flags>
0

> <s_m_subgroup_title>
dock_pv

> <s_m_subgroupid>
dock_pv

> <b_m_subgroup_collapsed>
1

$$$$
CHEMBL3880_lig142
                    3D
 Schrodinger Suite 2021-1.
 48 50  0  0  1  0            999 V2000
    2.0829    7.3773   30.0102 P   0  0  0  0  0  0
    2.0610    5.9570   29.5671 O   0  0  0  0  0  0
    3.3965    8.2130   29.5670 O   0  0  0  0  0  0
    2.0508    7.5690   31.6166 O   0  0  0  0  0  0
   -0.1757    8.3690   28.0463 P   0  0  2  0  0  0
   -1.2655    9.4121   28.0100 O   0  0  0  0  0  0
   -0.7390    6.7670   27.9670 O   0  0  0  0  0  0
    0.8197    8.3516   29.4959 N   0  0  1  0  0  0
    1.0895    8.2259   25.2143 P   0  0  2  0  0  0
    1.1497    9.4446   24.3670 O   0  0  0  0  0  0
   -0.1400    7.2197   24.8845 O   0  0  0  0  0  0
    0.9454    8.5104   26.7959 O   0  0  0  0  0  0
    2.4027    7.2566   25.1926 O   0  0  0  0  0  0
    2.9755    6.7156   24.0096 C   0  0  0  0  0  0
    3.3881    7.7769   22.9696 C   0  0  1  0  0  0
    4.0040    8.8882   23.6095 O   0  0  0  0  0  0
    4.5170    7.3720   22.0048 C   0  0  1  0  0  0
    4.0610    6.6735   20.8577 O   0  0  0  0  0  0
    5.2834    8.6755   21.7003 C   0  0  1  0  0  0
    5.2610    9.1425   20.3670 O   0  0  0  0  0  0
    4.5572    9.6636   22.6009 C   0  0  2  0  0  0
    5.3324   10.8524   23.1302 N   0  0  0  0  0  0
    6.6656   11.0567   23.2156 C   0  0  0  0  0  0
    6.9909   12.2336   23.6890 N   0  0  0  0  0  0
    5.8108   12.8119   23.9670 C   0  0  0  0  0  0
    5.4843   14.0498   24.5743 C   0  0  0  0  0  0
    6.4360   14.9622   25.0169 N   0  0  0  0  0  0
    4.1759   14.3597   24.7670 N   0  0  0  0  0  0
    3.2608   13.4674   24.3670 C   0  0  0  0  0  0
    3.4401   12.2656   23.7995 N   0  0  0  0  0  0
    4.7562   11.9812   23.6389 C   0  0  0  0  0  0
    4.0863    8.3099   30.2645 H   0  0  0  0  0  0
    2.7892    8.0891   32.0102 H   0  0  0  0  0  0
   -0.1290    6.0209   27.8195 H   0  0  0  0  0  0
    0.3524    8.8260   30.2740 H   0  0  0  0  0  0
   -0.8085    7.5690   24.2545 H   0  0  0  0  0  0
    3.8428    6.1321   24.3185 H   0  0  0  0  0  0
    2.2788    6.0063   23.5596 H   0  0  0  0  0  0
    2.5022    8.1187   22.4287 H   0  0  0  0  0  0
    5.2098    6.7149   22.5342 H   0  0  0  0  0  0
    3.3342    7.1690   20.4550 H   0  0  0  0  0  0
    6.3129    8.5596   22.0397 H   0  0  0  0  0  0
    5.7138    8.4676   19.8516 H   0  0  0  0  0  0
    3.7181   10.1114   22.0573 H   0  0  0  0  0  0
    7.3710   10.3078   22.8871 H   0  0  0  0  0  0
    7.4122   14.7172   24.9571 H   0  0  0  0  0  0
    6.1196   15.8068   25.4695 H   0  0  0  0  0  0
    2.2317   13.7544   24.5252 H   0  0  0  0  0  0
  1  2  2  0  0  0
  1  3  1  0  0  0
  1  4  1  0  0  0
  1  8  1  0  0  0
  3 32  1  0  0  0
  4 33  1  0  0  0
  5  6  2  0  0  0
  5  7  1  0  0  0
  5  8  1  0  0  0
  5 12  1  0  0  0
  7 34  1  0  0  0
  8 35  1  0  0  0
  9 10  2  0  0  0
  9 11  1  0  0  0
  9 12  1  0  0  0
  9 13  1  0  0  0
 11 36  1  0  0  0
 13 14  1  0  0  0
 14 15  1  0  0  0
 14 37  1  0  0  0
 14 38  1  0  0  0
 15 16  1  0  0  0
 15 17  1  0  0  0
 15 39  1  0  0  0
 16 21  1  0  0  0
 17 18  1  0  0  0
 17 19  1  0  0  0
 17 40  1  0  0  0
 18 41  1  0  0  0
 19 20  1  0  0  0
 19 21  1  0  0  0
 19 42  1  0  0  0
 20 43  1  0  0  0
 21 22  1  0  0  0
 21 44  1  0  0  0
 22 23  1  0  0  0
 22 31  1  0  0  0
 23 24  2  0  0  0
 23 45  1  0  0  0
 24 25  1  0  0  0
 25 26  1  0  0  0
 25 31  2  0  0  0
 26 27  1  0  0  0
 26 28  2  0  0  0
 27 46  1  0  0  0
 27 47  1  0  0  0
 28 29  1  0  0  0
 29 30  2  0  0  0
 29 48  1  0  0  0
 30 31  1  0  0  0
M  END
> <s_m_entry_id>
4964

> <s_m_entry_name>
dock_pv.283

> <s_m_Source_Path>
/home/csk/Desktop/cluster/DUD-E-result/hs90a

> <s_m_Source_File>
dock_pv.maegz

> <i_m_Source_File_Index>
283

> <chembl_id>
CHEMBL1230989

> <chembl_pref_name>
None

> <i_lp_mmshare_version>
53161

> <r_lp_tautomer_probability>
0.999997216410988

> <s_lp_Force_Field>
OPLS_2005

> <r_lp_Energy>
19.581709

> <b_lp_Chiralities_Consistent>
1

> <s_lp_Variant>
CHEMBL3880_lig142-1

> <s_i_glide_gridfile>
glide-grid_1uyg

> <i_i_glide_lignum>
159

> <i_i_glide_rotatable_bonds>
14

> <r_i_docking_score>
-7.85011107666655

> <r_i_glide_ligand_efficiency>
-0.253229389569889

> <r_i_glide_ligand_efficiency_sa>
-0.795489904101163

> <r_i_glide_ligand_efficiency_ln>
-1.7704406248006

> <r_i_glide_gscore>
-7.85011107666655

> <r_i_glide_lipo>
-0.504763430020501

> <r_i_glide_hbond>
-0.32

> <r_i_glide_metal>
0

> <r_i_glide_rewards>
-1.51968461965715

> <r_i_glide_evdw>
-46.3391380310059

> <r_i_glide_ecoul>
-23.9397659301758

> <r_i_glide_erotb>
0.447117766002358

> <r_i_glide_esite>
-0.0448590019145932

> <r_i_glide_emodel>
-102.10528195642

> <r_i_glide_energy>
-70.2789039611816

> <r_i_glide_einternal>
10.8183164596558

> <i_i_glide_confnum>
72

> <i_i_glide_posenum>
235

> <r_i_glide_eff_state_penalty>
0

> <s_user_duplicate_titles>
CHEMBL3880_lig142

> <i_f3d_flags>
0

> <s_m_subgroup_title>
dock_pv

> <s_m_subgroupid>
dock_pv

> <b_m_subgroup_collapsed>
1

$$$$
CHEMBL3880_lig930
                    3D
 Schrodinger Suite 2021-1.
 56 60  0  0  1  0            999 V2000
    0.2495   12.9146   23.6949 N   0  0  0  0  0  0
   -0.3336   11.7032   23.8619 C   0  0  0  0  0  0
    0.2671   10.5977   24.3675 N   0  0  0  0  0  0
    1.5756   10.7062   24.7336 C   0  0  0  0  0  0
   -1.6629   11.5750   23.4877 N   0  0  0  0  0  0
    2.1683    9.4631   25.3151 C   0  0  0  0  0  0
    1.6353    8.8989   26.4969 C   0  0  0  0  0  0
    2.1864    7.7471   27.0485 C   0  0  0  0  0  0
    3.2650    7.1265   26.4375 C   0  0  0  0  0  0
    3.7857    7.6496   25.2602 C   0  0  0  0  0  0
    3.2411    8.8063   24.6752 C   0  0  0  0  0  0
    3.7220    9.3327   23.4869 O   0  0  0  0  0  0
    0.2731    9.5741   27.3249 Cl  0  0  0  0  0  0
    4.2908    8.4579   22.5017 C   0  0  0  0  0  0
    5.2103    9.2302   21.5392 C   0  0  0  0  0  0
    6.2810    9.8958   22.2712 N   0  0  0  0  0  0
    3.9619    5.7144   27.1409 Cl  0  0  0  0  0  0
    1.5417   13.0018   24.0970 C   0  0  0  0  0  0
    2.2603   11.9290   24.6015 C   0  0  0  0  0  0
    3.6613   12.3818   24.9460 C   0  0  0  0  0  0
    3.6192   13.8457   24.7639 N   0  0  0  0  0  0
    2.3544   14.2681   24.1519 C   0  0  0  0  0  0
    4.6101   14.7295   25.0750 C   0  0  0  0  0  0
    5.8453   14.2137   25.1674 N   0  0  0  0  0  0
    4.4392   15.9453   25.1667 O   0  0  0  0  0  0
    7.4922    9.3807   22.6612 C   0  0  0  0  0  0
    8.0634   10.3639   23.4479 C   0  0  0  0  0  0
    7.1356   11.3943   23.4676 C   0  0  0  0  0  0
    6.0656   11.1179   22.7710 N   0  0  0  0  0  0
    7.0611   14.9715   25.4824 C   0  0  0  0  0  0
    8.0941   14.2509   26.3484 C   0  0  0  0  0  0
    9.1832   14.8980   25.4816 C   0  0  0  0  0  0
    8.1200   15.0479   24.3773 C   0  0  0  0  0  0
   10.2052   14.1014   25.1677 F   0  0  0  0  0  0
    9.6720   16.0358   25.9684 F   0  0  0  0  0  0
   -2.1433   10.7146   23.7047 H   0  0  0  0  0  0
   -2.1880   12.3962   23.2241 H   0  0  0  0  0  0
    1.7757    7.3381   27.9608 H   0  0  0  0  0  0
    4.6388    7.1448   24.8412 H   0  0  0  0  0  0
    4.8830    7.6389   22.9010 H   0  0  0  0  0  0
    3.4755    7.9919   21.9468 H   0  0  0  0  0  0
    5.6605    8.5519   20.8116 H   0  0  0  0  0  0
    4.6411    9.9686   20.9753 H   0  0  0  0  0  0
    4.4028   11.9267   24.2989 H   0  0  0  0  0  0
    3.9321   12.1326   25.9669 H   0  0  0  0  0  0
    1.8719   15.0242   24.7620 H   0  0  0  0  0  0
    2.4881   14.7086   23.1685 H   0  0  0  0  0  0
    5.9622   13.2452   24.9197 H   0  0  0  0  0  0
    7.8109    8.3899   22.3693 H   0  0  0  0  0  0
    9.0074   10.3695   23.9647 H   0  0  0  0  0  0
    7.2472   12.3185   24.0017 H   0  0  0  0  0  0
    6.8089   15.9670   25.8700 H   0  0  0  0  0  0
    8.0789   13.1688   26.2536 H   0  0  0  0  0  0
    8.0966   14.5229   27.4046 H   0  0  0  0  0  0
    8.1413   15.9689   23.8053 H   0  0  0  0  0  0
    8.1215   14.2179   23.6725 H   0  0  0  0  0  0
  1 18  1  0  0  0
  1  2  2  0  0  0
  2  5  1  0  0  0
  2  3  1  0  0  0
  3  4  2  0  0  0
  4 19  1  0  0  0
  4  6  1  0  0  0
  5 36  1  0  0  0
  5 37  1  0  0  0
  6 11  1  0  0  0
  6  7  2  0  0  0
  7  8  1  0  0  0
  7 13  1  0  0  0
  8  9  2  0  0  0
  8 38  1  0  0  0
  9 17  1  0  0  0
  9 10  1  0  0  0
 10 11  2  0  0  0
 10 39  1  0  0  0
 11 12  1  0  0  0
 12 14  1  0  0  0
 14 15  1  0  0  0
 14 40  1  0  0  0
 14 41  1  0  0  0
 15 16  1  0  0  0
 15 42  1  0  0  0
 15 43  1  0  0  0
 16 26  1  0  0  0
 16 29  1  0  0  0
 18 19  2  0  0  0
 18 22  1  0  0  0
 19 20  1  0  0  0
 20 21  1  0  0  0
 20 44  1  0  0  0
 20 45  1  0  0  0
 21 22  1  0  0  0
 21 23  1  0  0  0
 22 46  1  0  0  0
 22 47  1  0  0  0
 23 24  1  0  0  0
 23 25  2  0  0  0
 24 30  1  0  0  0
 24 48  1  0  0  0
 26 27  2  0  0  0
 26 49  1  0  0  0
 27 28  1  0  0  0
 27 50  1  0  0  0
 28 29  2  0  0  0
 28 51  1  0  0  0
 30 31  1  0  0  0
 30 33  1  0  0  0
 30 52  1  0  0  0
 31 32  1  0  0  0
 31 53  1  0  0  0
 31 54  1  0  0  0
 32 33  1  0  0  0
 32 34  1  0  0  0
 32 35  1  0  0  0
 33 55  1  0  0  0
 33 56  1  0  0  0
M  END
> <s_m_entry_id>
4965

> <s_m_entry_name>
dock_pv.284

> <s_m_Source_Path>
/home/csk/Desktop/cluster/DUD-E-result/hs90a

> <s_m_Source_File>
dock_pv.maegz

> <i_m_Source_File_Index>
284

> <chembl_id>
CHEMBL1774923

> <chembl_pref_name>
None

> <i_lp_mmshare_version>
53161

> <r_lp_tautomer_probability>
0.999999987636

> <s_lp_Force_Field>
OPLS_2005

> <r_lp_Energy>
50.829864

> <b_lp_Chiralities_Consistent>
1

> <s_lp_Variant>
CHEMBL3880_lig930-1

> <s_i_glide_gridfile>
glide-grid_1uyg

> <i_i_glide_lignum>
1036

> <i_i_glide_rotatable_bonds>
8

> <r_i_docking_score>
-7.84894485255342

> <r_i_glide_ligand_efficiency>
-0.224255567215812

> <r_i_glide_ligand_efficiency_sa>
-0.733554829922528

> <r_i_glide_ligand_efficiency_ln>
-1.72301759308094

> <r_i_glide_gscore>
-7.84894485255342

> <r_i_glide_lipo>
-4.33782460557287

> <r_i_glide_hbond>
0

> <r_i_glide_metal>
0

> <r_i_glide_rewards>
-0.706604158537526

> <r_i_glide_evdw>
-51.840934753418

> <r_i_glide_ecoul>
-4.36119222640991

> <r_i_glide_erotb>
0.523859309172469

> <r_i_glide_esite>
-0.0821498259831052

> <r_i_glide_emodel>
-75.5245255779896

> <r_i_glide_energy>
-56.2021269798279

> <r_i_glide_einternal>
5.94778251647949

> <i_i_glide_confnum>
29

> <i_i_glide_posenum>
358

> <r_i_glide_eff_state_penalty>
0

> <s_user_duplicate_titles>
CHEMBL3880_lig930

> <i_f3d_flags>
0

> <s_m_subgroup_title>
dock_pv

> <s_m_subgroupid>
dock_pv

> <b_m_subgroup_collapsed>
1

$$$$
CHEMBL3880_lig910
                    3D
 Schrodinger Suite 2021-1.
 38 39  0  0  1  0            999 V2000
   -1.5377   11.5622   24.9640 N   0  0  0  0  0  0
   -0.6518   10.9371   25.7747 C   0  0  0  0  0  0
    0.6676   10.7573   25.5223 N   0  0  0  0  0  0
    1.1389   11.2737   24.3532 C   0  0  0  0  0  0
    0.3099   11.9700   23.4646 C   0  0  0  0  0  0
   -1.0412   12.0696   23.8064 C   0  0  0  0  0  0
   -1.1402   10.4523   26.9792 N   0  0  0  0  0  0
    2.5439   10.9476   23.9954 C   0  0  0  0  0  0
    2.8794    9.6398   23.5919 C   0  0  0  0  0  0
    4.1734    9.3372   23.1764 C   0  0  0  0  0  0
    5.1501   10.3235   23.1656 C   0  0  0  0  0  0
    4.8384   11.6093   23.5919 C   0  0  0  0  0  0
    3.5424   11.9421   24.0248 C   0  0  0  0  0  0
    3.1900   13.1981   24.5030 O   0  0  0  0  0  0
   -2.0499   12.7251   22.8860 C   0  0  0  0  0  0
    1.7084    8.3630   23.5670 Cl  0  0  0  0  0  0
    4.0509   14.3299   24.3389 C   0  0  0  0  0  0
    4.6818   14.7963   25.6665 C   0  0  0  0  0  0
    5.9669   15.6441   25.4748 C   0  0  0  0  0  0
    7.2814   14.8356   25.3563 C   0  0  0  0  0  0
    7.1736   13.7981   24.5327 F   0  0  0  0  0  0
    7.6624   14.3687   26.5406 F   0  0  0  0  0  0
    8.2884   15.5688   24.8959 F   0  0  0  0  0  0
    6.7475    9.9565   22.6249 Cl  0  0  0  0  0  0
    0.6878   12.3570   22.5304 H   0  0  0  0  0  0
   -2.1419   10.4353   27.1027 H   0  0  0  0  0  0
   -0.5278    9.8869   27.5465 H   0  0  0  0  0  0
    4.4162    8.3350   22.8539 H   0  0  0  0  0  0
    5.6379   12.3265   23.5907 H   0  0  0  0  0  0
   -1.5694   13.2109   22.0378 H   0  0  0  0  0  0
   -2.7361   11.9726   22.4976 H   0  0  0  0  0  0
   -2.6369   13.4712   23.4228 H   0  0  0  0  0  0
    3.4232   15.1399   23.9675 H   0  0  0  0  0  0
    4.8027   14.2055   23.5668 H   0  0  0  0  0  0
    4.8922   13.9459   26.3108 H   0  0  0  0  0  0
    3.9383   15.3804   26.2107 H   0  0  0  0  0  0
    6.0626   16.3328   26.3168 H   0  0  0  0  0  0
    5.8548   16.2880   24.6009 H   0  0  0  0  0  0
  1  6  1  0  0  0
  1  2  2  0  0  0
  2  7  1  0  0  0
  2  3  1  0  0  0
  3  4  2  0  0  0
  4  8  1  0  0  0
  4  5  1  0  0  0
  5  6  2  0  0  0
  5 25  1  0  0  0
  6 15  1  0  0  0
  7 26  1  0  0  0
  7 27  1  0  0  0
  8 13  1  0  0  0
  8  9  2  0  0  0
  9 16  1  0  0  0
  9 10  1  0  0  0
 10 11  2  0  0  0
 10 28  1  0  0  0
 11 12  1  0  0  0
 11 24  1  0  0  0
 12 13  2  0  0  0
 12 29  1  0  0  0
 13 14  1  0  0  0
 14 17  1  0  0  0
 15 30  1  0  0  0
 15 31  1  0  0  0
 15 32  1  0  0  0
 17 18  1  0  0  0
 17 33  1  0  0  0
 17 34  1  0  0  0
 18 19  1  0  0  0
 18 35  1  0  0  0
 18 36  1  0  0  0
 19 20  1  0  0  0
 19 37  1  0  0  0
 19 38  1  0  0  0
 20 21  1  0  0  0
 20 22  1  0  0  0
 20 23  1  0  0  0
M  END
> <s_m_entry_id>
4966

> <s_m_entry_name>
dock_pv.285

> <s_m_Source_Path>
/home/csk/Desktop/cluster/DUD-E-result/hs90a

> <s_m_Source_File>
dock_pv.maegz

> <i_m_Source_File_Index>
285

> <chembl_id>
CHEMBL1774835

> <chembl_pref_name>
None

> <i_lp_mmshare_version>
53161

> <r_lp_tautomer_probability>
0.999999987636

> <s_lp_Force_Field>
OPLS_2005

> <r_lp_Energy>
11.407334

> <b_lp_Chiralities_Consistent>
1

> <s_lp_Variant>
CHEMBL3880_lig910-1

> <s_i_glide_gridfile>
glide-grid_1uyg

> <i_i_glide_lignum>
1016

> <i_i_glide_rotatable_bonds>
6

> <r_i_docking_score>
-7.84466678615508

> <r_i_glide_ligand_efficiency>
-0.326861116089795

> <r_i_glide_ligand_efficiency_sa>
-0.942830607462624

> <r_i_glide_ligand_efficiency_ln>
-1.87758873022988

> <r_i_glide_gscore>
-7.84466678615508

> <r_i_glide_lipo>
-3.38914920349272

> <r_i_glide_hbond>
0

> <r_i_glide_metal>
0

> <r_i_glide_rewards>
-2.65126525935146

> <r_i_glide_evdw>
-41.9200286865234

> <r_i_glide_ecoul>
-2.52829957008362

> <r_i_glide_erotb>
0.670994046527818

> <r_i_glide_esite>
0

> <r_i_glide_emodel>
-60.8054642060953

> <r_i_glide_energy>
-44.4483282566071

> <r_i_glide_einternal>
7.38797569274902

> <i_i_glide_confnum>
53

> <i_i_glide_posenum>
12

> <r_i_glide_eff_state_penalty>
0

> <s_user_duplicate_titles>
CHEMBL3880_lig910

> <i_f3d_flags>
0

> <s_m_subgroup_title>
dock_pv

> <s_m_subgroupid>
dock_pv

> <b_m_subgroup_collapsed>
1

$$$$
CHEMBL3880_lig881 
                    3D
 Schrodinger Suite 2021-1.
 44 45  0  0  1  0            999 V2000
    2.5785   10.9954   23.9092 C   0  0  0  0  0  0
    4.0178   10.8999   23.5578 C   0  0  0  0  0  0
    4.9158   12.0744   23.8165 C   0  0  0  0  0  0
    4.4733    9.8227   23.1700 O   0  0  0  0  0  0
    4.4223   13.2587   24.3845 C   0  0  0  0  0  0
    5.2937   14.2732   24.7677 C   0  0  0  0  0  0
    6.6671   14.1340   24.5868 C   0  0  0  0  0  0
    7.1607   12.9768   23.9671 C   0  0  0  0  0  0
    6.2922   11.9624   23.5721 C   0  0  0  0  0  0
    1.7120   11.7922   23.1658 C   0  0  0  0  0  0
    0.3613   11.9183   23.5190 C   0  0  0  0  0  0
   -0.0969   11.2828   24.6982 C   0  0  0  0  0  0
    0.7640   10.4157   25.4179 C   0  0  0  0  0  0
    2.0899   10.2729   24.9916 C   0  0  0  0  0  0
    7.4516   15.1703   25.0505 O   0  0  0  0  0  0
    8.8664   15.0520   24.9983 C   0  0  0  0  0  0
    0.3528    9.5867   26.6061 C   0  0  0  0  0  0
   -0.7422   10.0499   27.2458 O   0  0  0  0  0  0
    1.0047    8.6178   27.0084 O   0  0  0  0  0  0
   -1.2644    9.3578   28.3672 C   0  0  0  0  0  0
   -1.3743   11.5197   25.1489 O   0  0  0  0  0  0
   -2.3472   10.5784   24.7271 C   0  0  0  0  0  0
   -0.5362   12.6103   22.5274 C   0  0  0  0  0  0
   -1.7036   13.0625   23.0390 O   0  0  0  0  0  0
   -0.2119   12.7691   21.3445 O   0  0  0  0  0  0
   -2.7276   13.5665   22.1894 C   0  0  0  0  0  0
    3.3711   13.3959   24.5926 H   0  0  0  0  0  0
    4.9044   15.1664   25.2343 H   0  0  0  0  0  0
    8.2154   12.8352   23.8063 H   0  0  0  0  0  0
    6.7097   11.0669   23.1323 H   0  0  0  0  0  0
    2.0967   12.2987   22.2896 H   0  0  0  0  0  0
    2.7712    9.6268   25.5339 H   0  0  0  0  0  0
    9.3126   15.9155   25.4907 H   0  0  0  0  0  0
    9.2214   15.0339   23.9676 H   0  0  0  0  0  0
    9.2182   14.1607   25.5201 H   0  0  0  0  0  0
   -2.1255    9.8928   28.7667 H   0  0  0  0  0  0
   -1.5830    8.3549   28.0830 H   0  0  0  0  0  0
   -0.5124    9.2635   29.1507 H   0  0  0  0  0  0
   -3.2048   10.6293   25.3966 H   0  0  0  0  0  0
   -2.6902   10.7760   23.7128 H   0  0  0  0  0  0
   -1.9621    9.5668   24.7624 H   0  0  0  0  0  0
   -3.5550   13.9504   22.7860 H   0  0  0  0  0  0
   -2.3613   14.3691   21.5506 H   0  0  0  0  0  0
   -3.1083   12.7790   21.5393 H   0  0  0  0  0  0
  1  2  1  0  0  0
  1 10  2  0  0  0
  1 14  1  0  0  0
  2  3  1  0  0  0
  2  4  2  0  0  0
  3  5  2  0  0  0
  3  9  1  0  0  0
  5  6  1  0  0  0
  5 27  1  0  0  0
  6  7  2  0  0  0
  6 28  1  0  0  0
  7  8  1  0  0  0
  7 15  1  0  0  0
  8  9  2  0  0  0
  8 29  1  0  0  0
  9 30  1  0  0  0
 10 11  1  0  0  0
 10 31  1  0  0  0
 11 12  2  0  0  0
 11 23  1  0  0  0
 12 13  1  0  0  0
 12 21  1  0  0  0
 13 14  2  0  0  0
 13 17  1  0  0  0
 14 32  1  0  0  0
 15 16  1  0  0  0
 16 33  1  0  0  0
 16 34  1  0  0  0
 16 35  1  0  0  0
 17 18  1  0  0  0
 17 19  2  0  0  0
 18 20  1  0  0  0
 20 36  1  0  0  0
 20 37  1  0  0  0
 20 38  1  0  0  0
 21 22  1  0  0  0
 22 39  1  0  0  0
 22 40  1  0  0  0
 22 41  1  0  0  0
 23 24  1  0  0  0
 23 25  2  0  0  0
 24 26  1  0  0  0
 26 42  1  0  0  0
 26 43  1  0  0  0
 26 44  1  0  0  0
M  END
> <s_m_entry_id>
4967

> <s_m_entry_name>
dock_pv.286

> <s_m_Source_Path>
/home/csk/Desktop/cluster/DUD-E-result/hs90a

> <s_m_Source_File>
dock_pv.maegz

> <i_m_Source_File_Index>
286

> <chembl_id>
CHEMBL4561881

> <chembl_pref_name>
None

> <i_lp_mmshare_version>
53161

> <r_lp_tautomer_probability>
1

> <s_lp_Force_Field>
OPLS_2005

> <r_lp_Energy>
39.732816

> <b_lp_Chiralities_Consistent>
1

> <s_lp_Variant>
CHEMBL3880_lig881 -1

> <s_i_glide_gridfile>
glide-grid_1uyg

> <i_i_glide_lignum>
987

> <i_i_glide_rotatable_bonds>
8

> <r_i_docking_score>
-7.84133393159308

> <r_i_glide_ligand_efficiency>
-0.301589766599734

> <r_i_glide_ligand_efficiency_sa>
-0.893458496853283

> <r_i_glide_ligand_efficiency_ln>
-1.84151154431941

> <r_i_glide_gscore>
-7.84133393159308

> <r_i_glide_lipo>
-3.51605432742397

> <r_i_glide_hbond>
0

> <r_i_glide_metal>
0

> <r_i_glide_rewards>
-2.26484448210974

> <r_i_glide_evdw>
-47.7781639099121

> <r_i_glide_ecoul>
-1.78802037239075

> <r_i_glide_erotb>
0.596676129294854

> <r_i_glide_esite>
0

> <r_i_glide_emodel>
-63.0352441231174

> <r_i_glide_energy>
-49.5661842823029

> <r_i_glide_einternal>
17.6507835388184

> <i_i_glide_confnum>
32

> <i_i_glide_posenum>
287

> <r_i_glide_eff_state_penalty>
0

> <s_user_duplicate_titles>
CHEMBL3880_lig881 

> <i_f3d_flags>
0

> <s_m_subgroup_title>
dock_pv

> <s_m_subgroupid>
dock_pv

> <b_m_subgroup_collapsed>
1

$$$$
CHEMBL3880_lig452
                    3D
 Schrodinger Suite 2021-1.
 58 61  0  0  1  0            999 V2000
    3.0776    7.9295   29.1561 C   0  0  0  0  0  0
    1.7645    8.3611   28.8105 O   0  0  0  0  0  0
    1.4855    8.7682   27.5196 C   0  0  0  0  0  0
    0.2637    9.4035   27.2928 C   0  0  0  0  0  0
   -0.0429    9.8407   26.0069 C   0  0  0  0  0  0
    0.8573    9.5911   24.9740 C   0  0  0  0  0  0
    2.0537    8.9218   25.2526 C   0  0  0  0  0  0
    2.3834    8.5311   26.5157 N   0  0  0  0  0  0
    2.9104    8.4057   24.1511 C   0  0  0  0  0  0
    2.5637    7.1431   23.6496 C   0  0  0  0  0  0
    3.2653    6.5611   22.6021 C   0  0  0  0  0  0
    2.9203    5.3360   22.1492 F   0  0  0  0  0  0
    4.3239    7.2436   22.0229 C   0  0  0  0  0  0
    4.6837    8.5010   22.4981 C   0  0  0  0  0  0
    3.9933    9.1130   23.5630 C   0  0  0  0  0  0
    4.4613   10.4935   24.0883 C   0  0  1  0  0  0
    5.7886   11.0439   23.4430 C   0  0  0  0  0  0
    6.0985   12.4391   23.9670 C   0  0  0  0  0  0
    7.3944   12.7692   24.2122 N   0  0  0  0  0  0
    7.6207   13.9437   24.8386 C   0  0  0  0  0  0
    8.9319   14.2315   25.1858 N   0  0  0  0  0  0
    6.6766   14.8188   25.2411 N   0  0  0  0  0  0
    5.3822   14.4630   25.0289 C   0  0  0  0  0  0
    4.3893   15.4227   25.6608 C   0  0  0  0  0  0
    5.0244   13.2632   24.3669 C   0  0  0  0  0  0
    3.6578   12.7199   24.1482 C   0  0  0  0  0  0
    3.3729   11.4744   24.0371 N   0  0  0  0  0  0
    2.6276   13.6848   23.9672 N   0  0  0  0  0  0
    1.2801   13.3332   24.3152 O   0  0  0  0  0  0
    0.5783   12.9182   23.1505 C   0  0  0  0  0  0
   -0.9267   12.9313   23.4609 C   0  0  0  0  0  0
   -1.7996   12.2346   22.4136 C   0  0  0  0  0  0
   -1.5419   12.7690   21.1357 O   0  0  0  0  0  0
    3.0616    7.5164   30.1651 H   0  0  0  0  0  0
    3.4599    7.1554   28.4900 H   0  0  0  0  0  0
    3.7658    8.7748   29.1671 H   0  0  0  0  0  0
   -0.4232    9.5676   28.1101 H   0  0  0  0  0  0
   -0.9809   10.3366   25.8062 H   0  0  0  0  0  0
    0.6044    9.8703   23.9671 H   0  0  0  0  0  0
    1.7346    6.5982   24.0781 H   0  0  0  0  0  0
    4.8625    6.7929   21.2027 H   0  0  0  0  0  0
    5.5217    8.9736   22.0124 H   0  0  0  0  0  0
    4.6554   10.3078   25.1459 H   0  0  0  0  0  0
    5.6697   11.1354   22.3669 H   0  0  0  0  0  0
    6.6252   10.3657   23.6206 H   0  0  0  0  0  0
    9.0755   15.0188   25.7997 H   0  0  0  0  0  0
    9.5802   13.4599   25.1673 H   0  0  0  0  0  0
    3.6612   14.8821   26.2653 H   0  0  0  0  0  0
    4.8716   16.1540   26.3133 H   0  0  0  0  0  0
    3.8772   15.9688   24.8772 H   0  0  0  0  0  0
    2.7609   14.6714   24.1216 H   0  0  0  0  0  0
    0.8980   11.9129   22.8727 H   0  0  0  0  0  0
    0.7846   13.5687   22.2980 H   0  0  0  0  0  0
   -1.2577   13.9670   23.5676 H   0  0  0  0  0  0
   -1.1126   12.4366   24.4140 H   0  0  0  0  0  0
   -2.8549   12.3505   22.6547 H   0  0  0  0  0  0
   -1.5738   11.1690   22.3684 H   0  0  0  0  0  0
   -2.1386   12.3277   20.5155 H   0  0  0  0  0  0
  1  2  1  0  0  0
  1 34  1  0  0  0
  1 35  1  0  0  0
  1 36  1  0  0  0
  2  3  1  0  0  0
  3  4  2  0  0  0
  3  8  1  0  0  0
  4  5  1  0  0  0
  4 37  1  0  0  0
  5  6  2  0  0  0
  5 38  1  0  0  0
  6  7  1  0  0  0
  6 39  1  0  0  0
  7  8  2  0  0  0
  7  9  1  0  0  0
  9 10  2  0  0  0
  9 15  1  0  0  0
 10 11  1  0  0  0
 10 40  1  0  0  0
 11 12  1  0  0  0
 11 13  2  0  0  0
 13 14  1  0  0  0
 13 41  1  0  0  0
 14 15  2  0  0  0
 14 42  1  0  0  0
 15 16  1  0  0  0
 16 17  1  0  0  0
 16 27  1  0  0  0
 16 43  1  0  0  0
 17 18  1  0  0  0
 17 44  1  0  0  0
 17 45  1  0  0  0
 18 19  2  0  0  0
 18 25  1  0  0  0
 19 20  1  0  0  0
 20 21  1  0  0  0
 20 22  2  0  0  0
 21 46  1  0  0  0
 21 47  1  0  0  0
 22 23  1  0  0  0
 23 24  1  0  0  0
 23 25  2  0  0  0
 24 48  1  0  0  0
 24 49  1  0  0  0
 24 50  1  0  0  0
 25 26  1  0  0  0
 26 27  2  0  0  0
 26 28  1  0  0  0
 28 29  1  0  0  0
 28 51  1  0  0  0
 29 30  1  0  0  0
 30 31  1  0  0  0
 30 52  1  0  0  0
 30 53  1  0  0  0
 31 32  1  0  0  0
 31 54  1  0  0  0
 31 55  1  0  0  0
 32 33  1  0  0  0
 32 56  1  0  0  0
 32 57  1  0  0  0
 33 58  1  0  0  0
M  END
> <s_m_entry_id>
4968

> <s_m_entry_name>
dock_pv.287

> <s_m_Source_Path>
/home/csk/Desktop/cluster/DUD-E-result/hs90a

> <s_m_Source_File>
dock_pv.maegz

> <i_m_Source_File_Index>
287

> <chembl_id>
CHEMBL3675267

> <chembl_pref_name>
None

> <i_lp_mmshare_version>
53161

> <r_lp_tautomer_probability>
1

> <s_lp_Force_Field>
OPLS_2005

> <r_lp_Energy>
17.919165

> <b_lp_Chiralities_Consistent>
1

> <s_lp_Variant>
CHEMBL3880_lig452-1

> <s_i_glide_gridfile>
glide-grid_1uyg

> <i_i_glide_lignum>
498

> <i_i_glide_rotatable_bonds>
9

> <r_i_docking_score>
-7.82691283294735

> <r_i_glide_ligand_efficiency>
-0.23717917675598

> <r_i_glide_ligand_efficiency_sa>
-0.760760350918287

> <r_i_glide_ligand_efficiency_ln>
-1.74066488846172

> <r_i_glide_gscore>
-7.82691283294735

> <r_i_glide_lipo>
-3.64721179530767

> <r_i_glide_hbond>
-0.32

> <r_i_glide_metal>
0

> <r_i_glide_rewards>
-1.56018741117997

> <r_i_glide_evdw>
-50.0134544372559

> <r_i_glide_ecoul>
-3.02320837974548

> <r_i_glide_erotb>
0.686034136068393

> <r_i_glide_esite>
-0.031393783703485

> <r_i_glide_emodel>
-72.4955099371007

> <r_i_glide_energy>
-53.0366628170013

> <r_i_glide_einternal>
6.01126575469971

> <i_i_glide_confnum>
31

> <i_i_glide_posenum>
302

> <r_i_glide_eff_state_penalty>
0

> <s_user_duplicate_titles>
CHEMBL3880_lig452

> <i_f3d_flags>
0

> <s_m_subgroup_title>
dock_pv

> <s_m_subgroupid>
dock_pv

> <b_m_subgroup_collapsed>
1

$$$$
CHEMBL3880_lig102
                    3D
 Schrodinger Suite 2021-1.
 31 33  0  0  1  0            999 V2000
    4.0650   15.1693   25.4730 S   0  0  0  0  0  0
   10.4481   13.9695   25.5702 O   0  0  0  0  0  0
    1.9326   11.9865   22.8705 O   0  0  0  0  0  0
    9.5179   15.6721   26.7614 O   0  0  0  0  0  0
    4.3747   13.0740   23.9669 N   0  0  0  0  0  0
    2.1100   13.8464   24.2017 N   0  0  0  0  0  0
    5.6943   14.5748   25.1962 C   0  0  0  0  0  0
    5.6228   13.4483   24.3418 C   0  0  0  0  0  0
    3.4749   13.8882   24.4400 C   0  0  0  0  0  0
    8.0823   14.3005   25.3920 C   0  0  0  0  0  0
    6.9210   15.0260   25.7031 C   0  0  0  0  0  0
    6.7890   12.7702   23.9681 C   0  0  0  0  0  0
    1.4257   12.9334   23.4781 C   0  0  0  0  0  0
   -0.0975   13.1594   23.4522 C   0  0  0  0  0  0
    7.9888   13.1751   24.5557 C   0  0  0  0  0  0
    9.3973   14.7243   25.9840 C   0  0  0  0  0  0
   -0.8317   12.7101   22.2026 C   0  0  0  0  0  0
   -0.9692   11.9175   23.4861 C   0  0  0  0  0  0
   11.7516   14.1973   26.0913 C   0  0  0  0  0  0
    1.5727   14.5794   24.6350 H   0  0  0  0  0  0
    6.9533   15.8884   26.3567 H   0  0  0  0  0  0
    6.7473   11.8992   23.3325 H   0  0  0  0  0  0
   -0.4413   14.0567   23.9630 H   0  0  0  0  0  0
    8.8609   12.5661   24.3674 H   0  0  0  0  0  0
   -0.2660   12.2940   21.3692 H   0  0  0  0  0  0
   -1.6917   13.2880   21.8587 H   0  0  0  0  0  0
   -1.9182   11.9625   24.0249 H   0  0  0  0  0  0
   -0.5027   10.9341   23.5670 H   0  0  0  0  0  0
   12.4756   13.5698   25.5703 H   0  0  0  0  0  0
   12.0550   15.2383   25.9672 H   0  0  0  0  0  0
   11.7911   13.9550   27.1553 H   0  0  0  0  0  0
  1  7  1  0  0  0
  1  9  1  0  0  0
  2 16  1  0  0  0
  2 19  1  0  0  0
  3 13  2  0  0  0
  4 16  2  0  0  0
  5  8  1  0  0  0
  5  9  2  0  0  0
  6  9  1  0  0  0
  6 13  1  0  0  0
  6 20  1  0  0  0
  7  8  1  0  0  0
  7 11  2  0  0  0
  8 12  2  0  0  0
 10 11  1  0  0  0
 10 15  2  0  0  0
 10 16  1  0  0  0
 11 21  1  0  0  0
 12 15  1  0  0  0
 12 22  1  0  0  0
 13 14  1  0  0  0
 14 17  1  0  0  0
 14 18  1  0  0  0
 14 23  1  0  0  0
 15 24  1  0  0  0
 17 18  1  0  0  0
 17 25  1  0  0  0
 17 26  1  0  0  0
 18 27  1  0  0  0
 18 28  1  0  0  0
 19 29  1  0  0  0
 19 30  1  0  0  0
 19 31  1  0  0  0
M  END
> <s_m_entry_id>
4969

> <s_m_entry_name>
dock_pv.288

> <s_m_Source_Path>
/home/csk/Desktop/cluster/DUD-E-result/hs90a

> <s_m_Source_File>
dock_pv.maegz

> <i_m_Source_File_Index>
288

> <chembl_id>
CHEMBL1536318

> <chembl_pref_name>
None

> <i_lp_mmshare_version>
53161

> <r_lp_tautomer_probability>
1

> <s_lp_Force_Field>
OPLS_2005

> <r_lp_Energy>
14.158111

> <b_lp_Chiralities_Consistent>
1

> <s_lp_Variant>
CHEMBL3880_lig102-1

> <s_i_glide_gridfile>
glide-grid_1uyg

> <i_i_glide_lignum>
116

> <i_i_glide_rotatable_bonds>
5

> <r_i_docking_score>
-7.82501590576725

> <r_i_glide_ligand_efficiency>
-0.411842942408803

> <r_i_glide_ligand_efficiency_sa>
-1.09896238545954

> <r_i_glide_ligand_efficiency_ln>
-1.98380959804349

> <r_i_glide_gscore>
-7.82501590576725

> <r_i_glide_lipo>
-3.19779015511221

> <r_i_glide_hbond>
-0.422688831080033

> <r_i_glide_metal>
0

> <r_i_glide_rewards>
-3.00893448481876

> <r_i_glide_evdw>
-35.2052154541016

> <r_i_glide_ecoul>
-2.5189003944397

> <r_i_glide_erotb>
0.942493397114784

> <r_i_glide_esite>
0

> <r_i_glide_emodel>
-54.6381057750694

> <r_i_glide_energy>
-37.7241158485413

> <r_i_glide_einternal>
0.639905035495758

> <i_i_glide_confnum>
6

> <i_i_glide_posenum>
141

> <r_i_glide_eff_state_penalty>
0

> <s_user_duplicate_titles>
CHEMBL3880_lig102

> <i_f3d_flags>
0

> <s_m_subgroup_title>
dock_pv

> <s_m_subgroupid>
dock_pv

> <b_m_subgroup_collapsed>
1

$$$$
CHEMBL3880_lig922
                    3D
 Schrodinger Suite 2021-1.
 53 56  0  0  1  0            999 V2000
    4.2329    9.2977   22.9747 N   0  0  0  0  0  0
    3.2343    8.3989   23.1671 C   0  0  0  0  0  0
    2.0963    8.6100   23.8791 N   0  0  0  0  0  0
    1.9519    9.8350   24.4598 C   0  0  0  0  0  0
    3.4060    7.1403   22.6091 N   0  0  0  0  0  0
    0.7523    9.9931   25.3272 C   0  0  0  0  0  0
    0.7564    9.4646   26.6321 C   0  0  0  0  0  0
   -0.3644    9.5881   27.4504 C   0  0  0  0  0  0
   -1.4894   10.2612   26.9897 C   0  0  0  0  0  0
   -1.5086   10.7887   25.7069 C   0  0  0  0  0  0
   -0.3950   10.6686   24.8646 C   0  0  0  0  0  0
   -0.3896   11.1690   23.5778 O   0  0  0  0  0  0
    2.1453    8.6574   27.2793 Cl  0  0  0  0  0  0
   -1.4255   12.0527   23.1450 C   0  0  0  0  0  0
   -1.0831   12.5970   21.7418 C   0  0  0  0  0  0
    0.3182   12.6862   21.4708 O   0  0  0  0  0  0
   -2.8991   10.3744   27.9670 Cl  0  0  0  0  0  0
    4.0536   10.5044   23.5671 C   0  0  0  0  0  0
    2.9335   10.8270   24.3154 C   0  0  0  0  0  0
    3.0963   12.2051   24.9027 C   0  0  0  0  0  0
    4.3339   12.7021   24.3029 N   0  0  0  0  0  0
    5.0385   11.6416   23.5621 C   0  0  0  0  0  0
    4.8523   13.9094   24.6523 C   0  0  0  0  0  0
    6.1771   14.0172   24.4400 N   0  0  0  0  0  0
    4.1875   14.7944   25.1943 O   0  0  0  0  0  0
    7.0740   15.0229   24.9998 C   0  0  0  0  0  0
    7.8745   14.5710   26.2333 C   0  0  0  0  0  0
    9.0747   15.3315   25.6475 C   0  0  0  0  0  0
    8.4172   15.1447   24.2732 C   0  0  0  0  0  0
    1.0982   13.4625   22.3725 C   0  0  0  0  0  0
    2.6000    6.5330   22.5732 H   0  0  0  0  0  0
    4.1738    7.0157   21.9672 H   0  0  0  0  0  0
   -0.3576    9.1689   28.4466 H   0  0  0  0  0  0
   -2.4169   11.2620   25.3689 H   0  0  0  0  0  0
   -2.3783   11.5213   23.1008 H   0  0  0  0  0  0
   -1.5464   12.8825   23.8435 H   0  0  0  0  0  0
   -1.5390   11.9690   20.9809 H   0  0  0  0  0  0
   -1.5483   13.5690   21.6036 H   0  0  0  0  0  0
    3.2608   12.1491   25.9670 H   0  0  0  0  0  0
    2.2544   12.8745   24.7403 H   0  0  0  0  0  0
    5.2903   11.9693   22.5575 H   0  0  0  0  0  0
    5.9767   11.3663   24.0451 H   0  0  0  0  0  0
    6.6384   13.2008   24.0719 H   0  0  0  0  0  0
    6.5485   15.9689   25.1641 H   0  0  0  0  0  0
    8.0505   13.4948   26.2888 H   0  0  0  0  0  0
    7.5007   14.9249   27.1954 H   0  0  0  0  0  0
   10.0446   14.8502   25.7787 H   0  0  0  0  0  0
    9.1484   16.3690   25.9669 H   0  0  0  0  0  0
    8.4981   15.9690   23.5672 H   0  0  0  0  0  0
    8.7255   14.2257   23.7791 H   0  0  0  0  0  0
    2.0754   12.9915   22.4491 H   0  0  0  0  0  0
    1.2610   14.4724   22.0042 H   0  0  0  0  0  0
    0.6887   13.5403   23.3788 H   0  0  0  0  0  0
  1 18  1  0  0  0
  1  2  2  0  0  0
  2  5  1  0  0  0
  2  3  1  0  0  0
  3  4  2  0  0  0
  4 19  1  0  0  0
  4  6  1  0  0  0
  5 31  1  0  0  0
  5 32  1  0  0  0
  6  7  2  0  0  0
  6 11  1  0  0  0
  7  8  1  0  0  0
  7 13  1  0  0  0
  8  9  2  0  0  0
  8 33  1  0  0  0
  9 17  1  0  0  0
  9 10  1  0  0  0
 10 11  2  0  0  0
 10 34  1  0  0  0
 11 12  1  0  0  0
 12 14  1  0  0  0
 14 15  1  0  0  0
 14 35  1  0  0  0
 14 36  1  0  0  0
 15 16  1  0  0  0
 15 37  1  0  0  0
 15 38  1  0  0  0
 16 30  1  0  0  0
 18 19  2  0  0  0
 18 22  1  0  0  0
 19 20  1  0  0  0
 20 21  1  0  0  0
 20 39  1  0  0  0
 20 40  1  0  0  0
 21 22  1  0  0  0
 21 23  1  0  0  0
 22 41  1  0  0  0
 22 42  1  0  0  0
 23 24  1  0  0  0
 23 25  2  0  0  0
 24 26  1  0  0  0
 24 43  1  0  0  0
 26 27  1  0  0  0
 26 29  1  0  0  0
 26 44  1  0  0  0
 27 28  1  0  0  0
 27 45  1  0  0  0
 27 46  1  0  0  0
 28 29  1  0  0  0
 28 47  1  0  0  0
 28 48  1  0  0  0
 29 49  1  0  0  0
 29 50  1  0  0  0
 30 51  1  0  0  0
 30 52  1  0  0  0
 30 53  1  0  0  0
M  END
> <s_m_entry_id>
4970

> <s_m_entry_name>
dock_pv.289

> <s_m_Source_Path>
/home/csk/Desktop/cluster/DUD-E-result/hs90a

> <s_m_Source_File>
dock_pv.maegz

> <i_m_Source_File_Index>
289

> <chembl_id>
CHEMBL1774915

> <chembl_pref_name>
None

> <i_lp_mmshare_version>
53161

> <r_lp_tautomer_probability>
0.999999987636

> <s_lp_Force_Field>
OPLS_2005

> <r_lp_Energy>
45.727444

> <b_lp_Chiralities_Consistent>
1

> <s_lp_Variant>
CHEMBL3880_lig922-1

> <s_i_glide_gridfile>
glide-grid_1uyg

> <i_i_glide_lignum>
1028

> <i_i_glide_rotatable_bonds>
8

> <r_i_docking_score>
-7.81083390376573

> <r_i_glide_ligand_efficiency>
-0.260361130125524

> <r_i_glide_ligand_efficiency_sa>
-0.80900256589572

> <r_i_glide_ligand_efficiency_ln>
-1.7747065687874

> <r_i_glide_gscore>
-7.81083390376573

> <r_i_glide_lipo>
-3.95911285211671

> <r_i_glide_hbond>
-0.0872624591111148

> <r_i_glide_metal>
0

> <r_i_glide_rewards>
-1.46272839042855

> <r_i_glide_evdw>
-47.140022277832

> <r_i_glide_ecoul>
-4.06006193161011

> <r_i_glide_erotb>
0.686441611917043

> <r_i_glide_esite>
-0.022161410393289

> <r_i_glide_emodel>
-69.9711867067146

> <r_i_glide_energy>
-51.2000842094421

> <r_i_glide_einternal>
8.13336849212646

> <i_i_glide_confnum>
15

> <i_i_glide_posenum>
337

> <r_i_glide_eff_state_penalty>
0

> <s_user_duplicate_titles>
CHEMBL3880_lig922

> <i_f3d_flags>
0

> <s_m_subgroup_title>
dock_pv

> <s_m_subgroupid>
dock_pv

> <b_m_subgroup_collapsed>
1

$$$$
CHEMBL3880_lig988
                    3D
 Schrodinger Suite 2021-1.
 50 53  0  0  1  0            999 V2000
    7.6611   14.3707   26.5068 C   0  0  0  0  0  0
    7.3853   14.5669   25.0102 C   0  0  0  0  0  0
    8.6522   15.1404   24.3664 C   0  0  0  0  0  0
    7.4043    9.2134   22.8034 C   0  0  0  0  0  0
    6.7362   10.4348   22.8095 C   0  0  0  0  0  0
    5.5415    8.1863   23.9320 C   0  0  0  0  0  0
    6.8370    8.0823   23.4146 C   0  0  0  0  0  0
    5.4992   10.5601   23.4517 C   0  0  0  0  0  0
    4.8730    9.4074   23.9671 C   0  0  0  0  0  0
    3.6985    9.4669   24.6820 O   0  0  0  0  0  0
    2.4934    9.7851   23.9930 C   0  0  2  0  0  0
    2.6017   11.0037   23.0562 C   0  0  0  0  0  0
    3.5443   12.0820   23.5669 C   0  0  0  0  0  0
    4.9015   11.8282   23.6629 N   0  0  0  0  0  0
    3.2904   13.3848   23.9670 C   0  0  0  0  0  0
    4.5273   13.9120   24.3951 C   0  0  0  0  0  0
    5.5229   13.0093   24.0444 C   0  0  0  0  0  0
    7.0321   13.2265   24.2568 C   0  0  0  0  0  0
    6.2734   15.6372   24.9132 C   0  0  0  0  0  0
    4.8393   15.1461   25.1085 C   0  0  0  0  0  0
    7.5932    6.7825   23.5671 C   0  0  0  0  0  0
    7.0815    5.7803   24.0597 O   0  0  0  0  0  0
    8.8611    6.7690   23.1673 N   0  0  0  0  0  0
    4.0610   15.7381   25.8462 O   0  0  0  0  0  0
    1.9173   14.0155   23.9963 C   0  0  0  0  0  0
    1.4254    9.9875   25.0774 C   0  0  0  0  0  0
    6.7397   14.3703   27.0824 H   0  0  0  0  0  0
    8.2147   13.4575   26.7025 H   0  0  0  0  0  0
    8.2496   15.1867   26.9288 H   0  0  0  0  0  0
    8.4615   15.4849   23.3495 H   0  0  0  0  0  0
    9.0510   15.9694   24.9404 H   0  0  0  0  0  0
    9.4430   14.3931   24.3486 H   0  0  0  0  0  0
    8.3830    9.1794   22.3485 H   0  0  0  0  0  0
    7.2211   11.2875   22.3599 H   0  0  0  0  0  0
    5.0684    7.3350   24.4021 H   0  0  0  0  0  0
    2.2028    8.9157   23.3995 H   0  0  0  0  0  0
    1.6103   11.4006   22.8375 H   0  0  0  0  0  0
    2.9652   10.6505   22.0912 H   0  0  0  0  0  0
    7.4379   13.2930   23.2468 H   0  0  0  0  0  0
    7.5272   12.3678   24.7093 H   0  0  0  0  0  0
    6.2997   16.1652   23.9671 H   0  0  0  0  0  0
    6.4330   16.3981   25.6726 H   0  0  0  0  0  0
    9.3914    5.9168   23.2533 H   0  0  0  0  0  0
    9.2618    7.5734   22.7159 H   0  0  0  0  0  0
    1.6592   14.4785   23.0451 H   0  0  0  0  0  0
    1.1408   13.2854   24.2240 H   0  0  0  0  0  0
    1.8322   14.7692   24.7668 H   0  0  0  0  0  0
    0.4494   10.2019   24.6414 H   0  0  0  0  0  0
    1.3204    9.0939   25.6932 H   0  0  0  0  0  0
    1.6872   10.8150   25.7374 H   0  0  0  0  0  0
  1  2  1  0  0  0
  1 27  1  0  0  0
  1 28  1  0  0  0
  1 29  1  0  0  0
  2  3  1  0  0  0
  2 18  1  0  0  0
  2 19  1  0  0  0
  3 30  1  0  0  0
  3 31  1  0  0  0
  3 32  1  0  0  0
  4  5  2  0  0  0
  4  7  1  0  0  0
  4 33  1  0  0  0
  5  8  1  0  0  0
  5 34  1  0  0  0
  6  9  1  0  0  0
  6  7  2  0  0  0
  6 35  1  0  0  0
  7 21  1  0  0  0
  8  9  2  0  0  0
  8 14  1  0  0  0
  9 10  1  0  0  0
 10 11  1  0  0  0
 11 12  1  0  0  0
 11 26  1  0  0  0
 11 36  1  0  0  0
 12 13  1  0  0  0
 12 37  1  0  0  0
 12 38  1  0  0  0
 13 14  1  0  0  0
 13 15  2  0  0  0
 14 17  1  0  0  0
 15 16  1  0  0  0
 15 25  1  0  0  0
 16 17  2  0  0  0
 16 20  1  0  0  0
 17 18  1  0  0  0
 18 39  1  0  0  0
 18 40  1  0  0  0
 19 20  1  0  0  0
 19 41  1  0  0  0
 19 42  1  0  0  0
 20 24  2  0  0  0
 21 22  2  0  0  0
 21 23  1  0  0  0
 23 43  1  0  0  0
 23 44  1  0  0  0
 25 45  1  0  0  0
 25 46  1  0  0  0
 25 47  1  0  0  0
 26 48  1  0  0  0
 26 49  1  0  0  0
 26 50  1  0  0  0
M  END
> <s_m_entry_id>
4971

> <s_m_entry_name>
dock_pv.290

> <s_m_Source_Path>
/home/csk/Desktop/cluster/DUD-E-result/hs90a

> <s_m_Source_File>
dock_pv.maegz

> <i_m_Source_File_Index>
290

> <chembl_id>
CHEMBL3403718

> <chembl_pref_name>
None

> <i_lp_mmshare_version>
53161

> <r_lp_tautomer_probability>
0.99995

> <s_lp_Force_Field>
OPLS_2005

> <r_lp_Energy>
29.434801

> <b_lp_Chiralities_Consistent>
1

> <s_lp_Variant>
CHEMBL3880_lig988-1

> <s_i_glide_gridfile>
glide-grid_1uyg

> <i_i_glide_lignum>
1097

> <i_i_glide_rotatable_bonds>
1

> <r_i_docking_score>
-7.81060150133326

> <r_i_glide_ligand_efficiency>
-0.300407750051279

> <r_i_glide_ligand_efficiency_sa>
-0.889956777479498

> <r_i_glide_ligand_efficiency_ln>
-1.83429413391422

> <r_i_glide_gscore>
-7.81060150133326

> <r_i_glide_lipo>
-3.9750248055675

> <r_i_glide_hbond>
0

> <r_i_glide_metal>
0

> <r_i_glide_rewards>
-2.25276957892166

> <r_i_glide_evdw>
-35.6650428771973

> <r_i_glide_ecoul>
1.39930319786072

> <r_i_glide_erotb>
0

> <r_i_glide_esite>
-0.00945045266334371

> <r_i_glide_emodel>
-37.103914927986

> <r_i_glide_energy>
-34.2657396793365

> <r_i_glide_einternal>
1.06891942024231

> <i_i_glide_confnum>
1

> <i_i_glide_posenum>
134

> <r_i_glide_eff_state_penalty>
0

> <s_user_duplicate_titles>
CHEMBL3880_lig988

> <i_f3d_flags>
0

> <s_m_subgroup_title>
dock_pv

> <s_m_subgroupid>
dock_pv

> <b_m_subgroup_collapsed>
1

$$$$
CHEMBL3880_lig278
                    3D
 Schrodinger Suite 2021-1.
 68 71  0  0  1  0            999 V2000
   -1.4917   11.0717   24.5909 C   0  0  0  0  0  0
   -1.3762   11.8118   23.4169 C   0  0  0  0  0  0
   -0.1159   12.1586   22.9288 C   0  0  0  0  0  0
    1.0427   11.8376   23.6569 C   0  0  0  0  0  0
    0.9137   11.0733   24.8167 C   0  0  0  0  0  0
   -0.3355   10.6464   25.2609 C   0  0  0  0  0  0
   -0.0463   12.7691   21.7064 O   0  0  0  0  0  0
    2.4328   12.3273   23.2363 C   0  0  0  0  0  0
    3.5792   11.3646   23.6188 C   0  0  0  0  0  0
    2.6928   13.7264   23.8258 C   0  0  0  0  0  0
   -2.7387   10.7693   25.0616 O   0  0  0  0  0  0
   -0.3802    9.8036   26.3881 N   0  0  0  0  0  0
    0.3931    8.6902   26.6870 C   0  0  0  0  0  0
    0.0545    8.3944   28.0145 C   0  0  0  0  0  0
   -0.9552    9.1692   28.3672 N   0  0  0  0  0  0
   -1.1787   10.1153   27.4054 N   0  0  0  0  0  0
    0.6597    7.4039   28.8784 C   0  0  0  0  0  0
    0.8609    7.8448   30.1330 N   0  0  0  0  0  0
    1.0040    6.2920   28.4745 O   0  0  0  0  0  0
    1.4965    7.1069   31.2176 C   0  0  0  0  0  0
    0.4624    6.4272   32.1273 C   0  0  0  0  0  0
    1.3940    8.0761   25.7688 C   0  0  0  0  0  0
    1.0576    7.7670   24.4473 C   0  0  0  0  0  0
    2.0132    7.2116   23.6003 C   0  0  0  0  0  0
    3.3021    6.9591   24.0782 C   0  0  0  0  0  0
    3.6263    7.2422   25.4055 C   0  0  0  0  0  0
    2.6771    7.8087   26.2454 C   0  0  0  0  0  0
    4.3651    6.3818   23.1510 C   0  0  0  0  0  0
    5.2604    7.3900   22.5722 N   0  0  1  0  0  0
    4.5931    8.3033   21.6390 C   0  0  0  0  0  0
    5.5994    9.1997   20.8953 C   0  0  0  0  0  0
    6.6705    9.8618   21.7868 C   0  0  0  0  0  0
    7.2488    8.8825   22.8251 C   0  0  2  0  0  0
    6.1412    8.0683   23.5307 C   0  0  0  0  0  0
    8.0170    9.5895   23.7777 O   0  0  0  0  0  0
   -2.2685   12.0879   22.8711 H   0  0  0  0  0  0
    1.7898   10.8050   25.3899 H   0  0  0  0  0  0
   -0.9227   12.9079   21.3372 H   0  0  0  0  0  0
    2.4389   12.3897   22.1472 H   0  0  0  0  0  0
    3.2810   10.3211   23.5392 H   0  0  0  0  0  0
    3.9200   11.5219   24.6442 H   0  0  0  0  0  0
    4.4348   11.5152   22.9642 H   0  0  0  0  0  0
    1.9600   14.4552   23.4753 H   0  0  0  0  0  0
    2.6363   13.7095   24.9131 H   0  0  0  0  0  0
    3.6848   14.0988   23.5674 H   0  0  0  0  0  0
   -3.4579   11.2963   24.6732 H   0  0  0  0  0  0
    0.4169    8.7194   30.3944 H   0  0  0  0  0  0
    2.2159    6.3787   30.8371 H   0  0  0  0  0  0
    2.0767    7.8190   31.8067 H   0  0  0  0  0  0
    0.9529    5.8605   32.9190 H   0  0  0  0  0  0
   -0.1722    7.1710   32.6103 H   0  0  0  0  0  0
   -0.1857    5.7461   31.5726 H   0  0  0  0  0  0
    0.0574    7.9557   24.0775 H   0  0  0  0  0  0
    1.7495    6.9850   22.5767 H   0  0  0  0  0  0
    4.6168    7.0374   25.7853 H   0  0  0  0  0  0
    2.9448    8.0434   27.2644 H   0  0  0  0  0  0
    4.9571    5.6464   23.7007 H   0  0  0  0  0  0
    3.8814    5.8226   22.3481 H   0  0  0  0  0  0
    4.0687    7.6974   20.8985 H   0  0  0  0  0  0
    3.8180    8.8874   22.1289 H   0  0  0  0  0  0
    6.0588    8.6249   20.0997 H   0  0  0  0  0  0
    5.0329    9.9691   20.3812 H   0  0  0  0  0  0
    7.4742   10.2558   21.1631 H   0  0  0  0  0  0
    6.2604   10.7272   22.2997 H   0  0  0  0  0  0
    7.9312    8.2038   22.3107 H   0  0  0  0  0  0
    5.5433    8.7032   24.1884 H   0  0  0  0  0  0
    6.6188    7.3154   24.1610 H   0  0  0  0  0  0
    8.5508    8.9645   24.2768 H   0  0  0  0  0  0
  1  2  2  0  0  0
  1  6  1  0  0  0
  1 11  1  0  0  0
  2  3  1  0  0  0
  2 36  1  0  0  0
  3  4  2  0  0  0
  3  7  1  0  0  0
  4  5  1  0  0  0
  4  8  1  0  0  0
  5  6  2  0  0  0
  5 37  1  0  0  0
  6 12  1  0  0  0
  7 38  1  0  0  0
  8  9  1  0  0  0
  8 10  1  0  0  0
  8 39  1  0  0  0
  9 40  1  0  0  0
  9 41  1  0  0  0
  9 42  1  0  0  0
 10 43  1  0  0  0
 10 44  1  0  0  0
 10 45  1  0  0  0
 11 46  1  0  0  0
 12 13  1  0  0  0
 12 16  1  0  0  0
 13 14  2  0  0  0
 13 22  1  0  0  0
 14 15  1  0  0  0
 14 17  1  0  0  0
 15 16  2  0  0  0
 17 18  1  0  0  0
 17 19  2  0  0  0
 18 20  1  0  0  0
 18 47  1  0  0  0
 20 21  1  0  0  0
 20 48  1  0  0  0
 20 49  1  0  0  0
 21 50  1  0  0  0
 21 51  1  0  0  0
 21 52  1  0  0  0
 22 23  2  0  0  0
 22 27  1  0  0  0
 23 24  1  0  0  0
 23 53  1  0  0  0
 24 25  2  0  0  0
 24 54  1  0  0  0
 25 26  1  0  0  0
 25 28  1  0  0  0
 26 27  2  0  0  0
 26 55  1  0  0  0
 27 56  1  0  0  0
 28 29  1  0  0  0
 28 57  1  0  0  0
 28 58  1  0  0  0
 29 30  1  0  0  0
 29 34  1  0  0  0
 30 31  1  0  0  0
 30 59  1  0  0  0
 30 60  1  0  0  0
 31 32  1  0  0  0
 31 61  1  0  0  0
 31 62  1  0  0  0
 32 33  1  0  0  0
 32 63  1  0  0  0
 32 64  1  0  0  0
 33 34  1  0  0  0
 33 35  1  0  0  0
 33 65  1  0  0  0
 34 66  1  0  0  0
 34 67  1  0  0  0
 35 68  1  0  0  0
M  END
> <s_m_entry_id>
4972

> <s_m_entry_name>
dock_pv.291

> <s_m_Source_Path>
/home/csk/Desktop/cluster/DUD-E-result/hs90a

> <s_m_Source_File>
dock_pv.maegz

> <i_m_Source_File_Index>
291

> <chembl_id>
CHEMBL3234765

> <chembl_pref_name>
None

> <i_lp_mmshare_version>
53161

> <r_lp_tautomer_probability>
1

> <s_lp_Force_Field>
OPLS_2005

> <r_lp_Energy>
37.762532

> <b_lp_Chiralities_Consistent>
1

> <s_lp_Variant>
CHEMBL3880_lig278-1

> <s_i_glide_gridfile>
glide-grid_1uyg

> <i_i_glide_lignum>
313

> <i_i_glide_rotatable_bonds>
11

> <r_i_docking_score>
-7.80106965557217

> <r_i_glide_ligand_efficiency>
-0.222887704444919

> <r_i_glide_ligand_efficiency_sa>
-0.729080460101002

> <r_i_glide_ligand_efficiency_ln>
-1.71250792481081

> <r_i_glide_gscore>
-7.80106965557217

> <r_i_glide_lipo>
-3.23603120649308

> <r_i_glide_hbond>
-0.456

> <r_i_glide_metal>
0

> <r_i_glide_rewards>
-0.753440504848453

> <r_i_glide_evdw>
-55.2546348571777

> <r_i_glide_ecoul>
-7.46200275421143

> <r_i_glide_erotb>
0.52888012342211

> <r_i_glide_esite>
-0.00244591166214589

> <r_i_glide_emodel>
-84.7825579384376

> <r_i_glide_energy>
-62.7166376113892

> <r_i_glide_einternal>
14.8811311721802

> <i_i_glide_confnum>
74

> <i_i_glide_posenum>
184

> <r_i_glide_eff_state_penalty>
0

> <s_user_duplicate_titles>
CHEMBL3880_lig278,CHEMBL3880_lig279

> <i_f3d_flags>
0

> <s_m_subgroup_title>
dock_pv

> <s_m_subgroupid>
dock_pv

> <b_m_subgroup_collapsed>
1

$$$$
CHEMBL3880_lig885 
                    3D
 Schrodinger Suite 2021-1.
 45 48  0  0  1  0            999 V2000
   -0.1288   10.2706   26.7667 O   0  0  0  0  0  0
   -0.7387   10.1617   25.4372 S   0  0  0  0  0  0
   -2.1819   10.3660   25.2630 O   0  0  0  0  0  0
    2.0726    8.3379   24.8109 C   0  0  0  0  0  0
    0.7667    7.7238   25.2337 C   0  0  0  0  0  0
   -0.3395    8.5753   24.7671 N   0  0  1  0  0  0
    0.0071   11.3662   24.3724 C   0  0  0  0  0  0
    1.1558   12.0391   24.7679 C   0  0  0  0  0  0
    1.6215   13.1137   24.0265 C   0  0  0  0  0  0
    0.9434   13.4483   22.8670 C   0  0  0  0  0  0
   -0.1440   12.7696   22.4122 N   0  0  0  0  0  0
   -0.6189   11.7569   23.1847 C   0  0  0  0  0  0
    2.6566    9.3081   25.6267 C   0  0  0  0  0  0
    3.7307   10.0535   25.1525 C   0  0  0  0  0  0
    2.6280    8.0161   23.5643 C   0  0  0  0  0  0
    3.7381    8.7364   23.1406 C   0  0  0  0  0  0
    4.2531    9.7534   23.8955 C   0  0  0  0  0  0
    5.2724   10.3166   23.1553 N   0  0  0  0  0  0
    5.5025    9.5730   22.0303 C   0  0  0  0  0  0
    4.5137    8.6570   22.0093 N   0  0  0  0  0  0
    5.9708   11.4742   23.5634 C   0  0  0  0  0  0
    5.2455   12.6403   23.8305 C   0  0  0  0  0  0
    5.8686   13.7700   24.3683 C   0  0  0  0  0  0
    7.2389   13.7351   24.6415 C   0  0  0  0  0  0
    7.9620   12.5797   24.3669 C   0  0  0  0  0  0
    7.3453   11.4588   23.8141 C   0  0  0  0  0  0
    6.3905    9.7228   21.1904 O   0  0  0  0  0  0
    8.1024   10.3448   23.5647 O   0  0  0  0  0  0
    7.8810   14.8116   25.2023 O   0  0  0  0  0  0
    4.9250   15.1675   24.7596 Cl  0  0  0  0  0  0
    0.6872    7.5338   26.3054 H   0  0  0  0  0  0
    0.6729    6.7575   24.7322 H   0  0  0  0  0  0
   -1.1269    8.0980   24.2990 H   0  0  0  0  0  0
    1.6347   11.8006   25.6979 H   0  0  0  0  0  0
    2.4480   13.7188   24.3828 H   0  0  0  0  0  0
    1.2617   14.3435   22.3638 H   0  0  0  0  0  0
   -1.5278   11.2804   22.8437 H   0  0  0  0  0  0
    2.2382    9.5488   26.5941 H   0  0  0  0  0  0
    4.1212   10.8558   25.7651 H   0  0  0  0  0  0
    2.1855    7.2525   22.9430 H   0  0  0  0  0  0
    4.3983    7.9726   21.2715 H   0  0  0  0  0  0
    4.1905   12.6660   23.6276 H   0  0  0  0  0  0
    9.0031   12.5174   24.6396 H   0  0  0  0  0  0
    7.7625    9.8423   22.8146 H   0  0  0  0  0  0
    7.2699   15.4951   25.4822 H   0  0  0  0  0  0
  1  2  2  0  0  0
  2  3  2  0  0  0
  2  6  1  0  0  0
  2  7  1  0  0  0
  4  5  1  0  0  0
  4 13  2  0  0  0
  4 15  1  0  0  0
  5  6  1  0  0  0
  5 31  1  0  0  0
  5 32  1  0  0  0
  6 33  1  0  0  0
  7  8  2  0  0  0
  7 12  1  0  0  0
  8  9  1  0  0  0
  8 34  1  0  0  0
  9 10  2  0  0  0
  9 35  1  0  0  0
 10 11  1  0  0  0
 10 36  1  0  0  0
 11 12  2  0  0  0
 12 37  1  0  0  0
 13 14  1  0  0  0
 13 38  1  0  0  0
 14 17  2  0  0  0
 14 39  1  0  0  0
 15 16  2  0  0  0
 15 40  1  0  0  0
 16 17  1  0  0  0
 16 20  1  0  0  0
 17 18  1  0  0  0
 18 19  1  0  0  0
 18 21  1  0  0  0
 19 20  1  0  0  0
 19 27  2  0  0  0
 20 41  1  0  0  0
 21 22  2  0  0  0
 21 26  1  0  0  0
 22 23  1  0  0  0
 22 42  1  0  0  0
 23 24  2  0  0  0
 23 30  1  0  0  0
 24 25  1  0  0  0
 24 29  1  0  0  0
 25 26  2  0  0  0
 25 43  1  0  0  0
 26 28  1  0  0  0
 28 44  1  0  0  0
 29 45  1  0  0  0
M  END
> <s_m_entry_id>
4974

> <s_m_entry_name>
dock_pv.293

> <s_m_Source_Path>
/home/csk/Desktop/cluster/DUD-E-result/hs90a

> <s_m_Source_File>
dock_pv.maegz

> <i_m_Source_File_Index>
293

> <chembl_id>
CHEMBL4544701

> <chembl_pref_name>
None

> <i_lp_mmshare_version>
53161

> <r_lp_tautomer_probability>
1

> <s_lp_Force_Field>
OPLS_2005

> <r_lp_Energy>
54.099752

> <b_lp_Chiralities_Consistent>
1

> <s_lp_Variant>
CHEMBL3880_lig885 -1

> <s_i_glide_gridfile>
glide-grid_1uyg

> <i_i_glide_lignum>
991

> <i_i_glide_rotatable_bonds>
7

> <r_i_docking_score>
-7.79704693286629

> <r_i_glide_ligand_efficiency>
-0.259901564428876

> <r_i_glide_ligand_efficiency_sa>
-0.807574588426092

> <r_i_glide_ligand_efficiency_ln>
-1.77157401877797

> <r_i_glide_gscore>
-7.79704693286629

> <r_i_glide_lipo>
-3.42032043934077

> <r_i_glide_hbond>
-0.32

> <r_i_glide_metal>
0

> <r_i_glide_rewards>
-1.42007724855896

> <r_i_glide_evdw>
-39.9993934631348

> <r_i_glide_ecoul>
-6.88382148742676

> <r_i_glide_erotb>
0.4010234628612

> <r_i_glide_esite>
-0.00512981155700617

> <r_i_glide_emodel>
-60.4562715469176

> <r_i_glide_energy>
-46.8832149505615

> <r_i_glide_einternal>
5.88122510910034

> <i_i_glide_confnum>
26

> <i_i_glide_posenum>
232

> <r_i_glide_eff_state_penalty>
0

> <s_user_duplicate_titles>
CHEMBL3880_lig885 

> <i_f3d_flags>
0

> <s_m_subgroup_title>
dock_pv

> <s_m_subgroupid>
dock_pv

> <b_m_subgroup_collapsed>
1

$$$$
CHEMBL3880_lig139
                    3D
 Schrodinger Suite 2021-1.
 41 44  0  0  1  0            999 V2000
    5.4823   13.0068   23.9671 O   0  0  0  0  0  0
    0.7371   12.3968   24.3597 O   0  0  0  0  0  0
    7.6611   13.4214   23.9688 O   0  0  0  0  0  0
    0.3183   10.0689   26.0635 O   0  0  0  0  0  0
    1.8122    8.1167   27.3231 O   0  0  0  0  0  0
    0.4613    8.3084   29.1671 O   0  0  0  0  0  0
    4.5537   10.7877   23.6338 C   0  0  0  0  0  0
    4.3885   12.1466   23.9283 C   0  0  0  0  0  0
    5.9254   10.2874   23.4677 C   0  0  0  0  0  0
    6.9766   11.1292   23.5545 C   0  0  0  0  0  0
    3.1102   12.6766   24.1728 C   0  0  0  0  0  0
    6.7908   12.5628   23.8404 C   0  0  0  0  0  0
    1.9813   11.8371   24.1014 C   0  0  0  0  0  0
    3.4381    9.9592   23.5507 C   0  0  0  0  0  0
    6.3881    8.8754   23.1612 C   0  0  0  0  0  0
    8.2999   10.4355   23.3116 C   0  0  0  0  0  0
    2.1665   10.4821   23.7766 C   0  0  0  0  0  0
    7.9127    8.9606   23.2469 C   0  0  0  0  0  0
   -0.6918   10.8586   25.6148 C   0  0  0  0  0  0
    2.9585   14.1572   24.5164 C   0  0  0  0  0  0
   -0.4633   11.6131   24.3171 C   0  0  0  0  0  0
   -0.0664    9.5167   27.2438 C   0  0  0  0  0  0
   -1.7553   10.7690   26.5003 C   0  0  0  0  0  0
   -1.3405    9.9689   27.5669 C   0  0  0  0  0  0
    0.8312    8.5983   27.8848 C   0  0  0  0  0  0
   -0.2350    8.8686   29.5191 H   0  0  0  0  0  0
    3.5466    8.9079   23.3288 H   0  0  0  0  0  0
    5.9812    8.1353   23.8521 H   0  0  0  0  0  0
    6.0747    8.5999   22.1524 H   0  0  0  0  0  0
    8.7264   10.7691   22.3668 H   0  0  0  0  0  0
    9.0360   10.6299   24.0937 H   0  0  0  0  0  0
    1.3335    9.8005   23.7178 H   0  0  0  0  0  0
    8.3923    8.4511   22.4094 H   0  0  0  0  0  0
    8.2580    8.4533   24.1509 H   0  0  0  0  0  0
    3.6031   14.7684   23.8869 H   0  0  0  0  0  0
    1.9443   14.5264   24.3658 H   0  0  0  0  0  0
    3.2617   14.3316   25.5485 H   0  0  0  0  0  0
   -0.5175   10.9751   23.4390 H   0  0  0  0  0  0
   -1.2782   12.3258   24.1854 H   0  0  0  0  0  0
   -2.7202   11.2458   26.3905 H   0  0  0  0  0  0
   -1.9248    9.7039   28.4362 H   0  0  0  0  0  0
  1  8  1  0  0  0
  1 12  1  0  0  0
  2 13  1  0  0  0
  2 21  1  0  0  0
  3 12  2  0  0  0
  4 19  1  0  0  0
  4 22  1  0  0  0
  5 25  2  0  0  0
  6 25  1  0  0  0
  6 26  1  0  0  0
  7  8  2  0  0  0
  7  9  1  0  0  0
  7 14  1  0  0  0
  8 11  1  0  0  0
  9 10  2  0  0  0
  9 15  1  0  0  0
 10 12  1  0  0  0
 10 16  1  0  0  0
 11 13  2  0  0  0
 11 20  1  0  0  0
 13 17  1  0  0  0
 14 17  2  0  0  0
 14 27  1  0  0  0
 15 18  1  0  0  0
 15 28  1  0  0  0
 15 29  1  0  0  0
 16 18  1  0  0  0
 16 30  1  0  0  0
 16 31  1  0  0  0
 17 32  1  0  0  0
 18 33  1  0  0  0
 18 34  1  0  0  0
 19 21  1  0  0  0
 19 23  2  0  0  0
 20 35  1  0  0  0
 20 36  1  0  0  0
 20 37  1  0  0  0
 21 38  1  0  0  0
 21 39  1  0  0  0
 22 24  2  0  0  0
 22 25  1  0  0  0
 23 24  1  0  0  0
 23 40  1  0  0  0
 24 41  1  0  0  0
M  END
> <s_m_entry_id>
4975

> <s_m_entry_name>
dock_pv.294

> <s_m_Source_Path>
/home/csk/Desktop/cluster/DUD-E-result/hs90a

> <s_m_Source_File>
dock_pv.maegz

> <i_m_Source_File_Index>
294

> <chembl_id>
CHEMBL1522852

> <chembl_pref_name>
None

> <i_lp_mmshare_version>
53161

> <r_lp_tautomer_probability>
1

> <s_lp_Force_Field>
OPLS_2005

> <r_lp_Energy>
29.848589

> <b_lp_Chiralities_Consistent>
1

> <s_lp_Variant>
CHEMBL3880_lig139-1

> <s_i_glide_gridfile>
glide-grid_1uyg

> <i_i_glide_lignum>
156

> <i_i_glide_rotatable_bonds>
5

> <r_i_docking_score>
-7.79429336068186

> <r_i_glide_ligand_efficiency>
-0.311771734427274

> <r_i_glide_ligand_efficiency_sa>
-0.911626080760604

> <r_i_glide_ligand_efficiency_ln>
-1.84748110260518

> <r_i_glide_gscore>
-7.79429336068186

> <r_i_glide_lipo>
-4.0114400228109

> <r_i_glide_hbond>
0

> <r_i_glide_metal>
0

> <r_i_glide_rewards>
-1.80231862272688

> <r_i_glide_evdw>
-41.5182113647461

> <r_i_glide_ecoul>
-3.72393202781677

> <r_i_glide_erotb>
0.653965657265744

> <r_i_glide_esite>
0

> <r_i_glide_emodel>
-65.5628124098507

> <r_i_glide_energy>
-45.2421433925629

> <r_i_glide_einternal>
0.601604640483856

> <i_i_glide_confnum>
6

> <i_i_glide_posenum>
247

> <r_i_glide_eff_state_penalty>
0

> <s_user_duplicate_titles>
CHEMBL3880_lig139

> <i_f3d_flags>
0

> <s_m_subgroup_title>
dock_pv

> <s_m_subgroupid>
dock_pv

> <b_m_subgroup_collapsed>
1

$$$$
CHEMBL3880_lig308
                    3D
 Schrodinger Suite 2021-1.
 63 66  0  0  1  0            999 V2000
    2.6473    8.0270   25.2206 C   0  0  0  0  0  0
    2.5678    6.9087   25.7347 O   0  0  0  0  0  0
    3.4900    8.2011   23.9688 C   0  0  0  0  0  0
    3.3038    7.3633   22.8551 C   0  0  0  0  0  0
    4.0609    7.5565   21.7035 C   0  0  0  0  0  0
    4.9864    8.5891   21.6290 C   0  0  0  0  0  0
    5.2453    9.3977   22.7403 C   0  0  0  0  0  0
    4.4787    9.2029   23.9019 C   0  0  0  0  0  0
    5.6610    8.7690   20.4534 O   0  0  0  0  0  0
    2.3430    6.3836   22.8235 O   0  0  0  0  0  0
    6.3955   10.4196   22.6937 C   0  0  0  0  0  0
    7.6762    9.8415   23.3217 C   0  0  0  0  0  0
    6.0361   11.7823   23.2915 C   0  0  0  0  0  0
    2.0080    9.1116   25.7427 N   0  0  0  0  0  0
   -0.3358    8.9298   26.5991 C   0  0  0  0  0  0
    1.1804    8.9848   26.9693 C   0  0  0  0  0  0
    1.8249   10.3676   24.9825 C   0  0  0  0  0  0
   -1.8294   10.5432   25.3364 O   0  0  0  0  0  0
   -0.6031   10.0293   25.5920 C   0  0  0  0  0  0
    0.3451   10.6798   24.8467 C   0  0  0  0  0  0
   -0.3861   11.6052   24.1001 C   0  0  0  0  0  0
   -1.6700   11.5643   24.3932 N   0  0  0  0  0  0
    0.2387   12.5787   23.2636 C   0  0  0  0  0  0
    0.5060   12.3654   22.0788 O   0  0  0  0  0  0
    0.6633   13.6399   23.9669 N   0  0  0  0  0  0
    1.6623   14.5949   23.5144 C   0  0  0  0  0  0
    3.0765   14.0898   23.8478 C   0  0  0  0  0  0
    3.6267   14.7601   25.0114 N   0  0  0  0  0  0
    4.0401   13.6857   25.8676 C   0  0  0  0  0  0
    4.4291   14.3322   27.1670 C   0  0  0  0  0  0
    5.6747   14.9784   26.9570 O   0  0  0  0  0  0
    5.5236   16.0599   26.0587 C   0  0  0  0  0  0
    4.7817   15.6580   24.7676 C   0  0  0  0  0  0
    3.8883    6.9325   20.8384 H   0  0  0  0  0  0
    4.6590    9.8275   24.7663 H   0  0  0  0  0  0
    6.3034    8.0464   20.3681 H   0  0  0  0  0  0
    2.2034    6.0232   21.9438 H   0  0  0  0  0  0
    6.6373   10.6313   21.6516 H   0  0  0  0  0  0
    7.9810    8.9210   22.8229 H   0  0  0  0  0  0
    7.5335    9.6081   24.3772 H   0  0  0  0  0  0
    8.5068   10.5456   23.2432 H   0  0  0  0  0  0
    5.0933   12.1575   22.8938 H   0  0  0  0  0  0
    5.9488   11.7046   24.3667 H   0  0  0  0  0  0
    6.8046   12.5269   23.0777 H   0  0  0  0  0  0
   -0.6229    7.9537   26.2042 H   0  0  0  0  0  0
   -0.9229    9.0819   27.5048 H   0  0  0  0  0  0
    1.5164    8.1741   27.6191 H   0  0  0  0  0  0
    1.3712    9.8777   27.5671 H   0  0  0  0  0  0
    2.3693   11.1703   25.4734 H   0  0  0  0  0  0
    2.2327   10.3395   23.9732 H   0  0  0  0  0  0
    0.2738   13.7946   24.8841 H   0  0  0  0  0  0
    1.5520   14.7373   22.4418 H   0  0  0  0  0  0
    1.4866   15.5683   23.9668 H   0  0  0  0  0  0
    3.1129   12.9969   23.8125 H   0  0  0  0  0  0
    3.8349   14.3688   23.1670 H   0  0  0  0  0  0
    3.2357   12.9680   25.9670 H   0  0  0  0  0  0
    4.8606   13.1694   25.3927 H   0  0  0  0  0  0
    4.4659   13.5690   27.9330 H   0  0  0  0  0  0
    3.6598   15.0317   27.5040 H   0  0  0  0  0  0
    6.5288   16.3689   25.7968 H   0  0  0  0  0  0
    5.0160   16.8847   26.5569 H   0  0  0  0  0  0
    5.5079   15.1638   24.1192 H   0  0  0  0  0  0
    4.4611   16.5525   24.2481 H   0  0  0  0  0  0
  1  2  2  0  0  0
  1  3  1  0  0  0
  1 14  1  0  0  0
  3  4  2  0  0  0
  3  8  1  0  0  0
  4  5  1  0  0  0
  4 10  1  0  0  0
  5  6  2  0  0  0
  5 34  1  0  0  0
  6  7  1  0  0  0
  6  9  1  0  0  0
  7  8  2  0  0  0
  7 11  1  0  0  0
  8 35  1  0  0  0
  9 36  1  0  0  0
 10 37  1  0  0  0
 11 12  1  0  0  0
 11 13  1  0  0  0
 11 38  1  0  0  0
 12 39  1  0  0  0
 12 40  1  0  0  0
 12 41  1  0  0  0
 13 42  1  0  0  0
 13 43  1  0  0  0
 13 44  1  0  0  0
 14 16  1  0  0  0
 14 17  1  0  0  0
 15 16  1  0  0  0
 15 19  1  0  0  0
 15 45  1  0  0  0
 15 46  1  0  0  0
 16 47  1  0  0  0
 16 48  1  0  0  0
 17 20  1  0  0  0
 17 49  1  0  0  0
 17 50  1  0  0  0
 18 19  1  0  0  0
 18 22  1  0  0  0
 19 20  2  0  0  0
 20 21  1  0  0  0
 21 22  2  0  0  0
 21 23  1  0  0  0
 23 24  2  0  0  0
 23 25  1  0  0  0
 25 26  1  0  0  0
 25 51  1  0  0  0
 26 27  1  0  0  0
 26 52  1  0  0  0
 26 53  1  0  0  0
 27 28  1  0  0  0
 27 54  1  0  0  0
 27 55  1  0  0  0
 28 29  1  0  0  0
 28 33  1  0  0  0
 29 30  1  0  0  0
 29 56  1  0  0  0
 29 57  1  0  0  0
 30 31  1  0  0  0
 30 58  1  0  0  0
 30 59  1  0  0  0
 31 32  1  0  0  0
 32 33  1  0  0  0
 32 60  1  0  0  0
 32 61  1  0  0  0
 33 62  1  0  0  0
 33 63  1  0  0  0
M  END
> <s_m_entry_id>
4976

> <s_m_entry_name>
dock_pv.295

> <s_m_Source_Path>
/home/csk/Desktop/cluster/DUD-E-result/hs90a

> <s_m_Source_File>
dock_pv.maegz

> <i_m_Source_File_Index>
295

> <chembl_id>
CHEMBL3233752

> <chembl_pref_name>
None

> <i_lp_mmshare_version>
53161

> <r_lp_tautomer_probability>
0.999999999898

> <s_lp_Force_Field>
OPLS_2005

> <r_lp_Energy>
54.499987

> <b_lp_Chiralities_Consistent>
1

> <s_lp_Variant>
CHEMBL3880_lig308-1

> <s_i_glide_gridfile>
glide-grid_1uyg

> <i_i_glide_lignum>
345

> <i_i_glide_rotatable_bonds>
10

> <r_i_docking_score>
-7.78979575845147

> <r_i_glide_ligand_efficiency>
-0.236054416922772

> <r_i_glide_ligand_efficiency_sa>
-0.757152645144475

> <r_i_glide_ligand_efficiency_ln>
-1.73241024327577

> <r_i_glide_gscore>
-7.78979575845147

> <r_i_glide_lipo>
-3.56452612061226

> <r_i_glide_hbond>
-0.340321282614979

> <r_i_glide_metal>
0

> <r_i_glide_rewards>
-1.37869538604466

> <r_i_glide_evdw>
-30.4654541015625

> <r_i_glide_ecoul>
-10.3801326751709

> <r_i_glide_erotb>
0.574039637174186

> <r_i_glide_esite>
0

> <r_i_glide_emodel>
-36.578746660702

> <r_i_glide_energy>
-40.8455867767334

> <r_i_glide_einternal>
22.6628742218018

> <i_i_glide_confnum>
69

> <i_i_glide_posenum>
2

> <r_i_glide_eff_state_penalty>
0

> <s_user_duplicate_titles>
CHEMBL3880_lig308

> <i_f3d_flags>
0

> <s_m_subgroup_title>
dock_pv

> <s_m_subgroupid>
dock_pv

> <b_m_subgroup_collapsed>
1

$$$$
CHEMBL3880_lig296
                    3D
 Schrodinger Suite 2021-1.
 72 75  0  0  1  0            999 V2000
    0.3478    9.0746   27.4199 C   0  0  0  0  0  0
    1.1515    8.2876   28.2379 C   0  0  0  0  0  0
    2.2826    7.6610   27.7260 C   0  0  0  0  0  0
    2.6046    7.7808   26.3639 C   0  0  0  0  0  0
    1.7753    8.5650   25.5495 C   0  0  0  0  0  0
    0.6947    9.2821   26.0718 C   0  0  0  0  0  0
    3.0441    6.9106   28.5843 O   0  0  0  0  0  0
    3.8260    7.0502   25.7768 C   0  0  0  0  0  0
    4.3840    7.6522   24.4675 C   0  0  0  0  0  0
    3.5501    5.5469   25.6047 C   0  0  0  0  0  0
   -0.7974    9.5870   27.9671 O   0  0  0  0  0  0
   -0.0713   10.1199   25.2168 N   0  0  0  0  0  0
    0.2613   11.1643   24.3584 C   0  0  0  0  0  0
   -0.9733   11.5366   23.7882 C   0  0  0  0  0  0
   -1.9391   10.8271   24.3359 N   0  0  0  0  0  0
   -1.3901    9.9690   25.2328 N   0  0  0  0  0  0
   -1.2028   12.4923   22.7356 C   0  0  0  0  0  0
   -2.4420   13.0156   22.7723 N   0  0  0  0  0  0
   -0.3295   12.7691   21.9116 O   0  0  0  0  0  0
   -3.1101   13.9779   21.9105 C   0  0  0  0  0  0
   -2.5757   14.0826   20.4906 C   0  0  0  0  0  0
    1.5972   11.8183   24.2029 C   0  0  0  0  0  0
    1.6090   13.2053   24.3669 C   0  0  0  0  0  0
    2.8040   13.9095   24.3670 C   0  0  0  0  0  0
    3.9980   13.2239   24.1823 C   0  0  0  0  0  0
    3.9932   11.8528   23.9273 C   0  0  0  0  0  0
    2.7911   11.1576   23.9121 C   0  0  0  0  0  0
    5.2988   13.9840   24.1596 C   0  0  0  0  0  0
    5.7482   14.3689   25.4947 N   0  0  2  0  0  0
    7.0992   14.9189   25.5304 C   0  0  0  0  0  0
    7.7054   14.9483   26.9574 C   0  0  0  0  0  0
    9.2122   15.2944   27.0471 C   0  0  0  0  0  0
   10.0156   14.6854   25.9945 N   0  0  1  0  0  0
    9.4609   15.0451   24.6983 C   0  0  0  0  0  0
    8.1214   14.3565   24.5129 C   0  0  0  0  0  0
   11.4111   15.0898   26.1304 C   0  0  0  0  0  0
    0.8893    8.1588   29.2784 H   0  0  0  0  0  0
    1.9364    8.5715   24.4876 H   0  0  0  0  0  0
    3.8961    6.6769   28.2109 H   0  0  0  0  0  0
    4.6301    7.1567   26.5074 H   0  0  0  0  0  0
    4.5567    8.7245   24.5651 H   0  0  0  0  0  0
    3.7140    7.4902   23.6227 H   0  0  0  0  0  0
    5.3413    7.1972   24.2088 H   0  0  0  0  0  0
    3.2244    5.0853   26.5379 H   0  0  0  0  0  0
    2.7741    5.3657   24.8590 H   0  0  0  0  0  0
    4.4482    5.0218   25.2776 H   0  0  0  0  0  0
   -1.3678    9.9787   27.3014 H   0  0  0  0  0  0
   -3.0527   12.6306   23.4870 H   0  0  0  0  0  0
   -4.1570   13.6823   21.8824 H   0  0  0  0  0  0
   -3.1398   14.9573   22.3675 H   0  0  0  0  0  0
   -3.1390   14.7690   19.9073 H   0  0  0  0  0  0
   -1.5389   14.3799   20.4040 H   0  0  0  0  0  0
   -2.7093   13.1661   19.9670 H   0  0  0  0  0  0
    0.6919   13.7480   24.5438 H   0  0  0  0  0  0
    2.8057   14.9793   24.5215 H   0  0  0  0  0  0
    4.9155   11.3282   23.7221 H   0  0  0  0  0  0
    2.8160   10.1185   23.6506 H   0  0  0  0  0  0
    6.0248   13.3517   23.6495 H   0  0  0  0  0  0
    5.1459   14.8783   23.5670 H   0  0  0  0  0  0
    5.6608   13.6049   26.1499 H   0  0  0  0  0  0
    7.0031   15.9695   25.2572 H   0  0  0  0  0  0
    7.1389   15.6193   27.6029 H   0  0  0  0  0  0
    7.6617   13.9690   27.4061 H   0  0  0  0  0  0
    9.3765   16.3686   27.0785 H   0  0  0  0  0  0
    9.6228   14.8940   27.9670 H   0  0  0  0  0  0
    9.2610   16.1115   24.6385 H   0  0  0  0  0  0
   10.1483   14.7691   23.9051 H   0  0  0  0  0  0
    8.2388   13.2780   24.6341 H   0  0  0  0  0  0
    7.8008   14.5540   23.4912 H   0  0  0  0  0  0
   12.0232   14.5929   25.3778 H   0  0  0  0  0  0
   11.5325   16.1683   26.0211 H   0  0  0  0  0  0
   11.8042   14.8036   27.1063 H   0  0  0  0  0  0
  1  2  2  0  0  0
  1  6  1  0  0  0
  1 11  1  0  0  0
  2  3  1  0  0  0
  2 37  1  0  0  0
  3  4  2  0  0  0
  3  7  1  0  0  0
  4  5  1  0  0  0
  4  8  1  0  0  0
  5  6  2  0  0  0
  5 38  1  0  0  0
  6 12  1  0  0  0
  7 39  1  0  0  0
  8  9  1  0  0  0
  8 10  1  0  0  0
  8 40  1  0  0  0
  9 41  1  0  0  0
  9 42  1  0  0  0
  9 43  1  0  0  0
 10 44  1  0  0  0
 10 45  1  0  0  0
 10 46  1  0  0  0
 11 47  1  0  0  0
 12 13  1  0  0  0
 12 16  1  0  0  0
 13 14  2  0  0  0
 13 22  1  0  0  0
 14 15  1  0  0  0
 14 17  1  0  0  0
 15 16  2  0  0  0
 17 18  1  0  0  0
 17 19  2  0  0  0
 18 20  1  0  0  0
 18 48  1  0  0  0
 20 21  1  0  0  0
 20 49  1  0  0  0
 20 50  1  0  0  0
 21 51  1  0  0  0
 21 52  1  0  0  0
 21 53  1  0  0  0
 22 23  2  0  0  0
 22 27  1  0  0  0
 23 24  1  0  0  0
 23 54  1  0  0  0
 24 25  2  0  0  0
 24 55  1  0  0  0
 25 26  1  0  0  0
 25 28  1  0  0  0
 26 27  2  0  0  0
 26 56  1  0  0  0
 27 57  1  0  0  0
 28 29  1  0  0  0
 28 58  1  0  0  0
 28 59  1  0  0  0
 29 30  1  0  0  0
 29 60  1  0  0  0
 30 31  1  0  0  0
 30 35  1  0  0  0
 30 61  1  0  0  0
 31 32  1  0  0  0
 31 62  1  0  0  0
 31 63  1  0  0  0
 32 33  1  0  0  0
 32 64  1  0  0  0
 32 65  1  0  0  0
 33 34  1  0  0  0
 33 36  1  0  0  0
 34 35  1  0  0  0
 34 66  1  0  0  0
 34 67  1  0  0  0
 35 68  1  0  0  0
 35 69  1  0  0  0
 36 70  1  0  0  0
 36 71  1  0  0  0
 36 72  1  0  0  0
M  END
> <s_m_entry_id>
4977

> <s_m_entry_name>
dock_pv.296

> <s_m_Source_Path>
/home/csk/Desktop/cluster/DUD-E-result/hs90a

> <s_m_Source_File>
dock_pv.maegz

> <i_m_Source_File_Index>
296

> <chembl_id>
CHEMBL3235111

> <chembl_pref_name>
None

> <i_lp_mmshare_version>
53161

> <r_lp_tautomer_probability>
1

> <s_lp_Force_Field>
OPLS_2005

> <r_lp_Energy>
34.927929

> <b_lp_Chiralities_Consistent>
1

> <s_lp_Variant>
CHEMBL3880_lig296-1

> <s_i_glide_gridfile>
glide-grid_1uyg

> <i_i_glide_lignum>
333

> <i_i_glide_rotatable_bonds>
11

> <r_i_docking_score>
-7.76727236582247

> <r_i_glide_ligand_efficiency>
-0.215757565717291

> <r_i_glide_ligand_efficiency_sa>
-0.712415784546111

> <r_i_glide_ligand_efficiency_ln>
-1.694608982774

> <r_i_glide_gscore>
-7.76727236582247

> <r_i_glide_lipo>
-4.80571657250642

> <r_i_glide_hbond>
-0.154081911513671

> <r_i_glide_metal>
0

> <r_i_glide_rewards>
-0.9777697460773

> <r_i_glide_evdw>
-46.1936798095703

> <r_i_glide_ecoul>
-0.698924481868744

> <r_i_glide_erotb>
0.587471571602761

> <r_i_glide_esite>
-0.00265304456901283

> <r_i_glide_emodel>
-39.9103144746106

> <r_i_glide_energy>
-46.8926042914391

> <r_i_glide_einternal>
15.2118902206421

> <i_i_glide_confnum>
66

> <i_i_glide_posenum>
273

> <r_i_glide_eff_state_penalty>
0

> <s_user_duplicate_titles>
CHEMBL3880_lig296

> <i_f3d_flags>
0

> <s_m_subgroup_title>
dock_pv

> <s_m_subgroupid>
dock_pv

> <b_m_subgroup_collapsed>
1

$$$$
CHEMBL3880_lig277
                    3D
 Schrodinger Suite 2021-1.
 65 68  0  0  1  0            999 V2000
   -1.4914   11.0595   24.6114 C   0  0  0  0  0  0
   -1.3944   11.8256   23.4503 C   0  0  0  0  0  0
   -0.1456   12.1210   22.8994 C   0  0  0  0  0  0
    1.0335   11.7058   23.5446 C   0  0  0  0  0  0
    0.9232   10.9722   24.7268 C   0  0  0  0  0  0
   -0.3189   10.5965   25.2342 C   0  0  0  0  0  0
   -0.1099   12.7690   21.6946 O   0  0  0  0  0  0
    2.4337   11.9763   22.9836 C   0  0  0  0  0  0
    3.2672   10.6761   22.8939 C   0  0  0  0  0  0
    3.1676   13.0439   23.8161 C   0  0  0  0  0  0
   -2.7384   10.7689   25.1152 O   0  0  0  0  0  0
   -0.3389    9.7682   26.3768 N   0  0  0  0  0  0
    0.4504    8.6735   26.7095 C   0  0  0  0  0  0
    0.0619    8.3774   28.0286 C   0  0  0  0  0  0
   -0.9380    9.1691   28.3673 N   0  0  0  0  0  0
   -1.1469   10.0925   27.3836 N   0  0  0  0  0  0
    0.6265    7.3798   28.9055 C   0  0  0  0  0  0
    0.8610    7.8382   30.1482 N   0  0  0  0  0  0
    0.9153    6.2457   28.5240 O   0  0  0  0  0  0
    1.4750    7.0974   31.2447 C   0  0  0  0  0  0
    0.4229    6.4209   32.1360 C   0  0  0  0  0  0
    1.5237    8.0681   25.8606 C   0  0  0  0  0  0
    2.7666    7.8341   26.4493 C   0  0  0  0  0  0
    3.7933    7.2552   25.7179 C   0  0  0  0  0  0
    3.6054    6.9431   24.3709 C   0  0  0  0  0  0
    2.3626    7.1774   23.7718 C   0  0  0  0  0  0
    1.3220    7.7346   24.5164 C   0  0  0  0  0  0
    4.7532    6.3126   23.5852 C   0  0  0  0  0  0
    6.0253    7.0235   23.7834 N   0  0  0  0  0  0
    6.0535    8.2883   23.0348 C   0  0  0  0  0  0
    7.4061    9.0158   23.1837 C   0  0  0  0  0  0
    8.4608    8.1519   22.7828 O   0  0  0  0  0  0
    8.5168    6.9732   23.5784 C   0  0  0  0  0  0
    7.1897    6.1774   23.4916 C   0  0  0  0  0  0
   -2.3011   12.1540   22.9582 H   0  0  0  0  0  0
    1.8205   10.6611   25.2424 H   0  0  0  0  0  0
   -0.9980   12.9443   21.3723 H   0  0  0  0  0  0
    2.3401   12.3640   21.9683 H   0  0  0  0  0  0
    2.7242    9.8900   22.3676 H   0  0  0  0  0  0
    3.5159   10.2892   23.8828 H   0  0  0  0  0  0
    4.2126   10.8179   22.3739 H   0  0  0  0  0  0
    2.6161   13.9853   23.8233 H   0  0  0  0  0  0
    3.3016   12.7290   24.8531 H   0  0  0  0  0  0
    4.1600   13.2481   23.4112 H   0  0  0  0  0  0
   -3.4582   11.3156   24.7661 H   0  0  0  0  0  0
    0.4928    8.7500   30.3879 H   0  0  0  0  0  0
    2.1944    6.3640   30.8726 H   0  0  0  0  0  0
    2.0542    7.8053   31.8405 H   0  0  0  0  0  0
    0.8984    5.8664   32.9470 H   0  0  0  0  0  0
   -0.2308    7.1658   32.5934 H   0  0  0  0  0  0
   -0.1994    5.7249   31.5688 H   0  0  0  0  0  0
    2.9438    8.0908   27.4833 H   0  0  0  0  0  0
    4.7449    7.0679   26.1936 H   0  0  0  0  0  0
    2.1986    6.9265   22.7317 H   0  0  0  0  0  0
    0.3622    7.9065   24.0510 H   0  0  0  0  0  0
    4.8454    5.2846   23.9403 H   0  0  0  0  0  0
    4.5079    6.2514   22.5232 H   0  0  0  0  0  0
    5.8486    8.1039   21.9782 H   0  0  0  0  0  0
    5.2513    8.9286   23.3939 H   0  0  0  0  0  0
    7.5559    9.3641   24.2083 H   0  0  0  0  0  0
    7.4241    9.9014   22.5478 H   0  0  0  0  0  0
    8.7544    7.2220   24.6154 H   0  0  0  0  0  0
    9.3423    6.3665   23.2093 H   0  0  0  0  0  0
    7.2041    5.3376   24.1878 H   0  0  0  0  0  0
    7.0868    5.7303   22.5018 H   0  0  0  0  0  0
  1  2  2  0  0  0
  1  6  1  0  0  0
  1 11  1  0  0  0
  2  3  1  0  0  0
  2 35  1  0  0  0
  3  4  2  0  0  0
  3  7  1  0  0  0
  4  5  1  0  0  0
  4  8  1  0  0  0
  5  6  2  0  0  0
  5 36  1  0  0  0
  6 12  1  0  0  0
  7 37  1  0  0  0
  8  9  1  0  0  0
  8 10  1  0  0  0
  8 38  1  0  0  0
  9 39  1  0  0  0
  9 40  1  0  0  0
  9 41  1  0  0  0
 10 42  1  0  0  0
 10 43  1  0  0  0
 10 44  1  0  0  0
 11 45  1  0  0  0
 12 13  1  0  0  0
 12 16  1  0  0  0
 13 14  2  0  0  0
 13 22  1  0  0  0
 14 15  1  0  0  0
 14 17  1  0  0  0
 15 16  2  0  0  0
 17 18  1  0  0  0
 17 19  2  0  0  0
 18 20  1  0  0  0
 18 46  1  0  0  0
 20 21  1  0  0  0
 20 47  1  0  0  0
 20 48  1  0  0  0
 21 49  1  0  0  0
 21 50  1  0  0  0
 21 51  1  0  0  0
 22 23  2  0  0  0
 22 27  1  0  0  0
 23 24  1  0  0  0
 23 52  1  0  0  0
 24 25  2  0  0  0
 24 53  1  0  0  0
 25 26  1  0  0  0
 25 28  1  0  0  0
 26 27  2  0  0  0
 26 54  1  0  0  0
 27 55  1  0  0  0
 28 29  1  0  0  0
 28 56  1  0  0  0
 28 57  1  0  0  0
 29 30  1  0  0  0
 29 34  1  0  0  0
 30 31  1  0  0  0
 30 58  1  0  0  0
 30 59  1  0  0  0
 31 32  1  0  0  0
 31 60  1  0  0  0
 31 61  1  0  0  0
 32 33  1  0  0  0
 33 34  1  0  0  0
 33 62  1  0  0  0
 33 63  1  0  0  0
 34 64  1  0  0  0
 34 65  1  0  0  0
M  END
> <s_m_entry_id>
4978

> <s_m_entry_name>
dock_pv.297

> <s_m_Source_Path>
/home/csk/Desktop/cluster/DUD-E-result/hs90a

> <s_m_Source_File>
dock_pv.maegz

> <i_m_Source_File_Index>
297

> <chembl_id>
CHEMBL3234764

> <chembl_pref_name>
None

> <i_lp_mmshare_version>
53161

> <r_lp_tautomer_probability>
1

> <s_lp_Force_Field>
OPLS_2005

> <r_lp_Energy>
40.702414

> <b_lp_Chiralities_Consistent>
1

> <s_lp_Variant>
CHEMBL3880_lig277-1

> <s_i_glide_gridfile>
glide-grid_1uyg

> <i_i_glide_lignum>
312

> <i_i_glide_rotatable_bonds>
10

> <r_i_docking_score>
-7.76081975109267

> <r_i_glide_ligand_efficiency>
-0.228259404443902

> <r_i_glide_ligand_efficiency_sa>
-0.73947185951982

> <r_i_glide_ligand_efficiency_ln>
-1.71458276663695

> <r_i_glide_gscore>
-7.76081975109267

> <r_i_glide_lipo>
-3.12789241149499

> <r_i_glide_hbond>
-0.455712990798048

> <r_i_glide_metal>
0

> <r_i_glide_rewards>
-0.837158969749177

> <r_i_glide_evdw>
-52.7242584228516

> <r_i_glide_ecoul>
-8.39034461975098

> <r_i_glide_erotb>
0.558327402241224

> <r_i_glide_esite>
-0.00361816718645809

> <r_i_glide_emodel>
-85.5865479951247

> <r_i_glide_energy>
-61.1146030426025

> <r_i_glide_einternal>
9.17881774902344

> <i_i_glide_confnum>
21

> <i_i_glide_posenum>
76

> <r_i_glide_eff_state_penalty>
0

> <s_user_duplicate_titles>
CHEMBL3880_lig277

> <i_f3d_flags>
0

> <s_m_subgroup_title>
dock_pv

> <s_m_subgroupid>
dock_pv

> <b_m_subgroup_collapsed>
1

$$$$
CHEMBL3880_lig87
                    3D
 Schrodinger Suite 2021-1.
 28 30  0  0  1  0            999 V2000
   -1.8050    9.6046   28.3670 Cl  0  0  0  0  0  0
    5.6929   15.1688   25.5560 S   0  0  0  0  0  0
   -0.3133   11.9687   23.1886 O   0  0  0  0  0  0
    1.2610   12.3691   21.6585 O   0  0  0  0  0  0
    2.8930   14.3234   24.7094 O   0  0  0  0  0  0
    1.7059   11.1687   24.9907 N   0  0  0  0  0  0
    0.3519   10.9514   25.2851 C   0  0  0  0  0  0
   -0.6503   11.3908   24.4043 C   0  0  0  0  0  0
    2.0131   11.7367   23.8829 C   0  0  0  0  0  0
    1.0194   12.0605   22.8219 C   0  0  0  0  0  0
    3.4557   12.1853   23.6926 C   0  0  0  0  0  0
   -0.0023   10.3691   26.5019 C   0  0  0  0  0  0
    3.7820   13.5389   24.3667 C   0  0  0  0  0  0
   -1.9836   11.2845   24.7431 C   0  0  0  0  0  0
   -1.3502   10.3034   26.8600 C   0  0  0  0  0  0
    5.1953   13.8457   24.5308 C   0  0  0  0  0  0
   -2.3381   10.7691   25.9874 C   0  0  0  0  0  0
    6.2953   13.1931   23.9703 C   0  0  0  0  0  0
    7.3598   14.8129   25.2447 C   0  0  0  0  0  0
    7.5125   13.7370   24.3813 C   0  0  0  0  0  0
    3.6903   12.2801   22.6390 H   0  0  0  0  0  0
    4.1235   11.4263   24.1001 H   0  0  0  0  0  0
    0.7613   10.0212   27.1826 H   0  0  0  0  0  0
   -2.7390   11.6305   24.0549 H   0  0  0  0  0  0
   -3.3843   10.7149   26.2579 H   0  0  0  0  0  0
    6.2250   12.3498   23.2969 H   0  0  0  0  0  0
    8.1310   15.4096   25.7080 H   0  0  0  0  0  0
    8.4612   13.3484   24.0562 H   0  0  0  0  0  0
  1 15  1  0  0  0
  2 16  1  0  0  0
  2 19  1  0  0  0
  3  8  1  0  0  0
  3 10  1  0  0  0
  4 10  2  0  0  0
  5 13  2  0  0  0
  6  7  1  0  0  0
  6  9  2  0  0  0
  7  8  1  0  0  0
  7 12  2  0  0  0
  8 14  2  0  0  0
  9 10  1  0  0  0
  9 11  1  0  0  0
 11 22  1  0  0  0
 11 21  1  0  0  0
 11 13  1  0  0  0
 12 15  1  0  0  0
 12 23  1  0  0  0
 13 16  1  0  0  0
 14 17  1  0  0  0
 14 24  1  0  0  0
 15 17  2  0  0  0
 16 18  2  0  0  0
 17 25  1  0  0  0
 18 20  1  0  0  0
 18 26  1  0  0  0
 19 20  2  0  0  0
 19 27  1  0  0  0
 20 28  1  0  0  0
M  END
> <s_m_entry_id>
4979

> <s_m_entry_name>
dock_pv.298

> <s_m_Source_Path>
/home/csk/Desktop/cluster/DUD-E-result/hs90a

> <s_m_Source_File>
dock_pv.maegz

> <i_m_Source_File_Index>
298

> <chembl_id>
CHEMBL1392292

> <chembl_pref_name>
None

> <i_lp_mmshare_version>
53161

> <r_lp_tautomer_probability>
0.99990000499975

> <s_lp_Force_Field>
OPLS_2005

> <r_lp_Energy>
20.315336

> <b_lp_Chiralities_Consistent>
1

> <s_lp_Variant>
CHEMBL3880_lig87-1

> <s_i_glide_gridfile>
glide-grid_1uyg

> <i_i_glide_lignum>
98

> <i_i_glide_rotatable_bonds>
3

> <r_i_docking_score>
-7.75065236422425

> <r_i_glide_ligand_efficiency>
-0.387532618211213

> <r_i_glide_ligand_efficiency_sa>
-1.05192536482724

> <r_i_glide_ligand_efficiency_ln>
-1.93973265314156

> <r_i_glide_gscore>
-7.75065236422425

> <r_i_glide_lipo>
-3.50942030579016

> <r_i_glide_hbond>
-0.23770992790169

> <r_i_glide_metal>
0

> <r_i_glide_rewards>
-2.27401645235289

> <r_i_glide_evdw>
-36.9592590332031

> <r_i_glide_ecoul>
-3.16034460067749

> <r_i_glide_erotb>
0.592508963582263

> <r_i_glide_esite>
0

> <r_i_glide_emodel>
-58.4313746745371

> <r_i_glide_energy>
-40.1196036338806

> <r_i_glide_einternal>
0.134879976511002

> <i_i_glide_confnum>
14

> <i_i_glide_posenum>
386

> <r_i_glide_eff_state_penalty>
0

> <s_user_duplicate_titles>
CHEMBL3880_lig87

> <i_f3d_flags>
0

> <s_m_subgroup_title>
dock_pv

> <s_m_subgroupid>
dock_pv

> <b_m_subgroup_collapsed>
1

$$$$
CHEMBL3880_lig819
                    3D
 Schrodinger Suite 2021-1.
 53 54  0  0  1  0            999 V2000
   -0.4296    9.5630   26.4007 C   0  0  0  0  0  0
   -1.4839   10.4777   26.2996 C   0  0  0  0  0  0
   -1.4864   11.4189   25.2809 C   0  0  0  0  0  0
   -0.3930   11.5702   24.4386 C   0  0  0  0  0  0
    0.7394   10.7421   24.5886 C   0  0  0  0  0  0
    0.6451    9.6865   25.5157 C   0  0  0  0  0  0
   -0.4854   12.5730   23.5069 O   0  0  0  0  0  0
   -2.5399   10.4717   27.1724 O   0  0  0  0  0  0
   -0.4591    8.4075   27.4180 C   0  0  0  0  0  0
    1.9996   10.9544   23.7543 C   0  0  0  0  0  0
    3.1986   10.4694   24.1828 N   0  0  0  0  0  0
    1.9276   11.5675   22.6852 O   0  0  0  0  0  0
    3.5526   10.1651   25.5748 C   0  0  0  0  0  0
    4.3749   10.4428   23.2992 C   0  0  0  0  0  0
    5.3768   11.5629   23.5765 C   0  0  0  0  0  0
    4.9521   12.8414   23.9670 C   0  0  0  0  0  0
    5.8794   13.8008   24.3669 C   0  0  0  0  0  0
    7.2402   13.4852   24.3673 C   0  0  0  0  0  0
    7.6609   12.2143   23.9660 C   0  0  0  0  0  0
    6.7364   11.2601   23.5641 C   0  0  0  0  0  0
    8.2540   14.4984   24.7980 C   0  0  0  0  0  0
    8.4751   14.5545   26.1196 N   0  0  0  0  0  0
    8.8598   15.1696   23.9670 O   0  0  0  0  0  0
    0.4306    8.6912   28.6361 C   0  0  0  0  0  0
   -0.1388    7.0337   26.7872 C   0  0  0  0  0  0
    9.5129   15.3588   26.7607 C   0  0  0  0  0  0
   10.6493   14.4904   27.3121 C   0  0  0  0  0  0
   -2.3388   12.0610   25.1524 H   0  0  0  0  0  0
    1.4236    8.9440   25.5798 H   0  0  0  0  0  0
   -1.3671   12.9517   23.4707 H   0  0  0  0  0  0
   -3.2622   11.0376   26.8769 H   0  0  0  0  0  0
   -1.4741    8.3179   27.8064 H   0  0  0  0  0  0
    3.7270    9.0958   25.6983 H   0  0  0  0  0  0
    4.4607   10.6884   25.8619 H   0  0  0  0  0  0
    2.8061   10.4828   26.3009 H   0  0  0  0  0  0
    4.8710    9.4796   23.4305 H   0  0  0  0  0  0
    4.0882   10.4699   22.2479 H   0  0  0  0  0  0
    3.9018   13.0928   23.9856 H   0  0  0  0  0  0
    5.5355   14.7785   24.6678 H   0  0  0  0  0  0
    8.7069   11.9477   23.9754 H   0  0  0  0  0  0
    7.0799   10.2754   23.2817 H   0  0  0  0  0  0
    7.8614   14.0324   26.7280 H   0  0  0  0  0  0
    0.0606    9.5661   29.1662 H   0  0  0  0  0  0
    1.4686    8.8691   28.3532 H   0  0  0  0  0  0
    0.4164    7.8634   29.3468 H   0  0  0  0  0  0
   -0.7387    6.8551   25.8946 H   0  0  0  0  0  0
    0.9110    6.9450   26.5048 H   0  0  0  0  0  0
   -0.3547    6.2253   27.4860 H   0  0  0  0  0  0
    9.9284   16.1097   26.0851 H   0  0  0  0  0  0
    9.0483   15.9195   27.5676 H   0  0  0  0  0  0
   11.4142   15.1105   27.7817 H   0  0  0  0  0  0
   10.2860   13.7972   28.0709 H   0  0  0  0  0  0
   11.1318   13.9147   26.5214 H   0  0  0  0  0  0
  1  2  2  0  0  0
  1  6  1  0  0  0
  1  9  1  0  0  0
  2  3  1  0  0  0
  2  8  1  0  0  0
  3  4  2  0  0  0
  3 28  1  0  0  0
  4  5  1  0  0  0
  4  7  1  0  0  0
  5  6  2  0  0  0
  5 10  1  0  0  0
  6 29  1  0  0  0
  7 30  1  0  0  0
  8 31  1  0  0  0
  9 24  1  0  0  0
  9 25  1  0  0  0
  9 32  1  0  0  0
 10 11  1  0  0  0
 10 12  2  0  0  0
 11 13  1  0  0  0
 11 14  1  0  0  0
 13 33  1  0  0  0
 13 34  1  0  0  0
 13 35  1  0  0  0
 14 15  1  0  0  0
 14 36  1  0  0  0
 14 37  1  0  0  0
 15 16  2  0  0  0
 15 20  1  0  0  0
 16 17  1  0  0  0
 16 38  1  0  0  0
 17 18  2  0  0  0
 17 39  1  0  0  0
 18 19  1  0  0  0
 18 21  1  0  0  0
 19 20  2  0  0  0
 19 40  1  0  0  0
 20 41  1  0  0  0
 21 22  1  0  0  0
 21 23  2  0  0  0
 22 26  1  0  0  0
 22 42  1  0  0  0
 24 43  1  0  0  0
 24 44  1  0  0  0
 24 45  1  0  0  0
 25 46  1  0  0  0
 25 47  1  0  0  0
 25 48  1  0  0  0
 26 27  1  0  0  0
 26 49  1  0  0  0
 26 50  1  0  0  0
 27 51  1  0  0  0
 27 52  1  0  0  0
 27 53  1  0  0  0
M  END
> <s_m_entry_id>
4980

> <s_m_entry_name>
dock_pv.299

> <s_m_Source_Path>
/home/csk/Desktop/cluster/DUD-E-result/hs90a

> <s_m_Source_File>
dock_pv.maegz

> <i_m_Source_File_Index>
299

> <chembl_id>
CHEMBL4279132

> <chembl_pref_name>
None

> <i_lp_mmshare_version>
53161

> <r_lp_tautomer_probability>
0.999999999898

> <s_lp_Force_Field>
OPLS_2005

> <r_lp_Energy>
29.419799

> <b_lp_Chiralities_Consistent>
1

> <s_lp_Variant>
CHEMBL3880_lig819-1

> <s_i_glide_gridfile>
glide-grid_1uyg

> <i_i_glide_lignum>
920

> <i_i_glide_rotatable_bonds>
10

> <r_i_docking_score>
-7.74925732163104

> <r_i_glide_ligand_efficiency>
-0.287009530430779

> <r_i_glide_ligand_efficiency_sa>
-0.861028590346402

> <r_i_glide_ligand_efficiency_ln>
-1.80389934798405

> <r_i_glide_gscore>
-7.74925732163104

> <r_i_glide_lipo>
-3.42953510194336

> <r_i_glide_hbond>
-0.108486384080551

> <r_i_glide_metal>
0

> <r_i_glide_rewards>
-1.88896301579843

> <r_i_glide_evdw>
-41.0652770996094

> <r_i_glide_ecoul>
-7.41679954528809

> <r_i_glide_erotb>
0.843510966964977

> <r_i_glide_esite>
0

> <r_i_glide_emodel>
-61.4261289290147

> <r_i_glide_energy>
-48.4820766448975

> <r_i_glide_einternal>
13.5855102539062

> <i_i_glide_confnum>
44

> <i_i_glide_posenum>
95

> <r_i_glide_eff_state_penalty>
0

> <s_user_duplicate_titles>
CHEMBL3880_lig819

> <i_f3d_flags>
0

> <s_m_subgroup_title>
dock_pv

> <s_m_subgroupid>
dock_pv

> <b_m_subgroup_collapsed>
1

$$$$
CHEMBL3880_lig416
                    3D
 Schrodinger Suite 2021-1.
 63 65  0  0  1  0            999 V2000
   -1.2028   10.2611   26.6149 C   0  0  0  0  0  0
   -0.5759    9.2719   27.3726 C   0  0  0  0  0  0
    0.5842    8.6567   26.9090 C   0  0  0  0  0  0
    1.1323    9.0437   25.6819 C   0  0  0  0  0  0
    0.5019   10.0355   24.9317 C   0  0  0  0  0  0
   -0.6506   10.6720   25.3892 C   0  0  0  0  0  0
   -1.2458   11.8184   24.5683 C   0  0  0  0  0  0
   -2.2241   11.3533   23.4974 C   0  0  0  0  0  0
   -0.1911   12.7736   23.9670 C   0  0  0  0  0  0
   -2.3855   10.7684   27.0874 O   0  0  0  0  0  0
    1.1703    7.6845   27.6752 O   0  0  0  0  0  0
    2.3949    8.4959   25.1232 C   0  0  0  0  0  0
    2.5722    7.1559   25.1704 O   0  0  0  0  0  0
    3.7895    6.8602   24.5651 N   0  0  0  0  0  0
    4.3408    8.0058   24.1944 C   0  0  0  0  0  0
    3.4886    9.0873   24.5157 C   0  0  0  0  0  0
    3.6804   10.5201   24.3147 C   0  0  0  0  0  0
    5.6526    8.1085   23.5669 C   0  0  0  0  0  0
    6.3767    6.9749   23.5780 N   0  0  0  0  0  0
    6.1004    9.1772   23.1423 O   0  0  0  0  0  0
    3.8654   11.7115   24.1299 C   0  0  0  0  0  0
    4.1569   13.1243   23.8409 C   0  0  0  0  0  0
    7.8044    6.9130   23.2977 C   0  0  0  0  0  0
    8.6051    7.3091   24.5396 C   0  0  0  0  0  0
    5.3190   13.5691   24.6185 N   0  0  2  0  0  0
    5.3527   14.9966   24.9201 C   0  0  0  0  0  0
    6.4178   15.3074   25.9985 C   0  0  0  0  0  0
    7.8159   14.8083   25.6124 C   0  0  0  0  0  0
    7.7870   13.3731   25.0911 C   0  0  0  0  0  0
    6.6212   13.1141   24.1164 C   0  0  0  0  0  0
    8.8609   15.5029   25.8462 N   0  0  0  0  0  0
   10.0471   14.7992   25.5675 O   0  0  0  0  0  0
   11.0846   15.3170   26.3869 C   0  0  0  0  0  0
   -1.0036    8.9673   28.3168 H   0  0  0  0  0  0
    0.9229   10.3258   23.9814 H   0  0  0  0  0  0
   -1.8521   12.3690   25.2690 H   0  0  0  0  0  0
   -3.0072   10.7689   23.9669 H   0  0  0  0  0  0
   -2.7103   12.1976   23.0072 H   0  0  0  0  0  0
   -1.7319   10.7689   22.7250 H   0  0  0  0  0  0
    0.5337   13.0925   24.7177 H   0  0  0  0  0  0
    0.3613   12.3157   23.1459 H   0  0  0  0  0  0
   -0.6643   13.6705   23.5671 H   0  0  0  0  0  0
   -2.9422   11.1683   26.4107 H   0  0  0  0  0  0
    1.9396    7.3054   27.2418 H   0  0  0  0  0  0
    5.9085    6.1017   23.7704 H   0  0  0  0  0  0
    3.2641   13.7043   24.0820 H   0  0  0  0  0  0
    4.3170   13.1690   22.7673 H   0  0  0  0  0  0
    8.0619    5.8992   22.9891 H   0  0  0  0  0  0
    8.0754    7.5683   22.4659 H   0  0  0  0  0  0
    9.6611    7.1693   24.3560 H   0  0  0  0  0  0
    8.4592    8.3608   24.7896 H   0  0  0  0  0  0
    8.3328    6.7077   25.4078 H   0  0  0  0  0  0
    4.3824   15.2866   25.3275 H   0  0  0  0  0  0
    5.4769   15.5885   24.0136 H   0  0  0  0  0  0
    6.1340   14.8058   26.9245 H   0  0  0  0  0  0
    6.4331   16.3689   26.2121 H   0  0  0  0  0  0
    8.7270   13.0812   24.6298 H   0  0  0  0  0  0
    7.6612   12.7690   25.9713 H   0  0  0  0  0  0
    6.8365   13.5690   23.1616 H   0  0  0  0  0  0
    6.5831   12.0396   23.9304 H   0  0  0  0  0  0
   12.0248   14.8322   26.1269 H   0  0  0  0  0  0
   10.8922   15.1134   27.4425 H   0  0  0  0  0  0
   11.2210   16.3922   26.2616 H   0  0  0  0  0  0
  1  2  2  0  0  0
  1  6  1  0  0  0
  1 10  1  0  0  0
  2  3  1  0  0  0
  2 34  1  0  0  0
  3  4  2  0  0  0
  3 11  1  0  0  0
  4  5  1  0  0  0
  4 12  1  0  0  0
  5  6  2  0  0  0
  5 35  1  0  0  0
  6  7  1  0  0  0
  7  8  1  0  0  0
  7  9  1  0  0  0
  7 36  1  0  0  0
  8 37  1  0  0  0
  8 38  1  0  0  0
  8 39  1  0  0  0
  9 40  1  0  0  0
  9 41  1  0  0  0
  9 42  1  0  0  0
 10 43  1  0  0  0
 11 44  1  0  0  0
 12 13  1  0  0  0
 12 16  2  0  0  0
 13 14  1  0  0  0
 14 15  2  0  0  0
 15 16  1  0  0  0
 15 18  1  0  0  0
 16 17  1  0  0  0
 17 21  3  0  0  0
 18 19  1  0  0  0
 18 20  2  0  0  0
 19 23  1  0  0  0
 19 45  1  0  0  0
 21 22  1  0  0  0
 22 25  1  0  0  0
 22 46  1  0  0  0
 22 47  1  0  0  0
 23 24  1  0  0  0
 23 48  1  0  0  0
 23 49  1  0  0  0
 24 50  1  0  0  0
 24 51  1  0  0  0
 24 52  1  0  0  0
 25 26  1  0  0  0
 25 30  1  0  0  0
 26 27  1  0  0  0
 26 53  1  0  0  0
 26 54  1  0  0  0
 27 28  1  0  0  0
 27 55  1  0  0  0
 27 56  1  0  0  0
 28 29  1  0  0  0
 28 31  2  0  0  0
 29 30  1  0  0  0
 29 57  1  0  0  0
 29 58  1  0  0  0
 30 59  1  0  0  0
 30 60  1  0  0  0
 31 32  1  0  0  0
 32 33  1  0  0  0
 33 61  1  0  0  0
 33 62  1  0  0  0
 33 63  1  0  0  0
M  END
> <s_m_entry_id>
4981

> <s_m_entry_name>
dock_pv.300

> <s_m_Source_Path>
/home/csk/Desktop/cluster/DUD-E-result/hs90a

> <s_m_Source_File>
dock_pv.maegz

> <i_m_Source_File_Index>
300

> <chembl_id>
CHEMBL3600501

> <chembl_pref_name>
None

> <i_lp_mmshare_version>
53161

> <r_lp_tautomer_probability>
0.999999999898

> <s_lp_Force_Field>
OPLS_2005

> <r_lp_Energy>
26.977733

> <b_lp_Chiralities_Consistent>
1

> <s_lp_Variant>
CHEMBL3880_lig416-1

> <s_i_glide_gridfile>
glide-grid_1uyg

> <i_i_glide_lignum>
458

> <i_i_glide_rotatable_bonds>
11

> <r_i_docking_score>
-7.74870866841413

> <r_i_glide_ligand_efficiency>
-0.234809353588307

> <r_i_glide_ligand_efficiency_sa>
-0.753159061760814

> <r_i_glide_ligand_efficiency_ln>
-1.72327268718903

> <r_i_glide_gscore>
-7.74870866841413

> <r_i_glide_lipo>
-4.41169231696977

> <r_i_glide_hbond>
-0.0365062453292971

> <r_i_glide_metal>
0

> <r_i_glide_rewards>
-1.07064897055889

> <r_i_glide_evdw>
-43.7195854187012

> <r_i_glide_ecoul>
-4.75097846984863

> <r_i_glide_erotb>
0.680449655033298

> <r_i_glide_esite>
-0.0116847491771171

> <r_i_glide_emodel>
-62.3721862370475

> <r_i_glide_energy>
-48.4705638885498

> <r_i_glide_einternal>
7.72751426696777

> <i_i_glide_confnum>
22

> <i_i_glide_posenum>
353

> <r_i_glide_eff_state_penalty>
0

> <s_user_duplicate_titles>
CHEMBL3880_lig416

> <i_f3d_flags>
0

> <s_m_subgroup_title>
dock_pv

> <s_m_subgroupid>
dock_pv

> <b_m_subgroup_collapsed>
1

$$$$
CHEMBL3880_lig442
                    3D
 Schrodinger Suite 2021-1.
 60 63  0  0  1  0            999 V2000
    4.4649    8.6699   19.7121 C   0  0  0  0  0  0
    5.5460    9.5689   20.0002 O   0  0  0  0  0  0
    6.0818    9.5682   21.2772 C   0  0  0  0  0  0
    7.2268   10.3253   21.5616 C   0  0  0  0  0  0
    7.8134   10.2168   22.8241 C   0  0  0  0  0  0
    7.2373    9.3720   23.7700 C   0  0  0  0  0  0
    6.0716    8.6769   23.4258 C   0  0  0  0  0  0
    5.5043    8.7690   22.2073 N   0  0  0  0  0  0
    5.3715    7.7801   24.3672 C   0  0  0  0  0  0
    6.0974    6.6833   24.8502 C   0  0  0  0  0  0
    5.5613    5.8366   25.8091 C   0  0  0  0  0  0
    6.2974    4.8109   26.2915 F   0  0  0  0  0  0
    4.2773    6.0563   26.2809 C   0  0  0  0  0  0
    3.5339    7.1347   25.8062 C   0  0  0  0  0  0
    4.0630    8.0350   24.8580 C   0  0  0  0  0  0
    3.2254    9.2628   24.3958 C   0  0  1  0  0  0
    1.7909    9.3321   25.0264 C   0  0  0  0  0  0
    1.0693   10.5842   24.5601 C   0  0  0  0  0  0
   -0.2704   10.5266   24.3671 N   0  0  0  0  0  0
   -0.8531   11.6231   23.8413 C   0  0  0  0  0  0
   -2.2013   11.5443   23.5738 N   0  0  0  0  0  0
   -0.2375   12.7801   23.5240 N   0  0  0  0  0  0
    1.0978   12.8360   23.7452 C   0  0  0  0  0  0
    1.6837   14.1895   23.3647 C   0  0  0  0  0  0
    1.8236   11.7335   24.2664 C   0  0  0  0  0  0
    3.2820   11.6437   24.5128 C   0  0  0  0  0  0
    3.9599   10.5500   24.5358 N   0  0  0  0  0  0
    3.8505   12.8872   24.8992 N   0  0  0  0  0  0
    5.1373   13.2525   24.3669 O   0  0  0  0  0  0
    5.6192   14.3392   25.1760 C   0  0  0  0  0  0
    7.1538   14.3403   25.3534 C   0  0  2  0  0  0
    7.5053   15.1679   26.5094 N   0  0  0  0  0  0
    7.9172   14.8634   24.1222 C   0  0  0  0  0  0
    9.3021   14.7690   24.3680 O   0  0  0  0  0  0
    4.0591    8.8636   18.7242 H   0  0  0  0  0  0
    4.8123    7.6354   19.7264 H   0  0  0  0  0  0
    3.6612    8.7702   20.4385 H   0  0  0  0  0  0
    7.6611   10.9576   20.8035 H   0  0  0  0  0  0
    8.7064   10.7798   23.0604 H   0  0  0  0  0  0
    7.6664    9.2691   24.7548 H   0  0  0  0  0  0
    7.1008    6.4975   24.4962 H   0  0  0  0  0  0
    3.8564    5.3961   27.0283 H   0  0  0  0  0  0
    2.5459    7.2580   26.2213 H   0  0  0  0  0  0
    3.0936    9.0796   23.3282 H   0  0  0  0  0  0
    1.8657    9.3918   26.1126 H   0  0  0  0  0  0
    1.2035    8.4437   24.7900 H   0  0  0  0  0  0
   -2.7110   12.3694   23.2918 H   0  0  0  0  0  0
   -2.7032   10.7311   23.8888 H   0  0  0  0  0  0
    2.7476   14.1534   23.1679 H   0  0  0  0  0  0
    1.2609   14.5605   22.4351 H   0  0  0  0  0  0
    1.4976   14.9242   24.1521 H   0  0  0  0  0  0
    3.2610   13.6683   24.6685 H   0  0  0  0  0  0
    5.1772   14.3345   26.1768 H   0  0  0  0  0  0
    5.2882   15.2806   24.7334 H   0  0  0  0  0  0
    7.4811   13.3202   25.5668 H   0  0  0  0  0  0
    7.1812   16.1195   26.3913 H   0  0  0  0  0  0
    7.0556   14.8169   27.3423 H   0  0  0  0  0  0
    7.6607   15.9067   23.9391 H   0  0  0  0  0  0
    7.6703   14.2899   23.2300 H   0  0  0  0  0  0
    9.4218   15.0321   25.2879 H   0  0  0  0  0  0
  1  2  1  0  0  0
  1 35  1  0  0  0
  1 36  1  0  0  0
  1 37  1  0  0  0
  2  3  1  0  0  0
  3  4  2  0  0  0
  3  8  1  0  0  0
  4  5  1  0  0  0
  4 38  1  0  0  0
  5  6  2  0  0  0
  5 39  1  0  0  0
  6  7  1  0  0  0
  6 40  1  0  0  0
  7  8  2  0  0  0
  7  9  1  0  0  0
  9 10  2  0  0  0
  9 15  1  0  0  0
 10 11  1  0  0  0
 10 41  1  0  0  0
 11 12  1  0  0  0
 11 13  2  0  0  0
 13 14  1  0  0  0
 13 42  1  0  0  0
 14 15  2  0  0  0
 14 43  1  0  0  0
 15 16  1  0  0  0
 16 17  1  0  0  0
 16 27  1  0  0  0
 16 44  1  0  0  0
 17 18  1  0  0  0
 17 45  1  0  0  0
 17 46  1  0  0  0
 18 19  2  0  0  0
 18 25  1  0  0  0
 19 20  1  0  0  0
 20 21  1  0  0  0
 20 22  2  0  0  0
 21 47  1  0  0  0
 21 48  1  0  0  0
 22 23  1  0  0  0
 23 24  1  0  0  0
 23 25  2  0  0  0
 24 49  1  0  0  0
 24 50  1  0  0  0
 24 51  1  0  0  0
 25 26  1  0  0  0
 26 27  2  0  0  0
 26 28  1  0  0  0
 28 29  1  0  0  0
 28 52  1  0  0  0
 29 30  1  0  0  0
 30 31  1  0  0  0
 30 53  1  0  0  0
 30 54  1  0  0  0
 31 32  1  0  0  0
 31 33  1  0  0  0
 31 55  1  0  0  0
 32 56  1  0  0  0
 32 57  1  0  0  0
 33 34  1  0  0  0
 33 58  1  0  0  0
 33 59  1  0  0  0
 34 60  1  0  0  0
M  END
> <s_m_entry_id>
4982

> <s_m_entry_name>
dock_pv.301

> <s_m_Source_Path>
/home/csk/Desktop/cluster/DUD-E-result/hs90a

> <s_m_Source_File>
dock_pv.maegz

> <i_m_Source_File_Index>
301

> <chembl_id>
CHEMBL3675257

> <chembl_pref_name>
None

> <i_lp_mmshare_version>
53161

> <r_lp_tautomer_probability>
1

> <s_lp_Force_Field>
OPLS_2005

> <r_lp_Energy>
23.601393

> <b_lp_Chiralities_Consistent>
1

> <s_lp_Variant>
CHEMBL3880_lig442-1

> <s_i_glide_gridfile>
glide-grid_1uyg

> <i_i_glide_lignum>
484

> <i_i_glide_rotatable_bonds>
9

> <r_i_docking_score>
-7.74408761152516

> <r_i_glide_ligand_efficiency>
-0.227767282691916

> <r_i_glide_ligand_efficiency_sa>
-0.737877576086297

> <r_i_glide_ligand_efficiency_ln>
-1.71088616768587

> <r_i_glide_gscore>
-7.74408761152516

> <r_i_glide_lipo>
-3.33897439701815

> <r_i_glide_hbond>
-0.550475099525572

> <r_i_glide_metal>
0

> <r_i_glide_rewards>
-0.885766459062063

> <r_i_glide_evdw>
-38.1402206420898

> <r_i_glide_ecoul>
-11.2975177764893

> <r_i_glide_erotb>
0.646432744995465

> <r_i_glide_esite>
-0.0136657023369616

> <r_i_glide_emodel>
-64.1962841217994

> <r_i_glide_energy>
-49.4377384185791

> <r_i_glide_einternal>
12.4870386123657

> <i_i_glide_confnum>
93

> <i_i_glide_posenum>
91

> <r_i_glide_eff_state_penalty>
0

> <s_user_duplicate_titles>
CHEMBL3880_lig442

> <i_f3d_flags>
0

> <s_m_subgroup_title>
dock_pv

> <s_m_subgroupid>
dock_pv

> <b_m_subgroup_collapsed>
1

$$$$
CHEMBL3880_lig901
                    3D
 Schrodinger Suite 2021-1.
 56 58  0  0  1  0            999 V2000
    4.0693   10.9831   23.5062 N   0  0  0  0  0  0
    5.3690   10.7347   23.2757 C   0  0  0  0  0  0
    4.0346   12.2297   23.9252 C   0  0  0  0  0  0
    5.2565   12.8049   23.9670 N   0  0  0  0  0  0
    6.1442   11.8420   23.5685 C   0  0  0  0  0  0
    6.0414    9.5934   22.7736 C   0  0  0  0  0  0
    7.4896   11.9174   23.4493 N   0  0  0  0  0  0
   -0.9917   10.9458   24.4671 C   0  0  0  0  0  0
    7.3928    9.6392   22.6434 N   0  0  0  0  0  0
   -0.8674   12.1377   23.7394 C   0  0  0  0  0  0
    0.1339   10.3609   25.0696 C   0  0  0  0  0  0
    2.7948   13.0018   24.2613 C   0  0  0  0  0  0
    1.4883   12.2222   24.2723 C   0  0  0  0  0  0
    8.0150   10.7690   22.9985 C   0  0  0  0  0  0
    0.3695   12.7681   23.6501 C   0  0  0  0  0  0
    1.3674   11.0194   24.9708 C   0  0  0  0  0  0
    5.5592   14.2271   24.2552 C   0  0  0  0  0  0
    5.3951    8.4312   22.3683 N   0  0  0  0  0  0
   -2.2289   10.3690   24.6111 O   0  0  0  0  0  0
   -1.9598   12.7575   23.1897 O   0  0  0  0  0  0
   -0.0459    9.1744   25.7588 O   0  0  0  0  0  0
    5.9895   14.5288   25.6952 C   0  0  0  0  0  0
    7.2686   13.9691   25.9669 O   0  0  0  0  0  0
    8.4230   14.7825   25.8266 C   0  0  0  0  0  0
   -2.8028   10.5665   25.8971 C   0  0  0  0  0  0
    1.0646    8.5630   26.4061 C   0  0  0  0  0  0
   -2.1175   12.5594   21.7928 C   0  0  0  0  0  0
    8.6621   15.1851   24.3674 C   0  0  0  0  0  0
    9.6007   13.9859   26.4037 C   0  0  0  0  0  0
    2.9167   13.4381   25.2512 H   0  0  0  0  0  0
    2.7054   13.8400   23.5712 H   0  0  0  0  0  0
    9.0890   10.7673   22.8831 H   0  0  0  0  0  0
    0.4431   13.7070   23.1261 H   0  0  0  0  0  0
    2.2428   10.6214   25.4602 H   0  0  0  0  0  0
    6.3479   14.4838   23.5670 H   0  0  0  0  0  0
    4.6886   14.8142   23.9682 H   0  0  0  0  0  0
    4.3879    8.3765   22.4202 H   0  0  0  0  0  0
    5.9505    7.7044   21.9333 H   0  0  0  0  0  0
    5.9855   15.6044   25.8850 H   0  0  0  0  0  0
    5.2594   14.1016   26.3824 H   0  0  0  0  0  0
    8.3012   15.6781   26.4359 H   0  0  0  0  0  0
   -3.8717   10.3688   25.8774 H   0  0  0  0  0  0
   -2.3311    9.9689   26.6705 H   0  0  0  0  0  0
   -2.6824   11.5691   26.2500 H   0  0  0  0  0  0
    0.7372    7.6406   26.8864 H   0  0  0  0  0  0
    1.8498    8.3025   25.6942 H   0  0  0  0  0  0
    1.4808    9.2089   27.1818 H   0  0  0  0  0  0
   -2.9490   13.1688   21.4356 H   0  0  0  0  0  0
   -1.2293   12.8557   21.2331 H   0  0  0  0  0  0
   -2.3393   11.5165   21.5682 H   0  0  0  0  0  0
    9.6607   15.5685   24.2286 H   0  0  0  0  0  0
    8.5508   14.3392   23.6940 H   0  0  0  0  0  0
    7.9678   15.9622   24.0496 H   0  0  0  0  0  0
   10.5357   14.5419   26.3268 H   0  0  0  0  0  0
    9.4373   13.7692   27.4599 H   0  0  0  0  0  0
    9.7286   13.0347   25.8849 H   0  0  0  0  0  0
  1  2  1  0  0  0
  1  3  2  0  0  0
  2  5  1  0  0  0
  2  6  2  0  0  0
  3  4  1  0  0  0
  3 12  1  0  0  0
  4 17  1  0  0  0
  4  5  1  0  0  0
  5  7  2  0  0  0
  6  9  1  0  0  0
  6 18  1  0  0  0
  7 14  1  0  0  0
  8 11  1  0  0  0
  8 19  1  0  0  0
  8 10  2  0  0  0
  9 14  2  0  0  0
 10 15  1  0  0  0
 10 20  1  0  0  0
 11 16  2  0  0  0
 11 21  1  0  0  0
 12 13  1  0  0  0
 12 30  1  0  0  0
 12 31  1  0  0  0
 13 15  2  0  0  0
 13 16  1  0  0  0
 14 32  1  0  0  0
 15 33  1  0  0  0
 16 34  1  0  0  0
 17 22  1  0  0  0
 17 35  1  0  0  0
 17 36  1  0  0  0
 18 37  1  0  0  0
 18 38  1  0  0  0
 19 25  1  0  0  0
 20 27  1  0  0  0
 21 26  1  0  0  0
 22 23  1  0  0  0
 22 39  1  0  0  0
 22 40  1  0  0  0
 23 24  1  0  0  0
 24 28  1  0  0  0
 24 29  1  0  0  0
 24 41  1  0  0  0
 25 42  1  0  0  0
 25 43  1  0  0  0
 25 44  1  0  0  0
 26 45  1  0  0  0
 26 46  1  0  0  0
 26 47  1  0  0  0
 27 48  1  0  0  0
 27 49  1  0  0  0
 27 50  1  0  0  0
 28 51  1  0  0  0
 28 52  1  0  0  0
 28 53  1  0  0  0
 29 54  1  0  0  0
 29 55  1  0  0  0
 29 56  1  0  0  0
M  END
> <s_m_entry_id>
4983

> <s_m_entry_name>
dock_pv.302

> <s_m_Source_Path>
/home/csk/Desktop/cluster/DUD-E-result/hs90a

> <s_m_Source_File>
dock_pv.maegz

> <i_m_Source_File_Index>
302

> <chembl_id>
CHEMBL352683

> <chembl_pref_name>
None

> <i_lp_mmshare_version>
53161

> <r_lp_tautomer_probability>
0.999997216410988

> <s_lp_Force_Field>
OPLS_2005

> <r_lp_Energy>
25.692032

> <b_lp_Chiralities_Consistent>
1

> <s_lp_Variant>
CHEMBL3880_lig901-1

> <s_i_glide_gridfile>
glide-grid_1uyg

> <i_i_glide_lignum>
1007

> <i_i_glide_rotatable_bonds>
9

> <r_i_docking_score>
-7.74203522837008

> <r_i_glide_ligand_efficiency>
-0.266966732012761

> <r_i_glide_ligand_efficiency_sa>
-0.820206381740546

> <r_i_glide_ligand_efficiency_ln>
-1.7727297462224

> <r_i_glide_gscore>
-7.74203522837008

> <r_i_glide_lipo>
-3.56983037465952

> <r_i_glide_hbond>
-0.269595314050682

> <r_i_glide_metal>
0

> <r_i_glide_rewards>
-1.83567876390892

> <r_i_glide_evdw>
-46.9613647460938

> <r_i_glide_ecoul>
-2.16379547119141

> <r_i_glide_erotb>
0.608497117080647

> <r_i_glide_esite>
-0.00279033484820906

> <r_i_glide_emodel>
-66.6383759236089

> <r_i_glide_energy>
-49.1251602172852

> <r_i_glide_einternal>
8.54750919342041

> <i_i_glide_confnum>
44

> <i_i_glide_posenum>
162

> <r_i_glide_eff_state_penalty>
0

> <s_user_duplicate_titles>
CHEMBL3880_lig901

> <i_f3d_flags>
0

> <s_m_subgroup_title>
dock_pv

> <s_m_subgroupid>
dock_pv

> <b_m_subgroup_collapsed>
1

$$$$
CHEMBL3880_lig276
                    3D
 Schrodinger Suite 2021-1.
 58 61  0  0  1  0            999 V2000
    1.2272    8.5457   26.2092 C   0  0  0  0  0  0
    2.2657    7.6524   26.4581 C   0  0  0  0  0  0
    3.2144    7.3722   25.4751 C   0  0  0  0  0  0
    3.1306    7.9835   24.2102 C   0  0  0  0  0  0
    2.0826    8.8781   23.9676 C   0  0  0  0  0  0
    1.1391    9.1767   24.9590 C   0  0  0  0  0  0
    4.2195    6.4982   25.7923 O   0  0  0  0  0  0
    4.1483    7.7243   23.0872 C   0  0  0  0  0  0
    4.1325    6.2642   22.5961 C   0  0  0  0  0  0
    5.5676    8.2018   23.4517 C   0  0  0  0  0  0
    0.3288    8.7977   27.2141 O   0  0  0  0  0  0
    0.1303   10.1249   24.6799 N   0  0  0  0  0  0
    0.1970   11.4520   24.2802 C   0  0  0  0  0  0
   -1.1432   11.7772   24.0623 C   0  0  0  0  0  0
   -1.9381   10.7799   24.3678 N   0  0  0  0  0  0
   -1.1390    9.7393   24.7712 N   0  0  0  0  0  0
    1.4037   12.3273   24.2158 C   0  0  0  0  0  0
    1.2661   13.6370   23.7553 C   0  0  0  0  0  0
    2.2857   14.5614   23.9670 C   0  0  0  0  0  0
    3.4632   14.2005   24.6321 C   0  0  0  0  0  0
    3.6136   12.8673   24.9890 C   0  0  0  0  0  0
    2.6203   11.9370   24.7675 C   0  0  0  0  0  0
    4.5315   15.2373   25.0488 C   0  0  0  0  0  0
    5.8428   14.6408   25.3712 N   0  0  1  0  0  0
    6.5023   14.1130   24.1743 C   0  0  0  0  0  0
    7.6581   13.2004   24.5727 C   0  0  0  0  0  0
    8.7200   13.9870   25.3588 C   0  0  0  0  0  0
    8.0784   14.7286   26.5509 C   0  0  2  0  0  0
    6.7660   15.4848   26.1506 C   0  0  0  0  0  0
    9.0571   15.5496   27.1669 O   0  0  0  0  0  0
    2.3317    7.1827   27.4285 H   0  0  0  0  0  0
    2.0273    9.3710   23.0073 H   0  0  0  0  0  0
    4.1520    6.1859   26.6960 H   0  0  0  0  0  0
    3.8474    8.3238   22.2255 H   0  0  0  0  0  0
    3.1261    5.9570   22.3066 H   0  0  0  0  0  0
    4.4837    5.5716   23.3606 H   0  0  0  0  0  0
    4.7742    6.1372   21.7233 H   0  0  0  0  0  0
    5.5628    9.2401   23.7849 H   0  0  0  0  0  0
    6.0114    7.6012   24.2453 H   0  0  0  0  0  0
    6.2337    8.1385   22.5903 H   0  0  0  0  0  0
   -0.3886    9.3687   26.9297 H   0  0  0  0  0  0
   -1.5475   12.7277   23.7454 H   0  0  0  0  0  0
    0.3424   13.9694   23.3083 H   0  0  0  0  0  0
    2.1161   15.5693   23.6501 H   0  0  0  0  0  0
    4.4610   12.5598   25.5527 H   0  0  0  0  0  0
    2.7906   10.9704   25.2025 H   0  0  0  0  0  0
    4.6450   16.0035   24.2847 H   0  0  0  0  0  0
    4.1492   15.7456   25.9355 H   0  0  0  0  0  0
    5.8099   13.5295   23.5672 H   0  0  0  0  0  0
    6.8541   14.9449   23.5674 H   0  0  0  0  0  0
    7.2654   12.3730   25.1622 H   0  0  0  0  0  0
    8.0658   12.7510   23.6702 H   0  0  0  0  0  0
    9.4976   13.3074   25.7099 H   0  0  0  0  0  0
    9.2087   14.7063   24.6996 H   0  0  0  0  0  0
    7.8429   13.9695   27.2917 H   0  0  0  0  0  0
    6.9839   16.3687   25.5545 H   0  0  0  0  0  0
    6.2595   15.8288   27.0536 H   0  0  0  0  0  0
    8.9040   15.5689   28.1249 H   0  0  0  0  0  0
  1  2  2  0  0  0
  1  6  1  0  0  0
  1 11  1  0  0  0
  2  3  1  0  0  0
  2 31  1  0  0  0
  3  4  2  0  0  0
  3  7  1  0  0  0
  4  5  1  0  0  0
  4  8  1  0  0  0
  5  6  2  0  0  0
  5 32  1  0  0  0
  6 12  1  0  0  0
  7 33  1  0  0  0
  8  9  1  0  0  0
  8 10  1  0  0  0
  8 34  1  0  0  0
  9 35  1  0  0  0
  9 36  1  0  0  0
  9 37  1  0  0  0
 10 38  1  0  0  0
 10 39  1  0  0  0
 10 40  1  0  0  0
 11 41  1  0  0  0
 12 13  1  0  0  0
 12 16  1  0  0  0
 13 14  2  0  0  0
 13 17  1  0  0  0
 14 15  1  0  0  0
 14 42  1  0  0  0
 15 16  2  0  0  0
 17 18  2  0  0  0
 17 22  1  0  0  0
 18 19  1  0  0  0
 18 43  1  0  0  0
 19 20  2  0  0  0
 19 44  1  0  0  0
 20 21  1  0  0  0
 20 23  1  0  0  0
 21 22  2  0  0  0
 21 45  1  0  0  0
 22 46  1  0  0  0
 23 24  1  0  0  0
 23 47  1  0  0  0
 23 48  1  0  0  0
 24 25  1  0  0  0
 24 29  1  0  0  0
 25 26  1  0  0  0
 25 49  1  0  0  0
 25 50  1  0  0  0
 26 27  1  0  0  0
 26 51  1  0  0  0
 26 52  1  0  0  0
 27 28  1  0  0  0
 27 53  1  0  0  0
 27 54  1  0  0  0
 28 29  1  0  0  0
 28 30  1  0  0  0
 28 55  1  0  0  0
 29 56  1  0  0  0
 29 57  1  0  0  0
 30 58  1  0  0  0
M  END
> <s_m_entry_id>
4984

> <s_m_entry_name>
dock_pv.303

> <s_m_Source_Path>
/home/csk/Desktop/cluster/DUD-E-result/hs90a

> <s_m_Source_File>
dock_pv.maegz

> <i_m_Source_File_Index>
303

> <chembl_id>
CHEMBL3234763

> <chembl_pref_name>
None

> <i_lp_mmshare_version>
53161

> <r_lp_tautomer_probability>
1

> <s_lp_Force_Field>
OPLS_2005

> <r_lp_Energy>
35.679897

> <b_lp_Chiralities_Consistent>
1

> <s_lp_Variant>
CHEMBL3880_lig276-1

> <s_i_glide_gridfile>
glide-grid_1uyg

> <i_i_glide_lignum>
310

> <i_i_glide_rotatable_bonds>
8

> <r_i_docking_score>
-7.73748449854907

> <r_i_glide_ligand_efficiency>
-0.257916149951636

> <r_i_glide_ligand_efficiency_sa>
-0.801405444031612

> <r_i_glide_ligand_efficiency_ln>
-1.75804078471639

> <r_i_glide_gscore>
-7.73748449854907

> <r_i_glide_lipo>
-4.04387548551682

> <r_i_glide_hbond>
-0.504909257357062

> <r_i_glide_metal>
0

> <r_i_glide_rewards>
-1.29334985089487

> <r_i_glide_evdw>
-32.7394866943359

> <r_i_glide_ecoul>
-4.86782073974609

> <r_i_glide_erotb>
0.471797540898401

> <r_i_glide_esite>
0

> <r_i_glide_emodel>
-47.6456046181808

> <r_i_glide_energy>
-37.607307434082

> <r_i_glide_einternal>
7.92960834503174

> <i_i_glide_confnum>
13

> <i_i_glide_posenum>
342

> <r_i_glide_eff_state_penalty>
0

> <s_user_duplicate_titles>
CHEMBL3880_lig276

> <i_f3d_flags>
0

> <s_m_subgroup_title>
dock_pv

> <s_m_subgroupid>
dock_pv

> <b_m_subgroup_collapsed>
1

$$$$
CHEMBL3880_lig757
                    3D
 Schrodinger Suite 2021-1.
 35 36  0  0  1  0            999 V2000
    6.9754   13.0260   23.9669 C   0  0  0  0  0  0
    5.6257   12.7469   23.7648 C   0  0  0  0  0  0
    4.6262   13.4995   24.4035 C   0  0  0  0  0  0
    5.0319   14.5505   25.2457 C   0  0  0  0  0  0
    6.3833   14.8338   25.4409 C   0  0  0  0  0  0
    7.3690   14.0667   24.8021 C   0  0  0  0  0  0
    8.7311   14.2604   24.9464 O   0  0  0  0  0  0
    9.1973   15.2246   25.8818 C   0  0  0  0  0  0
    3.2357   13.1922   24.2388 N   0  0  0  0  0  0
    2.7757   11.8993   24.3668 C   0  0  0  0  0  0
    2.3038   14.3333   24.1781 C   0  0  0  0  0  0
    1.2875   11.5891   24.4686 C   0  0  0  0  0  0
    3.5373   10.9399   24.5277 O   0  0  0  0  0  0
    0.8873   10.7483   25.5190 C   0  0  0  0  0  0
   -0.4543   10.4751   25.7562 C   0  0  0  0  0  0
   -1.4284   11.0178   24.9299 C   0  0  0  0  0  0
   -1.0573   11.7912   23.8320 C   0  0  0  0  0  0
    0.2928   12.0563   23.5796 C   0  0  0  0  0  0
    0.5905   12.7274   22.4223 O   0  0  0  0  0  0
   -2.7390   10.7690   25.2200 O   0  0  0  0  0  0
    7.7240   12.4276   23.4690 H   0  0  0  0  0  0
    5.3631   11.9360   23.1007 H   0  0  0  0  0  0
    4.3159   15.1394   25.7962 H   0  0  0  0  0  0
    6.6473   15.6453   26.1021 H   0  0  0  0  0  0
   10.2852   15.1867   25.9293 H   0  0  0  0  0  0
    8.9193   16.2308   25.5712 H   0  0  0  0  0  0
    8.8143   15.0359   26.8871 H   0  0  0  0  0  0
    2.7338   15.2612   24.5383 H   0  0  0  0  0  0
    2.0265   14.5280   23.1452 H   0  0  0  0  0  0
    1.3909   14.1680   24.7477 H   0  0  0  0  0  0
    1.6197   10.3319   26.1978 H   0  0  0  0  0  0
   -0.7393    9.8551   26.5937 H   0  0  0  0  0  0
   -1.8236   12.1666   23.1697 H   0  0  0  0  0  0
   -0.2055   12.9819   21.9473 H   0  0  0  0  0  0
   -3.3996   11.3208   24.7666 H   0  0  0  0  0  0
  1  2  2  0  0  0
  1  6  1  0  0  0
  1 21  1  0  0  0
  2  3  1  0  0  0
  2 22  1  0  0  0
  3  4  2  0  0  0
  3  9  1  0  0  0
  4  5  1  0  0  0
  4 23  1  0  0  0
  5  6  2  0  0  0
  5 24  1  0  0  0
  6  7  1  0  0  0
  7  8  1  0  0  0
  8 25  1  0  0  0
  8 26  1  0  0  0
  8 27  1  0  0  0
  9 10  1  0  0  0
  9 11  1  0  0  0
 10 12  1  0  0  0
 10 13  2  0  0  0
 11 28  1  0  0  0
 11 29  1  0  0  0
 11 30  1  0  0  0
 12 14  2  0  0  0
 12 18  1  0  0  0
 14 15  1  0  0  0
 14 31  1  0  0  0
 15 16  2  0  0  0
 15 32  1  0  0  0
 16 17  1  0  0  0
 16 20  1  0  0  0
 17 18  2  0  0  0
 17 33  1  0  0  0
 18 19  1  0  0  0
 19 34  1  0  0  0
 20 35  1  0  0  0
M  END
> <s_m_entry_id>
4985

> <s_m_entry_name>
dock_pv.304

> <s_m_Source_Path>
/home/csk/Desktop/cluster/DUD-E-result/hs90a

> <s_m_Source_File>
dock_pv.maegz

> <i_m_Source_File_Index>
304

> <chembl_id>
CHEMBL4061698

> <chembl_pref_name>
None

> <i_lp_mmshare_version>
53161

> <r_lp_tautomer_probability>
0.999999999898

> <s_lp_Force_Field>
OPLS_2005

> <r_lp_Energy>
37.627991

> <b_lp_Chiralities_Consistent>
1

> <s_lp_Variant>
CHEMBL3880_lig757-1

> <s_i_glide_gridfile>
glide-grid_1uyg

> <i_i_glide_lignum>
858

> <i_i_glide_rotatable_bonds>
6

> <r_i_docking_score>
-7.7270976768979

> <r_i_glide_ligand_efficiency>
-0.386354883844895

> <r_i_glide_ligand_efficiency_sa>
-1.04872850191882

> <r_i_glide_ligand_efficiency_ln>
-1.93383769178936

> <r_i_glide_gscore>
-7.7270976768979

> <r_i_glide_lipo>
-3.67253193873454

> <r_i_glide_hbond>
-0.21272010268314

> <r_i_glide_metal>
0

> <r_i_glide_rewards>
-2.02464944930169

> <r_i_glide_evdw>
-35.1048164367676

> <r_i_glide_ecoul>
-5.21636962890625

> <r_i_glide_erotb>
0.720500079995792

> <r_i_glide_esite>
0

> <r_i_glide_emodel>
-56.5489719812165

> <r_i_glide_energy>
-40.3211860656738

> <r_i_glide_einternal>
5.34655237197876

> <i_i_glide_confnum>
12

> <i_i_glide_posenum>
2

> <r_i_glide_eff_state_penalty>
0

> <s_user_duplicate_titles>
CHEMBL3880_lig757

> <i_f3d_flags>
0

> <s_m_subgroup_title>
dock_pv

> <s_m_subgroupid>
dock_pv

> <b_m_subgroup_collapsed>
1

$$$$
CHEMBL3880_lig987
                    3D
 Schrodinger Suite 2021-1.
 47 50  0  0  1  0            999 V2000
    7.6522   14.4397   26.5529 C   0  0  0  0  0  0
    7.3231   14.6244   25.0612 C   0  0  0  0  0  0
    8.5966   15.1330   24.3671 C   0  0  0  0  0  0
    6.9418    9.2733   22.8271 C   0  0  0  0  0  0
    6.3512   10.5320   22.8905 C   0  0  0  0  0  0
    5.0304    8.3428   23.9672 C   0  0  0  0  0  0
    6.3139    8.1720   23.4418 C   0  0  0  0  0  0
    5.1458   10.7255   23.5708 C   0  0  0  0  0  0
    4.4528    9.6051   24.0721 C   0  0  0  0  0  0
    3.2925    9.7258   24.8010 O   0  0  0  0  0  0
    2.1123   10.1743   24.1381 C   0  0  0  0  0  0
    2.2966   11.3606   23.1769 C   0  0  0  0  0  0
    3.3032   12.3743   23.6903 C   0  0  0  0  0  0
    4.6383   12.0257   23.8072 N   0  0  0  0  0  0
    3.1356   13.6871   24.1038 C   0  0  0  0  0  0
    4.4094   14.1320   24.5064 C   0  0  0  0  0  0
    5.3427   13.1589   24.1889 C   0  0  0  0  0  0
    6.8707   13.2842   24.3663 C   0  0  0  0  0  0
    6.2599   15.7471   24.9614 C   0  0  0  0  0  0
    4.8020   15.3562   25.1742 C   0  0  0  0  0  0
    6.9679    6.8232   23.5867 C   0  0  0  0  0  0
    6.3682    5.7772   23.3477 O   0  0  0  0  0  0
    8.2174    6.8246   24.0510 N   0  0  0  0  0  0
    4.0643   15.9996   25.9130 O   0  0  0  0  0  0
    1.8371   14.4642   24.0172 C   0  0  0  0  0  0
    8.4588    9.1677   22.0057 Cl  0  0  0  0  0  0
    6.7470   14.3739   27.1486 H   0  0  0  0  0  0
    8.2653   13.5603   26.7342 H   0  0  0  0  0  0
    8.1997   15.2916   26.9599 H   0  0  0  0  0  0
    8.4004   15.4642   23.3537 H   0  0  0  0  0  0
    9.0290   15.9746   24.9027 H   0  0  0  0  0  0
    9.3652   14.3666   24.3388 H   0  0  0  0  0  0
    6.8740   11.3618   22.4415 H   0  0  0  0  0  0
    4.5106    7.5081   24.4178 H   0  0  0  0  0  0
    1.4012   10.4542   24.9155 H   0  0  0  0  0  0
    1.6631    9.3398   23.5980 H   0  0  0  0  0  0
    1.3257   11.8036   22.9523 H   0  0  0  0  0  0
    2.6369   10.9714   22.2181 H   0  0  0  0  0  0
    7.2755   13.2872   23.3542 H   0  0  0  0  0  0
    7.3113   12.4154   24.8575 H   0  0  0  0  0  0
    6.3078   16.2654   24.0073 H   0  0  0  0  0  0
    6.4570   16.4862   25.7266 H   0  0  0  0  0  0
    8.6905    5.9447   24.1779 H   0  0  0  0  0  0
    8.6917    7.6963   24.2435 H   0  0  0  0  0  0
    1.9534   15.5510   24.1116 H   0  0  0  0  0  0
    1.3924   14.3167   23.0343 H   0  0  0  0  0  0
    1.0806   14.0865   24.6993 H   0  0  0  0  0  0
  1  2  1  0  0  0
  1 27  1  0  0  0
  1 28  1  0  0  0
  1 29  1  0  0  0
  2  3  1  0  0  0
  2 18  1  0  0  0
  2 19  1  0  0  0
  3 30  1  0  0  0
  3 31  1  0  0  0
  3 32  1  0  0  0
  4  5  2  0  0  0
  4  7  1  0  0  0
  4 26  1  0  0  0
  5  8  1  0  0  0
  5 33  1  0  0  0
  6  9  1  0  0  0
  6  7  2  0  0  0
  6 34  1  0  0  0
  7 21  1  0  0  0
  8  9  2  0  0  0
  8 14  1  0  0  0
  9 10  1  0  0  0
 10 11  1  0  0  0
 11 12  1  0  0  0
 11 35  1  0  0  0
 11 36  1  0  0  0
 12 13  1  0  0  0
 12 37  1  0  0  0
 12 38  1  0  0  0
 13 14  1  0  0  0
 13 15  2  0  0  0
 14 17  1  0  0  0
 15 16  1  0  0  0
 15 25  1  0  0  0
 16 17  2  0  0  0
 16 20  1  0  0  0
 17 18  1  0  0  0
 18 39  1  0  0  0
 18 40  1  0  0  0
 19 20  1  0  0  0
 19 41  1  0  0  0
 19 42  1  0  0  0
 20 24  2  0  0  0
 21 22  2  0  0  0
 21 23  1  0  0  0
 23 43  1  0  0  0
 23 44  1  0  0  0
 25 45  1  0  0  0
 25 46  1  0  0  0
 25 47  1  0  0  0
M  END
> <s_m_entry_id>
4986

> <s_m_entry_name>
dock_pv.305

> <s_m_Source_Path>
/home/csk/Desktop/cluster/DUD-E-result/hs90a

> <s_m_Source_File>
dock_pv.maegz

> <i_m_Source_File_Index>
305

> <chembl_id>
CHEMBL3403719

> <chembl_pref_name>
None

> <i_lp_mmshare_version>
53161

> <r_lp_tautomer_probability>
0.99995

> <s_lp_Force_Field>
OPLS_2005

> <r_lp_Energy>
31.959497

> <b_lp_Chiralities_Consistent>
1

> <s_lp_Variant>
CHEMBL3880_lig987-1

> <s_i_glide_gridfile>
glide-grid_1uyg

> <i_i_glide_lignum>
1096

> <i_i_glide_rotatable_bonds>
1

> <r_i_docking_score>
-7.72141292853506

> <r_i_glide_ligand_efficiency>
-0.296977420328272

> <r_i_glide_ligand_efficiency_sa>
-0.879794439172783

> <r_i_glide_ligand_efficiency_ln>
-1.81334849024414

> <r_i_glide_gscore>
-7.72141292853506

> <r_i_glide_lipo>
-4.15017470325941

> <r_i_glide_hbond>
0

> <r_i_glide_metal>
0

> <r_i_glide_rewards>
-2.14554410808475

> <r_i_glide_evdw>
-33.4693069458008

> <r_i_glide_ecoul>
1.73676478862762

> <r_i_glide_erotb>
0

> <r_i_glide_esite>
-0.0127434881950041

> <r_i_glide_emodel>
-43.7439793971791

> <r_i_glide_energy>
-31.7325421571732

> <r_i_glide_einternal>
0.290031105279922

> <i_i_glide_confnum>
1

> <i_i_glide_posenum>
115

> <r_i_glide_eff_state_penalty>
0

> <s_user_duplicate_titles>
CHEMBL3880_lig987

> <i_f3d_flags>
0

> <s_m_subgroup_title>
dock_pv

> <s_m_subgroupid>
dock_pv

> <b_m_subgroup_collapsed>
1

$$$$
CHEMBL3880_lig823
                    3D
 Schrodinger Suite 2021-1.
 41 42  0  0  1  0            999 V2000
   -0.7141   10.3652   26.3506 C   0  0  0  0  0  0
   -1.8897   10.8502   25.7776 C   0  0  0  0  0  0
   -1.8412   11.4611   24.5320 C   0  0  0  0  0  0
   -0.6489   11.5687   23.8287 C   0  0  0  0  0  0
    0.5508   11.0462   24.3645 C   0  0  0  0  0  0
    0.4926   10.4900   25.6582 C   0  0  0  0  0  0
   -0.7398   12.1666   22.5971 O   0  0  0  0  0  0
   -3.0910   10.7689   26.4326 O   0  0  0  0  0  0
   -0.7345    9.5996   27.9035 Cl  0  0  0  0  0  0
    1.8554   11.0942   23.5669 C   0  0  0  0  0  0
    2.8456   10.1751   23.7759 N   0  0  0  0  0  0
    1.9938   11.9648   22.7032 O   0  0  0  0  0  0
    2.6297    8.8339   24.3419 C   0  0  0  0  0  0
    4.1676   10.2706   23.1144 C   0  0  0  0  0  0
    5.1643   11.3493   23.5668 C   0  0  0  0  0  0
    6.5218   11.0194   23.5638 C   0  0  0  0  0  0
    7.4785   11.9484   23.9611 C   0  0  0  0  0  0
    7.0947   13.2320   24.3668 C   0  0  0  0  0  0
    5.7377   13.5697   24.3661 C   0  0  0  0  0  0
    4.7819   12.6372   23.9671 C   0  0  0  0  0  0
    8.1152   14.2491   24.8020 C   0  0  0  0  0  0
    9.1169   13.7819   25.5670 N   0  0  0  0  0  0
    8.0083   15.4277   24.4708 O   0  0  0  0  0  0
   10.1817   14.5984   26.1403 C   0  0  0  0  0  0
   -2.7393   11.8572   24.0931 H   0  0  0  0  0  0
    1.3874   10.1398   26.1521 H   0  0  0  0  0  0
   -1.6435   12.4069   22.3783 H   0  0  0  0  0  0
   -3.8265   11.1687   25.9460 H   0  0  0  0  0  0
    1.5879    8.5983   24.5529 H   0  0  0  0  0  0
    2.9543    8.0692   23.6334 H   0  0  0  0  0  0
    3.2123    8.7079   25.2561 H   0  0  0  0  0  0
    4.6825    9.3125   23.2076 H   0  0  0  0  0  0
    4.0055   10.3695   22.0406 H   0  0  0  0  0  0
    6.8455   10.0361   23.2537 H   0  0  0  0  0  0
    8.5189   11.6575   23.9446 H   0  0  0  0  0  0
    5.4141   14.5567   24.6676 H   0  0  0  0  0  0
    3.7532   12.9506   23.9897 H   0  0  0  0  0  0
    9.0877   12.8117   25.8404 H   0  0  0  0  0  0
   11.1373   14.0815   26.0501 H   0  0  0  0  0  0
   10.2780   15.5684   25.6491 H   0  0  0  0  0  0
    9.9886   14.7722   27.1999 H   0  0  0  0  0  0
  1  2  2  0  0  0
  1  6  1  0  0  0
  1  9  1  0  0  0
  2  3  1  0  0  0
  2  8  1  0  0  0
  3  4  2  0  0  0
  3 25  1  0  0  0
  4  5  1  0  0  0
  4  7  1  0  0  0
  5  6  2  0  0  0
  5 10  1  0  0  0
  6 26  1  0  0  0
  7 27  1  0  0  0
  8 28  1  0  0  0
 10 11  1  0  0  0
 10 12  2  0  0  0
 11 13  1  0  0  0
 11 14  1  0  0  0
 13 29  1  0  0  0
 13 30  1  0  0  0
 13 31  1  0  0  0
 14 15  1  0  0  0
 14 32  1  0  0  0
 14 33  1  0  0  0
 15 16  2  0  0  0
 15 20  1  0  0  0
 16 17  1  0  0  0
 16 34  1  0  0  0
 17 18  2  0  0  0
 17 35  1  0  0  0
 18 19  1  0  0  0
 18 21  1  0  0  0
 19 20  2  0  0  0
 19 36  1  0  0  0
 20 37  1  0  0  0
 21 22  1  0  0  0
 21 23  2  0  0  0
 22 24  1  0  0  0
 22 38  1  0  0  0
 24 39  1  0  0  0
 24 40  1  0  0  0
 24 41  1  0  0  0
M  END
> <s_m_entry_id>
4987

> <s_m_entry_name>
dock_pv.306

> <s_m_Source_Path>
/home/csk/Desktop/cluster/DUD-E-result/hs90a

> <s_m_Source_File>
dock_pv.maegz

> <i_m_Source_File_Index>
306

> <chembl_id>
CHEMBL4294168

> <chembl_pref_name>
None

> <i_lp_mmshare_version>
53161

> <r_lp_tautomer_probability>
0.999999999898

> <s_lp_Force_Field>
OPLS_2005

> <r_lp_Energy>
28.225357

> <b_lp_Chiralities_Consistent>
1

> <s_lp_Variant>
CHEMBL3880_lig823-1

> <s_i_glide_gridfile>
glide-grid_1uyg

> <i_i_glide_lignum>
924

> <i_i_glide_rotatable_bonds>
8

> <r_i_docking_score>
-7.71748732838331

> <r_i_glide_ligand_efficiency>
-0.321561972015971

> <r_i_glide_ligand_efficiency_sa>
-0.927545230951878

> <r_i_glide_ligand_efficiency_ln>
-1.84714885010005

> <r_i_glide_gscore>
-7.71748732838331

> <r_i_glide_lipo>
-3.26966662103527

> <r_i_glide_hbond>
-0.208965751615061

> <r_i_glide_metal>
0

> <r_i_glide_rewards>
-1.95306503497288

> <r_i_glide_evdw>
-40.1546669006348

> <r_i_glide_ecoul>
-7.07116270065308

> <r_i_glide_erotb>
0.782617829369601

> <r_i_glide_esite>
0

> <r_i_glide_emodel>
-67.2632371571348

> <r_i_glide_energy>
-47.2258296012878

> <r_i_glide_einternal>
5.77734327316284

> <i_i_glide_confnum>
37

> <i_i_glide_posenum>
231

> <r_i_glide_eff_state_penalty>
0

> <s_user_duplicate_titles>
CHEMBL3880_lig823

> <i_f3d_flags>
0

> <s_m_subgroup_title>
dock_pv

> <s_m_subgroupid>
dock_pv

> <b_m_subgroup_collapsed>
1

$$$$
CHEMBL3880_lig161
                    3D
 Schrodinger Suite 2021-1.
 45 47  0  0  1  0            999 V2000
    4.7991   15.6862   25.2012 C   0  0  0  0  0  0
    3.5450   15.1688   24.7656 O   0  0  0  0  0  0
    3.4476   13.8540   24.3670 C   0  0  0  0  0  0
    2.1919   13.3996   23.9667 C   0  0  0  0  0  0
    2.0017   12.0592   23.6369 C   0  0  0  0  0  0
    4.5236   12.9651   24.3684 C   0  0  0  0  0  0
    4.3129   11.6165   24.1235 C   0  0  0  0  0  0
    3.0520   11.1462   23.7690 C   0  0  0  0  0  0
    2.8900    9.6695   23.5770 C   0  0  0  0  0  0
    3.6580    8.8253   22.7675 C   0  0  0  0  0  0
    4.8175    9.1089   21.9789 C   0  0  0  0  0  0
    4.7423    9.5129   20.8177 O   0  0  0  0  0  0
    5.9527    9.0363   22.6910 N   0  0  0  0  0  0
    7.2218    9.5891   22.2370 C   0  0  0  0  0  0
    7.3242   11.0844   22.5713 C   0  0  0  0  0  0
    3.1744    7.5680   23.0076 N   0  0  0  0  0  0
    2.1641    7.5428   23.8788 N   0  0  0  0  0  0
    1.9906    8.7970   24.2383 C   0  0  0  0  0  0
    0.9702    9.1472   25.2705 C   0  0  0  0  0  0
   -0.1113    9.9236   24.8577 C   0  0  0  0  0  0
   -1.0674   10.3614   25.7574 C   0  0  0  0  0  0
   -2.3390   11.3543   25.1677 Cl  0  0  0  0  0  0
   -0.9935    9.9716   27.0929 C   0  0  0  0  0  0
   -1.9661   10.3661   27.9682 O   0  0  0  0  0  0
    0.0637    9.1690   27.5255 C   0  0  0  0  0  0
    1.0560    8.7718   26.6229 C   0  0  0  0  0  0
    2.1099    8.0319   27.0901 O   0  0  0  0  0  0
    4.6821   16.7350   25.4761 H   0  0  0  0  0  0
    5.5489   15.6356   24.4101 H   0  0  0  0  0  0
    5.1675   15.1553   26.0807 H   0  0  0  0  0  0
    1.3629   14.0895   23.9203 H   0  0  0  0  0  0
    1.0294   11.7465   23.3010 H   0  0  0  0  0  0
    5.5135   13.2837   24.6516 H   0  0  0  0  0  0
    5.1351   10.9325   24.2557 H   0  0  0  0  0  0
    5.9439    8.5478   23.5737 H   0  0  0  0  0  0
    8.0311    9.0426   22.7238 H   0  0  0  0  0  0
    7.3506    9.4351   21.1672 H   0  0  0  0  0  0
    8.0801   11.5694   21.9684 H   0  0  0  0  0  0
    6.3957   11.6138   22.3671 H   0  0  0  0  0  0
    7.5763   11.2423   23.6203 H   0  0  0  0  0  0
    3.5188    6.7265   22.5671 H   0  0  0  0  0  0
   -0.2318   10.2067   23.8294 H   0  0  0  0  0  0
   -2.6608   10.8664   27.5279 H   0  0  0  0  0  0
    0.1171    8.8794   28.5653 H   0  0  0  0  0  0
    2.0764    7.9123   28.0414 H   0  0  0  0  0  0
  1  2  1  0  0  0
  1 28  1  0  0  0
  1 29  1  0  0  0
  1 30  1  0  0  0
  2  3  1  0  0  0
  3  4  2  0  0  0
  3  6  1  0  0  0
  4  5  1  0  0  0
  4 31  1  0  0  0
  5  8  2  0  0  0
  5 32  1  0  0  0
  6  7  2  0  0  0
  6 33  1  0  0  0
  7  8  1  0  0  0
  7 34  1  0  0  0
  8  9  1  0  0  0
  9 10  2  0  0  0
  9 18  1  0  0  0
 10 16  1  0  0  0
 10 11  1  0  0  0
 11 12  2  0  0  0
 11 13  1  0  0  0
 13 14  1  0  0  0
 13 35  1  0  0  0
 14 15  1  0  0  0
 14 36  1  0  0  0
 14 37  1  0  0  0
 15 38  1  0  0  0
 15 39  1  0  0  0
 15 40  1  0  0  0
 16 17  1  0  0  0
 16 41  1  0  0  0
 17 18  2  0  0  0
 18 19  1  0  0  0
 19 20  2  0  0  0
 19 26  1  0  0  0
 20 21  1  0  0  0
 20 42  1  0  0  0
 21 22  1  0  0  0
 21 23  2  0  0  0
 23 24  1  0  0  0
 23 25  1  0  0  0
 24 43  1  0  0  0
 25 26  2  0  0  0
 25 44  1  0  0  0
 26 27  1  0  0  0
 27 45  1  0  0  0
M  END
> <s_m_entry_id>
4988

> <s_m_entry_name>
dock_pv.307

> <s_m_Source_Path>
/home/csk/Desktop/cluster/DUD-E-result/hs90a

> <s_m_Source_File>
dock_pv.maegz

> <i_m_Source_File_Index>
307

> <chembl_id>
CHEMBL365617

> <chembl_pref_name>
None

> <i_lp_mmshare_version>
53161

> <r_lp_tautomer_probability>
0.4999999999745

> <s_lp_Force_Field>
OPLS_2005

> <r_lp_Energy>
27.958969

> <b_lp_Chiralities_Consistent>
1

> <s_lp_Variant>
CHEMBL3880_lig161-2

> <s_i_glide_gridfile>
glide-grid_1uyg

> <i_i_glide_lignum>
191

> <i_i_glide_rotatable_bonds>
8

> <r_i_docking_score>
-7.71307657254619

> <r_i_glide_ligand_efficiency>
-0.285669502686896

> <r_i_glide_ligand_efficiency_sa>
-0.857008507119168

> <r_i_glide_ligand_efficiency_ln>
-1.79547706608336

> <r_i_glide_gscore>
-7.71307657254619

> <r_i_glide_lipo>
-4.20040070706323

> <r_i_glide_hbond>
-0.0894084362705082

> <r_i_glide_metal>
0

> <r_i_glide_rewards>
-1.13695557969407

> <r_i_glide_evdw>
-44.0002784729004

> <r_i_glide_ecoul>
-3.99101233482361

> <r_i_glide_erotb>
0.518015871141626

> <r_i_glide_esite>
-0.00566194679145216

> <r_i_glide_emodel>
-60.4349422180902

> <r_i_glide_energy>
-47.991290807724

> <r_i_glide_einternal>
17.0169277191162

> <i_i_glide_confnum>
24

> <i_i_glide_posenum>
209

> <r_i_glide_eff_state_penalty>
0

> <s_user_duplicate_titles>
CHEMBL3880_lig161,CHEMBL3880_lig161,317497

> <i_f3d_flags>
0

> <s_m_subgroup_title>
dock_pv

> <s_m_subgroupid>
dock_pv

> <b_m_subgroup_collapsed>
1

$$$$
CHEMBL3880_lig56
                    3D
 Schrodinger Suite 2021-1.
 35 37  0  0  1  0            999 V2000
   11.3573   13.8726   25.5374 O   0  5  0  0  0  0
   10.9215   15.6196   26.7669 O   0  0  0  0  0  0
    3.2173   12.8613   23.8507 N   0  0  0  0  0  0
   10.6010   14.7144   26.0129 N   0  3  0  0  0  0
    4.6011   12.8823   23.9774 C   0  0  0  0  0  0
    4.9398   14.0892   24.6663 C   0  0  0  0  0  0
    3.7275   14.7872   24.9140 C   0  0  0  0  0  0
    6.2794   14.3672   24.9568 C   0  0  0  0  0  0
    2.7127   14.0358   24.3667 C   0  0  0  0  0  0
    5.5869   11.9739   23.5664 C   0  0  0  0  0  0
    7.2629   13.4396   24.5967 C   0  0  0  0  0  0
    2.4368   11.8481   23.1455 C   0  0  0  0  0  0
    6.9093   12.2840   23.8910 C   0  0  0  0  0  0
    0.9998   11.6923   23.6294 C   0  0  0  0  0  0
    8.6693   13.6118   25.0021 C   0  0  0  0  0  0
    0.7290   10.9120   24.7571 C   0  0  0  0  0  0
   -0.0448   12.3254   22.9470 C   0  0  0  0  0  0
    9.1808   14.6842   25.6472 C   0  0  0  0  0  0
   -0.5836   10.7386   25.1853 C   0  0  0  0  0  0
   -1.3592   12.1490   23.3731 C   0  0  0  0  0  0
   -1.6200   11.3525   24.4862 C   0  0  0  0  0  0
    3.6282   15.7407   25.4108 H   0  0  0  0  0  0
    6.5244   15.2685   25.4977 H   0  0  0  0  0  0
    1.6505   14.2311   24.3253 H   0  0  0  0  0  0
    5.3441   11.0604   23.0456 H   0  0  0  0  0  0
    2.4607   12.0880   22.0809 H   0  0  0  0  0  0
    2.9438   10.8865   23.2459 H   0  0  0  0  0  0
    7.6789   11.5778   23.6084 H   0  0  0  0  0  0
    9.3102   12.7742   24.7673 H   0  0  0  0  0  0
    1.5341   10.4333   25.2961 H   0  0  0  0  0  0
    0.1571   12.9384   22.0806 H   0  0  0  0  0  0
    8.6447   15.5681   25.9546 H   0  0  0  0  0  0
   -0.7999   10.1252   26.0465 H   0  0  0  0  0  0
   -2.1756   12.6194   22.8438 H   0  0  0  0  0  0
   -2.6432   11.2130   24.8079 H   0  0  0  0  0  0
  1  4  1  0  0  0
  2  4  2  0  0  0
  3  5  1  0  0  0
  3  9  1  0  0  0
  3 12  1  0  0  0
  4 18  1  0  0  0
  5  6  1  0  0  0
  5 10  2  0  0  0
  6  7  1  0  0  0
  6  8  2  0  0  0
  7  9  2  0  0  0
  7 22  1  0  0  0
  8 11  1  0  0  0
  8 23  1  0  0  0
  9 24  1  0  0  0
 10 13  1  0  0  0
 10 25  1  0  0  0
 11 13  2  0  0  0
 11 15  1  0  0  0
 12 14  1  0  0  0
 12 26  1  0  0  0
 12 27  1  0  0  0
 13 28  1  0  0  0
 14 16  2  0  0  0
 14 17  1  0  0  0
 15 18  2  0  0  0
 15 29  1  0  0  0
 16 19  1  0  0  0
 16 30  1  0  0  0
 17 20  2  0  0  0
 17 31  1  0  0  0
 18 32  1  0  0  0
 19 21  2  0  0  0
 19 33  1  0  0  0
 20 21  1  0  0  0
 20 34  1  0  0  0
 21 35  1  0  0  0
M  CHG  2   1  -1   4   1
M  END
> <s_m_entry_id>
4989

> <s_m_entry_name>
dock_pv.308

> <s_m_Source_Path>
/home/csk/Desktop/cluster/DUD-E-result/hs90a

> <s_m_Source_File>
dock_pv.maegz

> <i_m_Source_File_Index>
308

> <chembl_id>
CHEMBL1453089

> <chembl_pref_name>
None

> <i_lp_mmshare_version>
53161

> <r_lp_tautomer_probability>
1

> <s_lp_Force_Field>
OPLS_2005

> <r_lp_Energy>
15.99342

> <b_lp_Chiralities_Consistent>
1

> <s_lp_Variant>
CHEMBL3880_lig56-1

> <s_i_glide_gridfile>
glide-grid_1uyg

> <i_i_glide_lignum>
62

> <i_i_glide_rotatable_bonds>
4

> <r_i_docking_score>
-7.71126774755493

> <r_i_glide_ligand_efficiency>
-0.367203226074044

> <r_i_glide_ligand_efficiency_sa>
-1.0130858570327

> <r_i_glide_ligand_efficiency_ln>
-1.90659536849929

> <r_i_glide_gscore>
-7.71126774755493

> <r_i_glide_lipo>
-4.05019923975744

> <r_i_glide_hbond>
0

> <r_i_glide_metal>
0

> <r_i_glide_rewards>
-2.62669059375526

> <r_i_glide_evdw>
-37.7700653076172

> <r_i_glide_ecoul>
-0.507242381572723

> <r_i_glide_erotb>
0.93081265946433

> <r_i_glide_esite>
-0.000600950889793074

> <r_i_glide_emodel>
-54.5385239075513

> <r_i_glide_energy>
-38.2773076891899

> <r_i_glide_einternal>
2.10687589645386

> <i_i_glide_confnum>
3

> <i_i_glide_posenum>
277

> <r_i_glide_eff_state_penalty>
0

> <s_user_duplicate_titles>
CHEMBL3880_lig56

> <i_f3d_flags>
0

> <s_m_subgroup_title>
dock_pv

> <s_m_subgroupid>
dock_pv

> <b_m_subgroup_collapsed>
1

$$$$
CHEMBL3880_lig281
                    3D
 Schrodinger Suite 2021-1.
 67 70  0  0  1  0            999 V2000
    0.1648    7.8125   27.5753 C   0  0  0  0  0  0
   -0.6774    8.7682   28.1327 C   0  0  0  0  0  0
   -1.1381    9.8432   27.3840 C   0  0  0  0  0  0
   -0.7120   10.0109   26.0559 C   0  0  0  0  0  0
    0.0971    9.0265   25.4827 C   0  0  0  0  0  0
    0.5562    7.9361   26.2326 C   0  0  0  0  0  0
   -2.0373   10.6883   27.9666 O   0  0  0  0  0  0
   -1.1279   11.2370   25.2366 C   0  0  0  0  0  0
   -2.3005   10.9014   24.3128 C   0  0  0  0  0  0
    0.0439   11.8776   24.4618 C   0  0  0  0  0  0
    0.5917    6.7822   28.3728 O   0  0  0  0  0  0
    1.4613    7.0284   25.6321 N   0  0  0  0  0  0
    2.6022    7.2988   24.8969 C   0  0  0  0  0  0
    3.1454    6.0292   24.6185 C   0  0  0  0  0  0
    2.3180    5.0995   25.0659 N   0  0  0  0  0  0
    1.2732    5.7086   25.7343 N   0  0  0  0  0  0
    4.3668    5.7381   23.8965 C   0  0  0  0  0  0
    5.3487    6.6403   24.0959 N   0  0  0  0  0  0
    4.4889    4.7410   23.1919 O   0  0  0  0  0  0
    6.6845    6.6173   23.5061 C   0  0  0  0  0  0
    7.7630    6.7826   24.5815 C   0  0  0  0  0  0
    3.0832    8.6688   24.5430 C   0  0  0  0  0  0
    3.1891    9.6629   25.5172 C   0  0  0  0  0  0
    3.6536   10.9258   25.1728 C   0  0  0  0  0  0
    4.0538   11.1999   23.8655 C   0  0  0  0  0  0
    3.9483   10.1959   22.8959 C   0  0  0  0  0  0
    3.4483    8.9440   23.2281 C   0  0  0  0  0  0
    4.5813   12.5699   23.4451 C   0  0  0  0  0  0
    4.9261   13.4795   24.5499 N   0  0  0  0  0  0
    6.3369   13.9081   24.5116 C   0  0  0  0  0  0
    6.7421   14.8668   25.6508 C   0  0  0  0  0  0
    5.7197   15.9797   25.8644 C   0  0  0  0  0  0
    4.3170   15.4090   25.9901 C   0  0  0  0  0  0
    3.9385   14.5410   24.7777 C   0  0  0  0  0  0
   -0.9793    8.6883   29.1665 H   0  0  0  0  0  0
    0.3934    9.1227   24.4457 H   0  0  0  0  0  0
   -2.6611   11.0660   27.3391 H   0  0  0  0  0  0
   -1.4788   12.0014   25.9249 H   0  0  0  0  0  0
   -3.1376   10.4691   24.8600 H   0  0  0  0  0  0
   -1.9907   10.1775   23.5672 H   0  0  0  0  0  0
   -2.6602   11.7793   23.7782 H   0  0  0  0  0  0
    0.8753   12.1105   25.1269 H   0  0  0  0  0  0
    0.4244   11.2345   23.6714 H   0  0  0  0  0  0
   -0.2591   12.8101   23.9868 H   0  0  0  0  0  0
    1.1467    6.1655   27.8911 H   0  0  0  0  0  0
    5.0945    7.4841   24.5839 H   0  0  0  0  0  0
    6.8642    5.7042   22.9339 H   0  0  0  0  0  0
    6.7507    7.4357   22.7862 H   0  0  0  0  0  0
    8.7595    6.7684   24.1393 H   0  0  0  0  0  0
    7.6570    7.7335   25.1043 H   0  0  0  0  0  0
    7.7022    5.9838   25.3174 H   0  0  0  0  0  0
    2.9066    9.4656   26.5451 H   0  0  0  0  0  0
    3.7060   11.6716   25.9624 H   0  0  0  0  0  0
    4.2644   10.3687   21.8802 H   0  0  0  0  0  0
    3.3664    8.1839   22.4607 H   0  0  0  0  0  0
    5.4594   12.3859   22.8211 H   0  0  0  0  0  0
    3.8340   13.0089   22.7774 H   0  0  0  0  0  0
    6.9632   13.0168   24.5435 H   0  0  0  0  0  0
    6.5499   14.3930   23.5668 H   0  0  0  0  0  0
    6.9182   14.3499   26.5861 H   0  0  0  0  0  0
    7.7094   15.3111   25.4075 H   0  0  0  0  0  0
    5.7538   16.6796   25.0280 H   0  0  0  0  0  0
    5.9681   16.5312   26.7677 H   0  0  0  0  0  0
    3.6606   16.2686   26.0625 H   0  0  0  0  0  0
    4.1783   14.8494   26.9155 H   0  0  0  0  0  0
    3.8513   15.1645   23.8871 H   0  0  0  0  0  0
    2.9627   14.0827   24.9366 H   0  0  0  0  0  0
  1  2  2  0  0  0
  1  6  1  0  0  0
  1 11  1  0  0  0
  2  3  1  0  0  0
  2 35  1  0  0  0
  3  4  2  0  0  0
  3  7  1  0  0  0
  4  5  1  0  0  0
  4  8  1  0  0  0
  5  6  2  0  0  0
  5 36  1  0  0  0
  6 12  1  0  0  0
  7 37  1  0  0  0
  8  9  1  0  0  0
  8 10  1  0  0  0
  8 38  1  0  0  0
  9 39  1  0  0  0
  9 40  1  0  0  0
  9 41  1  0  0  0
 10 42  1  0  0  0
 10 43  1  0  0  0
 10 44  1  0  0  0
 11 45  1  0  0  0
 12 13  1  0  0  0
 12 16  1  0  0  0
 13 14  2  0  0  0
 13 22  1  0  0  0
 14 15  1  0  0  0
 14 17  1  0  0  0
 15 16  2  0  0  0
 17 18  1  0  0  0
 17 19  2  0  0  0
 18 20  1  0  0  0
 18 46  1  0  0  0
 20 21  1  0  0  0
 20 47  1  0  0  0
 20 48  1  0  0  0
 21 49  1  0  0  0
 21 50  1  0  0  0
 21 51  1  0  0  0
 22 23  2  0  0  0
 22 27  1  0  0  0
 23 24  1  0  0  0
 23 52  1  0  0  0
 24 25  2  0  0  0
 24 53  1  0  0  0
 25 26  1  0  0  0
 25 28  1  0  0  0
 26 27  2  0  0  0
 26 54  1  0  0  0
 27 55  1  0  0  0
 28 29  1  0  0  0
 28 56  1  0  0  0
 28 57  1  0  0  0
 29 30  1  0  0  0
 29 34  1  0  0  0
 30 31  1  0  0  0
 30 58  1  0  0  0
 30 59  1  0  0  0
 31 32  1  0  0  0
 31 60  1  0  0  0
 31 61  1  0  0  0
 32 33  1  0  0  0
 32 62  1  0  0  0
 32 63  1  0  0  0
 33 34  1  0  0  0
 33 64  1  0  0  0
 33 65  1  0  0  0
 34 66  1  0  0  0
 34 67  1  0  0  0
M  END
> <s_m_entry_id>
4990

> <s_m_entry_name>
dock_pv.309

> <s_m_Source_Path>
/home/csk/Desktop/cluster/DUD-E-result/hs90a

> <s_m_Source_File>
dock_pv.maegz

> <i_m_Source_File_Index>
309

> <chembl_id>
CHEMBL3234768

> <chembl_pref_name>
None

> <i_lp_mmshare_version>
53161

> <r_lp_tautomer_probability>
1

> <s_lp_Force_Field>
OPLS_2005

> <r_lp_Energy>
35.484368

> <b_lp_Chiralities_Consistent>
1

> <s_lp_Variant>
CHEMBL3880_lig281-1

> <s_i_glide_gridfile>
glide-grid_1uyg

> <i_i_glide_lignum>
317

> <i_i_glide_rotatable_bonds>
10

> <r_i_docking_score>
-7.70974528069238

> <r_i_glide_ligand_efficiency>
-0.226757214138011

> <r_i_glide_ligand_efficiency_sa>
-0.734605346082812

> <r_i_glide_ligand_efficiency_ln>
-1.70329898353516

> <r_i_glide_gscore>
-7.70974528069238

> <r_i_glide_lipo>
-4.55539096983663

> <r_i_glide_hbond>
-0.0362720503882659

> <r_i_glide_metal>
0

> <r_i_glide_rewards>
-0.741868115921804

> <r_i_glide_evdw>
-40.6266403198242

> <r_i_glide_ecoul>
-6.05032253265381

> <r_i_glide_erotb>
0.562666251343597

> <r_i_glide_esite>
0

> <r_i_glide_emodel>
-46.3985661176138

> <r_i_glide_energy>
-46.676962852478

> <r_i_glide_einternal>
20.6070652008057

> <i_i_glide_confnum>
60

> <i_i_glide_posenum>
371

> <r_i_glide_eff_state_penalty>
0

> <s_user_duplicate_titles>
CHEMBL3880_lig281

> <i_f3d_flags>
0

> <s_m_subgroup_title>
dock_pv

> <s_m_subgroupid>
dock_pv

> <b_m_subgroup_collapsed>
1

$$$$
CHEMBL3880_lig899
                    3D
 Schrodinger Suite 2021-1.
 54 56  0  0  1  0            999 V2000
    1.5791   10.8111   24.6039 C   0  0  0  0  0  0
    1.1439    9.6020   26.3675 C   0  0  0  0  0  0
    2.1116    9.8957   25.4512 N   0  0  0  0  0  0
    0.0515   10.3467   25.9768 C   0  0  0  0  0  0
    0.3298   11.0901   24.8917 N   0  0  0  0  0  0
    1.1975    8.7689   27.4326 N   0  0  0  0  0  0
   -1.0866    9.3960   27.8417 N   0  0  0  0  0  0
   -1.1239   10.1898   26.7412 C   0  0  0  0  0  0
    4.6371   14.4588   24.7200 C   0  0  0  0  0  0
    0.0487    8.7391   28.1263 C   0  0  0  0  0  0
    3.7182   12.4034   23.8184 C   0  0  0  0  0  0
    3.5262   13.6887   24.3404 C   0  0  0  0  0  0
    2.3747   11.4467   23.1575 S   0  0  0  0  0  0
    5.9384   13.9690   24.5312 C   0  0  0  0  0  0
    6.1360   12.6956   23.9669 C   0  0  0  0  0  0
    5.0134   11.9236   23.6279 C   0  0  0  0  0  0
    3.4607    9.3093   25.4062 C   0  0  0  0  0  0
   -2.3388   10.7690   26.4012 N   0  0  0  0  0  0
    1.9424   14.3920   24.3670 Cl  0  0  0  0  0  0
    0.0403    7.9495   29.2216 F   0  0  0  0  0  0
    4.4607   15.7417   25.1782 O   0  0  0  0  0  0
    7.0045   14.7937   24.8226 O   0  0  0  0  0  0
    7.4362   12.2698   23.7623 O   0  0  0  0  0  0
    3.6420    8.3729   24.2029 C   0  0  0  0  0  0
    5.0248    8.3843   23.8616 O   0  0  0  0  0  0
    5.4268    7.7062   22.6709 C   0  0  0  0  0  0
    4.3814   15.8579   26.5893 C   0  0  0  0  0  0
    7.8254   14.3925   25.9130 C   0  0  0  0  0  0
    7.6814   10.9571   23.2646 C   0  0  0  0  0  0
    4.8603    8.3871   21.4076 C   0  0  0  0  0  0
    5.1139    6.2006   22.7403 C   0  0  0  0  0  0
    5.1327   10.9502   23.1800 H   0  0  0  0  0  0
    4.1429   10.1555   25.4011 H   0  0  0  0  0  0
    3.6134    8.7685   26.3401 H   0  0  0  0  0  0
   -2.4370   11.2395   25.5119 H   0  0  0  0  0  0
   -3.1549   10.5546   26.9543 H   0  0  0  0  0  0
    3.3021    7.3689   24.4598 H   0  0  0  0  0  0
    3.0383    8.7057   23.3608 H   0  0  0  0  0  0
    6.5114    7.8150   22.6425 H   0  0  0  0  0  0
    4.0608   16.8674   26.8453 H   0  0  0  0  0  0
    3.6594   15.1620   27.0206 H   0  0  0  0  0  0
    5.3526   15.6903   27.0553 H   0  0  0  0  0  0
    8.6289   15.1183   26.0383 H   0  0  0  0  0  0
    7.2622   14.3701   26.8444 H   0  0  0  0  0  0
    8.2876   13.4171   25.7657 H   0  0  0  0  0  0
    8.7559   10.7787   23.2202 H   0  0  0  0  0  0
    7.2516   10.1942   23.9162 H   0  0  0  0  0  0
    7.2859   10.8314   22.2557 H   0  0  0  0  0  0
    5.2610    7.9406   20.4991 H   0  0  0  0  0  0
    3.7770    8.2978   21.3447 H   0  0  0  0  0  0
    5.1115    9.4465   21.3858 H   0  0  0  0  0  0
    5.5795    5.6641   21.9138 H   0  0  0  0  0  0
    5.4971    5.7669   23.6642 H   0  0  0  0  0  0
    4.0423    6.0048   22.6939 H   0  0  0  0  0  0
  1  3  1  0  0  0
  1  5  2  0  0  0
  1 13  1  0  0  0
  2  3  1  0  0  0
  2  6  2  0  0  0
  2  4  1  0  0  0
  3 17  1  0  0  0
  4  5  1  0  0  0
  4  8  2  0  0  0
  6 10  1  0  0  0
  7  8  1  0  0  0
  7 10  2  0  0  0
  8 18  1  0  0  0
  9 12  2  0  0  0
  9 21  1  0  0  0
  9 14  1  0  0  0
 10 20  1  0  0  0
 11 13  1  0  0  0
 11 12  1  0  0  0
 11 16  2  0  0  0
 12 19  1  0  0  0
 14 15  2  0  0  0
 14 22  1  0  0  0
 15 16  1  0  0  0
 15 23  1  0  0  0
 16 32  1  0  0  0
 17 24  1  0  0  0
 17 33  1  0  0  0
 17 34  1  0  0  0
 18 35  1  0  0  0
 18 36  1  0  0  0
 21 27  1  0  0  0
 22 28  1  0  0  0
 23 29  1  0  0  0
 24 25  1  0  0  0
 24 37  1  0  0  0
 24 38  1  0  0  0
 25 26  1  0  0  0
 26 30  1  0  0  0
 26 31  1  0  0  0
 26 39  1  0  0  0
 27 40  1  0  0  0
 27 41  1  0  0  0
 27 42  1  0  0  0
 28 43  1  0  0  0
 28 44  1  0  0  0
 28 45  1  0  0  0
 29 46  1  0  0  0
 29 47  1  0  0  0
 29 48  1  0  0  0
 30 49  1  0  0  0
 30 50  1  0  0  0
 30 51  1  0  0  0
 31 52  1  0  0  0
 31 53  1  0  0  0
 31 54  1  0  0  0
M  END
> <s_m_entry_id>
4991

> <s_m_entry_name>
dock_pv.310

> <s_m_Source_Path>
/home/csk/Desktop/cluster/DUD-E-result/hs90a

> <s_m_Source_File>
dock_pv.maegz

> <i_m_Source_File_Index>
310

> <chembl_id>
CHEMBL191786

> <chembl_pref_name>
None

> <i_lp_mmshare_version>
53161

> <r_lp_tautomer_probability>
0.999997216410988

> <s_lp_Force_Field>
OPLS_2005

> <r_lp_Energy>
29.672784

> <b_lp_Chiralities_Consistent>
1

> <s_lp_Variant>
CHEMBL3880_lig899-1

> <s_i_glide_gridfile>
glide-grid_1uyg

> <i_i_glide_lignum>
1005

> <i_i_glide_rotatable_bonds>
9

> <r_i_docking_score>
-7.70289794161204

> <r_i_glide_ligand_efficiency>
-0.248480578761679

> <r_i_glide_ligand_efficiency_sa>
-0.780572081723461

> <r_i_glide_ligand_efficiency_ln>
-1.73723955130503

> <r_i_glide_gscore>
-7.70289794161204

> <r_i_glide_lipo>
-3.54623921103567

> <r_i_glide_hbond>
0

> <r_i_glide_metal>
0

> <r_i_glide_rewards>
-1.73302050727498

> <r_i_glide_evdw>
-49.8273887634277

> <r_i_glide_ecoul>
-2.26215219497681

> <r_i_glide_erotb>
0.453846196698498

> <r_i_glide_esite>
-0.0467921525819817

> <r_i_glide_emodel>
-71.5649338212867

> <r_i_glide_energy>
-52.0895409584045

> <r_i_glide_einternal>
4.4225640296936

> <i_i_glide_confnum>
26

> <i_i_glide_posenum>
266

> <r_i_glide_eff_state_penalty>
0

> <s_user_duplicate_titles>
CHEMBL3880_lig899,321066

> <i_f3d_flags>
0

> <s_m_subgroup_title>
dock_pv

> <s_m_subgroupid>
dock_pv

> <b_m_subgroup_collapsed>
1

$$$$
CHEMBL3880_lig432
                    3D
 Schrodinger Suite 2021-1.
 51 54  0  0  1  0            999 V2000
   -1.4499   10.8252   25.0500 C   0  0  0  0  0  0
   -0.7089    9.7266   25.2844 N   0  0  0  0  0  0
    0.5468    9.8160   24.8426 C   0  0  0  0  0  0
    1.1175   10.9492   24.1973 C   0  0  0  0  0  0
    0.2220   12.0211   23.9872 C   0  0  0  0  0  0
   -1.0675   11.9535   24.4103 N   0  0  0  0  0  0
    1.4944    8.8129   24.8695 N   0  0  0  0  0  0
    2.4933   10.6266   23.9011 C   0  0  0  0  0  0
    2.6610    9.3257   24.3502 C   0  0  0  0  0  0
   -2.7381   10.7693   25.5430 N   0  0  0  0  0  0
    1.3097    7.4523   25.3723 C   0  0  0  0  0  0
    1.4116    7.3328   26.8933 C   0  0  0  0  0  0
    2.4282    6.6052   27.5386 C   0  0  0  0  0  0
    2.4727    6.6417   28.9467 C   0  0  0  0  0  0
    1.4786    7.3369   29.6548 C   0  0  0  0  0  0
    0.4930    8.0011   28.9271 C   0  0  0  0  0  0
    0.4520    8.0087   27.5772 N   0  0  0  0  0  0
    1.4748    7.4199   31.1738 C   0  0  0  0  0  0
    3.4328    5.7750   26.7433 C   0  0  0  0  0  0
    3.4723    6.0090   29.6475 O   0  0  0  0  0  0
    4.7394    6.6587   29.5671 C   0  0  0  0  0  0
    0.7142   13.4507   23.1561 Cl  0  0  0  0  0  0
    3.5112   11.4506   23.1439 C   0  0  0  0  0  0
    4.3570   12.4391   23.9429 C   0  0  0  0  0  0
    5.7430   12.4673   23.7432 C   0  0  0  0  0  0
    6.5199   13.4423   24.3659 C   0  0  0  0  0  0
    5.9089   14.3874   25.1841 C   0  0  0  0  0  0
    4.5310   14.3696   25.3906 C   0  0  0  0  0  0
    3.7573   13.3903   24.7727 C   0  0  0  0  0  0
    6.8776   15.5676   25.9774 Cl  0  0  0  0  0  0
    3.5348    8.6919   24.2930 H   0  0  0  0  0  0
   -3.4234   11.4232   25.1605 H   0  0  0  0  0  0
   -3.0490    9.8720   25.8757 H   0  0  0  0  0  0
    0.3212    7.1123   25.0575 H   0  0  0  0  0  0
    2.0129    6.8077   24.8486 H   0  0  0  0  0  0
   -0.2828    8.5670   29.4227 H   0  0  0  0  0  0
    2.4880    7.3962   31.5753 H   0  0  0  0  0  0
    1.0356    8.3594   31.5139 H   0  0  0  0  0  0
    0.9092    6.5947   31.6039 H   0  0  0  0  0  0
    3.9767    5.0660   27.3670 H   0  0  0  0  0  0
    2.9209    5.1660   25.9979 H   0  0  0  0  0  0
    4.1447    6.4208   26.2271 H   0  0  0  0  0  0
    5.3411    6.3692   30.4282 H   0  0  0  0  0  0
    5.2895    6.3612   28.6771 H   0  0  0  0  0  0
    4.6612    7.7473   29.5644 H   0  0  0  0  0  0
    2.9901   12.0118   22.3680 H   0  0  0  0  0  0
    4.1798   10.7697   22.6140 H   0  0  0  0  0  0
    6.2202   11.7511   23.0908 H   0  0  0  0  0  0
    7.5884   13.4619   24.2105 H   0  0  0  0  0  0
    4.0649   15.1017   26.0341 H   0  0  0  0  0  0
    2.6936   13.3794   24.9408 H   0  0  0  0  0  0
  1  2  1  0  0  0
  1  6  2  0  0  0
  1 10  1  0  0  0
  2  3  2  0  0  0
  3  4  1  0  0  0
  3  7  1  0  0  0
  4  5  2  0  0  0
  4  8  1  0  0  0
  5  6  1  0  0  0
  5 22  1  0  0  0
  7  9  1  0  0  0
  7 11  1  0  0  0
  8  9  2  0  0  0
  8 23  1  0  0  0
  9 31  1  0  0  0
 10 32  1  0  0  0
 10 33  1  0  0  0
 11 12  1  0  0  0
 11 34  1  0  0  0
 11 35  1  0  0  0
 12 13  1  0  0  0
 12 17  2  0  0  0
 13 14  2  0  0  0
 13 19  1  0  0  0
 14 15  1  0  0  0
 14 20  1  0  0  0
 15 16  2  0  0  0
 15 18  1  0  0  0
 16 17  1  0  0  0
 16 36  1  0  0  0
 18 37  1  0  0  0
 18 38  1  0  0  0
 18 39  1  0  0  0
 19 40  1  0  0  0
 19 41  1  0  0  0
 19 42  1  0  0  0
 20 21  1  0  0  0
 21 43  1  0  0  0
 21 44  1  0  0  0
 21 45  1  0  0  0
 23 24  1  0  0  0
 23 46  1  0  0  0
 23 47  1  0  0  0
 24 25  1  0  0  0
 24 29  2  0  0  0
 25 26  2  0  0  0
 25 48  1  0  0  0
 26 27  1  0  0  0
 26 49  1  0  0  0
 27 28  2  0  0  0
 27 30  1  0  0  0
 28 29  1  0  0  0
 28 50  1  0  0  0
 29 51  1  0  0  0
M  END
> <s_m_entry_id>
4992

> <s_m_entry_name>
dock_pv.311

> <s_m_Source_Path>
/home/csk/Desktop/cluster/DUD-E-result/hs90a

> <s_m_Source_File>
dock_pv.maegz

> <i_m_Source_File_Index>
311

> <chembl_id>
CHEMBL3940517

> <chembl_pref_name>
None

> <i_lp_mmshare_version>
53161

> <r_lp_tautomer_probability>
1

> <s_lp_Force_Field>
OPLS_2005

> <r_lp_Energy>
12.166091

> <b_lp_Chiralities_Consistent>
1

> <s_lp_Variant>
CHEMBL3880_lig432-1

> <s_i_glide_gridfile>
glide-grid_1uyg

> <i_i_glide_lignum>
474

> <i_i_glide_rotatable_bonds>
5

> <r_i_docking_score>
-7.6990239993739

> <r_i_glide_ligand_efficiency>
-0.256634133312463

> <r_i_glide_ligand_efficiency_sa>
-0.797421920261719

> <r_i_glide_ligand_efficiency_ln>
-1.74930214024309

> <r_i_glide_gscore>
-7.6990239993739

> <r_i_glide_lipo>
-3.49286139199888

> <r_i_glide_hbond>
-0.16

> <r_i_glide_metal>
0

> <r_i_glide_rewards>
-1.8244790472271

> <r_i_glide_evdw>
-40.9498748779297

> <r_i_glide_ecoul>
-3.29606652259827

> <r_i_glide_erotb>
0.40850506058961

> <r_i_glide_esite>
-0.0882848984513072

> <r_i_glide_emodel>
-59.9010511170789

> <r_i_glide_energy>
-44.245941400528

> <r_i_glide_einternal>
2.71711826324463

> <i_i_glide_confnum>
8

> <i_i_glide_posenum>
130

> <r_i_glide_eff_state_penalty>
0

> <s_user_duplicate_titles>
CHEMBL3880_lig432

> <i_f3d_flags>
0

> <s_m_subgroup_title>
dock_pv

> <s_m_subgroupid>
dock_pv

> <b_m_subgroup_collapsed>
1

$$$$
CHEMBL3880_lig5
                    3D
 Schrodinger Suite 2021-1.
 32 34  0  0  1  0            999 V2000
    4.6670   15.1861   25.0486 Cl  0  0  0  0  0  0
    2.2688    9.1186   24.6748 S   0  0  0  0  0  0
    2.0255    8.1794   23.5753 O   0  0  0  0  0  0
    3.6354    9.2918   25.1730 O   0  0  0  0  0  0
   -0.3387   11.9686   24.9997 O   0  0  0  0  0  0
    2.3024   13.6936   24.3608 O   0  0  0  0  0  0
    1.5139   10.6680   24.3408 N   0  0  0  0  0  0
    1.1349    8.8473   26.0317 C   0  0  0  0  0  0
    0.2207    9.8905   26.1402 C   0  0  0  0  0  0
    0.3747   10.9758   25.1250 C   0  0  0  0  0  0
    2.0874   11.5890   23.3163 C   0  0  0  0  0  0
    1.1370    7.7606   26.9062 C   0  0  0  0  0  0
   -0.7339    9.8487   27.1573 C   0  0  0  0  0  0
    2.9313   12.7221   23.9444 C   0  0  0  0  0  0
    4.4419   12.6246   23.9673 C   0  0  0  0  0  0
    0.1848    7.7407   27.9288 C   0  0  0  0  0  0
   -0.7398    8.7791   28.0525 C   0  0  0  0  0  0
    5.2677   13.6990   24.3855 C   0  0  0  0  0  0
    5.0837   11.4376   23.5637 C   0  0  0  0  0  0
    6.6599   13.5728   24.3673 C   0  0  0  0  0  0
    6.4715   11.3173   23.5660 C   0  0  0  0  0  0
    7.2613   12.3872   23.9612 C   0  0  0  0  0  0
    1.2625   12.0538   22.7722 H   0  0  0  0  0  0
    2.6317   11.0193   22.5661 H   0  0  0  0  0  0
    1.8529    6.9569   26.8196 H   0  0  0  0  0  0
   -1.4643   10.6370   27.2734 H   0  0  0  0  0  0
    0.1671    6.9225   28.6331 H   0  0  0  0  0  0
   -1.4688    8.7730   28.8449 H   0  0  0  0  0  0
    4.5387   10.5643   23.2446 H   0  0  0  0  0  0
    7.2773   14.3959   24.6946 H   0  0  0  0  0  0
    6.9339   10.3905   23.2579 H   0  0  0  0  0  0
    8.3364   12.2887   23.9671 H   0  0  0  0  0  0
  1 18  1  0  0  0
  2  3  2  0  0  0
  2  4  2  0  0  0
  2  7  1  0  0  0
  2  8  1  0  0  0
  5 10  2  0  0  0
  6 14  2  0  0  0
  7 10  1  0  0  0
  7 11  1  0  0  0
  8  9  1  0  0  0
  8 12  2  0  0  0
  9 10  1  0  0  0
  9 13  2  0  0  0
 11 14  1  0  0  0
 11 23  1  0  0  0
 11 24  1  0  0  0
 12 16  1  0  0  0
 12 25  1  0  0  0
 13 17  1  0  0  0
 13 26  1  0  0  0
 14 15  1  0  0  0
 15 18  1  0  0  0
 15 19  2  0  0  0
 16 17  2  0  0  0
 16 27  1  0  0  0
 17 28  1  0  0  0
 18 20  2  0  0  0
 19 21  1  0  0  0
 19 29  1  0  0  0
 20 22  1  0  0  0
 20 30  1  0  0  0
 21 22  2  0  0  0
 21 31  1  0  0  0
 22 32  1  0  0  0
M  END
> <s_m_entry_id>
4993

> <s_m_entry_name>
dock_pv.312

> <s_m_Source_Path>
/home/csk/Desktop/cluster/DUD-E-result/hs90a

> <s_m_Source_File>
dock_pv.maegz

> <i_m_Source_File_Index>
312

> <chembl_id>
CHEMBL1321622

> <chembl_pref_name>
None

> <i_lp_mmshare_version>
53161

> <r_lp_tautomer_probability>
0.99990000499975

> <s_lp_Force_Field>
OPLS_2005

> <r_lp_Energy>
35.082978

> <b_lp_Chiralities_Consistent>
1

> <s_lp_Variant>
CHEMBL3880_lig5-1

> <s_i_glide_gridfile>
glide-grid_1uyg

> <i_i_glide_lignum>
7

> <i_i_glide_rotatable_bonds>
3

> <r_i_docking_score>
-7.68971001771587

> <r_i_glide_ligand_efficiency>
-0.349532273532539

> <r_i_glide_ligand_efficiency_sa>
-0.979403176762447

> <r_i_glide_ligand_efficiency_ln>
-1.87964561731776

> <r_i_glide_gscore>
-7.68971001771587

> <r_i_glide_lipo>
-3.555801359018

> <r_i_glide_hbond>
0

> <r_i_glide_metal>
0

> <r_i_glide_rewards>
-2.85638671263932

> <r_i_glide_evdw>
-37.8311004638672

> <r_i_glide_ecoul>
0.744569480419159

> <r_i_glide_erotb>
0.502347655071946

> <r_i_glide_esite>
0

> <r_i_glide_emodel>
-53.2993549662237

> <r_i_glide_energy>
-37.086530983448

> <r_i_glide_einternal>
1.30812168121338

> <i_i_glide_confnum>
5

> <i_i_glide_posenum>
94

> <r_i_glide_eff_state_penalty>
0

> <s_user_duplicate_titles>
CHEMBL3880_lig5

> <i_f3d_flags>
0

> <s_m_subgroup_title>
dock_pv

> <s_m_subgroupid>
dock_pv

> <b_m_subgroup_collapsed>
1

$$$$
CHEMBL3880_lig285
                    3D
 Schrodinger Suite 2021-1.
 66 68  0  0  1  0            999 V2000
   -1.4808   11.0952   24.5958 C   0  0  0  0  0  0
   -1.3409   11.8326   23.4208 C   0  0  0  0  0  0
   -0.0704   12.1741   22.9505 C   0  0  0  0  0  0
    1.0778   11.8586   23.7003 C   0  0  0  0  0  0
    0.9274   11.1045   24.8612 C   0  0  0  0  0  0
   -0.3304   10.6832   25.2871 C   0  0  0  0  0  0
    0.0176   12.7693   21.7220 O   0  0  0  0  0  0
    2.4912   12.2922   23.3014 C   0  0  0  0  0  0
    3.4552   11.0963   23.1656 C   0  0  0  0  0  0
    3.0516   13.3560   24.2633 C   0  0  0  0  0  0
   -2.7376   10.7690   25.0422 O   0  0  0  0  0  0
   -0.3881    9.8506   26.4141 N   0  0  0  0  0  0
    0.3621    8.7268   26.7220 C   0  0  0  0  0  0
   -0.0398    8.3905   28.0195 C   0  0  0  0  0  0
   -1.0292    9.1969   28.3672 N   0  0  0  0  0  0
   -1.2033   10.1640   27.4176 N   0  0  0  0  0  0
    0.4606    7.2991   28.8315 C   0  0  0  0  0  0
    0.4611    7.5499   30.1534 N   0  0  0  0  0  0
    0.8301    6.2295   28.3441 O   0  0  0  0  0  0
    0.7730    6.5777   31.1944 C   0  0  0  0  0  0
    1.4759    7.2148   32.3897 C   0  0  0  0  0  0
    1.3903    8.0988   25.8477 C   0  0  0  0  0  0
    2.6552    7.8717   26.3897 C   0  0  0  0  0  0
    3.6151    7.2023   25.6494 C   0  0  0  0  0  0
    3.3203    6.7746   24.3560 C   0  0  0  0  0  0
    2.0602    7.0189   23.7996 C   0  0  0  0  0  0
    1.0922    7.6857   24.5471 C   0  0  0  0  0  0
    4.3911    6.0305   23.5680 C   0  0  0  0  0  0
    5.2606    6.9020   22.7604 N   0  0  0  0  0  0
    4.5873    7.5290   21.6131 C   0  0  0  0  0  0
    4.0933    6.4944   20.5868 C   0  0  0  0  0  0
    7.1090    7.1929   24.4228 C   0  0  0  0  0  0
    6.0723    7.8703   23.5094 C   0  0  0  0  0  0
   -2.2238   12.1008   22.8564 H   0  0  0  0  0  0
    1.8016   10.8361   25.4392 H   0  0  0  0  0  0
   -0.8537   12.9207   21.3497 H   0  0  0  0  0  0
    2.4339   12.7675   22.3313 H   0  0  0  0  0  0
    3.0535   10.3474   22.4812 H   0  0  0  0  0  0
    3.6413   10.6047   24.1213 H   0  0  0  0  0  0
    4.4222   11.4106   22.7741 H   0  0  0  0  0  0
    2.3729   14.2056   24.3573 H   0  0  0  0  0  0
    3.2188   12.9522   25.2628 H   0  0  0  0  0  0
    4.0071   13.7443   23.9051 H   0  0  0  0  0  0
   -3.4586   11.3142   24.6820 H   0  0  0  0  0  0
    0.0841    8.4394   30.4679 H   0  0  0  0  0  0
   -0.1559    6.1121   31.5260 H   0  0  0  0  0  0
    1.4069    5.7785   30.8061 H   0  0  0  0  0  0
    1.6162    6.4910   33.1915 H   0  0  0  0  0  0
    2.4635    7.5727   32.1050 H   0  0  0  0  0  0
    0.9100    8.0538   32.7961 H   0  0  0  0  0  0
    2.8875    8.1879   27.3975 H   0  0  0  0  0  0
    4.5826    7.0128   26.0906 H   0  0  0  0  0  0
    1.8274    6.6864   22.7980 H   0  0  0  0  0  0
    0.1072    7.8543   24.1305 H   0  0  0  0  0  0
    4.9979    5.4456   24.2578 H   0  0  0  0  0  0
    3.9102    5.2835   22.9366 H   0  0  0  0  0  0
    3.7669    8.1685   21.9365 H   0  0  0  0  0  0
    5.2953    8.1820   21.1024 H   0  0  0  0  0  0
    3.8572    6.9742   19.6365 H   0  0  0  0  0  0
    4.8593    5.7478   20.3858 H   0  0  0  0  0  0
    3.1976    5.9722   20.9235 H   0  0  0  0  0  0
    7.7549    7.9380   24.8852 H   0  0  0  0  0  0
    6.6478    6.6220   25.2244 H   0  0  0  0  0  0
    7.7459    6.5110   23.8541 H   0  0  0  0  0  0
    6.6289    8.4868   22.8037 H   0  0  0  0  0  0
    5.4368    8.5530   24.0782 H   0  0  0  0  0  0
  1  2  2  0  0  0
  1  6  1  0  0  0
  1 11  1  0  0  0
  2  3  1  0  0  0
  2 34  1  0  0  0
  3  4  2  0  0  0
  3  7  1  0  0  0
  4  5  1  0  0  0
  4  8  1  0  0  0
  5  6  2  0  0  0
  5 35  1  0  0  0
  6 12  1  0  0  0
  7 36  1  0  0  0
  8  9  1  0  0  0
  8 10  1  0  0  0
  8 37  1  0  0  0
  9 38  1  0  0  0
  9 39  1  0  0  0
  9 40  1  0  0  0
 10 41  1  0  0  0
 10 42  1  0  0  0
 10 43  1  0  0  0
 11 44  1  0  0  0
 12 13  1  0  0  0
 12 16  1  0  0  0
 13 14  2  0  0  0
 13 22  1  0  0  0
 14 15  1  0  0  0
 14 17  1  0  0  0
 15 16  2  0  0  0
 17 18  1  0  0  0
 17 19  2  0  0  0
 18 20  1  0  0  0
 18 45  1  0  0  0
 20 21  1  0  0  0
 20 46  1  0  0  0
 20 47  1  0  0  0
 21 48  1  0  0  0
 21 49  1  0  0  0
 21 50  1  0  0  0
 22 23  2  0  0  0
 22 27  1  0  0  0
 23 24  1  0  0  0
 23 51  1  0  0  0
 24 25  2  0  0  0
 24 52  1  0  0  0
 25 26  1  0  0  0
 25 28  1  0  0  0
 26 27  2  0  0  0
 26 53  1  0  0  0
 27 54  1  0  0  0
 28 29  1  0  0  0
 28 55  1  0  0  0
 28 56  1  0  0  0
 29 30  1  0  0  0
 29 33  1  0  0  0
 30 31  1  0  0  0
 30 57  1  0  0  0
 30 58  1  0  0  0
 31 59  1  0  0  0
 31 60  1  0  0  0
 31 61  1  0  0  0
 32 33  1  0  0  0
 32 62  1  0  0  0
 32 63  1  0  0  0
 32 64  1  0  0  0
 33 65  1  0  0  0
 33 66  1  0  0  0
M  END
> <s_m_entry_id>
4994

> <s_m_entry_name>
dock_pv.313

> <s_m_Source_Path>
/home/csk/Desktop/cluster/DUD-E-result/hs90a

> <s_m_Source_File>
dock_pv.maegz

> <i_m_Source_File_Index>
313

> <chembl_id>
CHEMBL3234772

> <chembl_pref_name>
None

> <i_lp_mmshare_version>
53161

> <r_lp_tautomer_probability>
1

> <s_lp_Force_Field>
OPLS_2005

> <r_lp_Energy>
31.340023

> <b_lp_Chiralities_Consistent>
1

> <s_lp_Variant>
CHEMBL3880_lig285-1

> <s_i_glide_gridfile>
glide-grid_1uyg

> <i_i_glide_lignum>
322

> <i_i_glide_rotatable_bonds>
12

> <r_i_docking_score>
-7.68715076306863

> <r_i_glide_ligand_efficiency>
-0.232943962517231

> <r_i_glide_ligand_efficiency_sa>
-0.747175755868445

> <r_i_glide_ligand_efficiency_ln>
-1.70958252776997

> <r_i_glide_gscore>
-7.68715076306863

> <r_i_glide_lipo>
-3.3045190944811

> <r_i_glide_hbond>
-0.456

> <r_i_glide_metal>
0

> <r_i_glide_rewards>
-0.951354057173845

> <r_i_glide_evdw>
-50.0476608276367

> <r_i_glide_ecoul>
-6.8133487701416

> <r_i_glide_erotb>
0.590210557131825

> <r_i_glide_esite>
-0.041102811642433

> <r_i_glide_emodel>
-79.0704463445984

> <r_i_glide_energy>
-56.8610095977783

> <r_i_glide_einternal>
8.51217269897461

> <i_i_glide_confnum>
10

> <i_i_glide_posenum>
221

> <r_i_glide_eff_state_penalty>
0

> <s_user_duplicate_titles>
CHEMBL3880_lig285

> <i_f3d_flags>
0

> <s_m_subgroup_title>
dock_pv

> <s_m_subgroupid>
dock_pv

> <b_m_subgroup_collapsed>
1

$$$$
CHEMBL3880_lig989
                    3D
 Schrodinger Suite 2021-1.
 56 59  0  0  1  0            999 V2000
    7.6427   14.3567   26.6742 C   0  0  0  0  0  0
    7.4910   14.5474   25.1574 C   0  0  0  0  0  0
    8.8666   14.9712   24.6149 C   0  0  0  0  0  0
    6.9015    9.2554   22.8422 C   0  0  0  0  0  0
    6.3413   10.5237   22.9537 C   0  0  0  0  0  0
    5.0206    8.3465   24.0613 C   0  0  0  0  0  0
    6.2703    8.1577   23.4617 C   0  0  0  0  0  0
    5.1825   10.7322   23.7079 C   0  0  0  0  0  0
    4.4968    9.6246   24.2429 C   0  0  0  0  0  0
    3.4337    9.7640   25.1040 O   0  0  0  0  0  0
    2.1920   10.2817   24.6306 C   0  0  1  0  0  0
    2.3148   11.3755   23.5453 C   0  0  0  0  0  0
    3.3801   12.4046   23.9106 C   0  0  0  0  0  0
    4.7140   12.0413   23.9621 N   0  0  0  0  0  0
    3.2746   13.7563   24.1983 C   0  0  0  0  0  0
    4.5681   14.1860   24.5771 C   0  0  0  0  0  0
    5.4622   13.1699   24.2742 C   0  0  0  0  0  0
    6.9999   13.2515   24.4166 C   0  0  0  0  0  0
    6.5164   15.7217   24.9390 C   0  0  0  0  0  0
    5.0312   15.4358   25.1646 C   0  0  0  0  0  0
    6.9044    6.7984   23.5665 C   0  0  0  0  0  0
    6.2903    5.7685   23.3012 O   0  0  0  0  0  0
    8.1468    6.7772   24.0398 N   0  0  0  0  0  0
    4.3404   16.1877   25.8416 O   0  0  0  0  0  0
    2.0251   14.5733   23.9509 C   0  0  0  0  0  0
    8.3919    9.1336   21.9689 Cl  0  0  0  0  0  0
    1.2877    9.0961   24.2256 C   0  0  0  0  0  0
    1.1394    8.0230   25.3251 C   0  0  0  0  0  0
    0.2294    6.8575   24.9127 C   0  0  0  0  0  0
    6.6782   14.3698   27.1689 H   0  0  0  0  0  0
    8.2259   13.4742   26.9074 H   0  0  0  0  0  0
    8.1857   15.1880   27.1260 H   0  0  0  0  0  0
    8.8264   15.2191   23.5661 H   0  0  0  0  0  0
    9.2375   15.8591   25.1296 H   0  0  0  0  0  0
    9.6051   14.1852   24.7683 H   0  0  0  0  0  0
    6.8571   11.3512   22.4909 H   0  0  0  0  0  0
    4.5142    7.5169   24.5347 H   0  0  0  0  0  0
    1.7443   10.7585   25.5044 H   0  0  0  0  0  0
    1.3390   11.8390   23.4015 H   0  0  0  0  0  0
    2.5542   10.9131   22.5868 H   0  0  0  0  0  0
    7.3754   13.2983   23.3940 H   0  0  0  0  0  0
    7.4403   12.3620   24.8617 H   0  0  0  0  0  0
    6.6305   16.1938   23.9673 H   0  0  0  0  0  0
    6.7408   16.4474   25.6964 H   0  0  0  0  0  0
    8.6069    5.8911   24.1603 H   0  0  0  0  0  0
    8.6449    7.6391   24.2034 H   0  0  0  0  0  0
    2.2706   15.5694   23.6177 H   0  0  0  0  0  0
    1.4554   14.1610   23.1189 H   0  0  0  0  0  0
    1.3255   14.6518   24.7670 H   0  0  0  0  0  0
    1.6836    8.6322   23.3203 H   0  0  0  0  0  0
    0.2965    9.4726   23.9738 H   0  0  0  0  0  0
    0.7488    8.4791   26.2368 H   0  0  0  0  0  0
    2.1211    7.6211   25.5823 H   0  0  0  0  0  0
    0.2117    6.0847   25.6809 H   0  0  0  0  0  0
   -0.7966    7.1918   24.7660 H   0  0  0  0  0  0
    0.5649    6.3942   23.9831 H   0  0  0  0  0  0
  1  2  1  0  0  0
  1 30  1  0  0  0
  1 31  1  0  0  0
  1 32  1  0  0  0
  2  3  1  0  0  0
  2 18  1  0  0  0
  2 19  1  0  0  0
  3 33  1  0  0  0
  3 34  1  0  0  0
  3 35  1  0  0  0
  4  5  2  0  0  0
  4  7  1  0  0  0
  4 26  1  0  0  0
  5  8  1  0  0  0
  5 36  1  0  0  0
  6  9  1  0  0  0
  6  7  2  0  0  0
  6 37  1  0  0  0
  7 21  1  0  0  0
  8  9  2  0  0  0
  8 14  1  0  0  0
  9 10  1  0  0  0
 10 11  1  0  0  0
 11 12  1  0  0  0
 11 27  1  0  0  0
 11 38  1  0  0  0
 12 13  1  0  0  0
 12 39  1  0  0  0
 12 40  1  0  0  0
 13 14  1  0  0  0
 13 15  2  0  0  0
 14 17  1  0  0  0
 15 16  1  0  0  0
 15 25  1  0  0  0
 16 17  2  0  0  0
 16 20  1  0  0  0
 17 18  1  0  0  0
 18 41  1  0  0  0
 18 42  1  0  0  0
 19 20  1  0  0  0
 19 43  1  0  0  0
 19 44  1  0  0  0
 20 24  2  0  0  0
 21 22  2  0  0  0
 21 23  1  0  0  0
 23 45  1  0  0  0
 23 46  1  0  0  0
 25 47  1  0  0  0
 25 48  1  0  0  0
 25 49  1  0  0  0
 27 28  1  0  0  0
 27 50  1  0  0  0
 27 51  1  0  0  0
 28 29  1  0  0  0
 28 52  1  0  0  0
 28 53  1  0  0  0
 29 54  1  0  0  0
 29 55  1  0  0  0
 29 56  1  0  0  0
M  END
> <s_m_entry_id>
4995

> <s_m_entry_name>
dock_pv.314

> <s_m_Source_Path>
/home/csk/Desktop/cluster/DUD-E-result/hs90a

> <s_m_Source_File>
dock_pv.maegz

> <i_m_Source_File_Index>
314

> <chembl_id>
CHEMBL3403717

> <chembl_pref_name>
None

> <i_lp_mmshare_version>
53161

> <r_lp_tautomer_probability>
0.99995

> <s_lp_Force_Field>
OPLS_2005

> <r_lp_Energy>
30.389296

> <b_lp_Chiralities_Consistent>
1

> <s_lp_Variant>
CHEMBL3880_lig989-2

> <s_i_glide_gridfile>
glide-grid_1uyg

> <i_i_glide_lignum>
1100

> <i_i_glide_rotatable_bonds>
3

> <r_i_docking_score>
-7.67921863951007

> <r_i_glide_ligand_efficiency>
-0.264800642741726

> <r_i_glide_ligand_efficiency_sa>
-0.813551469234677

> <r_i_glide_ligand_efficiency_ln>
-1.75834634026471

> <r_i_glide_gscore>
-7.67921863951007

> <r_i_glide_lipo>
-4.34996430639692

> <r_i_glide_hbond>
0

> <r_i_glide_metal>
0

> <r_i_glide_rewards>
-1.927164701664

> <r_i_glide_evdw>
-34.7942771911621

> <r_i_glide_ecoul>
1.58250093460083

> <r_i_glide_erotb>
0.114670820458832

> <r_i_glide_esite>
-0.0144217325400045

> <r_i_glide_emodel>
-43.3193069828505

> <r_i_glide_energy>
-33.2117762565613

> <r_i_glide_einternal>
3.29848432540894

> <i_i_glide_confnum>
2

> <i_i_glide_posenum>
359

> <r_i_glide_eff_state_penalty>
0

> <s_user_duplicate_titles>
CHEMBL3880_lig989

> <i_f3d_flags>
0

> <s_m_subgroup_title>
dock_pv

> <s_m_subgroupid>
dock_pv

> <b_m_subgroup_collapsed>
1

$$$$
CHEMBL3880_lig399
                    3D
 Schrodinger Suite 2021-1.
 67 69  0  0  1  0            999 V2000
   -0.7104   10.9807   24.3705 C   0  0  0  0  0  0
   -0.5036   11.9556   23.3996 C   0  0  0  0  0  0
    0.7209   12.6100   23.3239 C   0  0  0  0  0  0
    1.7585   12.2923   24.2026 C   0  0  0  0  0  0
    1.5625   11.2669   25.1298 C   0  0  0  0  0  0
    0.3133   10.6491   25.2749 C   0  0  0  0  0  0
    0.0963    9.6985   26.4632 C   0  0  0  0  0  0
    0.0067    8.2362   26.0146 C   0  0  0  0  0  0
   -1.0713   10.1210   27.3794 C   0  0  0  0  0  0
   -1.9326   10.3704   24.3996 O   0  0  0  0  0  0
    0.8611   13.5661   22.3673 O   0  0  0  0  0  0
    3.0027   13.1134   24.3219 C   0  0  0  0  0  0
    2.7952   14.3693   24.7663 O   0  0  0  0  0  0
    4.0135   14.9762   25.0216 N   0  0  0  0  0  0
    4.9524   14.1246   24.6719 C   0  0  0  0  0  0
    4.3699   12.9311   24.1504 C   0  0  0  0  0  0
    4.9815   11.7465   23.5694 C   0  0  0  0  0  0
    6.3460   14.5300   24.7671 C   0  0  0  0  0  0
    7.2607   13.5625   24.9299 N   0  0  0  0  0  0
    6.6559   15.7184   24.7669 O   0  0  0  0  0  0
    5.3740   10.7140   23.0498 C   0  0  0  0  0  0
    5.7701    9.4287   22.4187 C   0  0  0  0  0  0
    8.6834   13.7801   25.1916 C   0  0  0  0  0  0
    8.9672   14.4510   26.5475 C   0  0  0  0  0  0
    5.8463    9.6307   20.8901 C   0  0  0  0  0  0
    7.1570    9.0040   22.9543 C   0  0  0  0  0  0
    4.7931    8.3478   22.6346 N   0  0  0  0  0  0
    4.1630    7.9088   23.7477 C   0  0  0  0  0  0
    4.0595    8.5918   24.7678 O   0  0  0  0  0  0
    3.6772    6.6396   23.6576 N   0  0  0  0  0  0
    2.9824    6.0176   24.8023 C   0  0  0  0  0  0
    1.5706    5.6179   24.3120 C   0  0  0  0  0  0
    1.6657    4.7936   23.1633 O   0  0  0  0  0  0
    2.2774    5.4586   22.0632 C   0  0  0  0  0  0
    3.7308    5.7999   22.4382 C   0  0  0  0  0  0
   -1.3064   12.1968   22.7187 H   0  0  0  0  0  0
    2.3653   11.0224   25.8136 H   0  0  0  0  0  0
    0.9858    9.7610   27.0952 H   0  0  0  0  0  0
    0.9867    7.9142   25.6746 H   0  0  0  0  0  0
   -0.2871    7.5778   26.8306 H   0  0  0  0  0  0
   -0.6972    8.0857   25.1930 H   0  0  0  0  0  0
   -0.9903   11.1724   27.6517 H   0  0  0  0  0  0
   -2.0485    9.9817   26.9161 H   0  0  0  0  0  0
   -1.0665    9.5431   28.3039 H   0  0  0  0  0  0
   -1.8899    9.4562   24.6864 H   0  0  0  0  0  0
    0.0490   13.6808   21.8718 H   0  0  0  0  0  0
    6.9638   12.6053   24.8056 H   0  0  0  0  0  0
    9.1917   12.8143   25.1531 H   0  0  0  0  0  0
    9.1075   14.3814   24.3872 H   0  0  0  0  0  0
   10.0394   14.5059   26.7306 H   0  0  0  0  0  0
    8.5868   15.4731   26.5831 H   0  0  0  0  0  0
    8.5189   13.9039   27.3783 H   0  0  0  0  0  0
    6.6252   10.3384   20.6025 H   0  0  0  0  0  0
    6.0611    8.7072   20.3628 H   0  0  0  0  0  0
    4.8907    9.9679   20.4892 H   0  0  0  0  0  0
    7.9204    9.7595   22.7640 H   0  0  0  0  0  0
    7.1418    8.8259   24.0327 H   0  0  0  0  0  0
    7.5013    8.0869   22.4771 H   0  0  0  0  0  0
    4.7610    7.6969   21.8643 H   0  0  0  0  0  0
    2.9675    6.6283   25.7073 H   0  0  0  0  0  0
    3.5463    5.1096   25.0201 H   0  0  0  0  0  0
    1.0320    5.0874   25.0964 H   0  0  0  0  0  0
    0.9730    6.4922   24.0565 H   0  0  0  0  0  0
    2.2471    4.8270   21.1769 H   0  0  0  0  0  0
    1.7190    6.3596   21.8034 H   0  0  0  0  0  0
    4.2213    4.8868   22.7693 H   0  0  0  0  0  0
    4.3363    6.1609   21.6066 H   0  0  0  0  0  0
  1  2  2  0  0  0
  1  6  1  0  0  0
  1 10  1  0  0  0
  2  3  1  0  0  0
  2 36  1  0  0  0
  3  4  2  0  0  0
  3 11  1  0  0  0
  4  5  1  0  0  0
  4 12  1  0  0  0
  5  6  2  0  0  0
  5 37  1  0  0  0
  6  7  1  0  0  0
  7  8  1  0  0  0
  7  9  1  0  0  0
  7 38  1  0  0  0
  8 39  1  0  0  0
  8 40  1  0  0  0
  8 41  1  0  0  0
  9 42  1  0  0  0
  9 43  1  0  0  0
  9 44  1  0  0  0
 10 45  1  0  0  0
 11 46  1  0  0  0
 12 13  1  0  0  0
 12 16  2  0  0  0
 13 14  1  0  0  0
 14 15  2  0  0  0
 15 16  1  0  0  0
 15 18  1  0  0  0
 16 17  1  0  0  0
 17 21  3  0  0  0
 18 19  1  0  0  0
 18 20  2  0  0  0
 19 23  1  0  0  0
 19 47  1  0  0  0
 21 22  1  0  0  0
 22 25  1  0  0  0
 22 26  1  0  0  0
 22 27  1  0  0  0
 23 24  1  0  0  0
 23 48  1  0  0  0
 23 49  1  0  0  0
 24 50  1  0  0  0
 24 51  1  0  0  0
 24 52  1  0  0  0
 25 53  1  0  0  0
 25 54  1  0  0  0
 25 55  1  0  0  0
 26 56  1  0  0  0
 26 57  1  0  0  0
 26 58  1  0  0  0
 27 28  1  0  0  0
 27 59  1  0  0  0
 28 29  2  0  0  0
 28 30  1  0  0  0
 30 31  1  0  0  0
 30 35  1  0  0  0
 31 32  1  0  0  0
 31 60  1  0  0  0
 31 61  1  0  0  0
 32 33  1  0  0  0
 32 62  1  0  0  0
 32 63  1  0  0  0
 33 34  1  0  0  0
 34 35  1  0  0  0
 34 64  1  0  0  0
 34 65  1  0  0  0
 35 66  1  0  0  0
 35 67  1  0  0  0
M  END
> <s_m_entry_id>
4996

> <s_m_entry_name>
dock_pv.315

> <s_m_Source_Path>
/home/csk/Desktop/cluster/DUD-E-result/hs90a

> <s_m_Source_File>
dock_pv.maegz

> <i_m_Source_File_Index>
315

> <chembl_id>
CHEMBL3600791

> <chembl_pref_name>
None

> <i_lp_mmshare_version>
53161

> <r_lp_tautomer_probability>
0.999999999898

> <s_lp_Force_Field>
OPLS_2005

> <r_lp_Energy>
41.302415

> <b_lp_Chiralities_Consistent>
1

> <s_lp_Variant>
CHEMBL3880_lig399-1

> <s_i_glide_gridfile>
glide-grid_1uyg

> <i_i_glide_lignum>
441

> <i_i_glide_rotatable_bonds>
12

> <r_i_docking_score>
-7.67748635841054

> <r_i_glide_ligand_efficiency>
-0.219356753097444

> <r_i_glide_ligand_efficiency_sa>
-0.717530484119049

> <r_i_glide_ligand_efficiency_ln>
-1.68537864830033

> <r_i_glide_gscore>
-7.67748635841054

> <r_i_glide_lipo>
-4.10418011012143

> <r_i_glide_hbond>
-0.0449064614348345

> <r_i_glide_metal>
0

> <r_i_glide_rewards>
-1.06553188823435

> <r_i_glide_evdw>
-46.4566993713379

> <r_i_glide_ecoul>
-4.96189546585083

> <r_i_glide_erotb>
0.605497589430464

> <r_i_glide_esite>
-0.00124619960587375

> <r_i_glide_emodel>
-46.5410724562614

> <r_i_glide_energy>
-51.4185948371887

> <r_i_glide_einternal>
12.6181325912476

> <i_i_glide_confnum>
13

> <i_i_glide_posenum>
243

> <r_i_glide_eff_state_penalty>
0

> <s_user_duplicate_titles>
CHEMBL3880_lig399

> <i_f3d_flags>
0

> <s_m_subgroup_title>
dock_pv

> <s_m_subgroupid>
dock_pv

> <b_m_subgroup_collapsed>
1

$$$$
CHEMBL3880_lig900
                    3D
 Schrodinger Suite 2021-1.
 51 53  0  0  1  0            999 V2000
   -0.2070    9.1014   27.7302 N   0  0  0  0  0  0
   -1.1389    9.9692   27.3164 C   0  0  0  0  0  0
   -1.0894   10.8483   26.3039 N   0  0  0  0  0  0
    0.9780    9.0830   27.0663 C   0  0  0  0  0  0
    1.9592    8.2072   27.5164 N   0  0  0  0  0  0
    1.1644    9.9681   25.9778 C   0  0  0  0  0  0
    0.1046   10.7982   25.6623 C   0  0  0  0  0  0
    0.5452   11.5319   24.5972 N   0  0  0  0  0  0
    1.8233   11.1440   24.3610 C   0  0  0  0  0  0
    2.2158   10.1846   25.1667 N   0  0  0  0  0  0
   -0.2472   12.5202   23.8410 C   0  0  0  0  0  0
   -0.7354   11.9176   22.5191 C   0  0  0  0  0  0
   -1.5269   12.8459   21.5920 C   0  0  0  0  0  0
   -2.6519   13.5692   22.1976 C   0  0  0  0  0  0
   -3.5459   14.2250   22.7053 C   0  0  0  0  0  0
    2.6868   11.6442   23.2427 C   0  0  0  0  0  0
    4.0354   12.1992   23.6927 C   0  0  0  0  0  0
    4.1063   13.3805   24.4325 C   0  0  0  0  0  0
    5.3460   13.9570   24.7662 C   0  0  0  0  0  0
    6.5231   13.3329   24.3136 C   0  0  0  0  0  0
    6.4643   12.1385   23.5720 C   0  0  0  0  0  0
    5.2133   11.5693   23.2921 C   0  0  0  0  0  0
    7.7568   13.8476   24.6486 O   0  0  0  0  0  0
    8.1105   15.0416   23.9673 C   0  0  0  0  0  0
    5.4853   15.0951   25.5407 O   0  0  0  0  0  0
    4.3209   15.7487   26.0163 C   0  0  0  0  0  0
    7.6609   11.5693   23.1853 O   0  0  0  0  0  0
    7.6644   10.3312   22.4822 C   0  0  0  0  0  0
   -2.0630    9.9582   27.8744 H   0  0  0  0  0  0
    2.8636    8.2179   27.0710 H   0  0  0  0  0  0
    1.7768    7.6673   28.3488 H   0  0  0  0  0  0
   -1.1124   12.7662   24.4490 H   0  0  0  0  0  0
    0.3673   13.4140   23.7210 H   0  0  0  0  0  0
    0.1307   11.5690   21.9641 H   0  0  0  0  0  0
   -1.3548   11.0471   22.7495 H   0  0  0  0  0  0
   -0.8515   13.5690   21.1490 H   0  0  0  0  0  0
   -1.9389   12.2831   20.7670 H   0  0  0  0  0  0
   -4.3387   14.7672   23.1671 H   0  0  0  0  0  0
    2.8194   10.8389   22.5200 H   0  0  0  0  0  0
    2.1897   12.4411   22.6918 H   0  0  0  0  0  0
    3.1794   13.8393   24.7397 H   0  0  0  0  0  0
    5.1391   10.6521   22.7304 H   0  0  0  0  0  0
    9.1350   15.3099   24.2216 H   0  0  0  0  0  0
    8.0610   14.9074   22.8869 H   0  0  0  0  0  0
    7.4725   15.8805   24.2433 H   0  0  0  0  0  0
    4.5922   16.6898   26.4964 H   0  0  0  0  0  0
    3.6612   15.9691   25.1809 H   0  0  0  0  0  0
    3.7887   15.1354   26.7448 H   0  0  0  0  0  0
    8.6945   10.0321   22.2865 H   0  0  0  0  0  0
    7.1994    9.5356   23.0674 H   0  0  0  0  0  0
    7.1573   10.4137   21.5194 H   0  0  0  0  0  0
  1  2  2  0  0  0
  1  4  1  0  0  0
  2  3  1  0  0  0
  2 29  1  0  0  0
  3  7  2  0  0  0
  4  6  2  0  0  0
  4  5  1  0  0  0
  5 30  1  0  0  0
  5 31  1  0  0  0
  6 10  1  0  0  0
  6  7  1  0  0  0
  7  8  1  0  0  0
  8  9  1  0  0  0
  8 11  1  0  0  0
  9 16  1  0  0  0
  9 10  2  0  0  0
 11 12  1  0  0  0
 11 32  1  0  0  0
 11 33  1  0  0  0
 12 13  1  0  0  0
 12 34  1  0  0  0
 12 35  1  0  0  0
 13 14  1  0  0  0
 13 36  1  0  0  0
 13 37  1  0  0  0
 14 15  3  0  0  0
 15 38  1  0  0  0
 16 17  1  0  0  0
 16 39  1  0  0  0
 16 40  1  0  0  0
 17 18  2  0  0  0
 17 22  1  0  0  0
 18 19  1  0  0  0
 18 41  1  0  0  0
 19 20  2  0  0  0
 19 25  1  0  0  0
 20 21  1  0  0  0
 20 23  1  0  0  0
 21 22  2  0  0  0
 21 27  1  0  0  0
 22 42  1  0  0  0
 23 24  1  0  0  0
 24 43  1  0  0  0
 24 44  1  0  0  0
 24 45  1  0  0  0
 25 26  1  0  0  0
 26 46  1  0  0  0
 26 47  1  0  0  0
 26 48  1  0  0  0
 27 28  1  0  0  0
 28 49  1  0  0  0
 28 50  1  0  0  0
 28 51  1  0  0  0
M  END
> <s_m_entry_id>
4997

> <s_m_entry_name>
dock_pv.316

> <s_m_Source_Path>
/home/csk/Desktop/cluster/DUD-E-result/hs90a

> <s_m_Source_File>
dock_pv.maegz

> <i_m_Source_File_Index>
316

> <chembl_id>
CHEMBL161992

> <chembl_pref_name>
None

> <i_lp_mmshare_version>
53161

> <r_lp_tautomer_probability>
0.999997216410988

> <s_lp_Force_Field>
OPLS_2005

> <r_lp_Energy>
27.425634

> <b_lp_Chiralities_Consistent>
1

> <s_lp_Variant>
CHEMBL3880_lig900-1

> <s_i_glide_gridfile>
glide-grid_1uyg

> <i_i_glide_lignum>
1006

> <i_i_glide_rotatable_bonds>
9

> <r_i_docking_score>
-7.67376627951424

> <r_i_glide_ligand_efficiency>
-0.274063081411223

> <r_i_glide_ligand_efficiency_sa>
-0.832216929687208

> <r_i_glide_ligand_efficiency_ln>
-1.77133056888025

> <r_i_glide_gscore>
-7.67376627951424

> <r_i_glide_lipo>
-3.86226918025019

> <r_i_glide_hbond>
-0.0308934196286461

> <r_i_glide_metal>
0

> <r_i_glide_rewards>
-2.32203747923932

> <r_i_glide_evdw>
-48.1713485717773

> <r_i_glide_ecoul>
0.996534407138824

> <r_i_glide_erotb>
0.800521067121958

> <r_i_glide_esite>
0

> <r_i_glide_emodel>
-64.029042317361

> <r_i_glide_energy>
-47.1748141646385

> <r_i_glide_einternal>
3.94425916671753

> <i_i_glide_confnum>
37

> <i_i_glide_posenum>
170

> <r_i_glide_eff_state_penalty>
0

> <s_user_duplicate_titles>
CHEMBL3880_lig900

> <i_f3d_flags>
0

> <s_m_subgroup_title>
dock_pv

> <s_m_subgroupid>
dock_pv

> <b_m_subgroup_collapsed>
1

$$$$
CHEMBL3880_lig160
                    3D
 Schrodinger Suite 2021-1.
 45 47  0  0  1  0            999 V2000
    4.1896    8.9622   22.5799 C   0  0  0  0  0  0
    2.5555    9.0657   24.1045 C   0  0  0  0  0  0
    3.5400    9.8624   23.4939 C   0  0  0  0  0  0
    2.6737    7.8433   23.5042 N   0  0  0  0  0  0
    3.6504    7.7653   22.6085 N   0  0  0  0  0  0
    1.5580    9.2698   25.1974 C   0  0  0  0  0  0
    5.3496    9.2223   21.7671 C   0  0  0  0  0  0
    1.7419    8.7055   26.4709 C   0  0  0  0  0  0
    0.3871    9.9874   24.9403 C   0  0  0  0  0  0
    0.7729    8.8664   27.4620 C   0  0  0  0  0  0
   -0.5777   10.1578   25.9314 C   0  0  0  0  0  0
    3.8478   11.3170   23.7797 C   0  0  0  0  0  0
   -0.3883    9.5879   27.1933 C   0  0  0  0  0  0
    5.2609    9.5690   20.5885 O   0  0  0  0  0  0
    6.5026    9.1063   22.4509 N   0  0  0  0  0  0
    2.8653   12.2648   24.0975 C   0  0  0  0  0  0
    5.1720   11.7489   23.7392 C   0  0  0  0  0  0
   -2.1450   11.1625   25.5289 Br  0  0  0  0  0  0
    2.8581    7.9698   26.7679 O   0  0  0  0  0  0
   -1.3279    9.7387   28.1790 O   0  0  0  0  0  0
    4.5638   13.9709   24.3776 C   0  0  0  0  0  0
    5.5274   13.0655   23.9674 C   0  0  0  0  0  0
    3.2200   13.5797   24.4161 C   0  0  0  0  0  0
    5.0245   15.2078   24.7666 O   0  0  0  0  0  0
    7.8270    9.5420   22.0110 C   0  0  0  0  0  0
    4.4657   15.7778   25.9408 C   0  0  0  0  0  0
    8.4610   10.5163   23.0181 C   0  0  0  0  0  0
    2.0988    7.0439   23.7285 H   0  0  0  0  0  0
    0.2133   10.4161   23.9665 H   0  0  0  0  0  0
    0.9194    8.4298   28.4390 H   0  0  0  0  0  0
    6.4728    8.5726   23.3068 H   0  0  0  0  0  0
    1.8251   11.9920   24.1236 H   0  0  0  0  0  0
    5.9682   11.0614   23.5984 H   0  0  0  0  0  0
    2.8790    7.6874   27.6844 H   0  0  0  0  0  0
   -1.0041    9.5049   29.0542 H   0  0  0  0  0  0
    6.5662   13.3583   23.9441 H   0  0  0  0  0  0
    2.4568   14.2878   24.7000 H   0  0  0  0  0  0
    8.4610    8.6659   21.8715 H   0  0  0  0  0  0
    7.7730   10.0540   21.0512 H   0  0  0  0  0  0
    5.2286   16.3696   26.4475 H   0  0  0  0  0  0
    4.0951   15.0389   26.6549 H   0  0  0  0  0  0
    3.6611   16.4511   25.6702 H   0  0  0  0  0  0
    9.4884   10.7684   22.7666 H   0  0  0  0  0  0
    7.9489   11.4761   23.0283 H   0  0  0  0  0  0
    8.4631   10.1072   24.0284 H   0  0  0  0  0  0
  1  7  1  0  0  0
  1  5  2  0  0  0
  1  3  1  0  0  0
  2  4  1  0  0  0
  2  6  1  0  0  0
  2  3  2  0  0  0
  3 12  1  0  0  0
  4  5  1  0  0  0
  4 28  1  0  0  0
  6  8  2  0  0  0
  6  9  1  0  0  0
  7 14  2  0  0  0
  7 15  1  0  0  0
  8 10  1  0  0  0
  8 19  1  0  0  0
  9 11  2  0  0  0
  9 29  1  0  0  0
 10 13  2  0  0  0
 10 30  1  0  0  0
 11 13  1  0  0  0
 11 18  1  0  0  0
 12 16  2  0  0  0
 12 17  1  0  0  0
 13 20  1  0  0  0
 15 25  1  0  0  0
 15 31  1  0  0  0
 16 23  1  0  0  0
 16 32  1  0  0  0
 17 22  2  0  0  0
 17 33  1  0  0  0
 19 34  1  0  0  0
 20 35  1  0  0  0
 21 22  1  0  0  0
 21 24  1  0  0  0
 21 23  2  0  0  0
 22 36  1  0  0  0
 23 37  1  0  0  0
 24 26  1  0  0  0
 25 27  1  0  0  0
 25 38  1  0  0  0
 25 39  1  0  0  0
 26 40  1  0  0  0
 26 41  1  0  0  0
 26 42  1  0  0  0
 27 43  1  0  0  0
 27 44  1  0  0  0
 27 45  1  0  0  0
M  END
> <s_m_entry_id>
4998

> <s_m_entry_name>
dock_pv.317

> <s_m_Source_Path>
/home/csk/Desktop/cluster/DUD-E-result/hs90a

> <s_m_Source_File>
dock_pv.maegz

> <i_m_Source_File_Index>
317

> <chembl_id>
CHEMBL190182

> <chembl_pref_name>
None

> <i_lp_mmshare_version>
53161

> <r_lp_tautomer_probability>
0.4999999999745

> <s_lp_Force_Field>
OPLS_2005

> <r_lp_Energy>
26.252129

> <b_lp_Chiralities_Consistent>
1

> <s_lp_Variant>
CHEMBL3880_lig160-2

> <s_i_glide_gridfile>
glide-grid_1uyg

> <i_i_glide_lignum>
189

> <i_i_glide_rotatable_bonds>
8

> <r_i_docking_score>
-7.67358963389226

> <r_i_glide_ligand_efficiency>
-0.284207023477491

> <r_i_glide_ligand_efficiency_sa>
-0.852621069495773

> <r_i_glide_ligand_efficiency_ln>
-1.78628515775779

> <r_i_glide_gscore>
-7.67358963389226

> <r_i_glide_lipo>
-3.99579662497298

> <r_i_glide_hbond>
-0.534234889163565

> <r_i_glide_metal>
0

> <r_i_glide_rewards>
-0.492822171156324

> <r_i_glide_evdw>
-44.3996315002441

> <r_i_glide_ecoul>
-5.71125888824463

> <r_i_glide_erotb>
0.425934459649518

> <r_i_glide_esite>
0

> <r_i_glide_emodel>
-64.0248071536915

> <r_i_glide_energy>
-50.1108903884888

> <r_i_glide_einternal>
12.4993314743042

> <i_i_glide_confnum>
76

> <i_i_glide_posenum>
29

> <r_i_glide_eff_state_penalty>
0

> <s_user_duplicate_titles>
CHEMBL3880_lig160,CHEMBL3880_lig160,317139

> <i_f3d_flags>
0

> <s_m_subgroup_title>
dock_pv

> <s_m_subgroupid>
dock_pv

> <b_m_subgroup_collapsed>
1

$$$$
CHEMBL3880_lig833
                    3D
 Schrodinger Suite 2021-1.
 34 35  0  0  1  0            999 V2000
   -0.0121   10.3271   25.6378 C   0  0  0  0  0  0
   -1.0089   11.0036   24.9260 C   0  0  0  0  0  0
   -0.6425   11.9364   23.9575 C   0  0  0  0  0  0
    0.7035   12.2327   23.7269 C   0  0  0  0  0  0
    1.7162   11.6123   24.4910 C   0  0  0  0  0  0
    1.3310   10.6091   25.3921 C   0  0  0  0  0  0
    0.9869   13.1160   22.7185 O   0  0  0  0  0  0
   -2.3389   10.7690   25.1761 O   0  0  0  0  0  0
   -0.3993    9.1695   26.8629 Cl  0  0  0  0  0  0
    3.2000   11.9410   24.3768 C   0  0  0  0  0  0
    3.6193   13.2367   24.2923 N   0  0  0  0  0  0
    4.0019   11.0049   24.3670 O   0  0  0  0  0  0
    2.8244   14.4005   24.6933 C   0  0  0  0  0  0
    4.9749   13.5737   23.8107 C   0  0  0  0  0  0
    6.1035   13.9690   24.7670 C   0  0  0  0  0  0
    5.9256   14.8621   25.8295 C   0  0  0  0  0  0
    6.9928   15.1690   26.6683 C   0  0  0  0  0  0
    8.2478   14.6153   26.4330 C   0  0  0  0  0  0
    8.4438   13.7490   25.3624 C   0  0  0  0  0  0
    7.3739   13.4297   24.5304 C   0  0  0  0  0  0
   -1.4056   12.4373   23.3791 H   0  0  0  0  0  0
    2.0802   10.0874   25.9733 H   0  0  0  0  0  0
    1.9282   13.2915   22.6497 H   0  0  0  0  0  0
   -2.9620   11.3301   24.6976 H   0  0  0  0  0  0
    3.1388   14.7686   25.6645 H   0  0  0  0  0  0
    2.9418   15.2032   23.9673 H   0  0  0  0  0  0
    1.7578   14.2121   24.7670 H   0  0  0  0  0  0
    5.3364   12.7693   23.1671 H   0  0  0  0  0  0
    4.8607   14.4335   23.1670 H   0  0  0  0  0  0
    4.9836   15.3398   26.0265 H   0  0  0  0  0  0
    6.8497   15.8464   27.4977 H   0  0  0  0  0  0
    9.0702   14.8549   27.0918 H   0  0  0  0  0  0
    9.4152   13.3111   25.1894 H   0  0  0  0  0  0
    7.5362   12.7478   23.7077 H   0  0  0  0  0  0
  1  2  2  0  0  0
  1  6  1  0  0  0
  1  9  1  0  0  0
  2  3  1  0  0  0
  2  8  1  0  0  0
  3  4  2  0  0  0
  3 21  1  0  0  0
  4  5  1  0  0  0
  4  7  1  0  0  0
  5  6  2  0  0  0
  5 10  1  0  0  0
  6 22  1  0  0  0
  7 23  1  0  0  0
  8 24  1  0  0  0
 10 11  1  0  0  0
 10 12  2  0  0  0
 11 13  1  0  0  0
 11 14  1  0  0  0
 13 25  1  0  0  0
 13 26  1  0  0  0
 13 27  1  0  0  0
 14 15  1  0  0  0
 14 28  1  0  0  0
 14 29  1  0  0  0
 15 16  2  0  0  0
 15 20  1  0  0  0
 16 17  1  0  0  0
 16 30  1  0  0  0
 17 18  2  0  0  0
 17 31  1  0  0  0
 18 19  1  0  0  0
 18 32  1  0  0  0
 19 20  2  0  0  0
 19 33  1  0  0  0
 20 34  1  0  0  0
M  END
> <s_m_entry_id>
4999

> <s_m_entry_name>
dock_pv.318

> <s_m_Source_Path>
/home/csk/Desktop/cluster/DUD-E-result/hs90a

> <s_m_Source_File>
dock_pv.maegz

> <i_m_Source_File_Index>
318

> <chembl_id>
CHEMBL4281389

> <chembl_pref_name>
None

> <i_lp_mmshare_version>
53161

> <r_lp_tautomer_probability>
0.999999999898

> <s_lp_Force_Field>
OPLS_2005

> <r_lp_Energy>
24.426375

> <b_lp_Chiralities_Consistent>
1

> <s_lp_Variant>
CHEMBL3880_lig833-1

> <s_i_glide_gridfile>
glide-grid_1uyg

> <i_i_glide_lignum>
934

> <i_i_glide_rotatable_bonds>
6

> <r_i_docking_score>
-7.66600320957964

> <r_i_glide_ligand_efficiency>
-0.383300160478982

> <r_i_glide_ligand_efficiency_sa>
-1.04043670700885

> <r_i_glide_ligand_efficiency_ln>
-1.91854776164999

> <r_i_glide_gscore>
-7.66600320957964

> <r_i_glide_lipo>
-3.73783938116312

> <r_i_glide_hbond>
-0.124563292126573

> <r_i_glide_metal>
0

> <r_i_glide_rewards>
-2.34723038746728

> <r_i_glide_evdw>
-33.0406341552734

> <r_i_glide_ecoul>
-2.98334574699402

> <r_i_glide_erotb>
0.64316342099011

> <r_i_glide_esite>
0

> <r_i_glide_emodel>
-51.8793387121904

> <r_i_glide_energy>
-36.0239799022675

> <r_i_glide_einternal>
5.16100549697876

> <i_i_glide_confnum>
12

> <i_i_glide_posenum>
367

> <r_i_glide_eff_state_penalty>
0

> <s_user_duplicate_titles>
CHEMBL3880_lig833

> <i_f3d_flags>
0

> <s_m_subgroup_title>
dock_pv

> <s_m_subgroupid>
dock_pv

> <b_m_subgroup_collapsed>
1

$$$$
CHEMBL3880_lig142
                    3D
 Schrodinger Suite 2021-1.
 48 50  0  0  1  0            999 V2000
   -1.1335   11.1403   24.7754 P   0  0  0  0  0  0
   -0.1485   12.2351   24.5851 O   0  0  0  0  0  0
   -2.3381   11.1426   23.6971 O   0  0  0  0  0  0
   -1.9392   11.1668   26.1797 O   0  0  0  0  0  0
    1.0505    8.9056   25.1535 P   0  0  1  0  0  0
    2.1384    9.9061   25.4534 O   0  0  0  0  0  0
    0.6820    7.9194   26.4895 O   0  0  0  0  0  0
   -0.5256    9.5732   24.7283 N   0  0  3  0  0  0
    2.7643    7.0937   23.3268 P   0  0  1  0  0  0
    3.4288    6.2012   24.3124 O   0  0  0  0  0  0
    2.2683    6.3690   21.9674 O   0  0  0  0  0  0
    1.4452    7.8653   23.8655 O   0  0  0  0  0  0
    3.6945    8.3079   22.7721 O   0  0  0  0  0  0
    4.6809    8.0837   21.7728 C   0  0  0  0  0  0
    5.8857    9.0171   21.9916 C   0  0  1  0  0  0
    5.3956   10.3327   22.1262 O   0  0  0  0  0  0
    6.6669    8.8132   23.2855 C   0  0  1  0  0  0
    7.7847    7.9584   23.1192 O   0  0  0  0  0  0
    7.0907   10.2159   23.7305 C   0  0  1  0  0  0
    8.4609   10.5324   23.5652 O   0  0  0  0  0  0
    6.2802   11.1468   22.8280 C   0  0  2  0  0  0
    5.5125   12.2101   23.5766 N   0  0  0  0  0  0
    4.2023   12.2653   23.8983 C   0  0  0  0  0  0
    3.8779   13.3280   24.5961 N   0  0  0  0  0  0
    5.0417   13.9770   24.7681 C   0  0  0  0  0  0
    5.3749   15.1584   25.4697 C   0  0  0  0  0  0
    4.4604   15.9240   26.1774 N   0  0  0  0  0  0
    6.6683   15.5652   25.4799 N   0  0  0  0  0  0
    7.5661   14.8221   24.8228 C   0  0  0  0  0  0
    7.3828   13.6925   24.1281 N   0  0  0  0  0  0
    6.0802   13.3154   24.1375 C   0  0  0  0  0  0
   -3.1899   11.5683   23.9662 H   0  0  0  0  0  0
   -2.8702   11.4634   26.1260 H   0  0  0  0  0  0
    0.1435    8.2414   27.2346 H   0  0  0  0  0  0
   -1.0956    8.9544   24.1459 H   0  0  0  0  0  0
    2.0571    6.9813   21.2233 H   0  0  0  0  0  0
    5.0169    7.0439   21.7571 H   0  0  0  0  0  0
    4.2279    8.2780   20.7997 H   0  0  0  0  0  0
    6.5584    8.9894   21.1348 H   0  0  0  0  0  0
    5.9987    8.3968   24.0414 H   0  0  0  0  0  0
    7.6478    7.4134   22.3312 H   0  0  0  0  0  0
    6.8042   10.3700   24.7659 H   0  0  0  0  0  0
    8.9774    9.8953   24.0693 H   0  0  0  0  0  0
    6.9184   11.6666   22.1101 H   0  0  0  0  0  0
    3.5252   11.4795   23.5921 H   0  0  0  0  0  0
    3.5080   15.5995   26.2557 H   0  0  0  0  0  0
    4.7996   16.7316   26.6762 H   0  0  0  0  0  0
    8.5824   15.1866   24.8590 H   0  0  0  0  0  0
  1  2  2  0  0  0
  1  3  1  0  0  0
  1  4  1  0  0  0
  1  8  1  0  0  0
  3 32  1  0  0  0
  4 33  1  0  0  0
  5  6  2  0  0  0
  5  7  1  0  0  0
  5  8  1  0  0  0
  5 12  1  0  0  0
  7 34  1  0  0  0
  8 35  1  0  0  0
  9 10  2  0  0  0
  9 11  1  0  0  0
  9 12  1  0  0  0
  9 13  1  0  0  0
 11 36  1  0  0  0
 13 14  1  0  0  0
 14 15  1  0  0  0
 14 37  1  0  0  0
 14 38  1  0  0  0
 15 16  1  0  0  0
 15 17  1  0  0  0
 15 39  1  0  0  0
 16 21  1  0  0  0
 17 18  1  0  0  0
 17 19  1  0  0  0
 17 40  1  0  0  0
 18 41  1  0  0  0
 19 20  1  0  0  0
 19 21  1  0  0  0
 19 42  1  0  0  0
 20 43  1  0  0  0
 21 22  1  0  0  0
 21 44  1  0  0  0
 22 23  1  0  0  0
 22 31  1  0  0  0
 23 24  2  0  0  0
 23 45  1  0  0  0
 24 25  1  0  0  0
 25 26  1  0  0  0
 25 31  2  0  0  0
 26 27  1  0  0  0
 26 28  2  0  0  0
 27 46  1  0  0  0
 27 47  1  0  0  0
 28 29  1  0  0  0
 29 30  2  0  0  0
 29 48  1  0  0  0
 30 31  1  0  0  0
M  END
> <s_m_entry_id>
5001

> <s_m_entry_name>
dock_pv.320

> <s_m_Source_Path>
/home/csk/Desktop/cluster/DUD-E-result/hs90a

> <s_m_Source_File>
dock_pv.maegz

> <i_m_Source_File_Index>
320

> <chembl_id>
CHEMBL1230989

> <chembl_pref_name>
None

> <i_lp_mmshare_version>
53161

> <r_lp_tautomer_probability>
0.999997216410988

> <s_lp_Force_Field>
OPLS_2005

> <r_lp_Energy>
12.590474

> <b_lp_Chiralities_Consistent>
1

> <s_lp_Variant>
CHEMBL3880_lig142-4

> <s_i_glide_gridfile>
glide-grid_1uyg

> <i_i_glide_lignum>
162

> <i_i_glide_rotatable_bonds>
14

> <r_i_docking_score>
-7.65482536850276

> <r_i_glide_ligand_efficiency>
-0.246929850596863

> <r_i_glide_ligand_efficiency_sa>
-0.775700654274968

> <r_i_glide_ligand_efficiency_ln>
-1.72639771282146

> <r_i_glide_gscore>
-7.65482536850276

> <r_i_glide_lipo>
-1.00516943078698

> <r_i_glide_hbond>
-0.32

> <r_i_glide_metal>
0

> <r_i_glide_rewards>
-1.61258281635304

> <r_i_glide_evdw>
-44.4485206604004

> <r_i_glide_ecoul>
-20.7998485565186

> <r_i_glide_erotb>
0.638739665717655

> <r_i_glide_esite>
-0.0134094705825874

> <r_i_glide_emodel>
-91.7132415813667

> <r_i_glide_energy>
-65.2483692169189

> <r_i_glide_einternal>
13.1311435699463

> <i_i_glide_confnum>
75

> <i_i_glide_posenum>
359

> <r_i_glide_eff_state_penalty>
0

> <s_user_duplicate_titles>
CHEMBL3880_lig142

> <i_f3d_flags>
0

> <s_m_subgroup_title>
dock_pv

> <s_m_subgroupid>
dock_pv

> <b_m_subgroup_collapsed>
1

$$$$
CHEMBL3880_lig369
                    3D
 Schrodinger Suite 2021-1.
 72 75  0  0  1  0            999 V2000
   -0.9791   11.4168   24.4722 C   0  0  0  0  0  0
   -0.9427   10.2650   25.2485 C   0  0  0  0  0  0
    0.2186    9.4935   25.2991 C   0  0  0  0  0  0
    1.3398    9.8452   24.5196 C   0  0  0  0  0  0
    1.2793   11.0146   23.7681 C   0  0  0  0  0  0
    0.1601   11.8367   23.7858 C   0  0  0  0  0  0
    0.2171    8.3906   26.1127 O   0  0  0  0  0  0
   -2.1302   12.1362   24.3669 O   0  0  0  0  0  0
    2.5762    9.0119   24.3662 C   0  0  0  0  0  0
    2.4136    7.7058   24.3822 N   0  0  0  0  0  0
    3.6569    7.1384   24.1893 O   0  0  0  0  0  0
    4.5495    8.1396   24.0201 C   0  0  0  0  0  0
    3.9329    9.3899   24.1330 C   0  0  0  0  0  0
    5.8734    7.7826   23.8478 N   0  0  0  0  0  0
    4.6047   10.7541   24.0295 C   0  0  0  0  0  0
    4.0609   11.9134   24.6090 C   0  0  0  0  0  0
    4.7130   13.1488   24.5243 C   0  0  0  0  0  0
    5.9901   13.2134   23.9670 C   0  0  0  0  0  0
    6.5490   12.0720   23.3895 C   0  0  0  0  0  0
    5.8412   10.8735   23.3779 C   0  0  0  0  0  0
    6.3561    6.5530   23.5671 C   0  0  0  0  0  0
    5.6633    5.5469   23.4215 O   0  0  0  0  0  0
    7.8803    6.3922   23.4154 C   0  0  0  0  0  0
    8.6218    7.5646   22.7736 C   0  0  0  0  0  0
    8.7395    7.3508   24.2441 C   0  0  0  0  0  0
    0.2216   13.1710   23.0614 C   0  0  0  0  0  0
    0.4867   12.9958   21.5665 C   0  0  0  0  0  0
    1.2628   14.1055   23.7048 C   0  0  0  0  0  0
    6.8138   14.5061   24.0716 C   0  0  0  0  0  0
    7.5872   14.7024   25.3067 N   0  0  1  0  0  0
    6.7466   15.1246   26.4286 C   0  0  0  0  0  0
    8.4609   13.5693   25.6234 C   0  0  0  0  0  0
    9.5687   13.7800   26.6879 C   0  0  0  0  0  0
   10.6130   14.7626   26.3662 N   0  0  0  0  0  0
   10.1286   16.1346   26.4866 C   0  0  0  0  0  0
   11.7235   14.5964   27.3030 C   0  0  0  0  0  0
   -1.8185    9.9694   25.8056 H   0  0  0  0  0  0
    2.1102   11.2898   23.1385 H   0  0  0  0  0  0
   -0.6230    8.2525   26.5526 H   0  0  0  0  0  0
   -2.9617   11.7146   24.6211 H   0  0  0  0  0  0
    6.5446    8.5250   23.9452 H   0  0  0  0  0  0
    3.1486   11.8693   25.1819 H   0  0  0  0  0  0
    4.2772   14.0185   24.9941 H   0  0  0  0  0  0
    7.5298   12.1162   22.9376 H   0  0  0  0  0  0
    6.2928   10.0363   22.8733 H   0  0  0  0  0  0
    8.2225    5.3871   23.1671 H   0  0  0  0  0  0
    8.0655    8.4182   22.3848 H   0  0  0  0  0  0
    9.4514    7.3021   22.1196 H   0  0  0  0  0  0
    9.6609    6.9568   24.6584 H   0  0  0  0  0  0
    8.2831    8.0682   24.9277 H   0  0  0  0  0  0
   -0.7372   13.6750   23.1669 H   0  0  0  0  0  0
   -0.3826   12.5998   21.0397 H   0  0  0  0  0  0
    0.7322   13.9688   21.1670 H   0  0  0  0  0  0
    1.3449   12.3623   21.3543 H   0  0  0  0  0  0
    1.0691   14.2385   24.7669 H   0  0  0  0  0  0
    2.2699   13.7184   23.5827 H   0  0  0  0  0  0
    1.2612   15.0939   23.2526 H   0  0  0  0  0  0
    7.5275   14.5333   23.2464 H   0  0  0  0  0  0
    6.1505   15.3643   23.9671 H   0  0  0  0  0  0
    7.3426   15.3413   27.3154 H   0  0  0  0  0  0
    6.2051   16.0375   26.1781 H   0  0  0  0  0  0
    6.0086   14.3690   26.6939 H   0  0  0  0  0  0
    7.8136   12.7692   25.9669 H   0  0  0  0  0  0
    8.9293   13.1876   24.7191 H   0  0  0  0  0  0
    9.1309   13.9686   27.6702 H   0  0  0  0  0  0
   10.0615   12.8108   26.7786 H   0  0  0  0  0  0
   10.9446   16.8456   26.3655 H   0  0  0  0  0  0
    9.4005   16.3687   25.7134 H   0  0  0  0  0  0
    9.6715   16.3128   27.4619 H   0  0  0  0  0  0
   12.5374   15.2827   27.0649 H   0  0  0  0  0  0
   11.4174   14.7785   28.3359 H   0  0  0  0  0  0
   12.1296   13.5860   27.2462 H   0  0  0  0  0  0
  1  2  2  0  0  0
  1  6  1  0  0  0
  1  8  1  0  0  0
  2  3  1  0  0  0
  2 37  1  0  0  0
  3  4  2  0  0  0
  3  7  1  0  0  0
  4  5  1  0  0  0
  4  9  1  0  0  0
  5  6  2  0  0  0
  5 38  1  0  0  0
  6 26  1  0  0  0
  7 39  1  0  0  0
  8 40  1  0  0  0
  9 10  2  0  0  0
  9 13  1  0  0  0
 10 11  1  0  0  0
 11 12  1  0  0  0
 12 13  2  0  0  0
 12 14  1  0  0  0
 13 15  1  0  0  0
 14 21  1  0  0  0
 14 41  1  0  0  0
 15 16  2  0  0  0
 15 20  1  0  0  0
 16 17  1  0  0  0
 16 42  1  0  0  0
 17 18  2  0  0  0
 17 43  1  0  0  0
 18 19  1  0  0  0
 18 29  1  0  0  0
 19 20  2  0  0  0
 19 44  1  0  0  0
 20 45  1  0  0  0
 21 22  2  0  0  0
 21 23  1  0  0  0
 23 24  1  0  0  0
 23 25  1  0  0  0
 23 46  1  0  0  0
 24 25  1  0  0  0
 24 47  1  0  0  0
 24 48  1  0  0  0
 25 49  1  0  0  0
 25 50  1  0  0  0
 26 27  1  0  0  0
 26 28  1  0  0  0
 26 51  1  0  0  0
 27 52  1  0  0  0
 27 53  1  0  0  0
 27 54  1  0  0  0
 28 55  1  0  0  0
 28 56  1  0  0  0
 28 57  1  0  0  0
 29 30  1  0  0  0
 29 58  1  0  0  0
 29 59  1  0  0  0
 30 31  1  0  0  0
 30 32  1  0  0  0
 31 60  1  0  0  0
 31 61  1  0  0  0
 31 62  1  0  0  0
 32 33  1  0  0  0
 32 63  1  0  0  0
 32 64  1  0  0  0
 33 34  1  0  0  0
 33 65  1  0  0  0
 33 66  1  0  0  0
 34 35  1  0  0  0
 34 36  1  0  0  0
 35 67  1  0  0  0
 35 68  1  0  0  0
 35 69  1  0  0  0
 36 70  1  0  0  0
 36 71  1  0  0  0
 36 72  1  0  0  0
M  END
> <s_m_entry_id>
5002

> <s_m_entry_name>
dock_pv.321

> <s_m_Source_Path>
/home/csk/Desktop/cluster/DUD-E-result/hs90a

> <s_m_Source_File>
dock_pv.maegz

> <i_m_Source_File_Index>
321

> <chembl_id>
CHEMBL3342732

> <chembl_pref_name>
None

> <i_lp_mmshare_version>
53161

> <r_lp_tautomer_probability>
0.999999999898

> <s_lp_Force_Field>
OPLS_2005

> <r_lp_Energy>
37.93682

> <b_lp_Chiralities_Consistent>
1

> <s_lp_Variant>
CHEMBL3880_lig369-1

> <s_i_glide_gridfile>
glide-grid_1uyg

> <i_i_glide_lignum>
411

> <i_i_glide_rotatable_bonds>
13

> <r_i_docking_score>
-7.65463651082749

> <r_i_glide_ligand_efficiency>
-0.21262879196743

> <r_i_glide_ligand_efficiency_sa>
-0.70208480125816

> <r_i_glide_ligand_efficiency_ln>
-1.67003488228323

> <r_i_glide_gscore>
-7.65463651082749

> <r_i_glide_lipo>
-5.18301891604345

> <r_i_glide_hbond>
-0.109184819615374

> <r_i_glide_metal>
0

> <r_i_glide_rewards>
-0.527052127571656

> <r_i_glide_evdw>
-45.1908416748047

> <r_i_glide_ecoul>
-2.12260460853577

> <r_i_glide_erotb>
0.75532985806089

> <r_i_glide_esite>
-0.0127777306373044

> <r_i_glide_emodel>
-58.721694431214

> <r_i_glide_energy>
-47.3134462833405

> <r_i_glide_einternal>
12.3852014541626

> <i_i_glide_confnum>
44

> <i_i_glide_posenum>
180

> <r_i_glide_eff_state_penalty>
0

> <s_user_duplicate_titles>
CHEMBL3880_lig369

> <i_f3d_flags>
0

> <s_m_subgroup_title>
dock_pv

> <s_m_subgroupid>
dock_pv

> <b_m_subgroup_collapsed>
1

$$$$
CHEMBL3880_lig162
                    3D
 Schrodinger Suite 2021-1.
 48 50  0  0  1  0            999 V2000
    3.8420    9.0371   22.8779 C   0  0  0  0  0  0
    2.0519    8.9715   24.1919 C   0  0  0  0  0  0
    2.9901    9.8680   23.6266 C   0  0  0  0  0  0
    2.2562    7.7277   23.8172 N   0  0  0  0  0  0
    3.3343    7.7763   23.0363 N   0  0  0  0  0  0
    0.9685    9.2837   25.1631 C   0  0  0  0  0  0
    5.1167    9.3014   22.2801 C   0  0  0  0  0  0
    0.9630    8.8670   26.5036 C   0  0  0  0  0  0
   -0.0837   10.0628   24.6978 C   0  0  0  0  0  0
   -0.0869    9.2382   27.3477 C   0  0  0  0  0  0
    6.0975    9.2848   23.2013 N   0  0  0  0  0  0
   -1.1159   10.4511   25.5312 C   0  0  0  0  0  0
    3.1102   11.3477   23.8678 C   0  0  0  0  0  0
   -1.1282   10.0347   26.8666 C   0  0  0  0  0  0
    5.2429    9.5691   21.0851 O   0  0  0  0  0  0
    4.3222   11.8047   24.3659 C   0  0  0  0  0  0
    2.0901   12.2800   23.6440 C   0  0  0  0  0  0
   -2.3388   11.4386   24.8328 Cl  0  0  0  0  0  0
    1.9801    8.1006   27.0056 O   0  0  0  0  0  0
   -2.1626   10.3705   27.6988 O   0  0  0  0  0  0
    3.5139   14.0691   24.4541 C   0  0  0  0  0  0
    2.2818   13.6263   23.9670 C   0  0  0  0  0  0
    4.5427   13.1532   24.6103 C   0  0  0  0  0  0
    7.4574    9.8226   23.1239 C   0  0  0  0  0  0
    3.6609   15.4002   24.7705 O   0  0  0  0  0  0
    4.8775   15.8879   25.3309 C   0  0  0  0  0  0
    7.4701   11.3360   23.3958 C   0  0  0  0  0  0
    8.2275    9.5178   21.8391 C   0  0  0  0  0  0
    3.7291    6.9439   22.6212 H   0  0  0  0  0  0
   -0.1230   10.3758   23.6688 H   0  0  0  0  0  0
   -0.0905    8.9144   28.3791 H   0  0  0  0  0  0
    5.8489    8.8916   24.0955 H   0  0  0  0  0  0
    5.0996   11.1007   24.5947 H   0  0  0  0  0  0
    1.1464   11.9790   23.2235 H   0  0  0  0  0  0
    2.6219    7.8808   26.3270 H   0  0  0  0  0  0
   -2.8499   10.8631   27.2383 H   0  0  0  0  0  0
    1.4804   14.3350   23.8194 H   0  0  0  0  0  0
    5.5105   13.4644   24.9690 H   0  0  0  0  0  0
    8.0058    9.3378   23.9343 H   0  0  0  0  0  0
    4.7706   16.9523   25.5371 H   0  0  0  0  0  0
    5.7148   15.7690   24.6415 H   0  0  0  0  0  0
    5.1135   15.3930   26.2745 H   0  0  0  0  0  0
    8.4609   11.7432   23.2371 H   0  0  0  0  0  0
    6.7974   11.8806   22.7317 H   0  0  0  0  0  0
    7.2279   11.5680   24.4287 H   0  0  0  0  0  0
    9.2608    9.8296   21.9632 H   0  0  0  0  0  0
    8.2251    8.4605   21.5746 H   0  0  0  0  0  0
    7.8266   10.1047   21.0147 H   0  0  0  0  0  0
  1  3  2  0  0  0
  1  5  1  0  0  0
  1  7  1  0  0  0
  2  3  1  0  0  0
  2  6  1  0  0  0
  2  4  2  0  0  0
  3 13  1  0  0  0
  4  5  1  0  0  0
  5 29  1  0  0  0
  6  8  2  0  0  0
  6  9  1  0  0  0
  7 11  1  0  0  0
  7 15  2  0  0  0
  8 10  1  0  0  0
  8 19  1  0  0  0
  9 12  2  0  0  0
  9 30  1  0  0  0
 10 14  2  0  0  0
 10 31  1  0  0  0
 11 24  1  0  0  0
 11 32  1  0  0  0
 12 14  1  0  0  0
 12 18  1  0  0  0
 13 16  2  0  0  0
 13 17  1  0  0  0
 14 20  1  0  0  0
 16 23  1  0  0  0
 16 33  1  0  0  0
 17 22  2  0  0  0
 17 34  1  0  0  0
 19 35  1  0  0  0
 20 36  1  0  0  0
 21 22  1  0  0  0
 21 25  1  0  0  0
 21 23  2  0  0  0
 22 37  1  0  0  0
 23 38  1  0  0  0
 24 27  1  0  0  0
 24 28  1  0  0  0
 24 39  1  0  0  0
 25 26  1  0  0  0
 26 40  1  0  0  0
 26 41  1  0  0  0
 26 42  1  0  0  0
 27 43  1  0  0  0
 27 44  1  0  0  0
 27 45  1  0  0  0
 28 46  1  0  0  0
 28 47  1  0  0  0
 28 48  1  0  0  0
M  END
> <s_m_entry_id>
5003

> <s_m_entry_name>
dock_pv.322

> <s_m_Source_Path>
/home/csk/Desktop/cluster/DUD-E-result/hs90a

> <s_m_Source_File>
dock_pv.maegz

> <i_m_Source_File_Index>
322

> <chembl_id>
CHEMBL365700

> <chembl_pref_name>
None

> <i_lp_mmshare_version>
53161

> <r_lp_tautomer_probability>
0.4999999999745

> <s_lp_Force_Field>
OPLS_2005

> <r_lp_Energy>
27.54476

> <b_lp_Chiralities_Consistent>
1

> <s_lp_Variant>
CHEMBL3880_lig162-1

> <s_i_glide_gridfile>
glide-grid_1uyg

> <i_i_glide_lignum>
192

> <i_i_glide_rotatable_bonds>
8

> <r_i_docking_score>
-7.63975921206609

> <r_i_glide_ligand_efficiency>
-0.272848543288075

> <r_i_glide_ligand_efficiency_sa>
-0.828528876620631

> <r_i_glide_ligand_efficiency_ln>
-1.76348073922233

> <r_i_glide_gscore>
-7.63975921206609

> <r_i_glide_lipo>
-4.45956054454238

> <r_i_glide_hbond>
-0.0105816245895111

> <r_i_glide_metal>
0

> <r_i_glide_rewards>
-1.09677882590083

> <r_i_glide_evdw>
-39.7496185302734

> <r_i_glide_ecoul>
-3.80878853797913

> <r_i_glide_erotb>
0.485960990177168

> <r_i_glide_esite>
0

> <r_i_glide_emodel>
-53.8490615649258

> <r_i_glide_energy>
-43.5584070682526

> <r_i_glide_einternal>
14.8712778091431

> <i_i_glide_confnum>
26

> <i_i_glide_posenum>
25

> <r_i_glide_eff_state_penalty>
0

> <s_user_duplicate_titles>
CHEMBL3880_lig162,CHEMBL3880_lig162,317776

> <i_f3d_flags>
0

> <s_m_subgroup_title>
dock_pv

> <s_m_subgroupid>
dock_pv

> <b_m_subgroup_collapsed>
1

$$$$
CHEMBL3880_lig86
                    3D
 Schrodinger Suite 2021-1.
 56 58  0  0  1  0            999 V2000
    1.2587    7.4820   30.1485 S   0  0  0  0  0  0
   -0.8302   10.7670   26.7468 O   0  0  0  0  0  0
    8.0545   13.9192   24.5706 O   0  0  0  0  0  0
    2.0610   12.3957   22.9097 N   0  0  0  0  0  0
    0.8775    9.2542   26.7324 N   0  0  0  0  0  0
    0.6508    8.7694   27.9715 N   0  0  0  0  0  0
    2.6731    7.3585   27.9767 N   0  0  0  0  0  0
    0.0304   11.5355   23.9649 C   0  0  0  0  0  0
    0.8233   10.9781   25.0273 C   0  0  0  0  0  0
    0.7182   12.2205   22.9112 C   0  0  0  0  0  0
    2.7824   11.9248   23.9477 C   0  0  0  0  0  0
    2.2162   11.1695   24.9739 C   0  0  0  0  0  0
    4.1621   12.4609   24.0308 C   0  0  0  0  0  0
    0.1953   10.3062   26.2339 C   0  0  0  0  0  0
   -1.3884   11.4483   23.8704 C   0  0  0  0  0  0
   -0.0013   12.7689   21.8261 C   0  0  0  0  0  0
    4.3476   13.7204   24.6085 C   0  0  0  0  0  0
    5.2753   11.7481   23.5735 C   0  0  0  0  0  0
   -2.0631   12.0209   22.8001 C   0  0  0  0  0  0
   -1.3856   12.6748   21.7837 C   0  0  0  0  0  0
    6.7478   13.5135   24.3670 C   0  0  0  0  0  0
    5.6232   14.2508   24.7669 C   0  0  0  0  0  0
    6.5586   12.2781   23.7376 C   0  0  0  0  0  0
    1.5126    7.9616   28.4513 C   0  0  0  0  0  0
    8.3098   15.0876   25.3497 C   0  0  0  0  0  0
    9.7638   15.0800   25.8482 C   0  0  0  0  0  0
    3.2609    7.4623   26.6449 C   0  0  0  0  0  0
   10.0584   13.9554   26.8588 C   0  0  0  0  0  0
    2.5417    6.6028   25.5941 C   0  0  0  0  0  0
   11.4545   14.0669   27.4869 C   0  0  0  0  0  0
    0.3422    8.4273   30.4012 H   0  0  0  0  0  0
    1.6957    8.8926   26.2667 H   0  0  0  0  0  0
    3.2150    6.8161   28.6341 H   0  0  0  0  0  0
    2.8489   10.8501   25.7906 H   0  0  0  0  0  0
   -1.9697   10.9350   24.6214 H   0  0  0  0  0  0
    0.5335   13.2763   21.0406 H   0  0  0  0  0  0
    3.4943   14.2894   24.9499 H   0  0  0  0  0  0
    5.1490   10.7782   23.1152 H   0  0  0  0  0  0
   -3.1380   11.9510   22.7672 H   0  0  0  0  0  0
   -1.9405   13.1001   20.9592 H   0  0  0  0  0  0
    5.7149   15.2243   25.2228 H   0  0  0  0  0  0
    7.4186   11.7125   23.4095 H   0  0  0  0  0  0
    7.6577   15.1505   26.2227 H   0  0  0  0  0  0
    8.1226   15.9688   24.7358 H   0  0  0  0  0  0
    9.9779   16.0437   26.3121 H   0  0  0  0  0  0
   10.4420   14.9940   25.0003 H   0  0  0  0  0  0
    3.3129    8.5031   26.3250 H   0  0  0  0  0  0
    4.2964    7.1266   26.7163 H   0  0  0  0  0  0
    9.9583   12.9867   26.3662 H   0  0  0  0  0  0
    9.3135   13.9729   27.6565 H   0  0  0  0  0  0
    3.0203    6.7021   24.6197 H   0  0  0  0  0  0
    2.5671    5.5470   25.8646 H   0  0  0  0  0  0
    1.4965    6.8879   25.4743 H   0  0  0  0  0  0
   11.6182   13.2730   28.2162 H   0  0  0  0  0  0
   11.5763   15.0170   28.0092 H   0  0  0  0  0  0
   12.2373   13.9950   26.7315 H   0  0  0  0  0  0
  1 24  1  0  0  0
  1 31  1  0  0  0
  2 14  2  0  0  0
  3 21  1  0  0  0
  3 25  1  0  0  0
  4 10  2  0  0  0
  4 11  1  0  0  0
  5  6  1  0  0  0
  5 14  1  0  0  0
  5 32  1  0  0  0
  6 24  2  3  0  0
  7 24  1  0  0  0
  7 27  1  0  0  0
  7 33  1  0  0  0
  8  9  2  0  0  0
  8 10  1  0  0  0
  8 15  1  0  0  0
  9 12  1  0  0  0
  9 14  1  0  0  0
 10 16  1  0  0  0
 11 12  2  0  0  0
 11 13  1  0  0  0
 12 34  1  0  0  0
 13 17  2  0  0  0
 13 18  1  0  0  0
 15 19  2  0  0  0
 15 35  1  0  0  0
 16 20  2  0  0  0
 16 36  1  0  0  0
 17 22  1  0  0  0
 17 37  1  0  0  0
 18 23  2  0  0  0
 18 38  1  0  0  0
 19 20  1  0  0  0
 19 39  1  0  0  0
 20 40  1  0  0  0
 21 22  2  0  0  0
 21 23  1  0  0  0
 22 41  1  0  0  0
 23 42  1  0  0  0
 25 26  1  0  0  0
 25 43  1  0  0  0
 25 44  1  0  0  0
 26 28  1  0  0  0
 26 45  1  0  0  0
 26 46  1  0  0  0
 27 29  1  0  0  0
 27 47  1  0  0  0
 27 48  1  0  0  0
 28 30  1  0  0  0
 28 49  1  0  0  0
 28 50  1  0  0  0
 29 51  1  0  0  0
 29 52  1  0  0  0
 29 53  1  0  0  0
 30 54  1  0  0  0
 30 55  1  0  0  0
 30 56  1  0  0  0
M  END
> <s_m_entry_id>
5004

> <s_m_entry_name>
dock_pv.323

> <s_m_Source_Path>
/home/csk/Desktop/cluster/DUD-E-result/hs90a

> <s_m_Source_File>
dock_pv.maegz

> <i_m_Source_File_Index>
323

> <chembl_id>
CHEMBL1310341

> <chembl_pref_name>
None

> <i_lp_mmshare_version>
53161

> <r_lp_tautomer_probability>
1

> <s_lp_Force_Field>
OPLS_2005

> <r_lp_Energy>
28.182445

> <b_lp_Chiralities_Consistent>
1

> <s_lp_Variant>
CHEMBL3880_lig86-2

> <s_i_glide_gridfile>
glide-grid_1uyg

> <i_i_glide_lignum>
97

> <i_i_glide_rotatable_bonds>
11

> <r_i_docking_score>
-7.63510393895054

> <r_i_glide_ligand_efficiency>
-0.254503464631685

> <r_i_glide_ligand_efficiency_sa>
-0.790801437284892

> <r_i_glide_ligand_efficiency_ln>
-1.73477880605006

> <r_i_glide_gscore>
-7.63510393895054

> <r_i_glide_lipo>
-4.30236348542287

> <r_i_glide_hbond>
-0.378169366387523

> <r_i_glide_metal>
0

> <r_i_glide_rewards>
-0.700566599429174

> <r_i_glide_evdw>
-52.5601196289062

> <r_i_glide_ecoul>
-4.12708330154419

> <r_i_glide_erotb>
0.998650511795459

> <r_i_glide_esite>
-0.00558652282949413

> <r_i_glide_emodel>
-73.0911454203746

> <r_i_glide_energy>
-56.6872029304504

> <r_i_glide_einternal>
11.3906412124634

> <i_i_glide_confnum>
24

> <i_i_glide_posenum>
348

> <r_i_glide_eff_state_penalty>
0

> <s_user_duplicate_titles>
CHEMBL3880_lig86

> <i_f3d_flags>
0

> <s_m_subgroup_title>
dock_pv

> <s_m_subgroupid>
dock_pv

> <b_m_subgroup_collapsed>
1

$$$$
CHEMBL3880_lig992
                    3D
 Schrodinger Suite 2021-1.
 53 56  0  0  1  0            999 V2000
    2.3038    9.0604   23.5670 C   0  0  0  0  0  0
    1.7517    7.8873   24.0733 C   0  0  0  0  0  0
    1.0693    7.9090   25.2937 C   0  0  0  0  0  0
    0.8885    9.1168   25.9744 C   0  0  0  0  0  0
    1.4200   10.2861   25.4492 C   0  0  0  0  0  0
    2.1698   10.2640   24.2718 C   0  0  0  0  0  0
    2.8192   11.5554   23.8295 C   0  0  0  0  0  0
    4.1868   11.6489   23.9072 N   0  0  0  0  0  0
    0.4693    6.7288   25.7698 N   0  0  0  0  0  0
    0.5802    6.2873   27.0553 C   0  0  0  0  0  0
   -0.6297    6.2305   24.9688 C   0  0  0  0  0  0
    1.9053    6.4803   27.7519 C   0  0  0  0  0  0
   -0.3125    5.6553   27.6309 O   0  0  0  0  0  0
    3.0970    6.2692   27.0372 C   0  0  0  0  0  0
    4.3317    6.3608   27.6682 C   0  0  0  0  0  0
    4.3925    6.6751   29.0190 C   0  0  0  0  0  0
    3.2216    6.9024   29.7391 C   0  0  0  0  0  0
    1.9797    6.8047   29.1188 C   0  0  0  0  0  0
    0.8661    7.0610   29.8803 O   0  0  0  0  0  0
    5.6079    6.7693   29.6311 O   0  0  0  0  0  0
    2.0788   12.5121   23.5881 O   0  0  0  0  0  0
    6.9279   11.9482   23.3111 O   0  0  0  0  0  0
    6.5049   10.6336   23.6862 C   0  0  1  0  0  0
    4.9702   10.4247   23.6056 C   0  0  0  0  0  0
    6.2478   12.9474   23.9669 C   0  0  0  0  0  0
    4.8615   12.8731   24.1995 C   0  0  0  0  0  0
    4.2660   13.9586   24.8799 C   0  0  0  0  0  0
    5.0164   15.0657   25.2774 C   0  0  0  0  0  0
    6.3851   15.1103   25.0278 C   0  0  0  0  0  0
    7.0034   14.0501   24.3671 C   0  0  0  0  0  0
    7.2250    9.6454   22.7344 C   0  0  0  0  0  0
    8.1245    9.9687   21.9665 O   0  0  0  0  0  0
    6.7418    8.3702   22.8135 O   0  0  0  0  0  0
    2.8303    9.0167   22.6258 H   0  0  0  0  0  0
    1.8567    6.9652   23.5198 H   0  0  0  0  0  0
    0.3223    9.1561   26.8940 H   0  0  0  0  0  0
    1.2644   11.2188   25.9685 H   0  0  0  0  0  0
   -0.7335    6.7686   24.0263 H   0  0  0  0  0  0
   -0.4900    5.1701   24.7672 H   0  0  0  0  0  0
   -1.5390    6.3638   25.5352 H   0  0  0  0  0  0
    3.0769    6.0044   25.9888 H   0  0  0  0  0  0
    5.2395    6.1875   27.1088 H   0  0  0  0  0  0
    3.2714    7.1654   30.7857 H   0  0  0  0  0  0
    1.0730    7.5082   30.7047 H   0  0  0  0  0  0
    5.5209    7.2485   30.4719 H   0  0  0  0  0  0
    6.8607   10.4213   24.6945 H   0  0  0  0  0  0
    4.6727    9.5763   24.2232 H   0  0  0  0  0  0
    4.6834   10.1308   22.5946 H   0  0  0  0  0  0
    3.2219   13.9517   25.1491 H   0  0  0  0  0  0
    4.5370   15.8822   25.7972 H   0  0  0  0  0  0
    6.9615   15.9678   25.3417 H   0  0  0  0  0  0
    8.0634   14.0783   24.1649 H   0  0  0  0  0  0
    7.1598    7.8004   22.1559 H   0  0  0  0  0  0
  1  2  2  0  0  0
  1  6  1  0  0  0
  1 34  1  0  0  0
  2  3  1  0  0  0
  2 35  1  0  0  0
  3  4  2  0  0  0
  3  9  1  0  0  0
  4  5  1  0  0  0
  4 36  1  0  0  0
  5  6  2  0  0  0
  5 37  1  0  0  0
  6  7  1  0  0  0
  7  8  1  0  0  0
  7 21  2  0  0  0
  8 26  1  0  0  0
  8 24  1  0  0  0
  9 10  1  0  0  0
  9 11  1  0  0  0
 10 12  1  0  0  0
 10 13  2  0  0  0
 11 38  1  0  0  0
 11 39  1  0  0  0
 11 40  1  0  0  0
 12 14  2  0  0  0
 12 18  1  0  0  0
 14 15  1  0  0  0
 14 41  1  0  0  0
 15 16  2  0  0  0
 15 42  1  0  0  0
 16 17  1  0  0  0
 16 20  1  0  0  0
 17 18  2  0  0  0
 17 43  1  0  0  0
 18 19  1  0  0  0
 19 44  1  0  0  0
 20 45  1  0  0  0
 22 25  1  0  0  0
 22 23  1  0  0  0
 23 24  1  0  0  0
 23 31  1  0  0  0
 23 46  1  0  0  0
 24 47  1  0  0  0
 24 48  1  0  0  0
 25 26  2  0  0  0
 25 30  1  0  0  0
 26 27  1  0  0  0
 27 28  2  0  0  0
 27 49  1  0  0  0
 28 29  1  0  0  0
 28 50  1  0  0  0
 29 30  2  0  0  0
 29 51  1  0  0  0
 30 52  1  0  0  0
 31 32  2  0  0  0
 31 33  1  0  0  0
 33 53  1  0  0  0
M  END
> <s_m_entry_id>
5005

> <s_m_entry_name>
dock_pv.324

> <s_m_Source_Path>
/home/csk/Desktop/cluster/DUD-E-result/hs90a

> <s_m_Source_File>
dock_pv.maegz

> <i_m_Source_File_Index>
324

> <chembl_id>
CHEMBL4097485

> <chembl_pref_name>
None

> <i_lp_mmshare_version>
53161

> <r_lp_tautomer_probability>
0.999999999898

> <s_lp_Force_Field>
OPLS_2005

> <r_lp_Energy>
64.847537

> <b_lp_Chiralities_Consistent>
1

> <s_lp_Variant>
CHEMBL3880_lig992-2

> <s_i_glide_gridfile>
glide-grid_1uyg

> <i_i_glide_lignum>
1105

> <i_i_glide_rotatable_bonds>
9

> <r_i_docking_score>
-7.63380390671749

> <r_i_glide_ligand_efficiency>
-0.231327391112651

> <r_i_glide_ligand_efficiency_sa>
-0.741990547597409

> <r_i_glide_ligand_efficiency_ln>
-1.69771846313271

> <r_i_glide_gscore>
-7.63380390671749

> <r_i_glide_lipo>
-3.24373729974849

> <r_i_glide_hbond>
-0.152

> <r_i_glide_metal>
0

> <r_i_glide_rewards>
-1.01412506595312

> <r_i_glide_evdw>
-44.9092025756836

> <r_i_glide_ecoul>
-10.5081272125244

> <r_i_glide_erotb>
0.597737669646959

> <r_i_glide_esite>
0

> <r_i_glide_emodel>
-56.0419722088049

> <r_i_glide_energy>
-55.417329788208

> <r_i_glide_einternal>
11.8784494400024

> <i_i_glide_confnum>
35

> <i_i_glide_posenum>
271

> <r_i_glide_eff_state_penalty>
0

> <s_user_duplicate_titles>
CHEMBL3880_lig992

> <i_f3d_flags>
0

> <s_m_subgroup_title>
dock_pv

> <s_m_subgroupid>
dock_pv

> <b_m_subgroup_collapsed>
1

$$$$
CHEMBL3880_lig883
                    3D
 Schrodinger Suite 2021-1.
 22 24  0  0  1  0            999 V2000
    6.9582   14.9540   24.9659 C   0  0  0  0  0  0
    5.6448   15.2548   25.3307 C   0  0  0  0  0  0
    4.6101   14.3684   25.0249 C   0  0  0  0  0  0
    7.2452   13.7706   24.2834 C   0  0  0  0  0  0
    6.2119   12.8857   23.9672 C   0  0  0  0  0  0
    4.9036   13.1776   24.3547 C   0  0  0  0  0  0
    4.0058   12.0665   23.9670 C   0  0  0  0  0  0
    6.2193   11.5699   23.3244 C   0  0  0  0  0  0
    4.9143   11.0848   23.3271 C   0  0  0  0  0  0
    4.6248    9.8365   22.7694 C   0  0  0  0  0  0
    5.6585    9.0825   22.2098 C   0  0  0  0  0  0
    6.9676    9.5686   22.2119 C   0  0  0  0  0  0
    7.2533   10.8133   22.7718 C   0  0  0  0  0  0
    2.7909   11.9793   24.1353 O   0  0  0  0  0  0
    7.7545   15.6416   25.2142 H   0  0  0  0  0  0
    5.4302   16.1745   25.8570 H   0  0  0  0  0  0
    3.6015   14.6053   25.3291 H   0  0  0  0  0  0
    8.2651   13.5448   24.0147 H   0  0  0  0  0  0
    3.6182    9.4442   22.7622 H   0  0  0  0  0  0
    5.4467    8.1132   21.7798 H   0  0  0  0  0  0
    7.7613    8.9707   21.7861 H   0  0  0  0  0  0
    8.2723   11.1716   22.7706 H   0  0  0  0  0  0
  1  2  2  0  0  0
  1  4  1  0  0  0
  1 15  1  0  0  0
  2  3  1  0  0  0
  2 16  1  0  0  0
  3  6  2  0  0  0
  3 17  1  0  0  0
  4  5  2  0  0  0
  4 18  1  0  0  0
  5  8  1  0  0  0
  5  6  1  0  0  0
  6  7  1  0  0  0
  7  9  1  0  0  0
  7 14  2  0  0  0
  8  9  2  0  0  0
  8 13  1  0  0  0
  9 10  1  0  0  0
 10 11  2  0  0  0
 10 19  1  0  0  0
 11 12  1  0  0  0
 11 20  1  0  0  0
 12 13  2  0  0  0
 12 21  1  0  0  0
 13 22  1  0  0  0
M  END
> <s_m_entry_id>
5006

> <s_m_entry_name>
dock_pv.325

> <s_m_Source_Path>
/home/csk/Desktop/cluster/DUD-E-result/hs90a

> <s_m_Source_File>
dock_pv.maegz

> <i_m_Source_File_Index>
325

> <chembl_id>
CHEMBL571655

> <chembl_pref_name>
None

> <i_lp_mmshare_version>
53161

> <r_lp_tautomer_probability>
1

> <s_lp_Force_Field>
OPLS_2005

> <r_lp_Energy>
30.016746

> <b_lp_Chiralities_Consistent>
1

> <s_lp_Variant>
CHEMBL3880_lig883-1

> <s_i_glide_gridfile>
glide-grid_1uyg

> <i_i_glide_lignum>
989

> <i_i_glide_rotatable_bonds>
0

> <r_i_docking_score>
-7.62470600980506

> <r_i_glide_ligand_efficiency>
-0.544621857843218

> <r_i_glide_ligand_efficiency_sa>
-1.31261615642689

> <r_i_glide_ligand_efficiency_ln>
-2.09524206935514

> <r_i_glide_gscore>
-7.62470600980506

> <r_i_glide_lipo>
-3.05492374563442

> <r_i_glide_hbond>
0

> <r_i_glide_metal>
0

> <r_i_glide_rewards>
-3.20007491820811

> <r_i_glide_evdw>
-24.0547924041748

> <r_i_glide_ecoul>
-1.11311817169189

> <r_i_glide_erotb>
0

> <r_i_glide_esite>
0

> <r_i_glide_emodel>
-36.4578991265734

> <r_i_glide_energy>
-25.1679105758667

> <r_i_glide_einternal>
0

> <i_i_glide_confnum>
1

> <i_i_glide_posenum>
311

> <r_i_glide_eff_state_penalty>
0

> <s_user_duplicate_titles>
CHEMBL3880_lig883

> <i_f3d_flags>
0

> <s_m_subgroup_title>
dock_pv

> <s_m_subgroupid>
dock_pv

> <b_m_subgroup_collapsed>
1

$$$$
CHEMBL3880_lig831
                    3D
 Schrodinger Suite 2021-1.
 42 43  0  0  1  0            999 V2000
    5.3412   13.9648   24.5747 C   0  0  0  0  0  0
    6.7137   14.1266   24.7661 C   0  0  0  0  0  0
    7.5914   13.1457   24.3221 C   0  0  0  0  0  0
    7.1164   11.9834   23.7132 C   0  0  0  0  0  0
    5.7281   11.7602   23.5671 C   0  0  0  0  0  0
    4.8661   12.8001   23.9671 C   0  0  0  0  0  0
    8.0610   11.0722   23.3218 O   0  0  0  0  0  0
    7.2255   15.2297   25.3910 O   0  0  0  0  0  0
    4.2155   15.1712   25.0935 Cl  0  0  0  0  0  0
    5.1916   10.4608   22.9718 C   0  0  0  0  0  0
    4.0388    9.8884   23.4354 N   0  0  0  0  0  0
    5.8224    9.9503   22.0425 O   0  0  0  0  0  0
    3.4857    8.6930   22.7780 C   0  0  0  0  0  0
    3.2491   10.2840   24.6205 C   0  0  0  0  0  0
    1.8762   10.9012   24.3206 C   0  0  0  0  0  0
    1.6333   11.5818   23.1237 C   0  0  0  0  0  0
    0.3819   12.1206   22.8546 C   0  0  0  0  0  0
   -0.6712   11.9694   23.7666 C   0  0  0  0  0  0
   -0.4489   11.2817   24.9696 C   0  0  0  0  0  0
    0.8259   10.7472   25.2315 C   0  0  0  0  0  0
   -1.9383   12.4678   23.5420 O   0  0  0  0  0  0
   -2.3376   12.7976   22.2166 C   0  0  0  0  0  0
   -1.5288   11.1694   25.8292 O   0  0  0  0  0  0
   -1.4293   10.3742   27.0021 C   0  0  0  0  0  0
    8.6493   13.2856   24.4750 H   0  0  0  0  0  0
    3.8045   12.7346   23.8242 H   0  0  0  0  0  0
    8.9425   11.4603   23.2643 H   0  0  0  0  0  0
    6.5411   15.8457   25.6643 H   0  0  0  0  0  0
    3.9275    8.4912   21.7981 H   0  0  0  0  0  0
    3.6497    7.8130   23.4044 H   0  0  0  0  0  0
    2.4092    8.7954   22.6233 H   0  0  0  0  0  0
    3.0890    9.3866   25.2212 H   0  0  0  0  0  0
    3.8000   10.9561   25.2774 H   0  0  0  0  0  0
    2.4108   11.6976   22.3829 H   0  0  0  0  0  0
    0.2394   12.6461   21.9240 H   0  0  0  0  0  0
    1.0157   10.2186   26.1532 H   0  0  0  0  0  0
   -3.3578   13.1743   22.2425 H   0  0  0  0  0  0
   -1.7227   13.5774   21.7722 H   0  0  0  0  0  0
   -2.3229   11.9192   21.5677 H   0  0  0  0  0  0
   -2.4062   10.3263   27.4831 H   0  0  0  0  0  0
   -1.1288    9.3504   26.7772 H   0  0  0  0  0  0
   -0.7384   10.8090   27.7215 H   0  0  0  0  0  0
  1  2  2  0  0  0
  1  6  1  0  0  0
  1  9  1  0  0  0
  2  3  1  0  0  0
  2  8  1  0  0  0
  3  4  2  0  0  0
  3 25  1  0  0  0
  4  5  1  0  0  0
  4  7  1  0  0  0
  5  6  2  0  0  0
  5 10  1  0  0  0
  6 26  1  0  0  0
  7 27  1  0  0  0
  8 28  1  0  0  0
 10 11  1  0  0  0
 10 12  2  0  0  0
 11 13  1  0  0  0
 11 14  1  0  0  0
 13 29  1  0  0  0
 13 30  1  0  0  0
 13 31  1  0  0  0
 14 15  1  0  0  0
 14 32  1  0  0  0
 14 33  1  0  0  0
 15 16  2  0  0  0
 15 20  1  0  0  0
 16 17  1  0  0  0
 16 34  1  0  0  0
 17 18  2  0  0  0
 17 35  1  0  0  0
 18 19  1  0  0  0
 18 21  1  0  0  0
 19 20  2  0  0  0
 19 23  1  0  0  0
 20 36  1  0  0  0
 21 22  1  0  0  0
 22 37  1  0  0  0
 22 38  1  0  0  0
 22 39  1  0  0  0
 23 24  1  0  0  0
 24 40  1  0  0  0
 24 41  1  0  0  0
 24 42  1  0  0  0
M  END
> <s_m_entry_id>
5007

> <s_m_entry_name>
dock_pv.326

> <s_m_Source_Path>
/home/csk/Desktop/cluster/DUD-E-result/hs90a

> <s_m_Source_File>
dock_pv.maegz

> <i_m_Source_File_Index>
326

> <chembl_id>
CHEMBL4280551

> <chembl_pref_name>
None

> <i_lp_mmshare_version>
53161

> <r_lp_tautomer_probability>
0.999999999898

> <s_lp_Force_Field>
OPLS_2005

> <r_lp_Energy>
32.586037

> <b_lp_Chiralities_Consistent>
1

> <s_lp_Variant>
CHEMBL3880_lig831-1

> <s_i_glide_gridfile>
glide-grid_1uyg

> <i_i_glide_lignum>
932

> <i_i_glide_rotatable_bonds>
8

> <r_i_docking_score>
-7.61960544049299

> <r_i_glide_ligand_efficiency>
-0.317483560020541

> <r_i_glide_ligand_efficiency_sa>
-0.91578105506845

> <r_i_glide_ligand_efficiency_ln>
-1.82372122282073

> <r_i_glide_gscore>
-7.61960544049299

> <r_i_glide_lipo>
-3.84923971675879

> <r_i_glide_hbond>
-0.0399539107109156

> <r_i_glide_metal>
0

> <r_i_glide_rewards>
-1.59357658486871

> <r_i_glide_evdw>
-41.621509552002

> <r_i_glide_ecoul>
-4.48260402679443

> <r_i_glide_erotb>
0.616630853464687

> <r_i_glide_esite>
0

> <r_i_glide_emodel>
-64.4167952659915

> <r_i_glide_energy>
-46.1041135787964

> <r_i_glide_einternal>
4.90139722824097

> <i_i_glide_confnum>
34

> <i_i_glide_posenum>
239

> <r_i_glide_eff_state_penalty>
0

> <s_user_duplicate_titles>
CHEMBL3880_lig831

> <i_f3d_flags>
0

> <s_m_subgroup_title>
dock_pv

> <s_m_subgroupid>
dock_pv

> <b_m_subgroup_collapsed>
1

$$$$
CHEMBL3880_lig340
                    3D
 Schrodinger Suite 2021-1.
 50 52  0  0  1  0            999 V2000
   -1.4238   11.8380   23.3088 C   0  0  0  0  0  0
   -0.7318   11.2809   24.3760 C   0  0  0  0  0  0
    0.6049   11.6053   24.5689 C   0  0  0  0  0  0
    1.2149   12.5646   23.7489 C   0  0  0  0  0  0
    0.5317   13.0424   22.6309 C   0  0  0  0  0  0
   -0.7772   12.6537   22.3845 C   0  0  0  0  0  0
   -1.5703   13.1856   20.9436 Cl  0  0  0  0  0  0
    1.2824   10.9697   25.5670 O   0  0  0  0  0  0
   -2.7389   11.5688   23.1599 O   0  0  0  0  0  0
    2.5364   13.1708   24.0241 C   0  0  0  0  0  0
    2.5193   14.4375   24.3670 N   0  0  0  0  0  0
    3.8290   14.8082   24.6037 O   0  0  0  0  0  0
    4.6040   13.7262   24.3722 C   0  0  0  0  0  0
    3.8346   12.6278   23.9674 C   0  0  0  0  0  0
    5.9627   13.9045   24.4974 N   0  0  0  0  0  0
    4.2577   11.2269   23.5862 C   0  0  0  0  0  0
    5.5456   10.7650   23.8731 C   0  0  0  0  0  0
    5.9305    9.4632   23.5670 C   0  0  0  0  0  0
    5.0290    8.5791   22.9850 C   0  0  0  0  0  0
    3.7433    9.0325   22.6726 C   0  0  0  0  0  0
    3.3722   10.3430   22.9563 C   0  0  0  0  0  0
    5.4763    7.2928   22.7670 O   0  0  0  0  0  0
    4.6292    6.3677   22.0925 C   0  0  0  0  0  0
    6.5994   14.7127   25.3783 C   0  0  0  0  0  0
    8.1375   14.4781   25.5585 C   0  0  0  0  0  0
    6.0288   15.5690   26.0545 O   0  0  0  0  0  0
    8.5207   14.4528   27.0633 C   0  0  0  0  0  0
    8.9674   15.5690   24.8693 C   0  0  0  0  0  0
    8.5659   13.1481   24.9098 C   0  0  0  0  0  0
   -1.2270   10.5883   25.0416 H   0  0  0  0  0  0
    1.0075   13.7458   21.9669 H   0  0  0  0  0  0
    2.1809   11.2888   25.6837 H   0  0  0  0  0  0
   -3.3540   11.8712   23.8537 H   0  0  0  0  0  0
    6.5317   13.2648   23.9689 H   0  0  0  0  0  0
    6.2611   11.3899   24.3669 H   0  0  0  0  0  0
    6.9263    9.1243   23.8131 H   0  0  0  0  0  0
    3.0175    8.3794   22.2128 H   0  0  0  0  0  0
    2.3773   10.6396   22.6754 H   0  0  0  0  0  0
    5.1587    5.4236   21.9654 H   0  0  0  0  0  0
    3.7219    6.1644   22.6634 H   0  0  0  0  0  0
    4.3545    6.7259   21.0987 H   0  0  0  0  0  0
    9.5982   14.3519   27.2028 H   0  0  0  0  0  0
    8.0612   13.6335   27.6085 H   0  0  0  0  0  0
    8.2247   15.3741   27.5672 H   0  0  0  0  0  0
    8.4911   15.9690   23.9723 H   0  0  0  0  0  0
    9.1732   16.3763   25.5670 H   0  0  0  0  0  0
    9.9394   15.1690   24.5709 H   0  0  0  0  0  0
    8.4610   13.1884   23.8269 H   0  0  0  0  0  0
    9.5836   12.8489   25.1671 H   0  0  0  0  0  0
    7.9012   12.3690   25.2236 H   0  0  0  0  0  0
  1  2  2  0  0  0
  1  6  1  0  0  0
  1  9  1  0  0  0
  2  3  1  0  0  0
  2 30  1  0  0  0
  3  4  2  0  0  0
  3  8  1  0  0  0
  4  5  1  0  0  0
  4 10  1  0  0  0
  5  6  2  0  0  0
  5 31  1  0  0  0
  6  7  1  0  0  0
  8 32  1  0  0  0
  9 33  1  0  0  0
 10 11  2  0  0  0
 10 14  1  0  0  0
 11 12  1  0  0  0
 12 13  1  0  0  0
 13 14  2  0  0  0
 13 15  1  0  0  0
 14 16  1  0  0  0
 15 24  1  0  0  0
 15 34  1  0  0  0
 16 17  2  0  0  0
 16 21  1  0  0  0
 17 18  1  0  0  0
 17 35  1  0  0  0
 18 19  2  0  0  0
 18 36  1  0  0  0
 19 20  1  0  0  0
 19 22  1  0  0  0
 20 21  2  0  0  0
 20 37  1  0  0  0
 21 38  1  0  0  0
 22 23  1  0  0  0
 23 39  1  0  0  0
 23 40  1  0  0  0
 23 41  1  0  0  0
 24 25  1  0  0  0
 24 26  2  0  0  0
 25 27  1  0  0  0
 25 28  1  0  0  0
 25 29  1  0  0  0
 27 42  1  0  0  0
 27 43  1  0  0  0
 27 44  1  0  0  0
 28 45  1  0  0  0
 28 46  1  0  0  0
 28 47  1  0  0  0
 29 48  1  0  0  0
 29 49  1  0  0  0
 29 50  1  0  0  0
M  END
> <s_m_entry_id>
5008

> <s_m_entry_name>
dock_pv.327

> <s_m_Source_Path>
/home/csk/Desktop/cluster/DUD-E-result/hs90a

> <s_m_Source_File>
dock_pv.maegz

> <i_m_Source_File_Index>
327

> <chembl_id>
CHEMBL3342585

> <chembl_pref_name>
None

> <i_lp_mmshare_version>
53161

> <r_lp_tautomer_probability>
0.999999999898

> <s_lp_Force_Field>
OPLS_2005

> <r_lp_Energy>
29.817245

> <b_lp_Chiralities_Consistent>
1

> <s_lp_Variant>
CHEMBL3880_lig340-1

> <s_i_glide_gridfile>
glide-grid_1uyg

> <i_i_glide_lignum>
377

> <i_i_glide_rotatable_bonds>
8

> <r_i_docking_score>
-7.61502945572751

> <r_i_glide_ligand_efficiency>
-0.262587222611293

> <r_i_glide_ligand_efficiency_sa>
-0.806751141333268

> <r_i_glide_ligand_efficiency_ln>
-1.74364864487577

> <r_i_glide_gscore>
-7.61502945572751

> <r_i_glide_lipo>
-4.1704799915482

> <r_i_glide_hbond>
-0.168954201853387

> <r_i_glide_metal>
0

> <r_i_glide_rewards>
-1.72552360859169

> <r_i_glide_evdw>
-35.7275543212891

> <r_i_glide_ecoul>
-1.45699453353882

> <r_i_glide_erotb>
0.454855242361038

> <r_i_glide_esite>
0

> <r_i_glide_emodel>
-38.386087928709

> <r_i_glide_energy>
-37.1845488548279

> <r_i_glide_einternal>
5.63292551040649

> <i_i_glide_confnum>
20

> <i_i_glide_posenum>
144

> <r_i_glide_eff_state_penalty>
0

> <s_user_duplicate_titles>
CHEMBL3880_lig340

> <i_f3d_flags>
0

> <s_m_subgroup_title>
dock_pv

> <s_m_subgroupid>
dock_pv

> <b_m_subgroup_collapsed>
1

$$$$
CHEMBL3880_lig415
                    3D
 Schrodinger Suite 2021-1.
 63 65  0  0  1  0            999 V2000
   -0.8554   11.4541   24.3487 C   0  0  0  0  0  0
   -1.0280   10.2483   25.0170 C   0  0  0  0  0  0
    0.0406    9.3641   25.1657 C   0  0  0  0  0  0
    1.2990    9.6553   24.6110 C   0  0  0  0  0  0
    1.4699   10.9046   24.0048 C   0  0  0  0  0  0
    0.4174   11.8185   23.8902 C   0  0  0  0  0  0
    0.6639   13.1726   23.2190 C   0  0  0  0  0  0
    0.6040   13.0303   21.6899 C   0  0  0  0  0  0
    1.9714   13.8417   23.6827 C   0  0  0  0  0  0
   -1.9389   12.2650   24.1271 O   0  0  0  0  0  0
   -0.1822    8.1959   25.8427 O   0  0  0  0  0  0
    2.4318    8.6619   24.6116 C   0  0  0  0  0  0
    2.0810    7.3724   24.8444 O   0  0  0  0  0  0
    3.2043    6.5619   24.8355 N   0  0  0  0  0  0
    4.2215    7.3442   24.5584 C   0  0  0  0  0  0
    3.8096    8.6962   24.3868 C   0  0  0  0  0  0
    4.6305    9.8618   24.0548 C   0  0  0  0  0  0
    5.5666    6.8214   24.5545 C   0  0  0  0  0  0
    6.3573    7.3033   23.5785 N   0  0  0  0  0  0
    5.9440    6.0149   25.4076 O   0  0  0  0  0  0
    5.3273   10.8062   23.7141 C   0  0  0  0  0  0
    6.1828   11.9020   23.2166 C   0  0  0  0  0  0
    7.7818    7.0216   23.4459 C   0  0  0  0  0  0
    8.6046    7.5744   24.6153 C   0  0  0  0  0  0
    6.4454   12.9016   24.2527 N   0  0  2  0  0  0
    5.3347   13.8335   24.5146 C   0  0  0  0  0  0
    5.6785   14.8768   25.6149 C   0  0  1  0  0  0
    6.9843   15.4167   25.4422 O   0  0  0  0  0  0
    7.9994   14.4301   25.3341 C   0  0  1  0  0  0
    7.7116   13.5991   24.0688 C   0  0  0  0  0  0
    9.3180   15.1810   25.1932 C   0  0  0  0  0  0
    4.6664   16.0178   25.7017 C   0  0  0  0  0  0
   -2.0000    9.9700   25.3920 H   0  0  0  0  0  0
    2.4192   11.1690   23.5702 H   0  0  0  0  0  0
   -0.1316   13.8528   23.5309 H   0  0  0  0  0  0
   -0.3871   12.7269   21.3526 H   0  0  0  0  0  0
    0.8521   13.9683   21.2033 H   0  0  0  0  0  0
    1.3242   12.2956   21.3344 H   0  0  0  0  0  0
    2.0995   13.7578   24.7630 H   0  0  0  0  0  0
    2.8389   13.3927   23.2030 H   0  0  0  0  0  0
    1.9751   14.9039   23.4459 H   0  0  0  0  0  0
   -2.8114   11.9204   24.3676 H   0  0  0  0  0  0
    0.5691    7.6008   25.7568 H   0  0  0  0  0  0
    5.9483    7.9172   22.8876 H   0  0  0  0  0  0
    5.6930   12.3671   22.3713 H   0  0  0  0  0  0
    7.1042   11.4428   22.8576 H   0  0  0  0  0  0
    7.9433    5.9478   23.3359 H   0  0  0  0  0  0
    8.1399    7.4820   22.5238 H   0  0  0  0  0  0
    9.6611    7.3941   24.4409 H   0  0  0  0  0  0
    8.4606    8.6486   24.7281 H   0  0  0  0  0  0
    8.3539    7.0964   25.5610 H   0  0  0  0  0  0
    5.0399   14.3287   23.5874 H   0  0  0  0  0  0
    4.4989   13.2206   24.8512 H   0  0  0  0  0  0
    5.6844   14.3692   26.5794 H   0  0  0  0  0  0
    8.0244   13.8151   26.2381 H   0  0  0  0  0  0
    7.6601   14.2051   23.1671 H   0  0  0  0  0  0
    8.4606   12.8173   23.9676 H   0  0  0  0  0  0
   10.1652   14.5028   25.0974 H   0  0  0  0  0  0
    9.5004   15.8267   26.0518 H   0  0  0  0  0  0
    9.2610   15.8107   24.3048 H   0  0  0  0  0  0
    3.6608   15.6271   25.8252 H   0  0  0  0  0  0
    4.8762   16.6664   26.5522 H   0  0  0  0  0  0
    4.6924   16.6321   24.8018 H   0  0  0  0  0  0
  1  2  2  0  0  0
  1  6  1  0  0  0
  1 10  1  0  0  0
  2  3  1  0  0  0
  2 33  1  0  0  0
  3  4  2  0  0  0
  3 11  1  0  0  0
  4  5  1  0  0  0
  4 12  1  0  0  0
  5  6  2  0  0  0
  5 34  1  0  0  0
  6  7  1  0  0  0
  7  8  1  0  0  0
  7  9  1  0  0  0
  7 35  1  0  0  0
  8 36  1  0  0  0
  8 37  1  0  0  0
  8 38  1  0  0  0
  9 39  1  0  0  0
  9 40  1  0  0  0
  9 41  1  0  0  0
 10 42  1  0  0  0
 11 43  1  0  0  0
 12 13  1  0  0  0
 12 16  2  0  0  0
 13 14  1  0  0  0
 14 15  2  0  0  0
 15 16  1  0  0  0
 15 18  1  0  0  0
 16 17  1  0  0  0
 17 21  3  0  0  0
 18 19  1  0  0  0
 18 20  2  0  0  0
 19 23  1  0  0  0
 19 44  1  0  0  0
 21 22  1  0  0  0
 22 25  1  0  0  0
 22 45  1  0  0  0
 22 46  1  0  0  0
 23 24  1  0  0  0
 23 47  1  0  0  0
 23 48  1  0  0  0
 24 49  1  0  0  0
 24 50  1  0  0  0
 24 51  1  0  0  0
 25 26  1  0  0  0
 25 30  1  0  0  0
 26 27  1  0  0  0
 26 52  1  0  0  0
 26 53  1  0  0  0
 27 28  1  0  0  0
 27 32  1  0  0  0
 27 54  1  0  0  0
 28 29  1  0  0  0
 29 30  1  0  0  0
 29 31  1  0  0  0
 29 55  1  0  0  0
 30 56  1  0  0  0
 30 57  1  0  0  0
 31 58  1  0  0  0
 31 59  1  0  0  0
 31 60  1  0  0  0
 32 61  1  0  0  0
 32 62  1  0  0  0
 32 63  1  0  0  0
M  END
> <s_m_entry_id>
5010

> <s_m_entry_name>
dock_pv.329

> <s_m_Source_Path>
/home/csk/Desktop/cluster/DUD-E-result/hs90a

> <s_m_Source_File>
dock_pv.maegz

> <i_m_Source_File_Index>
329

> <chembl_id>
CHEMBL3600502

> <chembl_pref_name>
None

> <i_lp_mmshare_version>
53161

> <r_lp_tautomer_probability>
0.999999999898

> <s_lp_Force_Field>
OPLS_2005

> <r_lp_Energy>
29.856774

> <b_lp_Chiralities_Consistent>
1

> <s_lp_Variant>
CHEMBL3880_lig415-1

> <s_i_glide_gridfile>
glide-grid_1uyg

> <i_i_glide_lignum>
457

> <i_i_glide_rotatable_bonds>
10

> <r_i_docking_score>
-7.60845134212814

> <r_i_glide_ligand_efficiency>
-0.237764104441504

> <r_i_glide_ligand_efficiency_sa>
-0.7548539781494

> <r_i_glide_ligand_efficiency_ln>
-1.70373965405302

> <r_i_glide_gscore>
-7.60845134212814

> <r_i_glide_lipo>
-4.6785103638372

> <r_i_glide_hbond>
-0.133440083783726

> <r_i_glide_metal>
0

> <r_i_glide_rewards>
-1.10114983530634

> <r_i_glide_evdw>
-41.1747856140137

> <r_i_glide_ecoul>
-1.60227847099304

> <r_i_glide_erotb>
0.61482622133939

> <r_i_glide_esite>
-0.0110962291906277

> <r_i_glide_emodel>
-55.4835159971846

> <r_i_glide_energy>
-42.7770640850067

> <r_i_glide_einternal>
9.40260696411133

> <i_i_glide_confnum>
1

> <i_i_glide_posenum>
295

> <r_i_glide_eff_state_penalty>
0

> <s_user_duplicate_titles>
CHEMBL3880_lig415

> <i_f3d_flags>
0

> <s_m_subgroup_title>
dock_pv

> <s_m_subgroupid>
dock_pv

> <b_m_subgroup_collapsed>
1

$$$$
CHEMBL3880_lig438
                    3D
 Schrodinger Suite 2021-1.
 28 29  0  0  1  0            999 V2000
    2.4434   12.0671   23.7775 C   0  0  0  0  0  0
    1.0586   11.6903   24.2012 C   0  0  0  0  0  0
   -0.0720   12.0454   23.4449 C   0  0  0  0  0  0
   -1.3439   11.7191   23.9111 C   0  0  0  0  0  0
   -1.4906   11.0299   25.1125 C   0  0  0  0  0  0
   -0.3732   10.6344   25.8479 C   0  0  0  0  0  0
    0.8950   10.9611   25.3842 C   0  0  0  0  0  0
    2.9260   11.5692   22.7671 O   0  0  0  0  0  0
    3.0434   12.9520   24.5996 N   0  0  0  0  0  0
    4.3599   13.4401   24.5800 C   0  0  0  0  0  0
    4.5955   14.6223   25.2873 C   0  0  0  0  0  0
    5.8853   15.1391   25.3770 C   0  0  0  0  0  0
    6.9427   14.4664   24.7672 C   0  0  0  0  0  0
    6.7216   13.2853   24.0597 C   0  0  0  0  0  0
    5.4293   12.7695   23.9670 C   0  0  0  0  0  0
   -2.7392   10.7690   25.5821 O   0  0  0  0  0  0
    0.0221   12.7283   22.2590 O   0  0  0  0  0  0
   -0.5326    9.7711   27.3398 Cl  0  0  0  0  0  0
   -2.2226   12.0070   23.3508 H   0  0  0  0  0  0
    1.7558   10.6601   25.9668 H   0  0  0  0  0  0
    2.4679   13.3182   25.3405 H   0  0  0  0  0  0
    3.7858   15.1450   25.7761 H   0  0  0  0  0  0
    6.0637   16.0546   25.9228 H   0  0  0  0  0  0
    7.9425   14.8674   24.8428 H   0  0  0  0  0  0
    7.5464   12.7685   23.5908 H   0  0  0  0  0  0
    5.2806   11.8420   23.4358 H   0  0  0  0  0  0
   -3.4486   11.2019   25.0839 H   0  0  0  0  0  0
   -0.8425   12.8846   21.8720 H   0  0  0  0  0  0
  1  2  1  0  0  0
  1  8  2  0  0  0
  1  9  1  0  0  0
  2  3  1  0  0  0
  2  7  2  0  0  0
  3  4  2  0  0  0
  3 17  1  0  0  0
  4  5  1  0  0  0
  4 19  1  0  0  0
  5  6  2  0  0  0
  5 16  1  0  0  0
  6  7  1  0  0  0
  6 18  1  0  0  0
  7 20  1  0  0  0
  9 10  1  0  0  0
  9 21  1  0  0  0
 10 11  1  0  0  0
 10 15  2  0  0  0
 11 12  2  0  0  0
 11 22  1  0  0  0
 12 13  1  0  0  0
 12 23  1  0  0  0
 13 14  2  0  0  0
 13 24  1  0  0  0
 14 15  1  0  0  0
 14 25  1  0  0  0
 15 26  1  0  0  0
 16 27  1  0  0  0
 17 28  1  0  0  0
M  END
> <s_m_entry_id>
5012

> <s_m_entry_name>
dock_pv.331

> <s_m_Source_Path>
/home/csk/Desktop/cluster/DUD-E-result/hs90a

> <s_m_Source_File>
dock_pv.maegz

> <i_m_Source_File_Index>
331

> <chembl_id>
CHEMBL3985903

> <chembl_pref_name>
None

> <i_lp_mmshare_version>
53161

> <r_lp_tautomer_probability>
0.999999999898

> <s_lp_Force_Field>
OPLS_2005

> <r_lp_Energy>
22.033165

> <b_lp_Chiralities_Consistent>
1

> <s_lp_Variant>
CHEMBL3880_lig438-1

> <s_i_glide_gridfile>
glide-grid_1uyg

> <i_i_glide_lignum>
480

> <i_i_glide_rotatable_bonds>
5

> <r_i_docking_score>
-7.6007534236502

> <r_i_glide_ligand_efficiency>
-0.422264079091678

> <r_i_glide_ligand_efficiency_sa>
-1.10664495029685

> <r_i_glide_ligand_efficiency_ln>
-1.95373447491829

> <r_i_glide_gscore>
-7.6007534236502

> <r_i_glide_lipo>
-3.39488116942717

> <r_i_glide_hbond>
-0.16

> <r_i_glide_metal>
0

> <r_i_glide_rewards>
-2.44268641374709

> <r_i_glide_evdw>
-32.7636451721191

> <r_i_glide_ecoul>
-4.87656879425049

> <r_i_glide_erotb>
0.766481737267583

> <r_i_glide_esite>
0

> <r_i_glide_emodel>
-51.3847811829118

> <r_i_glide_energy>
-37.6402139663696

> <r_i_glide_einternal>
8.8806095123291

> <i_i_glide_confnum>
4

> <i_i_glide_posenum>
239

> <r_i_glide_eff_state_penalty>
0

> <s_user_duplicate_titles>
CHEMBL3880_lig438

> <i_f3d_flags>
0

> <s_m_subgroup_title>
dock_pv

> <s_m_subgroupid>
dock_pv

> <b_m_subgroup_collapsed>
1

$$$$
CHEMBL3880_lig265
                    3D
 Schrodinger Suite 2021-1.
 35 36  0  0  1  0            999 V2000
    0.5100   10.8636   25.1767 C   0  0  0  0  0  0
   -0.7406   10.7014   25.7977 C   0  0  0  0  0  0
   -1.8763   11.1735   25.1260 C   0  0  0  0  0  0
   -1.7439   11.8092   23.8891 C   0  0  0  0  0  0
   -0.4796   11.9689   23.3285 C   0  0  0  0  0  0
    0.6096   11.4799   23.9685 N   0  3  0  0  0  0
    1.9319   11.5552   23.2969 C   0  0  0  0  0  0
    2.8367   12.6607   23.8556 C   0  0  0  0  0  0
    4.1476   12.4076   23.6935 N   0  0  0  0  0  0
    2.3584   13.6721   24.3640 O   0  0  0  0  0  0
    5.2744   13.1274   24.1201 C   0  0  0  0  0  0
    5.2580   14.3722   24.7676 C   0  0  0  0  0  0
    6.4497   14.9179   25.2501 C   0  0  0  0  0  0
    7.6616   14.2286   25.0972 C   0  0  0  0  0  0
    7.6608   12.9998   24.4318 C   0  0  0  0  0  0
    6.4849   12.4620   23.9328 C   0  0  0  0  0  0
    8.9270   14.7616   25.6502 N   0  3  0  0  0  0
    9.9870   14.3686   25.1686 O   0  0  0  0  0  0
    8.8728   15.5681   26.5686 O   0  5  0  0  0  0
   -0.8847   10.0697   27.1615 C   0  0  0  0  0  0
    0.0257    9.1667   27.5308 N   0  0  0  0  0  0
   -1.8153   10.3702   27.9048 O   0  0  0  0  0  0
    1.4425   10.5326   25.6136 H   0  0  0  0  0  0
   -2.8596   11.0593   25.5656 H   0  0  0  0  0  0
   -2.6122   12.1780   23.3611 H   0  0  0  0  0  0
   -0.3203   12.4504   22.3734 H   0  0  0  0  0  0
    1.7687   11.7222   22.2313 H   0  0  0  0  0  0
    2.3818   10.5654   23.4022 H   0  0  0  0  0  0
    4.3753   11.5392   23.2344 H   0  0  0  0  0  0
    4.3418   14.9203   24.9261 H   0  0  0  0  0  0
    6.4197   15.8694   25.7607 H   0  0  0  0  0  0
    8.5575   12.4080   24.3668 H   0  0  0  0  0  0
    6.5218   11.4924   23.4573 H   0  0  0  0  0  0
    0.7226    8.8213   26.8918 H   0  0  0  0  0  0
   -0.0473    8.7666   28.4550 H   0  0  0  0  0  0
  1  2  1  0  0  0
  1  6  2  0  0  0
  1 23  1  0  0  0
  2  3  2  0  0  0
  2 20  1  0  0  0
  3  4  1  0  0  0
  3 24  1  0  0  0
  4  5  2  0  0  0
  4 25  1  0  0  0
  5  6  1  0  0  0
  5 26  1  0  0  0
  6  7  1  0  0  0
  7  8  1  0  0  0
  7 27  1  0  0  0
  7 28  1  0  0  0
  8  9  1  0  0  0
  8 10  2  0  0  0
  9 11  1  0  0  0
  9 29  1  0  0  0
 11 12  1  0  0  0
 11 16  2  0  0  0
 12 13  2  0  0  0
 12 30  1  0  0  0
 13 14  1  0  0  0
 13 31  1  0  0  0
 14 15  2  0  0  0
 14 17  1  0  0  0
 15 16  1  0  0  0
 15 32  1  0  0  0
 16 33  1  0  0  0
 17 18  2  0  0  0
 17 19  1  0  0  0
 20 21  1  0  0  0
 20 22  2  0  0  0
 21 34  1  0  0  0
 21 35  1  0  0  0
M  CHG  3   6   1  17   1  19  -1
M  END
> <s_m_entry_id>
5013

> <s_m_entry_name>
dock_pv.332

> <s_m_Source_Path>
/home/csk/Desktop/cluster/DUD-E-result/hs90a

> <s_m_Source_File>
dock_pv.maegz

> <i_m_Source_File_Index>
332

> <chembl_id>
CHEMBL2237470

> <chembl_pref_name>
None

> <i_lp_mmshare_version>
53161

> <r_lp_tautomer_probability>
1

> <s_lp_Force_Field>
OPLS_2005

> <r_lp_Energy>
23.920484

> <b_lp_Chiralities_Consistent>
1

> <s_lp_Variant>
CHEMBL3880_lig265-1

> <s_i_glide_gridfile>
glide-grid_1uyg

> <i_i_glide_lignum>
299

> <i_i_glide_rotatable_bonds>
6

> <r_i_docking_score>
-7.60026514409639

> <r_i_glide_ligand_efficiency>
-0.345466597458927

> <r_i_glide_ligand_efficiency_sa>
-0.968010992510218

> <r_i_glide_ligand_efficiency_ln>
-1.85778202762413

> <r_i_glide_gscore>
-7.60026514409639

> <r_i_glide_lipo>
-2.78708038531012

> <r_i_glide_hbond>
0

> <r_i_glide_metal>
0

> <r_i_glide_rewards>
-2.78498294955047

> <r_i_glide_evdw>
-39.7029113769531

> <r_i_glide_ecoul>
-5.28633308410645

> <r_i_glide_erotb>
0.810615249534075

> <r_i_glide_esite>
-0.0607215273062516

> <r_i_glide_emodel>
-69.2189554638493

> <r_i_glide_energy>
-44.9892444610596

> <r_i_glide_einternal>
1.6833621263504

> <i_i_glide_confnum>
1

> <i_i_glide_posenum>
381

> <r_i_glide_eff_state_penalty>
0

> <s_user_duplicate_titles>
CHEMBL3880_lig265

> <i_f3d_flags>
0

> <s_m_subgroup_title>
dock_pv

> <s_m_subgroupid>
dock_pv

> <b_m_subgroup_collapsed>
1

$$$$
CHEMBL3880_lig816
                    3D
 Schrodinger Suite 2021-1.
 61 64  0  0  1  0            999 V2000
    6.7857   11.6305   23.8118 C   0  0  0  0  0  0
    7.6612   10.5622   23.5564 C   0  0  0  0  0  0
    7.1560    9.2751   23.3477 C   0  0  0  0  0  0
    5.7765    9.0363   23.3777 C   0  0  0  0  0  0
    4.9121   10.1167   23.5677 C   0  0  0  0  0  0
    5.4116   11.3918   23.7826 C   0  0  0  0  0  0
    7.2611   13.0206   24.1759 C   0  0  0  0  0  0
    6.5251   13.9917   24.0165 O   0  0  0  0  0  0
    8.4610   13.1068   24.7681 N   0  0  0  0  0  0
    8.9409   14.3674   25.1660 O   0  0  0  0  0  0
    5.2610    7.5931   23.2457 C   0  0  0  0  0  0
    3.8042    7.4455   23.1186 N   0  0  0  0  0  0
    2.8924    7.6149   24.1788 C   0  0  0  0  0  0
    1.5281    7.5455   23.8758 C   0  0  0  0  0  0
    0.5643    7.8403   24.8428 C   0  0  0  0  0  0
    3.2837    7.9073   25.4954 C   0  0  0  0  0  0
    2.3217    8.1726   26.4746 C   0  0  0  0  0  0
    0.9732    8.2019   26.1279 C   0  0  0  0  0  0
    0.2088    8.6812   27.2089 N   0  0  0  0  0  0
    1.0285    8.5368   28.4117 C   0  0  0  0  0  0
    2.4717    8.5924   27.9113 C   0  0  0  0  0  0
   -0.6849    9.7109   27.1824 C   0  0  0  0  0  0
   -1.4640    9.9162   28.1150 O   0  0  0  0  0  0
   -0.7220   10.6144   25.9664 C   0  0  0  0  0  0
   -1.9257   11.0068   25.3638 C   0  0  0  0  0  0
   -1.8993   11.6751   24.1414 C   0  0  0  0  0  0
   -0.7098   12.1176   23.5931 C   0  0  0  0  0  0
    0.4858   11.9057   24.2858 C   0  0  0  0  0  0
    0.4726   11.1084   25.4315 C   0  0  0  0  0  0
   -3.1390   10.7690   25.9473 O   0  0  0  0  0  0
   -0.7668   12.7688   22.3906 O   0  0  0  0  0  0
    1.8032   12.5155   23.8388 C   0  0  0  0  0  0
    1.7971   14.0563   23.8620 C   0  0  0  0  0  0
    2.2411   11.9689   22.4850 C   0  0  0  0  0  0
    8.7324   10.7085   23.5479 H   0  0  0  0  0  0
    7.8433    8.4562   23.1877 H   0  0  0  0  0  0
    3.8456    9.9750   23.6008 H   0  0  0  0  0  0
    4.7238   12.1971   23.9898 H   0  0  0  0  0  0
    9.1007   12.3510   24.9668 H   0  0  0  0  0  0
    8.7829   14.3838   26.1151 H   0  0  0  0  0  0
    5.6152    7.0138   24.0999 H   0  0  0  0  0  0
    5.7217    7.1395   22.3676 H   0  0  0  0  0  0
    3.4533    7.0218   22.2693 H   0  0  0  0  0  0
    1.2067    7.3099   22.8708 H   0  0  0  0  0  0
   -0.4808    7.8353   24.5744 H   0  0  0  0  0  0
    4.3309    7.9603   25.7479 H   0  0  0  0  0  0
    0.7637    9.1237   29.2962 H   0  0  0  0  0  0
    0.8598    7.5103   28.7407 H   0  0  0  0  0  0
    2.8579    9.6076   27.9753 H   0  0  0  0  0  0
    3.1295    7.9687   28.5183 H   0  0  0  0  0  0
   -2.7960   11.8924   23.5998 H   0  0  0  0  0  0
    1.4072   10.8946   25.9320 H   0  0  0  0  0  0
   -3.8687   11.1985   25.4720 H   0  0  0  0  0  0
   -1.6673   12.8085   22.0580 H   0  0  0  0  0  0
    2.5595   12.2105   24.5638 H   0  0  0  0  0  0
    1.3301   14.4460   24.7653 H   0  0  0  0  0  0
    1.2614   14.4713   23.0096 H   0  0  0  0  0  0
    2.8143   14.4482   23.8238 H   0  0  0  0  0  0
    2.1887   10.8810   22.4381 H   0  0  0  0  0  0
    1.6649   12.3693   21.6518 H   0  0  0  0  0  0
    3.2682   12.2735   22.3670 H   0  0  0  0  0  0
  1  2  2  0  0  0
  1  6  1  0  0  0
  1  7  1  0  0  0
  2  3  1  0  0  0
  2 35  1  0  0  0
  3  4  2  0  0  0
  3 36  1  0  0  0
  4  5  1  0  0  0
  4 11  1  0  0  0
  5  6  2  0  0  0
  5 37  1  0  0  0
  6 38  1  0  0  0
  7  8  2  0  0  0
  7  9  1  0  0  0
  9 10  1  0  0  0
  9 39  1  0  0  0
 10 40  1  0  0  0
 11 12  1  0  0  0
 11 41  1  0  0  0
 11 42  1  0  0  0
 12 13  1  0  0  0
 12 43  1  0  0  0
 13 14  2  0  0  0
 13 16  1  0  0  0
 14 15  1  0  0  0
 14 44  1  0  0  0
 15 18  2  0  0  0
 15 45  1  0  0  0
 16 17  2  0  0  0
 16 46  1  0  0  0
 17 18  1  0  0  0
 17 21  1  0  0  0
 18 19  1  0  0  0
 19 20  1  0  0  0
 19 22  1  0  0  0
 20 21  1  0  0  0
 20 47  1  0  0  0
 20 48  1  0  0  0
 21 49  1  0  0  0
 21 50  1  0  0  0
 22 23  2  0  0  0
 22 24  1  0  0  0
 24 25  2  0  0  0
 24 29  1  0  0  0
 25 26  1  0  0  0
 25 30  1  0  0  0
 26 27  2  0  0  0
 26 51  1  0  0  0
 27 28  1  0  0  0
 27 31  1  0  0  0
 28 29  2  0  0  0
 28 32  1  0  0  0
 29 52  1  0  0  0
 30 53  1  0  0  0
 31 54  1  0  0  0
 32 33  1  0  0  0
 32 34  1  0  0  0
 32 55  1  0  0  0
 33 56  1  0  0  0
 33 57  1  0  0  0
 33 58  1  0  0  0
 34 59  1  0  0  0
 34 60  1  0  0  0
 34 61  1  0  0  0
M  END
> <s_m_entry_id>
5014

> <s_m_entry_name>
dock_pv.333

> <s_m_Source_Path>
/home/csk/Desktop/cluster/DUD-E-result/hs90a

> <s_m_Source_File>
dock_pv.maegz

> <i_m_Source_File_Index>
333

> <chembl_id>
CHEMBL4245766

> <chembl_pref_name>
None

> <i_lp_mmshare_version>
53161

> <r_lp_tautomer_probability>
0.999999999898

> <s_lp_Force_Field>
OPLS_2005

> <r_lp_Energy>
66.026328

> <b_lp_Chiralities_Consistent>
1

> <s_lp_Variant>
CHEMBL3880_lig816-1

> <s_i_glide_gridfile>
glide-grid_1uyg

> <i_i_glide_lignum>
917

> <i_i_glide_rotatable_bonds>
11

> <r_i_docking_score>
-7.59765219532449

> <r_i_glide_ligand_efficiency>
-0.223460358686014

> <r_i_glide_ligand_efficiency_sa>
-0.723924814265971

> <r_i_glide_ligand_efficiency_ln>
-1.67853447687285

> <r_i_glide_gscore>
-7.59765219532449

> <r_i_glide_lipo>
-3.75175525377997

> <r_i_glide_hbond>
0

> <r_i_glide_metal>
0

> <r_i_glide_rewards>
-0.679997976913786

> <r_i_glide_evdw>
-47.7777976989746

> <r_i_glide_ecoul>
-9.59205341339111

> <r_i_glide_erotb>
0.661798932326673

> <r_i_glide_esite>
0

> <r_i_glide_emodel>
-68.5236654621496

> <r_i_glide_energy>
-57.3698511123657

> <r_i_glide_einternal>
15.0475368499756

> <i_i_glide_confnum>
14

> <i_i_glide_posenum>
74

> <r_i_glide_eff_state_penalty>
0

> <s_user_duplicate_titles>
CHEMBL3880_lig816

> <i_f3d_flags>
0

> <s_m_subgroup_title>
dock_pv

> <s_m_subgroupid>
dock_pv

> <b_m_subgroup_collapsed>
1

$$$$
CHEMBL3880_lig301
                    3D
 Schrodinger Suite 2021-1.
 70 74  0  0  1  0            999 V2000
   -0.0124    9.6244   25.1632 C   0  0  0  0  0  0
   -1.1848   10.3719   25.1633 C   0  0  0  0  0  0
   -1.2672   11.5134   24.3596 C   0  0  0  0  0  0
   -0.2307   11.9228   23.5301 C   0  0  0  0  0  0
    0.9418   11.1861   23.5677 C   0  0  0  0  0  0
    1.0483   10.0171   24.3381 C   0  0  0  0  0  0
   -2.3389   12.3225   24.3668 O   0  0  0  0  0  0
   -0.4125   13.1209   22.5732 C   0  0  0  0  0  0
   -1.5634   12.9263   21.5550 C   0  0  0  0  0  0
    0.8617   13.4558   21.8035 C   0  0  0  0  0  0
    0.0567    8.5052   25.9503 O   0  0  0  0  0  0
    2.1625    9.1928   24.0774 N   0  0  0  0  0  0
    3.4736    9.5675   23.8168 C   0  0  0  0  0  0
    4.0003    8.4146   23.2088 C   0  0  0  0  0  0
    3.1126    7.4367   23.1975 N   0  0  0  0  0  0
    1.9461    7.9149   23.7405 N   0  0  0  0  0  0
    5.3536    8.2756   22.7669 C   0  0  0  0  0  0
    6.2270    7.7632   23.6783 N   0  0  0  0  0  0
    5.6658    8.7670   21.6762 O   0  0  0  0  0  0
    4.0482   10.9460   24.0743 C   0  0  0  0  0  0
    5.1481   11.4365   23.3633 C   0  0  0  0  0  0
    5.6144   12.7246   23.5673 C   0  0  0  0  0  0
    4.9618   13.5689   24.4635 C   0  0  0  0  0  0
    3.8575   13.1094   25.1667 C   0  0  0  0  0  0
    3.4519   11.7907   25.0157 C   0  0  0  0  0  0
    5.5371   14.9170   24.8247 C   0  0  0  0  0  0
    6.7886   14.6980   25.5372 N   0  0  0  0  0  0
    6.7562   15.3290   26.8479 C   0  0  0  0  0  0
    8.1057   15.2317   27.5666 C   0  0  0  0  0  0
    9.2121   15.5680   26.7301 O   0  0  0  0  0  0
    9.2709   14.7513   25.5706 C   0  0  0  0  0  0
    7.9920   14.9560   24.7363 C   0  0  0  0  0  0
    5.7222    6.9950   24.8559 C   0  0  0  0  0  0
    6.8075    6.1289   25.5107 C   0  0  0  0  0  0
    8.0621    6.7683   25.4668 O   0  0  0  0  0  0
    8.5082    6.9446   24.1329 C   0  0  0  0  0  0
    7.6677    8.0258   23.4485 C   0  0  0  0  0  0
   -2.0189   10.0108   25.7542 H   0  0  0  0  0  0
    1.7497   11.4242   22.8950 H   0  0  0  0  0  0
   -3.2525   11.9702   24.3686 H   0  0  0  0  0  0
   -0.6419   13.9612   23.2342 H   0  0  0  0  0  0
   -2.5532   12.9518   22.0102 H   0  0  0  0  0  0
   -1.4755   11.9776   21.0327 H   0  0  0  0  0  0
   -1.5661   13.7094   20.7964 H   0  0  0  0  0  0
    1.6642   13.6225   22.5209 H   0  0  0  0  0  0
    1.1539   12.6324   21.1513 H   0  0  0  0  0  0
    0.8608   14.3431   21.1698 H   0  0  0  0  0  0
   -0.7554    8.3491   26.4344 H   0  0  0  0  0  0
    5.6742   10.8632   22.6272 H   0  0  0  0  0  0
    6.4968   13.0490   23.0442 H   0  0  0  0  0  0
    3.3739   13.7337   25.9025 H   0  0  0  0  0  0
    2.6449   11.4429   25.6371 H   0  0  0  0  0  0
    5.6895   15.5519   23.9674 H   0  0  0  0  0  0
    4.8055   15.4534   25.4350 H   0  0  0  0  0  0
    6.4558   16.3690   26.7364 H   0  0  0  0  0  0
    5.9686   14.8717   27.4490 H   0  0  0  0  0  0
    8.2468   14.2364   27.9852 H   0  0  0  0  0  0
    8.0577   15.9686   28.3655 H   0  0  0  0  0  0
    9.4011   13.7009   25.8454 H   0  0  0  0  0  0
   10.1503   15.0329   24.9920 H   0  0  0  0  0  0
    8.0081   14.3052   23.8636 H   0  0  0  0  0  0
    7.9624   15.9685   24.3424 H   0  0  0  0  0  0
    5.1945    7.6107   25.5806 H   0  0  0  0  0  0
    5.0140    6.2643   24.4649 H   0  0  0  0  0  0
    6.8575    5.1459   25.0397 H   0  0  0  0  0  0
    6.5484    5.9392   26.5510 H   0  0  0  0  0  0
    8.4598    6.0173   23.5614 H   0  0  0  0  0  0
    9.5585    7.2367   24.1516 H   0  0  0  0  0  0
    7.8999    7.9788   22.3837 H   0  0  0  0  0  0
    7.8812    9.0031   23.8838 H   0  0  0  0  0  0
  1  2  2  0  0  0
  1  6  1  0  0  0
  1 11  1  0  0  0
  2  3  1  0  0  0
  2 38  1  0  0  0
  3  4  2  0  0  0
  3  7  1  0  0  0
  4  5  1  0  0  0
  4  8  1  0  0  0
  5  6  2  0  0  0
  5 39  1  0  0  0
  6 12  1  0  0  0
  7 40  1  0  0  0
  8  9  1  0  0  0
  8 10  1  0  0  0
  8 41  1  0  0  0
  9 42  1  0  0  0
  9 43  1  0  0  0
  9 44  1  0  0  0
 10 45  1  0  0  0
 10 46  1  0  0  0
 10 47  1  0  0  0
 11 48  1  0  0  0
 12 13  1  0  0  0
 12 16  1  0  0  0
 13 14  2  0  0  0
 13 20  1  0  0  0
 14 15  1  0  0  0
 14 17  1  0  0  0
 15 16  2  0  0  0
 17 18  1  0  0  0
 17 19  2  0  0  0
 18 33  1  0  0  0
 18 37  1  0  0  0
 20 21  2  0  0  0
 20 25  1  0  0  0
 21 22  1  0  0  0
 21 49  1  0  0  0
 22 23  2  0  0  0
 22 50  1  0  0  0
 23 24  1  0  0  0
 23 26  1  0  0  0
 24 25  2  0  0  0
 24 51  1  0  0  0
 25 52  1  0  0  0
 26 27  1  0  0  0
 26 53  1  0  0  0
 26 54  1  0  0  0
 27 28  1  0  0  0
 27 32  1  0  0  0
 28 29  1  0  0  0
 28 55  1  0  0  0
 28 56  1  0  0  0
 29 30  1  0  0  0
 29 57  1  0  0  0
 29 58  1  0  0  0
 30 31  1  0  0  0
 31 32  1  0  0  0
 31 59  1  0  0  0
 31 60  1  0  0  0
 32 61  1  0  0  0
 32 62  1  0  0  0
 33 34  1  0  0  0
 33 63  1  0  0  0
 33 64  1  0  0  0
 34 35  1  0  0  0
 34 65  1  0  0  0
 34 66  1  0  0  0
 35 36  1  0  0  0
 36 37  1  0  0  0
 36 67  1  0  0  0
 36 68  1  0  0  0
 37 69  1  0  0  0
 37 70  1  0  0  0
M  END
> <s_m_entry_id>
5015

> <s_m_entry_name>
dock_pv.334

> <s_m_Source_Path>
/home/csk/Desktop/cluster/DUD-E-result/hs90a

> <s_m_Source_File>
dock_pv.maegz

> <i_m_Source_File_Index>
334

> <chembl_id>
CHEMBL3235116

> <chembl_pref_name>
None

> <i_lp_mmshare_version>
53161

> <r_lp_tautomer_probability>
1

> <s_lp_Force_Field>
OPLS_2005

> <r_lp_Energy>
59.055839

> <b_lp_Chiralities_Consistent>
1

> <s_lp_Variant>
CHEMBL3880_lig301-1

> <s_i_glide_gridfile>
glide-grid_1uyg

> <i_i_glide_lignum>
338

> <i_i_glide_rotatable_bonds>
9

> <r_i_docking_score>
-7.59053742639297

> <r_i_glide_ligand_efficiency>
-0.205149660172783

> <r_i_glide_ligand_efficiency_sa>
-0.683604179662676

> <r_i_glide_ligand_efficiency_ln>
-1.64620962034

> <r_i_glide_gscore>
-7.59053742639297

> <r_i_glide_lipo>
-4.69167475357764

> <r_i_glide_hbond>
-0.341567560404864

> <r_i_glide_metal>
0

> <r_i_glide_rewards>
-0.650540830385101

> <r_i_glide_evdw>
-30.7496223449707

> <r_i_glide_ecoul>
-5.57532262802124

> <r_i_glide_erotb>
0.476658271537689

> <r_i_glide_esite>
-0.00963304211132743

> <r_i_glide_emodel>
-65.6284159719743

> <r_i_glide_energy>
-36.3249449729919

> <r_i_glide_einternal>
17.6905517578125

> <i_i_glide_confnum>
57

> <i_i_glide_posenum>
10

> <r_i_glide_eff_state_penalty>
0

> <s_user_duplicate_titles>
CHEMBL3880_lig301

> <i_f3d_flags>
0

> <s_m_subgroup_title>
dock_pv

> <s_m_subgroupid>
dock_pv

> <b_m_subgroup_collapsed>
1

$$$$
CHEMBL3880_lig29
                    3D
 Schrodinger Suite 2021-1.
 32 33  0  0  1  0            999 V2000
    6.5115   14.3149   24.7017 O   0  0  0  0  0  0
    3.9331   12.5689   24.3694 O   0  0  0  0  0  0
    9.2613   14.7691   24.4078 O   0  0  0  0  0  0
    9.4168   14.9487   26.6885 O   0  0  0  0  0  0
    5.2196   14.4398   25.1164 C   0  0  0  0  0  0
    7.3099   14.7673   25.7081 C   0  0  0  0  0  0
    6.5132   15.1707   26.7678 C   0  0  0  0  0  0
    5.1901   15.0152   26.3676 C   0  0  0  0  0  0
    2.6549   12.0462   24.3580 C   0  0  0  0  0  0
    4.1335   13.9694   24.1917 C   0  0  0  0  0  0
    8.7313   14.8040   25.5156 C   0  0  0  0  0  0
    0.2492   12.1234   23.9562 C   0  0  0  0  0  0
    1.5174   12.7071   23.8658 C   0  0  0  0  0  0
    0.1111   10.8555   24.5424 C   0  0  0  0  0  0
    2.5071   10.7638   24.8831 C   0  0  0  0  0  0
    1.2490   10.1746   24.9831 C   0  0  0  0  0  0
   -0.9534   12.9021   23.4427 C   0  0  0  0  0  0
   -1.2461   10.1852   24.6828 C   0  0  0  0  0  0
    8.8621   14.9047   27.4702 H   0  0  0  0  0  0
    6.8416   15.5900   27.7081 H   0  0  0  0  0  0
    4.3064   15.2545   26.9410 H   0  0  0  0  0  0
    3.2479   14.5862   24.3371 H   0  0  0  0  0  0
    4.4470   14.1081   23.1671 H   0  0  0  0  0  0
    1.5990   13.6793   23.4064 H   0  0  0  0  0  0
    3.3749   10.2358   25.2511 H   0  0  0  0  0  0
    1.1611    9.1899   25.4192 H   0  0  0  0  0  0
   -1.1301   12.6913   22.3881 H   0  0  0  0  0  0
   -1.8633   12.6828   24.0023 H   0  0  0  0  0  0
   -0.7852   13.9689   23.5668 H   0  0  0  0  0  0
   -1.7770   10.5613   25.5581 H   0  0  0  0  0  0
   -1.8661   10.3667   23.8037 H   0  0  0  0  0  0
   -1.1384    9.1056   24.7672 H   0  0  0  0  0  0
  1  5  1  0  0  0
  1  6  1  0  0  0
  2  9  1  0  0  0
  2 10  1  0  0  0
  3 11  2  0  0  0
  4 11  1  0  0  0
  4 19  1  0  0  0
  5  8  2  0  0  0
  5 10  1  0  0  0
  6  7  2  0  0  0
  6 11  1  0  0  0
  7  8  1  0  0  0
  7 20  1  0  0  0
  8 21  1  0  0  0
  9 13  1  0  0  0
  9 15  2  0  0  0
 10 22  1  0  0  0
 10 23  1  0  0  0
 12 13  2  0  0  0
 12 14  1  0  0  0
 12 17  1  0  0  0
 13 24  1  0  0  0
 14 16  2  0  0  0
 14 18  1  0  0  0
 15 16  1  0  0  0
 15 25  1  0  0  0
 16 26  1  0  0  0
 17 27  1  0  0  0
 17 28  1  0  0  0
 17 29  1  0  0  0
 18 30  1  0  0  0
 18 31  1  0  0  0
 18 32  1  0  0  0
M  END
> <s_m_entry_id>
5016

> <s_m_entry_name>
dock_pv.335

> <s_m_Source_Path>
/home/csk/Desktop/cluster/DUD-E-result/hs90a

> <s_m_Source_File>
dock_pv.maegz

> <i_m_Source_File_Index>
335

> <chembl_id>
CHEMBL1335818

> <chembl_pref_name>
None

> <i_lp_mmshare_version>
53161

> <r_lp_tautomer_probability>
1

> <s_lp_Force_Field>
OPLS_2005

> <r_lp_Energy>
10.505462

> <b_lp_Chiralities_Consistent>
1

> <s_lp_Variant>
CHEMBL3880_lig29-1

> <s_i_glide_gridfile>
glide-grid_1uyg

> <i_i_glide_lignum>
34

> <i_i_glide_rotatable_bonds>
5

> <r_i_docking_score>
-7.58888745168977

> <r_i_glide_ligand_efficiency>
-0.421604858427209

> <r_i_glide_ligand_efficiency_sa>
-1.10491730341523

> <r_i_glide_ligand_efficiency_ln>
-1.95068438801172

> <r_i_glide_gscore>
-7.58888745168977

> <r_i_glide_lipo>
-3.32958981285166

> <r_i_glide_hbond>
-0.264835617744393

> <r_i_glide_metal>
0

> <r_i_glide_rewards>
-2.5692604694958

> <r_i_glide_evdw>
-31.8793525695801

> <r_i_glide_ecoul>
-6.53690719604492

> <r_i_glide_erotb>
1.14930215628783

> <r_i_glide_esite>
0

> <r_i_glide_emodel>
-54.9014632489727

> <r_i_glide_energy>
-38.416259765625

> <r_i_glide_einternal>
1.7770299911499

> <i_i_glide_confnum>
6

> <i_i_glide_posenum>
77

> <r_i_glide_eff_state_penalty>
0

> <s_user_duplicate_titles>
CHEMBL3880_lig29

> <i_f3d_flags>
0

> <s_m_subgroup_title>
dock_pv

> <s_m_subgroupid>
dock_pv

> <b_m_subgroup_collapsed>
1

$$$$
CHEMBL3880_lig176
                    3D
 Schrodinger Suite 2021-1.
 54 58  0  0  1  0            999 V2000
    0.4676    8.9889   24.9883 C   0  0  0  0  0  0
    1.6598    9.5762   24.7189 N   0  0  0  0  0  0
   -0.5428    9.7974   24.7708 N   0  0  0  0  0  0
    0.0053   10.9502   24.3670 C   0  0  0  0  0  0
    1.3838   10.8690   24.3663 C   0  0  0  0  0  0
    7.4071   11.2816   22.7693 N   0  0  0  0  0  0
    6.9045   10.0223   22.4833 N   0  0  0  0  0  0
    0.2279    7.2993   25.4516 S   0  0  0  0  0  0
    6.5160   11.8771   23.5669 N   0  0  0  0  0  0
    0.9187    7.2726   27.0881 C   0  0  0  0  0  0
   -0.5706   12.1533   23.9008 C   0  0  0  0  0  0
    2.2336   11.8596   23.9989 N   0  0  0  0  0  0
    5.7556    9.8609   23.1195 C   0  0  0  0  0  0
    5.4743   11.0267   23.8194 C   0  0  0  0  0  0
    2.0062    6.4096   27.3081 C   0  0  0  0  0  0
    0.2548   13.1682   23.5346 N   0  0  0  0  0  0
    0.8808    7.8436   29.4640 C   0  0  0  0  0  0
    2.5103    6.3037   28.5986 C   0  0  0  0  0  0
    1.9567    6.9888   29.6408 C   0  0  0  0  0  0
    0.3558    7.9957   28.1711 C   0  0  0  0  0  0
    1.5751   12.9624   23.6157 C   0  0  0  0  0  0
    3.5320    5.5388   29.0690 O   0  0  0  0  0  0
    2.5860    6.6448   30.7932 O   0  0  0  0  0  0
    3.7628    6.0147   30.3689 C   0  0  0  0  0  0
    3.0002    8.9570   24.6836 C   0  0  0  0  0  0
   -1.9388   12.3503   23.7515 N   0  0  0  0  0  0
   -1.1391    9.1670   27.9694 Br  0  0  0  0  0  0
    6.7917   13.1963   24.1370 C   0  0  0  0  0  0
    4.9751    8.5594   23.0168 C   0  0  0  0  0  0
    5.5041   13.9989   24.4654 C   0  0  0  0  0  0
    3.4508    8.7219   23.2191 C   0  0  0  0  0  0
    6.4669   15.2799   26.2775 O   0  0  0  0  0  0
    5.7708   15.3947   25.0534 C   0  0  0  0  0  0
    4.6674   11.3149   24.4668 H   0  0  0  0  0  0
    2.4295    5.8365   26.4961 H   0  0  0  0  0  0
    0.4602    8.3685   30.3072 H   0  0  0  0  0  0
    2.1960   13.7931   23.3144 H   0  0  0  0  0  0
    4.5688    6.7546   30.3616 H   0  0  0  0  0  0
    4.0643    5.2238   31.0568 H   0  0  0  0  0  0
    2.9495    8.0187   25.2322 H   0  0  0  0  0  0
    3.6495    9.6204   25.2532 H   0  0  0  0  0  0
   -2.5936   11.6322   24.0333 H   0  0  0  0  0  0
   -2.2683   13.2292   23.3824 H   0  0  0  0  0  0
    7.4235   13.7559   23.4458 H   0  0  0  0  0  0
    7.3811   13.0474   25.0404 H   0  0  0  0  0  0
    5.1356    8.1139   22.0305 H   0  0  0  0  0  0
    5.3620    7.8276   23.7299 H   0  0  0  0  0  0
    4.8692   13.4552   25.1669 H   0  0  0  0  0  0
    4.8996   14.1091   23.5677 H   0  0  0  0  0  0
    3.1071    9.5266   22.5667 H   0  0  0  0  0  0
    2.9498    7.8263   22.8472 H   0  0  0  0  0  0
    6.6310   16.1631   26.6240 H   0  0  0  0  0  0
    4.8438   15.9554   25.1906 H   0  0  0  0  0  0
    6.4100   15.9672   24.3804 H   0  0  0  0  0  0
  1  2  1  0  0  0
  1  3  2  0  0  0
  1  8  1  0  0  0
  2  5  1  0  0  0
  2 25  1  0  0  0
  3  4  1  0  0  0
  4 11  1  0  0  0
  4  5  2  0  0  0
  5 12  1  0  0  0
  6  7  2  0  0  0
  6  9  1  0  0  0
  7 13  1  0  0  0
  8 10  1  0  0  0
  9 14  1  0  0  0
  9 28  1  0  0  0
 10 15  2  0  0  0
 10 20  1  0  0  0
 11 16  2  0  0  0
 11 26  1  0  0  0
 12 21  2  0  0  0
 13 29  1  0  0  0
 13 14  2  0  0  0
 14 34  1  0  0  0
 15 18  1  0  0  0
 15 35  1  0  0  0
 16 21  1  0  0  0
 17 20  2  0  0  0
 17 19  1  0  0  0
 17 36  1  0  0  0
 18 19  2  0  0  0
 18 22  1  0  0  0
 19 23  1  0  0  0
 20 27  1  0  0  0
 21 37  1  0  0  0
 22 24  1  0  0  0
 23 24  1  0  0  0
 24 38  1  0  0  0
 24 39  1  0  0  0
 25 31  1  0  0  0
 25 40  1  0  0  0
 25 41  1  0  0  0
 26 42  1  0  0  0
 26 43  1  0  0  0
 28 30  1  0  0  0
 28 44  1  0  0  0
 28 45  1  0  0  0
 29 31  1  0  0  0
 29 46  1  0  0  0
 29 47  1  0  0  0
 30 33  1  0  0  0
 30 48  1  0  0  0
 30 49  1  0  0  0
 31 50  1  0  0  0
 31 51  1  0  0  0
 32 33  1  0  0  0
 32 52  1  0  0  0
 33 53  1  0  0  0
 33 54  1  0  0  0
M  END
> <s_m_entry_id>
5017

> <s_m_entry_name>
dock_pv.336

> <s_m_Source_Path>
/home/csk/Desktop/cluster/DUD-E-result/hs90a

> <s_m_Source_File>
dock_pv.maegz

> <i_m_Source_File_Index>
336

> <chembl_id>
CHEMBL1213898

> <chembl_pref_name>
None

> <i_lp_mmshare_version>
53161

> <r_lp_tautomer_probability>
0.999997216410988

> <s_lp_Force_Field>
OPLS_2005

> <r_lp_Energy>
19.915277

> <b_lp_Chiralities_Consistent>
1

> <s_lp_Variant>
CHEMBL3880_lig176-1

> <s_i_glide_gridfile>
glide-grid_1uyg

> <i_i_glide_lignum>
207

> <i_i_glide_rotatable_bonds>
10

> <r_i_docking_score>
-7.57860582892348

> <r_i_glide_ligand_efficiency>
-0.22965472208859

> <r_i_glide_ligand_efficiency_sa>
-0.736625404286265

> <r_i_glide_ligand_efficiency_ln>
-1.68544269643167

> <r_i_glide_gscore>
-7.57860582892348

> <r_i_glide_lipo>
-3.04399011973634

> <r_i_glide_hbond>
-0.0124442973318317

> <r_i_glide_metal>
0

> <r_i_glide_rewards>
-1.48520516649442

> <r_i_glide_evdw>
-56.0299224853516

> <r_i_glide_ecoul>
-5.1146445274353

> <r_i_glide_erotb>
0.652640038792851

> <r_i_glide_esite>
-0.120913480770855

> <r_i_glide_emodel>
-84.5571921263795

> <r_i_glide_energy>
-61.1445670127869

> <r_i_glide_einternal>
5.79163646697998

> <i_i_glide_confnum>
29

> <i_i_glide_posenum>
242

> <r_i_glide_eff_state_penalty>
0

> <s_user_duplicate_titles>
CHEMBL3880_lig176,685746

> <i_f3d_flags>
0

> <s_m_subgroup_title>
dock_pv

> <s_m_subgroupid>
dock_pv

> <b_m_subgroup_collapsed>
1

$$$$
CHEMBL3880_lig848
                    3D
 Schrodinger Suite 2021-1.
 67 70  0  0  1  0            999 V2000
    9.6458   15.1966   25.8347 C   0  0  0  0  0  0
   10.5781   15.5651   26.9992 C   0  0  0  0  0  0
   10.0835   14.7690   24.7669 O   0  0  0  0  0  0
    8.3346   15.4184   26.1114 O   0  0  0  0  0  0
   11.7996   14.7681   27.0310 N   0  0  0  0  0  0
    7.2750   15.0839   25.1973 C   0  0  2  0  0  0
    5.9264   15.5695   25.7884 C   0  0  0  0  0  0
    4.7078   15.0804   24.9717 C   0  0  0  0  0  0
    4.6817   13.5478   24.8821 C   0  0  2  0  0  0
    5.9969   13.0490   24.2354 C   0  0  0  0  0  0
    7.2476   13.5644   24.9707 C   0  0  0  0  0  0
    3.5666   13.1358   24.0487 N   0  0  0  0  0  0
    2.7697   12.0015   24.3047 C   0  0  0  0  0  0
    1.3675   12.0285   24.0828 C   0  0  0  0  0  0
    0.6136   10.8772   24.3692 C   0  0  0  0  0  0
    1.2165    9.7028   24.8024 C   0  0  0  0  0  0
    2.5959    9.6644   24.9877 C   0  0  0  0  0  0
    3.3593   10.8120   24.7660 C   0  0  0  0  0  0
    3.1992    8.4669   25.4170 N   0  0  0  0  0  0
    4.2625    7.9698   24.7659 N   0  0  0  0  0  0
    4.6340    6.8816   25.4148 C   0  0  0  0  0  0
    3.7370    6.6164   26.4724 C   0  0  0  0  0  0
    3.6906    5.5605   27.4799 C   0  0  0  0  0  0
    2.4524    5.6310   28.4006 C   0  0  0  0  0  0
    1.9739    7.0726   28.7599 C   0  0  0  0  0  0
    1.6905    7.8808   27.4516 C   0  0  0  0  0  0
    2.8074    7.6478   26.4439 C   0  0  0  0  0  0
    5.8715    6.1192   24.9374 C   0  0  0  0  0  0
    5.5278    5.0763   24.1790 F   0  0  0  0  0  0
    6.6827    6.8931   24.2116 F   0  0  0  0  0  0
    6.5927    5.6637   25.9586 F   0  0  0  0  0  0
    4.5687    4.7149   27.6276 O   0  0  0  0  0  0
    3.0711    7.7805   29.5982 C   0  0  0  0  0  0
    0.6467    6.9344   29.5396 C   0  0  0  0  0  0
    0.6611   13.2684   23.5878 C   0  0  0  0  0  0
   -0.5978   13.1372   23.1658 N   0  0  0  0  0  0
    1.2115   14.3681   23.5654 O   0  0  0  0  0  0
   10.0674   15.4716   27.9642 H   0  0  0  0  0  0
   10.8533   16.6146   26.8875 H   0  0  0  0  0  0
   11.5836   13.8083   27.2687 H   0  0  0  0  0  0
   12.2398   14.7630   26.1221 H   0  0  0  0  0  0
    7.4573   15.5928   24.2500 H   0  0  0  0  0  0
    5.8202   15.1954   26.8126 H   0  0  0  0  0  0
    5.8818   16.6559   25.8095 H   0  0  0  0  0  0
    3.7938   15.4359   25.4547 H   0  0  0  0  0  0
    4.7191   15.5213   23.9728 H   0  0  0  0  0  0
    4.4659   13.1632   25.8793 H   0  0  0  0  0  0
    6.0506   13.3407   23.1804 H   0  0  0  0  0  0
    6.0413   11.9607   24.2236 H   0  0  0  0  0  0
    8.1157   13.2322   24.4070 H   0  0  0  0  0  0
    7.2940   13.1653   25.9664 H   0  0  0  0  0  0
    3.0414   13.9102   23.6261 H   0  0  0  0  0  0
   -0.4585   10.8513   24.2538 H   0  0  0  0  0  0
    0.6016    8.8266   24.9711 H   0  0  0  0  0  0
    4.4249   10.7650   24.9337 H   0  0  0  0  0  0
    2.6597    5.0524   29.2992 H   0  0  0  0  0  0
    1.6657    5.0966   27.8667 H   0  0  0  0  0  0
    1.5176    8.9391   27.6599 H   0  0  0  0  0  0
    0.7780    7.5043   26.9888 H   0  0  0  0  0  0
    3.3332    7.1694   30.4616 H   0  0  0  0  0  0
    3.9952    7.9646   29.0379 H   0  0  0  0  0  0
    2.7276    8.7430   29.9778 H   0  0  0  0  0  0
    0.7945    6.3766   30.4665 H   0  0  0  0  0  0
    0.2485    7.9088   29.8187 H   0  0  0  0  0  0
   -0.1159    6.4140   28.9603 H   0  0  0  0  0  0
   -1.0513   12.2351   23.1639 H   0  0  0  0  0  0
   -1.0902   13.9503   22.8419 H   0  0  0  0  0  0
  1  2  1  0  0  0
  1  3  2  0  0  0
  1  4  1  0  0  0
  2  5  1  0  0  0
  2 38  1  0  0  0
  2 39  1  0  0  0
  4  6  1  0  0  0
  5 40  1  0  0  0
  5 41  1  0  0  0
  6  7  1  0  0  0
  6 11  1  0  0  0
  6 42  1  0  0  0
  7  8  1  0  0  0
  7 43  1  0  0  0
  7 44  1  0  0  0
  8  9  1  0  0  0
  8 45  1  0  0  0
  8 46  1  0  0  0
  9 10  1  0  0  0
  9 12  1  0  0  0
  9 47  1  0  0  0
 10 11  1  0  0  0
 10 48  1  0  0  0
 10 49  1  0  0  0
 11 50  1  0  0  0
 11 51  1  0  0  0
 12 13  1  0  0  0
 12 52  1  0  0  0
 13 14  1  0  0  0
 13 18  2  0  0  0
 14 15  2  0  0  0
 14 35  1  0  0  0
 15 16  1  0  0  0
 15 53  1  0  0  0
 16 17  2  0  0  0
 16 54  1  0  0  0
 17 18  1  0  0  0
 17 19  1  0  0  0
 18 55  1  0  0  0
 19 20  1  0  0  0
 19 27  1  0  0  0
 20 21  2  0  0  0
 21 22  1  0  0  0
 21 28  1  0  0  0
 22 23  1  0  0  0
 22 27  2  0  0  0
 23 24  1  0  0  0
 23 32  2  0  0  0
 24 25  1  0  0  0
 24 56  1  0  0  0
 24 57  1  0  0  0
 25 26  1  0  0  0
 25 33  1  0  0  0
 25 34  1  0  0  0
 26 27  1  0  0  0
 26 58  1  0  0  0
 26 59  1  0  0  0
 28 29  1  0  0  0
 28 30  1  0  0  0
 28 31  1  0  0  0
 33 60  1  0  0  0
 33 61  1  0  0  0
 33 62  1  0  0  0
 34 63  1  0  0  0
 34 64  1  0  0  0
 34 65  1  0  0  0
 35 36  1  0  0  0
 35 37  2  0  0  0
 36 66  1  0  0  0
 36 67  1  0  0  0
M  END
> <s_m_entry_id>
5018

> <s_m_entry_name>
dock_pv.337

> <s_m_Source_Path>
/home/csk/Desktop/cluster/DUD-E-result/hs90a

> <s_m_Source_File>
dock_pv.maegz

> <i_m_Source_File_Index>
337

> <chembl_id>
CHEMBL1195136

> <chembl_pref_name>
SNX 5422

> <i_lp_mmshare_version>
53161

> <r_lp_tautomer_probability>
0.99995

> <s_lp_Force_Field>
OPLS_2005

> <r_lp_Energy>
33.21407

> <b_lp_Chiralities_Consistent>
1

> <s_lp_Variant>
CHEMBL3880_lig848-1

> <s_i_glide_gridfile>
glide-grid_1uyg

> <i_i_glide_lignum>
949

> <i_i_glide_rotatable_bonds>
8

> <r_i_docking_score>
-7.57755375134949

> <r_i_glide_ligand_efficiency>
-0.204798750036473

> <r_i_glide_ligand_efficiency_sa>
-0.682434869239907

> <r_i_glide_ligand_efficiency_ln>
-1.6433937656036

> <r_i_glide_gscore>
-7.57755375134949

> <r_i_glide_lipo>
-3.37082656959695

> <r_i_glide_hbond>
-0.324970513227058

> <r_i_glide_metal>
0

> <r_i_glide_rewards>
-1.24152015656656

> <r_i_glide_evdw>
-41.625

> <r_i_glide_ecoul>
-6.24599552154541

> <r_i_glide_erotb>
0.377912816272888

> <r_i_glide_esite>
0

> <r_i_glide_emodel>
-54.4002560030164

> <r_i_glide_energy>
-47.8709955215454

> <r_i_glide_einternal>
9.81537342071533

> <i_i_glide_confnum>
43

> <i_i_glide_posenum>
221

> <r_i_glide_eff_state_penalty>
0

> <s_user_duplicate_titles>
CHEMBL3880_lig848

> <i_f3d_flags>
0

> <s_m_subgroup_title>
dock_pv

> <s_m_subgroupid>
dock_pv

> <b_m_subgroup_collapsed>
1

$$$$
CHEMBL3880_lig275
                    3D
 Schrodinger Suite 2021-1.
 55 58  0  0  1  0            999 V2000
   -1.4985   11.1198   24.6319 C   0  0  0  0  0  0
   -1.3978   11.8398   23.4447 C   0  0  0  0  0  0
   -0.1457   12.1839   22.9361 C   0  0  0  0  0  0
    1.0231   11.8789   23.6563 C   0  0  0  0  0  0
    0.9081   11.1640   24.8512 C   0  0  0  0  0  0
   -0.3361   10.7411   25.3190 C   0  0  0  0  0  0
   -0.0987   12.7690   21.6997 O   0  0  0  0  0  0
    2.4152   12.3033   23.1757 C   0  0  0  0  0  0
    3.4428   11.1536   23.2050 C   0  0  0  0  0  0
    2.9179   13.5255   23.9669 C   0  0  0  0  0  0
   -2.7390   10.7690   25.0911 O   0  0  0  0  0  0
   -0.3886    9.9087   26.4565 N   0  0  0  0  0  0
    0.3580    8.7792   26.7600 C   0  0  0  0  0  0
   -0.1667    8.3765   27.9808 C   0  0  0  0  0  0
   -1.1392    9.1696   28.3670 N   0  0  0  0  0  0
   -1.2551   10.1784   27.4434 N   0  0  0  0  0  0
    1.4597    8.1668   25.9613 C   0  0  0  0  0  0
    1.3771    7.9866   24.5766 C   0  0  0  0  0  0
    2.4453    7.4181   23.8820 C   0  0  0  0  0  0
    3.5937    7.0189   24.5738 C   0  0  0  0  0  0
    3.6612    7.1745   25.9592 C   0  0  0  0  0  0
    2.5997    7.7479   26.6494 C   0  0  0  0  0  0
    4.7732    6.3943   23.8356 C   0  0  0  0  0  0
    5.9801    7.2257   23.9300 N   0  0  0  0  0  0
    7.2009    6.4366   23.7132 C   0  0  0  0  0  0
    8.4663    7.3262   23.7169 C   0  0  0  0  0  0
    8.3343    8.3820   22.7707 O   0  0  0  0  0  0
    7.2100    9.2108   23.0452 C   0  0  0  0  0  0
    5.9125    8.3741   23.0141 C   0  0  0  0  0  0
   -2.2972   12.0877   22.8986 H   0  0  0  0  0  0
    1.7955   10.9113   25.4148 H   0  0  0  0  0  0
   -0.9814   12.8966   21.3433 H   0  0  0  0  0  0
    2.3325   12.5955   22.1322 H   0  0  0  0  0  0
    3.0850   10.2941   22.6364 H   0  0  0  0  0  0
    3.6623   10.8152   24.2187 H   0  0  0  0  0  0
    4.3918   11.4631   22.7674 H   0  0  0  0  0  0
    2.2130   14.3554   23.9044 H   0  0  0  0  0  0
    3.0623   13.2897   25.0221 H   0  0  0  0  0  0
    3.8727   13.8810   23.5769 H   0  0  0  0  0  0
   -3.4700   11.2992   24.7327 H   0  0  0  0  0  0
    0.1387    7.5214   28.5650 H   0  0  0  0  0  0
    0.4885    8.2858   24.0387 H   0  0  0  0  0  0
    2.3765    7.2906   22.8110 H   0  0  0  0  0  0
    4.5458    6.8653   26.4965 H   0  0  0  0  0  0
    2.6745    7.8762   27.7199 H   0  0  0  0  0  0
    4.9542    5.4221   24.2975 H   0  0  0  0  0  0
    4.5178    6.1911   22.7935 H   0  0  0  0  0  0
    7.2790    5.6706   24.4853 H   0  0  0  0  0  0
    7.1311    5.8990   22.7671 H   0  0  0  0  0  0
    9.3402    6.7326   23.4504 H   0  0  0  0  0  0
    8.6597    7.7299   24.7130 H   0  0  0  0  0  0
    7.1646    9.9943   22.2887 H   0  0  0  0  0  0
    7.3296    9.7124   24.0071 H   0  0  0  0  0  0
    5.7263    8.0268   21.9954 H   0  0  0  0  0  0
    5.0604    8.9959   23.2824 H   0  0  0  0  0  0
  1  2  2  0  0  0
  1  6  1  0  0  0
  1 11  1  0  0  0
  2  3  1  0  0  0
  2 30  1  0  0  0
  3  4  2  0  0  0
  3  7  1  0  0  0
  4  5  1  0  0  0
  4  8  1  0  0  0
  5  6  2  0  0  0
  5 31  1  0  0  0
  6 12  1  0  0  0
  7 32  1  0  0  0
  8  9  1  0  0  0
  8 10  1  0  0  0
  8 33  1  0  0  0
  9 34  1  0  0  0
  9 35  1  0  0  0
  9 36  1  0  0  0
 10 37  1  0  0  0
 10 38  1  0  0  0
 10 39  1  0  0  0
 11 40  1  0  0  0
 12 13  1  0  0  0
 12 16  1  0  0  0
 13 14  2  0  0  0
 13 17  1  0  0  0
 14 15  1  0  0  0
 14 41  1  0  0  0
 15 16  2  0  0  0
 17 18  2  0  0  0
 17 22  1  0  0  0
 18 19  1  0  0  0
 18 42  1  0  0  0
 19 20  2  0  0  0
 19 43  1  0  0  0
 20 21  1  0  0  0
 20 23  1  0  0  0
 21 22  2  0  0  0
 21 44  1  0  0  0
 22 45  1  0  0  0
 23 24  1  0  0  0
 23 46  1  0  0  0
 23 47  1  0  0  0
 24 25  1  0  0  0
 24 29  1  0  0  0
 25 26  1  0  0  0
 25 48  1  0  0  0
 25 49  1  0  0  0
 26 27  1  0  0  0
 26 50  1  0  0  0
 26 51  1  0  0  0
 27 28  1  0  0  0
 28 29  1  0  0  0
 28 52  1  0  0  0
 28 53  1  0  0  0
 29 54  1  0  0  0
 29 55  1  0  0  0
M  END
> <s_m_entry_id>
5019

> <s_m_entry_name>
dock_pv.338

> <s_m_Source_Path>
/home/csk/Desktop/cluster/DUD-E-result/hs90a

> <s_m_Source_File>
dock_pv.maegz

> <i_m_Source_File_Index>
338

> <chembl_id>
CHEMBL3234762

> <chembl_pref_name>
None

> <i_lp_mmshare_version>
53161

> <r_lp_tautomer_probability>
1

> <s_lp_Force_Field>
OPLS_2005

> <r_lp_Energy>
34.257078

> <b_lp_Chiralities_Consistent>
1

> <s_lp_Variant>
CHEMBL3880_lig275-1

> <s_i_glide_gridfile>
glide-grid_1uyg

> <i_i_glide_lignum>
309

> <i_i_glide_rotatable_bonds>
7

> <r_i_docking_score>
-7.56719001408792

> <r_i_glide_ligand_efficiency>
-0.260937586692687

> <r_i_glide_ligand_efficiency_sa>
-0.801682937149967

> <r_i_glide_ligand_efficiency_ln>
-1.73269462584387

> <r_i_glide_gscore>
-7.56719001408792

> <r_i_glide_lipo>
-3.56249222438311

> <r_i_glide_hbond>
-0.16

> <r_i_glide_metal>
0

> <r_i_glide_rewards>
-1.16560388902278

> <r_i_glide_evdw>
-45.6119041442871

> <r_i_glide_ecoul>
-6.00621318817139

> <r_i_glide_erotb>
0.502433284758026

> <r_i_glide_esite>
0

> <r_i_glide_emodel>
-74.1192124612267

> <r_i_glide_energy>
-51.6181173324585

> <r_i_glide_einternal>
2.26808953285217

> <i_i_glide_confnum>
50

> <i_i_glide_posenum>
40

> <r_i_glide_eff_state_penalty>
0

> <s_user_duplicate_titles>
CHEMBL3880_lig275

> <i_f3d_flags>
0

> <s_m_subgroup_title>
dock_pv

> <s_m_subgroupid>
dock_pv

> <b_m_subgroup_collapsed>
1

$$$$
CHEMBL3880_lig356
                    3D
 Schrodinger Suite 2021-1.
 53 55  0  0  1  0            999 V2000
    7.1091   11.5679   23.6493 C   0  0  0  0  0  0
    6.3532   10.4673   23.2471 C   0  0  0  0  0  0
    4.9654   10.5011   23.2439 C   0  0  0  0  0  0
    4.2949   11.6659   23.6250 C   0  0  0  0  0  0
    5.0634   12.7914   23.9673 C   0  0  0  0  0  0
    6.4773   12.7850   24.0311 C   0  0  0  0  0  0
    4.2906    9.3783   22.8444 O   0  0  0  0  0  0
    8.4584   11.3208   23.6943 O   0  0  0  0  0  0
    2.7908   11.7610   23.6669 C   0  0  0  0  0  0
    2.2121   12.8344   23.1691 N   0  0  0  0  0  0
    0.8376   12.6878   23.3059 O   0  0  0  0  0  0
    0.6287   11.5235   23.9509 C   0  0  0  0  0  0
    1.8276   10.8598   24.1749 C   0  0  0  0  0  0
   -0.6904   11.2419   24.2121 N   0  0  0  0  0  0
    1.9663    9.5480   24.8675 C   0  0  0  0  0  0
    1.2500    8.4212   24.4514 C   0  0  0  0  0  0
    1.2723    7.2567   25.2133 C   0  0  0  0  0  0
    1.9884    7.2090   26.4077 C   0  0  0  0  0  0
    2.7171    8.3367   26.8091 C   0  0  0  0  0  0
    2.7245    9.4907   26.0314 C   0  0  0  0  0  0
    1.9135    6.0369   27.1353 O   0  0  0  0  0  0
    2.5769    5.9652   28.3934 C   0  0  0  0  0  0
   -1.1388   10.8778   25.4244 C   0  0  0  0  0  0
   -2.6316   10.6491   25.5083 C   0  0  0  0  0  0
   -0.4499   10.7542   26.4365 O   0  0  0  0  0  0
    7.2229   14.0345   24.6634 C   0  0  0  0  0  0
    8.1803   13.6648   25.8294 C   0  0  0  0  0  0
    6.2594   15.1213   25.2217 C   0  0  0  0  0  0
    8.1230   14.7561   23.6641 C   0  0  0  0  0  0
    6.8532    9.5520   22.9624 H   0  0  0  0  0  0
    4.5118   13.6744   24.2487 H   0  0  0  0  0  0
    3.3468    9.4320   23.0169 H   0  0  0  0  0  0
    9.0363   12.0351   23.3905 H   0  0  0  0  0  0
   -1.3711   11.5669   23.5432 H   0  0  0  0  0  0
    0.6356    8.4446   23.5670 H   0  0  0  0  0  0
    0.7007    6.3973   24.8942 H   0  0  0  0  0  0
    3.2602    8.3453   27.7397 H   0  0  0  0  0  0
    3.2624   10.3638   26.3720 H   0  0  0  0  0  0
    2.3855    4.9948   28.8474 H   0  0  0  0  0  0
    3.6572    6.0720   28.2831 H   0  0  0  0  0  0
    2.2108    6.7262   29.0845 H   0  0  0  0  0  0
   -2.9528    9.9135   24.7705 H   0  0  0  0  0  0
   -2.9413   10.3668   26.5127 H   0  0  0  0  0  0
   -3.1381   11.5690   25.2800 H   0  0  0  0  0  0
    8.9023   14.4576   26.0337 H   0  0  0  0  0  0
    8.7690   12.7699   25.6560 H   0  0  0  0  0  0
    7.6611   13.5681   26.7668 H   0  0  0  0  0  0
    5.6462   15.5669   24.4368 H   0  0  0  0  0  0
    5.5930   14.7184   25.9860 H   0  0  0  0  0  0
    6.8013   15.9451   25.6895 H   0  0  0  0  0  0
    7.6612   15.1082   22.7672 H   0  0  0  0  0  0
    8.6414   15.6124   24.0976 H   0  0  0  0  0  0
    8.8609   14.0577   23.3646 H   0  0  0  0  0  0
  1  2  2  0  0  0
  1  6  1  0  0  0
  1  8  1  0  0  0
  2  3  1  0  0  0
  2 30  1  0  0  0
  3  4  2  0  0  0
  3  7  1  0  0  0
  4  5  1  0  0  0
  4  9  1  0  0  0
  5  6  2  0  0  0
  5 31  1  0  0  0
  6 26  1  0  0  0
  7 32  1  0  0  0
  8 33  1  0  0  0
  9 10  2  0  0  0
  9 13  1  0  0  0
 10 11  1  0  0  0
 11 12  1  0  0  0
 12 13  2  0  0  0
 12 14  1  0  0  0
 13 15  1  0  0  0
 14 23  1  0  0  0
 14 34  1  0  0  0
 15 16  2  0  0  0
 15 20  1  0  0  0
 16 17  1  0  0  0
 16 35  1  0  0  0
 17 18  2  0  0  0
 17 36  1  0  0  0
 18 19  1  0  0  0
 18 21  1  0  0  0
 19 20  2  0  0  0
 19 37  1  0  0  0
 20 38  1  0  0  0
 21 22  1  0  0  0
 22 39  1  0  0  0
 22 40  1  0  0  0
 22 41  1  0  0  0
 23 24  1  0  0  0
 23 25  2  0  0  0
 24 42  1  0  0  0
 24 43  1  0  0  0
 24 44  1  0  0  0
 26 27  1  0  0  0
 26 28  1  0  0  0
 26 29  1  0  0  0
 27 45  1  0  0  0
 27 46  1  0  0  0
 27 47  1  0  0  0
 28 48  1  0  0  0
 28 49  1  0  0  0
 28 50  1  0  0  0
 29 51  1  0  0  0
 29 52  1  0  0  0
 29 53  1  0  0  0
M  END
> <s_m_entry_id>
5020

> <s_m_entry_name>
dock_pv.339

> <s_m_Source_Path>
/home/csk/Desktop/cluster/DUD-E-result/hs90a

> <s_m_Source_File>
dock_pv.maegz

> <i_m_Source_File_Index>
339

> <chembl_id>
CHEMBL3342596

> <chembl_pref_name>
None

> <i_lp_mmshare_version>
53161

> <r_lp_tautomer_probability>
0.999999999898

> <s_lp_Force_Field>
OPLS_2005

> <r_lp_Energy>
30.144909

> <b_lp_Chiralities_Consistent>
1

> <s_lp_Variant>
CHEMBL3880_lig356-1

> <s_i_glide_gridfile>
glide-grid_1uyg

> <i_i_glide_lignum>
393

> <i_i_glide_rotatable_bonds>
8

> <r_i_docking_score>
-7.56463097110078

> <r_i_glide_ligand_efficiency>
-0.260849343831061

> <r_i_glide_ligand_efficiency_sa>
-0.801411827121753

> <r_i_glide_ligand_efficiency_ln>
-1.73210866989155

> <r_i_glide_gscore>
-7.56463097110078

> <r_i_glide_lipo>
-3.6489724658094

> <r_i_glide_hbond>
-0.32

> <r_i_glide_metal>
0

> <r_i_glide_rewards>
-1.64982162159973

> <r_i_glide_evdw>
-27.9175071716309

> <r_i_glide_ecoul>
-6.15617895126343

> <r_i_glide_erotb>
0.373465317579408

> <r_i_glide_esite>
0

> <r_i_glide_emodel>
-43.184511606693

> <r_i_glide_energy>
-34.0736861228943

> <r_i_glide_einternal>
10.4463901519775

> <i_i_glide_confnum>
26

> <i_i_glide_posenum>
168

> <r_i_glide_eff_state_penalty>
0

> <s_user_duplicate_titles>
CHEMBL3880_lig356

> <i_f3d_flags>
0

> <s_m_subgroup_title>
dock_pv

> <s_m_subgroupid>
dock_pv

> <b_m_subgroup_collapsed>
1

$$$$
CHEMBL3880_lig896
                    3D
 Schrodinger Suite 2021-1.
 54 56  0  0  1  0            999 V2000
    2.0156   10.3360   24.2390 C   0  0  0  0  0  0
    1.9207    9.6157   25.3830 N   0  0  0  0  0  0
    0.9549   11.0549   23.9828 N   0  0  0  0  0  0
    0.1185   10.7755   24.9921 C   0  0  0  0  0  0
    0.6952    9.9253   25.9200 C   0  0  0  0  0  0
    3.3651   10.2024   23.1179 S   0  0  0  0  0  0
   -1.2170   11.1690   25.2170 C   0  0  0  0  0  0
    0.0985    9.4925   27.0581 N   0  0  0  0  0  0
    6.2048   13.5680   24.3670 C   0  0  0  0  0  0
    4.8150   13.7848   24.4070 C   0  0  0  0  0  0
    6.6968   12.3065   23.9654 C   0  0  0  0  0  0
    4.4180   11.5236   23.6404 C   0  0  0  0  0  0
   -1.8301   10.7692   26.3615 N   0  0  0  0  0  0
    3.9294   12.7636   24.0522 C   0  0  0  0  0  0
    5.7883   11.3096   23.5805 C   0  0  0  0  0  0
   -1.1389    9.9849   27.1973 C   0  0  0  0  0  0
    2.9467    8.6474   25.8480 C   0  0  0  0  0  0
   -1.9391   11.9146   24.2943 N   0  0  0  0  0  0
    7.0497   14.6164   24.6710 O   0  0  0  0  0  0
    8.0594   12.0889   23.9670 O   0  0  0  0  0  0
    4.2914   15.0027   24.7671 O   0  0  0  0  0  0
    2.6320    7.8129   27.1057 C   0  0  0  0  0  0
    2.8260    8.6027   28.2761 O   0  0  0  0  0  0
    2.5607    8.0098   29.5513 C   0  0  0  0  0  0
    7.8642   14.4687   25.8294 C   0  0  0  0  0  0
    8.5741   10.7770   23.7266 C   0  0  0  0  0  0
    4.2087   15.2198   26.1693 C   0  0  0  0  0  0
    3.4149    6.7573   29.8137 C   0  0  0  0  0  0
    1.0580    7.7557   29.7643 C   0  0  0  0  0  0
    2.8679   12.9573   24.0770 H   0  0  0  0  0  0
    6.1339   10.3441   23.2446 H   0  0  0  0  0  0
   -1.6590    9.6871   28.0968 H   0  0  0  0  0  0
    3.0915    7.9743   25.0017 H   0  0  0  0  0  0
    3.8561    9.2335   25.9666 H   0  0  0  0  0  0
   -1.5173   12.1033   23.3981 H   0  0  0  0  0  0
   -2.9500   11.9744   24.4158 H   0  0  0  0  0  0
    1.6346    7.3786   27.0464 H   0  0  0  0  0  0
    3.3326    6.9783   27.1279 H   0  0  0  0  0  0
    2.8610    8.7639   30.2800 H   0  0  0  0  0  0
    8.4711   15.3664   25.9484 H   0  0  0  0  0  0
    7.2636   14.3679   26.7321 H   0  0  0  0  0  0
    8.5480   13.6230   25.7738 H   0  0  0  0  0  0
    9.6396   10.7695   23.9534 H   0  0  0  0  0  0
    8.1132   10.0227   24.3670 H   0  0  0  0  0  0
    8.4497   10.4876   22.6822 H   0  0  0  0  0  0
    3.6667   16.1453   26.3602 H   0  0  0  0  0  0
    3.6778   14.4116   26.6757 H   0  0  0  0  0  0
    5.1937   15.3267   26.6211 H   0  0  0  0  0  0
    3.3038    6.4259   30.8464 H   0  0  0  0  0  0
    3.1367    5.9262   29.1673 H   0  0  0  0  0  0
    4.4718    6.9730   29.6552 H   0  0  0  0  0  0
    0.8583    7.4047   30.7769 H   0  0  0  0  0  0
    0.4897    8.6759   29.6267 H   0  0  0  0  0  0
    0.6619    7.0129   29.0734 H   0  0  0  0  0  0
  1  2  1  0  0  0
  1  3  2  0  0  0
  1  6  1  0  0  0
  2  5  1  0  0  0
  2 17  1  0  0  0
  3  4  1  0  0  0
  4  7  2  0  0  0
  4  5  1  0  0  0
  5  8  2  0  0  0
  6 12  1  0  0  0
  7 13  1  0  0  0
  7 18  1  0  0  0
  8 16  1  0  0  0
  9 11  1  0  0  0
  9 19  1  0  0  0
  9 10  2  0  0  0
 10 14  1  0  0  0
 10 21  1  0  0  0
 11 15  2  0  0  0
 11 20  1  0  0  0
 12 14  2  0  0  0
 12 15  1  0  0  0
 13 16  2  0  0  0
 14 30  1  0  0  0
 15 31  1  0  0  0
 16 32  1  0  0  0
 17 22  1  0  0  0
 17 33  1  0  0  0
 17 34  1  0  0  0
 18 35  1  0  0  0
 18 36  1  0  0  0
 19 25  1  0  0  0
 20 26  1  0  0  0
 21 27  1  0  0  0
 22 23  1  0  0  0
 22 37  1  0  0  0
 22 38  1  0  0  0
 23 24  1  0  0  0
 24 28  1  0  0  0
 24 29  1  0  0  0
 24 39  1  0  0  0
 25 40  1  0  0  0
 25 41  1  0  0  0
 25 42  1  0  0  0
 26 43  1  0  0  0
 26 44  1  0  0  0
 26 45  1  0  0  0
 27 46  1  0  0  0
 27 47  1  0  0  0
 27 48  1  0  0  0
 28 49  1  0  0  0
 28 50  1  0  0  0
 28 51  1  0  0  0
 29 52  1  0  0  0
 29 53  1  0  0  0
 29 54  1  0  0  0
M  END
> <s_m_entry_id>
5021

> <s_m_entry_name>
dock_pv.340

> <s_m_Source_Path>
/home/csk/Desktop/cluster/DUD-E-result/hs90a

> <s_m_Source_File>
dock_pv.maegz

> <i_m_Source_File_Index>
340

> <chembl_id>
CHEMBL191668

> <chembl_pref_name>
None

> <i_lp_mmshare_version>
53161

> <r_lp_tautomer_probability>
0.999997216410988

> <s_lp_Force_Field>
OPLS_2005

> <r_lp_Energy>
23.427166

> <b_lp_Chiralities_Consistent>
1

> <s_lp_Variant>
CHEMBL3880_lig896-1

> <s_i_glide_gridfile>
glide-grid_1uyg

> <i_i_glide_lignum>
1002

> <i_i_glide_rotatable_bonds>
9

> <r_i_docking_score>
-7.5550401552688

> <r_i_glide_ligand_efficiency>
-0.260518626043752

> <r_i_glide_ligand_efficiency_sa>
-0.800395757300388

> <r_i_glide_ligand_efficiency_ln>
-1.72991261626813

> <r_i_glide_gscore>
-7.5550401552688

> <r_i_glide_lipo>
-3.08523264271899

> <r_i_glide_hbond>
-0.191569352785947

> <r_i_glide_metal>
0

> <r_i_glide_rewards>
-1.91818707233182

> <r_i_glide_evdw>
-46.5796051025391

> <r_i_glide_ecoul>
-3.61319661140442

> <r_i_glide_erotb>
0.562109117948645

> <r_i_glide_esite>
-0.0512004585430671

> <r_i_glide_emodel>
-62.2930621652004

> <r_i_glide_energy>
-50.1928017139435

> <r_i_glide_einternal>
14.3176298141479

> <i_i_glide_confnum>
72

> <i_i_glide_posenum>
247

> <r_i_glide_eff_state_penalty>
0

> <s_user_duplicate_titles>
CHEMBL3880_lig896

> <i_f3d_flags>
0

> <s_m_subgroup_title>
dock_pv

> <s_m_subgroupid>
dock_pv

> <b_m_subgroup_collapsed>
1

$$$$
CHEMBL3880_lig917
                    3D
 Schrodinger Suite 2021-1.
 59 63  0  0  1  0            999 V2000
   -0.0569   12.6091   23.9666 N   0  0  0  0  0  0
   -0.5207   11.3473   24.1519 C   0  0  0  0  0  0
    0.2454   10.2436   24.3670 N   0  0  0  0  0  0
    1.6000   10.4157   24.3688 C   0  0  0  0  0  0
   -1.8983   11.1647   24.1269 N   0  0  0  0  0  0
    2.4472    9.1979   24.5457 C   0  0  0  0  0  0
    3.4307    8.8367   23.5979 C   0  0  0  0  0  0
    4.2651    7.7414   23.8160 C   0  0  0  0  0  0
    4.1496    6.9936   24.9798 C   0  0  0  0  0  0
    3.1794    7.3274   25.9153 C   0  0  0  0  0  0
    2.3130    8.4010   25.6988 C   0  0  0  0  0  0
    1.3806    8.7121   26.6607 O   0  0  0  0  0  0
    3.6610    9.7042   22.1202 Cl  0  0  0  0  0  0
    0.1887    7.9212   26.6587 C   0  0  0  0  0  0
    0.3297    6.5526   27.3647 C   0  0  0  0  0  0
    1.0279    6.6134   28.7202 C   0  0  0  0  0  0
    5.2105    5.6640   25.2688 Cl  0  0  0  0  0  0
    1.2877   12.7566   24.0607 C   0  0  0  0  0  0
    2.1563   11.6942   24.2475 C   0  0  0  0  0  0
    3.5755   12.1902   24.3217 C   0  0  0  0  0  0
    3.3901   13.6360   24.4531 N   0  0  0  0  0  0
    2.0411   14.0593   24.0595 C   0  0  0  0  0  0
    4.3358   14.4862   24.9175 C   0  0  0  0  0  0
    5.6013   14.1335   24.6195 N   0  0  0  0  0  0
    4.0612   15.5697   25.4286 O   0  0  0  0  0  0
    6.7719   15.0071   24.7904 C   0  0  0  0  0  0
    7.3997   14.9945   26.1883 C   0  0  0  0  0  0
    8.3303   13.8742   25.6863 C   0  0  0  0  0  0
    8.0863   14.4157   24.2667 C   0  0  0  0  0  0
    2.1017    5.7610   28.9951 C   0  0  0  0  0  0
    2.7754    5.8549   30.2097 C   0  0  0  0  0  0
    2.3422    6.7678   31.1664 C   0  0  0  0  0  0
    1.2615    7.6055   30.9107 C   0  0  0  0  0  0
    0.6112    7.5357   29.6830 C   0  0  0  0  0  0
   -2.2633   10.2288   24.2234 H   0  0  0  0  0  0
   -2.5245   11.9466   23.9749 H   0  0  0  0  0  0
    5.0131    7.4770   23.0821 H   0  0  0  0  0  0
    3.1151    6.7602   26.8256 H   0  0  0  0  0  0
   -0.5775    8.5079   27.1664 H   0  0  0  0  0  0
   -0.1937    7.7801   25.6454 H   0  0  0  0  0  0
   -0.6579    6.1092   27.4995 H   0  0  0  0  0  0
    0.8658    5.8713   26.7035 H   0  0  0  0  0  0
    4.1715   11.9536   23.4415 H   0  0  0  0  0  0
    4.0719   11.7826   25.2006 H   0  0  0  0  0  0
    1.6234   14.7693   24.7672 H   0  0  0  0  0  0
    2.0345   14.5434   23.0860 H   0  0  0  0  0  0
    5.6891   13.4469   23.8869 H   0  0  0  0  0  0
    6.4446   15.9598   24.3671 H   0  0  0  0  0  0
    6.7266   14.7695   27.0164 H   0  0  0  0  0  0
    7.9241   15.9197   26.4215 H   0  0  0  0  0  0
    7.9347   12.8689   25.8363 H   0  0  0  0  0  0
    9.3596   13.9168   26.0447 H   0  0  0  0  0  0
    8.8032   15.1800   23.9606 H   0  0  0  0  0  0
    7.9980   13.6833   23.4628 H   0  0  0  0  0  0
    2.4417    5.0523   28.2544 H   0  0  0  0  0  0
    3.6351    5.2318   30.4092 H   0  0  0  0  0  0
    2.8697    6.8583   32.1057 H   0  0  0  0  0  0
    0.9507    8.3313   31.6492 H   0  0  0  0  0  0
   -0.2122    8.2084   29.4872 H   0  0  0  0  0  0
  1 18  1  0  0  0
  1  2  2  0  0  0
  2  5  1  0  0  0
  2  3  1  0  0  0
  3  4  2  0  0  0
  4 19  1  0  0  0
  4  6  1  0  0  0
  5 35  1  0  0  0
  5 36  1  0  0  0
  6 11  1  0  0  0
  6  7  2  0  0  0
  7  8  1  0  0  0
  7 13  1  0  0  0
  8  9  2  0  0  0
  8 37  1  0  0  0
  9 17  1  0  0  0
  9 10  1  0  0  0
 10 11  2  0  0  0
 10 38  1  0  0  0
 11 12  1  0  0  0
 12 14  1  0  0  0
 14 15  1  0  0  0
 14 39  1  0  0  0
 14 40  1  0  0  0
 15 16  1  0  0  0
 15 41  1  0  0  0
 15 42  1  0  0  0
 16 30  2  0  0  0
 16 34  1  0  0  0
 18 19  2  0  0  0
 18 22  1  0  0  0
 19 20  1  0  0  0
 20 21  1  0  0  0
 20 43  1  0  0  0
 20 44  1  0  0  0
 21 22  1  0  0  0
 21 23  1  0  0  0
 22 45  1  0  0  0
 22 46  1  0  0  0
 23 24  1  0  0  0
 23 25  2  0  0  0
 24 26  1  0  0  0
 24 47  1  0  0  0
 26 27  1  0  0  0
 26 29  1  0  0  0
 26 48  1  0  0  0
 27 28  1  0  0  0
 27 49  1  0  0  0
 27 50  1  0  0  0
 28 29  1  0  0  0
 28 51  1  0  0  0
 28 52  1  0  0  0
 29 53  1  0  0  0
 29 54  1  0  0  0
 30 31  1  0  0  0
 30 55  1  0  0  0
 31 32  2  0  0  0
 31 56  1  0  0  0
 32 33  1  0  0  0
 32 57  1  0  0  0
 33 34  2  0  0  0
 33 58  1  0  0  0
 34 59  1  0  0  0
M  END
> <s_m_entry_id>
5023

> <s_m_entry_name>
dock_pv.342

> <s_m_Source_Path>
/home/csk/Desktop/cluster/DUD-E-result/hs90a

> <s_m_Source_File>
dock_pv.maegz

> <i_m_Source_File_Index>
342

> <chembl_id>
CHEMBL1774910

> <chembl_pref_name>
None

> <i_lp_mmshare_version>
53161

> <r_lp_tautomer_probability>
0.999999987636

> <s_lp_Force_Field>
OPLS_2005

> <r_lp_Energy>
48.956266

> <b_lp_Chiralities_Consistent>
1

> <s_lp_Variant>
CHEMBL3880_lig917-1

> <s_i_glide_gridfile>
glide-grid_1uyg

> <i_i_glide_lignum>
1023

> <i_i_glide_rotatable_bonds>
8

> <r_i_docking_score>
-7.53034564209052

> <r_i_glide_ligand_efficiency>
-0.221480754179133

> <r_i_glide_ligand_efficiency_sa>
-0.717511664151154

> <r_i_glide_ligand_efficiency_ln>
-1.66366457137859

> <r_i_glide_gscore>
-7.53034564209052

> <r_i_glide_lipo>
-3.335407047158

> <r_i_glide_hbond>
-0.0114493088726869

> <r_i_glide_metal>
0

> <r_i_glide_rewards>
-1.82351593688359

> <r_i_glide_evdw>
-48.5647125244141

> <r_i_glide_ecoul>
-3.37843465805054

> <r_i_glide_erotb>
0.575027475752041

> <r_i_glide_esite>
0

> <r_i_glide_emodel>
-72.2371025145974

> <r_i_glide_energy>
-51.9431471824646

> <r_i_glide_einternal>
5.97963953018188

> <i_i_glide_confnum>
66

> <i_i_glide_posenum>
44

> <r_i_glide_eff_state_penalty>
0

> <s_user_duplicate_titles>
CHEMBL3880_lig917

> <i_f3d_flags>
0

> <s_m_subgroup_title>
dock_pv

> <s_m_subgroupid>
dock_pv

> <b_m_subgroup_collapsed>
1

$$$$
CHEMBL3880_lig314
                    3D
 Schrodinger Suite 2021-1.
 42 44  0  0  1  0            999 V2000
    3.1811   12.7670   23.7866 C   0  0  0  0  0  0
    2.2507   11.6485   24.2495 C   0  0  0  0  0  0
    2.7475   10.4791   24.7448 C   0  0  0  0  0  0
    4.2020   10.1869   24.9259 C   0  0  0  0  0  0
    5.0071   11.2113   24.0871 C   0  0  0  0  0  0
    4.5214   12.5793   24.3670 N   0  0  1  0  0  0
    1.7584    9.6224   25.0812 O   0  0  0  0  0  0
    0.5582   10.2581   24.7674 N   0  0  0  0  0  0
    0.8731   11.4323   24.2402 C   0  0  0  0  0  0
   -0.0540   12.4027   23.7467 C   0  0  0  0  0  0
    0.2891   13.5703   23.5669 O   0  0  0  0  0  0
   -1.2719   11.9373   23.4431 N   0  0  0  0  0  0
   -2.3187   12.7477   22.8473 C   0  0  0  0  0  0
   -2.0161   13.2154   21.4239 C   0  0  0  0  0  0
    5.4638   13.5742   23.8534 C   0  0  0  0  0  0
    6.5550   13.9687   24.8439 C   0  0  0  0  0  0
    6.2922   14.8418   25.9089 C   0  0  0  0  0  0
    7.3037   15.1639   26.8144 C   0  0  0  0  0  0
    8.5761   14.6105   26.6712 C   0  0  0  0  0  0
    8.8357   13.7139   25.6376 C   0  0  0  0  0  0
    7.8330   13.4114   24.7156 C   0  0  0  0  0  0
    9.5730   14.9038   27.5607 O   0  0  0  0  0  0
    5.0375   15.3533   26.1035 O   0  0  0  0  0  0
   10.3695   12.9153   25.5671 Cl  0  0  0  0  0  0
    3.2100   12.7689   22.6982 H   0  0  0  0  0  0
    2.8040   13.7335   24.1237 H   0  0  0  0  0  0
    4.4604   10.3338   25.9671 H   0  0  0  0  0  0
    4.4611    9.1638   24.6567 H   0  0  0  0  0  0
    6.0561   11.1144   24.3670 H   0  0  0  0  0  0
    4.9774   10.9912   23.0180 H   0  0  0  0  0  0
   -1.5174   10.9921   23.7000 H   0  0  0  0  0  0
   -2.6311   13.5675   23.4996 H   0  0  0  0  0  0
   -3.1391   12.0533   22.7670 H   0  0  0  0  0  0
   -2.7210   13.9768   21.0891 H   0  0  0  0  0  0
   -2.1115   12.3690   20.7670 H   0  0  0  0  0  0
   -0.9989   13.5690   21.2884 H   0  0  0  0  0  0
    5.9347   13.1690   22.9567 H   0  0  0  0  0  0
    4.9407   14.4870   23.5669 H   0  0  0  0  0  0
    7.0853   15.8271   27.6382 H   0  0  0  0  0  0
    8.0431   12.7075   23.9225 H   0  0  0  0  0  0
    9.2770   15.1692   28.4569 H   0  0  0  0  0  0
    4.3852   14.8458   25.6130 H   0  0  0  0  0  0
  1  2  1  0  0  0
  1  6  1  0  0  0
  1 25  1  0  0  0
  1 26  1  0  0  0
  2  3  2  0  0  0
  2  9  1  0  0  0
  3  4  1  0  0  0
  3  7  1  0  0  0
  4  5  1  0  0  0
  4 27  1  0  0  0
  4 28  1  0  0  0
  5  6  1  0  0  0
  5 29  1  0  0  0
  5 30  1  0  0  0
  6 15  1  0  0  0
  7  8  1  0  0  0
  8  9  2  0  0  0
  9 10  1  0  0  0
 10 11  2  0  0  0
 10 12  1  0  0  0
 12 13  1  0  0  0
 12 31  1  0  0  0
 13 14  1  0  0  0
 13 32  1  0  0  0
 13 33  1  0  0  0
 14 34  1  0  0  0
 14 35  1  0  0  0
 14 36  1  0  0  0
 15 16  1  0  0  0
 15 37  1  0  0  0
 15 38  1  0  0  0
 16 17  1  0  0  0
 16 21  2  0  0  0
 17 18  2  0  0  0
 17 23  1  0  0  0
 18 19  1  0  0  0
 18 39  1  0  0  0
 19 20  2  0  0  0
 19 22  1  0  0  0
 20 21  1  0  0  0
 20 24  1  0  0  0
 21 40  1  0  0  0
 22 41  1  0  0  0
 23 42  1  0  0  0
M  END
> <s_m_entry_id>
5024

> <s_m_entry_name>
dock_pv.343

> <s_m_Source_Path>
/home/csk/Desktop/cluster/DUD-E-result/hs90a

> <s_m_Source_File>
dock_pv.maegz

> <i_m_Source_File_Index>
343

> <chembl_id>
CHEMBL3233750

> <chembl_pref_name>
None

> <i_lp_mmshare_version>
53161

> <r_lp_tautomer_probability>
0.999999999898

> <s_lp_Force_Field>
OPLS_2005

> <r_lp_Energy>
29.747245

> <b_lp_Chiralities_Consistent>
1

> <s_lp_Variant>
CHEMBL3880_lig314-1

> <s_i_glide_gridfile>
glide-grid_1uyg

> <i_i_glide_lignum>
351

> <i_i_glide_rotatable_bonds>
7

> <r_i_docking_score>
-7.52550405770497

> <r_i_glide_ligand_efficiency>
-0.313562669071041

> <r_i_glide_ligand_efficiency_sa>
-0.904471248506152

> <r_i_glide_ligand_efficiency_ln>
-1.80119844388847

> <r_i_glide_gscore>
-7.52550405770497

> <r_i_glide_lipo>
-3.02685462639999

> <r_i_glide_hbond>
-0.228766009237205

> <r_i_glide_metal>
0

> <r_i_glide_rewards>
-1.82760701627242

> <r_i_glide_evdw>
-29.6995601654053

> <r_i_glide_ecoul>
-10.4927930831909

> <r_i_glide_erotb>
0.61662056495354

> <r_i_glide_esite>
0

> <r_i_glide_emodel>
-58.6234088857112

> <r_i_glide_energy>
-40.1923532485962

> <r_i_glide_einternal>
5.09578323364258

> <i_i_glide_confnum>
46

> <i_i_glide_posenum>
49

> <r_i_glide_eff_state_penalty>
0

> <s_user_duplicate_titles>
CHEMBL3880_lig314

> <i_f3d_flags>
0

> <s_m_subgroup_title>
dock_pv

> <s_m_subgroupid>
dock_pv

> <b_m_subgroup_collapsed>
1

$$$$
CHEMBL3880_lig11
                    3D
 Schrodinger Suite 2021-1.
 36 37  0  0  1  0            999 V2000
   10.0493   14.9715   27.1676 O   0  0  0  0  0  0
   10.4963   14.0125   25.1671 O   0  0  0  0  0  0
    2.9749    9.9919   24.5544 O   0  0  0  0  0  0
    4.0567   14.5899   25.0457 N   0  0  0  0  0  0
    8.2060   14.5195   25.7368 C   0  0  0  0  0  0
    5.4430   14.5623   25.2482 C   0  0  0  0  0  0
    9.6868   14.4785   25.9715 C   0  0  0  0  0  0
    7.6729   13.8937   24.6024 C   0  0  0  0  0  0
    7.3322   15.1646   26.6250 C   0  0  0  0  0  0
    6.3027   13.9084   24.3683 C   0  0  0  0  0  0
    5.9643   15.2033   26.3672 C   0  0  0  0  0  0
    1.1255   11.4064   24.1149 C   0  0  0  0  0  0
    2.5781   11.1425   24.3674 C   0  0  0  0  0  0
    3.5372   12.2291   24.5605 C   0  0  0  0  0  0
    3.2226   13.5254   24.7668 C   0  0  0  0  0  0
    0.1693   10.6138   24.7679 C   0  0  0  0  0  0
    0.7082   12.3473   23.1601 C   0  0  0  0  0  0
   -1.1859   10.7782   24.4947 C   0  0  0  0  0  0
   -0.6482   12.4924   22.8733 C   0  0  0  0  0  0
   -1.5868   11.7167   23.5476 C   0  0  0  0  0  0
   11.3960   14.8953   27.6133 C   0  0  0  0  0  0
    3.6380   15.4477   25.3728 H   0  0  0  0  0  0
    8.3071   13.3720   23.9006 H   0  0  0  0  0  0
    7.6918   15.6304   27.5321 H   0  0  0  0  0  0
    5.9053   13.4113   23.4974 H   0  0  0  0  0  0
    5.3106   15.7080   27.0630 H   0  0  0  0  0  0
    4.5662   11.9071   24.5765 H   0  0  0  0  0  0
    2.1941   13.8581   24.7616 H   0  0  0  0  0  0
    0.4703    9.8616   25.4842 H   0  0  0  0  0  0
    1.4262   12.9434   22.6150 H   0  0  0  0  0  0
   -1.9257   10.1694   24.9971 H   0  0  0  0  0  0
   -0.9798   13.1931   22.1227 H   0  0  0  0  0  0
   -2.6394   11.8331   23.3242 H   0  0  0  0  0  0
   11.4533   15.1713   28.6649 H   0  0  0  0  0  0
   11.7897   13.8821   27.5182 H   0  0  0  0  0  0
   12.0327   15.5690   27.0399 H   0  0  0  0  0  0
  1  7  1  0  0  0
  1 21  1  0  0  0
  2  7  2  0  0  0
  3 13  2  0  0  0
  4  6  1  0  0  0
  4 15  1  0  0  0
  4 22  1  0  0  0
  5  7  1  0  0  0
  5  8  2  0  0  0
  5  9  1  0  0  0
  6 10  2  0  0  0
  6 11  1  0  0  0
  8 10  1  0  0  0
  8 23  1  0  0  0
  9 11  2  0  0  0
  9 24  1  0  0  0
 10 25  1  0  0  0
 11 26  1  0  0  0
 12 13  1  0  0  0
 12 16  2  0  0  0
 12 17  1  0  0  0
 13 14  1  0  0  0
 14 15  2  0  0  0
 14 27  1  0  0  0
 15 28  1  0  0  0
 16 18  1  0  0  0
 16 29  1  0  0  0
 17 19  2  0  0  0
 17 30  1  0  0  0
 18 20  2  0  0  0
 18 31  1  0  0  0
 19 20  1  0  0  0
 19 32  1  0  0  0
 20 33  1  0  0  0
 21 34  1  0  0  0
 21 35  1  0  0  0
 21 36  1  0  0  0
M  END
> <s_m_entry_id>
5025

> <s_m_entry_name>
dock_pv.344

> <s_m_Source_Path>
/home/csk/Desktop/cluster/DUD-E-result/hs90a

> <s_m_Source_File>
dock_pv.maegz

> <i_m_Source_File_Index>
344

> <chembl_id>
CHEMBL1566781

> <chembl_pref_name>
None

> <i_lp_mmshare_version>
53161

> <r_lp_tautomer_probability>
0.499999999998937

> <s_lp_Force_Field>
OPLS_2005

> <r_lp_Energy>
21.79605

> <b_lp_Chiralities_Consistent>
1

> <s_lp_Variant>
CHEMBL3880_lig11-1

> <s_i_glide_gridfile>
glide-grid_1uyg

> <i_i_glide_lignum>
13

> <i_i_glide_rotatable_bonds>
6

> <r_i_docking_score>
-7.51718808750757

> <r_i_glide_ligand_efficiency>
-0.357961337500361

> <r_i_glide_ligand_efficiency_sa>
-0.987588187237222

> <r_i_glide_ligand_efficiency_ln>
-1.85860956472746

> <r_i_glide_gscore>
-7.51718808750757

> <r_i_glide_lipo>
-3.76558508909563

> <r_i_glide_hbond>
-0.278272134774313

> <r_i_glide_metal>
0

> <r_i_glide_rewards>
-1.91704558765733

> <r_i_glide_evdw>
-40.5161743164062

> <r_i_glide_ecoul>
-2.96075749397278

> <r_i_glide_erotb>
0.913637063935917

> <r_i_glide_esite>
0

> <r_i_glide_emodel>
-57.8833580106314

> <r_i_glide_energy>
-43.476931810379

> <r_i_glide_einternal>
6.85210514068604

> <i_i_glide_confnum>
11

> <i_i_glide_posenum>
113

> <r_i_glide_eff_state_penalty>
0

> <s_user_duplicate_titles>
CHEMBL3880_lig11

> <i_f3d_flags>
0

> <s_m_subgroup_title>
dock_pv

> <s_m_subgroupid>
dock_pv

> <b_m_subgroup_collapsed>
1

$$$$
CHEMBL3880_lig143
                    3D
 Schrodinger Suite 2021-1.
 62 64  0  0  1  0            999 V2000
    3.3271    7.7733   26.6867 C   0  0  0  0  0  0
    2.1384    8.6747   26.2952 C   0  0  0  0  0  0
    1.1911    8.8001   27.5192 C   0  0  0  0  0  0
    3.9442   13.7136   24.7669 C   0  0  0  0  0  0
    3.4641   12.4275   24.5941 C   0  0  0  0  0  0
    4.2824   11.4805   23.9851 C   0  0  0  0  0  0
    5.6339   11.7282   23.6952 C   0  0  0  0  0  0
    6.1401   13.0342   23.9670 C   0  0  0  0  0  0
    5.2566   14.0157   24.4466 C   0  0  0  0  0  0
    7.6301   13.3923   23.8240 C   0  0  0  0  0  0
    8.1872   14.6832   24.4848 C   0  0  0  0  0  0
    8.7471   14.4681   25.8184 N   0  0  0  0  0  0
   10.0591   14.3270   26.0675 C   0  0  0  0  0  0
   10.4633   14.1002   27.5192 C   0  0  0  0  0  0
   10.9211   14.3690   25.1881 O   0  0  0  0  0  0
    6.4554   10.5435   23.2591 C   0  0  0  0  0  0
    6.1251    9.2603   23.7346 C   0  0  0  0  0  0
    6.9367    8.1560   23.5227 C   0  0  0  0  0  0
    8.0853    8.3001   22.7670 C   0  0  0  0  0  0
    8.3843    9.5262   22.1864 C   0  0  0  0  0  0
    7.5796   10.6377   22.4275 C   0  0  0  0  0  0
    2.2038   12.1824   25.0825 O   0  0  0  0  0  0
    1.7279   10.8866   25.3359 C   0  0  2  0  0  0
    2.6662    9.9696   25.9010 O   0  0  0  0  0  0
    1.4423    8.0256   25.0645 C   0  0  1  0  0  0
    0.4336    8.9864   24.4223 C   0  0  2  0  0  0
    1.0653   10.3463   24.0698 C   0  0  1  0  0  0
    2.4242    7.6357   24.0901 O   0  0  0  0  0  0
    2.0432    6.6261   23.1595 C   0  0  0  0  0  0
    0.1224   11.2900   23.5689 O   0  0  0  0  0  0
   -0.7390    9.1690   25.1670 O   0  0  0  0  0  0
    6.6180    6.9582   24.0627 F   0  0  0  0  0  0
    3.0550    6.7176   26.6569 H   0  0  0  0  0  0
    4.1713    7.9036   26.0107 H   0  0  0  0  0  0
    3.6610    7.9690   27.7040 H   0  0  0  0  0  0
    0.7769    7.8299   27.7946 H   0  0  0  0  0  0
    1.7397    9.1690   28.3829 H   0  0  0  0  0  0
    0.3499    9.4738   27.3836 H   0  0  0  0  0  0
    3.3082   14.4717   25.1995 H   0  0  0  0  0  0
    3.8702   10.5042   23.8037 H   0  0  0  0  0  0
    5.5563   15.0300   24.6392 H   0  0  0  0  0  0
    7.8156   13.5025   22.7670 H   0  0  0  0  0  0
    8.2437   12.5482   24.1416 H   0  0  0  0  0  0
    7.4940   15.5193   24.4980 H   0  0  0  0  0  0
    8.9459   15.0917   23.8158 H   0  0  0  0  0  0
    8.0978   14.4479   26.5912 H   0  0  0  0  0  0
    9.6188   13.7700   28.1241 H   0  0  0  0  0  0
   10.8553   15.0222   27.9495 H   0  0  0  0  0  0
   11.2403   13.3392   27.5797 H   0  0  0  0  0  0
    5.2671    9.0981   24.3670 H   0  0  0  0  0  0
    8.7211    7.4454   22.5896 H   0  0  0  0  0  0
    9.2610    9.5919   21.5671 H   0  0  0  0  0  0
    7.8552   11.5680   21.9631 H   0  0  0  0  0  0
    0.9935   11.0576   26.1206 H   0  0  0  0  0  0
    0.9357    7.1131   25.3889 H   0  0  0  0  0  0
    0.0609    8.4592   23.5670 H   0  0  0  0  0  0
    1.8231   10.2118   23.2999 H   0  0  0  0  0  0
    2.9060    6.3616   22.5483 H   0  0  0  0  0  0
    1.7059    5.7195   23.6636 H   0  0  0  0  0  0
    1.2609    6.9615   22.4802 H   0  0  0  0  0  0
   -0.6888   11.1811   24.0746 H   0  0  0  0  0  0
   -1.4593    8.7551   24.6726 H   0  0  0  0  0  0
  1  2  1  0  0  0
  1 33  1  0  0  0
  1 34  1  0  0  0
  1 35  1  0  0  0
  2  3  1  0  0  0
  2 24  1  0  0  0
  2 25  1  0  0  0
  3 36  1  0  0  0
  3 37  1  0  0  0
  3 38  1  0  0  0
  4  9  1  0  0  0
  4  5  2  0  0  0
  4 39  1  0  0  0
  5  6  1  0  0  0
  5 22  1  0  0  0
  6  7  2  0  0  0
  6 40  1  0  0  0
  7 16  1  0  0  0
  7  8  1  0  0  0
  8 10  1  0  0  0
  8  9  2  0  0  0
  9 41  1  0  0  0
 10 11  1  0  0  0
 10 42  1  0  0  0
 10 43  1  0  0  0
 11 12  1  0  0  0
 11 44  1  0  0  0
 11 45  1  0  0  0
 12 13  1  0  0  0
 12 46  1  0  0  0
 13 14  1  0  0  0
 13 15  2  0  0  0
 14 47  1  0  0  0
 14 48  1  0  0  0
 14 49  1  0  0  0
 16 17  2  0  0  0
 16 21  1  0  0  0
 17 18  1  0  0  0
 17 50  1  0  0  0
 18 19  2  0  0  0
 18 32  1  0  0  0
 19 20  1  0  0  0
 19 51  1  0  0  0
 20 21  2  0  0  0
 20 52  1  0  0  0
 21 53  1  0  0  0
 22 23  1  0  0  0
 23 24  1  0  0  0
 23 27  1  0  0  0
 23 54  1  0  0  0
 25 26  1  0  0  0
 25 28  1  0  0  0
 25 55  1  0  0  0
 26 27  1  0  0  0
 26 31  1  0  0  0
 26 56  1  0  0  0
 27 30  1  0  0  0
 27 57  1  0  0  0
 28 29  1  0  0  0
 29 58  1  0  0  0
 29 59  1  0  0  0
 29 60  1  0  0  0
 30 61  1  0  0  0
 31 62  1  0  0  0
M  END
> <s_m_entry_id>
5026

> <s_m_entry_name>
dock_pv.345

> <s_m_Source_Path>
/home/csk/Desktop/cluster/DUD-E-result/hs90a

> <s_m_Source_File>
dock_pv.maegz

> <i_m_Source_File_Index>
345

> <chembl_id>
CHEMBL2159227

> <chembl_pref_name>
None

> <i_lp_mmshare_version>
53161

> <r_lp_tautomer_probability>
1

> <s_lp_Force_Field>
OPLS_2005

> <r_lp_Energy>
43.848808

> <b_lp_Chiralities_Consistent>
1

> <s_lp_Variant>
CHEMBL3880_lig143-1

> <s_i_glide_gridfile>
glide-grid_1uyg

> <i_i_glide_lignum>
163

> <i_i_glide_rotatable_bonds>
10

> <r_i_docking_score>
-7.50422203213885

> <r_i_glide_ligand_efficiency>
-0.234506938504339

> <r_i_glide_ligand_efficiency_sa>
-0.744513120891165

> <r_i_glide_ligand_efficiency_ln>
-1.68039987036273

> <r_i_glide_gscore>
-7.50422203213885

> <r_i_glide_lipo>
-3.63910596576178

> <r_i_glide_hbond>
-0.304

> <r_i_glide_metal>
0

> <r_i_glide_rewards>
-1.46762366392499

> <r_i_glide_evdw>
-33.3576927185059

> <r_i_glide_ecoul>
-6.83733987808228

> <r_i_glide_erotb>
0.59999321518555

> <r_i_glide_esite>
0

> <r_i_glide_emodel>
-35.0658954399883

> <r_i_glide_energy>
-40.1950325965881

> <r_i_glide_einternal>
17.6729640960693

> <i_i_glide_confnum>
18

> <i_i_glide_posenum>
357

> <r_i_glide_eff_state_penalty>
0

> <s_user_duplicate_titles>
CHEMBL3880_lig143

> <i_f3d_flags>
0

> <s_m_subgroup_title>
dock_pv

> <s_m_subgroupid>
dock_pv

> <b_m_subgroup_collapsed>
1

$$$$
CHEMBL3880_lig276
                    3D
 Schrodinger Suite 2021-1.
 58 61  0  0  1  0            999 V2000
    0.0609    8.7263   27.0810 C   0  0  0  0  0  0
    0.5306    7.5253   27.6068 C   0  0  0  0  0  0
    1.2043    6.6153   26.7931 C   0  0  0  0  0  0
    1.3965    6.8788   25.4249 C   0  0  0  0  0  0
    0.9028    8.0783   24.9043 C   0  0  0  0  0  0
    0.2852    9.0248   25.7262 C   0  0  0  0  0  0
    1.6712    5.4654   27.3700 O   0  0  0  0  0  0
    2.1597    5.8926   24.5239 C   0  0  0  0  0  0
    3.6838    6.0266   24.7303 C   0  0  0  0  0  0
    1.8020    5.9727   23.0183 C   0  0  0  0  0  0
   -0.6333    9.5690   27.9102 O   0  0  0  0  0  0
   -0.1718   10.2166   25.1283 N   0  0  0  0  0  0
    0.5093   11.2489   24.4821 C   0  0  0  0  0  0
   -0.5460   12.0083   23.9684 C   0  0  0  0  0  0
   -1.7208   11.5222   24.2942 N   0  0  0  0  0  0
   -1.4985   10.3847   25.0314 N   0  0  0  0  0  0
    1.9912   11.5315   24.3637 C   0  0  0  0  0  0
    3.0182   10.5796   24.4103 C   0  0  0  0  0  0
    4.3499   10.9473   24.2025 C   0  0  0  0  0  0
    4.6921   12.2822   23.9671 C   0  0  0  0  0  0
    3.6757   13.2390   23.9666 C   0  0  0  0  0  0
    2.3470   12.8685   24.1519 C   0  0  0  0  0  0
    6.1606   12.6726   23.7208 C   0  0  0  0  0  0
    6.8409   13.4625   24.7664 N   0  0  2  0  0  0
    6.2541   14.7630   25.1034 C   0  0  0  0  0  0
    6.9131   15.3547   26.3562 C   0  0  0  0  0  0
    8.4481   15.4599   26.2307 C   0  0  0  0  0  0
    9.0704   14.1576   25.7020 C   0  0  1  0  0  0
    8.2826   13.5540   24.5187 C   0  0  0  0  0  0
   10.4203   14.3687   25.3275 O   0  0  0  0  0  0
    0.3722    7.2933   28.6491 H   0  0  0  0  0  0
    1.0243    8.3065   23.8553 H   0  0  0  0  0  0
    2.2279    4.9748   26.7615 H   0  0  0  0  0  0
    1.8654    4.8879   24.8375 H   0  0  0  0  0  0
    3.9614    5.9130   25.7781 H   0  0  0  0  0  0
    4.0414    7.0047   24.3973 H   0  0  0  0  0  0
    4.2248    5.2671   24.1661 H   0  0  0  0  0  0
    0.7207    5.9152   22.8655 H   0  0  0  0  0  0
    2.1601    6.8915   22.5475 H   0  0  0  0  0  0
    2.2422    5.1392   22.4667 H   0  0  0  0  0  0
   -0.6696    9.2587   28.8206 H   0  0  0  0  0  0
   -0.4639   12.9128   23.3825 H   0  0  0  0  0  0
    2.8224    9.5397   24.5853 H   0  0  0  0  0  0
    5.1172   10.1870   24.2281 H   0  0  0  0  0  0
    3.8988   14.2743   23.7597 H   0  0  0  0  0  0
    1.5940   13.6421   24.1162 H   0  0  0  0  0  0
    6.7194   11.7461   23.5894 H   0  0  0  0  0  0
    6.2401   13.1688   22.7671 H   0  0  0  0  0  0
    6.2922   15.4415   24.2498 H   0  0  0  0  0  0
    5.2073   14.6325   25.3631 H   0  0  0  0  0  0
    6.4614   16.3332   26.5279 H   0  0  0  0  0  0
    6.6276   14.7753   27.2332 H   0  0  0  0  0  0
    8.7081   16.2793   25.5648 H   0  0  0  0  0  0
    8.8748   15.6961   27.2058 H   0  0  0  0  0  0
    9.0700   13.4391   26.5225 H   0  0  0  0  0  0
    8.6617   12.5414   24.3672 H   0  0  0  0  0  0
    8.4513   14.1112   23.5929 H   0  0  0  0  0  0
   10.9065   14.6625   26.1024 H   0  0  0  0  0  0
  1  2  2  0  0  0
  1  6  1  0  0  0
  1 11  1  0  0  0
  2  3  1  0  0  0
  2 31  1  0  0  0
  3  4  2  0  0  0
  3  7  1  0  0  0
  4  5  1  0  0  0
  4  8  1  0  0  0
  5  6  2  0  0  0
  5 32  1  0  0  0
  6 12  1  0  0  0
  7 33  1  0  0  0
  8  9  1  0  0  0
  8 10  1  0  0  0
  8 34  1  0  0  0
  9 35  1  0  0  0
  9 36  1  0  0  0
  9 37  1  0  0  0
 10 38  1  0  0  0
 10 39  1  0  0  0
 10 40  1  0  0  0
 11 41  1  0  0  0
 12 13  1  0  0  0
 12 16  1  0  0  0
 13 14  2  0  0  0
 13 17  1  0  0  0
 14 15  1  0  0  0
 14 42  1  0  0  0
 15 16  2  0  0  0
 17 18  2  0  0  0
 17 22  1  0  0  0
 18 19  1  0  0  0
 18 43  1  0  0  0
 19 20  2  0  0  0
 19 44  1  0  0  0
 20 21  1  0  0  0
 20 23  1  0  0  0
 21 22  2  0  0  0
 21 45  1  0  0  0
 22 46  1  0  0  0
 23 24  1  0  0  0
 23 47  1  0  0  0
 23 48  1  0  0  0
 24 25  1  0  0  0
 24 29  1  0  0  0
 25 26  1  0  0  0
 25 49  1  0  0  0
 25 50  1  0  0  0
 26 27  1  0  0  0
 26 51  1  0  0  0
 26 52  1  0  0  0
 27 28  1  0  0  0
 27 53  1  0  0  0
 27 54  1  0  0  0
 28 29  1  0  0  0
 28 30  1  0  0  0
 28 55  1  0  0  0
 29 56  1  0  0  0
 29 57  1  0  0  0
 30 58  1  0  0  0
M  END
> <s_m_entry_id>
5027

> <s_m_entry_name>
dock_pv.346

> <s_m_Source_Path>
/home/csk/Desktop/cluster/DUD-E-result/hs90a

> <s_m_Source_File>
dock_pv.maegz

> <i_m_Source_File_Index>
346

> <chembl_id>
CHEMBL3234763

> <chembl_pref_name>
None

> <i_lp_mmshare_version>
53161

> <r_lp_tautomer_probability>
1

> <s_lp_Force_Field>
OPLS_2005

> <r_lp_Energy>
35.730034

> <b_lp_Chiralities_Consistent>
1

> <s_lp_Variant>
CHEMBL3880_lig276-2

> <s_i_glide_gridfile>
glide-grid_1uyg

> <i_i_glide_lignum>
311

> <i_i_glide_rotatable_bonds>
8

> <r_i_docking_score>
-7.49979287960667

> <r_i_glide_ligand_efficiency>
-0.249993095986889

> <r_i_glide_ligand_efficiency_sa>
-0.776786673233836

> <r_i_glide_ligand_efficiency_ln>
-1.70403465903506

> <r_i_glide_gscore>
-7.49979287960667

> <r_i_glide_lipo>
-3.98685594376666

> <r_i_glide_hbond>
-0.326483046184413

> <r_i_glide_metal>
0

> <r_i_glide_rewards>
-1.269539620442

> <r_i_glide_evdw>
-40.5820579528809

> <r_i_glide_ecoul>
-2.39739274978638

> <r_i_glide_erotb>
0.471797540898401

> <r_i_glide_esite>
0

> <r_i_glide_emodel>
-58.129454390681

> <r_i_glide_energy>
-42.9794507026672

> <r_i_glide_einternal>
5.11521482467651

> <i_i_glide_confnum>
22

> <i_i_glide_posenum>
154

> <r_i_glide_eff_state_penalty>
0

> <s_user_duplicate_titles>
CHEMBL3880_lig276

> <i_f3d_flags>
0

> <s_m_subgroup_title>
dock_pv

> <s_m_subgroupid>
dock_pv

> <b_m_subgroup_collapsed>
1

$$$$
CHEMBL3880_lig349
                    3D
 Schrodinger Suite 2021-1.
 48 51  0  0  1  0            999 V2000
    4.2684    6.1182   22.2358 C   0  0  0  0  0  0
    4.3902    7.0260   21.1893 C   0  0  0  0  0  0
    4.8007    8.3339   21.4335 C   0  0  0  0  0  0
    5.1212    8.7424   22.7334 C   0  0  0  0  0  0
    5.0397    7.8079   23.7693 C   0  0  0  0  0  0
    4.6094    6.5032   23.5349 C   0  0  0  0  0  0
    4.4894    5.4040   24.8630 Cl  0  0  0  0  0  0
    4.8661    9.1801   20.3657 O   0  0  0  0  0  0
    3.7806    4.8714   21.9636 O   0  0  0  0  0  0
    5.5580   10.1247   23.0718 C   0  0  0  0  0  0
    6.8300   10.4338   22.9287 N   0  0  0  0  0  0
    6.9726   11.7391   23.3878 O   0  0  0  0  0  0
    5.7521   12.1767   23.7849 C   0  0  0  0  0  0
    4.7884   11.2003   23.5657 C   0  0  0  0  0  0
    5.6371   13.4276   24.3669 N   0  0  0  0  0  0
    3.3100   11.3092   23.8294 C   0  0  0  0  0  0
    2.6643   12.5221   23.5683 C   0  0  0  0  0  0
    1.2988   12.6669   23.7964 C   0  0  0  0  0  0
    0.5459   11.6024   24.2865 C   0  0  0  0  0  0
    1.1871   10.3842   24.5580 C   0  0  0  0  0  0
    2.5569   10.2423   24.3304 C   0  0  0  0  0  0
   -0.8043   11.8410   24.4650 O   0  0  0  0  0  0
   -1.6666   10.7739   24.8506 C   0  0  0  0  0  0
    6.6249   14.2978   24.6607 C   0  0  0  0  0  0
    6.1984   15.6105   25.3448 C   0  0  0  0  0  0
    7.8188   14.1172   24.4193 O   0  0  0  0  0  0
    4.8199   16.1651   24.9276 C   0  0  0  0  0  0
    4.4421   16.2399   26.4125 C   0  0  0  0  0  0
    5.6599   15.3820   26.7670 C   0  0  0  0  0  0
    4.1248    6.7235   20.1869 H   0  0  0  0  0  0
    5.2936    8.1010   24.7704 H   0  0  0  0  0  0
    4.5491    8.7220   19.5847 H   0  0  0  0  0  0
    3.4138    4.8225   21.0783 H   0  0  0  0  0  0
    4.7059   13.6818   24.6541 H   0  0  0  0  0  0
    3.2132   13.3604   23.1686 H   0  0  0  0  0  0
    0.8155   13.6090   23.5824 H   0  0  0  0  0  0
    0.6367    9.5395   24.9431 H   0  0  0  0  0  0
    3.0234    9.2982   24.5596 H   0  0  0  0  0  0
   -2.6995   11.1292   24.9086 H   0  0  0  0  0  0
   -1.6417    9.9688   24.1173 H   0  0  0  0  0  0
   -1.3995   10.3752   25.8302 H   0  0  0  0  0  0
    6.9825   16.3624   25.3134 H   0  0  0  0  0  0
    4.1535   15.4943   24.3838 H   0  0  0  0  0  0
    4.8610   17.1423   24.4449 H   0  0  0  0  0  0
    3.4976   15.7662   26.6776 H   0  0  0  0  0  0
    4.4619   17.2460   26.8180 H   0  0  0  0  0  0
    6.2823   15.7937   27.5622 H   0  0  0  0  0  0
    5.3420   14.3688   27.0048 H   0  0  0  0  0  0
  1  2  2  0  0  0
  1  6  1  0  0  0
  1  9  1  0  0  0
  2  3  1  0  0  0
  2 30  1  0  0  0
  3  4  2  0  0  0
  3  8  1  0  0  0
  4  5  1  0  0  0
  4 10  1  0  0  0
  5  6  2  0  0  0
  5 31  1  0  0  0
  6  7  1  0  0  0
  8 32  1  0  0  0
  9 33  1  0  0  0
 10 11  2  0  0  0
 10 14  1  0  0  0
 11 12  1  0  0  0
 12 13  1  0  0  0
 13 14  2  0  0  0
 13 15  1  0  0  0
 14 16  1  0  0  0
 15 24  1  0  0  0
 15 34  1  0  0  0
 16 17  2  0  0  0
 16 21  1  0  0  0
 17 18  1  0  0  0
 17 35  1  0  0  0
 18 19  2  0  0  0
 18 36  1  0  0  0
 19 20  1  0  0  0
 19 22  1  0  0  0
 20 21  2  0  0  0
 20 37  1  0  0  0
 21 38  1  0  0  0
 22 23  1  0  0  0
 23 39  1  0  0  0
 23 40  1  0  0  0
 23 41  1  0  0  0
 24 25  1  0  0  0
 24 26  2  0  0  0
 25 27  1  0  0  0
 25 29  1  0  0  0
 25 42  1  0  0  0
 27 28  1  0  0  0
 27 43  1  0  0  0
 27 44  1  0  0  0
 28 29  1  0  0  0
 28 45  1  0  0  0
 28 46  1  0  0  0
 29 47  1  0  0  0
 29 48  1  0  0  0
M  END
> <s_m_entry_id>
5029

> <s_m_entry_name>
dock_pv.348

> <s_m_Source_Path>
/home/csk/Desktop/cluster/DUD-E-result/hs90a

> <s_m_Source_File>
dock_pv.maegz

> <i_m_Source_File_Index>
348

> <chembl_id>
CHEMBL3342589

> <chembl_pref_name>
None

> <i_lp_mmshare_version>
53161

> <r_lp_tautomer_probability>
0.999999999898

> <s_lp_Force_Field>
OPLS_2005

> <r_lp_Energy>
33.03198

> <b_lp_Chiralities_Consistent>
1

> <s_lp_Variant>
CHEMBL3880_lig349-1

> <s_i_glide_gridfile>
glide-grid_1uyg

> <i_i_glide_lignum>
386

> <i_i_glide_rotatable_bonds>
8

> <r_i_docking_score>
-7.48481872532314

> <r_i_glide_ligand_efficiency>
-0.258097197424936

> <r_i_glide_ligand_efficiency_sa>
-0.792956361420952

> <r_i_glide_ligand_efficiency_ln>
-1.7138336894724

> <r_i_glide_gscore>
-7.48481872532314

> <r_i_glide_lipo>
-3.50035726248568

> <r_i_glide_hbond>
-0.238763872451834

> <r_i_glide_metal>
0

> <r_i_glide_rewards>
-1.56736080181887

> <r_i_glide_evdw>
-41.4798736572266

> <r_i_glide_ecoul>
-4.51941442489624

> <r_i_glide_erotb>
0.573569058029012

> <r_i_glide_esite>
0

> <r_i_glide_emodel>
-59.7096113316151

> <r_i_glide_energy>
-45.9992880821228

> <r_i_glide_einternal>
11.0687799453735

> <i_i_glide_confnum>
111

> <i_i_glide_posenum>
379

> <r_i_glide_eff_state_penalty>
0

> <s_user_duplicate_titles>
CHEMBL3880_lig349

> <i_f3d_flags>
0

> <s_m_subgroup_title>
dock_pv

> <s_m_subgroupid>
dock_pv

> <b_m_subgroup_collapsed>
1

$$$$
CHEMBL3880_lig902
                    3D
 Schrodinger Suite 2021-1.
 51 53  0  0  1  0            999 V2000
    0.5939    9.8149   26.0798 C   0  0  0  0  0  0
    0.0555   10.5289   25.0285 C   0  0  0  0  0  0
    0.9201   10.6185   24.0051 N   0  0  0  0  0  0
    1.8289    9.4257   25.6452 N   0  0  0  0  0  0
    1.9390    9.8789   24.3745 C   0  0  0  0  0  0
   -0.0166    9.5691   27.2612 N   0  0  0  0  0  0
   -1.8929   10.7691   26.3680 N   0  0  0  0  0  0
   -1.2578   11.0164   25.1950 C   0  0  0  0  0  0
   -1.2552   10.0788   27.3225 C   0  0  0  0  0  0
    6.3763   12.4149   23.5859 C   0  0  0  0  0  0
    6.5897   11.0987   23.1611 C   0  0  0  0  0  0
    5.0957   12.8456   23.9677 C   0  0  0  0  0  0
    3.0933    9.6012   23.4628 C   0  0  0  0  0  0
    4.2385   10.6051   23.5516 C   0  0  0  0  0  0
    1.6303    6.9782   28.7712 C   0  0  0  0  0  0
    1.7687    7.3390   29.9309 C   0  0  0  0  0  0
    4.0356   11.9297   23.9460 C   0  0  0  0  0  0
    5.5134   10.1998   23.1622 C   0  0  0  0  0  0
   -1.9391   11.7295   24.2154 N   0  0  0  0  0  0
   -1.9401    9.8590   28.4641 F   0  0  0  0  0  0
    2.8415    8.6724   26.4124 C   0  0  0  0  0  0
    7.4213   13.3104   23.5671 O   0  0  0  0  0  0
    7.8594   10.7691   22.7327 O   0  0  0  0  0  0
    4.9574   14.1629   24.3676 O   0  0  0  0  0  0
    1.4850    6.6126   27.3479 C   0  0  0  0  0  0
    7.9994   13.5946   24.8334 C   0  0  0  0  0  0
    3.6835   14.6437   24.7857 C   0  0  0  0  0  0
    8.0612    9.5345   22.0598 C   0  0  0  0  0  0
    2.6019    7.1421   26.4151 C   0  0  0  0  0  0
    3.4496    8.5803   23.6120 H   0  0  0  0  0  0
    2.7429    9.6398   22.4305 H   0  0  0  0  0  0
    1.9104    7.6916   30.9304 H   0  0  0  0  0  0
    3.0434   12.2468   24.2217 H   0  0  0  0  0  0
    5.6535    9.1776   22.8456 H   0  0  0  0  0  0
   -1.5189   11.8345   23.3052 H   0  0  0  0  0  0
   -2.9262   11.9374   24.3674 H   0  0  0  0  0  0
    3.8039    8.9158   25.9659 H   0  0  0  0  0  0
    2.8434    9.1051   27.4144 H   0  0  0  0  0  0
    0.5090    6.9623   27.0106 H   0  0  0  0  0  0
    1.4502    5.5238   27.2991 H   0  0  0  0  0  0
    8.6537   14.4620   24.7389 H   0  0  0  0  0  0
    7.2573   13.8262   25.5997 H   0  0  0  0  0  0
    8.6104   12.7611   25.1770 H   0  0  0  0  0  0
    3.7911   15.6592   25.1652 H   0  0  0  0  0  0
    2.9739   14.6692   23.9583 H   0  0  0  0  0  0
    3.2621   14.0384   25.5875 H   0  0  0  0  0  0
    9.0317    9.5689   21.5717 H   0  0  0  0  0  0
    8.0517    8.6925   22.7523 H   0  0  0  0  0  0
    7.3139    9.3702   21.2826 H   0  0  0  0  0  0
    2.4136    6.8001   25.3960 H   0  0  0  0  0  0
    3.5378    6.6621   26.7089 H   0  0  0  0  0  0
  1  2  1  0  0  0
  1  4  1  0  0  0
  1  6  2  0  0  0
  2  3  1  0  0  0
  2  8  2  0  0  0
  3  5  2  0  0  0
  4  5  1  0  0  0
  4 21  1  0  0  0
  5 13  1  0  0  0
  6  9  1  0  0  0
  7  9  2  0  0  0
  7  8  1  0  0  0
  8 19  1  0  0  0
  9 20  1  0  0  0
 10 11  1  0  0  0
 10 22  1  0  0  0
 10 12  2  0  0  0
 11 18  2  0  0  0
 11 23  1  0  0  0
 12 17  1  0  0  0
 12 24  1  0  0  0
 13 14  1  0  0  0
 13 30  1  0  0  0
 13 31  1  0  0  0
 14 17  2  0  0  0
 14 18  1  0  0  0
 15 25  1  0  0  0
 15 16  3  0  0  0
 16 32  1  0  0  0
 17 33  1  0  0  0
 18 34  1  0  0  0
 19 35  1  0  0  0
 19 36  1  0  0  0
 21 29  1  0  0  0
 21 37  1  0  0  0
 21 38  1  0  0  0
 22 26  1  0  0  0
 23 28  1  0  0  0
 24 27  1  0  0  0
 25 29  1  0  0  0
 25 39  1  0  0  0
 25 40  1  0  0  0
 26 41  1  0  0  0
 26 42  1  0  0  0
 26 43  1  0  0  0
 27 44  1  0  0  0
 27 45  1  0  0  0
 27 46  1  0  0  0
 28 47  1  0  0  0
 28 48  1  0  0  0
 28 49  1  0  0  0
 29 50  1  0  0  0
 29 51  1  0  0  0
M  END
> <s_m_entry_id>
5030

> <s_m_entry_name>
dock_pv.349

> <s_m_Source_Path>
/home/csk/Desktop/cluster/DUD-E-result/hs90a

> <s_m_Source_File>
dock_pv.maegz

> <i_m_Source_File_Index>
349

> <chembl_id>
CHEMBL349231

> <chembl_pref_name>
None

> <i_lp_mmshare_version>
53161

> <r_lp_tautomer_probability>
0.999997216410988

> <s_lp_Force_Field>
OPLS_2005

> <r_lp_Energy>
27.461248

> <b_lp_Chiralities_Consistent>
1

> <s_lp_Variant>
CHEMBL3880_lig902-1

> <s_i_glide_gridfile>
glide-grid_1uyg

> <i_i_glide_lignum>
1008

> <i_i_glide_rotatable_bonds>
9

> <r_i_docking_score>
-7.48173193731636

> <r_i_glide_ligand_efficiency>
-0.257990756459185

> <r_i_glide_ligand_efficiency_sa>
-0.792629341051301

> <r_i_glide_ligand_efficiency_ln>
-1.71312689329304

> <r_i_glide_gscore>
-7.48173193731636

> <r_i_glide_lipo>
-2.97039496774692

> <r_i_glide_hbond>
-0.189217264434835

> <r_i_glide_metal>
0

> <r_i_glide_rewards>
-2.3277677016797

> <r_i_glide_evdw>
-43.9854888916016

> <r_i_glide_ecoul>
-3.3437180519104

> <r_i_glide_erotb>
0.736926168358637

> <r_i_glide_esite>
-0.0304460194469009

> <r_i_glide_emodel>
-66.9518380180998

> <r_i_glide_energy>
-47.329206943512

> <r_i_glide_einternal>
4.53193187713623

> <i_i_glide_confnum>
59

> <i_i_glide_posenum>
144

> <r_i_glide_eff_state_penalty>
0

> <s_user_duplicate_titles>
CHEMBL3880_lig902

> <i_f3d_flags>
0

> <s_m_subgroup_title>
dock_pv

> <s_m_subgroupid>
dock_pv

> <b_m_subgroup_collapsed>
1

$$$$
CHEMBL3880_lig38
                    3D
 Schrodinger Suite 2021-1.
 53 56  0  0  1  0            999 V2000
    1.8053    6.5961   25.6869 S   0  0  0  0  0  0
    2.0611   12.3688   22.3668 O   0  0  0  0  0  0
    1.0849    5.3425   25.4368 O   0  0  0  0  0  0
    3.2088    6.5955   25.2579 O   0  0  0  0  0  0
    9.2721   14.3702   24.7691 O   0  0  0  0  0  0
    7.5522   15.5689   25.6440 O   0  0  0  0  0  0
    0.8449    8.0686   25.5383 N   0  0  0  0  0  0
    4.2233   10.6505   23.2403 N   0  0  0  0  0  0
    0.3105   10.2548   24.7789 C   0  0  0  0  0  0
    1.2875    9.1375   24.9972 C   0  0  0  0  0  0
    0.5653   11.3193   23.8811 C   0  0  0  0  0  0
    1.8912   11.4902   23.2115 C   0  0  0  0  0  0
    2.9130   10.5192   23.6707 C   0  0  0  0  0  0
    2.5917    9.4677   24.4620 C   0  0  0  0  0  0
    1.8968    6.6584   27.4744 C   0  0  0  0  0  0
   -0.9318   10.2384   25.4359 C   0  0  0  0  0  0
   -0.4655   12.2125   23.5496 C   0  0  0  0  0  0
    5.1309   11.6716   23.5710 C   0  0  0  0  0  0
   -1.9404   11.1324   25.1018 C   0  0  0  0  0  0
   -1.7217   12.0886   24.1222 C   0  0  0  0  0  0
    3.0490    7.1297   28.1053 C   0  0  0  0  0  0
    0.7987    6.2413   28.2294 C   0  0  0  0  0  0
    2.0138    6.7428   30.2550 C   0  0  0  0  0  0
    3.1071    7.1708   29.4950 C   0  0  0  0  0  0
    0.8613    6.2865   29.6172 C   0  0  0  0  0  0
    4.7308   12.9512   23.9706 C   0  0  0  0  0  0
    6.4885   11.3576   23.5537 C   0  0  0  0  0  0
    7.0318   13.5606   24.4124 C   0  0  0  0  0  0
    5.6697   13.8913   24.3862 C   0  0  0  0  0  0
    7.4295   12.2957   23.9647 C   0  0  0  0  0  0
    8.0639   14.5298   24.9339 C   0  0  0  0  0  0
    2.0657    6.7646   31.7778 C   0  0  0  0  0  0
    1.0860    7.7733   32.3917 C   0  0  0  0  0  0
    6.6097   15.4808   25.7776 H   0  0  0  0  0  0
    4.7181    9.7821   23.0978 H   0  0  0  0  0  0
    3.4187    8.8300   24.7270 H   0  0  0  0  0  0
   -1.1389    9.4895   26.1831 H   0  0  0  0  0  0
   -0.3144   13.0054   22.8314 H   0  0  0  0  0  0
   -2.9076   11.0690   25.5792 H   0  0  0  0  0  0
   -2.5182   12.7665   23.8459 H   0  0  0  0  0  0
    3.8981    7.4606   27.5262 H   0  0  0  0  0  0
   -0.0980    5.8897   27.7395 H   0  0  0  0  0  0
    4.0073    7.5355   29.9669 H   0  0  0  0  0  0
    0.0153    5.9722   30.2029 H   0  0  0  0  0  0
    3.6981   13.2485   24.0070 H   0  0  0  0  0  0
    6.8248   10.3771   23.2480 H   0  0  0  0  0  0
    5.3037   14.8641   24.6809 H   0  0  0  0  0  0
    8.4681   12.0043   23.9672 H   0  0  0  0  0  0
    1.8523    5.7679   32.1609 H   0  0  0  0  0  0
    3.0778    6.9892   32.1138 H   0  0  0  0  0  0
    1.2099    7.8281   33.4727 H   0  0  0  0  0  0
    1.2602    8.7689   31.9895 H   0  0  0  0  0  0
    0.0497    7.5104   32.1846 H   0  0  0  0  0  0
  1  3  2  0  0  0
  1  4  2  0  0  0
  1  7  1  0  0  0
  1 15  1  0  0  0
  2 12  2  0  0  0
  5 31  2  0  0  0
  6 31  1  0  0  0
  6 34  1  0  0  0
  7 10  2  0  0  0
  8 13  1  0  0  0
  8 18  1  0  0  0
  8 35  1  0  0  0
  9 10  1  0  0  0
  9 11  1  0  0  0
  9 16  2  0  0  0
 10 14  1  0  0  0
 11 12  1  0  0  0
 11 17  2  0  0  0
 12 13  1  0  0  0
 13 14  2  0  0  0
 14 36  1  0  0  0
 15 21  2  0  0  0
 15 22  1  0  0  0
 16 19  1  0  0  0
 16 37  1  0  0  0
 17 20  1  0  0  0
 17 38  1  0  0  0
 18 26  2  0  0  0
 18 27  1  0  0  0
 19 20  2  0  0  0
 19 39  1  0  0  0
 20 40  1  0  0  0
 21 24  1  0  0  0
 21 41  1  0  0  0
 22 25  2  0  0  0
 22 42  1  0  0  0
 23 24  2  0  0  0
 23 25  1  0  0  0
 23 32  1  0  0  0
 24 43  1  0  0  0
 25 44  1  0  0  0
 26 29  1  0  0  0
 26 45  1  0  0  0
 27 30  2  0  0  0
 27 46  1  0  0  0
 28 29  2  0  0  0
 28 30  1  0  0  0
 28 31  1  0  0  0
 29 47  1  0  0  0
 30 48  1  0  0  0
 32 33  1  0  0  0
 32 49  1  0  0  0
 32 50  1  0  0  0
 33 51  1  0  0  0
 33 52  1  0  0  0
 33 53  1  0  0  0
M  END
> <s_m_entry_id>
5031

> <s_m_entry_name>
dock_pv.350

> <s_m_Source_Path>
/home/csk/Desktop/cluster/DUD-E-result/hs90a

> <s_m_Source_File>
dock_pv.maegz

> <i_m_Source_File_Index>
350

> <chembl_id>
CHEMBL3195410

> <chembl_pref_name>
None

> <i_lp_mmshare_version>
53161

> <r_lp_tautomer_probability>
1

> <s_lp_Force_Field>
OPLS_2005

> <r_lp_Energy>
28.936109

> <b_lp_Chiralities_Consistent>
1

> <s_lp_Variant>
CHEMBL3880_lig38-1

> <s_i_glide_gridfile>
glide-grid_1uyg

> <i_i_glide_lignum>
43

> <i_i_glide_rotatable_bonds>
7

> <r_i_docking_score>
-7.47821938634479

> <r_i_glide_ligand_efficiency>
-0.226612708677115

> <r_i_glide_ligand_efficiency_sa>
-0.726868041848023

> <r_i_glide_ligand_efficiency_ln>
-1.66311727137536

> <r_i_glide_gscore>
-7.47821938634479

> <r_i_glide_lipo>
-2.96742354753798

> <r_i_glide_hbond>
-0.239773226493949

> <r_i_glide_metal>
0

> <r_i_glide_rewards>
-1.56621834501988

> <r_i_glide_evdw>
-46.6071510314941

> <r_i_glide_ecoul>
-5.66030025482178

> <r_i_glide_erotb>
0.474598322504993

> <r_i_glide_esite>
0

> <r_i_glide_emodel>
-69.3390560332682

> <r_i_glide_energy>
-52.2674512863159

> <r_i_glide_einternal>
14.4031057357788

> <i_i_glide_confnum>
17

> <i_i_glide_posenum>
246

> <r_i_glide_eff_state_penalty>
0

> <s_user_duplicate_titles>
CHEMBL3880_lig38

> <i_f3d_flags>
0

> <s_m_subgroup_title>
dock_pv

> <s_m_subgroupid>
dock_pv

> <b_m_subgroup_collapsed>
1

$$$$
CHEMBL3880_lig12
                    3D
 Schrodinger Suite 2021-1.
 50 53  0  0  1  0            999 V2000
    3.9917   10.8298   23.5067 O   0  0  0  0  0  0
   -1.3943   10.7525   26.9512 O   0  0  0  0  0  0
    2.8173   12.7277   23.5553 N   0  0  0  0  0  0
   -0.3988   12.2682   23.8615 N   0  0  2  0  0  0
    3.9956   12.1726   23.6477 C   0  0  0  0  0  0
    2.0110   11.7496   23.1861 C   0  0  0  0  0  0
    5.2822   12.8165   23.9671 C   0  0  0  0  0  0
    2.7059   10.5295   23.2511 C   0  0  0  0  0  0
    0.5933   12.1220   22.7847 C   0  0  0  0  0  0
    7.7278   13.7957   24.9315 C   0  0  0  0  0  0
    6.4621   12.1443   23.6676 C   0  0  0  0  0  0
    5.3187   14.0175   24.6774 C   0  0  0  0  0  0
   -0.6813   11.0532   24.6652 C   0  0  2  0  0  0
    7.6612   12.6261   24.1608 C   0  0  0  0  0  0
    6.5325   14.5001   25.1548 C   0  0  0  0  0  0
    9.0268   14.2515   25.5322 C   0  0  0  0  0  0
    2.4313    9.0454   23.1268 C   0  0  0  0  0  0
   -1.8192   11.2579   25.6877 C   0  0  0  0  0  0
    0.4483   10.6306   25.5977 C   0  0  0  0  0  0
    9.1877   15.5689   25.9678 C   0  0  0  0  0  0
   10.1191   13.3853   25.6869 C   0  0  0  0  0  0
   -1.6292   12.6957   23.1682 C   0  0  0  0  0  0
   -0.2513    9.9487   26.7579 C   0  0  0  0  0  0
   10.3621   16.0022   26.5701 C   0  0  0  0  0  0
   11.3148   13.8315   26.2418 C   0  0  0  0  0  0
   11.4290   15.1312   26.7041 C   0  0  0  0  0  0
    0.2122   11.5581   21.9469 H   0  0  0  0  0  0
    0.6752   13.1154   22.3365 H   0  0  0  0  0  0
    6.4498   11.2118   23.1215 H   0  0  0  0  0  0
    4.4060   14.5441   24.9163 H   0  0  0  0  0  0
   -0.9325   10.2294   23.9928 H   0  0  0  0  0  0
    8.5357   12.0297   23.9660 H   0  0  0  0  0  0
    6.5062   15.3987   25.7514 H   0  0  0  0  0  0
    2.8611    8.6295   22.2177 H   0  0  0  0  0  0
    2.9015    8.5058   23.9493 H   0  0  0  0  0  0
    1.3800    8.7690   23.1673 H   0  0  0  0  0  0
   -2.7380   10.7651   25.3654 H   0  0  0  0  0  0
   -1.9389   12.3254   25.8257 H   0  0  0  0  0  0
    1.0101   11.4902   25.9645 H   0  0  0  0  0  0
    1.1223    9.9003   25.1718 H   0  0  0  0  0  0
    8.3973   16.2835   25.8332 H   0  0  0  0  0  0
   10.0644   12.3513   25.3835 H   0  0  0  0  0  0
   -2.4161   12.9954   23.8586 H   0  0  0  0  0  0
   -1.4561   13.5657   22.5345 H   0  0  0  0  0  0
   -2.0357   11.9034   22.5355 H   0  0  0  0  0  0
    0.3638    9.9087   27.6553 H   0  0  0  0  0  0
   -0.5517    8.9234   26.5343 H   0  0  0  0  0  0
   10.4610   17.0234   26.9071 H   0  0  0  0  0  0
   12.1559   13.1691   26.3280 H   0  0  0  0  0  0
   12.3505   15.4700   27.1543 H   0  0  0  0  0  0
  1  5  1  0  0  0
  1  8  1  0  0  0
  2 18  1  0  0  0
  2 23  1  0  0  0
  3  5  2  0  0  0
  3  6  1  0  0  0
  4  9  1  0  0  0
  4 13  1  0  0  0
  4 22  1  0  0  0
  5  7  1  0  0  0
  6  8  2  0  0  0
  6  9  1  0  0  0
  7 11  2  0  0  0
  7 12  1  0  0  0
  8 17  1  0  0  0
  9 27  1  0  0  0
  9 28  1  0  0  0
 10 14  2  0  0  0
 10 15  1  0  0  0
 10 16  1  0  0  0
 11 14  1  0  0  0
 11 29  1  0  0  0
 12 15  2  0  0  0
 12 30  1  0  0  0
 13 18  1  0  0  0
 13 19  1  0  0  0
 13 31  1  0  0  0
 14 32  1  0  0  0
 15 33  1  0  0  0
 16 20  2  0  0  0
 16 21  1  0  0  0
 17 34  1  0  0  0
 17 35  1  0  0  0
 17 36  1  0  0  0
 18 37  1  0  0  0
 18 38  1  0  0  0
 19 23  1  0  0  0
 19 39  1  0  0  0
 19 40  1  0  0  0
 20 24  1  0  0  0
 20 41  1  0  0  0
 21 25  2  0  0  0
 21 42  1  0  0  0
 22 43  1  0  0  0
 22 44  1  0  0  0
 22 45  1  0  0  0
 23 46  1  0  0  0
 23 47  1  0  0  0
 24 26  2  0  0  0
 24 48  1  0  0  0
 25 26  1  0  0  0
 25 49  1  0  0  0
 26 50  1  0  0  0
M  END
> <s_m_entry_id>
5032

> <s_m_entry_name>
dock_pv.351

> <s_m_Source_Path>
/home/csk/Desktop/cluster/DUD-E-result/hs90a

> <s_m_Source_File>
dock_pv.maegz

> <i_m_Source_File_Index>
351

> <chembl_id>
CHEMBL1535899

> <chembl_pref_name>
None

> <i_lp_mmshare_version>
53161

> <r_lp_tautomer_probability>
1

> <s_lp_Force_Field>
OPLS_2005

> <r_lp_Energy>
40.663051

> <b_lp_Chiralities_Consistent>
1

> <s_lp_Variant>
CHEMBL3880_lig12-1

> <s_i_glide_gridfile>
glide-grid_1uyg

> <i_i_glide_lignum>
14

> <i_i_glide_rotatable_bonds>
5

> <r_i_docking_score>
-7.47561328477779

> <r_i_glide_ligand_efficiency>
-0.287523587876069

> <r_i_glide_ligand_efficiency_sa>
-0.851787497732167

> <r_i_glide_ligand_efficiency_ln>
-1.75562325044216

> <r_i_glide_gscore>
-7.47561328477779

> <r_i_glide_lipo>
-4.33103578851711

> <r_i_glide_hbond>
-0.150600530240732

> <r_i_glide_metal>
0

> <r_i_glide_rewards>
-1.55837618181818

> <r_i_glide_evdw>
-34.9484710693359

> <r_i_glide_ecoul>
-3.14774894714355

> <r_i_glide_erotb>
0.783985111336564

> <r_i_glide_esite>
0

> <r_i_glide_emodel>
-47.2713592332342

> <r_i_glide_energy>
-38.0962200164795

> <r_i_glide_einternal>
3.96595859527588

> <i_i_glide_confnum>
44

> <i_i_glide_posenum>
66

> <r_i_glide_eff_state_penalty>
0

> <s_user_duplicate_titles>
CHEMBL3880_lig12

> <i_f3d_flags>
0

> <s_m_subgroup_title>
dock_pv

> <s_m_subgroupid>
dock_pv

> <b_m_subgroup_collapsed>
1

$$$$
CHEMBL3880_lig359
                    3D
 Schrodinger Suite 2021-1.
 67 70  0  0  1  0            999 V2000
    3.9694    6.8818   22.0864 C   0  0  0  0  0  0
    4.4610    7.7446   21.1144 C   0  0  0  0  0  0
    5.3367    8.7650   21.4549 C   0  0  0  0  0  0
    5.7468    8.9286   22.7819 C   0  0  0  0  0  0
    5.2843    8.0276   23.7469 C   0  0  0  0  0  0
    4.3870    7.0024   23.4210 C   0  0  0  0  0  0
    5.7898    9.5766   20.4583 O   0  0  0  0  0  0
    3.0491    5.9430   21.7058 O   0  0  0  0  0  0
    6.5830   10.0834   23.2097 C   0  0  0  0  0  0
    7.8890    9.9414   23.2409 N   0  0  0  0  0  0
    8.3975   11.1505   23.6984 O   0  0  0  0  0  0
    7.3616   11.9918   23.9327 C   0  0  0  0  0  0
    6.1548   11.3731   23.6099 C   0  0  0  0  0  0
    7.6485   13.2764   24.3680 N   0  0  0  0  0  0
    4.7585   11.9436   23.7213 C   0  0  0  0  0  0
    4.5200   13.1672   24.3667 C   0  0  0  0  0  0
    3.2463   13.7198   24.4111 C   0  0  0  0  0  0
    2.1698   13.0484   23.8387 C   0  0  0  0  0  0
    2.3920   11.8288   23.1986 C   0  0  0  0  0  0
    3.6596   11.2754   23.1671 C   0  0  0  0  0  0
    8.6617   13.6397   25.1807 C   0  0  0  0  0  0
    9.5682   12.8947   25.5670 O   0  0  0  0  0  0
    8.5980   15.0894   25.6919 C   0  0  0  0  0  0
    8.9078   15.2491   27.1669 C   0  0  0  0  0  0
    9.9064   15.7212   26.1306 C   0  0  0  0  0  0
    3.8275    6.0643   24.5054 C   0  0  0  0  0  0
    2.3960    6.4698   24.9042 C   0  0  0  0  0  0
    4.7212    5.9091   25.7552 C   0  0  0  0  0  0
    0.8184   13.7584   23.8244 C   0  0  0  0  0  0
   -0.3800   12.9463   23.5670 N   0  0  0  0  0  0
   -0.5948   12.6199   22.1554 C   0  0  0  0  0  0
   -2.0223   12.9664   21.7208 C   0  0  0  0  0  0
   -0.5659   11.8821   24.5674 C   0  0  0  0  0  0
   -1.9199   11.1637   24.5000 C   0  0  0  0  0  0
    4.1389    7.6366   20.0878 H   0  0  0  0  0  0
    5.5976    8.1496   24.7669 H   0  0  0  0  0  0
    6.4985   10.1356   20.7846 H   0  0  0  0  0  0
    2.6216    6.1754   20.8755 H   0  0  0  0  0  0
    6.9598   13.9741   24.1397 H   0  0  0  0  0  0
    5.3006   13.7250   24.8505 H   0  0  0  0  0  0
    3.1052   14.6759   24.8926 H   0  0  0  0  0  0
    1.5949   11.2820   22.7244 H   0  0  0  0  0  0
    3.7433   10.3388   22.6538 H   0  0  0  0  0  0
    7.8314   15.7236   25.2437 H   0  0  0  0  0  0
    9.1459   14.3689   27.7701 H   0  0  0  0  0  0
    8.3200   15.9683   27.7358 H   0  0  0  0  0  0
   10.0475   16.7915   25.9750 H   0  0  0  0  0  0
   10.8436   15.1734   26.0165 H   0  0  0  0  0  0
    3.7727    5.0716   24.0514 H   0  0  0  0  0  0
    1.7296    6.4987   24.0402 H   0  0  0  0  0  0
    1.9677    5.7621   25.6160 H   0  0  0  0  0  0
    2.3778    7.4579   25.3654 H   0  0  0  0  0  0
    5.7483    5.6628   25.4825 H   0  0  0  0  0  0
    4.7394    6.8162   26.3592 H   0  0  0  0  0  0
    4.3564    5.1053   26.3944 H   0  0  0  0  0  0
    0.6969   14.2909   24.7659 H   0  0  0  0  0  0
    0.8809   14.5407   23.0737 H   0  0  0  0  0  0
    0.1030   13.1685   21.5237 H   0  0  0  0  0  0
   -0.4003   11.5693   21.9682 H   0  0  0  0  0  0
   -2.1150   12.9175   20.6372 H   0  0  0  0  0  0
   -2.7394   12.2648   22.1409 H   0  0  0  0  0  0
   -2.3240   13.9685   22.0269 H   0  0  0  0  0  0
    0.2275   11.1364   24.5091 H   0  0  0  0  0  0
   -0.4718   12.3476   25.5511 H   0  0  0  0  0  0
   -2.0386   10.4827   25.3431 H   0  0  0  0  0  0
   -2.7389   11.8792   24.5403 H   0  0  0  0  0  0
   -2.0211   10.5704   23.5890 H   0  0  0  0  0  0
  1  2  2  0  0  0
  1  6  1  0  0  0
  1  8  1  0  0  0
  2  3  1  0  0  0
  2 35  1  0  0  0
  3  4  2  0  0  0
  3  7  1  0  0  0
  4  5  1  0  0  0
  4  9  1  0  0  0
  5  6  2  0  0  0
  5 36  1  0  0  0
  6 26  1  0  0  0
  7 37  1  0  0  0
  8 38  1  0  0  0
  9 10  2  0  0  0
  9 13  1  0  0  0
 10 11  1  0  0  0
 11 12  1  0  0  0
 12 13  2  0  0  0
 12 14  1  0  0  0
 13 15  1  0  0  0
 14 21  1  0  0  0
 14 39  1  0  0  0
 15 16  2  0  0  0
 15 20  1  0  0  0
 16 17  1  0  0  0
 16 40  1  0  0  0
 17 18  2  0  0  0
 17 41  1  0  0  0
 18 19  1  0  0  0
 18 29  1  0  0  0
 19 20  2  0  0  0
 19 42  1  0  0  0
 20 43  1  0  0  0
 21 22  2  0  0  0
 21 23  1  0  0  0
 23 24  1  0  0  0
 23 25  1  0  0  0
 23 44  1  0  0  0
 24 25  1  0  0  0
 24 45  1  0  0  0
 24 46  1  0  0  0
 25 47  1  0  0  0
 25 48  1  0  0  0
 26 27  1  0  0  0
 26 28  1  0  0  0
 26 49  1  0  0  0
 27 50  1  0  0  0
 27 51  1  0  0  0
 27 52  1  0  0  0
 28 53  1  0  0  0
 28 54  1  0  0  0
 28 55  1  0  0  0
 29 30  1  0  0  0
 29 56  1  0  0  0
 29 57  1  0  0  0
 30 31  1  0  0  0
 30 33  1  0  0  0
 31 32  1  0  0  0
 31 58  1  0  0  0
 31 59  1  0  0  0
 32 60  1  0  0  0
 32 61  1  0  0  0
 32 62  1  0  0  0
 33 34  1  0  0  0
 33 63  1  0  0  0
 33 64  1  0  0  0
 34 65  1  0  0  0
 34 66  1  0  0  0
 34 67  1  0  0  0
M  END
> <s_m_entry_id>
5034

> <s_m_entry_name>
dock_pv.353

> <s_m_Source_Path>
/home/csk/Desktop/cluster/DUD-E-result/hs90a

> <s_m_Source_File>
dock_pv.maegz

> <i_m_Source_File_Index>
353

> <chembl_id>
CHEMBL3342722

> <chembl_pref_name>
None

> <i_lp_mmshare_version>
53161

> <r_lp_tautomer_probability>
0.999999999898

> <s_lp_Force_Field>
OPLS_2005

> <r_lp_Energy>
33.098622

> <b_lp_Chiralities_Consistent>
1

> <s_lp_Variant>
CHEMBL3880_lig359-1

> <s_i_glide_gridfile>
glide-grid_1uyg

> <i_i_glide_lignum>
396

> <i_i_glide_rotatable_bonds>
12

> <r_i_docking_score>
-7.45226723974378

> <r_i_glide_ligand_efficiency>
-0.219184330580699

> <r_i_glide_ligand_efficiency_sa>
-0.710072143169682

> <r_i_glide_ligand_efficiency_ln>
-1.64641486227519

> <r_i_glide_gscore>
-7.45226723974378

> <r_i_glide_lipo>
-4.00697486380694

> <r_i_glide_hbond>
-0.480878326681242

> <r_i_glide_metal>
0

> <r_i_glide_rewards>
-0.946769194213797

> <r_i_glide_evdw>
-44.5816841125488

> <r_i_glide_ecoul>
-2.87424063682556

> <r_i_glide_erotb>
0.656452476782938

> <r_i_glide_esite>
-0.0138770306734609

> <r_i_glide_emodel>
-58.8515620621749

> <r_i_glide_energy>
-47.4559247493744

> <r_i_glide_einternal>
15.9635486602783

> <i_i_glide_confnum>
34

> <i_i_glide_posenum>
26

> <r_i_glide_eff_state_penalty>
0

> <s_user_duplicate_titles>
CHEMBL3880_lig359

> <i_f3d_flags>
0

> <s_m_subgroup_title>
dock_pv

> <s_m_subgroupid>
dock_pv

> <b_m_subgroup_collapsed>
1

$$$$
CHEMBL3880_lig344
                    3D
 Schrodinger Suite 2021-1.
 41 43  0  0  1  0            999 V2000
   -1.0471   10.8923   25.0575 C   0  0  0  0  0  0
   -0.3587    9.9261   25.7846 C   0  0  0  0  0  0
    0.9175    9.5274   25.4029 C   0  0  0  0  0  0
    1.5437   10.1221   24.2939 C   0  0  0  0  0  0
    0.8873   11.1692   23.6279 C   0  0  0  0  0  0
   -0.4128   11.5408   23.9901 C   0  0  0  0  0  0
   -1.2234   12.7720   23.0872 Cl  0  0  0  0  0  0
    1.5288    8.5421   26.1343 O   0  0  0  0  0  0
   -2.3389   11.1683   25.4236 O   0  0  0  0  0  0
    2.8732    9.6304   23.8012 C   0  0  0  0  0  0
    2.9663    8.3522   23.4926 N   0  0  0  0  0  0
    4.2974    8.1018   23.1915 O   0  0  0  0  0  0
    4.9548    9.2785   23.2499 C   0  0  0  0  0  0
    4.1090   10.3098   23.6543 C   0  0  0  0  0  0
    6.3151    9.1737   23.0931 N   0  0  0  0  0  0
    4.4729   11.7362   23.9672 C   0  0  0  0  0  0
    5.6899   12.3111   23.5727 C   0  0  0  0  0  0
    6.0658   13.5697   24.0315 C   0  0  0  0  0  0
    5.2017   14.3194   24.8252 C   0  0  0  0  0  0
    3.9626   13.7758   25.1673 C   0  0  0  0  0  0
    3.6209   12.4977   24.7670 C   0  0  0  0  0  0
    5.6254   15.5580   25.2572 O   0  0  0  0  0  0
    4.8055   16.2360   26.2040 C   0  0  0  0  0  0
    6.9377    9.5501   21.9672 C   0  0  0  0  0  0
    8.4537    9.4523   21.9890 C   0  0  0  0  0  0
    6.3692    9.9688   20.9588 O   0  0  0  0  0  0
   -0.8360    9.4488   26.6279 H   0  0  0  0  0  0
    1.3643   11.6520   22.7866 H   0  0  0  0  0  0
    2.3779    8.2831   25.7696 H   0  0  0  0  0  0
   -2.8833   11.6246   24.7685 H   0  0  0  0  0  0
    6.8124    8.5843   23.7423 H   0  0  0  0  0  0
    6.3920   11.8011   22.9464 H   0  0  0  0  0  0
    7.0238   13.9802   23.7507 H   0  0  0  0  0  0
    3.2692   14.3053   25.7972 H   0  0  0  0  0  0
    2.7027   12.1104   25.1665 H   0  0  0  0  0  0
    5.2612   17.1676   26.4909 H   0  0  0  0  0  0
    3.8260   16.4769   25.7937 H   0  0  0  0  0  0
    4.6767   15.6487   27.1146 H   0  0  0  0  0  0
    8.8597    9.9387   22.8768 H   0  0  0  0  0  0
    8.8608    9.9670   21.1241 H   0  0  0  0  0  0
    8.7727    8.4098   21.9688 H   0  0  0  0  0  0
  1  2  2  0  0  0
  1  6  1  0  0  0
  1  9  1  0  0  0
  2  3  1  0  0  0
  2 27  1  0  0  0
  3  4  2  0  0  0
  3  8  1  0  0  0
  4  5  1  0  0  0
  4 10  1  0  0  0
  5  6  2  0  0  0
  5 28  1  0  0  0
  6  7  1  0  0  0
  8 29  1  0  0  0
  9 30  1  0  0  0
 10 11  2  0  0  0
 10 14  1  0  0  0
 11 12  1  0  0  0
 12 13  1  0  0  0
 13 14  2  0  0  0
 13 15  1  0  0  0
 14 16  1  0  0  0
 15 24  1  0  0  0
 15 31  1  0  0  0
 16 17  2  0  0  0
 16 21  1  0  0  0
 17 18  1  0  0  0
 17 32  1  0  0  0
 18 19  2  0  0  0
 18 33  1  0  0  0
 19 20  1  0  0  0
 19 22  1  0  0  0
 20 21  2  0  0  0
 20 34  1  0  0  0
 21 35  1  0  0  0
 22 23  1  0  0  0
 23 36  1  0  0  0
 23 37  1  0  0  0
 23 38  1  0  0  0
 24 25  1  0  0  0
 24 26  2  0  0  0
 25 39  1  0  0  0
 25 40  1  0  0  0
 25 41  1  0  0  0
M  END
> <s_m_entry_id>
5035

> <s_m_entry_name>
dock_pv.354

> <s_m_Source_Path>
/home/csk/Desktop/cluster/DUD-E-result/hs90a

> <s_m_Source_File>
dock_pv.maegz

> <i_m_Source_File_Index>
354

> <chembl_id>
CHEMBL3342581

> <chembl_pref_name>
None

> <i_lp_mmshare_version>
53161

> <r_lp_tautomer_probability>
0.999999999898

> <s_lp_Force_Field>
OPLS_2005

> <r_lp_Energy>
23.624389

> <b_lp_Chiralities_Consistent>
1

> <s_lp_Variant>
CHEMBL3880_lig344-1

> <s_i_glide_gridfile>
glide-grid_1uyg

> <i_i_glide_lignum>
381

> <i_i_glide_rotatable_bonds>
7

> <r_i_docking_score>
-7.44878672716485

> <r_i_glide_ligand_efficiency>
-0.286491797198648

> <r_i_glide_ligand_efficiency_sa>
-0.848730821910208

> <r_i_glide_ligand_efficiency_ln>
-1.74932312141188

> <r_i_glide_gscore>
-7.44878672716485

> <r_i_glide_lipo>
-3.87335425228237

> <r_i_glide_hbond>
-0.150152191317432

> <r_i_glide_metal>
0

> <r_i_glide_rewards>
-1.44743360592933

> <r_i_glide_evdw>
-35.4106063842773

> <r_i_glide_ecoul>
-4.13594484329224

> <r_i_glide_erotb>
0.413075368071986

> <r_i_glide_esite>
0

> <r_i_glide_emodel>
-52.0589917431989

> <r_i_glide_energy>
-39.5465512275696

> <r_i_glide_einternal>
10.644814491272

> <i_i_glide_confnum>
29

> <i_i_glide_posenum>
258

> <r_i_glide_eff_state_penalty>
0

> <s_user_duplicate_titles>
CHEMBL3880_lig344

> <i_f3d_flags>
0

> <s_m_subgroup_title>
dock_pv

> <s_m_subgroupid>
dock_pv

> <b_m_subgroup_collapsed>
1

$$$$
CHEMBL3880_lig450
                    3D
 Schrodinger Suite 2021-1.
 68 72  0  0  1  0            999 V2000
    3.3607    5.5568   20.2803 C   0  0  0  0  0  0
    4.0615    6.7684   20.0125 O   0  0  0  0  0  0
    4.4613    7.5638   21.0704 C   0  0  0  0  0  0
    5.1028    8.7696   20.7758 C   0  0  0  0  0  0
    5.6698    9.5041   21.8166 C   0  0  0  0  0  0
    5.5571    9.0337   23.1226 C   0  0  0  0  0  0
    4.8427    7.8536   23.3558 C   0  0  0  0  0  0
    4.3065    7.1158   22.3499 N   0  0  0  0  0  0
    4.6677    7.3114   24.7243 C   0  0  0  0  0  0
    5.6081    6.3706   25.1619 C   0  0  0  0  0  0
    5.5468    5.8384   26.4444 C   0  0  0  0  0  0
    6.4759    4.9486   26.8546 F   0  0  0  0  0  0
    4.5323    6.2307   27.3070 C   0  0  0  0  0  0
    3.5906    7.1665   26.8911 C   0  0  0  0  0  0
    3.6363    7.7326   25.6037 C   0  0  0  0  0  0
    2.5395    8.7406   25.1737 C   0  0  1  0  0  0
    1.4856    9.0989   26.2767 C   0  0  0  0  0  0
    0.4840   10.0975   25.7166 C   0  0  0  0  0  0
   -0.8024   10.0139   26.1276 N   0  0  0  0  0  0
   -1.6898   10.8198   25.5124 C   0  0  0  0  0  0
   -2.9932   10.7690   25.9668 N   0  0  0  0  0  0
   -1.4201   11.6787   24.5070 N   0  0  0  0  0  0
   -0.1274   11.7594   24.1019 C   0  0  0  0  0  0
    0.0752   12.6914   22.9142 C   0  0  0  0  0  0
    0.8957   10.9924   24.7090 C   0  0  0  0  0  0
    2.3298   10.9573   24.3493 C   0  0  0  0  0  0
    3.1002    9.9532   24.5546 N   0  0  0  0  0  0
    2.8581   12.1693   23.8175 N   0  0  0  0  0  0
    4.1872   12.5144   24.2427 O   0  0  0  0  0  0
    4.1683   13.5749   25.2051 C   0  0  0  0  0  0
    5.0718   14.7464   24.7458 C   0  0  2  0  0  0
    6.4553   14.3363   24.1555 C   0  0  0  0  0  0
    7.5365   14.0015   25.1793 C   0  0  0  0  0  0
    7.6896   15.1044   26.2330 C   0  0  2  0  0  0
    8.6541   14.6809   27.1671 O   0  0  0  0  0  0
    6.3354   15.5109   26.8656 C   0  0  0  0  0  0
    5.2606   15.8422   25.8171 C   0  0  0  0  0  0
    3.0960    5.0770   19.3391 H   0  0  0  0  0  0
    3.9816    4.8658   20.8505 H   0  0  0  0  0  0
    2.4363    5.7362   20.8327 H   0  0  0  0  0  0
    5.2112    9.0816   19.7506 H   0  0  0  0  0  0
    6.2128   10.4135   21.6181 H   0  0  0  0  0  0
    5.9827    9.5902   23.9451 H   0  0  0  0  0  0
    6.4048    6.0554   24.5035 H   0  0  0  0  0  0
    4.4861    5.8182   28.3037 H   0  0  0  0  0  0
    2.8317    7.4386   27.6073 H   0  0  0  0  0  0
    2.0174    8.1889   24.3864 H   0  0  0  0  0  0
    0.9639    8.2096   26.6327 H   0  0  0  0  0  0
    1.9823    9.5521   27.1355 H   0  0  0  0  0  0
   -3.7128   11.2995   25.4669 H   0  0  0  0  0  0
   -3.2430   10.1274   26.6996 H   0  0  0  0  0  0
    0.7068   12.2236   22.1602 H   0  0  0  0  0  0
   -0.8682   12.9401   22.4251 H   0  0  0  0  0  0
    0.5355   13.6252   23.2342 H   0  0  0  0  0  0
    2.3078   12.9860   24.0243 H   0  0  0  0  0  0
    4.4610   13.1773   26.1704 H   0  0  0  0  0  0
    3.1706   13.9811   25.3726 H   0  0  0  0  0  0
    4.5203   15.2503   23.9636 H   0  0  0  0  0  0
    6.8623   15.1659   23.5831 H   0  0  0  0  0  0
    6.3572   13.5174   23.4453 H   0  0  0  0  0  0
    7.3117   13.0528   25.6477 H   0  0  0  0  0  0
    8.4850   13.8488   24.6634 H   0  0  0  0  0  0
    8.1322   15.9682   25.7399 H   0  0  0  0  0  0
    8.5621   15.1674   27.9969 H   0  0  0  0  0  0
    5.9545   14.7281   27.5067 H   0  0  0  0  0  0
    6.4557   16.3687   27.5200 H   0  0  0  0  0  0
    4.3109   16.0888   26.2945 H   0  0  0  0  0  0
    5.5639   16.7574   25.3075 H   0  0  0  0  0  0
  1  2  1  0  0  0
  1 38  1  0  0  0
  1 39  1  0  0  0
  1 40  1  0  0  0
  2  3  1  0  0  0
  3  4  2  0  0  0
  3  8  1  0  0  0
  4  5  1  0  0  0
  4 41  1  0  0  0
  5  6  2  0  0  0
  5 42  1  0  0  0
  6  7  1  0  0  0
  6 43  1  0  0  0
  7  8  2  0  0  0
  7  9  1  0  0  0
  9 10  2  0  0  0
  9 15  1  0  0  0
 10 11  1  0  0  0
 10 44  1  0  0  0
 11 12  1  0  0  0
 11 13  2  0  0  0
 13 14  1  0  0  0
 13 45  1  0  0  0
 14 15  2  0  0  0
 14 46  1  0  0  0
 15 16  1  0  0  0
 16 17  1  0  0  0
 16 27  1  0  0  0
 16 47  1  0  0  0
 17 18  1  0  0  0
 17 48  1  0  0  0
 17 49  1  0  0  0
 18 19  2  0  0  0
 18 25  1  0  0  0
 19 20  1  0  0  0
 20 21  1  0  0  0
 20 22  2  0  0  0
 21 50  1  0  0  0
 21 51  1  0  0  0
 22 23  1  0  0  0
 23 24  1  0  0  0
 23 25  2  0  0  0
 24 52  1  0  0  0
 24 53  1  0  0  0
 24 54  1  0  0  0
 25 26  1  0  0  0
 26 27  2  0  0  0
 26 28  1  0  0  0
 28 29  1  0  0  0
 28 55  1  0  0  0
 29 30  1  0  0  0
 30 31  1  0  0  0
 30 56  1  0  0  0
 30 57  1  0  0  0
 31 32  1  0  0  0
 31 37  1  0  0  0
 31 58  1  0  0  0
 32 33  1  0  0  0
 32 59  1  0  0  0
 32 60  1  0  0  0
 33 34  1  0  0  0
 33 61  1  0  0  0
 33 62  1  0  0  0
 34 35  1  0  0  0
 34 36  1  0  0  0
 34 63  1  0  0  0
 35 64  1  0  0  0
 36 37  1  0  0  0
 36 65  1  0  0  0
 36 66  1  0  0  0
 37 67  1  0  0  0
 37 68  1  0  0  0
M  END
> <s_m_entry_id>
5036

> <s_m_entry_name>
dock_pv.355

> <s_m_Source_Path>
/home/csk/Desktop/cluster/DUD-E-result/hs90a

> <s_m_Source_File>
dock_pv.maegz

> <i_m_Source_File_Index>
355

> <chembl_id>
CHEMBL3962788

> <chembl_pref_name>
None

> <i_lp_mmshare_version>
53161

> <r_lp_tautomer_probability>
1

> <s_lp_Force_Field>
OPLS_2005

> <r_lp_Energy>
26.76703

> <b_lp_Chiralities_Consistent>
1

> <s_lp_Variant>
CHEMBL3880_lig450-1

> <s_i_glide_gridfile>
glide-grid_1uyg

> <i_i_glide_lignum>
495

> <i_i_glide_rotatable_bonds>
8

> <r_i_docking_score>
-7.43876433294179

> <r_i_glide_ligand_efficiency>
-0.201047684674102

> <r_i_glide_ligand_efficiency_sa>
-0.669935487287508

> <r_i_glide_ligand_efficiency_ln>
-1.61329359443657

> <r_i_glide_gscore>
-7.43876433294179

> <r_i_glide_lipo>
-3.95229000170177

> <r_i_glide_hbond>
-0.472438004858617

> <r_i_glide_metal>
0

> <r_i_glide_rewards>
-0.915416162746958

> <r_i_glide_evdw>
-42.623462677002

> <r_i_glide_ecoul>
-2.50056838989258

> <r_i_glide_erotb>
0.478403162226914

> <r_i_glide_esite>
-0.0707649335273759

> <r_i_glide_emodel>
-50.9635748935886

> <r_i_glide_energy>
-45.1240310668945

> <r_i_glide_einternal>
11.6911735534668

> <i_i_glide_confnum>
34

> <i_i_glide_posenum>
39

> <r_i_glide_eff_state_penalty>
0

> <s_user_duplicate_titles>
CHEMBL3880_lig450

> <i_f3d_flags>
0

> <s_m_subgroup_title>
dock_pv

> <s_m_subgroupid>
dock_pv

> <b_m_subgroup_collapsed>
1

$$$$
CHEMBL3880_lig66
                    3D
 Schrodinger Suite 2021-1.
 35 38  0  0  1  0            999 V2000
    6.8610   11.2404   23.2785 S   0  0  0  0  0  0
    7.9110    7.1690   24.4752 S   0  0  0  0  0  0
    4.6954    9.1678   22.3922 P   0  0  1  0  0  0
    4.5343    9.3855   20.9281 O   0  0  0  0  0  0
    4.3058   11.6499   23.5671 N   0  0  0  0  0  0
    6.0227    8.1765   22.7944 N   0  0  0  0  0  0
    5.3605    6.9841   24.7605 N   0  0  0  0  0  0
    5.1742   10.7606   23.1667 C   0  0  0  0  0  0
    3.2447    8.4369   23.2445 C   0  0  0  0  0  0
    6.3291   12.7684   23.9670 C   0  0  0  0  0  0
    4.9087   12.7744   24.0314 C   0  0  0  0  0  0
    6.2841    7.4696   23.9670 C   0  0  0  0  0  0
    2.7729    7.2112   22.7670 C   0  0  0  0  0  0
    2.6138    9.0374   24.3408 C   0  0  0  0  0  0
    7.0813   13.8502   24.4467 C   0  0  0  0  0  0
    4.2368   13.8720   24.5934 C   0  0  0  0  0  0
    6.3896   14.9217   25.0158 C   0  0  0  0  0  0
    4.9966   14.9337   25.0888 C   0  0  0  0  0  0
    1.6556    6.6116   23.3411 C   0  0  0  0  0  0
    1.4979    8.4365   24.9196 C   0  0  0  0  0  0
    1.0174    7.2314   24.4119 C   0  0  0  0  0  0
    7.2612    6.3690   25.8781 C   0  0  0  0  0  0
    5.8757    6.3690   25.8032 C   0  0  0  0  0  0
    6.6024    7.8768   22.0059 H   0  0  0  0  0  0
    3.2524    6.7369   21.9221 H   0  0  0  0  0  0
    2.9697    9.9606   24.7653 H   0  0  0  0  0  0
    8.1601   13.8421   24.4053 H   0  0  0  0  0  0
    3.1596   13.8883   24.6578 H   0  0  0  0  0  0
    6.9395   15.7656   25.4084 H   0  0  0  0  0  0
    4.4993   15.7848   25.5327 H   0  0  0  0  0  0
    1.2779    5.6781   22.9463 H   0  0  0  0  0  0
    1.0050    8.9054   25.7587 H   0  0  0  0  0  0
    0.1433    6.7725   24.8510 H   0  0  0  0  0  0
    7.9006    5.9574   26.6443 H   0  0  0  0  0  0
    5.2105    5.9325   26.5343 H   0  0  0  0  0  0
  1  8  1  0  0  0
  1 10  1  0  0  0
  2 12  1  0  0  0
  2 22  1  0  0  0
  3  4  2  0  0  0
  3  6  1  0  0  0
  3  8  1  0  0  0
  3  9  1  0  0  0
  5  8  2  0  0  0
  5 11  1  0  0  0
  6 12  1  0  0  0
  6 24  1  0  0  0
  7 12  2  0  0  0
  7 23  1  0  0  0
  9 13  2  0  0  0
  9 14  1  0  0  0
 10 11  2  0  0  0
 10 15  1  0  0  0
 11 16  1  0  0  0
 13 19  1  0  0  0
 13 25  1  0  0  0
 14 20  2  0  0  0
 14 26  1  0  0  0
 15 17  2  0  0  0
 15 27  1  0  0  0
 16 18  2  0  0  0
 16 28  1  0  0  0
 17 18  1  0  0  0
 17 29  1  0  0  0
 18 30  1  0  0  0
 19 21  2  0  0  0
 19 31  1  0  0  0
 20 21  1  0  0  0
 20 32  1  0  0  0
 21 33  1  0  0  0
 22 23  2  0  0  0
 22 34  1  0  0  0
 23 35  1  0  0  0
M  END
> <s_m_entry_id>
5037

> <s_m_entry_name>
dock_pv.356

> <s_m_Source_Path>
/home/csk/Desktop/cluster/DUD-E-result/hs90a

> <s_m_Source_File>
dock_pv.maegz

> <i_m_Source_File_Index>
356

> <chembl_id>
CHEMBL1410147

> <chembl_pref_name>
None

> <i_lp_mmshare_version>
53161

> <r_lp_tautomer_probability>
1

> <s_lp_Force_Field>
OPLS_2005

> <r_lp_Energy>
4.225902

> <b_lp_Chiralities_Consistent>
1

> <s_lp_Variant>
CHEMBL3880_lig66-1

> <s_i_glide_gridfile>
glide-grid_1uyg

> <i_i_glide_lignum>
72

> <i_i_glide_rotatable_bonds>
4

> <r_i_docking_score>
-7.43367273033342

> <r_i_glide_ligand_efficiency>
-0.32320316218841

> <r_i_glide_ligand_efficiency_sa>
-0.919146799770569

> <r_i_glide_ligand_efficiency_ln>
-1.79752947101227

> <r_i_glide_gscore>
-7.43367273033342

> <r_i_glide_lipo>
-3.46040507355676

> <r_i_glide_hbond>
-0.32

> <r_i_glide_metal>
0

> <r_i_glide_rewards>
-1.61399571212121

> <r_i_glide_evdw>
-37.1062545776367

> <r_i_glide_ecoul>
-5.0608377456665

> <r_i_glide_erotb>
0.599505604293234

> <r_i_glide_esite>
-0.0243391582168768

> <r_i_glide_emodel>
-57.819625350242

> <r_i_glide_energy>
-42.1670923233032

> <r_i_glide_einternal>
4.58948373794556

> <i_i_glide_confnum>
24

> <i_i_glide_posenum>
178

> <r_i_glide_eff_state_penalty>
0

> <s_user_duplicate_titles>
CHEMBL3880_lig66

> <i_f3d_flags>
0

> <s_m_subgroup_title>
dock_pv

> <s_m_subgroupid>
dock_pv

> <b_m_subgroup_collapsed>
1

$$$$
CHEMBL3880_lig834
                    3D
 Schrodinger Suite 2021-1.
 31 32  0  0  1  0            999 V2000
   -0.6871   10.5993   26.0140 C   0  0  0  0  0  0
   -1.8719   10.9788   25.3818 C   0  0  0  0  0  0
   -1.8244   11.6148   24.1471 C   0  0  0  0  0  0
   -0.6091   11.9154   23.5458 C   0  0  0  0  0  0
    0.6017   11.5613   24.1771 C   0  0  0  0  0  0
    0.5370   10.8799   25.4067 C   0  0  0  0  0  0
   -0.6722   12.5668   22.3402 O   0  0  0  0  0  0
   -3.0875   10.7690   25.9722 O   0  0  0  0  0  0
   -0.7115    9.8029   27.5507 Cl  0  0  0  0  0  0
    1.9397   11.8823   23.5489 C   0  0  0  0  0  0
    2.9685   12.0950   24.3900 N   0  0  0  0  0  0
    2.0610   11.9690   22.3294 O   0  0  0  0  0  0
    4.3161   12.5092   23.9831 C   0  0  0  0  0  0
    5.3030   11.4130   23.5670 C   0  0  0  0  0  0
    6.6680   11.7224   23.5534 C   0  0  0  0  0  0
    7.6039   10.7664   23.1670 C   0  0  0  0  0  0
    7.1764    9.4943   22.7963 C   0  0  0  0  0  0
    5.8226    9.1689   22.8174 C   0  0  0  0  0  0
    4.8868   10.1234   23.2091 C   0  0  0  0  0  0
   -2.7390   11.9004   23.6543 H   0  0  0  0  0  0
    1.4377   10.5677   25.9169 H   0  0  0  0  0  0
   -1.5778   12.6837   22.0424 H   0  0  0  0  0  0
   -3.8214   11.1709   25.4803 H   0  0  0  0  0  0
    2.8238   11.9494   25.3776 H   0  0  0  0  0  0
    4.2580   13.2293   23.1670 H   0  0  0  0  0  0
    4.7458   13.0628   24.8180 H   0  0  0  0  0  0
    7.0075   12.7098   23.8315 H   0  0  0  0  0  0
    8.6562   11.0115   23.1526 H   0  0  0  0  0  0
    7.8983    8.7503   22.4906 H   0  0  0  0  0  0
    5.5009    8.1784   22.5283 H   0  0  0  0  0  0
    3.8418    9.8526   23.2135 H   0  0  0  0  0  0
  1  2  2  0  0  0
  1  6  1  0  0  0
  1  9  1  0  0  0
  2  3  1  0  0  0
  2  8  1  0  0  0
  3  4  2  0  0  0
  3 20  1  0  0  0
  4  5  1  0  0  0
  4  7  1  0  0  0
  5  6  2  0  0  0
  5 10  1  0  0  0
  6 21  1  0  0  0
  7 22  1  0  0  0
  8 23  1  0  0  0
 10 11  1  0  0  0
 10 12  2  0  0  0
 11 13  1  0  0  0
 11 24  1  0  0  0
 13 14  1  0  0  0
 13 25  1  0  0  0
 13 26  1  0  0  0
 14 15  2  0  0  0
 14 19  1  0  0  0
 15 16  1  0  0  0
 15 27  1  0  0  0
 16 17  2  0  0  0
 16 28  1  0  0  0
 17 18  1  0  0  0
 17 29  1  0  0  0
 18 19  2  0  0  0
 18 30  1  0  0  0
 19 31  1  0  0  0
M  END
> <s_m_entry_id>
5038

> <s_m_entry_name>
dock_pv.357

> <s_m_Source_Path>
/home/csk/Desktop/cluster/DUD-E-result/hs90a

> <s_m_Source_File>
dock_pv.maegz

> <i_m_Source_File_Index>
357

> <chembl_id>
CHEMBL4278768

> <chembl_pref_name>
None

> <i_lp_mmshare_version>
53161

> <r_lp_tautomer_probability>
0.999999999898

> <s_lp_Force_Field>
OPLS_2005

> <r_lp_Energy>
15.026621

> <b_lp_Chiralities_Consistent>
1

> <s_lp_Variant>
CHEMBL3880_lig834-1

> <s_i_glide_gridfile>
glide-grid_1uyg

> <i_i_glide_lignum>
935

> <i_i_glide_rotatable_bonds>
6

> <r_i_docking_score>
-7.43359186782832

> <r_i_glide_ligand_efficiency>
-0.391241677254122

> <r_i_glide_ligand_efficiency_sa>
-1.04398993560898

> <r_i_glide_ligand_efficiency_ln>
-1.88457519740849

> <r_i_glide_gscore>
-7.43359186782832

> <r_i_glide_lipo>
-2.8476832406645

> <r_i_glide_hbond>
-0.211489030208539

> <r_i_glide_metal>
0

> <r_i_glide_rewards>
-2.01040620335593

> <r_i_glide_evdw>
-34.1915740966797

> <r_i_glide_ecoul>
-9.03450107574463

> <r_i_glide_erotb>
0.700740472596323

> <r_i_glide_esite>
0

> <r_i_glide_emodel>
-61.4997292768633

> <r_i_glide_energy>
-43.2260751724243

> <r_i_glide_einternal>
4.39914226531982

> <i_i_glide_confnum>
13

> <i_i_glide_posenum>
190

> <r_i_glide_eff_state_penalty>
0

> <s_user_duplicate_titles>
CHEMBL3880_lig834

> <i_f3d_flags>
0

> <s_m_subgroup_title>
dock_pv

> <s_m_subgroupid>
dock_pv

> <b_m_subgroup_collapsed>
1

$$$$
CHEMBL3880_lig448
                    3D
 Schrodinger Suite 2021-1.
 66 70  0  0  1  0            999 V2000
    4.7036    5.7103   27.1323 C   0  0  0  0  0  0
    3.5784    6.5154   27.4770 O   0  0  0  0  0  0
    3.2275    7.5689   26.6543 C   0  0  0  0  0  0
    2.2247    8.4388   27.0807 C   0  0  0  0  0  0
    1.8993    9.5332   26.2800 C   0  0  0  0  0  0
    2.5822    9.7353   25.0802 C   0  0  0  0  0  0
    3.5730    8.8260   24.7008 C   0  0  0  0  0  0
    3.8850    7.7476   25.4719 N   0  0  0  0  0  0
    4.2373    8.8721   23.3689 C   0  0  0  0  0  0
    3.9500    7.7992   22.5112 C   0  0  0  0  0  0
    4.4611    7.7431   21.2243 C   0  0  0  0  0  0
    4.1726    6.6966   20.4183 F   0  0  0  0  0  0
    5.2662    8.7689   20.7689 C   0  0  0  0  0  0
    5.6533    9.7857   21.6316 C   0  0  0  0  0  0
    5.1122    9.9038   22.9212 C   0  0  0  0  0  0
    5.5119   11.1140   23.8053 C   0  0  1  0  0  0
    6.8415   11.8684   23.4371 C   0  0  0  0  0  0
    7.0167   13.0991   24.3310 C   0  0  0  0  0  0
    8.2605   13.3924   24.7874 N   0  0  0  0  0  0
    8.3701   14.4069   25.6677 C   0  0  0  0  0  0
    9.6309   14.6559   26.1901 N   0  0  0  0  0  0
    7.3536   15.1690   26.1179 N   0  0  0  0  0  0
    6.1065   14.8724   25.6662 C   0  0  0  0  0  0
    5.0199   15.7303   26.3033 C   0  0  0  0  0  0
    5.8721   13.8079   24.7619 C   0  0  0  0  0  0
    4.5611   13.2374   24.3529 C   0  0  0  0  0  0
    4.3791   12.0302   23.9464 N   0  0  0  0  0  0
    3.4425   14.1201   24.3670 N   0  0  0  0  0  0
    2.1226   13.5495   24.3514 O   0  0  0  0  0  0
    1.6435   13.4599   23.0071 C   0  0  0  0  0  0
    0.6212   12.3280   22.7955 C   0  0  1  0  0  0
   -0.2195   12.0840   24.0236 C   0  0  0  0  0  0
   -1.4356   11.3532   23.5358 C   0  0  1  0  0  0
   -2.3390   11.1686   24.5918 O   0  0  0  0  0  0
   -1.8078   12.1082   22.2420 C   0  0  1  0  0  0
   -2.6052   13.2436   22.5327 O   0  0  0  0  0  0
   -0.4278   12.5486   21.6746 C   0  0  0  0  0  0
    4.8864    4.9905   27.9286 H   0  0  0  0  0  0
    4.5298    5.1560   26.2085 H   0  0  0  0  0  0
    5.6072    6.3116   27.0208 H   0  0  0  0  0  0
    1.7207    8.2762   28.0215 H   0  0  0  0  0  0
    1.1279   10.2220   26.5912 H   0  0  0  0  0  0
    2.3230   10.5633   24.4413 H   0  0  0  0  0  0
    3.3009    6.9987   22.8374 H   0  0  0  0  0  0
    5.6758    8.7111   19.7740 H   0  0  0  0  0  0
    6.3902   10.4739   21.2630 H   0  0  0  0  0  0
    5.6778   10.6459   24.7670 H   0  0  0  0  0  0
    7.7034   11.2020   23.5028 H   0  0  0  0  0  0
    6.8074   12.2418   22.4151 H   0  0  0  0  0  0
    9.7029   15.2940   26.9681 H   0  0  0  0  0  0
   10.3786   14.0192   25.9667 H   0  0  0  0  0  0
    4.2492   15.1080   26.7591 H   0  0  0  0  0  0
    5.4190   16.3689   27.0935 H   0  0  0  0  0  0
    4.5657   16.3845   25.5595 H   0  0  0  0  0  0
    3.4265   15.0321   24.7960 H   0  0  0  0  0  0
    2.4631   13.1690   22.3670 H   0  0  0  0  0  0
    1.2611   14.4308   22.6937 H   0  0  0  0  0  0
    1.1809   11.4129   22.5891 H   0  0  0  0  0  0
   -0.5304   13.0611   24.3671 H   0  0  0  0  0  0
    0.3008   11.5615   24.8244 H   0  0  0  0  0  0
   -1.1389   10.3429   23.2782 H   0  0  0  0  0  0
   -3.1925   11.5955   24.3940 H   0  0  0  0  0  0
   -2.3381   11.4412   21.5665 H   0  0  0  0  0  0
   -3.5079   12.9602   22.7091 H   0  0  0  0  0  0
   -0.1433   11.9690   20.8046 H   0  0  0  0  0  0
   -0.4571   13.5677   21.3001 H   0  0  0  0  0  0
  1  2  1  0  0  0
  1 38  1  0  0  0
  1 39  1  0  0  0
  1 40  1  0  0  0
  2  3  1  0  0  0
  3  4  2  0  0  0
  3  8  1  0  0  0
  4  5  1  0  0  0
  4 41  1  0  0  0
  5  6  2  0  0  0
  5 42  1  0  0  0
  6  7  1  0  0  0
  6 43  1  0  0  0
  7  8  2  0  0  0
  7  9  1  0  0  0
  9 10  2  0  0  0
  9 15  1  0  0  0
 10 11  1  0  0  0
 10 44  1  0  0  0
 11 12  1  0  0  0
 11 13  2  0  0  0
 13 14  1  0  0  0
 13 45  1  0  0  0
 14 15  2  0  0  0
 14 46  1  0  0  0
 15 16  1  0  0  0
 16 17  1  0  0  0
 16 27  1  0  0  0
 16 47  1  0  0  0
 17 18  1  0  0  0
 17 48  1  0  0  0
 17 49  1  0  0  0
 18 19  2  0  0  0
 18 25  1  0  0  0
 19 20  1  0  0  0
 20 21  1  0  0  0
 20 22  2  0  0  0
 21 50  1  0  0  0
 21 51  1  0  0  0
 22 23  1  0  0  0
 23 24  1  0  0  0
 23 25  2  0  0  0
 24 52  1  0  0  0
 24 53  1  0  0  0
 24 54  1  0  0  0
 25 26  1  0  0  0
 26 27  2  0  0  0
 26 28  1  0  0  0
 28 29  1  0  0  0
 28 55  1  0  0  0
 29 30  1  0  0  0
 30 31  1  0  0  0
 30 56  1  0  0  0
 30 57  1  0  0  0
 31 32  1  0  0  0
 31 37  1  0  0  0
 31 58  1  0  0  0
 32 33  1  0  0  0
 32 59  1  0  0  0
 32 60  1  0  0  0
 33 34  1  0  0  0
 33 35  1  0  0  0
 33 61  1  0  0  0
 34 62  1  0  0  0
 35 36  1  0  0  0
 35 37  1  0  0  0
 35 63  1  0  0  0
 36 64  1  0  0  0
 37 65  1  0  0  0
 37 66  1  0  0  0
M  END
> <s_m_entry_id>
5039

> <s_m_entry_name>
dock_pv.358

> <s_m_Source_Path>
/home/csk/Desktop/cluster/DUD-E-result/hs90a

> <s_m_Source_File>
dock_pv.maegz

> <i_m_Source_File_Index>
358

> <chembl_id>
CHEMBL3675263

> <chembl_pref_name>
None

> <i_lp_mmshare_version>
53161

> <r_lp_tautomer_probability>
1

> <s_lp_Force_Field>
OPLS_2005

> <r_lp_Energy>
43.639993

> <b_lp_Chiralities_Consistent>
1

> <s_lp_Variant>
CHEMBL3880_lig448-2

> <s_i_glide_gridfile>
glide-grid_1uyg

> <i_i_glide_lignum>
493

> <i_i_glide_rotatable_bonds>
9

> <r_i_docking_score>
-7.42934042123287

> <r_i_glide_ligand_efficiency>
-0.200792984357645

> <r_i_glide_ligand_efficiency_sa>
-0.66908676932841

> <r_i_glide_ligand_efficiency_ln>
-1.61124976891475

> <r_i_glide_gscore>
-7.42934042123287

> <r_i_glide_lipo>
-4.08894457972054

> <r_i_glide_hbond>
0

> <r_i_glide_metal>
0

> <r_i_glide_rewards>
-1.31164077227492

> <r_i_glide_evdw>
-45.3930435180664

> <r_i_glide_ecoul>
-1.31356751918793

> <r_i_glide_erotb>
0.475002369296478

> <r_i_glide_esite>
-0.0370701347523858

> <r_i_glide_emodel>
-37.4870701809154

> <r_i_glide_energy>
-46.7066110372543

> <r_i_glide_einternal>
23.8323307037354

> <i_i_glide_confnum>
79

> <i_i_glide_posenum>
90

> <r_i_glide_eff_state_penalty>
0

> <s_user_duplicate_titles>
CHEMBL3880_lig448

> <i_f3d_flags>
0

> <s_m_subgroup_title>
dock_pv

> <s_m_subgroupid>
dock_pv

> <b_m_subgroup_collapsed>
1

$$$$
CHEMBL3880_lig215
                    3D
 Schrodinger Suite 2021-1.
 30 32  0  0  1  0            999 V2000
   -0.2040   10.0000   26.7542 C   0  0  0  0  0  0
   -1.5388   10.3692   26.5505 C   0  0  0  0  0  0
   -1.9090   11.0843   25.4062 C   0  0  0  0  0  0
    0.7765   10.3696   25.8274 C   0  0  0  0  0  0
    0.3943   11.1258   24.7150 C   0  0  0  0  0  0
   -0.9145   11.4595   24.5060 C   0  0  0  0  0  0
   -0.9545   12.1525   23.3205 N   0  0  0  0  0  0
    0.2740   12.2656   22.7684 C   0  0  0  0  0  0
    1.1124   11.6743   23.6656 N   0  0  0  0  0  0
    0.5492   12.7688   21.6789 O   0  0  0  0  0  0
    2.5147   11.6563   23.5947 C   0  0  0  0  0  0
    3.1594   10.4810   23.1906 C   0  0  0  0  0  0
    4.5581   10.4074   23.1656 C   0  0  0  0  0  0
    5.3074   11.5200   23.5671 C   0  0  0  0  0  0
    4.6678   12.6940   23.9668 C   0  0  0  0  0  0
    3.2761   12.7717   23.9762 C   0  0  0  0  0  0
    2.6873   13.9470   24.3670 O   0  0  0  0  0  0
    5.2530    9.1331   22.6881 C   0  0  0  0  0  0
    4.5621    8.0478   23.0477 F   0  0  0  0  0  0
    6.4858    9.0261   23.1895 F   0  0  0  0  0  0
    5.3374    9.1672   21.3560 F   0  0  0  0  0  0
    0.0700    9.4370   27.6348 H   0  0  0  0  0  0
   -2.2932   10.0839   27.2678 H   0  0  0  0  0  0
   -2.9448   11.3343   25.2415 H   0  0  0  0  0  0
    1.8081   10.0992   25.9987 H   0  0  0  0  0  0
   -1.8003   12.4763   22.8725 H   0  0  0  0  0  0
    2.5726    9.6239   22.8921 H   0  0  0  0  0  0
    6.3873   11.4885   23.5542 H   0  0  0  0  0  0
    5.2641   13.5447   24.2607 H   0  0  0  0  0  0
    3.3289   14.6395   24.5365 H   0  0  0  0  0  0
  1  2  2  0  0  0
  1  4  1  0  0  0
  1 22  1  0  0  0
  2  3  1  0  0  0
  2 23  1  0  0  0
  3  6  2  0  0  0
  3 24  1  0  0  0
  4  5  2  0  0  0
  4 25  1  0  0  0
  5  6  1  0  0  0
  5  9  1  0  0  0
  6  7  1  0  0  0
  7  8  1  0  0  0
  7 26  1  0  0  0
  8 10  2  0  0  0
  8  9  1  0  0  0
  9 11  1  0  0  0
 11 12  2  0  0  0
 11 16  1  0  0  0
 12 13  1  0  0  0
 12 27  1  0  0  0
 13 14  2  0  0  0
 13 18  1  0  0  0
 14 15  1  0  0  0
 14 28  1  0  0  0
 15 16  2  0  0  0
 15 29  1  0  0  0
 16 17  1  0  0  0
 17 30  1  0  0  0
 18 19  1  0  0  0
 18 20  1  0  0  0
 18 21  1  0  0  0
M  END
> <s_m_entry_id>
5040

> <s_m_entry_name>
dock_pv.359

> <s_m_Source_Path>
/home/csk/Desktop/cluster/DUD-E-result/hs90a

> <s_m_Source_File>
dock_pv.maegz

> <i_m_Source_File_Index>
359

> <chembl_id>
CHEMBL1802334

> <chembl_pref_name>
None

> <i_lp_mmshare_version>
53161

> <r_lp_tautomer_probability>
1

> <s_lp_Force_Field>
OPLS_2005

> <r_lp_Energy>
49.904953

> <b_lp_Chiralities_Consistent>
1

> <s_lp_Variant>
CHEMBL3880_lig215-1

> <s_i_glide_gridfile>
glide-grid_1uyg

> <i_i_glide_lignum>
249

> <i_i_glide_rotatable_bonds>
3

> <r_i_docking_score>
-7.42829059728178

> <r_i_glide_ligand_efficiency>
-0.353728123680085

> <r_i_glide_ligand_efficiency_sa>
-0.975909071296524

> <r_i_glide_ligand_efficiency_ln>
-1.83662983990342

> <r_i_glide_gscore>
-7.42829059728178

> <r_i_glide_lipo>
-2.57131860279895

> <r_i_glide_hbond>
-0.014838715058724

> <r_i_glide_metal>
0

> <r_i_glide_rewards>
-2.65487129641906

> <r_i_glide_evdw>
-34.8743133544922

> <r_i_glide_ecoul>
-4.36510181427002

> <r_i_glide_erotb>
0.211218956860072

> <r_i_glide_esite>
0

> <r_i_glide_emodel>
-56.661231499737

> <r_i_glide_energy>
-39.2394151687622

> <r_i_glide_einternal>
0.44392591714859

> <i_i_glide_confnum>
4

> <i_i_glide_posenum>
59

> <r_i_glide_eff_state_penalty>
0

> <s_user_duplicate_titles>
CHEMBL3880_lig215

> <i_f3d_flags>
0

> <s_m_subgroup_title>
dock_pv

> <s_m_subgroupid>
dock_pv

> <b_m_subgroup_collapsed>
1

$$$$
CHEMBL3880_lig74
                    3D
 Schrodinger Suite 2021-1.
 42 43  0  0  1  0            999 V2000
    6.8264   12.7128   23.4033 O   0  0  0  0  0  0
    8.6329   14.1514   24.9257 O   0  0  0  0  0  0
   -1.2900   12.6109   23.2137 O   0  0  0  0  0  0
   -2.3390   11.1391   24.6030 O   0  0  0  0  0  0
    3.7565   11.6421   24.3671 N   0  0  0  0  0  0
    6.3715   13.5849   24.3670 C   0  0  0  0  0  0
    4.9849   13.7442   24.5569 C   0  0  0  0  0  0
    7.2775   14.3162   25.1593 C   0  0  0  0  0  0
    3.9774   12.9441   23.7521 C   0  0  0  0  0  0
    2.4967   11.0497   24.5475 C   0  0  0  0  0  0
    4.5085   14.6409   25.5152 C   0  0  0  0  0  0
    6.7682   15.1690   26.1508 C   0  0  0  0  0  0
    0.0575   11.0075   24.4036 C   0  0  0  0  0  0
    1.2850   11.6414   24.1550 C   0  0  0  0  0  0
    5.3984   15.3451   26.3151 C   0  0  0  0  0  0
    2.4715    9.7995   25.1670 C   0  0  0  0  0  0
    0.0649    9.7485   25.0237 C   0  0  0  0  0  0
   -1.2404   11.6614   23.9933 C   0  0  0  0  0  0
    1.2633    9.1485   25.4009 C   0  0  0  0  0  0
    7.4351   11.5239   23.8904 C   0  0  0  0  0  0
    9.5741   14.8286   25.7535 C   0  0  0  0  0  0
    7.5603   10.5190   22.7670 C   0  0  0  0  0  0
    7.0941    9.2612   22.8086 C   0  0  0  0  0  0
   -3.1809   11.5690   24.3670 H   0  0  0  0  0  0
    4.5743   11.1205   24.6447 H   0  0  0  0  0  0
    3.0716   13.5348   23.6343 H   0  0  0  0  0  0
    4.3831   12.7690   22.7670 H   0  0  0  0  0  0
    3.4459   14.7690   25.6621 H   0  0  0  0  0  0
    7.4227   15.7215   26.8036 H   0  0  0  0  0  0
    1.2763   12.6024   23.6666 H   0  0  0  0  0  0
    5.0291   16.0245   27.0686 H   0  0  0  0  0  0
    3.3909    9.3241   25.4764 H   0  0  0  0  0  0
   -0.8563    9.2148   25.2101 H   0  0  0  0  0  0
    1.2549    8.1789   25.8765 H   0  0  0  0  0  0
    6.8610   11.0882   24.7101 H   0  0  0  0  0  0
    8.4389   11.7320   24.2616 H   0  0  0  0  0  0
   10.5849   14.5694   25.4390 H   0  0  0  0  0  0
    9.4719   15.9118   25.6722 H   0  0  0  0  0  0
    9.4708   14.5360   26.8000 H   0  0  0  0  0  0
    8.0610   10.8718   21.8774 H   0  0  0  0  0  0
    6.5852    8.8747   23.6798 H   0  0  0  0  0  0
    7.2156    8.5959   21.9670 H   0  0  0  0  0  0
  1  6  1  0  0  0
  1 20  1  0  0  0
  2  8  1  0  0  0
  2 21  1  0  0  0
  3 18  2  0  0  0
  4 18  1  0  0  0
  4 24  1  0  0  0
  5  9  1  0  0  0
  5 10  1  0  0  0
  5 25  1  0  0  0
  6  7  2  0  0  0
  6  8  1  0  0  0
  7  9  1  0  0  0
  7 11  1  0  0  0
  8 12  2  0  0  0
  9 26  1  0  0  0
  9 27  1  0  0  0
 10 14  1  0  0  0
 10 16  2  0  0  0
 11 15  2  0  0  0
 11 28  1  0  0  0
 12 15  1  0  0  0
 12 29  1  0  0  0
 13 14  2  0  0  0
 13 17  1  0  0  0
 13 18  1  0  0  0
 14 30  1  0  0  0
 15 31  1  0  0  0
 16 19  1  0  0  0
 16 32  1  0  0  0
 17 19  2  0  0  0
 17 33  1  0  0  0
 19 34  1  0  0  0
 20 22  1  0  0  0
 20 35  1  0  0  0
 20 36  1  0  0  0
 21 37  1  0  0  0
 21 38  1  0  0  0
 21 39  1  0  0  0
 22 23  2  0  0  0
 22 40  1  0  0  0
 23 41  1  0  0  0
 23 42  1  0  0  0
M  END
> <s_m_entry_id>
5041

> <s_m_entry_name>
dock_pv.360

> <s_m_Source_Path>
/home/csk/Desktop/cluster/DUD-E-result/hs90a

> <s_m_Source_File>
dock_pv.maegz

> <i_m_Source_File_Index>
360

> <chembl_id>
CHEMBL1462497

> <chembl_pref_name>
None

> <i_lp_mmshare_version>
53161

> <r_lp_tautomer_probability>
1

> <s_lp_Force_Field>
OPLS_2005

> <r_lp_Energy>
23.406686

> <b_lp_Chiralities_Consistent>
1

> <s_lp_Variant>
CHEMBL3880_lig74-1

> <s_i_glide_gridfile>
glide-grid_1uyg

> <i_i_glide_lignum>
81

> <i_i_glide_rotatable_bonds>
9

> <r_i_docking_score>
-7.41691795582689

> <r_i_glide_ligand_efficiency>
-0.322474693731604

> <r_i_glide_ligand_efficiency_sa>
-0.91707513238256

> <r_i_glide_ligand_efficiency_ln>
-1.79347801461269

> <r_i_glide_gscore>
-7.41691795582689

> <r_i_glide_lipo>
-4.09366082431619

> <r_i_glide_hbond>
-0.0354365050600546

> <r_i_glide_metal>
0

> <r_i_glide_rewards>
-1.87488301106091

> <r_i_glide_evdw>
-40.7277641296387

> <r_i_glide_ecoul>
-4.67101955413818

> <r_i_glide_erotb>
1.32410352421293

> <r_i_glide_esite>
0

> <r_i_glide_emodel>
-63.6829259605417

> <r_i_glide_energy>
-45.3987836837769

> <r_i_glide_einternal>
5.65967798233032

> <i_i_glide_confnum>
171

> <i_i_glide_posenum>
57

> <r_i_glide_eff_state_penalty>
0

> <s_user_duplicate_titles>
CHEMBL3880_lig74

> <i_f3d_flags>
0

> <s_m_subgroup_title>
dock_pv

> <s_m_subgroupid>
dock_pv

> <b_m_subgroup_collapsed>
1

$$$$
CHEMBL3880_lig310
                    3D
 Schrodinger Suite 2021-1.
 49 51  0  0  1  0            999 V2000
    3.0415   13.2122   24.6736 C   0  0  0  0  0  0
    3.3957   12.2266   23.5268 C   0  0  0  0  0  0
    4.7207   11.6024   23.7801 N   0  0  0  0  0  0
    5.8880   12.5215   23.7955 C   0  0  0  0  0  0
    4.2047   15.1844   25.7122 O   0  0  0  0  0  0
    4.2568   14.0631   24.9606 C   0  0  0  0  0  0
    5.5516   13.7746   24.6018 C   0  0  0  0  0  0
    6.2996   14.7879   25.2206 C   0  0  0  0  0  0
    5.5173   15.6307   25.8721 N   0  0  0  0  0  0
    4.9360   10.2578   23.7073 C   0  0  0  0  0  0
    6.0642    9.7821   23.5618 O   0  0  0  0  0  0
    3.7582    9.3141   23.8519 C   0  0  0  0  0  0
    7.7584   14.8994   25.2128 C   0  0  0  0  0  0
    8.4580   14.7403   24.2107 O   0  0  0  0  0  0
    8.2316   15.1690   26.4580 O   0  0  0  0  0  0
    9.6280   15.2425   26.7284 C   0  0  0  0  0  0
   10.1647   13.8821   27.1854 C   0  0  0  0  0  0
    3.5976    8.2017   23.0072 C   0  0  0  0  0  0
    2.4998    7.3585   23.1671 C   0  0  0  0  0  0
    1.5400    7.6101   24.1433 C   0  0  0  0  0  0
    1.6888    8.7052   25.0126 C   0  0  0  0  0  0
    2.8143    9.5245   24.8680 C   0  0  0  0  0  0
    0.4610    6.7702   24.2030 O   0  0  0  0  0  0
    4.4610    7.9333   21.9753 O   0  0  0  0  0  0
    0.6474    9.0836   26.0777 C   0  0  0  0  0  0
    0.2885    7.9367   27.0452 C   0  0  0  0  0  0
   -0.5974    9.7258   25.4390 C   0  0  0  0  0  0
    2.1931   13.8240   24.3674 H   0  0  0  0  0  0
    2.7452   12.6658   25.5668 H   0  0  0  0  0  0
    3.4743   12.7691   22.5922 H   0  0  0  0  0  0
    2.5912   11.5130   23.3571 H   0  0  0  0  0  0
    6.7929   12.0430   24.1764 H   0  0  0  0  0  0
    6.1438   12.7706   22.7672 H   0  0  0  0  0  0
   10.1881   15.5953   25.8614 H   0  0  0  0  0  0
    9.7848   15.9713   27.5237 H   0  0  0  0  0  0
   11.2317   13.9381   27.3987 H   0  0  0  0  0  0
    9.6606   13.5688   28.0994 H   0  0  0  0  0  0
   10.0150   13.1155   26.4247 H   0  0  0  0  0  0
    2.3711    6.5194   22.4969 H   0  0  0  0  0  0
    2.9432   10.3533   25.5502 H   0  0  0  0  0  0
    0.4654    6.1142   23.5016 H   0  0  0  0  0  0
    4.1923    7.1662   21.4648 H   0  0  0  0  0  0
    1.0912    9.8574   26.7093 H   0  0  0  0  0  0
    1.1839    7.4468   27.4285 H   0  0  0  0  0  0
   -0.3321    7.1758   26.5738 H   0  0  0  0  0  0
   -0.2695    8.3136   27.9036 H   0  0  0  0  0  0
   -0.3302   10.6078   24.8550 H   0  0  0  0  0  0
   -1.1087    9.0364   24.7669 H   0  0  0  0  0  0
   -1.3149   10.0416   26.1976 H   0  0  0  0  0  0
  1  2  1  0  0  0
  1  6  1  0  0  0
  1 28  1  0  0  0
  1 29  1  0  0  0
  2  3  1  0  0  0
  2 30  1  0  0  0
  2 31  1  0  0  0
  3  4  1  0  0  0
  3 10  1  0  0  0
  4  7  1  0  0  0
  4 32  1  0  0  0
  4 33  1  0  0  0
  5  6  1  0  0  0
  5  9  1  0  0  0
  6  7  2  0  0  0
  7  8  1  0  0  0
  8  9  2  0  0  0
  8 13  1  0  0  0
 10 11  2  0  0  0
 10 12  1  0  0  0
 12 18  2  0  0  0
 12 22  1  0  0  0
 13 14  2  0  0  0
 13 15  1  0  0  0
 15 16  1  0  0  0
 16 17  1  0  0  0
 16 34  1  0  0  0
 16 35  1  0  0  0
 17 36  1  0  0  0
 17 37  1  0  0  0
 17 38  1  0  0  0
 18 19  1  0  0  0
 18 24  1  0  0  0
 19 20  2  0  0  0
 19 39  1  0  0  0
 20 21  1  0  0  0
 20 23  1  0  0  0
 21 22  2  0  0  0
 21 25  1  0  0  0
 22 40  1  0  0  0
 23 41  1  0  0  0
 24 42  1  0  0  0
 25 26  1  0  0  0
 25 27  1  0  0  0
 25 43  1  0  0  0
 26 44  1  0  0  0
 26 45  1  0  0  0
 26 46  1  0  0  0
 27 47  1  0  0  0
 27 48  1  0  0  0
 27 49  1  0  0  0
M  END
> <s_m_entry_id>
5042

> <s_m_entry_name>
dock_pv.361

> <s_m_Source_Path>
/home/csk/Desktop/cluster/DUD-E-result/hs90a

> <s_m_Source_File>
dock_pv.maegz

> <i_m_Source_File_Index>
361

> <chembl_id>
CHEMBL3233485

> <chembl_pref_name>
None

> <i_lp_mmshare_version>
53161

> <r_lp_tautomer_probability>
0.999999999898

> <s_lp_Force_Field>
OPLS_2005

> <r_lp_Energy>
37.144047

> <b_lp_Chiralities_Consistent>
1

> <s_lp_Variant>
CHEMBL3880_lig310-1

> <s_i_glide_gridfile>
glide-grid_1uyg

> <i_i_glide_lignum>
347

> <i_i_glide_rotatable_bonds>
8

> <r_i_docking_score>
-7.41480409345684

> <r_i_glide_ligand_efficiency>
-0.274622373831735

> <r_i_glide_ligand_efficiency_sa>
-0.823867120590094

> <r_i_glide_ligand_efficiency_ln>
-1.72604415035749

> <r_i_glide_gscore>
-7.41480409345684

> <r_i_glide_lipo>
-2.89936425540597

> <r_i_glide_hbond>
-0.0365282323462191

> <r_i_glide_metal>
0

> <r_i_glide_rewards>
-2.5040353584882

> <r_i_glide_evdw>
-43.7097206115723

> <r_i_glide_ecoul>
-2.27451014518738

> <r_i_glide_erotb>
0.551786305140274

> <r_i_glide_esite>
0

> <r_i_glide_emodel>
-63.0531133719771

> <r_i_glide_energy>
-45.9842307567596

> <r_i_glide_einternal>
6.79497957229614

> <i_i_glide_confnum>
2

> <i_i_glide_posenum>
387

> <r_i_glide_eff_state_penalty>
0

> <s_user_duplicate_titles>
CHEMBL3880_lig310

> <i_f3d_flags>
0

> <s_m_subgroup_title>
dock_pv

> <s_m_subgroupid>
dock_pv

> <b_m_subgroup_collapsed>
1

$$$$
CHEMBL3880_lig824
                    3D
 Schrodinger Suite 2021-1.
 37 38  0  0  1  0            999 V2000
   -0.7390    9.9805   26.2007 C   0  0  0  0  0  0
   -1.8299   10.7690   25.8300 C   0  0  0  0  0  0
   -1.7390   11.5690   24.6991 C   0  0  0  0  0  0
   -0.5489   11.6649   23.9838 C   0  0  0  0  0  0
    0.5896   10.9132   24.3670 C   0  0  0  0  0  0
    0.4222   10.0102   25.4348 C   0  0  0  0  0  0
   -0.5679   12.5389   22.9272 O   0  0  0  0  0  0
   -2.9950   10.7690   26.5531 O   0  0  0  0  0  0
   -0.7926    8.9582   27.5964 Cl  0  0  0  0  0  0
    1.9255   11.0568   23.6302 C   0  0  0  0  0  0
    3.1088   10.6537   24.1877 N   0  0  0  0  0  0
    1.9293   11.5690   22.5072 O   0  0  0  0  0  0
    3.3675   10.3304   25.5962 C   0  0  0  0  0  0
    4.3727   10.8070   23.4438 C   0  0  0  0  0  0
    5.1527   12.0787   23.7893 C   0  0  0  0  0  0
    6.5399   12.0779   23.6288 C   0  0  0  0  0  0
    7.2875   13.1690   24.0638 C   0  0  0  0  0  0
    6.6524   14.2688   24.6433 C   0  0  0  0  0  0
    5.2650   14.2937   24.7670 C   0  0  0  0  0  0
    4.5174   13.2025   24.3430 C   0  0  0  0  0  0
    7.4574   15.4630   25.1048 C   0  0  0  0  0  0
   -2.5932   12.1558   24.3940 H   0  0  0  0  0  0
    1.1864    9.3055   25.7150 H   0  0  0  0  0  0
   -1.4463   12.8905   22.7670 H   0  0  0  0  0  0
   -3.7341   11.2094   26.1116 H   0  0  0  0  0  0
    3.4494    9.2519   25.7342 H   0  0  0  0  0  0
    4.3040   10.7690   25.9345 H   0  0  0  0  0  0
    2.6148   10.7275   26.2715 H   0  0  0  0  0  0
    5.0010    9.9426   23.6655 H   0  0  0  0  0  0
    4.2085   10.7690   22.3670 H   0  0  0  0  0  0
    7.0455   11.2203   23.2090 H   0  0  0  0  0  0
    8.3617   13.1485   23.9670 H   0  0  0  0  0  0
    4.7655   15.1485   25.1996 H   0  0  0  0  0  0
    3.4464   13.2365   24.4708 H   0  0  0  0  0  0
    6.8610   16.3690   24.9870 H   0  0  0  0  0  0
    7.7369   15.3604   26.1536 H   0  0  0  0  0  0
    8.3582   15.5862   24.5031 H   0  0  0  0  0  0
  1  2  2  0  0  0
  1  6  1  0  0  0
  1  9  1  0  0  0
  2  3  1  0  0  0
  2  8  1  0  0  0
  3  4  2  0  0  0
  3 22  1  0  0  0
  4  5  1  0  0  0
  4  7  1  0  0  0
  5  6  2  0  0  0
  5 10  1  0  0  0
  6 23  1  0  0  0
  7 24  1  0  0  0
  8 25  1  0  0  0
 10 11  1  0  0  0
 10 12  2  0  0  0
 11 13  1  0  0  0
 11 14  1  0  0  0
 13 26  1  0  0  0
 13 27  1  0  0  0
 13 28  1  0  0  0
 14 15  1  0  0  0
 14 29  1  0  0  0
 14 30  1  0  0  0
 15 16  2  0  0  0
 15 20  1  0  0  0
 16 17  1  0  0  0
 16 31  1  0  0  0
 17 18  2  0  0  0
 17 32  1  0  0  0
 18 19  1  0  0  0
 18 21  1  0  0  0
 19 20  2  0  0  0
 19 33  1  0  0  0
 20 34  1  0  0  0
 21 35  1  0  0  0
 21 36  1  0  0  0
 21 37  1  0  0  0
M  END
> <s_m_entry_id>
5043

> <s_m_entry_name>
dock_pv.362

> <s_m_Source_Path>
/home/csk/Desktop/cluster/DUD-E-result/hs90a

> <s_m_Source_File>
dock_pv.maegz

> <i_m_Source_File_Index>
362

> <chembl_id>
CHEMBL4285068

> <chembl_pref_name>
None

> <i_lp_mmshare_version>
53161

> <r_lp_tautomer_probability>
0.999999999898

> <s_lp_Force_Field>
OPLS_2005

> <r_lp_Energy>
24.410645

> <b_lp_Chiralities_Consistent>
1

> <s_lp_Variant>
CHEMBL3880_lig824-1

> <s_i_glide_gridfile>
glide-grid_1uyg

> <i_i_glide_lignum>
925

> <i_i_glide_rotatable_bonds>
6

> <r_i_docking_score>
-7.41459616507332

> <r_i_glide_ligand_efficiency>
-0.353076007860634

> <r_i_glide_ligand_efficiency_sa>
-0.974109933198268

> <r_i_glide_ligand_efficiency_ln>
-1.83324391921209

> <r_i_glide_gscore>
-7.41459616507332

> <r_i_glide_lipo>
-3.4338777132153

> <r_i_glide_hbond>
-0.131333690264655

> <r_i_glide_metal>
0

> <r_i_glide_rewards>
-2.20602561292075

> <r_i_glide_evdw>
-32.2992630004883

> <r_i_glide_ecoul>
-5.45548152923584

> <r_i_glide_erotb>
0.789926230737177

> <r_i_glide_esite>
0

> <r_i_glide_emodel>
-52.5170996498285

> <r_i_glide_energy>
-37.7547445297241

> <r_i_glide_einternal>
5.06796360015869

> <i_i_glide_confnum>
1

> <i_i_glide_posenum>
168

> <r_i_glide_eff_state_penalty>
0

> <s_user_duplicate_titles>
CHEMBL3880_lig824

> <i_f3d_flags>
0

> <s_m_subgroup_title>
dock_pv

> <s_m_subgroupid>
dock_pv

> <b_m_subgroup_collapsed>
1

$$$$
CHEMBL3880_lig108
                    3D
 Schrodinger Suite 2021-1.
 31 33  0  0  1  0            999 V2000
    5.5703   10.8340   23.4756 O   0  0  0  0  0  0
    1.0365   10.9748   24.7412 O   0  0  0  0  0  0
    5.7380   13.3635   24.3659 O   0  0  0  0  0  0
    5.2504    5.2728   22.3470 O   0  0  0  0  0  0
    3.2529    5.0147   21.2627 O   0  0  0  0  0  0
    3.7880    9.1928   23.4479 C   0  0  0  0  0  0
    2.4631    9.2238   23.8389 C   0  0  0  0  0  0
    3.3483   11.3639   24.2483 C   0  0  0  0  0  0
    4.4070   10.5050   23.6966 C   0  0  0  0  0  0
    2.1237   10.5646   24.3275 C   0  0  0  0  0  0
    4.3391    8.0285   22.9047 C   0  0  0  0  0  0
    3.3999   12.6591   24.6560 C   0  0  0  0  0  0
    1.6614    8.0853   23.7254 C   0  0  0  0  0  0
    3.5308    6.8920   22.7386 C   0  0  0  0  0  0
    4.4699   13.6445   24.7671 C   0  0  0  0  0  0
    2.1951    6.9226   23.1687 C   0  0  0  0  0  0
    4.1019    5.6468   22.1223 C   0  0  0  0  0  0
    4.4813   14.9153   25.3279 C   0  0  0  0  0  0
    6.5383   14.4112   24.6949 C   0  0  0  0  0  0
    5.7757   15.4056   25.2694 C   0  0  0  0  0  0
    7.9944   14.2749   24.3579 C   0  0  0  0  0  0
    2.4280    5.4952   21.1556 H   0  0  0  0  0  0
    5.3756    8.0124   22.5919 H   0  0  0  0  0  0
    2.4744   13.0868   25.0047 H   0  0  0  0  0  0
    0.6265    8.0947   24.0360 H   0  0  0  0  0  0
    1.5548    6.0542   23.0655 H   0  0  0  0  0  0
    3.6605   15.4415   25.7728 H   0  0  0  0  0  0
    6.0979   16.3680   25.6279 H   0  0  0  0  0  0
    8.5569   15.1723   24.6181 H   0  0  0  0  0  0
    8.1263   14.1043   23.2900 H   0  0  0  0  0  0
    8.4467   13.4296   24.8789 H   0  0  0  0  0  0
  1  9  2  0  0  0
  2 10  2  0  0  0
  3 15  1  0  0  0
  3 19  1  0  0  0
  4 17  2  0  0  0
  5 17  1  0  0  0
  5 22  1  0  0  0
  6  7  1  0  0  0
  6  9  1  0  0  0
  6 11  2  0  0  0
  7 10  1  0  0  0
  7 13  2  0  0  0
  8  9  1  0  0  0
  8 10  1  0  0  0
  8 12  2  0  0  0
 11 14  1  0  0  0
 11 23  1  0  0  0
 12 15  1  0  0  0
 12 24  1  0  0  0
 13 16  1  0  0  0
 13 25  1  0  0  0
 14 16  2  0  0  0
 14 17  1  0  0  0
 15 18  2  0  0  0
 16 26  1  0  0  0
 18 20  1  0  0  0
 18 27  1  0  0  0
 19 20  2  0  0  0
 19 21  1  0  0  0
 20 28  1  0  0  0
 21 29  1  0  0  0
 21 30  1  0  0  0
 21 31  1  0  0  0
M  END
> <s_m_entry_id>
5044

> <s_m_entry_name>
dock_pv.363

> <s_m_Source_Path>
/home/csk/Desktop/cluster/DUD-E-result/hs90a

> <s_m_Source_File>
dock_pv.maegz

> <i_m_Source_File_Index>
363

> <chembl_id>
CHEMBL1325440

> <chembl_pref_name>
None

> <i_lp_mmshare_version>
53161

> <r_lp_tautomer_probability>
1

> <s_lp_Force_Field>
OPLS_2005

> <r_lp_Energy>
22.866036

> <b_lp_Chiralities_Consistent>
1

> <s_lp_Variant>
CHEMBL3880_lig108-1

> <s_i_glide_gridfile>
glide-grid_1uyg

> <i_i_glide_lignum>
122

> <i_i_glide_rotatable_bonds>
3

> <r_i_docking_score>
-7.41236442465311

> <r_i_glide_ligand_efficiency>
-0.352969734507291

> <r_i_glide_ligand_efficiency_sa>
-0.973816733074722

> <r_i_glide_ligand_efficiency_ln>
-1.83269212590285

> <r_i_glide_gscore>
-7.41236442465311

> <r_i_glide_lipo>
-2.33089525941

> <r_i_glide_hbond>
0

> <r_i_glide_metal>
0

> <r_i_glide_rewards>
-2.6313884132268

> <r_i_glide_evdw>
-29.2752494812012

> <r_i_glide_ecoul>
-9.60327339172363

> <r_i_glide_erotb>
0.454172730802292

> <r_i_glide_esite>
0

> <r_i_glide_emodel>
-51.6112559540365

> <r_i_glide_energy>
-38.8785228729248

> <r_i_glide_einternal>
3.43656945228577

> <i_i_glide_confnum>
1

> <i_i_glide_posenum>
60

> <r_i_glide_eff_state_penalty>
0

> <s_user_duplicate_titles>
CHEMBL3880_lig108

> <i_f3d_flags>
0

> <s_m_subgroup_title>
dock_pv

> <s_m_subgroupid>
dock_pv

> <b_m_subgroup_collapsed>
1

$$$$
CHEMBL3880_lig42
                    3D
 Schrodinger Suite 2021-1.
 34 36  0  0  1  0            999 V2000
    5.6587   15.9690   26.7352 Cl  0  0  0  0  0  0
    9.3873   15.5681   25.8561 O   0  0  0  0  0  0
    8.4641   14.3690   27.5670 O   0  0  0  0  0  0
    3.6789    6.8144   22.3678 N   0  0  0  0  0  0
    6.9188   11.5082   23.0335 N   0  0  0  0  0  0
    6.1887   10.3018   22.8103 N   0  0  0  0  0  0
    3.0429    8.4933   23.7222 C   0  0  0  0  0  0
    4.3434    8.8242   23.1849 C   0  0  0  0  0  0
    2.6510    7.2273   23.1822 C   0  0  0  0  0  0
    7.4075   14.2776   25.4448 C   0  0  0  0  0  0
    6.6224   12.6103   23.8576 C   0  0  0  0  0  0
    6.0948   14.7683   25.5743 C   0  0  0  0  0  0
    4.6798    7.7512   22.3734 C   0  0  0  0  0  0
    7.6605   13.2142   24.5694 C   0  0  0  0  0  0
    2.1569    9.1408   24.6032 C   0  0  0  0  0  0
    5.1251   10.0246   23.4562 C   0  0  0  0  0  0
    8.5249   14.8070   26.2862 C   0  0  0  0  0  0
    1.4279    6.6211   23.4902 C   0  0  0  0  0  0
    5.3321   13.1437   23.9670 C   0  0  0  0  0  0
    5.0709   14.2189   24.8081 C   0  0  0  0  0  0
    0.9388    8.5369   24.9127 C   0  0  0  0  0  0
    0.5867    7.3061   24.3666 C   0  0  0  0  0  0
    9.1023   14.7928   28.1524 H   0  0  0  0  0  0
    3.7228    5.9660   21.8217 H   0  0  0  0  0  0
    7.8540   11.4676   22.6512 H   0  0  0  0  0  0
    5.5714    7.5805   21.7857 H   0  0  0  0  0  0
    8.6568   12.8039   24.4899 H   0  0  0  0  0  0
    2.4110   10.0967   25.0362 H   0  0  0  0  0  0
    4.7102   10.6312   24.2549 H   0  0  0  0  0  0
    1.1348    5.6722   23.0614 H   0  0  0  0  0  0
    4.5216   12.7335   23.3842 H   0  0  0  0  0  0
    4.0635   14.5988   24.8946 H   0  0  0  0  0  0
    0.2511    9.0327   25.5830 H   0  0  0  0  0  0
   -0.3729    6.8760   24.6176 H   0  0  0  0  0  0
  1 12  1  0  0  0
  2 17  2  0  0  0
  3 17  1  0  0  0
  3 23  1  0  0  0
  4  9  1  0  0  0
  4 13  1  0  0  0
  4 24  1  0  0  0
  5  6  1  0  0  0
  5 11  1  0  0  0
  5 25  1  0  0  0
  6 16  2  0  0  0
  7  8  1  0  0  0
  7  9  1  0  0  0
  7 15  2  0  0  0
  8 13  2  0  0  0
  8 16  1  0  0  0
  9 18  2  0  0  0
 10 12  1  0  0  0
 10 14  2  0  0  0
 10 17  1  0  0  0
 11 14  1  0  0  0
 11 19  2  0  0  0
 12 20  2  0  0  0
 13 26  1  0  0  0
 14 27  1  0  0  0
 15 21  1  0  0  0
 15 28  1  0  0  0
 16 29  1  0  0  0
 18 22  1  0  0  0
 18 30  1  0  0  0
 19 20  1  0  0  0
 19 31  1  0  0  0
 20 32  1  0  0  0
 21 22  2  0  0  0
 21 33  1  0  0  0
 22 34  1  0  0  0
M  END
> <s_m_entry_id>
5046

> <s_m_entry_name>
dock_pv.365

> <s_m_Source_Path>
/home/csk/Desktop/cluster/DUD-E-result/hs90a

> <s_m_Source_File>
dock_pv.maegz

> <i_m_Source_File_Index>
365

> <chembl_id>
CHEMBL3190098

> <chembl_pref_name>
None

> <i_lp_mmshare_version>
53161

> <r_lp_tautomer_probability>
1

> <s_lp_Force_Field>
OPLS_2005

> <r_lp_Energy>
16.1989

> <b_lp_Chiralities_Consistent>
1

> <s_lp_Variant>
CHEMBL3880_lig42-1

> <s_i_glide_gridfile>
glide-grid_1uyg

> <i_i_glide_lignum>
47

> <i_i_glide_rotatable_bonds>
5

> <r_i_docking_score>
-7.39562524991745

> <r_i_glide_ligand_efficiency>
-0.336164784087157

> <r_i_glide_ligand_efficiency_sa>
-0.941946945622957

> <r_i_glide_ligand_efficiency_ln>
-1.80776057306529

> <r_i_glide_gscore>
-7.39562524991745

> <r_i_glide_lipo>
-2.41756868252851

> <r_i_glide_hbond>
0

> <r_i_glide_metal>
0

> <r_i_glide_rewards>
-2.53087680155725

> <r_i_glide_evdw>
-35.4247016906738

> <r_i_glide_ecoul>
-8.21593379974365

> <r_i_glide_erotb>
0.56623226141213

> <r_i_glide_esite>
-0.00978687274857975

> <r_i_glide_emodel>
-57.9541260125938

> <r_i_glide_energy>
-43.6406354904175

> <r_i_glide_einternal>
9.46521282196045

> <i_i_glide_confnum>
2

> <i_i_glide_posenum>
382

> <r_i_glide_eff_state_penalty>
0

> <s_user_duplicate_titles>
CHEMBL3880_lig42

> <i_f3d_flags>
0

> <s_m_subgroup_title>
dock_pv

> <s_m_subgroupid>
dock_pv

> <b_m_subgroup_collapsed>
1

$$$$
CHEMBL3880_lig914
                    3D
 Schrodinger Suite 2021-1.
 52 55  0  0  1  0            999 V2000
    5.7718    9.5361   22.6214 N   0  0  0  0  0  0
    4.6960    8.7120   22.6245 C   0  0  0  0  0  0
    3.4712    9.0057   23.1335 N   0  0  0  0  0  0
    3.3001   10.2508   23.6663 C   0  0  0  0  0  0
    4.8609    7.4627   22.0412 N   0  0  0  0  0  0
    1.9298   10.5369   24.1856 C   0  0  0  0  0  0
    1.1098   11.5031   23.5673 C   0  0  0  0  0  0
   -0.1966   11.7157   24.0076 C   0  0  0  0  0  0
   -0.7080   10.9677   25.0606 C   0  0  0  0  0  0
    0.0906   10.0261   25.6912 C   0  0  0  0  0  0
    1.4044    9.7901   25.2625 C   0  0  0  0  0  0
    2.1990    8.8382   25.8777 O   0  0  0  0  0  0
    1.6278   12.3687   22.1638 Cl  0  0  0  0  0  0
    1.5783    7.6527   26.3880 C   0  0  0  0  0  0
    1.4061    7.6945   27.9236 C   0  0  0  0  0  0
    2.7118    7.7811   28.7468 C   0  0  0  0  0  0
    3.6318    6.5440   28.6762 C   0  0  0  0  0  0
    2.9679    5.4316   28.9968 F   0  0  0  0  0  0
    4.6518    6.6545   29.5233 F   0  0  0  0  0  0
    4.1515    6.3675   27.4626 F   0  0  0  0  0  0
   -2.3391   11.1690   25.5738 Cl  0  0  0  0  0  0
    5.5708   10.7606   23.1670 C   0  0  0  0  0  0
    4.3532   11.1816   23.6825 C   0  0  0  0  0  0
    4.4610   12.6171   24.1502 C   0  0  0  0  0  0
    5.8911   12.9222   23.9671 N   0  0  0  0  0  0
    6.6164   11.8285   23.3005 C   0  0  0  0  0  0
    6.4833   13.9691   24.6049 C   0  0  0  0  0  0
    7.8303   13.9632   24.5744 N   0  0  0  0  0  0
    5.8405   14.8556   25.1704 O   0  0  0  0  0  0
    8.6976   14.9033   25.2718 C   0  0  0  0  0  0
    8.8627   14.7546   26.7672 C   0  0  0  0  0  0
    9.9986   14.3855   25.8443 C   0  0  0  0  0  0
    5.7532    7.2242   21.6170 H   0  0  0  0  0  0
    4.0522    6.8653   21.9453 H   0  0  0  0  0  0
   -0.8304   12.4344   23.5075 H   0  0  0  0  0  0
   -0.3356    9.4706   26.5107 H   0  0  0  0  0  0
    2.2002    6.8060   26.1021 H   0  0  0  0  0  0
    0.6202    7.4481   25.9056 H   0  0  0  0  0  0
    0.8424    6.8148   28.2369 H   0  0  0  0  0  0
    0.7790    8.5449   28.1908 H   0  0  0  0  0  0
    2.4537    7.9486   29.7941 H   0  0  0  0  0  0
    3.2601    8.6716   28.4455 H   0  0  0  0  0  0
    3.8613   13.2994   23.5478 H   0  0  0  0  0  0
    4.1496   12.7508   25.1876 H   0  0  0  0  0  0
    7.4657   11.4823   23.8912 H   0  0  0  0  0  0
    7.0077   12.1515   22.3376 H   0  0  0  0  0  0
    8.2744   13.3534   23.9048 H   0  0  0  0  0  0
    8.6561   15.9189   24.8754 H   0  0  0  0  0  0
    8.9536   15.6473   27.3836 H   0  0  0  0  0  0
    8.3089   13.9688   27.2804 H   0  0  0  0  0  0
   10.2533   13.3318   25.7226 H   0  0  0  0  0  0
   10.8774   15.0305   25.8075 H   0  0  0  0  0  0
  1 22  1  0  0  0
  1  2  2  0  0  0
  2  5  1  0  0  0
  2  3  1  0  0  0
  3  4  2  0  0  0
  4 23  1  0  0  0
  4  6  1  0  0  0
  5 33  1  0  0  0
  5 34  1  0  0  0
  6 11  1  0  0  0
  6  7  2  0  0  0
  7  8  1  0  0  0
  7 13  1  0  0  0
  8  9  2  0  0  0
  8 35  1  0  0  0
  9 10  1  0  0  0
  9 21  1  0  0  0
 10 11  2  0  0  0
 10 36  1  0  0  0
 11 12  1  0  0  0
 12 14  1  0  0  0
 14 15  1  0  0  0
 14 37  1  0  0  0
 14 38  1  0  0  0
 15 16  1  0  0  0
 15 39  1  0  0  0
 15 40  1  0  0  0
 16 17  1  0  0  0
 16 41  1  0  0  0
 16 42  1  0  0  0
 17 18  1  0  0  0
 17 19  1  0  0  0
 17 20  1  0  0  0
 22 23  2  0  0  0
 22 26  1  0  0  0
 23 24  1  0  0  0
 24 25  1  0  0  0
 24 43  1  0  0  0
 24 44  1  0  0  0
 25 26  1  0  0  0
 25 27  1  0  0  0
 26 45  1  0  0  0
 26 46  1  0  0  0
 27 28  1  0  0  0
 27 29  2  0  0  0
 28 30  1  0  0  0
 28 47  1  0  0  0
 30 31  1  0  0  0
 30 32  1  0  0  0
 30 48  1  0  0  0
 31 32  1  0  0  0
 31 49  1  0  0  0
 31 50  1  0  0  0
 32 51  1  0  0  0
 32 52  1  0  0  0
M  END
> <s_m_entry_id>
5047

> <s_m_entry_name>
dock_pv.366

> <s_m_Source_Path>
/home/csk/Desktop/cluster/DUD-E-result/hs90a

> <s_m_Source_File>
dock_pv.maegz

> <i_m_Source_File_Index>
366

> <chembl_id>
CHEMBL1774908

> <chembl_pref_name>
None

> <i_lp_mmshare_version>
53161

> <r_lp_tautomer_probability>
0.999999987636

> <s_lp_Force_Field>
OPLS_2005

> <r_lp_Energy>
48.137527

> <b_lp_Chiralities_Consistent>
1

> <s_lp_Variant>
CHEMBL3880_lig914-1

> <s_i_glide_gridfile>
glide-grid_1uyg

> <i_i_glide_lignum>
1020

> <i_i_glide_rotatable_bonds>
9

> <r_i_docking_score>
-7.39443939483133

> <r_i_glide_ligand_efficiency>
-0.231076231088479

> <r_i_glide_ligand_efficiency_sa>
-0.733621303781884

> <r_i_glide_ligand_efficiency_ln>
-1.65581654530791

> <r_i_glide_gscore>
-7.39443939483133

> <r_i_glide_lipo>
-3.41723207945106

> <r_i_glide_hbond>
-0.387325918308493

> <r_i_glide_metal>
0

> <r_i_glide_rewards>
-1.14886468601216

> <r_i_glide_evdw>
-51.0139770507812

> <r_i_glide_ecoul>
-2.97329378128052

> <r_i_glide_erotb>
0.677192497276052

> <r_i_glide_esite>
-0.121516288604532

> <r_i_glide_emodel>
-75.8345475191157

> <r_i_glide_energy>
-53.9872708320618

> <r_i_glide_einternal>
3.54368114471436

> <i_i_glide_confnum>
55

> <i_i_glide_posenum>
237

> <r_i_glide_eff_state_penalty>
0

> <s_user_duplicate_titles>
CHEMBL3880_lig914

> <i_f3d_flags>
0

> <s_m_subgroup_title>
dock_pv

> <s_m_subgroupid>
dock_pv

> <b_m_subgroup_collapsed>
1

$$$$
CHEMBL3880_lig355
                    3D
 Schrodinger Suite 2021-1.
 47 49  0  0  1  0            999 V2000
   -0.5400   11.2645   24.4022 C   0  0  0  0  0  0
   -0.4000   10.1426   25.2148 C   0  0  0  0  0  0
    0.7689    9.3804   25.1750 C   0  0  0  0  0  0
    1.8164    9.7250   24.2983 C   0  0  0  0  0  0
    1.6616   10.8620   23.5049 C   0  0  0  0  0  0
    0.5155   11.6504   23.5678 C   0  0  0  0  0  0
    0.8498    8.2887   25.9993 O   0  0  0  0  0  0
   -1.7143   11.9687   24.4182 O   0  0  0  0  0  0
    3.0528    8.8992   24.0745 C   0  0  0  0  0  0
    2.8908    7.5915   24.0269 N   0  0  0  0  0  0
    4.1146    7.0347   23.6968 O   0  0  0  0  0  0
    5.0015    8.0441   23.5739 C   0  0  0  0  0  0
    4.4032    9.2872   23.8207 C   0  0  0  0  0  0
    6.2542    7.6438   23.1672 N   0  0  0  0  0  0
    5.0662   10.6564   23.8058 C   0  0  0  0  0  0
    4.4600   11.7947   24.3632 C   0  0  0  0  0  0
    5.1021   13.0345   24.3670 C   0  0  0  0  0  0
    6.4421   13.1181   23.9669 C   0  0  0  0  0  0
    7.0411   12.0090   23.3778 C   0  0  0  0  0  0
    6.3545   10.8048   23.2731 C   0  0  0  0  0  0
    7.2395   14.2331   24.1246 O   0  0  0  0  0  0
    6.7813   15.2834   24.9672 C   0  0  0  0  0  0
    7.1513    7.0738   23.9896 C   0  0  0  0  0  0
    8.5135    6.7850   23.3710 C   0  0  0  0  0  0
    6.9441    6.7744   25.1662 O   0  0  0  0  0  0
    0.4659   12.9112   22.7219 C   0  0  0  0  0  0
    1.2372   14.0524   23.4009 C   0  0  0  0  0  0
   -1.2018    9.8519   25.8760 H   0  0  0  0  0  0
    2.4352   11.1311   22.8000 H   0  0  0  0  0  0
    1.6523    7.7813   25.8537 H   0  0  0  0  0  0
   -2.4760   11.4983   24.7712 H   0  0  0  0  0  0
    6.5137    7.8094   22.2051 H   0  0  0  0  0  0
    3.5065   11.7392   24.8582 H   0  0  0  0  0  0
    4.5970   13.8775   24.8128 H   0  0  0  0  0  0
    8.0598   12.0747   23.0260 H   0  0  0  0  0  0
    6.8779    9.9861   22.8126 H   0  0  0  0  0  0
    7.6076   15.9693   25.1398 H   0  0  0  0  0  0
    6.4625   14.9164   25.9441 H   0  0  0  0  0  0
    5.9645   15.8423   24.5103 H   0  0  0  0  0  0
    8.7749    7.5311   22.6194 H   0  0  0  0  0  0
    9.2855    6.7961   24.1399 H   0  0  0  0  0  0
    8.5070    5.8050   22.8937 H   0  0  0  0  0  0
    0.8985   12.7059   21.7417 H   0  0  0  0  0  0
   -0.5681   13.1986   22.5306 H   0  0  0  0  0  0
    1.2611   14.9322   22.7651 H   0  0  0  0  0  0
    0.7700   14.3365   24.3454 H   0  0  0  0  0  0
    2.2722   13.7766   23.6051 H   0  0  0  0  0  0
  1  2  2  0  0  0
  1  6  1  0  0  0
  1  8  1  0  0  0
  2  3  1  0  0  0
  2 28  1  0  0  0
  3  4  2  0  0  0
  3  7  1  0  0  0
  4  5  1  0  0  0
  4  9  1  0  0  0
  5  6  2  0  0  0
  5 29  1  0  0  0
  6 26  1  0  0  0
  7 30  1  0  0  0
  8 31  1  0  0  0
  9 10  2  0  0  0
  9 13  1  0  0  0
 10 11  1  0  0  0
 11 12  1  0  0  0
 12 13  2  0  0  0
 12 14  1  0  0  0
 13 15  1  0  0  0
 14 23  1  0  0  0
 14 32  1  0  0  0
 15 16  2  0  0  0
 15 20  1  0  0  0
 16 17  1  0  0  0
 16 33  1  0  0  0
 17 18  2  0  0  0
 17 34  1  0  0  0
 18 19  1  0  0  0
 18 21  1  0  0  0
 19 20  2  0  0  0
 19 35  1  0  0  0
 20 36  1  0  0  0
 21 22  1  0  0  0
 22 37  1  0  0  0
 22 38  1  0  0  0
 22 39  1  0  0  0
 23 24  1  0  0  0
 23 25  2  0  0  0
 24 40  1  0  0  0
 24 41  1  0  0  0
 24 42  1  0  0  0
 26 27  1  0  0  0
 26 43  1  0  0  0
 26 44  1  0  0  0
 27 45  1  0  0  0
 27 46  1  0  0  0
 27 47  1  0  0  0
M  END
> <s_m_entry_id>
5048

> <s_m_entry_name>
dock_pv.367

> <s_m_Source_Path>
/home/csk/Desktop/cluster/DUD-E-result/hs90a

> <s_m_Source_File>
dock_pv.maegz

> <i_m_Source_File_Index>
367

> <chembl_id>
CHEMBL3342595

> <chembl_pref_name>
None

> <i_lp_mmshare_version>
53161

> <r_lp_tautomer_probability>
0.999999999898

> <s_lp_Force_Field>
OPLS_2005

> <r_lp_Energy>
23.643127

> <b_lp_Chiralities_Consistent>
1

> <s_lp_Variant>
CHEMBL3880_lig355-1

> <s_i_glide_gridfile>
glide-grid_1uyg

> <i_i_glide_lignum>
392

> <i_i_glide_rotatable_bonds>
8

> <r_i_docking_score>
-7.39173898258219

> <r_i_glide_ligand_efficiency>
-0.273768110466007

> <r_i_glide_ligand_efficiency_sa>
-0.821304330495726

> <r_i_glide_ligand_efficiency_ln>
-1.72067497280395

> <r_i_glide_gscore>
-7.39173898258219

> <r_i_glide_lipo>
-3.84221198083093

> <r_i_glide_hbond>
-0.233098839060508

> <r_i_glide_metal>
0

> <r_i_glide_rewards>
-1.31696852286939

> <r_i_glide_evdw>
-36.1347885131836

> <r_i_glide_ecoul>
-3.93669891357422

> <r_i_glide_erotb>
0.425977061743797

> <r_i_glide_esite>
-0.0281924388698439

> <r_i_glide_emodel>
-53.2624942636947

> <r_i_glide_energy>
-40.0714874267578

> <r_i_glide_einternal>
7.63307189941406

> <i_i_glide_confnum>
10

> <i_i_glide_posenum>
168

> <r_i_glide_eff_state_penalty>
0

> <s_user_duplicate_titles>
CHEMBL3880_lig355

> <i_f3d_flags>
0

> <s_m_subgroup_title>
dock_pv

> <s_m_subgroupid>
dock_pv

> <b_m_subgroup_collapsed>
1

$$$$
CHEMBL3880_lig167
                    3D
 Schrodinger Suite 2021-1.
 27 29  0  0  1  0            999 V2000
    5.4352    8.9293   22.7047 C   0  0  0  0  0  0
    6.5960    9.7058   22.7218 C   0  0  0  0  0  0
    6.5746   11.0302   23.1659 C   0  0  0  0  0  0
    4.2066    9.4438   23.1320 C   0  0  0  0  0  0
    4.1537   10.7810   23.5619 C   0  0  0  0  0  0
    5.3333   11.5386   23.5646 C   0  0  0  0  0  0
    5.0609   12.8100   23.9676 O   0  0  0  0  0  0
    3.6921   12.8873   24.2605 N   0  0  0  0  0  0
    3.1646   11.6992   24.0442 C   0  0  0  0  0  0
    1.7148   11.4362   24.2982 C   0  0  0  0  0  0
    1.2905   10.3623   25.0973 C   0  0  0  0  0  0
   -0.0672   10.1536   25.3262 C   0  0  0  0  0  0
   -1.0184   10.9958   24.7546 C   0  0  0  0  0  0
   -0.6101   12.0495   23.9296 C   0  0  0  0  0  0
    0.7519   12.2725   23.7148 C   0  0  0  0  0  0
    7.7721    9.1672   22.2765 O   0  0  0  0  0  0
    2.1840    9.5133   25.6926 O   0  0  0  0  0  0
   -2.3389   10.7689   25.0287 O   0  0  0  0  0  0
   -1.7648   13.0882   23.1692 Cl  0  0  0  0  0  0
    5.4774    7.9075   22.3539 H   0  0  0  0  0  0
    7.4676   11.6373   23.1729 H   0  0  0  0  0  0
    3.3176    8.8298   23.1126 H   0  0  0  0  0  0
   -0.3951    9.3367   25.9522 H   0  0  0  0  0  0
    1.0598   13.0969   23.0862 H   0  0  0  0  0  0
    7.6593    8.2780   21.9185 H   0  0  0  0  0  0
    1.7552    8.8516   26.2390 H   0  0  0  0  0  0
   -2.9575   11.4005   24.6382 H   0  0  0  0  0  0
  1  4  1  0  0  0
  1  2  2  0  0  0
  1 20  1  0  0  0
  2  3  1  0  0  0
  2 16  1  0  0  0
  3  6  2  0  0  0
  3 21  1  0  0  0
  4  5  2  0  0  0
  4 22  1  0  0  0
  5  9  1  0  0  0
  5  6  1  0  0  0
  6  7  1  0  0  0
  7  8  1  0  0  0
  8  9  2  0  0  0
  9 10  1  0  0  0
 10 11  2  0  0  0
 10 15  1  0  0  0
 11 12  1  0  0  0
 11 17  1  0  0  0
 12 13  2  0  0  0
 12 23  1  0  0  0
 13 14  1  0  0  0
 13 18  1  0  0  0
 14 15  2  0  0  0
 14 19  1  0  0  0
 15 24  1  0  0  0
 16 25  1  0  0  0
 17 26  1  0  0  0
 18 27  1  0  0  0
M  END
> <s_m_entry_id>
5049

> <s_m_entry_name>
dock_pv.368

> <s_m_Source_Path>
/home/csk/Desktop/cluster/DUD-E-result/hs90a

> <s_m_Source_File>
dock_pv.maegz

> <i_m_Source_File_Index>
368

> <chembl_id>
CHEMBL362307

> <chembl_pref_name>
None

> <i_lp_mmshare_version>
53161

> <r_lp_tautomer_probability>
0.999999999898

> <s_lp_Force_Field>
OPLS_2005

> <r_lp_Energy>
30.234428

> <b_lp_Chiralities_Consistent>
1

> <s_lp_Variant>
CHEMBL3880_lig167-1

> <s_i_glide_gridfile>
glide-grid_1uyg

> <i_i_glide_lignum>
198

> <i_i_glide_rotatable_bonds>
4

> <r_i_docking_score>
-7.38790074453709

> <r_i_glide_ligand_efficiency>
-0.388836881291426

> <r_i_glide_ligand_efficiency_sa>
-1.03757297410358

> <r_i_glide_ligand_efficiency_ln>
-1.87299151629881

> <r_i_glide_gscore>
-7.38790074453709

> <r_i_glide_lipo>
-3.00859774650092

> <r_i_glide_hbond>
-0.432657206548552

> <r_i_glide_metal>
0

> <r_i_glide_rewards>
-1.75153986814444

> <r_i_glide_evdw>
-34.4729652404785

> <r_i_glide_ecoul>
-4.70067119598389

> <r_i_glide_erotb>
0.233643018078335

> <r_i_glide_esite>
0

> <r_i_glide_emodel>
-55.9331831655031

> <r_i_glide_energy>
-39.1736364364624

> <r_i_glide_einternal>
2.03363108634949

> <i_i_glide_confnum>
3

> <i_i_glide_posenum>
335

> <r_i_glide_eff_state_penalty>
0

> <s_user_duplicate_titles>
CHEMBL3880_lig167,312874

> <i_f3d_flags>
0

> <s_m_subgroup_title>
dock_pv

> <s_m_subgroupid>
dock_pv

> <b_m_subgroup_collapsed>
1

$$$$
CHEMBL3880_lig893
                    3D
 Schrodinger Suite 2021-1.
 41 43  0  0  1  0            999 V2000
   -1.8017   10.7685   26.2817 N   0  0  0  0  0  0
   -1.0897   10.0071   27.1243 C   0  0  0  0  0  0
    0.1731    9.5708   27.0060 N   0  0  0  0  0  0
   -1.1961   11.1882   25.1400 C   0  0  0  0  0  0
    0.1585   10.8531   24.9287 C   0  0  0  0  0  0
    0.7547   10.0432   25.8748 C   0  0  0  0  0  0
    2.0155    9.8331   25.3972 N   0  0  0  0  0  0
    2.1099   10.5140   24.2325 C   0  0  0  0  0  0
    1.0110   11.1660   23.9380 N   0  0  0  0  0  0
    3.5188   10.4602   23.1672 S   0  0  0  0  0  0
    4.5274   11.8095   23.7575 C   0  0  0  0  0  0
    5.9201   11.7760   23.5665 C   0  0  0  0  0  0
    6.7048   12.8571   23.9670 C   0  0  0  0  0  0
    6.1185   13.9733   24.5638 C   0  0  0  0  0  0
    4.7296   14.0218   24.7676 C   0  0  0  0  0  0
    3.9514   12.9340   24.3655 C   0  0  0  0  0  0
    4.0627   15.0835   25.3483 O   0  0  0  0  0  0
    4.8015   16.2283   25.7648 C   0  0  0  0  0  0
   -1.9390   11.9197   24.2235 N   0  0  0  0  0  0
    3.0403    8.9884   26.0263 C   0  0  0  0  0  0
    2.8593    7.5021   25.6511 C   0  0  0  0  0  0
    3.9432    6.5664   26.2305 C   0  0  0  0  0  0
    4.0823    6.5962   27.6989 C   0  0  0  0  0  0
    4.2168    6.6710   28.9101 C   0  0  0  0  0  0
    6.9114   10.1657   22.6519 I   0  0  0  0  0  0
   -1.6091    9.6869   28.0159 H   0  0  0  0  0  0
    7.7734   12.8327   23.8101 H   0  0  0  0  0  0
    6.7559   14.7928   24.8577 H   0  0  0  0  0  0
    2.8850   12.9964   24.5131 H   0  0  0  0  0  0
    4.1210   16.9498   26.2172 H   0  0  0  0  0  0
    5.5529   15.9749   26.5143 H   0  0  0  0  0  0
    5.2867   16.7178   24.9185 H   0  0  0  0  0  0
   -1.5257   12.1527   23.3338 H   0  0  0  0  0  0
   -2.9466   11.9864   24.3664 H   0  0  0  0  0  0
    4.0105    9.3805   25.7176 H   0  0  0  0  0  0
    2.9267    9.1524   27.0999 H   0  0  0  0  0  0
    1.8770    7.1624   25.9853 H   0  0  0  0  0  0
    2.8578    7.3996   24.5645 H   0  0  0  0  0  0
    3.7388    5.5350   25.9421 H   0  0  0  0  0  0
    4.9181    6.8207   25.8124 H   0  0  0  0  0  0
    4.3441    6.7682   29.9659 H   0  0  0  0  0  0
  1  2  2  0  0  0
  1  4  1  0  0  0
  2  3  1  0  0  0
  2 26  1  0  0  0
  3  6  2  0  0  0
  4  5  2  0  0  0
  4 19  1  0  0  0
  5  9  1  0  0  0
  5  6  1  0  0  0
  6  7  1  0  0  0
  7  8  1  0  0  0
  7 20  1  0  0  0
  8  9  2  0  0  0
  8 10  1  0  0  0
 10 11  1  0  0  0
 11 12  2  0  0  0
 11 16  1  0  0  0
 12 13  1  0  0  0
 12 25  1  0  0  0
 13 14  2  0  0  0
 13 27  1  0  0  0
 14 15  1  0  0  0
 14 28  1  0  0  0
 15 16  2  0  0  0
 15 17  1  0  0  0
 16 29  1  0  0  0
 17 18  1  0  0  0
 18 30  1  0  0  0
 18 31  1  0  0  0
 18 32  1  0  0  0
 19 33  1  0  0  0
 19 34  1  0  0  0
 20 21  1  0  0  0
 20 35  1  0  0  0
 20 36  1  0  0  0
 21 22  1  0  0  0
 21 37  1  0  0  0
 21 38  1  0  0  0
 22 23  1  0  0  0
 22 39  1  0  0  0
 22 40  1  0  0  0
 23 24  3  0  0  0
 24 41  1  0  0  0
M  END
> <s_m_entry_id>
5050

> <s_m_entry_name>
dock_pv.369

> <s_m_Source_Path>
/home/csk/Desktop/cluster/DUD-E-result/hs90a

> <s_m_Source_File>
dock_pv.maegz

> <i_m_Source_File_Index>
369

> <chembl_id>
CHEMBL191635

> <chembl_pref_name>
None

> <i_lp_mmshare_version>
53161

> <r_lp_tautomer_probability>
0.999997216410988

> <s_lp_Force_Field>
OPLS_2005

> <r_lp_Energy>
12.740966

> <b_lp_Chiralities_Consistent>
1

> <s_lp_Variant>
CHEMBL3880_lig893-1

> <s_i_glide_gridfile>
glide-grid_1uyg

> <i_i_glide_lignum>
999

> <i_i_glide_rotatable_bonds>
7

> <r_i_docking_score>
-7.38109460231423

> <r_i_glide_ligand_efficiency>
-0.295243784092569

> <r_i_glide_ligand_efficiency_sa>
-0.863298060857479

> <r_i_glide_ligand_efficiency_ln>
-1.74954061430448

> <r_i_glide_gscore>
-7.38109460231423

> <r_i_glide_lipo>
-3.01793238901946

> <r_i_glide_hbond>
-0.175121262027185

> <r_i_glide_metal>
0

> <r_i_glide_rewards>
-1.81316964906708

> <r_i_glide_evdw>
-43.7630081176758

> <r_i_glide_ecoul>
-4.60972118377686

> <r_i_glide_erotb>
0.558835967379257

> <r_i_glide_esite>
-0.0540986861294408

> <r_i_glide_emodel>
-65.4286015640592

> <r_i_glide_energy>
-48.3727293014526

> <r_i_glide_einternal>
4.85893440246582

> <i_i_glide_confnum>
42

> <i_i_glide_posenum>
304

> <r_i_glide_eff_state_penalty>
0

> <s_user_duplicate_titles>
CHEMBL3880_lig893,321070

> <i_f3d_flags>
0

> <s_m_subgroup_title>
dock_pv

> <s_m_subgroupid>
dock_pv

> <b_m_subgroup_collapsed>
1

$$$$
CHEMBL3880_lig458
                    3D
 Schrodinger Suite 2021-1.
 65 68  0  0  1  0            999 V2000
    8.4055   10.3698   23.2858 C   0  0  0  0  0  0
    7.5531   10.1946   22.1571 O   0  0  0  0  0  0
    6.4742    9.3365   22.2462 C   0  0  0  0  0  0
    5.6700    9.1729   21.1209 C   0  0  0  0  0  0
    4.6233    8.2562   21.1680 C   0  0  0  0  0  0
    4.3786    7.5482   22.3444 C   0  0  0  0  0  0
    5.2046    7.7798   23.4485 C   0  0  0  0  0  0
    6.2466    8.6524   23.4024 N   0  0  0  0  0  0
    4.9715    7.1407   24.7696 C   0  0  0  0  0  0
    5.9548    6.2739   25.2650 C   0  0  0  0  0  0
    5.8182    5.6711   26.5100 C   0  0  0  0  0  0
    6.8008    4.8780   26.9900 F   0  0  0  0  0  0
    4.6765    5.8997   27.2675 C   0  0  0  0  0  0
    3.6870    6.7572   26.7941 C   0  0  0  0  0  0
    3.8227    7.4136   25.5579 C   0  0  0  0  0  0
    2.7637    8.4501   25.1055 C   0  0  1  0  0  0
    1.5528    8.6689   26.0880 C   0  0  0  0  0  0
    0.6786    9.8152   25.5870 C   0  0  0  0  0  0
   -0.6576    9.7744   25.8019 N   0  0  0  0  0  0
   -1.3934   10.7695   25.2642 C   0  0  0  0  0  0
   -2.7390   10.7690   25.5667 N   0  0  0  0  0  0
   -0.9337   11.7697   24.4825 N   0  0  0  0  0  0
    0.4050   11.7983   24.2631 C   0  0  0  0  0  0
    0.8443   12.8945   23.3017 C   0  0  0  0  0  0
    1.2747   10.8470   24.8414 C   0  0  0  0  0  0
    2.7339   10.7798   24.6983 C   0  0  0  0  0  0
    3.4342    9.7186   24.7645 N   0  0  0  0  0  0
    3.3955   12.0259   24.7373 N   0  0  0  0  0  0
    4.1580   12.3456   23.5668 O   0  0  0  0  0  0
    5.4115   12.9346   23.9280 C   0  0  0  0  0  0
    5.2633   14.2403   24.7709 C   0  0  0  0  0  0
    4.1843   14.8447   24.7504 O   0  0  0  0  0  0
    6.2859   14.6596   25.5618 N   0  0  0  0  0  0
    6.0611   15.7698   26.4919 C   0  0  0  0  0  0
    7.6340   14.0690   25.6138 C   0  0  0  0  0  0
    8.7120   14.9477   24.9607 C   0  0  0  0  0  0
    9.9888   14.3765   25.1676 O   0  0  0  0  0  0
    9.3564   10.7689   22.9467 H   0  0  0  0  0  0
    7.9732   11.0857   23.9798 H   0  0  0  0  0  0
    8.6175    9.4445   23.8241 H   0  0  0  0  0  0
    5.8930    9.7119   20.2163 H   0  0  0  0  0  0
    4.0296    8.0777   20.2872 H   0  0  0  0  0  0
    3.5623    6.8427   22.3954 H   0  0  0  0  0  0
    6.8469    6.0813   24.6866 H   0  0  0  0  0  0
    4.5692    5.4296   28.2339 H   0  0  0  0  0  0
    2.8322    6.9213   27.4304 H   0  0  0  0  0  0
    2.3618    8.0262   24.1825 H   0  0  0  0  0  0
    1.9222    8.9575   27.0730 H   0  0  0  0  0  0
    0.9664    7.7580   26.2141 H   0  0  0  0  0  0
   -3.3714   11.4305   25.1117 H   0  0  0  0  0  0
   -3.1113   10.0137   26.1170 H   0  0  0  0  0  0
    1.6419   12.5487   22.6456 H   0  0  0  0  0  0
    0.0219   13.1966   22.6523 H   0  0  0  0  0  0
    1.1910   13.7722   23.8475 H   0  0  0  0  0  0
    2.8114   12.8384   24.8709 H   0  0  0  0  0  0
    5.9593   13.1693   23.0262 H   0  0  0  0  0  0
    6.0036   12.1441   24.3671 H   0  0  0  0  0  0
    5.2335   15.5391   27.1645 H   0  0  0  0  0  0
    6.9338   15.9688   27.1120 H   0  0  0  0  0  0
    5.8011   16.6790   25.9487 H   0  0  0  0  0  0
    7.6614   13.0935   25.1349 H   0  0  0  0  0  0
    7.8838   13.9132   26.6641 H   0  0  0  0  0  0
    8.6922   15.9529   25.3832 H   0  0  0  0  0  0
    8.4995   15.0855   23.8999 H   0  0  0  0  0  0
   10.2147   14.4553   26.0993 H   0  0  0  0  0  0
  1  2  1  0  0  0
  1 38  1  0  0  0
  1 39  1  0  0  0
  1 40  1  0  0  0
  2  3  1  0  0  0
  3  4  2  0  0  0
  3  8  1  0  0  0
  4  5  1  0  0  0
  4 41  1  0  0  0
  5  6  2  0  0  0
  5 42  1  0  0  0
  6  7  1  0  0  0
  6 43  1  0  0  0
  7  8  2  0  0  0
  7  9  1  0  0  0
  9 10  2  0  0  0
  9 15  1  0  0  0
 10 11  1  0  0  0
 10 44  1  0  0  0
 11 12  1  0  0  0
 11 13  2  0  0  0
 13 14  1  0  0  0
 13 45  1  0  0  0
 14 15  2  0  0  0
 14 46  1  0  0  0
 15 16  1  0  0  0
 16 17  1  0  0  0
 16 27  1  0  0  0
 16 47  1  0  0  0
 17 18  1  0  0  0
 17 48  1  0  0  0
 17 49  1  0  0  0
 18 19  2  0  0  0
 18 25  1  0  0  0
 19 20  1  0  0  0
 20 21  1  0  0  0
 20 22  2  0  0  0
 21 50  1  0  0  0
 21 51  1  0  0  0
 22 23  1  0  0  0
 23 24  1  0  0  0
 23 25  2  0  0  0
 24 52  1  0  0  0
 24 53  1  0  0  0
 24 54  1  0  0  0
 25 26  1  0  0  0
 26 27  2  0  0  0
 26 28  1  0  0  0
 28 29  1  0  0  0
 28 55  1  0  0  0
 29 30  1  0  0  0
 30 31  1  0  0  0
 30 56  1  0  0  0
 30 57  1  0  0  0
 31 32  2  0  0  0
 31 33  1  0  0  0
 33 34  1  0  0  0
 33 35  1  0  0  0
 34 58  1  0  0  0
 34 59  1  0  0  0
 34 60  1  0  0  0
 35 36  1  0  0  0
 35 61  1  0  0  0
 35 62  1  0  0  0
 36 37  1  0  0  0
 36 63  1  0  0  0
 36 64  1  0  0  0
 37 65  1  0  0  0
M  END
> <s_m_entry_id>
5051

> <s_m_entry_name>
dock_pv.370

> <s_m_Source_Path>
/home/csk/Desktop/cluster/DUD-E-result/hs90a

> <s_m_Source_File>
dock_pv.maegz

> <i_m_Source_File_Index>
370

> <chembl_id>
CHEMBL3675273

> <chembl_pref_name>
None

> <i_lp_mmshare_version>
53161

> <r_lp_tautomer_probability>
1

> <s_lp_Force_Field>
OPLS_2005

> <r_lp_Energy>
31.512536

> <b_lp_Chiralities_Consistent>
1

> <s_lp_Variant>
CHEMBL3880_lig458-1

> <s_i_glide_gridfile>
glide-grid_1uyg

> <i_i_glide_lignum>
504

> <i_i_glide_rotatable_bonds>
11

> <r_i_docking_score>
-7.36433993159202

> <r_i_glide_ligand_efficiency>
-0.199036214367352

> <r_i_glide_ligand_efficiency_sa>
-0.663232821985485

> <r_i_glide_ligand_efficiency_ln>
-1.59715268653932

> <r_i_glide_gscore>
-7.36433993159202

> <r_i_glide_lipo>
-3.03935723413093

> <r_i_glide_hbond>
-0.456

> <r_i_glide_metal>
0

> <r_i_glide_rewards>
-0.965431151896404

> <r_i_glide_evdw>
-51.360294342041

> <r_i_glide_ecoul>
-6.38534498214722

> <r_i_glide_erotb>
0.709969165905392

> <r_i_glide_esite>
-0.0877042470459456

> <r_i_glide_emodel>
-72.8029751871881

> <r_i_glide_energy>
-57.7456393241882

> <r_i_glide_einternal>
8.7709493637085

> <i_i_glide_confnum>
1

> <i_i_glide_posenum>
32

> <r_i_glide_eff_state_penalty>
0

> <s_user_duplicate_titles>
CHEMBL3880_lig458

> <i_f3d_flags>
0

> <s_m_subgroup_title>
dock_pv

> <s_m_subgroupid>
dock_pv

> <b_m_subgroup_collapsed>
1

$$$$
CHEMBL3880_lig419
                    3D
 Schrodinger Suite 2021-1.
 54 56  0  0  1  0            999 V2000
    7.5789   13.2475   24.7666 C   0  0  0  0  0  0
    6.8417   14.3252   25.2541 C   0  0  0  0  0  0
    5.4619   14.3739   25.0803 C   0  0  0  0  0  0
    4.8049   13.3574   24.3669 C   0  0  0  0  0  0
    5.5741   12.3478   23.7700 C   0  0  0  0  0  0
    6.9603   12.2600   23.9663 C   0  0  0  0  0  0
    7.7262   11.0593   23.3669 C   0  0  0  0  0  0
    7.5655   10.9899   21.8418 C   0  0  0  0  0  0
    7.3100    9.6990   23.9664 C   0  0  0  0  0  0
    8.8853   13.1689   25.1670 O   0  0  0  0  0  0
    4.7853   15.4115   25.6685 O   0  0  0  0  0  0
    3.3146   13.2981   24.2205 C   0  0  0  0  0  0
    2.6681   14.4842   24.1586 O   0  0  0  0  0  0
    1.3142   14.2538   23.9668 N   0  0  0  0  0  0
    1.1411   12.9458   23.8961 C   0  0  0  0  0  0
    2.3747   12.2751   24.0991 C   0  0  0  0  0  0
    2.6396   10.8408   24.1466 C   0  0  0  0  0  0
   -0.1694   12.3411   23.6794 C   0  0  0  0  0  0
   -1.0561   13.1636   23.0866 N   0  0  0  0  0  0
   -0.4160   11.1693   23.9629 O   0  0  0  0  0  0
    2.8389    9.6375   24.2013 C   0  0  0  0  0  0
    3.0343    8.1757   24.2972 C   0  0  0  0  0  0
   -2.3730   12.8229   22.5620 C   0  0  0  0  0  0
   -2.5645   13.4330   21.1674 C   0  0  0  0  0  0
    1.8014    7.4521   24.8816 C   0  0  0  0  0  0
    1.0957    6.8165   23.6825 C   0  0  0  0  0  0
    2.2489    6.3927   22.7747 C   0  0  0  0  0  0
    3.2987    7.5045   22.9256 C   0  0  0  0  0  0
    7.3369   15.0807   25.8483 H   0  0  0  0  0  0
    5.0849   11.5853   23.1818 H   0  0  0  0  0  0
    8.7932   11.1696   23.5641 H   0  0  0  0  0  0
    7.6629   11.9748   21.3862 H   0  0  0  0  0  0
    8.3115   10.3340   21.3954 H   0  0  0  0  0  0
    6.5895   10.5919   21.5675 H   0  0  0  0  0  0
    7.6677    9.5618   24.9820 H   0  0  0  0  0  0
    6.2275    9.5627   23.9668 H   0  0  0  0  0  0
    7.7358    8.8715   23.3978 H   0  0  0  0  0  0
    9.3079   12.3689   24.8447 H   0  0  0  0  0  0
    5.3758   16.0319   26.1001 H   0  0  0  0  0  0
   -0.8304   14.1459   23.0742 H   0  0  0  0  0  0
    3.8903    8.0256   24.9579 H   0  0  0  0  0  0
   -2.5262   11.7408   22.5192 H   0  0  0  0  0  0
   -3.1346   13.2176   23.2348 H   0  0  0  0  0  0
   -3.5384   13.1735   20.7590 H   0  0  0  0  0  0
   -2.5234   14.5213   21.1900 H   0  0  0  0  0  0
   -1.8073   13.0778   20.4653 H   0  0  0  0  0  0
    1.1332    8.0943   25.4590 H   0  0  0  0  0  0
    2.1340    6.6624   25.5584 H   0  0  0  0  0  0
    0.4636    7.5524   23.1826 H   0  0  0  0  0  0
    0.4610    5.9755   23.9670 H   0  0  0  0  0  0
    1.9272    6.2519   21.7425 H   0  0  0  0  0  0
    2.6585    5.4400   23.1159 H   0  0  0  0  0  0
    4.3079    7.0959   22.8707 H   0  0  0  0  0  0
    3.2120    8.2033   22.0913 H   0  0  0  0  0  0
  1  2  2  0  0  0
  1  6  1  0  0  0
  1 10  1  0  0  0
  2  3  1  0  0  0
  2 29  1  0  0  0
  3  4  2  0  0  0
  3 11  1  0  0  0
  4  5  1  0  0  0
  4 12  1  0  0  0
  5  6  2  0  0  0
  5 30  1  0  0  0
  6  7  1  0  0  0
  7  8  1  0  0  0
  7  9  1  0  0  0
  7 31  1  0  0  0
  8 32  1  0  0  0
  8 33  1  0  0  0
  8 34  1  0  0  0
  9 35  1  0  0  0
  9 36  1  0  0  0
  9 37  1  0  0  0
 10 38  1  0  0  0
 11 39  1  0  0  0
 12 13  1  0  0  0
 12 16  2  0  0  0
 13 14  1  0  0  0
 14 15  2  0  0  0
 15 16  1  0  0  0
 15 18  1  0  0  0
 16 17  1  0  0  0
 17 21  3  0  0  0
 18 19  1  0  0  0
 18 20  2  0  0  0
 19 23  1  0  0  0
 19 40  1  0  0  0
 21 22  1  0  0  0
 22 25  1  0  0  0
 22 28  1  0  0  0
 22 41  1  0  0  0
 23 24  1  0  0  0
 23 42  1  0  0  0
 23 43  1  0  0  0
 24 44  1  0  0  0
 24 45  1  0  0  0
 24 46  1  0  0  0
 25 26  1  0  0  0
 25 47  1  0  0  0
 25 48  1  0  0  0
 26 27  1  0  0  0
 26 49  1  0  0  0
 26 50  1  0  0  0
 27 28  1  0  0  0
 27 51  1  0  0  0
 27 52  1  0  0  0
 28 53  1  0  0  0
 28 54  1  0  0  0
M  END
> <s_m_entry_id>
5052

> <s_m_entry_name>
dock_pv.371

> <s_m_Source_Path>
/home/csk/Desktop/cluster/DUD-E-result/hs90a

> <s_m_Source_File>
dock_pv.maegz

> <i_m_Source_File_Index>
371

> <chembl_id>
CHEMBL3600498

> <chembl_pref_name>
None

> <i_lp_mmshare_version>
53161

> <r_lp_tautomer_probability>
0.999999999898

> <s_lp_Force_Field>
OPLS_2005

> <r_lp_Energy>
34.801225

> <b_lp_Chiralities_Consistent>
1

> <s_lp_Variant>
CHEMBL3880_lig419-1

> <s_i_glide_gridfile>
glide-grid_1uyg

> <i_i_glide_lignum>
461

> <i_i_glide_rotatable_bonds>
9

> <r_i_docking_score>
-7.36238606902454

> <r_i_glide_ligand_efficiency>
-0.262942359608019

> <r_i_glide_ligand_efficiency_sa>
-0.798447868537812

> <r_i_glide_ligand_efficiency_ln>
-1.69945487377898

> <r_i_glide_gscore>
-7.36238606902454

> <r_i_glide_lipo>
-3.61061406076223

> <r_i_glide_hbond>
-0.0178392903703749

> <r_i_glide_metal>
0

> <r_i_glide_rewards>
-1.81631678538104

> <r_i_glide_evdw>
-41.197925567627

> <r_i_glide_ecoul>
-3.47747111320496

> <r_i_glide_erotb>
0.663901012851193

> <r_i_glide_esite>
0

> <r_i_glide_emodel>
-62.91163743508

> <r_i_glide_energy>
-44.6753966808319

> <r_i_glide_einternal>
8.25506782531738

> <i_i_glide_confnum>
31

> <i_i_glide_posenum>
219

> <r_i_glide_eff_state_penalty>
0

> <s_user_duplicate_titles>
CHEMBL3880_lig419

> <i_f3d_flags>
0

> <s_m_subgroup_title>
dock_pv

> <s_m_subgroupid>
dock_pv

> <b_m_subgroup_collapsed>
1

$$$$
CHEMBL3880_lig99
                    3D
 Schrodinger Suite 2021-1.
 69 72  0  0  1  0            999 V2000
    4.0841   14.5932   24.9246 S   0  0  0  0  0  0
   -1.9231   10.3698   24.6178 O   0  0  0  0  0  0
    5.1694   12.5095   23.8112 N   0  0  0  0  0  0
    2.8215   12.5974   23.5669 N   0  0  0  0  0  0
   -0.3874   10.6680   26.2459 N   0  0  0  0  0  0
    1.4137    7.5027   28.7986 N   0  0  2  0  0  0
    6.2026   13.1989   24.3670 C   0  0  0  0  0  0
    5.8247   14.3782   25.0619 C   0  0  0  0  0  0
    4.0271   13.1203   23.9671 C   0  0  0  0  0  0
    7.5441   12.7698   24.3668 C   0  0  0  0  0  0
    6.7688   15.1491   25.7519 C   0  0  0  0  0  0
    8.0944   14.7070   25.7611 C   0  0  0  0  0  0
    8.4602   13.5367   25.0970 C   0  0  0  0  0  0
    1.5829   13.3590   23.3377 C   0  0  0  0  0  0
    2.6299   11.2018   23.1445 C   0  0  0  0  0  0
    0.1784   11.2984   23.9158 C   0  0  0  0  0  0
    0.4255   12.7997   24.1779 C   0  0  0  0  0  0
    1.5236   10.5182   23.9765 C   0  0  0  0  0  0
    8.0103   11.4887   23.6852 C   0  0  0  0  0  0
   -0.8051   10.7371   24.9677 C   0  0  0  0  0  0
    9.1488   15.4805   26.5329 C   0  0  0  0  0  0
    1.3072    6.4067   31.0050 C   0  0  1  0  0  0
    3.3466    6.0438   29.4904 C   0  0  2  0  0  0
    1.1049    7.7158   30.2175 C   0  0  0  0  0  0
    2.8660    7.2936   28.6993 C   0  0  0  0  0  0
   -1.1272   10.0429   27.3431 C   0  0  0  0  0  0
    2.7967    6.0219   30.9412 C   0  0  0  0  0  0
    0.9785    8.6261   27.9642 C   0  0  0  0  0  0
   -0.5525    8.6616   27.7265 C   0  0  0  0  0  0
    0.7302    6.4925   32.4284 C   0  0  0  0  0  0
    4.8783    5.9066   29.4642 C   0  0  0  0  0  0
    0.5239   11.0406   26.4681 H   0  0  0  0  0  0
    6.4714   16.0404   26.2872 H   0  0  0  0  0  0
    9.4858   13.2025   25.1664 H   0  0  0  0  0  0
    1.3372   13.3146   22.2768 H   0  0  0  0  0  0
    1.7182   14.4176   23.5577 H   0  0  0  0  0  0
    2.4111   11.1785   22.0764 H   0  0  0  0  0  0
    3.5540   10.6352   23.2656 H   0  0  0  0  0  0
   -0.2873   11.1700   22.9393 H   0  0  0  0  0  0
   -0.4639   13.3918   23.9640 H   0  0  0  0  0  0
    0.7616   12.9803   25.1809 H   0  0  0  0  0  0
    1.9412   10.4683   24.9845 H   0  0  0  0  0  0
    1.4099    9.5107   23.5712 H   0  0  0  0  0  0
    9.0033   11.1720   24.0080 H   0  0  0  0  0  0
    7.3257   10.6716   23.9154 H   0  0  0  0  0  0
    8.0185   11.6169   22.6028 H   0  0  0  0  0  0
   10.0351   14.8757   26.7331 H   0  0  0  0  0  0
    9.4487   16.3679   25.9736 H   0  0  0  0  0  0
    8.7589   15.7836   27.5057 H   0  0  0  0  0  0
    0.7735    5.6282   30.4557 H   0  0  0  0  0  0
    2.8792    5.1892   28.9987 H   0  0  0  0  0  0
    0.0590    7.9691   30.3093 H   0  0  0  0  0  0
    1.6254    8.5701   30.6555 H   0  0  0  0  0  0
    3.4077    8.1891   29.0131 H   0  0  0  0  0  0
    3.1374    7.1560   27.6511 H   0  0  0  0  0  0
   -2.1949    9.9695   27.1245 H   0  0  0  0  0  0
   -1.0594   10.7154   28.1962 H   0  0  0  0  0  0
    3.3261    6.7692   31.5301 H   0  0  0  0  0  0
    3.0235    5.0880   31.4548 H   0  0  0  0  0  0
    1.3374    9.5689   28.3660 H   0  0  0  0  0  0
    1.4536    8.5304   26.9858 H   0  0  0  0  0  0
   -0.7372    8.0070   26.8743 H   0  0  0  0  0  0
   -1.1253    8.2041   28.5310 H   0  0  0  0  0  0
    1.2228    7.2761   33.0067 H   0  0  0  0  0  0
    0.8547    5.5553   32.9700 H   0  0  0  0  0  0
   -0.3354    6.7217   32.4070 H   0  0  0  0  0  0
    5.3564    6.7657   29.9383 H   0  0  0  0  0  0
    5.2083    5.0155   29.9963 H   0  0  0  0  0  0
    5.2538    5.8397   28.4428 H   0  0  0  0  0  0
  1  8  1  0  0  0
  1  9  1  0  0  0
  2 20  2  0  0  0
  3  7  1  0  0  0
  3  9  2  0  0  0
  4  9  1  0  0  0
  4 14  1  0  0  0
  4 15  1  0  0  0
  5 20  1  0  0  0
  5 26  1  0  0  0
  5 32  1  0  0  0
  6 24  1  0  0  0
  6 25  1  0  0  0
  6 28  1  0  0  0
  7  8  1  0  0  0
  7 10  2  0  0  0
  8 11  2  0  0  0
 10 13  1  0  0  0
 10 19  1  0  0  0
 11 12  1  0  0  0
 11 33  1  0  0  0
 12 13  2  0  0  0
 12 21  1  0  0  0
 13 34  1  0  0  0
 14 17  1  0  0  0
 14 35  1  0  0  0
 14 36  1  0  0  0
 15 18  1  0  0  0
 15 37  1  0  0  0
 15 38  1  0  0  0
 16 17  1  0  0  0
 16 18  1  0  0  0
 16 20  1  0  0  0
 16 39  1  0  0  0
 17 40  1  0  0  0
 17 41  1  0  0  0
 18 42  1  0  0  0
 18 43  1  0  0  0
 19 44  1  0  0  0
 19 45  1  0  0  0
 19 46  1  0  0  0
 21 47  1  0  0  0
 21 48  1  0  0  0
 21 49  1  0  0  0
 22 24  1  0  0  0
 22 27  1  0  0  0
 22 30  1  0  0  0
 22 50  1  0  0  0
 23 25  1  0  0  0
 23 27  1  0  0  0
 23 31  1  0  0  0
 23 51  1  0  0  0
 24 52  1  0  0  0
 24 53  1  0  0  0
 25 54  1  0  0  0
 25 55  1  0  0  0
 26 29  1  0  0  0
 26 56  1  0  0  0
 26 57  1  0  0  0
 27 58  1  0  0  0
 27 59  1  0  0  0
 28 29  1  0  0  0
 28 60  1  0  0  0
 28 61  1  0  0  0
 29 62  1  0  0  0
 29 63  1  0  0  0
 30 64  1  0  0  0
 30 65  1  0  0  0
 30 66  1  0  0  0
 31 67  1  0  0  0
 31 68  1  0  0  0
 31 69  1  0  0  0
M  END
> <s_m_entry_id>
5053

> <s_m_entry_name>
dock_pv.372

> <s_m_Source_Path>
/home/csk/Desktop/cluster/DUD-E-result/hs90a

> <s_m_Source_File>
dock_pv.maegz

> <i_m_Source_File_Index>
372

> <chembl_id>
CHEMBL1562186

> <chembl_pref_name>
None

> <i_lp_mmshare_version>
53161

> <r_lp_tautomer_probability>
1

> <s_lp_Force_Field>
OPLS_2005

> <r_lp_Energy>
28.564667

> <b_lp_Chiralities_Consistent>
1

> <s_lp_Variant>
CHEMBL3880_lig99-2

> <s_i_glide_gridfile>
glide-grid_1uyg

> <i_i_glide_lignum>
112

> <i_i_glide_rotatable_bonds>
7

> <r_i_docking_score>
-7.35198134626807

> <r_i_glide_ligand_efficiency>
-0.237160688589293

> <r_i_glide_ligand_efficiency_sa>
-0.745011997789436

> <r_i_glide_ligand_efficiency_ln>
-1.65809710475286

> <r_i_glide_gscore>
-7.35198134626807

> <r_i_glide_lipo>
-4.30032572274834

> <r_i_glide_hbond>
0

> <r_i_glide_metal>
0

> <r_i_glide_rewards>
-1.61170210867554

> <r_i_glide_evdw>
-46.0785446166992

> <r_i_glide_ecoul>
1.00020515918732

> <r_i_glide_erotb>
0.713942942112672

> <r_i_glide_esite>
0

> <r_i_glide_emodel>
-56.1884733428999

> <r_i_glide_energy>
-45.0783394575119

> <r_i_glide_einternal>
7.35013008117676

> <i_i_glide_confnum>
18

> <i_i_glide_posenum>
328

> <r_i_glide_eff_state_penalty>
0

> <s_user_duplicate_titles>
CHEMBL3880_lig99

> <i_f3d_flags>
0

> <s_m_subgroup_title>
dock_pv

> <s_m_subgroupid>
dock_pv

> <b_m_subgroup_collapsed>
1

$$$$
CHEMBL3880_lig22
                    3D
 Schrodinger Suite 2021-1.
 25 26  0  0  1  0            999 V2000
    6.9153    9.1859   23.0416 C   0  0  0  0  0  0
    7.1702   10.5288   23.3136 C   0  0  0  0  0  0
    6.1160   11.4094   23.5523 C   0  0  0  0  0  0
    4.7793   10.9748   23.5465 C   0  0  0  0  0  0
    4.5490    9.6088   23.3078 C   0  0  0  0  0  0
    5.5913    8.7203   23.0394 C   0  0  0  0  0  0
    3.6405   11.9395   23.7260 C   0  0  0  0  0  0
    2.3384   11.6141   23.3016 C   0  0  0  0  0  0
    1.2895   12.5216   23.4291 C   0  0  0  0  0  0
    1.5333   13.7828   23.9612 C   0  0  0  0  0  0
    2.8149   14.1352   24.3678 C   0  0  0  0  0  0
    3.8494   13.2122   24.2814 C   0  0  0  0  0  0
    5.2648    7.3869   22.7673 N   0  0  0  0  0  0
    7.9834    8.3674   22.7670 O   0  0  0  0  0  0
    8.1896   10.8946   23.3130 H   0  0  0  0  0  0
    6.3679   12.4467   23.7119 H   0  0  0  0  0  0
    3.5460    9.2135   23.3158 H   0  0  0  0  0  0
    2.1154   10.6618   22.8474 H   0  0  0  0  0  0
    0.2960   12.2514   23.1027 H   0  0  0  0  0  0
    0.7232   14.4942   24.0479 H   0  0  0  0  0  0
    3.0026   15.1207   24.7685 H   0  0  0  0  0  0
    4.8217   13.5192   24.6336 H   0  0  0  0  0  0
    4.2880    7.1425   22.6895 H   0  0  0  0  0  0
    5.9600    6.7750   22.3578 H   0  0  0  0  0  0
    7.7346    7.6119   22.2234 H   0  0  0  0  0  0
  1  6  1  0  0  0
  1  2  2  0  0  0
  1 14  1  0  0  0
  2  3  1  0  0  0
  2 15  1  0  0  0
  3  4  2  0  0  0
  3 16  1  0  0  0
  4  5  1  0  0  0
  4  7  1  0  0  0
  5  6  2  0  0  0
  5 17  1  0  0  0
  6 13  1  0  0  0
  7  8  2  0  0  0
  7 12  1  0  0  0
  8  9  1  0  0  0
  8 18  1  0  0  0
  9 10  2  0  0  0
  9 19  1  0  0  0
 10 11  1  0  0  0
 10 20  1  0  0  0
 11 12  2  0  0  0
 11 21  1  0  0  0
 12 22  1  0  0  0
 13 23  1  0  0  0
 13 24  1  0  0  0
 14 25  1  0  0  0
M  END
> <s_m_entry_id>
5054

> <s_m_entry_name>
dock_pv.373

> <s_m_Source_Path>
/home/csk/Desktop/cluster/DUD-E-result/hs90a

> <s_m_Source_File>
dock_pv.maegz

> <i_m_Source_File_Index>
373

> <chembl_id>
CHEMBL574583

> <chembl_pref_name>
None

> <i_lp_mmshare_version>
53161

> <r_lp_tautomer_probability>
1

> <s_lp_Force_Field>
OPLS_2005

> <r_lp_Energy>
12.433554

> <b_lp_Chiralities_Consistent>
1

> <s_lp_Variant>
CHEMBL3880_lig22-1

> <s_i_glide_gridfile>
glide-grid_1uyg

> <i_i_glide_lignum>
25

> <i_i_glide_rotatable_bonds>
2

> <r_i_docking_score>
-7.34894403640351

> <r_i_glide_ligand_efficiency>
-0.524924574028822

> <r_i_glide_ligand_efficiency_sa>
-1.26514290025812

> <r_i_glide_ligand_efficiency_ln>
-2.01946366071141

> <r_i_glide_gscore>
-7.34894403640351

> <r_i_glide_lipo>
-2.91162516451409

> <r_i_glide_hbond>
-0.460685381525139

> <r_i_glide_metal>
0

> <r_i_glide_rewards>
-2.53809047556703

> <r_i_glide_evdw>
-23.6925849914551

> <r_i_glide_ecoul>
-4.74041223526001

> <r_i_glide_erotb>
0.46375767805688

> <r_i_glide_esite>
-0.00660960799238435

> <r_i_glide_emodel>
-40.0418013990361

> <r_i_glide_energy>
-28.4329972267151

> <r_i_glide_einternal>
0.836342990398407

> <i_i_glide_confnum>
1

> <i_i_glide_posenum>
126

> <r_i_glide_eff_state_penalty>
0

> <s_user_duplicate_titles>
CHEMBL3880_lig22

> <i_f3d_flags>
0

> <s_m_subgroup_title>
dock_pv

> <s_m_subgroupid>
dock_pv

> <b_m_subgroup_collapsed>
1

$$$$
CHEMBL3880_lig80
                    3D
 Schrodinger Suite 2021-1.
 37 39  0  0  1  0            999 V2000
    3.6399   11.0948   24.7666 S   0  0  0  0  0  0
    3.1286    7.5067   23.4142 O   0  0  0  0  0  0
   -0.7392   11.1573   26.6798 O   0  0  0  0  0  0
   -1.5391   13.4894   20.7685 O   0  0  0  0  0  0
    0.5903   10.4329   24.9509 N   0  0  0  0  0  0
    1.4067    9.4184   24.4941 N   0  0  0  0  0  0
    2.6677    9.6351   24.3391 C   0  0  0  0  0  0
    4.8609    9.2050   23.4298 C   0  0  0  0  0  0
    3.5216    8.6378   23.7089 C   0  0  0  0  0  0
    5.0247   10.5189   23.8607 C   0  0  0  0  0  0
    0.0048   11.2902   23.9671 C   0  0  0  0  0  0
    5.9093    8.5645   22.7614 C   0  0  0  0  0  0
    6.2037   11.2151   23.5835 C   0  0  0  0  0  0
    0.1009   10.3684   26.2327 C   0  0  0  0  0  0
    7.0980    9.2519   22.5018 C   0  0  0  0  0  0
   -1.3901   11.3971   23.8280 C   0  0  0  0  0  0
    0.8189   11.9692   23.0463 C   0  0  0  0  0  0
    7.2440   10.5789   22.9059 C   0  0  0  0  0  0
   -1.1082   12.7689   21.8553 C   0  0  0  0  0  0
   -1.9390   12.1419   22.7892 C   0  0  0  0  0  0
    0.2649   12.6826   21.9973 C   0  0  0  0  0  0
    0.6200    9.2916   27.1973 C   0  0  0  0  0  0
   -2.8652   13.9651   20.7674 C   0  0  0  0  0  0
    5.8119    7.5452   22.4129 H   0  0  0  0  0  0
    6.3297   12.2365   23.9119 H   0  0  0  0  0  0
    7.9010    8.7552   21.9766 H   0  0  0  0  0  0
   -2.0644   10.8839   24.4997 H   0  0  0  0  0  0
    1.8900   11.9329   23.0782 H   0  0  0  0  0  0
    8.1628   11.1108   22.7026 H   0  0  0  0  0  0
   -3.0130   12.1993   22.7124 H   0  0  0  0  0  0
    0.8942   13.1713   21.2752 H   0  0  0  0  0  0
    1.6813    9.4424   27.3952 H   0  0  0  0  0  0
    0.0887    9.3371   28.1482 H   0  0  0  0  0  0
    0.4771    8.2940   26.7818 H   0  0  0  0  0  0
   -2.9045   14.7636   20.0341 H   0  0  0  0  0  0
   -3.1825   14.3789   21.7262 H   0  0  0  0  0  0
   -3.5389   13.1692   20.4621 H   0  0  0  0  0  0
  1  7  1  0  0  0
  1 10  1  0  0  0
  2  9  2  0  0  0
  3 14  2  0  0  0
  4 19  1  0  0  0
  4 23  1  0  0  0
  5  6  1  0  0  0
  5 11  1  0  0  0
  5 14  1  0  0  0
  6  7  2  0  0  0
  7  9  1  0  0  0
  8  9  1  0  0  0
  8 10  1  0  0  0
  8 12  2  0  0  0
 10 13  2  0  0  0
 11 16  2  0  0  0
 11 17  1  0  0  0
 12 15  1  0  0  0
 12 24  1  0  0  0
 13 18  1  0  0  0
 13 25  1  0  0  0
 14 22  1  0  0  0
 15 18  2  0  0  0
 15 26  1  0  0  0
 16 20  1  0  0  0
 16 27  1  0  0  0
 17 21  2  0  0  0
 17 28  1  0  0  0
 18 29  1  0  0  0
 19 20  2  0  0  0
 19 21  1  0  0  0
 20 30  1  0  0  0
 21 31  1  0  0  0
 22 32  1  0  0  0
 22 33  1  0  0  0
 22 34  1  0  0  0
 23 35  1  0  0  0
 23 36  1  0  0  0
 23 37  1  0  0  0
M  END
> <s_m_entry_id>
5055

> <s_m_entry_name>
dock_pv.374

> <s_m_Source_Path>
/home/csk/Desktop/cluster/DUD-E-result/hs90a

> <s_m_Source_File>
dock_pv.maegz

> <i_m_Source_File_Index>
374

> <chembl_id>
CHEMBL3209766

> <chembl_pref_name>
None

> <i_lp_mmshare_version>
53161

> <r_lp_tautomer_probability>
1

> <s_lp_Force_Field>
OPLS_2005

> <r_lp_Energy>
42.711694

> <b_lp_Chiralities_Consistent>
1

> <s_lp_Variant>
CHEMBL3880_lig80-1

> <s_i_glide_gridfile>
glide-grid_1uyg

> <i_i_glide_lignum>
90

> <i_i_glide_rotatable_bonds>
4

> <r_i_docking_score>
-7.34459596625021

> <r_i_glide_ligand_efficiency>
-0.319330259402183

> <r_i_glide_ligand_efficiency_sa>
-0.908132779432155

> <r_i_glide_ligand_efficiency_ln>
-1.77598990175351

> <r_i_glide_gscore>
-7.34459596625021

> <r_i_glide_lipo>
-2.68081097239066

> <r_i_glide_hbond>
-0.278809840486894

> <r_i_glide_metal>
0

> <r_i_glide_rewards>
-2.01367250377588

> <r_i_glide_evdw>
-39.6843528747559

> <r_i_glide_ecoul>
-4.92807102203369

> <r_i_glide_erotb>
0.352125647446071

> <r_i_glide_esite>
0

> <r_i_glide_emodel>
-59.9899351359422

> <r_i_glide_energy>
-44.6124238967896

> <r_i_glide_einternal>
6.8600754737854

> <i_i_glide_confnum>
6

> <i_i_glide_posenum>
243

> <r_i_glide_eff_state_penalty>
0

> <s_user_duplicate_titles>
CHEMBL3880_lig80

> <i_f3d_flags>
0

> <s_m_subgroup_title>
dock_pv

> <s_m_subgroupid>
dock_pv

> <b_m_subgroup_collapsed>
1

$$$$
CHEMBL3880_lig142
                    3D
 Schrodinger Suite 2021-1.
 48 50  0  0  1  0            999 V2000
    7.1317   10.3682   22.9680 P   0  0  0  0  0  0
    7.2040   10.1447   21.5036 O   0  0  0  0  0  0
    5.6685   10.7722   23.5308 O   0  0  0  0  0  0
    8.0588   11.5694   23.5224 O   0  0  0  0  0  0
    7.4073    7.3624   23.9909 P   0  0  2  0  0  0
    7.6754    6.7386   25.3361 O   0  0  0  0  0  0
    8.4609    6.8426   22.7674 O   0  0  0  0  0  0
    7.5784    9.1088   23.9675 N   0  0  3  0  0  0
    4.3119    7.4471   23.8602 P   0  0  1  0  0  0
    4.0183    8.9034   23.9279 O   0  0  0  0  0  0
    3.4313    6.6134   22.7858 O   0  0  0  0  0  0
    5.8292    7.1174   23.4247 O   0  0  0  0  0  0
    4.1568    6.6055   25.2507 O   0  0  0  0  0  0
    2.8936    6.2088   25.7694 C   0  0  0  0  0  0
    2.4328    7.1616   26.8881 C   0  0  1  0  0  0
    1.8726    8.3144   26.3013 O   0  0  0  0  0  0
    1.2380    6.6905   27.7133 C   0  0  1  0  0  0
    1.6003    5.8105   28.7653 O   0  0  0  0  0  0
    0.5761    7.9889   28.2125 C   0  0  1  0  0  0
    0.8858    8.3336   29.5598 O   0  0  0  0  0  0
    1.1635    9.0524   27.2498 C   0  0  2  0  0  0
    0.1718    9.9595   26.5362 N   0  0  0  0  0  0
   -1.1317   10.1861   26.8039 C   0  0  0  0  0  0
   -1.7296   10.9490   25.9264 N   0  0  0  0  0  0
   -0.7726   11.2427   25.0331 C   0  0  0  0  0  0
   -0.7936   11.9998   23.8378 C   0  0  0  0  0  0
   -1.9390   12.5962   23.3277 N   0  0  0  0  0  0
    0.3642   12.1596   23.1437 N   0  0  0  0  0  0
    1.4663   11.5744   23.6300 C   0  0  0  0  0  0
    1.6048   10.8172   24.7274 N   0  0  0  0  0  0
    0.4347   10.6773   25.3978 C   0  0  0  0  0  0
    5.0256   10.0276   23.6621 H   0  0  0  0  0  0
    8.7853   11.8612   22.9310 H   0  0  0  0  0  0
    8.1317    6.7714   21.8364 H   0  0  0  0  0  0
    8.2716    9.4238   24.6406 H   0  0  0  0  0  0
    2.8947    7.1614   22.1798 H   0  0  0  0  0  0
    2.1396    6.1173   24.9853 H   0  0  0  0  0  0
    3.0363    5.2134   26.1906 H   0  0  0  0  0  0
    3.2720    7.4345   27.5328 H   0  0  0  0  0  0
    0.5386    6.1826   27.0452 H   0  0  0  0  0  0
    1.9155    6.3716   29.4833 H   0  0  0  0  0  0
   -0.5026    7.8965   28.0866 H   0  0  0  0  0  0
    0.2191    8.9356   29.9168 H   0  0  0  0  0  0
    1.8938    9.7019   27.7333 H   0  0  0  0  0  0
   -1.6128    9.7485   27.6661 H   0  0  0  0  0  0
   -2.8416   12.3750   23.7440 H   0  0  0  0  0  0
   -1.8821   13.0554   22.4325 H   0  0  0  0  0  0
    2.3680   11.7220   23.0532 H   0  0  0  0  0  0
  1  2  2  0  0  0
  1  3  1  0  0  0
  1  4  1  0  0  0
  1  8  1  0  0  0
  3 32  1  0  0  0
  4 33  1  0  0  0
  5  6  2  0  0  0
  5  7  1  0  0  0
  5  8  1  0  0  0
  5 12  1  0  0  0
  7 34  1  0  0  0
  8 35  1  0  0  0
  9 10  2  0  0  0
  9 11  1  0  0  0
  9 12  1  0  0  0
  9 13  1  0  0  0
 11 36  1  0  0  0
 13 14  1  0  0  0
 14 15  1  0  0  0
 14 37  1  0  0  0
 14 38  1  0  0  0
 15 16  1  0  0  0
 15 17  1  0  0  0
 15 39  1  0  0  0
 16 21  1  0  0  0
 17 18  1  0  0  0
 17 19  1  0  0  0
 17 40  1  0  0  0
 18 41  1  0  0  0
 19 20  1  0  0  0
 19 21  1  0  0  0
 19 42  1  0  0  0
 20 43  1  0  0  0
 21 22  1  0  0  0
 21 44  1  0  0  0
 22 23  1  0  0  0
 22 31  1  0  0  0
 23 24  2  0  0  0
 23 45  1  0  0  0
 24 25  1  0  0  0
 25 26  1  0  0  0
 25 31  2  0  0  0
 26 27  1  0  0  0
 26 28  2  0  0  0
 27 46  1  0  0  0
 27 47  1  0  0  0
 28 29  1  0  0  0
 29 30  2  0  0  0
 29 48  1  0  0  0
 30 31  1  0  0  0
M  END
> <s_m_entry_id>
5056

> <s_m_entry_name>
dock_pv.375

> <s_m_Source_Path>
/home/csk/Desktop/cluster/DUD-E-result/hs90a

> <s_m_Source_File>
dock_pv.maegz

> <i_m_Source_File_Index>
375

> <chembl_id>
CHEMBL1230989

> <chembl_pref_name>
None

> <i_lp_mmshare_version>
53161

> <r_lp_tautomer_probability>
0.999997216410988

> <s_lp_Force_Field>
OPLS_2005

> <r_lp_Energy>
17.543268

> <b_lp_Chiralities_Consistent>
1

> <s_lp_Variant>
CHEMBL3880_lig142-3

> <s_i_glide_gridfile>
glide-grid_1uyg

> <i_i_glide_lignum>
161

> <i_i_glide_rotatable_bonds>
14

> <r_i_docking_score>
-7.32234637572972

> <r_i_glide_ligand_efficiency>
-0.236204721797733

> <r_i_glide_ligand_efficiency_sa>
-0.74200894220954

> <r_i_glide_ligand_efficiency_ln>
-1.65141351069369

> <r_i_glide_gscore>
-7.32234637572972

> <r_i_glide_lipo>
-0.785728171805459

> <r_i_glide_hbond>
-0.124354300139432

> <r_i_glide_metal>
0

> <r_i_glide_rewards>
-1.67942048921073

> <r_i_glide_evdw>
-48.5450286865234

> <r_i_glide_ecoul>
-19.6288776397705

> <r_i_glide_erotb>
0.638739665717655

> <r_i_glide_esite>
0

> <r_i_glide_emodel>
-91.6959684943201

> <r_i_glide_energy>
-68.1739063262939

> <r_i_glide_einternal>
9.66244506835938

> <i_i_glide_confnum>
218

> <i_i_glide_posenum>
76

> <r_i_glide_eff_state_penalty>
0

> <s_user_duplicate_titles>
CHEMBL3880_lig142

> <i_f3d_flags>
0

> <s_m_subgroup_title>
dock_pv

> <s_m_subgroupid>
dock_pv

> <b_m_subgroup_collapsed>
1

$$$$
CHEMBL3880_lig977
                    3D
 Schrodinger Suite 2021-1.
 52 55  0  0  1  0            999 V2000
    0.5534   13.5969   23.9660 C   0  0  0  0  0  0
    0.2675   12.3824   23.0657 C   0  0  0  0  0  0
    0.0718   12.7745   21.5897 C   0  0  0  0  0  0
    5.7299   10.6084   23.6145 C   0  0  0  0  0  0
    4.4570   10.6737   24.1664 C   0  0  0  0  0  0
    5.4053    8.2353   23.2782 C   0  0  0  0  0  0
    6.2163    9.3726   23.1605 C   0  0  0  0  0  0
    3.6570    9.5321   24.2861 C   0  0  0  0  0  0
    4.1330    8.2670   23.8727 C   0  0  0  0  0  0
    3.3747    7.0921   24.0809 N   0  0  0  0  0  0
    2.9779    6.7256   25.4550 C   0  0  0  0  0  0
    2.6887    7.8462   26.4747 C   0  0  0  0  0  0
    1.8521    8.9637   25.8975 C   0  0  0  0  0  0
    2.3656    9.6835   24.8398 N   0  0  0  0  0  0
    0.5960    9.4662   26.2349 C   0  0  0  0  0  0
    0.2609   10.3617   25.1980 C   0  0  0  0  0  0
    1.3822   10.5295   24.3906 C   0  0  0  0  0  0
    1.5154   11.4578   23.1809 C   0  0  0  0  0  0
   -1.0581   11.7043   23.5414 C   0  0  0  0  0  0
   -0.9924   11.0650   24.9393 C   0  0  0  0  0  0
    7.6112    9.2214   22.6292 C   0  0  0  0  0  0
    8.0605    9.9686   21.7663 O   0  0  0  0  0  0
    8.3168    8.2208   23.1581 N   0  0  0  0  0  0
   -1.9023   11.1690   25.7587 O   0  0  0  0  0  0
   -0.2684    8.9936   27.3848 C   0  0  0  0  0  0
    6.6580   12.0733   23.5625 Cl  0  0  0  0  0  0
    3.7247    5.8904   23.3100 C   0  0  0  0  0  0
    4.9293    5.2276   23.8510 C   0  0  0  0  0  0
    5.8790    4.7200   24.2738 N   0  0  0  0  0  0
    0.7463   13.2838   24.9894 H   0  0  0  0  0  0
    1.4216   14.1664   23.6298 H   0  0  0  0  0  0
   -0.2922   14.2832   23.9669 H   0  0  0  0  0  0
    0.0700   11.9687   20.8772 H   0  0  0  0  0  0
   -0.8795   13.2891   21.4463 H   0  0  0  0  0  0
    0.8610   13.4579   21.2699 H   0  0  0  0  0  0
    4.1056   11.6283   24.5347 H   0  0  0  0  0  0
    5.8077    7.3013   22.9157 H   0  0  0  0  0  0
    3.7060    6.0437   25.8939 H   0  0  0  0  0  0
    2.0640    6.1353   25.3616 H   0  0  0  0  0  0
    3.6446    8.2309   26.8303 H   0  0  0  0  0  0
    2.2414    7.4142   27.3705 H   0  0  0  0  0  0
    1.6264   10.8047   22.3188 H   0  0  0  0  0  0
    2.4197   12.0661   23.1924 H   0  0  0  0  0  0
   -1.3501   10.9085   22.8564 H   0  0  0  0  0  0
   -1.8871   12.4139   23.5361 H   0  0  0  0  0  0
    9.2565    8.0545   22.8372 H   0  0  0  0  0  0
    7.9060    7.6215   23.8586 H   0  0  0  0  0  0
   -1.3296    9.1707   27.2264 H   0  0  0  0  0  0
   -0.1665    7.9198   27.5437 H   0  0  0  0  0  0
    0.0122    9.4747   28.3209 H   0  0  0  0  0  0
    3.8993    6.1390   22.2621 H   0  0  0  0  0  0
    2.8986    5.1774   23.3271 H   0  0  0  0  0  0
  1  2  1  0  0  0
  1 30  1  0  0  0
  1 31  1  0  0  0
  1 32  1  0  0  0
  2  3  1  0  0  0
  2 18  1  0  0  0
  2 19  1  0  0  0
  3 33  1  0  0  0
  3 34  1  0  0  0
  3 35  1  0  0  0
  4  5  2  0  0  0
  4  7  1  0  0  0
  4 26  1  0  0  0
  5  8  1  0  0  0
  5 36  1  0  0  0
  6  9  1  0  0  0
  6  7  2  0  0  0
  6 37  1  0  0  0
  7 21  1  0  0  0
  8  9  2  0  0  0
  8 14  1  0  0  0
  9 10  1  0  0  0
 10 11  1  0  0  0
 10 27  1  0  0  0
 11 12  1  0  0  0
 11 38  1  0  0  0
 11 39  1  0  0  0
 12 13  1  0  0  0
 12 40  1  0  0  0
 12 41  1  0  0  0
 13 14  1  0  0  0
 13 15  2  0  0  0
 14 17  1  0  0  0
 15 16  1  0  0  0
 15 25  1  0  0  0
 16 17  2  0  0  0
 16 20  1  0  0  0
 17 18  1  0  0  0
 18 42  1  0  0  0
 18 43  1  0  0  0
 19 20  1  0  0  0
 19 44  1  0  0  0
 19 45  1  0  0  0
 20 24  2  0  0  0
 21 22  2  0  0  0
 21 23  1  0  0  0
 23 46  1  0  0  0
 23 47  1  0  0  0
 25 48  1  0  0  0
 25 49  1  0  0  0
 25 50  1  0  0  0
 27 28  1  0  0  0
 27 51  1  0  0  0
 27 52  1  0  0  0
 28 29  3  0  0  0
M  END
> <s_m_entry_id>
5057

> <s_m_entry_name>
dock_pv.376

> <s_m_Source_Path>
/home/csk/Desktop/cluster/DUD-E-result/hs90a

> <s_m_Source_File>
dock_pv.maegz

> <i_m_Source_File_Index>
376

> <chembl_id>
CHEMBL3401156

> <chembl_pref_name>
None

> <i_lp_mmshare_version>
53161

> <r_lp_tautomer_probability>
0.99995

> <s_lp_Force_Field>
OPLS_2005

> <r_lp_Energy>
34.362505

> <b_lp_Chiralities_Consistent>
1

> <s_lp_Variant>
CHEMBL3880_lig977-1

> <s_i_glide_gridfile>
glide-grid_1uyg

> <i_i_glide_lignum>
1086

> <i_i_glide_rotatable_bonds>
2

> <r_i_docking_score>
-7.31608980271123

> <r_i_glide_ligand_efficiency>
-0.25227895871418

> <r_i_glide_ligand_efficiency_sa>
-0.775080888754105

> <r_i_glide_ligand_efficiency_ln>
-1.67519904479058

> <r_i_glide_gscore>
-7.31608980271123

> <r_i_glide_lipo>
-3.18144092188595

> <r_i_glide_hbond>
-0.00762658238221239

> <r_i_glide_metal>
0

> <r_i_glide_rewards>
-1.58781396803264

> <r_i_glide_evdw>
-40.147834777832

> <r_i_glide_ecoul>
-4.32299566268921

> <r_i_glide_erotb>
0.116708115948885

> <r_i_glide_esite>
-7.53580643258986e-05

> <r_i_glide_emodel>
-55.0433735783688

> <r_i_glide_energy>
-44.4708304405212

> <r_i_glide_einternal>
4.60469198226929

> <i_i_glide_confnum>
2

> <i_i_glide_posenum>
287

> <r_i_glide_eff_state_penalty>
0

> <s_user_duplicate_titles>
CHEMBL3880_lig977

> <i_f3d_flags>
0

> <s_m_subgroup_title>
dock_pv

> <s_m_subgroupid>
dock_pv

> <b_m_subgroup_collapsed>
1

$$$$
CHEMBL3880_lig217
                    3D
 Schrodinger Suite 2021-1.
 28 30  0  0  1  0            999 V2000
    4.4056    8.6363   22.7574 C   0  0  0  0  0  0
    5.6714    9.2389   22.7583 C   0  0  0  0  0  0
    5.8208   10.5686   23.1699 C   0  0  0  0  0  0
    3.2781    9.3547   23.1725 C   0  0  0  0  0  0
    3.4454   10.6808   23.5783 C   0  0  0  0  0  0
    4.6823   11.2667   23.5709 C   0  0  0  0  0  0
    4.4934   12.5689   23.9644 N   0  0  0  0  0  0
    3.1866   12.8451   24.1438 C   0  0  0  0  0  0
    2.5574   11.6440   24.0310 N   0  0  0  0  0  0
    2.6908   13.9486   24.3670 O   0  0  0  0  0  0
    1.2093   11.4080   24.3541 C   0  0  0  0  0  0
    0.9236   10.6081   25.4656 C   0  0  0  0  0  0
   -0.3944   10.3932   25.8623 C   0  0  0  0  0  0
   -1.4416   10.9526   25.1216 C   0  0  0  0  0  0
   -1.1655   11.7268   23.9935 C   0  0  0  0  0  0
    0.1550   11.9688   23.6125 C   0  0  0  0  0  0
    0.3962   12.7690   22.5264 O   0  0  0  0  0  0
   -0.6981    9.4604   27.2885 Cl  0  0  0  0  0  0
   -2.7390   10.7690   25.5142 O   0  0  0  0  0  0
    4.2985    7.6111   22.4325 H   0  0  0  0  0  0
    6.5333    8.6728   22.4336 H   0  0  0  0  0  0
    6.7960   11.0331   23.1583 H   0  0  0  0  0  0
    2.3067    8.8814   23.1668 H   0  0  0  0  0  0
    5.2128   13.2758   23.9902 H   0  0  0  0  0  0
    1.7281   10.1816   26.0489 H   0  0  0  0  0  0
   -1.9767   12.1610   23.4258 H   0  0  0  0  0  0
    1.1785   13.3101   22.6687 H   0  0  0  0  0  0
   -3.3953   11.2844   25.0199 H   0  0  0  0  0  0
  1  4  1  0  0  0
  1  2  2  0  0  0
  1 20  1  0  0  0
  2  3  1  0  0  0
  2 21  1  0  0  0
  3  6  2  0  0  0
  3 22  1  0  0  0
  4  5  2  0  0  0
  4 23  1  0  0  0
  5  9  1  0  0  0
  5  6  1  0  0  0
  6  7  1  0  0  0
  7  8  1  0  0  0
  7 24  1  0  0  0
  8 10  2  0  0  0
  8  9  1  0  0  0
  9 11  1  0  0  0
 11 12  2  0  0  0
 11 16  1  0  0  0
 12 13  1  0  0  0
 12 25  1  0  0  0
 13 14  2  0  0  0
 13 18  1  0  0  0
 14 15  1  0  0  0
 14 19  1  0  0  0
 15 16  2  0  0  0
 15 26  1  0  0  0
 16 17  1  0  0  0
 17 27  1  0  0  0
 19 28  1  0  0  0
M  END
> <s_m_entry_id>
5058

> <s_m_entry_name>
dock_pv.377

> <s_m_Source_Path>
/home/csk/Desktop/cluster/DUD-E-result/hs90a

> <s_m_Source_File>
dock_pv.maegz

> <i_m_Source_File_Index>
377

> <chembl_id>
CHEMBL1802337

> <chembl_pref_name>
None

> <i_lp_mmshare_version>
53161

> <r_lp_tautomer_probability>
1

> <s_lp_Force_Field>
OPLS_2005

> <r_lp_Energy>
49.766598

> <b_lp_Chiralities_Consistent>
1

> <s_lp_Variant>
CHEMBL3880_lig217-1

> <s_i_glide_gridfile>
glide-grid_1uyg

> <i_i_glide_lignum>
251

> <i_i_glide_rotatable_bonds>
3

> <r_i_docking_score>
-7.30594089203069

> <r_i_glide_ligand_efficiency>
-0.384523204843721

> <r_i_glide_ligand_efficiency_sa>
-1.02606235276977

> <r_i_glide_ligand_efficiency_ln>
-1.85221293335222

> <r_i_glide_gscore>
-7.30594089203069

> <r_i_glide_lipo>
-2.66965563946166

> <r_i_glide_hbond>
-0.16

> <r_i_glide_metal>
0

> <r_i_glide_rewards>
-2.26013783546659

> <r_i_glide_evdw>
-34.5556793212891

> <r_i_glide_ecoul>
-4.82300710678101

> <r_i_glide_erotb>
0.235087614979162

> <r_i_glide_esite>
0

> <r_i_glide_emodel>
-56.9263495405996

> <r_i_glide_energy>
-39.3786864280701

> <r_i_glide_einternal>
0.663088440895081

> <i_i_glide_confnum>
1

> <i_i_glide_posenum>
390

> <r_i_glide_eff_state_penalty>
0

> <s_user_duplicate_titles>
CHEMBL3880_lig217

> <i_f3d_flags>
0

> <s_m_subgroup_title>
dock_pv

> <s_m_subgroupid>
dock_pv

> <b_m_subgroup_collapsed>
1

$$$$
CHEMBL3880_lig166
                    3D
 Schrodinger Suite 2021-1.
 43 46  0  0  1  0            999 V2000
    3.8883   14.8636   24.8085 C   0  0  0  0  0  0
    5.0045   14.0175   24.7664 C   0  0  0  0  0  0
    4.8607   12.7244   24.2541 C   0  0  0  0  0  0
    2.6276   14.4481   24.3670 C   0  0  0  0  0  0
    1.3910   12.4972   23.4886 O   0  0  0  0  0  0
    2.5134   13.1299   23.9270 C   0  0  0  0  0  0
    3.5986   12.2551   23.8701 C   0  0  0  0  0  0
    3.0287   11.0250   23.4205 C   0  0  0  0  0  0
    1.7402   11.1743   23.1851 N   0  0  0  0  0  0
    3.7487    9.7221   23.2553 C   0  0  0  0  0  0
    3.2012    8.4797   23.6225 C   0  0  0  0  0  0
    3.9840    7.3265   23.5719 C   0  0  0  0  0  0
    5.3174    7.3930   23.1732 C   0  0  0  0  0  0
    5.8729    8.6223   22.8064 C   0  0  0  0  0  0
    5.0825    9.7670   22.8292 C   0  0  0  0  0  0
    1.9123    8.3629   24.0734 O   0  0  0  0  0  0
    6.0727    6.2511   23.1669 O   0  0  0  0  0  0
    7.5409    8.7720   22.3689 Cl  0  0  0  0  0  0
    6.2465   14.4110   25.2518 N   0  0  0  0  0  0
    7.4962   14.2486   24.4858 C   0  0  0  0  0  0
    8.7410   14.0492   25.3846 C   0  0  0  0  0  0
    8.8849   15.1687   26.3120 N   0  0  0  0  0  0
    7.7060   15.1691   27.1796 C   0  0  0  0  0  0
    6.4072   15.3705   26.3561 C   0  0  0  0  0  0
   10.0975   15.0230   27.1133 C   0  0  0  0  0  0
    4.0018   15.8715   25.1798 H   0  0  0  0  0  0
    5.7130   12.0634   24.2477 H   0  0  0  0  0  0
    1.7755   15.1107   24.3671 H   0  0  0  0  0  0
    3.5584    6.3765   23.8608 H   0  0  0  0  0  0
    5.5321   10.7024   22.5329 H   0  0  0  0  0  0
    1.4431    9.1998   24.0922 H   0  0  0  0  0  0
    6.8617    6.3678   22.6269 H   0  0  0  0  0  0
    7.4206   13.4287   23.7718 H   0  0  0  0  0  0
    7.6407   15.1504   23.8890 H   0  0  0  0  0  0
    9.6351   13.9837   24.7676 H   0  0  0  0  0  0
    8.6660   13.1051   25.9265 H   0  0  0  0  0  0
    7.6612   14.2508   27.7611 H   0  0  0  0  0  0
    7.7884   15.9675   27.9179 H   0  0  0  0  0  0
    5.5453   15.3239   27.0228 H   0  0  0  0  0  0
    6.4146   16.3674   25.9229 H   0  0  0  0  0  0
   10.9813   14.9893   26.4747 H   0  0  0  0  0  0
   10.0805   14.1144   27.7188 H   0  0  0  0  0  0
   10.2188   15.8748   27.7841 H   0  0  0  0  0  0
  1  2  2  0  0  0
  1  4  1  0  0  0
  1 26  1  0  0  0
  2  3  1  0  0  0
  2 19  1  0  0  0
  3  7  2  0  0  0
  3 27  1  0  0  0
  4  6  2  0  0  0
  4 28  1  0  0  0
  5  6  1  0  0  0
  5  9  1  0  0  0
  6  7  1  0  0  0
  7  8  1  0  0  0
  8 10  1  0  0  0
  8  9  2  0  0  0
 10 15  1  0  0  0
 10 11  2  0  0  0
 11 16  1  0  0  0
 11 12  1  0  0  0
 12 13  2  0  0  0
 12 29  1  0  0  0
 13 14  1  0  0  0
 13 17  1  0  0  0
 14 15  2  0  0  0
 14 18  1  0  0  0
 15 30  1  0  0  0
 16 31  1  0  0  0
 17 32  1  0  0  0
 19 20  1  0  0  0
 19 24  1  0  0  0
 20 21  1  0  0  0
 20 33  1  0  0  0
 20 34  1  0  0  0
 21 22  1  0  0  0
 21 35  1  0  0  0
 21 36  1  0  0  0
 22 23  1  0  0  0
 22 25  1  0  0  0
 23 24  1  0  0  0
 23 37  1  0  0  0
 23 38  1  0  0  0
 24 39  1  0  0  0
 24 40  1  0  0  0
 25 41  1  0  0  0
 25 42  1  0  0  0
 25 43  1  0  0  0
M  END
> <s_m_entry_id>
5059

> <s_m_entry_name>
dock_pv.378

> <s_m_Source_Path>
/home/csk/Desktop/cluster/DUD-E-result/hs90a

> <s_m_Source_File>
dock_pv.maegz

> <i_m_Source_File_Index>
378

> <chembl_id>
CHEMBL402712

> <chembl_pref_name>
None

> <i_lp_mmshare_version>
53161

> <r_lp_tautomer_probability>
0.999999999898

> <s_lp_Force_Field>
OPLS_2005

> <r_lp_Energy>
49.40832

> <b_lp_Chiralities_Consistent>
1

> <s_lp_Variant>
CHEMBL3880_lig166-1

> <s_i_glide_gridfile>
glide-grid_1uyg

> <i_i_glide_lignum>
197

> <i_i_glide_rotatable_bonds>
4

> <r_i_docking_score>
-7.3034573401828

> <r_i_glide_ligand_efficiency>
-0.292138293607312

> <r_i_glide_ligand_efficiency_sa>
-0.854217551602478

> <r_i_glide_ligand_efficiency_ln>
-1.73113825657833

> <r_i_glide_gscore>
-7.3034573401828

> <r_i_glide_lipo>
-3.55612120847064

> <r_i_glide_hbond>
-0.18188873347743

> <r_i_glide_metal>
0

> <r_i_glide_rewards>
-1.81850627427198

> <r_i_glide_evdw>
-35.1589317321777

> <r_i_glide_ecoul>
-1.90114629268646

> <r_i_glide_erotb>
0.296177406549103

> <r_i_glide_esite>
0

> <r_i_glide_emodel>
-51.7396100245466

> <r_i_glide_energy>
-37.0600780248642

> <r_i_glide_einternal>
1.27287375926971

> <i_i_glide_confnum>
16

> <i_i_glide_posenum>
334

> <r_i_glide_eff_state_penalty>
0

> <s_user_duplicate_titles>
CHEMBL3880_lig166,419308

> <i_f3d_flags>
0

> <s_m_subgroup_title>
dock_pv

> <s_m_subgroupid>
dock_pv

> <b_m_subgroup_collapsed>
1

$$$$
CHEMBL3880_lig293
                    3D
 Schrodinger Suite 2021-1.
 73 76  0  0  1  0            999 V2000
    0.1586    9.1788   27.4470 C   0  0  0  0  0  0
    0.8469    8.3219   28.2999 C   0  0  0  0  0  0
    1.7984    7.4403   27.7913 C   0  0  0  0  0  0
    2.0476    7.3796   26.4080 C   0  0  0  0  0  0
    1.3808    8.2841   25.5677 C   0  0  0  0  0  0
    0.4737    9.2142   26.0827 C   0  0  0  0  0  0
    2.4618    6.6270   28.6750 O   0  0  0  0  0  0
    3.0282    6.3417   25.8314 C   0  0  0  0  0  0
    4.4909    6.7689   26.0428 C   0  0  0  0  0  0
    2.7774    5.9643   24.3545 C   0  0  0  0  0  0
   -0.8301    9.9687   27.9671 O   0  0  0  0  0  0
   -0.1957   10.0885   25.1998 N   0  0  0  0  0  0
    0.2558   11.1018   24.3633 C   0  0  0  0  0  0
   -0.8923   11.4539   23.6233 C   0  0  0  0  0  0
   -1.9381   10.8176   24.1250 N   0  0  0  0  0  0
   -1.5145    9.9694   25.1039 N   0  0  0  0  0  0
   -0.9648   12.3352   22.4746 C   0  0  0  0  0  0
   -2.2197   12.6221   22.1191 N   0  0  0  0  0  0
    0.0315   12.7690   21.8937 O   0  0  0  0  0  0
   -2.6529   13.6415   21.1997 C   0  0  0  0  0  0
   -3.5394   14.5918   21.9908 C   0  0  0  0  0  0
    1.6234   11.7098   24.3412 C   0  0  0  0  0  0
    2.8244   10.9979   24.3032 C   0  0  0  0  0  0
    4.0384   11.6777   24.3661 C   0  0  0  0  0  0
    4.0619   13.0720   24.4588 C   0  0  0  0  0  0
    2.8641   13.7866   24.3939 C   0  0  0  0  0  0
    1.6590   13.1058   24.3645 C   0  0  0  0  0  0
    5.4072   13.7657   24.6455 C   0  0  0  0  0  0
    5.3449   15.2004   24.7670 N   0  0  2  0  0  0
    6.6952   15.7215   24.6910 C   0  0  0  0  0  0
    7.5313   15.5689   25.9876 C   0  0  0  0  0  0
    8.3576   14.3717   26.2185 N   0  0  0  0  0  0
    8.9797   14.5518   27.5457 C   0  0  0  0  0  0
   10.2804   13.7706   27.8403 C   0  0  0  0  0  0
   11.1524   13.7614   26.7225 O   0  0  0  0  0  0
   10.5129   13.2509   25.5668 C   0  0  0  0  0  0
    9.3556   14.1892   25.1590 C   0  0  0  0  0  0
    0.6264    8.3312   29.3573 H   0  0  0  0  0  0
    1.5397    8.2516   24.5005 H   0  0  0  0  0  0
    2.5046    7.0083   29.5558 H   0  0  0  0  0  0
    2.8695    5.4232   26.3990 H   0  0  0  0  0  0
    4.7002    6.9828   27.0904 H   0  0  0  0  0  0
    4.7264    7.6631   25.4654 H   0  0  0  0  0  0
    5.1801    5.9839   25.7306 H   0  0  0  0  0  0
    1.7348    5.6906   24.1836 H   0  0  0  0  0  0
    3.0281    6.7795   23.6745 H   0  0  0  0  0  0
    3.3863    5.1092   24.0609 H   0  0  0  0  0  0
   -0.9370    9.8443   28.9158 H   0  0  0  0  0  0
   -2.9579   12.0861   22.5541 H   0  0  0  0  0  0
   -1.8293   14.1759   20.7266 H   0  0  0  0  0  0
   -3.2158   13.1691   20.3942 H   0  0  0  0  0  0
   -3.5389   15.5692   21.5357 H   0  0  0  0  0  0
   -4.5624   14.2229   22.0331 H   0  0  0  0  0  0
   -3.2388   14.7085   23.0319 H   0  0  0  0  0  0
    2.8399    9.9254   24.2329 H   0  0  0  0  0  0
    4.9615   11.1158   24.3716 H   0  0  0  0  0  0
    2.8505   14.8659   24.4234 H   0  0  0  0  0  0
    0.7442   13.6800   24.3694 H   0  0  0  0  0  0
    5.8264   13.5690   25.6187 H   0  0  0  0  0  0
    6.0987   13.4397   23.8652 H   0  0  0  0  0  0
    4.9689   15.4255   25.6772 H   0  0  0  0  0  0
    7.2345   15.3467   23.8209 H   0  0  0  0  0  0
    6.5041   16.7689   24.4848 H   0  0  0  0  0  0
    8.2597   16.3690   25.9647 H   0  0  0  0  0  0
    6.8780   15.7390   26.8467 H   0  0  0  0  0  0
    9.2879   15.5954   27.6298 H   0  0  0  0  0  0
    8.2190   14.3692   28.3052 H   0  0  0  0  0  0
   10.0619   12.7684   28.1881 H   0  0  0  0  0  0
   10.8164   14.2423   28.6660 H   0  0  0  0  0  0
   10.1453   12.2366   25.7171 H   0  0  0  0  0  0
   11.2637   13.1987   24.7787 H   0  0  0  0  0  0
    8.8577   13.8593   24.2490 H   0  0  0  0  0  0
    9.8088   15.1546   24.9254 H   0  0  0  0  0  0
  1  2  2  0  0  0
  1  6  1  0  0  0
  1 11  1  0  0  0
  2  3  1  0  0  0
  2 38  1  0  0  0
  3  4  2  0  0  0
  3  7  1  0  0  0
  4  5  1  0  0  0
  4  8  1  0  0  0
  5  6  2  0  0  0
  5 39  1  0  0  0
  6 12  1  0  0  0
  7 40  1  0  0  0
  8  9  1  0  0  0
  8 10  1  0  0  0
  8 41  1  0  0  0
  9 42  1  0  0  0
  9 43  1  0  0  0
  9 44  1  0  0  0
 10 45  1  0  0  0
 10 46  1  0  0  0
 10 47  1  0  0  0
 11 48  1  0  0  0
 12 13  1  0  0  0
 12 16  1  0  0  0
 13 14  2  0  0  0
 13 22  1  0  0  0
 14 15  1  0  0  0
 14 17  1  0  0  0
 15 16  2  0  0  0
 17 18  1  0  0  0
 17 19  2  0  0  0
 18 20  1  0  0  0
 18 49  1  0  0  0
 20 21  1  0  0  0
 20 50  1  0  0  0
 20 51  1  0  0  0
 21 52  1  0  0  0
 21 53  1  0  0  0
 21 54  1  0  0  0
 22 23  2  0  0  0
 22 27  1  0  0  0
 23 24  1  0  0  0
 23 55  1  0  0  0
 24 25  2  0  0  0
 24 56  1  0  0  0
 25 26  1  0  0  0
 25 28  1  0  0  0
 26 27  2  0  0  0
 26 57  1  0  0  0
 27 58  1  0  0  0
 28 29  1  0  0  0
 28 59  1  0  0  0
 28 60  1  0  0  0
 29 30  1  0  0  0
 29 61  1  0  0  0
 30 31  1  0  0  0
 30 62  1  0  0  0
 30 63  1  0  0  0
 31 32  1  0  0  0
 31 64  1  0  0  0
 31 65  1  0  0  0
 32 33  1  0  0  0
 32 37  1  0  0  0
 33 34  1  0  0  0
 33 66  1  0  0  0
 33 67  1  0  0  0
 34 35  1  0  0  0
 34 68  1  0  0  0
 34 69  1  0  0  0
 35 36  1  0  0  0
 36 37  1  0  0  0
 36 70  1  0  0  0
 36 71  1  0  0  0
 37 72  1  0  0  0
 37 73  1  0  0  0
M  END
> <s_m_entry_id>
5060

> <s_m_entry_name>
dock_pv.379

> <s_m_Source_Path>
/home/csk/Desktop/cluster/DUD-E-result/hs90a

> <s_m_Source_File>
dock_pv.maegz

> <i_m_Source_File_Index>
379

> <chembl_id>
CHEMBL3235108

> <chembl_pref_name>
None

> <i_lp_mmshare_version>
53161

> <r_lp_tautomer_probability>
1

> <s_lp_Force_Field>
OPLS_2005

> <r_lp_Energy>
45.311861

> <b_lp_Chiralities_Consistent>
1

> <s_lp_Variant>
CHEMBL3880_lig293-1

> <s_i_glide_gridfile>
glide-grid_1uyg

> <i_i_glide_lignum>
330

> <i_i_glide_rotatable_bonds>
13

> <r_i_docking_score>
-7.30228259075846

> <r_i_glide_ligand_efficiency>
-0.197358988939418

> <r_i_glide_ligand_efficiency_sa>
-0.657643934771114

> <r_i_glide_ligand_efficiency_ln>
-1.58369390414301

> <r_i_glide_gscore>
-7.30228259075846

> <r_i_glide_lipo>
-3.8467101183045

> <r_i_glide_hbond>
-0.233378281438267

> <r_i_glide_metal>
0

> <r_i_glide_rewards>
-0.890029009275846

> <r_i_glide_evdw>
-47.6966819763184

> <r_i_glide_ecoul>
-3.87008285522461

> <r_i_glide_erotb>
0.633181345359764

> <r_i_glide_esite>
0

> <r_i_glide_emodel>
-46.6117847869473

> <r_i_glide_energy>
-51.566764831543

> <r_i_glide_einternal>
10.4238700866699

> <i_i_glide_confnum>
50

> <i_i_glide_posenum>
127

> <r_i_glide_eff_state_penalty>
0

> <s_user_duplicate_titles>
CHEMBL3880_lig293

> <i_f3d_flags>
0

> <s_m_subgroup_title>
dock_pv

> <s_m_subgroupid>
dock_pv

> <b_m_subgroup_collapsed>
1

$$$$
CHEMBL3880_lig829
                    3D
 Schrodinger Suite 2021-1.
 46 47  0  0  1  0            999 V2000
    0.8857    9.4998   26.3680 C   0  0  0  0  0  0
   -0.4141    9.5688   26.8593 C   0  0  0  0  0  0
   -1.3570   10.3691   26.2159 C   0  0  0  0  0  0
   -0.9861   11.1585   25.1262 C   0  0  0  0  0  0
    0.3517   11.1896   24.6905 C   0  0  0  0  0  0
    1.2519   10.2872   25.2819 C   0  0  0  0  0  0
   -1.9390   11.9469   24.5370 O   0  0  0  0  0  0
   -0.7722    8.8504   27.9675 O   0  0  0  0  0  0
    2.0753    8.4882   27.1137 Cl  0  0  0  0  0  0
    0.7909   12.2185   23.6595 C   0  0  0  0  0  0
    1.7618   13.1053   24.0047 N   0  0  0  0  0  0
    0.1434   12.3517   22.6175 O   0  0  0  0  0  0
    1.6800   14.4959   23.5628 C   0  0  0  0  0  0
    2.8764   12.8909   24.9260 C   0  0  0  0  0  0
    4.1599   12.4646   24.2431 C   0  0  0  0  0  0
    4.2364   11.2557   23.5490 C   0  0  0  0  0  0
    5.4437   10.8113   23.0029 C   0  0  0  0  0  0
    6.5811   11.6128   23.1593 C   0  0  0  0  0  0
    6.5274   12.8313   23.8496 C   0  0  0  0  0  0
    5.2964   13.2592   24.3669 C   0  0  0  0  0  0
    7.7288   11.2715   22.4972 O   0  0  0  0  0  0
    8.4613   10.2077   23.0672 C   0  0  0  0  0  0
    5.5716    9.6542   22.2549 O   0  0  0  0  0  0
    4.4505    8.7937   22.0787 C   0  0  0  0  0  0
    7.6955   13.5628   23.9581 O   0  0  0  0  0  0
    7.6605   14.8617   24.5414 C   0  0  0  0  0  0
   -2.3747   10.3882   26.5762 H   0  0  0  0  0  0
    2.2748   10.2060   24.9739 H   0  0  0  0  0  0
   -2.8579   11.7515   24.7660 H   0  0  0  0  0  0
   -0.0266    8.3770   28.3441 H   0  0  0  0  0  0
    1.0571   15.0650   24.2537 H   0  0  0  0  0  0
    2.6661   14.9592   23.5667 H   0  0  0  0  0  0
    1.2612   14.5910   22.5604 H   0  0  0  0  0  0
    3.0701   13.8029   25.4928 H   0  0  0  0  0  0
    2.6597   12.1480   25.6737 H   0  0  0  0  0  0
    3.3452   10.6826   23.3732 H   0  0  0  0  0  0
    5.2204   14.1921   24.9022 H   0  0  0  0  0  0
    9.2609    9.9696   22.3671 H   0  0  0  0  0  0
    8.9088   10.5025   24.0173 H   0  0  0  0  0  0
    7.8738    9.3026   23.2192 H   0  0  0  0  0  0
    4.7520    7.9175   21.5034 H   0  0  0  0  0  0
    4.0540    8.4446   23.0330 H   0  0  0  0  0  0
    3.6619    9.2975   21.5220 H   0  0  0  0  0  0
    8.6643   15.2882   24.5284 H   0  0  0  0  0  0
    7.0112   15.5302   23.9728 H   0  0  0  0  0  0
    7.3310   14.8308   25.5812 H   0  0  0  0  0  0
  1  2  2  0  0  0
  1  6  1  0  0  0
  1  9  1  0  0  0
  2  3  1  0  0  0
  2  8  1  0  0  0
  3  4  2  0  0  0
  3 27  1  0  0  0
  4  5  1  0  0  0
  4  7  1  0  0  0
  5  6  2  0  0  0
  5 10  1  0  0  0
  6 28  1  0  0  0
  7 29  1  0  0  0
  8 30  1  0  0  0
 10 11  1  0  0  0
 10 12  2  0  0  0
 11 13  1  0  0  0
 11 14  1  0  0  0
 13 31  1  0  0  0
 13 32  1  0  0  0
 13 33  1  0  0  0
 14 15  1  0  0  0
 14 34  1  0  0  0
 14 35  1  0  0  0
 15 16  2  0  0  0
 15 20  1  0  0  0
 16 17  1  0  0  0
 16 36  1  0  0  0
 17 18  2  0  0  0
 17 23  1  0  0  0
 18 19  1  0  0  0
 18 21  1  0  0  0
 19 20  2  0  0  0
 19 25  1  0  0  0
 20 37  1  0  0  0
 21 22  1  0  0  0
 22 38  1  0  0  0
 22 39  1  0  0  0
 22 40  1  0  0  0
 23 24  1  0  0  0
 24 41  1  0  0  0
 24 42  1  0  0  0
 24 43  1  0  0  0
 25 26  1  0  0  0
 26 44  1  0  0  0
 26 45  1  0  0  0
 26 46  1  0  0  0
M  END
> <s_m_entry_id>
5061

> <s_m_entry_name>
dock_pv.380

> <s_m_Source_Path>
/home/csk/Desktop/cluster/DUD-E-result/hs90a

> <s_m_Source_File>
dock_pv.maegz

> <i_m_Source_File_Index>
380

> <chembl_id>
CHEMBL4283995

> <chembl_pref_name>
None

> <i_lp_mmshare_version>
53161

> <r_lp_tautomer_probability>
0.999999999898

> <s_lp_Force_Field>
OPLS_2005

> <r_lp_Energy>
39.912004

> <b_lp_Chiralities_Consistent>
1

> <s_lp_Variant>
CHEMBL3880_lig829-1

> <s_i_glide_gridfile>
glide-grid_1uyg

> <i_i_glide_lignum>
930

> <i_i_glide_rotatable_bonds>
9

> <r_i_docking_score>
-7.29383056607711

> <r_i_glide_ligand_efficiency>
-0.280531944849119

> <r_i_glide_ligand_efficiency_sa>
-0.831074782775616

> <r_i_glide_ligand_efficiency_ln>
-1.71293217543306

> <r_i_glide_gscore>
-7.29383056607711

> <r_i_glide_lipo>
-4.06586799259667

> <r_i_glide_hbond>
0

> <r_i_glide_metal>
0

> <r_i_glide_rewards>
-1.18490079252997

> <r_i_glide_evdw>
-39.0375785827637

> <r_i_glide_ecoul>
-4.15943145751953

> <r_i_glide_erotb>
0.532731866815651

> <r_i_glide_esite>
0

> <r_i_glide_emodel>
-58.0737309059105

> <r_i_glide_energy>
-43.1970100402832

> <r_i_glide_einternal>
6.08192873001099

> <i_i_glide_confnum>
7

> <i_i_glide_posenum>
132

> <r_i_glide_eff_state_penalty>
0

> <s_user_duplicate_titles>
CHEMBL3880_lig829

> <i_f3d_flags>
0

> <s_m_subgroup_title>
dock_pv

> <s_m_subgroupid>
dock_pv

> <b_m_subgroup_collapsed>
1

$$$$
CHEMBL3880_lig85
                    3D
 Schrodinger Suite 2021-1.
 28 30  0  0  1  0            999 V2000
    9.2576   13.7676   25.1671 Cl  0  0  0  0  0  0
    3.4362   14.5911   24.7043 O   0  0  0  0  0  0
    1.4319   13.8778   23.9667 O   0  0  0  0  0  0
   -0.3788   11.5684   23.5759 O   0  0  0  0  0  0
    2.2903    9.8330   25.1638 O   0  0  0  0  0  0
    4.5811   12.2037   23.7301 N   0  0  0  0  0  0
    5.3904   13.2398   24.2383 C   0  0  0  0  0  0
    4.8127   14.4085   24.7686 C   0  0  0  0  0  0
    3.3071   12.3645   23.6881 C   0  0  0  0  0  0
    2.6269   13.6225   24.1060 C   0  0  0  0  0  0
    6.7789   13.0678   24.2943 C   0  0  0  0  0  0
    2.4433   11.1997   23.2017 C   0  0  0  0  0  0
    5.6019   15.3801   25.3754 C   0  0  0  0  0  0
    1.6803   10.5515   24.3722 C   0  0  0  0  0  0
    7.5651   14.0212   24.9453 C   0  0  0  0  0  0
    0.2483   10.7968   24.5061 C   0  0  0  0  0  0
    6.9769   15.1694   25.4723 C   0  0  0  0  0  0
   -0.6723   10.3718   25.4554 C   0  0  0  0  0  0
   -1.6900   11.6222   23.9204 C   0  0  0  0  0  0
   -1.9094   10.8972   25.0795 C   0  0  0  0  0  0
    3.0696   10.4304   22.7463 H   0  0  0  0  0  0
    7.2316   12.1677   23.9054 H   0  0  0  0  0  0
    1.7532   11.5287   22.4269 H   0  0  0  0  0  0
    5.1534   16.2726   25.7868 H   0  0  0  0  0  0
    7.5969   15.8957   25.9675 H   0  0  0  0  0  0
   -0.4645    9.7496   26.3140 H   0  0  0  0  0  0
   -2.3377   12.1928   23.2694 H   0  0  0  0  0  0
   -2.8569   10.7690   25.5846 H   0  0  0  0  0  0
  1 15  1  0  0  0
  2  8  1  0  0  0
  2 10  1  0  0  0
  3 10  2  0  0  0
  4 16  1  0  0  0
  4 19  1  0  0  0
  5 14  2  0  0  0
  6  7  1  0  0  0
  6  9  2  0  0  0
  7  8  1  0  0  0
  7 11  2  0  0  0
  8 13  2  0  0  0
  9 10  1  0  0  0
  9 12  1  0  0  0
 11 15  1  0  0  0
 11 22  1  0  0  0
 12 23  1  0  0  0
 12 21  1  0  0  0
 12 14  1  0  0  0
 13 17  1  0  0  0
 13 24  1  0  0  0
 14 16  1  0  0  0
 15 17  2  0  0  0
 16 18  2  0  0  0
 17 25  1  0  0  0
 18 20  1  0  0  0
 18 26  1  0  0  0
 19 20  2  0  0  0
 19 27  1  0  0  0
 20 28  1  0  0  0
M  END
> <s_m_entry_id>
5062

> <s_m_entry_name>
dock_pv.381

> <s_m_Source_Path>
/home/csk/Desktop/cluster/DUD-E-result/hs90a

> <s_m_Source_File>
dock_pv.maegz

> <i_m_Source_File_Index>
381

> <chembl_id>
CHEMBL1311354

> <chembl_pref_name>
None

> <i_lp_mmshare_version>
53161

> <r_lp_tautomer_probability>
0.99990000499975

> <s_lp_Force_Field>
OPLS_2005

> <r_lp_Energy>
19.88521

> <b_lp_Chiralities_Consistent>
1

> <s_lp_Variant>
CHEMBL3880_lig85-1

> <s_i_glide_gridfile>
glide-grid_1uyg

> <i_i_glide_lignum>
95

> <i_i_glide_rotatable_bonds>
3

> <r_i_docking_score>
-7.27933525628187

> <r_i_glide_ligand_efficiency>
-0.363966762814094

> <r_i_glide_ligand_efficiency_sa>
-0.987957791851043

> <r_i_glide_ligand_efficiency_ln>
-1.82177752610219

> <r_i_glide_gscore>
-7.27933525628187

> <r_i_glide_lipo>
-3.37377601737146

> <r_i_glide_hbond>
0

> <r_i_glide_metal>
0

> <r_i_glide_rewards>
-2.48792917083521

> <r_i_glide_evdw>
-35.1582717895508

> <r_i_glide_ecoul>
-2.07249283790588

> <r_i_glide_erotb>
0.651157447088221

> <r_i_glide_esite>
0

> <r_i_glide_emodel>
-52.8341571455651

> <r_i_glide_energy>
-37.2307646274567

> <r_i_glide_einternal>
1.67472517490387

> <i_i_glide_confnum>
21

> <i_i_glide_posenum>
289

> <r_i_glide_eff_state_penalty>
0

> <s_user_duplicate_titles>
CHEMBL3880_lig85

> <i_f3d_flags>
0

> <s_m_subgroup_title>
dock_pv

> <s_m_subgroupid>
dock_pv

> <b_m_subgroup_collapsed>
1

$$$$
CHEMBL3880_lig25
                    3D
 Schrodinger Suite 2021-1.
 40 41  0  0  1  0            999 V2000
    0.7739   11.6121   23.2950 O   0  0  0  0  0  0
    3.4075   11.0539   23.5737 O   0  0  0  0  0  0
    6.0064   10.9797   22.8074 O   0  0  0  0  0  0
   -2.3391   13.1671   22.5828 O   0  0  0  0  0  0
   -0.5776   12.7690   21.1665 O   0  0  0  0  0  0
    1.1266   10.9873   24.4505 C   0  0  0  0  0  0
   -0.5347   11.9738   23.3974 C   0  0  0  0  0  0
    4.2360   12.0828   23.9671 C   0  0  0  0  0  0
    5.5827   12.0573   23.5677 C   0  0  0  0  0  0
    0.0248   10.9465   25.2951 C   0  0  0  0  0  0
   -1.0335   11.5668   24.6272 C   0  0  0  0  0  0
    2.5495   10.4668   24.5598 C   0  0  0  0  0  0
   -1.1318   12.6642   22.2622 C   0  0  0  0  0  0
    5.9576   14.1524   24.7657 C   0  0  0  0  0  0
    6.4313   13.1059   23.9670 C   0  0  0  0  0  0
    3.7560   13.1556   24.7324 C   0  0  0  0  0  0
    4.6092   14.1826   25.1317 C   0  0  0  0  0  0
    6.9019   15.2586   25.2081 C   0  0  0  0  0  0
    7.3704   10.8953   22.4096 C   0  0  0  0  0  0
    8.0251   14.7690   26.1076 C   0  0  0  0  0  0
   -3.1334   13.8326   21.6068 C   0  0  0  0  0  0
    9.3286   14.7926   25.7857 C   0  0  0  0  0  0
   -0.0102   10.5009   26.2788 H   0  0  0  0  0  0
   -2.0466   11.6985   24.9833 H   0  0  0  0  0  0
    2.5751    9.3855   24.4196 H   0  0  0  0  0  0
    2.9305   10.6403   25.5681 H   0  0  0  0  0  0
    7.4734   13.1106   23.6849 H   0  0  0  0  0  0
    2.7165   13.1902   25.0228 H   0  0  0  0  0  0
    4.2210   14.9931   25.7311 H   0  0  0  0  0  0
    6.3519   16.0341   25.7448 H   0  0  0  0  0  0
    7.3106   15.7395   24.3179 H   0  0  0  0  0  0
    7.5149    9.9929   21.8169 H   0  0  0  0  0  0
    7.6600   11.7463   21.7902 H   0  0  0  0  0  0
    8.0373   10.8378   23.2714 H   0  0  0  0  0  0
    7.7276   14.3849   27.0744 H   0  0  0  0  0  0
   -4.0695   14.1558   22.0583 H   0  0  0  0  0  0
   -2.6293   14.7121   21.2056 H   0  0  0  0  0  0
   -3.3668   13.1690   20.7724 H   0  0  0  0  0  0
    9.6631   15.1707   24.8307 H   0  0  0  0  0  0
   10.0778   14.4359   26.4798 H   0  0  0  0  0  0
  1  6  1  0  0  0
  1  7  1  0  0  0
  2  8  1  0  0  0
  2 12  1  0  0  0
  3  9  1  0  0  0
  3 19  1  0  0  0
  4 13  1  0  0  0
  4 21  1  0  0  0
  5 13  2  0  0  0
  6 10  2  0  0  0
  6 12  1  0  0  0
  7 11  2  0  0  0
  7 13  1  0  0  0
  8  9  1  0  0  0
  8 16  2  0  0  0
  9 15  2  0  0  0
 10 11  1  0  0  0
 10 23  1  0  0  0
 11 24  1  0  0  0
 12 25  1  0  0  0
 12 26  1  0  0  0
 14 15  1  0  0  0
 14 17  2  0  0  0
 14 18  1  0  0  0
 15 27  1  0  0  0
 16 17  1  0  0  0
 16 28  1  0  0  0
 17 29  1  0  0  0
 18 20  1  0  0  0
 18 30  1  0  0  0
 18 31  1  0  0  0
 19 32  1  0  0  0
 19 33  1  0  0  0
 19 34  1  0  0  0
 20 22  2  0  0  0
 20 35  1  0  0  0
 21 36  1  0  0  0
 21 37  1  0  0  0
 21 38  1  0  0  0
 22 39  1  0  0  0
 22 40  1  0  0  0
M  END
> <s_m_entry_id>
5063

> <s_m_entry_name>
dock_pv.382

> <s_m_Source_Path>
/home/csk/Desktop/cluster/DUD-E-result/hs90a

> <s_m_Source_File>
dock_pv.maegz

> <i_m_Source_File_Index>
382

> <chembl_id>
CHEMBL1525749

> <chembl_pref_name>
None

> <i_lp_mmshare_version>
53161

> <r_lp_tautomer_probability>
1

> <s_lp_Force_Field>
OPLS_2005

> <r_lp_Energy>
15.691142

> <b_lp_Chiralities_Consistent>
1

> <s_lp_Variant>
CHEMBL3880_lig25-1

> <s_i_glide_gridfile>
glide-grid_1uyg

> <i_i_glide_lignum>
28

> <i_i_glide_rotatable_bonds>
8

> <r_i_docking_score>
-7.27390079326397

> <r_i_glide_ligand_efficiency>
-0.330631854239271

> <r_i_glide_ligand_efficiency_sa>
-0.926443458591399

> <r_i_glide_ligand_efficiency_ln>
-1.77800667585174

> <r_i_glide_gscore>
-7.27390079326397

> <r_i_glide_lipo>
-3.85705158142703

> <r_i_glide_hbond>
0

> <r_i_glide_metal>
0

> <r_i_glide_rewards>
-2.11932351192446

> <r_i_glide_evdw>
-42.0786781311035

> <r_i_glide_ecoul>
-2.68112397193909

> <r_i_glide_erotb>
1.20857680243356

> <r_i_glide_esite>
0

> <r_i_glide_emodel>
-60.2254417721802

> <r_i_glide_energy>
-44.7598021030426

> <r_i_glide_einternal>
8.35038280487061

> <i_i_glide_confnum>
34

> <i_i_glide_posenum>
335

> <r_i_glide_eff_state_penalty>
0

> <s_user_duplicate_titles>
CHEMBL3880_lig25

> <i_f3d_flags>
0

> <s_m_subgroup_title>
dock_pv

> <s_m_subgroupid>
dock_pv

> <b_m_subgroup_collapsed>
1

$$$$
CHEMBL3880_lig43
                    3D
 Schrodinger Suite 2021-1.
 23 24  0  0  1  0            999 V2000
    8.4289   14.2638   24.7806 Cl  0  0  0  0  0  0
   -0.1132   12.6900   23.3042 O   0  0  0  0  0  0
    1.9406   14.4614   23.9671 O   0  5  0  0  0  0
    2.5689   13.3968   24.2297 N   0  3  0  0  0  0
    3.9937   13.5279   24.4316 C   0  0  0  0  0  0
    0.6364   11.9750   24.1901 C   0  0  0  0  0  0
    1.9819   12.2052   24.3669 C   0  0  0  0  0  0
    4.8989   12.6184   23.8628 C   0  0  0  0  0  0
    4.4641   14.6382   25.1450 C   0  0  0  0  0  0
    6.7317   13.9693   24.6650 C   0  0  0  0  0  0
    6.2693   12.8520   23.9670 C   0  0  0  0  0  0
    5.8349   14.8532   25.2641 C   0  0  0  0  0  0
   -0.1694   11.0003   24.7673 C   0  0  0  0  0  0
   -1.3844   12.2117   23.3538 C   0  0  0  0  0  0
   -1.4591   11.1677   24.2566 C   0  0  0  0  0  0
    2.6080   11.3683   24.6328 H   0  0  0  0  0  0
    4.5542   11.7653   23.2969 H   0  0  0  0  0  0
    3.7731   15.3447   25.5810 H   0  0  0  0  0  0
    6.9719   12.1737   23.5047 H   0  0  0  0  0  0
    6.1982   15.7155   25.8045 H   0  0  0  0  0  0
    0.1387   10.2606   25.4919 H   0  0  0  0  0  0
   -2.1109   12.6944   22.7154 H   0  0  0  0  0  0
   -2.3391   10.5912   24.5035 H   0  0  0  0  0  0
  1 10  1  0  0  0
  2  6  1  0  0  0
  2 14  1  0  0  0
  3  4  1  0  0  0
  4  5  1  0  0  0
  4  7  2  0  0  0
  5  8  2  0  0  0
  5  9  1  0  0  0
  6  7  1  0  0  0
  6 13  2  0  0  0
  7 16  1  0  0  0
  8 11  1  0  0  0
  8 17  1  0  0  0
  9 12  2  0  0  0
  9 18  1  0  0  0
 10 11  2  0  0  0
 10 12  1  0  0  0
 11 19  1  0  0  0
 12 20  1  0  0  0
 13 15  1  0  0  0
 13 21  1  0  0  0
 14 15  2  0  0  0
 14 22  1  0  0  0
 15 23  1  0  0  0
M  CHG  2   3  -1   4   1
M  END
> <s_m_entry_id>
5064

> <s_m_entry_name>
dock_pv.383

> <s_m_Source_Path>
/home/csk/Desktop/cluster/DUD-E-result/hs90a

> <s_m_Source_File>
dock_pv.maegz

> <i_m_Source_File_Index>
383

> <chembl_id>
CHEMBL1320096

> <chembl_pref_name>
None

> <i_lp_mmshare_version>
53161

> <r_lp_tautomer_probability>
1

> <s_lp_Force_Field>
OPLS_2005

> <r_lp_Energy>
11.0392

> <b_lp_Chiralities_Consistent>
1

> <s_lp_Variant>
CHEMBL3880_lig43-1

> <s_i_glide_gridfile>
glide-grid_1uyg

> <i_i_glide_lignum>
48

> <i_i_glide_rotatable_bonds>
2

> <r_i_docking_score>
-7.26330199935997

> <r_i_glide_ligand_efficiency>
-0.484220133290664

> <r_i_glide_ligand_efficiency_sa>
-1.19418953827737

> <r_i_glide_ligand_efficiency_ln>
-1.95879279013023

> <r_i_glide_gscore>
-7.26330199935997

> <r_i_glide_lipo>
-2.83072592355506

> <r_i_glide_hbond>
0

> <r_i_glide_metal>
0

> <r_i_glide_rewards>
-3.21475638578153

> <r_i_glide_evdw>
-30.9302711486816

> <r_i_glide_ecoul>
-2.39106059074402

> <r_i_glide_erotb>
0.687352956022315

> <r_i_glide_esite>
0

> <r_i_glide_emodel>
-47.3385962857309

> <r_i_glide_energy>
-33.3213317394257

> <r_i_glide_einternal>
1.77979838848114

> <i_i_glide_confnum>
9

> <i_i_glide_posenum>
257

> <r_i_glide_eff_state_penalty>
0

> <s_user_duplicate_titles>
CHEMBL3880_lig43

> <i_f3d_flags>
0

> <s_m_subgroup_title>
dock_pv

> <s_m_subgroupid>
dock_pv

> <b_m_subgroup_collapsed>
1

$$$$
CHEMBL3880_lig366
                    3D
 Schrodinger Suite 2021-1.
 74 78  0  0  1  0            999 V2000
   -1.4775   11.5694   24.6459 C   0  0  0  0  0  0
   -1.7586   10.9383   25.8571 C   0  0  0  0  0  0
   -0.9001    9.9571   26.3504 C   0  0  0  0  0  0
    0.1467    9.4674   25.5517 C   0  0  0  0  0  0
    0.4312   10.1602   24.3692 C   0  0  0  0  0  0
   -0.3057   11.2668   23.9568 C   0  0  0  0  0  0
   -1.1392    9.4420   27.5969 O   0  0  0  0  0  0
   -2.3390   12.4918   24.1250 O   0  0  0  0  0  0
    0.9765    8.2397   25.8489 C   0  0  0  0  0  0
    0.4611    7.1783   26.4464 N   0  0  0  0  0  0
    1.4584    6.1973   26.4789 O   0  0  0  0  0  0
    2.5651    6.7291   25.9081 C   0  0  0  0  0  0
    2.3251    8.0187   25.5003 C   0  0  0  0  0  0
    3.6895    5.9471   25.7891 N   0  0  0  0  0  0
    3.2926    8.9553   24.8737 C   0  0  0  0  0  0
    4.1792    8.6020   23.8523 C   0  0  0  0  0  0
    5.0569    9.5581   23.3396 C   0  0  0  0  0  0
    5.0425   10.8661   23.8412 C   0  0  0  0  0  0
    4.0614   11.2215   24.7679 C   0  0  0  0  0  0
    3.2599   10.2614   25.3370 C   0  0  0  0  0  0
    4.6529    5.9695   26.7275 C   0  0  0  0  0  0
    4.4657    6.3378   27.8876 O   0  0  0  0  0  0
    6.0772    5.5473   26.3184 C   0  0  0  0  0  0
    6.4167    5.3496   24.8488 C   0  0  0  0  0  0
    6.8705    6.6017   25.5727 C   0  0  0  0  0  0
    0.2014   12.0938   22.7585 C   0  0  0  0  0  0
    0.8625   13.3945   23.2472 C   0  0  0  0  0  0
   -0.8515   12.3752   21.6615 C   0  0  0  0  0  0
    6.0284   11.8969   23.2939 C   0  0  0  0  0  0
    6.5386   12.8596   24.2925 N   0  0  2  0  0  0
    5.7561   14.0951   24.4536 C   0  0  0  0  0  0
    6.2717   14.9696   25.5976 C   0  0  1  0  0  0
    7.6995   15.3891   25.2230 C   0  0  0  0  0  0
    8.6547   14.2109   24.9721 C   0  0  2  0  0  0
    7.9838   13.0615   24.1571 C   0  0  0  0  0  0
    9.2377   13.7131   26.3049 C   0  0  0  0  0  0
    5.3056   16.1351   25.8790 C   0  0  0  0  0  0
   -2.6401   11.2080   26.4231 H   0  0  0  0  0  0
    1.2468    9.8445   23.7352 H   0  0  0  0  0  0
   -0.5033    8.7650   27.8415 H   0  0  0  0  0  0
   -3.2797   12.3681   24.3671 H   0  0  0  0  0  0
    3.9577    5.6852   24.8545 H   0  0  0  0  0  0
    4.2002    7.5959   23.4608 H   0  0  0  0  0  0
    5.7595    9.2708   22.5703 H   0  0  0  0  0  0
    3.9698   12.2047   25.1791 H   0  0  0  0  0  0
    2.5860   10.5533   26.1271 H   0  0  0  0  0  0
    6.5984    4.9583   27.0719 H   0  0  0  0  0  0
    5.6576    5.4378   24.0715 H   0  0  0  0  0  0
    7.1916    4.6398   24.5690 H   0  0  0  0  0  0
    7.9262    6.7200   25.8175 H   0  0  0  0  0  0
    6.4142    7.5464   25.2799 H   0  0  0  0  0  0
    0.9976   11.5303   22.2718 H   0  0  0  0  0  0
    1.6850   13.1885   23.9342 H   0  0  0  0  0  0
    1.2616   13.9753   22.4154 H   0  0  0  0  0  0
    0.1468   14.0231   23.7767 H   0  0  0  0  0  0
   -1.5762   11.5690   21.5676 H   0  0  0  0  0  0
   -1.4292   13.2757   21.8683 H   0  0  0  0  0  0
   -0.3819   12.5185   20.6893 H   0  0  0  0  0  0
    6.8532   11.3428   22.8404 H   0  0  0  0  0  0
    5.5452   12.3889   22.4632 H   0  0  0  0  0  0
    5.7110   14.6945   23.5670 H   0  0  0  0  0  0
    4.7135   13.8773   24.6429 H   0  0  0  0  0  0
    6.3502   14.3693   26.5002 H   0  0  0  0  0  0
    7.6460   15.9841   24.3129 H   0  0  0  0  0  0
    8.1336   16.0480   25.9659 H   0  0  0  0  0  0
    9.4366   14.6375   24.3438 H   0  0  0  0  0  0
    8.5185   12.1159   24.2473 H   0  0  0  0  0  0
    8.0620   13.3555   23.1096 H   0  0  0  0  0  0
    8.4495   13.5689   27.0456 H   0  0  0  0  0  0
    9.7912   12.7801   26.1879 H   0  0  0  0  0  0
    9.9235   14.4499   26.7226 H   0  0  0  0  0  0
    5.1882   16.7747   25.0046 H   0  0  0  0  0  0
    4.3175   15.7694   26.1568 H   0  0  0  0  0  0
    5.6574   16.7617   26.6982 H   0  0  0  0  0  0
  1  2  2  0  0  0
  1  6  1  0  0  0
  1  8  1  0  0  0
  2  3  1  0  0  0
  2 38  1  0  0  0
  3  4  2  0  0  0
  3  7  1  0  0  0
  4  5  1  0  0  0
  4  9  1  0  0  0
  5  6  2  0  0  0
  5 39  1  0  0  0
  6 26  1  0  0  0
  7 40  1  0  0  0
  8 41  1  0  0  0
  9 10  2  0  0  0
  9 13  1  0  0  0
 10 11  1  0  0  0
 11 12  1  0  0  0
 12 13  2  0  0  0
 12 14  1  0  0  0
 13 15  1  0  0  0
 14 21  1  0  0  0
 14 42  1  0  0  0
 15 16  2  0  0  0
 15 20  1  0  0  0
 16 17  1  0  0  0
 16 43  1  0  0  0
 17 18  2  0  0  0
 17 44  1  0  0  0
 18 19  1  0  0  0
 18 29  1  0  0  0
 19 20  2  0  0  0
 19 45  1  0  0  0
 20 46  1  0  0  0
 21 22  2  0  0  0
 21 23  1  0  0  0
 23 24  1  0  0  0
 23 25  1  0  0  0
 23 47  1  0  0  0
 24 25  1  0  0  0
 24 48  1  0  0  0
 24 49  1  0  0  0
 25 50  1  0  0  0
 25 51  1  0  0  0
 26 27  1  0  0  0
 26 28  1  0  0  0
 26 52  1  0  0  0
 27 53  1  0  0  0
 27 54  1  0  0  0
 27 55  1  0  0  0
 28 56  1  0  0  0
 28 57  1  0  0  0
 28 58  1  0  0  0
 29 30  1  0  0  0
 29 59  1  0  0  0
 29 60  1  0  0  0
 30 31  1  0  0  0
 30 35  1  0  0  0
 31 32  1  0  0  0
 31 61  1  0  0  0
 31 62  1  0  0  0
 32 33  1  0  0  0
 32 37  1  0  0  0
 32 63  1  0  0  0
 33 34  1  0  0  0
 33 64  1  0  0  0
 33 65  1  0  0  0
 34 35  1  0  0  0
 34 36  1  0  0  0
 34 66  1  0  0  0
 35 67  1  0  0  0
 35 68  1  0  0  0
 36 69  1  0  0  0
 36 70  1  0  0  0
 36 71  1  0  0  0
 37 72  1  0  0  0
 37 73  1  0  0  0
 37 74  1  0  0  0
M  END
> <s_m_entry_id>
5065

> <s_m_entry_name>
dock_pv.384

> <s_m_Source_Path>
/home/csk/Desktop/cluster/DUD-E-result/hs90a

> <s_m_Source_File>
dock_pv.maegz

> <i_m_Source_File_Index>
384

> <chembl_id>
CHEMBL3342729

> <chembl_pref_name>
None

> <i_lp_mmshare_version>
53161

> <r_lp_tautomer_probability>
0.999999999898

> <s_lp_Force_Field>
OPLS_2005

> <r_lp_Energy>
41.667718

> <b_lp_Chiralities_Consistent>
1

> <s_lp_Variant>
CHEMBL3880_lig366-2

> <s_i_glide_gridfile>
glide-grid_1uyg

> <i_i_glide_lignum>
406

> <i_i_glide_rotatable_bonds>
10

> <r_i_docking_score>
-7.24583934856544

> <r_i_glide_ligand_efficiency>
-0.195833495907174

> <r_i_glide_ligand_efficiency_sa>
-0.652560653560656

> <r_i_glide_ligand_efficiency_ln>
-1.57145268812868

> <r_i_glide_gscore>
-7.24583934856544

> <r_i_glide_lipo>
-4.68439093721345

> <r_i_glide_hbond>
-0.16

> <r_i_glide_metal>
0

> <r_i_glide_rewards>
-0.342985237621117

> <r_i_glide_evdw>
-36.0587921142578

> <r_i_glide_ecoul>
-5.46434497833252

> <r_i_glide_erotb>
0.564128178731896

> <r_i_glide_esite>
0

> <r_i_glide_emodel>
-32.9436945520407

> <r_i_glide_energy>
-41.5231370925903

> <r_i_glide_einternal>
24.0525913238525

> <i_i_glide_confnum>
11

> <i_i_glide_posenum>
147

> <r_i_glide_eff_state_penalty>
0

> <s_user_duplicate_titles>
CHEMBL3880_lig366

> <i_f3d_flags>
0

> <s_m_subgroup_title>
dock_pv

> <s_m_subgroupid>
dock_pv

> <b_m_subgroup_collapsed>
1

$$$$
CHEMBL3880_lig348
                    3D
 Schrodinger Suite 2021-1.
 45 48  0  0  1  0            999 V2000
   -1.0755   11.2229   24.4051 C   0  0  0  0  0  0
   -0.0125   10.5563   25.0040 C   0  0  0  0  0  0
    1.2844   11.0448   24.8820 C   0  0  0  0  0  0
    1.5312   12.2204   24.1487 C   0  0  0  0  0  0
    0.4594   12.8376   23.4869 C   0  0  0  0  0  0
   -0.8403   12.3463   23.6087 C   0  0  0  0  0  0
   -2.1376   13.1687   22.8143 Cl  0  0  0  0  0  0
    2.2787   10.3692   25.5409 O   0  0  0  0  0  0
   -2.3391   10.7687   24.6475 O   0  0  0  0  0  0
    2.8689   12.8992   24.1373 C   0  0  0  0  0  0
    2.8985   14.1966   24.3674 N   0  0  0  0  0  0
    4.2318   14.5566   24.4934 O   0  0  0  0  0  0
    4.9767   13.4447   24.2907 C   0  0  0  0  0  0
    4.1647   12.3643   23.9498 C   0  0  0  0  0  0
    6.3521   13.5590   24.3669 N   0  0  0  0  0  0
    4.5730   10.9730   23.5374 C   0  0  0  0  0  0
    5.8220   10.4460   23.8827 C   0  0  0  0  0  0
    6.1501    9.1305   23.5671 C   0  0  0  0  0  0
    5.2334    8.3092   22.9195 C   0  0  0  0  0  0
    4.0142    8.8520   22.4971 C   0  0  0  0  0  0
    3.6965   10.1736   22.7940 C   0  0  0  0  0  0
    5.5956    6.9874   22.7666 O   0  0  0  0  0  0
    4.7291    6.1101   22.0549 C   0  0  0  0  0  0
    7.0254   14.3984   25.1723 C   0  0  0  0  0  0
    8.5220   14.0684   25.3217 C   0  0  0  0  0  0
    6.5128   15.3224   25.8061 O   0  0  0  0  0  0
    9.4695   15.2231   25.5689 C   0  0  0  0  0  0
    9.1046   14.2936   26.7064 C   0  0  0  0  0  0
   -0.2002    9.6763   25.6022 H   0  0  0  0  0  0
    0.6277   13.7357   22.9105 H   0  0  0  0  0  0
    3.1464   10.7535   25.3944 H   0  0  0  0  0  0
   -3.0445   11.3676   24.3661 H   0  0  0  0  0  0
    6.8795   12.8560   23.8778 H   0  0  0  0  0  0
    6.5410   11.0195   24.4420 H   0  0  0  0  0  0
    7.1016    8.7254   23.8779 H   0  0  0  0  0  0
    3.2863    8.2555   21.9677 H   0  0  0  0  0  0
    2.7421   10.5553   22.4659 H   0  0  0  0  0  0
    5.1894    5.1251   21.9916 H   0  0  0  0  0  0
    3.7696    5.9954   22.5614 H   0  0  0  0  0  0
    4.5550    6.4577   21.0352 H   0  0  0  0  0  0
    8.8636   13.1952   24.7665 H   0  0  0  0  0  0
    9.0830   16.2424   25.5680 H   0  0  0  0  0  0
   10.4812   15.1670   25.1673 H   0  0  0  0  0  0
    9.8501   13.5875   27.0742 H   0  0  0  0  0  0
    8.4727   14.6674   27.5155 H   0  0  0  0  0  0
  1  2  2  0  0  0
  1  6  1  0  0  0
  1  9  1  0  0  0
  2  3  1  0  0  0
  2 29  1  0  0  0
  3  4  2  0  0  0
  3  8  1  0  0  0
  4  5  1  0  0  0
  4 10  1  0  0  0
  5  6  2  0  0  0
  5 30  1  0  0  0
  6  7  1  0  0  0
  8 31  1  0  0  0
  9 32  1  0  0  0
 10 11  2  0  0  0
 10 14  1  0  0  0
 11 12  1  0  0  0
 12 13  1  0  0  0
 13 14  2  0  0  0
 13 15  1  0  0  0
 14 16  1  0  0  0
 15 24  1  0  0  0
 15 33  1  0  0  0
 16 17  2  0  0  0
 16 21  1  0  0  0
 17 18  1  0  0  0
 17 34  1  0  0  0
 18 19  2  0  0  0
 18 35  1  0  0  0
 19 20  1  0  0  0
 19 22  1  0  0  0
 20 21  2  0  0  0
 20 36  1  0  0  0
 21 37  1  0  0  0
 22 23  1  0  0  0
 23 38  1  0  0  0
 23 39  1  0  0  0
 23 40  1  0  0  0
 24 25  1  0  0  0
 24 26  2  0  0  0
 25 27  1  0  0  0
 25 28  1  0  0  0
 25 41  1  0  0  0
 27 28  1  0  0  0
 27 42  1  0  0  0
 27 43  1  0  0  0
 28 44  1  0  0  0
 28 45  1  0  0  0
M  END
> <s_m_entry_id>
5066

> <s_m_entry_name>
dock_pv.385

> <s_m_Source_Path>
/home/csk/Desktop/cluster/DUD-E-result/hs90a

> <s_m_Source_File>
dock_pv.maegz

> <i_m_Source_File_Index>
385

> <chembl_id>
CHEMBL3342588

> <chembl_pref_name>
None

> <i_lp_mmshare_version>
53161

> <r_lp_tautomer_probability>
0.999999999898

> <s_lp_Force_Field>
OPLS_2005

> <r_lp_Energy>
27.191768

> <b_lp_Chiralities_Consistent>
1

> <s_lp_Variant>
CHEMBL3880_lig348-1

> <s_i_glide_gridfile>
glide-grid_1uyg

> <i_i_glide_lignum>
385

> <i_i_glide_rotatable_bonds>
8

> <r_i_docking_score>
-7.23648375927822

> <r_i_glide_ligand_efficiency>
-0.258445848545651

> <r_i_glide_ligand_efficiency_sa>
-0.784793812649073

> <r_i_glide_ligand_efficiency_ln>
-1.67039292403709

> <r_i_glide_gscore>
-7.23648375927822

> <r_i_glide_lipo>
-3.79034681800004

> <r_i_glide_hbond>
-0.16

> <r_i_glide_metal>
0

> <r_i_glide_rewards>
-1.74322844714071

> <r_i_glide_evdw>
-45.7059898376465

> <r_i_glide_ecoul>
0.880820989608765

> <r_i_glide_erotb>
0.610267849303545

> <r_i_glide_esite>
0

> <r_i_glide_emodel>
-59.7862642970603

> <r_i_glide_energy>
-44.8251688480377

> <r_i_glide_einternal>
6.80387210845947

> <i_i_glide_confnum>
44

> <i_i_glide_posenum>
249

> <r_i_glide_eff_state_penalty>
0

> <s_user_duplicate_titles>
CHEMBL3880_lig348

> <i_f3d_flags>
0

> <s_m_subgroup_title>
dock_pv

> <s_m_subgroupid>
dock_pv

> <b_m_subgroup_collapsed>
1

$$$$
CHEMBL3880_lig216
                    3D
 Schrodinger Suite 2021-1.
 28 30  0  0  1  0            999 V2000
    4.3632    8.6200   22.7660 C   0  0  0  0  0  0
    5.6457    9.1848   22.7635 C   0  0  0  0  0  0
    5.8323   10.5120   23.1694 C   0  0  0  0  0  0
    3.2562    9.3762   23.1675 C   0  0  0  0  0  0
    3.4596   10.7017   23.5606 C   0  0  0  0  0  0
    4.7155   11.2448   23.5666 C   0  0  0  0  0  0
    4.5675   12.5481   23.9667 N   0  0  0  0  0  0
    3.2722   12.8654   24.1675 C   0  0  0  0  0  0
    2.5918   11.6984   23.9852 N   0  0  0  0  0  0
    2.8418   13.9789   24.4637 O   0  0  0  0  0  0
    1.2293   11.4922   24.2737 C   0  0  0  0  0  0
    0.9080   10.7094   25.3882 C   0  0  0  0  0  0
   -0.4219   10.4702   25.7222 C   0  0  0  0  0  0
   -1.4425   11.0098   24.9454 C   0  0  0  0  0  0
   -1.1373   11.7865   23.8265 C   0  0  0  0  0  0
    0.1975   12.0261   23.4804 C   0  0  0  0  0  0
    0.4626   12.7683   22.3570 O   0  0  0  0  0  0
   -2.7389   10.7691   25.3021 O   0  0  0  0  0  0
    4.2248    7.5954   22.4514 H   0  0  0  0  0  0
    6.4909    8.5904   22.4472 H   0  0  0  0  0  0
    6.8212   10.9462   23.1628 H   0  0  0  0  0  0
    2.2693    8.9352   23.1596 H   0  0  0  0  0  0
    5.3137   13.2244   24.0278 H   0  0  0  0  0  0
    1.6900   10.2937   26.0066 H   0  0  0  0  0  0
   -0.6621    9.8694   26.5880 H   0  0  0  0  0  0
   -1.9404   12.1905   23.2274 H   0  0  0  0  0  0
   -0.3313   13.1651   21.9911 H   0  0  0  0  0  0
   -3.4076   11.3017   24.8386 H   0  0  0  0  0  0
  1  4  1  0  0  0
  1  2  2  0  0  0
  1 19  1  0  0  0
  2  3  1  0  0  0
  2 20  1  0  0  0
  3  6  2  0  0  0
  3 21  1  0  0  0
  4  5  2  0  0  0
  4 22  1  0  0  0
  5  9  1  0  0  0
  5  6  1  0  0  0
  6  7  1  0  0  0
  7  8  1  0  0  0
  7 23  1  0  0  0
  8  9  1  0  0  0
  8 10  2  0  0  0
  9 11  1  0  0  0
 11 12  2  0  0  0
 11 16  1  0  0  0
 12 13  1  0  0  0
 12 24  1  0  0  0
 13 14  2  0  0  0
 13 25  1  0  0  0
 14 15  1  0  0  0
 14 18  1  0  0  0
 15 16  2  0  0  0
 15 26  1  0  0  0
 16 17  1  0  0  0
 17 27  1  0  0  0
 18 28  1  0  0  0
M  END
> <s_m_entry_id>
5067

> <s_m_entry_name>
dock_pv.386

> <s_m_Source_Path>
/home/csk/Desktop/cluster/DUD-E-result/hs90a

> <s_m_Source_File>
dock_pv.maegz

> <i_m_Source_File_Index>
386

> <chembl_id>
CHEMBL1802335

> <chembl_pref_name>
None

> <i_lp_mmshare_version>
53161

> <r_lp_tautomer_probability>
1

> <s_lp_Force_Field>
OPLS_2005

> <r_lp_Energy>
48.90457

> <b_lp_Chiralities_Consistent>
1

> <s_lp_Variant>
CHEMBL3880_lig216-1

> <s_i_glide_gridfile>
glide-grid_1uyg

> <i_i_glide_lignum>
250

> <i_i_glide_rotatable_bonds>
3

> <r_i_docking_score>
-7.23497171949347

> <r_i_glide_ligand_efficiency>
-0.401942873305193

> <r_i_glide_ligand_efficiency_sa>
-1.05338832516329

> <r_i_glide_ligand_efficiency_ln>
-1.85971217398668

> <r_i_glide_gscore>
-7.23497171949347

> <r_i_glide_lipo>
-2.36106467690076

> <r_i_glide_hbond>
-0.16

> <r_i_glide_metal>
0

> <r_i_glide_rewards>
-2.51321009784811

> <r_i_glide_evdw>
-31.9280338287354

> <r_i_glide_ecoul>
-5.99891757965088

> <r_i_glide_erotb>
0.295542383639799

> <r_i_glide_esite>
0

> <r_i_glide_emodel>
-54.7337653964481

> <r_i_glide_energy>
-37.9269514083862

> <r_i_glide_einternal>
1.6089391708374

> <i_i_glide_confnum>
3

> <i_i_glide_posenum>
394

> <r_i_glide_eff_state_penalty>
0

> <s_user_duplicate_titles>
CHEMBL3880_lig216

> <i_f3d_flags>
0

> <s_m_subgroup_title>
dock_pv

> <s_m_subgroupid>
dock_pv

> <b_m_subgroup_collapsed>
1

$$$$
CHEMBL3880_lig218
                    3D
 Schrodinger Suite 2021-1.
 28 30  0  0  1  0            999 V2000
   -0.2042   10.0004   26.7665 C   0  0  0  0  0  0
   -1.5400   10.3691   26.5700 C   0  0  0  0  0  0
   -1.9176   11.0815   25.4266 C   0  0  0  0  0  0
    0.7706   10.3694   25.8340 C   0  0  0  0  0  0
    0.3821   11.1230   24.7230 C   0  0  0  0  0  0
   -0.9273   11.4558   24.5198 C   0  0  0  0  0  0
   -0.9721   12.1465   23.3324 N   0  0  0  0  0  0
    0.2540   12.2604   22.7762 C   0  0  0  0  0  0
    1.0945   11.6685   23.6694 N   0  0  0  0  0  0
    0.5265   12.7690   21.6898 O   0  0  0  0  0  0
    2.4950   11.6426   23.5919 C   0  0  0  0  0  0
    3.1288   10.4602   23.1884 C   0  0  0  0  0  0
    4.5229   10.3787   23.1673 C   0  0  0  0  0  0
    5.2891   11.4826   23.5669 C   0  0  0  0  0  0
    4.6581   12.6615   23.9670 C   0  0  0  0  0  0
    3.2663   12.7523   23.9750 C   0  0  0  0  0  0
    2.6867   13.9320   24.3670 O   0  0  0  0  0  0
    7.0175   11.4254   23.5520 Cl  0  0  0  0  0  0
    5.1230    9.2181   22.7481 O   0  0  0  0  0  0
    0.0776    9.4354   27.6439 H   0  0  0  0  0  0
   -2.2908   10.0814   27.2920 H   0  0  0  0  0  0
   -2.9570   11.3267   25.2670 H   0  0  0  0  0  0
    1.8030   10.0987   25.9986 H   0  0  0  0  0  0
   -1.8206   12.4746   22.8933 H   0  0  0  0  0  0
    2.5359    9.6058   22.8946 H   0  0  0  0  0  0
    5.2604   13.5096   24.2595 H   0  0  0  0  0  0
    3.3304   14.6192   24.5510 H   0  0  0  0  0  0
    4.5114    8.5208   22.4986 H   0  0  0  0  0  0
  1  4  1  0  0  0
  1  2  2  0  0  0
  1 20  1  0  0  0
  2  3  1  0  0  0
  2 21  1  0  0  0
  3  6  2  0  0  0
  3 22  1  0  0  0
  4  5  2  0  0  0
  4 23  1  0  0  0
  5  9  1  0  0  0
  5  6  1  0  0  0
  6  7  1  0  0  0
  7  8  1  0  0  0
  7 24  1  0  0  0
  8 10  2  0  0  0
  8  9  1  0  0  0
  9 11  1  0  0  0
 11 12  2  0  0  0
 11 16  1  0  0  0
 12 13  1  0  0  0
 12 25  1  0  0  0
 13 14  2  0  0  0
 13 19  1  0  0  0
 14 15  1  0  0  0
 14 18  1  0  0  0
 15 16  2  0  0  0
 15 26  1  0  0  0
 16 17  1  0  0  0
 17 27  1  0  0  0
 19 28  1  0  0  0
M  END
> <s_m_entry_id>
5068

> <s_m_entry_name>
dock_pv.387

> <s_m_Source_Path>
/home/csk/Desktop/cluster/DUD-E-result/hs90a

> <s_m_Source_File>
dock_pv.maegz

> <i_m_Source_File_Index>
387

> <chembl_id>
CHEMBL1802338

> <chembl_pref_name>
None

> <i_lp_mmshare_version>
53161

> <r_lp_tautomer_probability>
1

> <s_lp_Force_Field>
OPLS_2005

> <r_lp_Energy>
49.194598

> <b_lp_Chiralities_Consistent>
1

> <s_lp_Variant>
CHEMBL3880_lig218-1

> <s_i_glide_gridfile>
glide-grid_1uyg

> <i_i_glide_lignum>
252

> <i_i_glide_rotatable_bonds>
3

> <r_i_docking_score>
-7.23114153626271

> <r_i_glide_ligand_efficiency>
-0.380586396645406

> <r_i_glide_ligand_efficiency_sa>
-1.015557367293

> <r_i_glide_ligand_efficiency_ln>
-1.83324969012218

> <r_i_glide_gscore>
-7.23114153626271

> <r_i_glide_lipo>
-2.73260765435569

> <r_i_glide_hbond>
-0.00246706417265825

> <r_i_glide_metal>
0

> <r_i_glide_rewards>
-2.29431678336813

> <r_i_glide_evdw>
-34.3113708496094

> <r_i_glide_ecoul>
-4.80846071243286

> <r_i_glide_erotb>
0.235087614979162

> <r_i_glide_esite>
0

> <r_i_glide_emodel>
-56.1926814694323

> <r_i_glide_energy>
-39.1198315620422

> <r_i_glide_einternal>
0.413088113069534

> <i_i_glide_confnum>
2

> <i_i_glide_posenum>
392

> <r_i_glide_eff_state_penalty>
0

> <s_user_duplicate_titles>
CHEMBL3880_lig218

> <i_f3d_flags>
0

> <s_m_subgroup_title>
dock_pv

> <s_m_subgroupid>
dock_pv

> <b_m_subgroup_collapsed>
1

$$$$
CHEMBL3880_lig437
                    3D
 Schrodinger Suite 2021-1.
 29 30  0  0  1  0            999 V2000
    3.3997   13.7313   24.3670 C   0  0  0  0  0  0
    4.9021   13.8456   24.5090 C   0  0  0  0  0  0
    5.4958   14.9182   25.2045 C   0  0  0  0  0  0
    6.8755   14.9552   25.3962 C   0  0  0  0  0  0
    7.6898   13.9423   24.8965 C   0  0  0  0  0  0
    7.1216   12.8909   24.1670 C   0  0  0  0  0  0
    5.7430   12.8575   23.9670 C   0  0  0  0  0  0
    2.6974   14.7435   24.3670 O   0  0  0  0  0  0
    2.9180   12.4714   24.2961 N   0  0  0  0  0  0
    1.5757   12.0654   24.2713 C   0  0  0  0  0  0
    1.2868   10.8458   24.8858 C   0  0  0  0  0  0
   -0.0298   10.4096   24.9739 C   0  0  0  0  0  0
   -1.0503   11.1837   24.4326 C   0  0  0  0  0  0
   -0.7686   12.3688   23.7570 C   0  0  0  0  0  0
    0.5492   12.8136   23.6745 C   0  0  0  0  0  0
   -2.3390   10.7690   24.5952 O   0  0  0  0  0  0
    9.0325   13.9911   25.1670 O   0  0  0  0  0  0
    4.7547   15.9406   25.7385 O   0  0  0  0  0  0
    8.0610   11.5690   23.5670 Cl  0  0  0  0  0  0
    7.3033   15.7741   25.9556 H   0  0  0  0  0  0
    5.3358   12.0283   23.4057 H   0  0  0  0  0  0
    3.5881   11.7295   24.4220 H   0  0  0  0  0  0
    2.0687   10.2516   25.3369 H   0  0  0  0  0  0
   -0.2634    9.4842   25.4797 H   0  0  0  0  0  0
   -1.5666   12.9553   23.3248 H   0  0  0  0  0  0
    0.7568   13.7438   23.1670 H   0  0  0  0  0  0
   -3.0229   11.4143   24.3670 H   0  0  0  0  0  0
    9.2455   14.7005   25.7773 H   0  0  0  0  0  0
    3.8301   15.8520   25.4817 H   0  0  0  0  0  0
  1  2  1  0  0  0
  1  8  2  0  0  0
  1  9  1  0  0  0
  2  3  1  0  0  0
  2  7  2  0  0  0
  3  4  2  0  0  0
  3 18  1  0  0  0
  4  5  1  0  0  0
  4 20  1  0  0  0
  5  6  2  0  0  0
  5 17  1  0  0  0
  6  7  1  0  0  0
  6 19  1  0  0  0
  7 21  1  0  0  0
  9 10  1  0  0  0
  9 22  1  0  0  0
 10 11  1  0  0  0
 10 15  2  0  0  0
 11 12  2  0  0  0
 11 23  1  0  0  0
 12 13  1  0  0  0
 12 24  1  0  0  0
 13 14  2  0  0  0
 13 16  1  0  0  0
 14 15  1  0  0  0
 14 25  1  0  0  0
 15 26  1  0  0  0
 16 27  1  0  0  0
 17 28  1  0  0  0
 18 29  1  0  0  0
M  END
> <s_m_entry_id>
5069

> <s_m_entry_name>
dock_pv.388

> <s_m_Source_Path>
/home/csk/Desktop/cluster/DUD-E-result/hs90a

> <s_m_Source_File>
dock_pv.maegz

> <i_m_Source_File_Index>
388

> <chembl_id>
CHEMBL3957228

> <chembl_pref_name>
None

> <i_lp_mmshare_version>
53161

> <r_lp_tautomer_probability>
0.999999999895365

> <s_lp_Force_Field>
OPLS_2005

> <r_lp_Energy>
21.310091

> <b_lp_Chiralities_Consistent>
1

> <s_lp_Variant>
CHEMBL3880_lig437-1

> <s_i_glide_gridfile>
glide-grid_1uyg

> <i_i_glide_lignum>
479

> <i_i_glide_rotatable_bonds>
6

> <r_i_docking_score>
-7.22924336526755

> <r_i_glide_ligand_efficiency>
-0.380486492908818

> <r_i_glide_ligand_efficiency_sa>
-1.01529078399783

> <r_i_glide_ligand_efficiency_ln>
-1.83276846300593

> <r_i_glide_gscore>
-7.22924336526755

> <r_i_glide_lipo>
-3.18692777622648

> <r_i_glide_hbond>
-0.257536759021144

> <r_i_glide_metal>
0

> <r_i_glide_rewards>
-2.23917360091384

> <r_i_glide_evdw>
-35.0963516235352

> <r_i_glide_ecoul>
-3.21979808807373

> <r_i_glide_erotb>
0.692182065281737

> <r_i_glide_esite>
0

> <r_i_glide_emodel>
-55.8177630329708

> <r_i_glide_energy>
-38.3161497116089

> <r_i_glide_einternal>
1.78420341014862

> <i_i_glide_confnum>
6

> <i_i_glide_posenum>
344

> <r_i_glide_eff_state_penalty>
0

> <s_user_duplicate_titles>
CHEMBL3880_lig437

> <i_f3d_flags>
0

> <s_m_subgroup_title>
dock_pv

> <s_m_subgroupid>
dock_pv

> <b_m_subgroup_collapsed>
1

$$$$
CHEMBL3880_lig423
                    3D
 Schrodinger Suite 2021-1.
 54 56  0  0  1  0            999 V2000
   -0.1290   12.1299   22.8985 C   0  0  0  0  0  0
   -1.3788   11.8434   23.4546 C   0  0  0  0  0  0
   -1.4735   11.0834   24.6215 C   0  0  0  0  0  0
   -0.3045   10.6289   25.2476 C   0  0  0  0  0  0
    0.9363   10.9916   24.7312 C   0  0  0  0  0  0
    1.0482   11.7137   23.5444 C   0  0  0  0  0  0
    2.4536   11.9685   22.9826 C   0  0  0  0  0  0
    3.2745   10.6576   22.8908 C   0  0  0  0  0  0
    3.1961   13.0327   23.8122 C   0  0  0  0  0  0
   -0.0929   12.7690   21.6889 O   0  0  0  0  0  0
   -2.7121   10.7690   25.1251 O   0  0  0  0  0  0
   -0.3013    9.7441   26.4405 C   0  0  0  0  0  0
   -1.2752    9.9689   27.3508 O   0  0  0  0  0  0
   -1.1385    9.0404   28.3670 N   0  0  0  0  0  0
   -0.0646    8.3259   28.1071 C   0  0  0  0  0  0
    0.5138    8.7049   26.8835 C   0  0  0  0  0  0
    1.6925    8.1408   26.2301 C   0  0  0  0  0  0
    0.4612    7.3448   29.0218 C   0  0  0  0  0  0
    0.9767    7.8851   30.1421 N   0  0  0  0  0  0
    0.4401    6.1394   28.7660 O   0  0  0  0  0  0
    2.6843    7.6527   25.7108 C   0  0  0  0  0  0
    3.8798    7.0766   25.1117 C   0  0  0  0  0  0
    1.6142    7.1799   31.2561 C   0  0  0  0  0  0
    2.8333    6.3326   30.8382 C   0  0  0  0  0  0
    0.5968    6.3921   32.1033 C   0  0  0  0  0  0
    4.0872    7.1847   23.7343 C   0  0  0  0  0  0
    5.2448    6.6604   23.1661 C   0  0  0  0  0  0
    6.1871    6.0271   23.9748 C   0  0  0  0  0  0
    5.9780    5.9041   25.3477 C   0  0  0  0  0  0
    4.8183    6.4249   25.9178 C   0  0  0  0  0  0
   -2.2847   12.1642   22.9584 H   0  0  0  0  0  0
    1.8341   10.6797   25.2437 H   0  0  0  0  0  0
    2.3590   12.3592   21.9686 H   0  0  0  0  0  0
    2.7162    9.8823   22.3676 H   0  0  0  0  0  0
    4.2213   10.7779   22.3671 H   0  0  0  0  0  0
    3.5276   10.2641   23.8760 H   0  0  0  0  0  0
    2.6562   13.9805   23.8114 H   0  0  0  0  0  0
    3.3156   12.7236   24.8513 H   0  0  0  0  0  0
    4.1934   13.2247   23.4155 H   0  0  0  0  0  0
   -0.9788   12.9586   21.3710 H   0  0  0  0  0  0
   -3.4458   11.2952   24.7668 H   0  0  0  0  0  0
    0.7064    8.8391   30.3458 H   0  0  0  0  0  0
    2.0107    7.9691   31.8993 H   0  0  0  0  0  0
    3.2935    5.8631   31.7084 H   0  0  0  0  0  0
    2.5652    5.5295   30.1518 H   0  0  0  0  0  0
    3.6003    6.9486   30.3666 H   0  0  0  0  0  0
    1.0937    5.8618   32.9156 H   0  0  0  0  0  0
   -0.1327    7.0597   32.5622 H   0  0  0  0  0  0
    0.0619    5.6484   31.5136 H   0  0  0  0  0  0
    3.3592    7.6738   23.1012 H   0  0  0  0  0  0
    5.4117    6.7458   22.1024 H   0  0  0  0  0  0
    7.0858    5.6273   23.5290 H   0  0  0  0  0  0
    6.7147    5.4127   25.9671 H   0  0  0  0  0  0
    4.6616    6.3357   26.9834 H   0  0  0  0  0  0
  1  2  2  0  0  0
  1  6  1  0  0  0
  1 10  1  0  0  0
  2  3  1  0  0  0
  2 31  1  0  0  0
  3  4  2  0  0  0
  3 11  1  0  0  0
  4  5  1  0  0  0
  4 12  1  0  0  0
  5  6  2  0  0  0
  5 32  1  0  0  0
  6  7  1  0  0  0
  7  8  1  0  0  0
  7  9  1  0  0  0
  7 33  1  0  0  0
  8 34  1  0  0  0
  8 35  1  0  0  0
  8 36  1  0  0  0
  9 37  1  0  0  0
  9 38  1  0  0  0
  9 39  1  0  0  0
 10 40  1  0  0  0
 11 41  1  0  0  0
 12 13  1  0  0  0
 12 16  2  0  0  0
 13 14  1  0  0  0
 14 15  2  0  0  0
 15 16  1  0  0  0
 15 18  1  0  0  0
 16 17  1  0  0  0
 17 21  3  0  0  0
 18 19  1  0  0  0
 18 20  2  0  0  0
 19 23  1  0  0  0
 19 42  1  0  0  0
 21 22  1  0  0  0
 22 26  2  0  0  0
 22 30  1  0  0  0
 23 24  1  0  0  0
 23 25  1  0  0  0
 23 43  1  0  0  0
 24 44  1  0  0  0
 24 45  1  0  0  0
 24 46  1  0  0  0
 25 47  1  0  0  0
 25 48  1  0  0  0
 25 49  1  0  0  0
 26 27  1  0  0  0
 26 50  1  0  0  0
 27 28  2  0  0  0
 27 51  1  0  0  0
 28 29  1  0  0  0
 28 52  1  0  0  0
 29 30  2  0  0  0
 29 53  1  0  0  0
 30 54  1  0  0  0
M  END
> <s_m_entry_id>
5070

> <s_m_entry_name>
dock_pv.389

> <s_m_Source_Path>
/home/csk/Desktop/cluster/DUD-E-result/hs90a

> <s_m_Source_File>
dock_pv.maegz

> <i_m_Source_File_Index>
389

> <chembl_id>
CHEMBL3600494

> <chembl_pref_name>
None

> <i_lp_mmshare_version>
53161

> <r_lp_tautomer_probability>
0.999999999898

> <s_lp_Force_Field>
OPLS_2005

> <r_lp_Energy>
20.70217

> <b_lp_Chiralities_Consistent>
1

> <s_lp_Variant>
CHEMBL3880_lig423-1

> <s_i_glide_gridfile>
glide-grid_1uyg

> <i_i_glide_lignum>
465

> <i_i_glide_rotatable_bonds>
9

> <r_i_docking_score>
-7.22060903635106

> <r_i_glide_ligand_efficiency>
-0.240686967878369

> <r_i_glide_ligand_efficiency_sa>
-0.747870369503254

> <r_i_glide_ligand_efficiency_ln>
-1.64060104789577

> <r_i_glide_gscore>
-7.22060903635106

> <r_i_glide_lipo>
-3.14569448749784

> <r_i_glide_hbond>
-0.214876960324432

> <r_i_glide_metal>
0

> <r_i_glide_rewards>
-0.941198959719297

> <r_i_glide_evdw>
-44.5336303710938

> <r_i_glide_ecoul>
-8.6170129776001

> <r_i_glide_erotb>
0.600394836385209

> <r_i_glide_esite>
0

> <r_i_glide_emodel>
-72.3134203779599

> <r_i_glide_energy>
-53.1506433486938

> <r_i_glide_einternal>
8.94068717956543

> <i_i_glide_confnum>
2

> <i_i_glide_posenum>
99

> <r_i_glide_eff_state_penalty>
0

> <s_user_duplicate_titles>
CHEMBL3880_lig423

> <i_f3d_flags>
0

> <s_m_subgroup_title>
dock_pv

> <s_m_subgroupid>
dock_pv

> <b_m_subgroup_collapsed>
1

$$$$
CHEMBL3880_lig431
                    3D
 Schrodinger Suite 2021-1.
 54 57  0  0  1  0            999 V2000
    1.8435    7.5878   29.5075 C   0  0  0  0  0  0
    1.1586    7.9519   28.3971 N   0  0  0  0  0  0
    1.7313    7.5352   27.2582 C   0  0  0  0  0  0
    2.9469    6.7957   27.1563 C   0  0  0  0  0  0
    3.5662    6.5081   28.3891 C   0  0  0  0  0  0
    3.0019    6.8912   29.5641 N   0  0  0  0  0  0
    1.2591    7.7296   25.9734 N   0  0  0  0  0  0
    3.2056    6.5493   25.7567 C   0  0  0  0  0  0
    2.1193    7.0990   25.1011 C   0  0  0  0  0  0
    1.2981    7.9687   30.7216 N   0  0  0  0  0  0
    0.1034    8.5284   25.5666 C   0  0  0  0  0  0
    0.4125    9.9136   24.9799 C   0  0  0  0  0  0
   -0.6211   10.8051   24.6455 C   0  0  0  0  0  0
   -0.2858   12.0048   23.9899 C   0  0  0  0  0  0
    1.0648   12.3307   23.8060 C   0  0  0  0  0  0
    2.0341   11.4056   24.1977 C   0  0  0  0  0  0
    1.7232   10.2133   24.7567 N   0  0  0  0  0  0
    1.4751   13.6659   23.2192 C   0  0  0  0  0  0
   -2.0640   10.4950   25.0238 C   0  0  0  0  0  0
   -1.2502   12.8900   23.5665 O   0  0  0  0  0  0
   -1.8997   12.5272   22.3519 C   0  0  0  0  0  0
    5.0585    5.6449   28.4529 Cl  0  0  0  0  0  0
    4.3794    5.8233   25.1173 C   0  0  0  0  0  0
    5.5296    6.7431   24.7175 C   0  0  0  0  0  0
    5.3007    7.8490   23.8896 C   0  0  0  0  0  0
    6.3487    8.6983   23.5130 C   0  0  0  0  0  0
    7.6415    8.4117   23.9590 C   0  0  0  0  0  0
    7.8841    7.3015   24.7657 C   0  0  0  0  0  0
    6.8321    6.4700   25.1455 C   0  0  0  0  0  0
    6.1019    9.9251   22.6357 C   0  0  0  0  0  0
    6.9602    9.9556   21.6157 F   0  0  0  0  0  0
    4.8674    9.9435   22.1325 F   0  0  0  0  0  0
    6.2671   11.0290   23.3648 F   0  0  0  0  0  0
    1.9134    7.1462   24.0404 H   0  0  0  0  0  0
    1.9501    7.9905   31.4963 H   0  0  0  0  0  0
    0.5297    8.6315   30.6989 H   0  0  0  0  0  0
   -0.4571    7.9513   24.8285 H   0  0  0  0  0  0
   -0.5447    8.6471   26.4337 H   0  0  0  0  0  0
    3.0878   11.6068   24.0706 H   0  0  0  0  0  0
    1.0594   13.7772   22.2190 H   0  0  0  0  0  0
    1.0820   14.4788   23.8318 H   0  0  0  0  0  0
    2.5568   13.7716   23.1673 H   0  0  0  0  0  0
   -2.7391   11.3009   24.7434 H   0  0  0  0  0  0
   -2.4044    9.5700   24.5616 H   0  0  0  0  0  0
   -2.1498   10.3657   26.1069 H   0  0  0  0  0  0
   -2.7077   13.2311   22.1454 H   0  0  0  0  0  0
   -1.2060   12.5567   21.5101 H   0  0  0  0  0  0
   -2.3405   11.5286   22.3939 H   0  0  0  0  0  0
    4.0347    5.3667   24.1879 H   0  0  0  0  0  0
    4.7239    4.9974   25.7383 H   0  0  0  0  0  0
    4.2967    8.0557   23.5477 H   0  0  0  0  0  0
    8.4606    9.0604   23.6855 H   0  0  0  0  0  0
    8.8862    7.1017   25.1082 H   0  0  0  0  0  0
    7.0322    5.6152   25.7758 H   0  0  0  0  0  0
  1  2  1  0  0  0
  1  6  2  0  0  0
  1 10  1  0  0  0
  2  3  2  0  0  0
  3  4  1  0  0  0
  3  7  1  0  0  0
  4  5  2  0  0  0
  4  8  1  0  0  0
  5  6  1  0  0  0
  5 22  1  0  0  0
  7  9  1  0  0  0
  7 11  1  0  0  0
  8  9  2  0  0  0
  8 23  1  0  0  0
  9 34  1  0  0  0
 10 35  1  0  0  0
 10 36  1  0  0  0
 11 12  1  0  0  0
 11 37  1  0  0  0
 11 38  1  0  0  0
 12 13  1  0  0  0
 12 17  2  0  0  0
 13 14  2  0  0  0
 13 19  1  0  0  0
 14 15  1  0  0  0
 14 20  1  0  0  0
 15 16  2  0  0  0
 15 18  1  0  0  0
 16 17  1  0  0  0
 16 39  1  0  0  0
 18 40  1  0  0  0
 18 41  1  0  0  0
 18 42  1  0  0  0
 19 43  1  0  0  0
 19 44  1  0  0  0
 19 45  1  0  0  0
 20 21  1  0  0  0
 21 46  1  0  0  0
 21 47  1  0  0  0
 21 48  1  0  0  0
 23 24  1  0  0  0
 23 49  1  0  0  0
 23 50  1  0  0  0
 24 25  1  0  0  0
 24 29  2  0  0  0
 25 26  2  0  0  0
 25 51  1  0  0  0
 26 27  1  0  0  0
 26 30  1  0  0  0
 27 28  2  0  0  0
 27 52  1  0  0  0
 28 29  1  0  0  0
 28 53  1  0  0  0
 29 54  1  0  0  0
 30 31  1  0  0  0
 30 32  1  0  0  0
 30 33  1  0  0  0
M  END
> <s_m_entry_id>
5071

> <s_m_entry_name>
dock_pv.390

> <s_m_Source_Path>
/home/csk/Desktop/cluster/DUD-E-result/hs90a

> <s_m_Source_File>
dock_pv.maegz

> <i_m_Source_File_Index>
390

> <chembl_id>
CHEMBL3966260

> <chembl_pref_name>
None

> <i_lp_mmshare_version>
53161

> <r_lp_tautomer_probability>
1

> <s_lp_Force_Field>
OPLS_2005

> <r_lp_Energy>
11.627124

> <b_lp_Chiralities_Consistent>
1

> <s_lp_Variant>
CHEMBL3880_lig431-1

> <s_i_glide_gridfile>
glide-grid_1uyg

> <i_i_glide_lignum>
473

> <i_i_glide_rotatable_bonds>
6

> <r_i_docking_score>
-7.21440865308348

> <r_i_glide_ligand_efficiency>
-0.218618444032833

> <r_i_glide_ligand_efficiency_sa>
-0.701226163588301

> <r_i_glide_ligand_efficiency_ln>
-1.60444713023691

> <r_i_glide_gscore>
-7.21440865308348

> <r_i_glide_lipo>
-3.09801773150428

> <r_i_glide_hbond>
-0.32

> <r_i_glide_metal>
0

> <r_i_glide_rewards>
-1.10004461359699

> <r_i_glide_evdw>
-46.301399230957

> <r_i_glide_ecoul>
-4.92571258544922

> <r_i_glide_erotb>
0.357580541383029

> <r_i_glide_esite>
0

> <r_i_glide_emodel>
-66.2908859367002

> <r_i_glide_energy>
-51.2271118164062

> <r_i_glide_einternal>
5.89008092880249

> <i_i_glide_confnum>
19

> <i_i_glide_posenum>
270

> <r_i_glide_eff_state_penalty>
0

> <s_user_duplicate_titles>
CHEMBL3880_lig431

> <i_f3d_flags>
0

> <s_m_subgroup_title>
dock_pv

> <s_m_subgroupid>
dock_pv

> <b_m_subgroup_collapsed>
1

$$$$
CHEMBL3880_lig134
                    3D
 Schrodinger Suite 2021-1.
 36 37  0  0  1  0            999 V2000
   -0.6772   12.3692   22.8707 C   0  0  0  0  0  0
   -0.0451   11.5678   23.9988 C   0  0  0  0  0  0
    1.3731   11.4903   24.1834 C   0  0  0  0  0  0
    1.9047   10.6245   25.1659 C   0  0  0  0  0  0
    1.0561    9.8648   25.9685 C   0  0  0  0  0  0
   -0.3122    9.9655   25.8232 C   0  0  0  0  0  0
   -0.8666   10.7917   24.8589 C   0  0  0  0  0  0
   -0.1064   12.6585   21.8157 O   0  0  0  0  0  0
   -1.9388   12.7871   23.1397 O   0  0  0  0  0  0
    2.3710   12.3668   23.3948 C   0  0  0  0  0  0
    2.4892   13.8065   23.9724 C   0  0  0  0  0  0
    3.7683   14.1411   24.7673 C   0  0  0  0  0  0
    4.9495   13.7402   24.2542 N   0  0  0  0  0  0
    6.6278   15.1688   25.9724 S   0  0  0  0  0  0
    6.2236   13.9690   24.7671 C   0  0  0  0  0  0
    7.2435   13.2559   24.3592 N   0  0  0  0  0  0
    8.3529   13.5693   25.0000 C   0  0  0  0  0  0
    8.2666   14.5982   25.9305 C   0  0  0  0  0  0
    3.6610   14.7714   25.8154 O   0  0  0  0  0  0
   -2.2384   10.7689   24.8189 O   0  0  0  0  0  0
    1.5489    9.0234   26.9318 O   0  0  0  0  0  0
    3.6176   10.4850   25.4431 Cl  0  0  0  0  0  0
   -2.7393   13.4097   22.1396 C   0  0  0  0  0  0
   -0.9527    9.3841   26.4693 H   0  0  0  0  0  0
    2.1267   12.4003   22.3385 H   0  0  0  0  0  0
    3.3415   11.8789   23.3380 H   0  0  0  0  0  0
    1.6207   14.0356   24.5901 H   0  0  0  0  0  0
    2.4213   14.5292   23.1671 H   0  0  0  0  0  0
    4.9152   13.1835   23.4154 H   0  0  0  0  0  0
    9.2448   13.0052   24.7705 H   0  0  0  0  0  0
    9.0284   15.0168   26.5729 H   0  0  0  0  0  0
   -2.6314   11.4144   24.2211 H   0  0  0  0  0  0
    2.5024    9.0940   27.0129 H   0  0  0  0  0  0
   -3.7432   13.5841   22.5279 H   0  0  0  0  0  0
   -2.3392   14.3686   21.8149 H   0  0  0  0  0  0
   -2.8253   12.7711   21.2588 H   0  0  0  0  0  0
  1  2  1  0  0  0
  1  8  2  0  0  0
  1  9  1  0  0  0
  2  3  1  0  0  0
  2  7  2  0  0  0
  3  4  2  0  0  0
  3 10  1  0  0  0
  4  5  1  0  0  0
  4 22  1  0  0  0
  5  6  2  0  0  0
  5 21  1  0  0  0
  6  7  1  0  0  0
  6 24  1  0  0  0
  7 20  1  0  0  0
  9 23  1  0  0  0
 10 11  1  0  0  0
 10 25  1  0  0  0
 10 26  1  0  0  0
 11 12  1  0  0  0
 11 27  1  0  0  0
 11 28  1  0  0  0
 12 13  1  0  0  0
 12 19  2  0  0  0
 13 15  1  0  0  0
 13 29  1  0  0  0
 14 15  1  0  0  0
 14 18  1  0  0  0
 15 16  2  0  0  0
 16 17  1  0  0  0
 17 18  2  0  0  0
 17 30  1  0  0  0
 18 31  1  0  0  0
 20 32  1  0  0  0
 21 33  1  0  0  0
 23 34  1  0  0  0
 23 35  1  0  0  0
 23 36  1  0  0  0
M  END
> <s_m_entry_id>
5072

> <s_m_entry_name>
dock_pv.391

> <s_m_Source_Path>
/home/csk/Desktop/cluster/DUD-E-result/hs90a

> <s_m_Source_File>
dock_pv.maegz

> <i_m_Source_File_Index>
391

> <chembl_id>
CHEMBL3310679

> <chembl_pref_name>
None

> <i_lp_mmshare_version>
53161

> <r_lp_tautomer_probability>
0.999000488399163

> <s_lp_Force_Field>
OPLS_2005

> <r_lp_Energy>
18.392693

> <b_lp_Chiralities_Consistent>
1

> <s_lp_Variant>
CHEMBL3880_lig134-1

> <s_i_glide_gridfile>
glide-grid_1uyg

> <i_i_glide_lignum>
151

> <i_i_glide_rotatable_bonds>
9

> <r_i_docking_score>
-7.2110529690422

> <r_i_glide_ligand_efficiency>
-0.313524042132269

> <r_i_glide_ligand_efficiency_sa>
-0.891620669877661

> <r_i_glide_ligand_efficiency_ln>
-1.74369799412766

> <r_i_glide_gscore>
-7.2110529690422

> <r_i_glide_lipo>
-3.29702861248115

> <r_i_glide_hbond>
0

> <r_i_glide_metal>
0

> <r_i_glide_rewards>
-2.13500463985484

> <r_i_glide_evdw>
-43.2237319946289

> <r_i_glide_ecoul>
-2.46331596374512

> <r_i_glide_erotb>
0.751664277587008

> <r_i_glide_esite>
0

> <r_i_glide_emodel>
-62.4067678929069

> <r_i_glide_energy>
-45.687047958374

> <r_i_glide_einternal>
7.07289600372314

> <i_i_glide_confnum>
29

> <i_i_glide_posenum>
189

> <r_i_glide_eff_state_penalty>
0

> <s_user_duplicate_titles>
CHEMBL3880_lig134

> <i_f3d_flags>
0

> <s_m_subgroup_title>
dock_pv

> <s_m_subgroupid>
dock_pv

> <b_m_subgroup_collapsed>
1

$$$$
CHEMBL3880_lig898
                    3D
 Schrodinger Suite 2021-1.
 49 51  0  0  1  0            999 V2000
    1.7451   10.5329   24.4452 C   0  0  0  0  0  0
    1.3758    9.2570   26.1742 C   0  0  0  0  0  0
    2.2762    9.5221   25.1784 N   0  0  0  0  0  0
    0.3231   10.1128   25.9335 C   0  0  0  0  0  0
    0.5604   10.8968   24.8708 N   0  0  0  0  0  0
    1.4444    8.3542   27.1830 N   0  0  0  0  0  0
   -0.7362    9.1377   27.8293 N   0  0  0  0  0  0
   -0.7834   10.0185   26.8001 C   0  0  0  0  0  0
    4.4054   14.3658   24.7408 C   0  0  0  0  0  0
    0.3533    8.3676   27.9699 C   0  0  0  0  0  0
    3.6942   12.2990   23.7041 C   0  0  0  0  0  0
    3.3777   13.5392   24.2724 C   0  0  0  0  0  0
    2.4612   11.2395   23.0004 S   0  0  0  0  0  0
    5.7485   13.9691   24.6140 C   0  0  0  0  0  0
    6.0722   12.7647   23.9670 C   0  0  0  0  0  0
    5.0289   11.9287   23.5540 C   0  0  0  0  0  0
    4.3261    8.2958   21.9102 C   0  0  0  0  0  0
    5.2459    8.8105   21.2945 C   0  0  0  0  0  0
   -1.9399   10.7689   26.6396 N   0  0  0  0  0  0
    1.7380   14.0996   24.3512 Cl  0  0  0  0  0  0
    3.5564    8.8113   24.9717 C   0  0  0  0  0  0
    0.3482    7.5014   29.0073 F   0  0  0  0  0  0
    4.0655   15.5736   25.3004 O   0  0  0  0  0  0
    6.7386   14.7043   25.2224 O   0  0  0  0  0  0
    7.4097   12.4281   23.8655 O   0  0  0  0  0  0
    3.2000    7.6731   22.6305 C   0  0  0  0  0  0
    4.4208   15.7433   26.6611 C   0  0  0  0  0  0
    7.4849   15.5450   24.3665 C   0  0  0  0  0  0
    3.3979    7.5081   24.1534 C   0  0  0  0  0  0
    7.7785   11.1609   23.3292 C   0  0  0  0  0  0
    5.2455   10.9905   23.0715 H   0  0  0  0  0  0
    6.0616    9.2440   20.7653 H   0  0  0  0  0  0
   -2.0826   11.2545   25.7648 H   0  0  0  0  0  0
   -2.7233   10.5599   27.2393 H   0  0  0  0  0  0
    4.2513    9.5144   24.5218 H   0  0  0  0  0  0
    3.9313    8.5845   25.9669 H   0  0  0  0  0  0
    3.0349    6.6974   22.1714 H   0  0  0  0  0  0
    2.3090    8.2599   22.4150 H   0  0  0  0  0  0
    3.6582   16.3341   27.1668 H   0  0  0  0  0  0
    4.5062   14.7829   27.1670 H   0  0  0  0  0  0
    5.3673   16.2777   26.7519 H   0  0  0  0  0  0
    8.3158   15.9688   24.9284 H   0  0  0  0  0  0
    7.9022   15.0088   23.5134 H   0  0  0  0  0  0
    6.8615   16.3635   24.0063 H   0  0  0  0  0  0
    4.2844    6.8927   24.3166 H   0  0  0  0  0  0
    2.5697    6.9257   24.5611 H   0  0  0  0  0  0
    8.8598   11.0411   23.3916 H   0  0  0  0  0  0
    7.3306   10.3387   23.8896 H   0  0  0  0  0  0
    7.4958   11.0767   22.2792 H   0  0  0  0  0  0
  1  3  1  0  0  0
  1  5  2  0  0  0
  1 13  1  0  0  0
  2  3  1  0  0  0
  2  6  2  0  0  0
  2  4  1  0  0  0
  3 21  1  0  0  0
  4  5  1  0  0  0
  4  8  2  0  0  0
  6 10  1  0  0  0
  7  8  1  0  0  0
  7 10  2  0  0  0
  8 19  1  0  0  0
  9 12  2  0  0  0
  9 23  1  0  0  0
  9 14  1  0  0  0
 10 22  1  0  0  0
 11 13  1  0  0  0
 11 12  1  0  0  0
 11 16  2  0  0  0
 12 20  1  0  0  0
 14 15  2  0  0  0
 14 24  1  0  0  0
 15 16  1  0  0  0
 15 25  1  0  0  0
 16 31  1  0  0  0
 17 26  1  0  0  0
 17 18  3  0  0  0
 18 32  1  0  0  0
 19 33  1  0  0  0
 19 34  1  0  0  0
 21 29  1  0  0  0
 21 35  1  0  0  0
 21 36  1  0  0  0
 23 27  1  0  0  0
 24 28  1  0  0  0
 25 30  1  0  0  0
 26 29  1  0  0  0
 26 37  1  0  0  0
 26 38  1  0  0  0
 27 39  1  0  0  0
 27 40  1  0  0  0
 27 41  1  0  0  0
 28 42  1  0  0  0
 28 43  1  0  0  0
 28 44  1  0  0  0
 29 45  1  0  0  0
 29 46  1  0  0  0
 30 47  1  0  0  0
 30 48  1  0  0  0
 30 49  1  0  0  0
M  END
> <s_m_entry_id>
5073

> <s_m_entry_name>
dock_pv.392

> <s_m_Source_Path>
/home/csk/Desktop/cluster/DUD-E-result/hs90a

> <s_m_Source_File>
dock_pv.maegz

> <i_m_Source_File_Index>
392

> <chembl_id>
CHEMBL193282

> <chembl_pref_name>
None

> <i_lp_mmshare_version>
53161

> <r_lp_tautomer_probability>
0.999997216410988

> <s_lp_Force_Field>
OPLS_2005

> <r_lp_Energy>
29.680339

> <b_lp_Chiralities_Consistent>
1

> <s_lp_Variant>
CHEMBL3880_lig898-1

> <s_i_glide_gridfile>
glide-grid_1uyg

> <i_i_glide_lignum>
1004

> <i_i_glide_rotatable_bonds>
9

> <r_i_docking_score>
-7.20634408453397

> <r_i_glide_ligand_efficiency>
-0.240211469484466

> <r_i_glide_ligand_efficiency_sa>
-0.746392885438865

> <r_i_glide_ligand_efficiency_ln>
-1.63735989541383

> <r_i_glide_gscore>
-7.20634408453397

> <r_i_glide_lipo>
-3.38925601350508

> <r_i_glide_hbond>
0

> <r_i_glide_metal>
0

> <r_i_glide_rewards>
-1.88249143724969

> <r_i_glide_evdw>
-47.4478797912598

> <r_i_glide_ecoul>
-0.871876835823059

> <r_i_glide_erotb>
0.589399034637896

> <r_i_glide_esite>
-0.0208201534806489

> <r_i_glide_emodel>
-66.5576559626203

> <r_i_glide_energy>
-48.3197566270828

> <r_i_glide_einternal>
2.42943716049194

> <i_i_glide_confnum>
88

> <i_i_glide_posenum>
312

> <r_i_glide_eff_state_penalty>
0

> <s_user_duplicate_titles>
CHEMBL3880_lig898,320723

> <i_f3d_flags>
0

> <s_m_subgroup_title>
dock_pv

> <s_m_subgroupid>
dock_pv

> <b_m_subgroup_collapsed>
1

$$$$
CHEMBL3880_lig45
                    3D
 Schrodinger Suite 2021-1.
 21 22  0  0  1  0            999 V2000
    7.1713   14.0597   24.9026 C   0  0  0  0  0  0
    7.2605   12.8748   24.1554 C   0  0  0  0  0  0
    6.1374   12.1982   23.6728 C   0  0  0  0  0  0
    5.9164   14.6409   25.1547 C   0  0  0  0  0  0
    4.7692   13.9884   24.6761 C   0  0  0  0  0  0
    4.8989   12.7690   23.9661 C   0  0  0  0  0  0
    3.6022   12.4101   23.6854 N   0  0  0  0  0  0
    2.7921   13.4094   24.1640 C   0  0  0  0  0  0
    3.4541   14.3663   24.7670 N   0  0  0  0  0  0
    1.2970   13.3917   23.9674 C   0  0  0  0  0  0
    8.4267   14.7078   25.4232 C   0  0  0  0  0  0
    9.4647   14.7680   24.7659 O   0  0  0  0  0  0
    8.3239   15.1687   26.7003 O   0  0  0  0  0  0
    8.2220   12.4258   23.9680 H   0  0  0  0  0  0
    6.2315   11.2741   23.1219 H   0  0  0  0  0  0
    5.8178   15.5761   25.6880 H   0  0  0  0  0  0
    3.2577   11.6020   23.1901 H   0  0  0  0  0  0
    0.8234   14.2895   24.3671 H   0  0  0  0  0  0
    1.0269   13.3390   22.9128 H   0  0  0  0  0  0
    0.8386   12.5371   24.4657 H   0  0  0  0  0  0
    7.4692   14.9751   27.0881 H   0  0  0  0  0  0
  1  2  2  0  0  0
  1  4  1  0  0  0
  1 11  1  0  0  0
  2  3  1  0  0  0
  2 14  1  0  0  0
  3  6  2  0  0  0
  3 15  1  0  0  0
  4  5  2  0  0  0
  4 16  1  0  0  0
  5  9  1  0  0  0
  5  6  1  0  0  0
  6  7  1  0  0  0
  7  8  1  0  0  0
  7 17  1  0  0  0
  8  9  2  0  0  0
  8 10  1  0  0  0
 10 18  1  0  0  0
 10 19  1  0  0  0
 10 20  1  0  0  0
 11 12  2  0  0  0
 11 13  1  0  0  0
 13 21  1  0  0  0
M  END
> <s_m_entry_id>
5074

> <s_m_entry_name>
dock_pv.393

> <s_m_Source_Path>
/home/csk/Desktop/cluster/DUD-E-result/hs90a

> <s_m_Source_File>
dock_pv.maegz

> <i_m_Source_File_Index>
393

> <chembl_id>
CHEMBL482642

> <chembl_pref_name>
None

> <i_lp_mmshare_version>
53161

> <r_lp_tautomer_probability>
1

> <s_lp_Force_Field>
OPLS_2005

> <r_lp_Energy>
5.643147

> <b_lp_Chiralities_Consistent>
1

> <s_lp_Variant>
CHEMBL3880_lig45-1

> <s_i_glide_gridfile>
glide-grid_1uyg

> <i_i_glide_lignum>
50

> <i_i_glide_rotatable_bonds>
2

> <r_i_docking_score>
-7.20584486899747

> <r_i_glide_ligand_efficiency>
-0.554295759153651

> <r_i_glide_ligand_efficiency_sa>
-1.30333484464016

> <r_i_glide_ligand_efficiency_ln>
-2.02130357165255

> <r_i_glide_gscore>
-7.20584486899747

> <r_i_glide_lipo>
-2.00950540961655

> <r_i_glide_hbond>
-0.312206169859017

> <r_i_glide_metal>
0

> <r_i_glide_rewards>
-3.54457888587332

> <r_i_glide_evdw>
-24.5017185211182

> <r_i_glide_ecoul>
-4.12017631530762

> <r_i_glide_erotb>
0.503557969703468

> <r_i_glide_esite>
0

> <r_i_glide_emodel>
-39.5668746094651

> <r_i_glide_energy>
-28.6218948364258

> <r_i_glide_einternal>
3.55491542816162

> <i_i_glide_confnum>
1

> <i_i_glide_posenum>
317

> <r_i_glide_eff_state_penalty>
0

> <s_user_duplicate_titles>
CHEMBL3880_lig45

> <i_f3d_flags>
0

> <s_m_subgroup_title>
dock_pv

> <s_m_subgroupid>
dock_pv

> <b_m_subgroup_collapsed>
1

$$$$
CHEMBL3880_lig203
                    3D
 Schrodinger Suite 2021-1.
 66 70  0  0  1  0            999 V2000
    2.3435    6.3606   25.3393 C   0  0  1  0  0  0
    1.8769    7.7509   25.7886 C   0  0  0  0  0  0
    1.2055    8.2918   24.6177 N   0  0  1  0  0  0
    0.3538    7.1692   24.2428 C   0  0  0  0  0  0
    1.1487    5.8863   24.5054 C   0  0  0  0  0  0
    6.9806    9.0899   22.8681 C   0  0  0  0  0  0
    6.3588   10.3360   22.9272 C   0  0  0  0  0  0
    5.2235   10.5159   23.7222 C   0  0  0  0  0  0
    4.6823    9.3922   24.3603 C   0  0  0  0  0  0
    5.2705    8.1222   24.2845 C   0  0  0  0  0  0
    6.4740    7.9726   23.5640 C   0  0  0  0  0  0
    7.2572    6.6798   23.5677 C   0  0  0  0  0  0
    6.7296    5.5710   23.5635 O   0  0  0  0  0  0
    8.5776    6.8012   23.5681 N   0  0  0  0  0  0
    3.3100   12.1489   23.9527 C   0  0  0  0  0  0
    4.6660   11.8100   23.9534 N   0  0  0  0  0  0
    3.1901   13.5172   24.2078 C   0  0  0  0  0  0
    4.4783   13.9678   24.5512 C   0  0  0  0  0  0
    5.3832   12.9731   24.2323 C   0  0  0  0  0  0
    6.9160   13.1076   24.3629 C   0  0  0  0  0  0
    7.4128   14.4360   25.0608 C   0  0  0  0  0  0
    6.3891   15.5843   24.9031 C   0  0  0  0  0  0
    4.8990   15.2460   25.0898 C   0  0  0  0  0  0
    7.6536   14.3704   26.5778 C   0  0  0  0  0  0
    8.7748   14.7861   24.4208 C   0  0  0  0  0  0
    4.1321   15.9838   25.6996 O   0  0  0  0  0  0
    1.9454   14.3607   23.9603 C   0  0  0  0  0  0
    2.1864   11.1487   23.6596 C   0  0  0  0  0  0
    1.4101   10.7641   24.9523 C   0  0  0  0  0  0
    0.4695    9.5411   24.8353 C   0  0  0  0  0  0
    3.6728    6.3128   24.5363 C   0  0  0  0  0  0
    4.7521    7.1055   25.1095 N   0  0  0  0  0  0
    2.4789    5.7456   26.2315 H   0  0  0  0  0  0
    2.6743    8.3863   26.1648 H   0  0  0  0  0  0
    1.2119    7.7104   26.6542 H   0  0  0  0  0  0
   -0.5864    7.1772   24.8044 H   0  0  0  0  0  0
    0.0869    7.2679   23.1918 H   0  0  0  0  0  0
    1.4457    5.4189   23.5636 H   0  0  0  0  0  0
    0.5520    5.1571   25.0553 H   0  0  0  0  0  0
    7.8991    9.0078   22.3091 H   0  0  0  0  0  0
    6.7993   11.1645   22.3959 H   0  0  0  0  0  0
    3.8294    9.5316   24.9946 H   0  0  0  0  0  0
    9.1320    5.9588   23.5407 H   0  0  0  0  0  0
    9.0168    7.6973   23.6855 H   0  0  0  0  0  0
    7.2385   13.1453   23.3225 H   0  0  0  0  0  0
    7.3970   12.2210   24.7678 H   0  0  0  0  0  0
    6.4951   16.0893   23.9619 H   0  0  0  0  0  0
    6.5884   16.3700   25.6264 H   0  0  0  0  0  0
    8.2206   15.2289   26.9424 H   0  0  0  0  0  0
    6.7266   14.3696   27.1421 H   0  0  0  0  0  0
    8.2226   13.4808   26.8295 H   0  0  0  0  0  0
    9.0983   15.7810   24.7234 H   0  0  0  0  0  0
    9.5424   14.0936   24.7693 H   0  0  0  0  0  0
    8.7603   14.7739   23.3402 H   0  0  0  0  0  0
    2.2138   15.3391   23.5687 H   0  0  0  0  0  0
    1.3400   13.9267   23.1635 H   0  0  0  0  0  0
    1.2637   14.5593   24.7676 H   0  0  0  0  0  0
    2.5402   10.2548   23.1462 H   0  0  0  0  0  0
    1.4819   11.5835   22.9496 H   0  0  0  0  0  0
    0.8172   11.6281   25.2613 H   0  0  0  0  0  0
    2.0983   10.5934   25.7813 H   0  0  0  0  0  0
   -0.1785    9.4661   25.7109 H   0  0  0  0  0  0
   -0.1905    9.6977   23.9805 H   0  0  0  0  0  0
    3.5101    6.5685   23.4874 H   0  0  0  0  0  0
    4.0129    5.2790   24.5541 H   0  0  0  0  0  0
    4.5110    7.4233   26.0364 H   0  0  0  0  0  0
  1  5  1  0  0  0
  1  2  1  0  0  0
  1 31  1  0  0  0
  1 33  1  0  0  0
  2  3  1  0  0  0
  2 34  1  0  0  0
  2 35  1  0  0  0
  3 30  1  0  0  0
  3  4  1  0  0  0
  4  5  1  0  0  0
  4 36  1  0  0  0
  4 37  1  0  0  0
  5 38  1  0  0  0
  5 39  1  0  0  0
  6 11  1  0  0  0
  6  7  2  0  0  0
  6 40  1  0  0  0
  7  8  1  0  0  0
  7 41  1  0  0  0
  8  9  2  0  0  0
  8 16  1  0  0  0
  9 10  1  0  0  0
  9 42  1  0  0  0
 10 11  2  0  0  0
 10 32  1  0  0  0
 11 12  1  0  0  0
 12 13  2  0  0  0
 12 14  1  0  0  0
 14 43  1  0  0  0
 14 44  1  0  0  0
 15 17  2  0  0  0
 15 28  1  0  0  0
 15 16  1  0  0  0
 16 19  1  0  0  0
 17 18  1  0  0  0
 17 27  1  0  0  0
 18 19  2  0  0  0
 18 23  1  0  0  0
 19 20  1  0  0  0
 20 21  1  0  0  0
 20 45  1  0  0  0
 20 46  1  0  0  0
 21 22  1  0  0  0
 21 24  1  0  0  0
 21 25  1  0  0  0
 22 23  1  0  0  0
 22 47  1  0  0  0
 22 48  1  0  0  0
 23 26  2  0  0  0
 24 49  1  0  0  0
 24 50  1  0  0  0
 24 51  1  0  0  0
 25 52  1  0  0  0
 25 53  1  0  0  0
 25 54  1  0  0  0
 27 55  1  0  0  0
 27 56  1  0  0  0
 27 57  1  0  0  0
 28 29  1  0  0  0
 28 58  1  0  0  0
 28 59  1  0  0  0
 29 30  1  0  0  0
 29 60  1  0  0  0
 29 61  1  0  0  0
 30 62  1  0  0  0
 30 63  1  0  0  0
 31 32  1  0  0  0
 31 64  1  0  0  0
 31 65  1  0  0  0
 32 66  1  0  0  0
M  END
> <s_m_entry_id>
5075

> <s_m_entry_name>
dock_pv.394

> <s_m_Source_Path>
/home/csk/Desktop/cluster/DUD-E-result/hs90a

> <s_m_Source_File>
dock_pv.maegz

> <i_m_Source_File_Index>
394

> <chembl_id>
CHEMBL1779537

> <chembl_pref_name>
None

> <i_lp_mmshare_version>
53161

> <r_lp_tautomer_probability>
0.99995

> <s_lp_Force_Field>
OPLS_2005

> <r_lp_Energy>
58.56811

> <b_lp_Chiralities_Consistent>
1

> <s_lp_Variant>
CHEMBL3880_lig203-1

> <s_i_glide_gridfile>
glide-grid_1uyg

> <i_i_glide_lignum>
237

> <i_i_glide_rotatable_bonds>
1

> <r_i_docking_score>
-7.20223676663574

> <r_i_glide_ligand_efficiency>
-0.225069898957367

> <r_i_glide_ligand_efficiency_sa>
-0.714552387917118

> <r_i_glide_ligand_efficiency_ln>
-1.61277713760915

> <r_i_glide_gscore>
-7.20223676663574

> <r_i_glide_lipo>
-4.09112599078956

> <r_i_glide_hbond>
0

> <r_i_glide_metal>
0

> <r_i_glide_rewards>
-1.75424026349206

> <r_i_glide_evdw>
-31.4542293548584

> <r_i_glide_ecoul>
1.54301202297211

> <r_i_glide_erotb>
0

> <r_i_glide_esite>
-0.015610848057023

> <r_i_glide_emodel>
-63.1610690946099

> <r_i_glide_energy>
-29.9112173318863

> <r_i_glide_einternal>
3.38513970375061

> <i_i_glide_confnum>
1

> <i_i_glide_posenum>
219

> <r_i_glide_eff_state_penalty>
0

> <s_user_duplicate_titles>
CHEMBL3880_lig203

> <i_f3d_flags>
0

> <s_m_subgroup_title>
dock_pv

> <s_m_subgroupid>
dock_pv

> <b_m_subgroup_collapsed>
1

$$$$
CHEMBL3880_lig300
                    3D
 Schrodinger Suite 2021-1.
 75 79  0  0  1  0            999 V2000
   -1.9383   10.9327   24.6502 C   0  0  0  0  0  0
   -1.9748   11.5698   23.4044 C   0  0  0  0  0  0
   -0.8586   12.2087   22.9001 C   0  0  0  0  0  0
    0.3304   12.2439   23.6473 C   0  0  0  0  0  0
    0.3786   11.5669   24.8778 C   0  0  0  0  0  0
   -0.7389   10.8804   25.3540 C   0  0  0  0  0  0
   -0.9604   12.7677   21.6511 O   0  0  0  0  0  0
    1.5827   12.9426   23.1300 C   0  0  0  0  0  0
    2.7219   11.9413   22.8693 C   0  0  0  0  0  0
    2.0589   14.0867   24.0458 C   0  0  0  0  0  0
   -3.0869   10.3722   25.1338 O   0  0  0  0  0  0
   -0.6268   10.0515   26.4854 N   0  0  0  0  0  0
    0.2984    9.0530   26.7170 C   0  0  0  0  0  0
   -0.0510    8.5612   27.9869 C   0  0  0  0  0  0
   -1.1466    9.1828   28.3788 N   0  0  0  0  0  0
   -1.4877   10.1651   27.4889 N   0  0  0  0  0  0
    0.6312    7.6112   28.8547 C   0  0  0  0  0  0
    1.4603    6.7480   28.2524 N   0  0  0  0  0  0
    0.4610    7.5830   30.0674 O   0  0  0  0  0  0
    2.1979    5.7154   28.9687 C   0  0  0  0  0  0
    1.3909    8.7148   25.7631 C   0  0  0  0  0  0
    1.1993    8.5545   24.3804 C   0  0  0  0  0  0
    2.2943    8.3277   23.5437 C   0  0  0  0  0  0
    3.5779    8.2017   24.0864 C   0  0  0  0  0  0
    3.6985    8.2172   25.4685 C   0  0  0  0  0  0
    2.6581    8.5624   26.2986 C   0  0  0  0  0  0
    4.8398    8.0817   23.2235 C   0  0  0  0  0  0
    5.9300    8.9367   23.7677 N   0  0  0  0  0  0
    6.3827    9.9906   22.8602 C   0  0  0  0  0  0
    7.3470    9.4325   21.7977 C   0  0  0  0  0  0
    8.4476    8.7691   22.4029 O   0  0  0  0  0  0
    8.0645    7.7087   23.2809 C   0  0  0  0  0  0
    7.0795    8.2134   24.3453 C   0  0  0  0  0  0
    2.8433    4.7389   27.9808 C   0  0  0  0  0  0
    4.0732    5.3028   27.2571 C   0  0  0  0  0  0
    5.1178    5.8771   28.2384 C   0  0  0  0  0  0
    4.5076    6.8657   29.2441 C   0  0  0  0  0  0
    3.2830    6.2554   29.9547 C   0  0  0  0  0  0
   -2.8917   11.5638   22.8389 H   0  0  0  0  0  0
    1.2958   11.5464   25.4392 H   0  0  0  0  0  0
   -1.8426   12.6448   21.2915 H   0  0  0  0  0  0
    1.3135   13.4128   22.1788 H   0  0  0  0  0  0
    2.5279   11.3488   21.9703 H   0  0  0  0  0  0
    3.6800   12.4405   22.7678 H   0  0  0  0  0  0
    2.8472   11.2439   23.6972 H   0  0  0  0  0  0
    1.2494   14.7725   24.2895 H   0  0  0  0  0  0
    2.4805   13.7111   24.9742 H   0  0  0  0  0  0
    2.8415   14.6863   23.5674 H   0  0  0  0  0  0
   -3.8465   10.8630   24.7838 H   0  0  0  0  0  0
    1.7317    6.9291   27.2953 H   0  0  0  0  0  0
    1.4488    5.1598   29.5388 H   0  0  0  0  0  0
    0.2035    8.6636   23.9670 H   0  0  0  0  0  0
    2.1511    8.2594   22.4715 H   0  0  0  0  0  0
    4.6452    7.9659   25.9194 H   0  0  0  0  0  0
    2.8372    8.6887   27.3523 H   0  0  0  0  0  0
    5.1423    7.0359   23.1613 H   0  0  0  0  0  0
    4.5781    8.3912   22.2110 H   0  0  0  0  0  0
    5.5295   10.4962   22.4051 H   0  0  0  0  0  0
    6.8808   10.7551   23.4491 H   0  0  0  0  0  0
    7.7225   10.2438   21.1790 H   0  0  0  0  0  0
    6.7962    8.7722   21.1339 H   0  0  0  0  0  0
    8.9584    7.3283   23.7786 H   0  0  0  0  0  0
    7.6408    6.8515   22.7651 H   0  0  0  0  0  0
    7.6493    8.8825   24.9925 H   0  0  0  0  0  0
    6.7467    7.4112   24.9934 H   0  0  0  0  0  0
    2.1002    4.4427   27.2412 H   0  0  0  0  0  0
    3.1404    3.8587   28.5346 H   0  0  0  0  0  0
    3.7363    6.0612   26.5665 H   0  0  0  0  0  0
    4.5342    4.5487   26.6205 H   0  0  0  0  0  0
    5.9333    6.3495   27.6950 H   0  0  0  0  0  0
    5.5691    5.0489   28.7880 H   0  0  0  0  0  0
    4.2112    7.7912   28.7583 H   0  0  0  0  0  0
    5.2640    7.1443   29.9695 H   0  0  0  0  0  0
    3.6129    5.4437   30.6066 H   0  0  0  0  0  0
    2.8641    7.0077   30.6287 H   0  0  0  0  0  0
  1  2  2  0  0  0
  1  6  1  0  0  0
  1 11  1  0  0  0
  2  3  1  0  0  0
  2 39  1  0  0  0
  3  4  2  0  0  0
  3  7  1  0  0  0
  4  5  1  0  0  0
  4  8  1  0  0  0
  5  6  2  0  0  0
  5 40  1  0  0  0
  6 12  1  0  0  0
  7 41  1  0  0  0
  8  9  1  0  0  0
  8 10  1  0  0  0
  8 42  1  0  0  0
  9 43  1  0  0  0
  9 44  1  0  0  0
  9 45  1  0  0  0
 10 46  1  0  0  0
 10 47  1  0  0  0
 10 48  1  0  0  0
 11 49  1  0  0  0
 12 13  1  0  0  0
 12 16  1  0  0  0
 13 14  2  0  0  0
 13 21  1  0  0  0
 14 15  1  0  0  0
 14 17  1  0  0  0
 15 16  2  0  0  0
 17 18  1  0  0  0
 17 19  2  0  0  0
 18 20  1  0  0  0
 18 50  1  0  0  0
 20 34  1  0  0  0
 20 38  1  0  0  0
 20 51  1  0  0  0
 21 22  2  0  0  0
 21 26  1  0  0  0
 22 23  1  0  0  0
 22 52  1  0  0  0
 23 24  2  0  0  0
 23 53  1  0  0  0
 24 25  1  0  0  0
 24 27  1  0  0  0
 25 26  2  0  0  0
 25 54  1  0  0  0
 26 55  1  0  0  0
 27 28  1  0  0  0
 27 56  1  0  0  0
 27 57  1  0  0  0
 28 29  1  0  0  0
 28 33  1  0  0  0
 29 30  1  0  0  0
 29 58  1  0  0  0
 29 59  1  0  0  0
 30 31  1  0  0  0
 30 60  1  0  0  0
 30 61  1  0  0  0
 31 32  1  0  0  0
 32 33  1  0  0  0
 32 62  1  0  0  0
 32 63  1  0  0  0
 33 64  1  0  0  0
 33 65  1  0  0  0
 34 35  1  0  0  0
 34 66  1  0  0  0
 34 67  1  0  0  0
 35 36  1  0  0  0
 35 68  1  0  0  0
 35 69  1  0  0  0
 36 37  1  0  0  0
 36 70  1  0  0  0
 36 71  1  0  0  0
 37 38  1  0  0  0
 37 72  1  0  0  0
 37 73  1  0  0  0
 38 74  1  0  0  0
 38 75  1  0  0  0
M  END
> <s_m_entry_id>
5076

> <s_m_entry_name>
dock_pv.395

> <s_m_Source_Path>
/home/csk/Desktop/cluster/DUD-E-result/hs90a

> <s_m_Source_File>
dock_pv.maegz

> <i_m_Source_File_Index>
395

> <chembl_id>
CHEMBL3235115

> <chembl_pref_name>
None

> <i_lp_mmshare_version>
53161

> <r_lp_tautomer_probability>
1

> <s_lp_Force_Field>
OPLS_2005

> <r_lp_Energy>
45.326514

> <b_lp_Chiralities_Consistent>
1

> <s_lp_Variant>
CHEMBL3880_lig300-1

> <s_i_glide_gridfile>
glide-grid_1uyg

> <i_i_glide_lignum>
337

> <i_i_glide_rotatable_bonds>
10

> <r_i_docking_score>
-7.19660839689799

> <r_i_glide_ligand_efficiency>
-0.189384431497316

> <r_i_glide_ligand_efficiency_sa>
-0.636705800352554

> <r_i_glide_ligand_efficiency_ln>
-1.55180047314152

> <r_i_glide_gscore>
-7.19660839689799

> <r_i_glide_lipo>
-3.86495346612591

> <r_i_glide_hbond>
-0.16

> <r_i_glide_metal>
0

> <r_i_glide_rewards>
-0.731548309301244

> <r_i_glide_evdw>
-42.5265197753906

> <r_i_glide_ecoul>
-5.64276933670044

> <r_i_glide_erotb>
0.532634767803762

> <r_i_glide_esite>
0

> <r_i_glide_emodel>
-43.8866803143254

> <r_i_glide_energy>
-48.1692891120911

> <r_i_glide_einternal>
13.691855430603

> <i_i_glide_confnum>
24

> <i_i_glide_posenum>
106

> <r_i_glide_eff_state_penalty>
0

> <s_user_duplicate_titles>
CHEMBL3880_lig300

> <i_f3d_flags>
0

> <s_m_subgroup_title>
dock_pv

> <s_m_subgroupid>
dock_pv

> <b_m_subgroup_collapsed>
1

$$$$
CHEMBL3880_lig48
                    3D
 Schrodinger Suite 2021-1.
 35 36  0  0  1  0            999 V2000
    0.9888   12.2667   22.9409 O   0  0  0  0  0  0
    3.4028   13.2115   24.3524 O   0  0  0  0  0  0
   -2.3391   13.1691   22.4720 O   0  0  0  0  0  0
   -0.7741   12.7690   20.8424 O   0  0  0  0  0  0
   -0.3574   12.1726   23.0855 C   0  0  0  0  0  0
    1.5611   11.7522   24.0578 C   0  0  0  0  0  0
   -0.6601   11.5707   24.3001 C   0  0  0  0  0  0
   -1.1662   12.7107   22.0088 C   0  0  0  0  0  0
    0.5664   11.2858   24.9091 C   0  0  0  0  0  0
    3.0664   11.8455   24.1238 C   0  0  0  0  0  0
    4.7284   13.5689   24.4759 C   0  0  0  0  0  0
    5.8013   12.8186   23.9670 C   0  0  0  0  0  0
    4.9848   14.7513   25.1674 C   0  0  0  0  0  0
    7.3603   14.4207   24.8863 C   0  0  0  0  0  0
    7.1128   13.2477   24.1688 C   0  0  0  0  0  0
    6.2927   15.1691   25.3857 C   0  0  0  0  0  0
    8.7903   14.8869   25.1189 C   0  0  0  0  0  0
   -3.2208   13.8696   21.6062 C   0  0  0  0  0  0
    9.5542   14.0045   26.1181 C   0  0  0  0  0  0
   -1.6490   11.3656   24.6876 H   0  0  0  0  0  0
    0.7160   10.8243   25.8745 H   0  0  0  0  0  0
    3.4591   11.2090   24.9186 H   0  0  0  0  0  0
    3.4705   11.5172   23.1656 H   0  0  0  0  0  0
    5.6358   11.9056   23.4177 H   0  0  0  0  0  0
    4.1627   15.3335   25.5567 H   0  0  0  0  0  0
    7.9322   12.6640   23.7744 H   0  0  0  0  0  0
    6.4671   16.0772   25.9436 H   0  0  0  0  0  0
    9.3069   14.9105   24.1599 H   0  0  0  0  0  0
    8.7906   15.9189   25.4732 H   0  0  0  0  0  0
   -4.1118   14.1715   22.1566 H   0  0  0  0  0  0
   -3.5346   13.2412   20.7703 H   0  0  0  0  0  0
   -2.7512   14.7669   21.2003 H   0  0  0  0  0  0
   10.5677   14.3759   26.2697 H   0  0  0  0  0  0
    9.0603   13.9933   27.0908 H   0  0  0  0  0  0
    9.6284   12.9732   25.7702 H   0  0  0  0  0  0
  1  5  1  0  0  0
  1  6  1  0  0  0
  2 10  1  0  0  0
  2 11  1  0  0  0
  3  8  1  0  0  0
  3 18  1  0  0  0
  4  8  2  0  0  0
  5  7  2  0  0  0
  5  8  1  0  0  0
  6  9  2  0  0  0
  6 10  1  0  0  0
  7  9  1  0  0  0
  7 20  1  0  0  0
  9 21  1  0  0  0
 10 22  1  0  0  0
 10 23  1  0  0  0
 11 12  2  0  0  0
 11 13  1  0  0  0
 12 15  1  0  0  0
 12 24  1  0  0  0
 13 16  2  0  0  0
 13 25  1  0  0  0
 14 15  2  0  0  0
 14 16  1  0  0  0
 14 17  1  0  0  0
 15 26  1  0  0  0
 16 27  1  0  0  0
 17 19  1  0  0  0
 17 28  1  0  0  0
 17 29  1  0  0  0
 18 30  1  0  0  0
 18 31  1  0  0  0
 18 32  1  0  0  0
 19 33  1  0  0  0
 19 34  1  0  0  0
 19 35  1  0  0  0
M  END
> <s_m_entry_id>
5077

> <s_m_entry_name>
dock_pv.396

> <s_m_Source_Path>
/home/csk/Desktop/cluster/DUD-E-result/hs90a

> <s_m_Source_File>
dock_pv.maegz

> <i_m_Source_File_Index>
396

> <chembl_id>
CHEMBL1505173

> <chembl_pref_name>
None

> <i_lp_mmshare_version>
53161

> <r_lp_tautomer_probability>
1

> <s_lp_Force_Field>
OPLS_2005

> <r_lp_Energy>
10.609997

> <b_lp_Chiralities_Consistent>
1

> <s_lp_Variant>
CHEMBL3880_lig48-1

> <s_i_glide_gridfile>
glide-grid_1uyg

> <i_i_glide_lignum>
53

> <i_i_glide_rotatable_bonds>
6

> <r_i_docking_score>
-7.19442949059126

> <r_i_glide_ligand_efficiency>
-0.378654183715329

> <r_i_glide_ligand_efficiency_sa>
-1.01040144712976

> <r_i_glide_ligand_efficiency_ln>
-1.82394239804202

> <r_i_glide_gscore>
-7.19442949059126

> <r_i_glide_lipo>
-3.63373357724859

> <r_i_glide_hbond>
0

> <r_i_glide_metal>
0

> <r_i_glide_rewards>
-2.51421726381269

> <r_i_glide_evdw>
-37.0085601806641

> <r_i_glide_ecoul>
-1.60722982883453

> <r_i_glide_erotb>
1.0450338338284

> <r_i_glide_esite>
0

> <r_i_glide_emodel>
-53.1167106365773

> <r_i_glide_energy>
-38.6157900094986

> <r_i_glide_einternal>
3.3173360824585

> <i_i_glide_confnum>
11

> <i_i_glide_posenum>
143

> <r_i_glide_eff_state_penalty>
0

> <s_user_duplicate_titles>
CHEMBL3880_lig48

> <i_f3d_flags>
0

> <s_m_subgroup_title>
dock_pv

> <s_m_subgroupid>
dock_pv

> <b_m_subgroup_collapsed>
1

$$$$
CHEMBL3880_lig448
                    3D
 Schrodinger Suite 2021-1.
 66 70  0  0  1  0            999 V2000
    4.4345    8.0620   19.7956 C   0  0  0  0  0  0
    5.2616    9.1690   20.1441 O   0  0  0  0  0  0
    5.8708    9.1708   21.3826 C   0  0  0  0  0  0
    7.0004    9.9690   21.5678 C   0  0  0  0  0  0
    7.6689    9.9196   22.7896 C   0  0  0  0  0  0
    7.1853    9.0817   23.7940 C   0  0  0  0  0  0
    6.0173    8.3442   23.5572 C   0  0  0  0  0  0
    5.3755    8.3718   22.3647 N   0  0  0  0  0  0
    5.3922    7.4999   24.6050 C   0  0  0  0  0  0
    6.1763    6.4757   25.1517 C   0  0  0  0  0  0
    5.7057    5.6854   26.1920 C   0  0  0  0  0  0
    6.4990    4.7352   26.7302 F   0  0  0  0  0  0
    4.4271    5.8908   26.6878 C   0  0  0  0  0  0
    3.6315    6.9035   26.1611 C   0  0  0  0  0  0
    4.0947    7.7459   25.1319 C   0  0  0  0  0  0
    3.2030    8.9143   24.6192 C   0  0  1  0  0  0
    1.8008    9.0024   25.3157 C   0  0  0  0  0  0
    1.0353   10.2171   24.8276 C   0  0  0  0  0  0
   -0.3148   10.1422   24.7500 N   0  0  0  0  0  0
   -0.9581   11.2322   24.2826 C   0  0  0  0  0  0
   -2.3390   11.1625   24.2593 N   0  0  0  0  0  0
   -0.3794   12.3723   23.8524 N   0  0  0  0  0  0
    0.9753   12.4319   23.9238 C   0  0  0  0  0  0
    1.5515   13.7430   23.4052 C   0  0  0  0  0  0
    1.7531   11.3583   24.4254 C   0  0  0  0  0  0
    3.2291   11.2984   24.5653 C   0  0  0  0  0  0
    3.9184   10.2168   24.6227 N   0  0  0  0  0  0
    3.8257   12.5750   24.7668 N   0  0  0  0  0  0
    5.0978   12.8529   24.1544 O   0  0  0  0  0  0
    5.6003   14.0720   24.7299 C   0  0  0  0  0  0
    7.0452   13.9690   25.2772 C   0  0  2  0  0  0
    7.3320   14.9950   26.3886 C   0  0  0  0  0  0
    8.8525   15.0477   26.4720 C   0  0  1  0  0  0
    9.3991   13.9690   27.2025 O   0  0  0  0  0  0
    9.2505   14.9701   24.9940 C   0  0  1  0  0  0
   10.6209   14.7156   24.7672 O   0  0  0  0  0  0
    8.1642   14.1567   24.2504 C   0  0  0  0  0  0
    3.9371    8.2644   18.8472 H   0  0  0  0  0  0
    5.0130    7.1504   19.6694 H   0  0  0  0  0  0
    3.6614    7.8687   20.5447 H   0  0  0  0  0  0
    7.3718   10.5934   20.7697 H   0  0  0  0  0  0
    8.5535   10.5168   22.9572 H   0  0  0  0  0  0
    7.6842    9.0379   24.7508 H   0  0  0  0  0  0
    7.1755    6.3011   24.7796 H   0  0  0  0  0  0
    4.0585    5.2741   27.4945 H   0  0  0  0  0  0
    2.6546    7.0231   26.5992 H   0  0  0  0  0  0
    3.0223    8.6498   23.5743 H   0  0  0  0  0  0
    1.2169    8.0939   25.1593 H   0  0  0  0  0  0
    1.9312    9.1279   26.3926 H   0  0  0  0  0  0
   -2.9183   11.9458   23.9686 H   0  0  0  0  0  0
   -2.7790   10.3171   24.5885 H   0  0  0  0  0  0
    2.4301   13.5607   22.7931 H   0  0  0  0  0  0
    0.8612   14.2819   22.7666 H   0  0  0  0  0  0
    1.8104   14.4055   24.2302 H   0  0  0  0  0  0
    3.2380   13.3284   24.4513 H   0  0  0  0  0  0
    4.9723   14.4560   25.5412 H   0  0  0  0  0  0
    5.5446   14.8478   23.9685 H   0  0  0  0  0  0
    7.2610   12.9899   25.6957 H   0  0  0  0  0  0
    6.8782   14.7682   27.3524 H   0  0  0  0  0  0
    6.9331   15.9689   26.1052 H   0  0  0  0  0  0
    9.1992   15.9719   26.9262 H   0  0  0  0  0  0
   10.3298   14.1520   27.3490 H   0  0  0  0  0  0
    9.1084   15.9701   24.6197 H   0  0  0  0  0  0
   10.9070   15.1686   23.9683 H   0  0  0  0  0  0
    7.8367   14.6574   23.3381 H   0  0  0  0  0  0
    8.4614   13.1506   23.9668 H   0  0  0  0  0  0
  1  2  1  0  0  0
  1 38  1  0  0  0
  1 39  1  0  0  0
  1 40  1  0  0  0
  2  3  1  0  0  0
  3  4  2  0  0  0
  3  8  1  0  0  0
  4  5  1  0  0  0
  4 41  1  0  0  0
  5  6  2  0  0  0
  5 42  1  0  0  0
  6  7  1  0  0  0
  6 43  1  0  0  0
  7  8  2  0  0  0
  7  9  1  0  0  0
  9 10  2  0  0  0
  9 15  1  0  0  0
 10 11  1  0  0  0
 10 44  1  0  0  0
 11 12  1  0  0  0
 11 13  2  0  0  0
 13 14  1  0  0  0
 13 45  1  0  0  0
 14 15  2  0  0  0
 14 46  1  0  0  0
 15 16  1  0  0  0
 16 17  1  0  0  0
 16 27  1  0  0  0
 16 47  1  0  0  0
 17 18  1  0  0  0
 17 48  1  0  0  0
 17 49  1  0  0  0
 18 19  2  0  0  0
 18 25  1  0  0  0
 19 20  1  0  0  0
 20 21  1  0  0  0
 20 22  2  0  0  0
 21 50  1  0  0  0
 21 51  1  0  0  0
 22 23  1  0  0  0
 23 24  1  0  0  0
 23 25  2  0  0  0
 24 52  1  0  0  0
 24 53  1  0  0  0
 24 54  1  0  0  0
 25 26  1  0  0  0
 26 27  2  0  0  0
 26 28  1  0  0  0
 28 29  1  0  0  0
 28 55  1  0  0  0
 29 30  1  0  0  0
 30 31  1  0  0  0
 30 56  1  0  0  0
 30 57  1  0  0  0
 31 32  1  0  0  0
 31 37  1  0  0  0
 31 58  1  0  0  0
 32 33  1  0  0  0
 32 59  1  0  0  0
 32 60  1  0  0  0
 33 34  1  0  0  0
 33 35  1  0  0  0
 33 61  1  0  0  0
 34 62  1  0  0  0
 35 36  1  0  0  0
 35 37  1  0  0  0
 35 63  1  0  0  0
 36 64  1  0  0  0
 37 65  1  0  0  0
 37 66  1  0  0  0
M  END
> <s_m_entry_id>
5078

> <s_m_entry_name>
dock_pv.397

> <s_m_Source_Path>
/home/csk/Desktop/cluster/DUD-E-result/hs90a

> <s_m_Source_File>
dock_pv.maegz

> <i_m_Source_File_Index>
397

> <chembl_id>
CHEMBL3675263

> <chembl_pref_name>
None

> <i_lp_mmshare_version>
53161

> <r_lp_tautomer_probability>
1

> <s_lp_Force_Field>
OPLS_2005

> <r_lp_Energy>
45.29836

> <b_lp_Chiralities_Consistent>
1

> <s_lp_Variant>
CHEMBL3880_lig448-1

> <s_i_glide_gridfile>
glide-grid_1uyg

> <i_i_glide_lignum>
492

> <i_i_glide_rotatable_bonds>
9

> <r_i_docking_score>
-7.17172553667574

> <r_i_glide_ligand_efficiency>
-0.193830419910155

> <r_i_glide_ligand_efficiency_sa>
-0.645885959960916

> <r_i_glide_ligand_efficiency_ln>
-1.55537913980407

> <r_i_glide_gscore>
-7.17172553667574

> <r_i_glide_lipo>
-3.7007202651577

> <r_i_glide_hbond>
-0.37303151480576

> <r_i_glide_metal>
0

> <r_i_glide_rewards>
-0.67528227664061

> <r_i_glide_evdw>
-39.9577026367188

> <r_i_glide_ecoul>
-5.69517278671265

> <r_i_glide_erotb>
0.475002369296478

> <r_i_glide_esite>
-0.0455327995253134

> <r_i_glide_emodel>
-44.9928114935851

> <r_i_glide_energy>
-45.6528754234314

> <r_i_glide_einternal>
15.1772584915161

> <i_i_glide_confnum>
85

> <i_i_glide_posenum>
254

> <r_i_glide_eff_state_penalty>
0

> <s_user_duplicate_titles>
CHEMBL3880_lig448

> <i_f3d_flags>
0

> <s_m_subgroup_title>
dock_pv

> <s_m_subgroupid>
dock_pv

> <b_m_subgroup_collapsed>
1

$$$$
CHEMBL3880_lig77
                    3D
 Schrodinger Suite 2021-1.
 43 44  0  0  1  0            999 V2000
    5.4928    7.4390   24.3667 Cl  0  0  0  0  0  0
    3.2714    8.3821   25.9923 Cl  0  0  0  0  0  0
    2.7752    7.0157   23.5011 Cl  0  0  0  0  0  0
    6.4011    9.6173   21.8252 S   0  0  0  0  0  0
    2.6407   11.9683   22.3670 O   0  0  0  0  0  0
   -1.9389   13.5690   20.7670 O   0  5  0  0  0  0
   -3.3571   13.9690   22.3320 O   0  0  0  0  0  0
    9.6610   15.8828   26.6622 O   0  0  0  0  0  0
   10.4608   13.8318   26.1399 O   0  0  0  0  0  0
    2.5218   10.1507   23.7195 N   0  0  0  0  0  0
    4.8775   10.4716   23.9211 N   0  0  0  0  0  0
    6.9005   11.6317   23.3731 N   0  0  0  0  0  0
   -2.3198   13.4569   21.9219 N   0  3  0  0  0  0
    3.8280    9.5278   23.5205 C   0  0  1  0  0  0
    3.8645    8.1752   24.3150 C   0  0  0  0  0  0
    2.0401   11.2730   23.1670 C   0  0  0  0  0  0
    0.6330   11.6266   23.5090 C   0  0  0  0  0  0
    5.9343   10.6550   23.2188 C   0  0  0  0  0  0
   -0.1299   12.3690   22.5848 C   0  0  0  0  0  0
   -1.4493   12.7167   22.8718 C   0  0  0  0  0  0
    6.8771   12.7929   24.1628 C   0  0  0  0  0  0
    0.0679   11.2169   24.7239 C   0  0  0  0  0  0
    8.1589   14.3390   25.5607 C   0  0  0  0  0  0
    8.0706   13.1852   24.7670 C   0  0  0  0  0  0
   -1.9390   12.3452   24.1109 C   0  0  0  0  0  0
   -1.2344   11.5690   25.0211 C   0  0  0  0  0  0
    5.7287   13.5690   24.3670 C   0  0  0  0  0  0
    6.9931   15.0921   25.7559 C   0  0  0  0  0  0
    9.4741   14.7690   26.1762 C   0  0  0  0  0  0
    5.7870   14.7122   25.1657 C   0  0  0  0  0  0
    7.5435   10.2501   21.5556 H   0  0  0  0  0  0
   11.2314   14.1887   26.5847 H   0  0  0  0  0  0
    1.9159    9.6529   24.3520 H   0  0  0  0  0  0
    7.8173   11.4240   23.0096 H   0  0  0  0  0  0
    3.8643    9.2831   22.4552 H   0  0  0  0  0  0
    0.2957   12.6700   21.6369 H   0  0  0  0  0  0
    0.6263   10.6503   25.4563 H   0  0  0  0  0  0
    8.9363   12.5559   24.6315 H   0  0  0  0  0  0
   -2.9004   12.7202   24.3670 H   0  0  0  0  0  0
   -1.6852   11.2862   25.9613 H   0  0  0  0  0  0
    4.7928   13.2883   23.9050 H   0  0  0  0  0  0
    7.0051   15.9690   26.3825 H   0  0  0  0  0  0
    4.8978   15.3044   25.3251 H   0  0  0  0  0  0
  1 15  1  0  0  0
  2 15  1  0  0  0
  3 15  1  0  0  0
  4 18  1  0  0  0
  4 31  1  0  0  0
  5 16  2  0  0  0
  6 13  1  0  0  0
  7 13  2  0  0  0
  8 29  2  0  0  0
  9 29  1  0  0  0
  9 32  1  0  0  0
 10 14  1  0  0  0
 10 16  1  0  0  0
 10 33  1  0  0  0
 11 14  1  0  0  0
 11 18  2  3  0  0
 12 18  1  0  0  0
 12 21  1  0  0  0
 12 34  1  0  0  0
 13 20  1  0  0  0
 14 15  1  0  0  0
 14 35  1  0  0  0
 16 17  1  0  0  0
 17 19  1  0  0  0
 17 22  2  0  0  0
 19 20  2  0  0  0
 19 36  1  0  0  0
 20 25  1  0  0  0
 21 24  2  0  0  0
 21 27  1  0  0  0
 22 26  1  0  0  0
 22 37  1  0  0  0
 23 24  1  0  0  0
 23 28  2  0  0  0
 23 29  1  0  0  0
 24 38  1  0  0  0
 25 26  2  0  0  0
 25 39  1  0  0  0
 26 40  1  0  0  0
 27 30  2  0  0  0
 27 41  1  0  0  0
 28 30  1  0  0  0
 28 42  1  0  0  0
 30 43  1  0  0  0
M  CHG  2   6  -1  13   1
M  END
> <s_m_entry_id>
5079

> <s_m_entry_name>
dock_pv.398

> <s_m_Source_Path>
/home/csk/Desktop/cluster/DUD-E-result/hs90a

> <s_m_Source_File>
dock_pv.maegz

> <i_m_Source_File_Index>
398

> <chembl_id>
CHEMBL1567471

> <chembl_pref_name>
None

> <i_lp_mmshare_version>
53161

> <r_lp_tautomer_probability>
1

> <s_lp_Force_Field>
OPLS_2005

> <r_lp_Energy>
21.016801

> <b_lp_Chiralities_Consistent>
1

> <s_lp_Variant>
CHEMBL3880_lig77-3

> <s_i_glide_gridfile>
glide-grid_1uyg

> <i_i_glide_lignum>
86

> <i_i_glide_rotatable_bonds>
11

> <r_i_docking_score>
-7.16997725192914

> <r_i_glide_ligand_efficiency>
-0.238999241730971

> <r_i_glide_ligand_efficiency_sa>
-0.742626211962859

> <r_i_glide_ligand_efficiency_ln>
-1.62909695479764

> <r_i_glide_gscore>
-7.16997725192914

> <r_i_glide_lipo>
-3.00745006172385

> <r_i_glide_hbond>
-0.273805122993612

> <r_i_glide_metal>
0

> <r_i_glide_rewards>
-1.97082664818909

> <r_i_glide_evdw>
-44.1807823181152

> <r_i_glide_ecoul>
-2.54969644546509

> <r_i_glide_erotb>
0.67359816370293

> <r_i_glide_esite>
0

> <r_i_glide_emodel>
-61.8179760002624

> <r_i_glide_energy>
-46.7304787635803

> <r_i_glide_einternal>
6.43462944030762

> <i_i_glide_confnum>
84

> <i_i_glide_posenum>
361

> <r_i_glide_eff_state_penalty>
0

> <s_user_duplicate_titles>
CHEMBL3880_lig77

> <i_f3d_flags>
0

> <s_m_subgroup_title>
dock_pv

> <s_m_subgroupid>
dock_pv

> <b_m_subgroup_collapsed>
1

$$$$
CHEMBL3880_lig163
                    3D
 Schrodinger Suite 2021-1.
 27 29  0  0  1  0            999 V2000
    5.3821    8.9140   22.5456 C   0  0  0  0  0  0
    4.1697    9.4132   23.0305 C   0  0  0  0  0  0
    4.1302   10.7316   23.5083 C   0  0  0  0  0  0
    5.3131   11.4862   23.5092 C   0  0  0  0  0  0
    6.5398   10.9912   23.0522 C   0  0  0  0  0  0
    6.5431    9.6898   22.5493 C   0  0  0  0  0  0
    7.6982    9.1691   22.0318 O   0  0  0  0  0  0
    5.0580   12.7421   23.9672 O   0  0  0  0  0  0
    3.6962   12.8171   24.2904 N   0  0  0  0  0  0
    3.1567   11.6393   24.0417 C   0  0  0  0  0  0
    1.7066   11.3820   24.3055 C   0  0  0  0  0  0
    0.7405   12.2220   23.7340 C   0  0  0  0  0  0
   -0.6192   12.0107   23.9710 C   0  0  0  0  0  0
   -1.0224   10.9691   24.8107 C   0  0  0  0  0  0
   -0.0710   10.1204   25.3718 C   0  0  0  0  0  0
    1.2853   10.3156   25.1170 C   0  0  0  0  0  0
    2.1816    9.4602   25.7007 O   0  0  0  0  0  0
   -2.3405   10.7692   25.1183 O   0  0  0  0  0  0
   -1.9017   13.1685   23.1662 Br  0  0  0  0  0  0
    5.4119    7.9064   22.1539 H   0  0  0  0  0  0
    3.2801    8.8013   23.0162 H   0  0  0  0  0  0
    7.4323   11.5972   23.0545 H   0  0  0  0  0  0
    7.5797    8.2771   21.6762 H   0  0  0  0  0  0
    1.0451   13.0437   23.1003 H   0  0  0  0  0  0
   -0.3976    9.3152   26.0110 H   0  0  0  0  0  0
    1.7533    8.8121   26.2674 H   0  0  0  0  0  0
   -2.9628   11.3943   24.7201 H   0  0  0  0  0  0
  1  2  2  0  0  0
  1  6  1  0  0  0
  1 20  1  0  0  0
  2  3  1  0  0  0
  2 21  1  0  0  0
  3  4  2  0  0  0
  3 10  1  0  0  0
  4  5  1  0  0  0
  4  8  1  0  0  0
  5  6  2  0  0  0
  5 22  1  0  0  0
  6  7  1  0  0  0
  7 23  1  0  0  0
  8  9  1  0  0  0
  9 10  2  0  0  0
 10 11  1  0  0  0
 11 12  2  0  0  0
 11 16  1  0  0  0
 12 13  1  0  0  0
 12 24  1  0  0  0
 13 14  2  0  0  0
 13 19  1  0  0  0
 14 15  1  0  0  0
 14 18  1  0  0  0
 15 16  2  0  0  0
 15 25  1  0  0  0
 16 17  1  0  0  0
 17 26  1  0  0  0
 18 27  1  0  0  0
M  END
> <s_m_entry_id>
5081

> <s_m_entry_name>
dock_pv.400

> <s_m_Source_Path>
/home/csk/Desktop/cluster/DUD-E-result/hs90a

> <s_m_Source_File>
dock_pv.maegz

> <i_m_Source_File_Index>
400

> <chembl_id>
CHEMBL361078

> <chembl_pref_name>
None

> <i_lp_mmshare_version>
53161

> <r_lp_tautomer_probability>
0.999999999898

> <s_lp_Force_Field>
OPLS_2005

> <r_lp_Energy>
29.96228

> <b_lp_Chiralities_Consistent>
1

> <s_lp_Variant>
CHEMBL3880_lig163-1

> <s_i_glide_gridfile>
glide-grid_1uyg

> <i_i_glide_lignum>
194

> <i_i_glide_rotatable_bonds>
4

> <r_i_docking_score>
-7.15328936298767

> <r_i_glide_ligand_efficiency>
-0.376488913841456

> <r_i_glide_ligand_efficiency_sa>
-1.00462363743406

> <r_i_glide_ligand_efficiency_ln>
-1.81351249208559

> <r_i_glide_gscore>
-7.15328936298767

> <r_i_glide_lipo>
-2.87445094195926

> <r_i_glide_hbond>
-0.433587029448861

> <r_i_glide_metal>
0

> <r_i_glide_rewards>
-1.42954675757576

> <r_i_glide_evdw>
-34.667839050293

> <r_i_glide_ecoul>
-5.75002717971802

> <r_i_glide_erotb>
0.180191395468557

> <r_i_glide_esite>
0

> <r_i_glide_emodel>
-56.8388303139799

> <r_i_glide_energy>
-40.417866230011

> <r_i_glide_einternal>
2.88283514976501

> <i_i_glide_confnum>
3

> <i_i_glide_posenum>
274

> <r_i_glide_eff_state_penalty>
0

> <s_user_duplicate_titles>
CHEMBL3880_lig163,312873

> <i_f3d_flags>
0

> <s_m_subgroup_title>
dock_pv

> <s_m_subgroupid>
dock_pv

> <b_m_subgroup_collapsed>
1

$$$$
CHEMBL3880_lig345
                    3D
 Schrodinger Suite 2021-1.
 36 38  0  0  1  0            999 V2000
    5.2557   11.6091   23.5673 C   0  0  0  0  0  0
    4.5812   10.4280   23.2667 C   0  0  0  0  0  0
    3.2035   10.3406   23.4598 C   0  0  0  0  0  0
    2.4872   11.4340   23.9728 C   0  0  0  0  0  0
    3.1728   12.6188   24.2635 C   0  0  0  0  0  0
    4.5483   12.7122   24.0571 C   0  0  0  0  0  0
    5.3567   14.1938   24.4329 Cl  0  0  0  0  0  0
    2.5744    9.1613   23.1651 O   0  0  0  0  0  0
    6.6086   11.6725   23.3628 O   0  0  0  0  0  0
    1.0059   11.4067   24.1649 C   0  0  0  0  0  0
    0.2954   12.1665   23.3574 N   0  0  0  0  0  0
   -1.0357   11.9631   23.6896 O   0  0  0  0  0  0
   -1.0824   11.0808   24.7100 C   0  0  0  0  0  0
    0.2009   10.7040   25.0999 C   0  0  0  0  0  0
   -2.3389   10.7694   25.1274 N   0  0  0  0  0  0
    0.5776    9.7911   26.2463 C   0  0  0  0  0  0
   -0.3269    9.5686   27.2934 C   0  0  0  0  0  0
    0.0134    8.7611   28.3751 C   0  0  0  0  0  0
    1.2753    8.1552   28.4402 C   0  0  0  0  0  0
    2.1679    8.3554   27.3971 C   0  0  0  0  0  0
    1.8289    9.1699   26.3253 C   0  0  0  0  0  0
    1.7316    7.3721   29.4808 O   0  0  0  0  0  0
    1.0171    7.3623   30.7075 C   0  0  0  0  0  0
    5.1350    9.5827   22.8851 H   0  0  0  0  0  0
    2.6353   13.4743   24.6472 H   0  0  0  0  0  0
    3.1531    8.5103   22.7620 H   0  0  0  0  0  0
    6.9691   12.5295   23.6026 H   0  0  0  0  0  0
   -2.5099   10.0183   25.7750 H   0  0  0  0  0  0
   -3.1656   11.2448   24.7640 H   0  0  0  0  0  0
   -1.2926   10.0446   27.3111 H   0  0  0  0  0  0
   -0.7058    8.6344   29.1672 H   0  0  0  0  0  0
    3.1464    7.9004   27.4346 H   0  0  0  0  0  0
    2.5846    9.3099   25.5849 H   0  0  0  0  0  0
    1.5984    6.8194   31.4530 H   0  0  0  0  0  0
    0.0607    6.8550   30.6016 H   0  0  0  0  0  0
    0.8612    8.3689   31.0935 H   0  0  0  0  0  0
  1  2  2  0  0  0
  1  6  1  0  0  0
  1  9  1  0  0  0
  2  3  1  0  0  0
  2 24  1  0  0  0
  3  4  2  0  0  0
  3  8  1  0  0  0
  4  5  1  0  0  0
  4 10  1  0  0  0
  5  6  2  0  0  0
  5 25  1  0  0  0
  6  7  1  0  0  0
  8 26  1  0  0  0
  9 27  1  0  0  0
 10 11  2  0  0  0
 10 14  1  0  0  0
 11 12  1  0  0  0
 12 13  1  0  0  0
 13 14  2  0  0  0
 13 15  1  0  0  0
 14 16  1  0  0  0
 15 28  1  0  0  0
 15 29  1  0  0  0
 16 17  2  0  0  0
 16 21  1  0  0  0
 17 18  1  0  0  0
 17 30  1  0  0  0
 18 19  2  0  0  0
 18 31  1  0  0  0
 19 20  1  0  0  0
 19 22  1  0  0  0
 20 21  2  0  0  0
 20 32  1  0  0  0
 21 33  1  0  0  0
 22 23  1  0  0  0
 23 34  1  0  0  0
 23 35  1  0  0  0
 23 36  1  0  0  0
M  END
> <s_m_entry_id>
5082

> <s_m_entry_name>
dock_pv.401

> <s_m_Source_Path>
/home/csk/Desktop/cluster/DUD-E-result/hs90a

> <s_m_Source_File>
dock_pv.maegz

> <i_m_Source_File_Index>
401

> <chembl_id>
CHEMBL3342580

> <chembl_pref_name>
None

> <i_lp_mmshare_version>
53161

> <r_lp_tautomer_probability>
0.999999999898

> <s_lp_Force_Field>
OPLS_2005

> <r_lp_Energy>
21.357944

> <b_lp_Chiralities_Consistent>
1

> <s_lp_Variant>
CHEMBL3880_lig345-1

> <s_i_glide_gridfile>
glide-grid_1uyg

> <i_i_glide_lignum>
382

> <i_i_glide_rotatable_bonds>
5

> <r_i_docking_score>
-7.15159986791163

> <r_i_glide_ligand_efficiency>
-0.31093912469181

> <r_i_glide_ligand_efficiency_sa>
-0.88426950853078

> <r_i_glide_ligand_efficiency_ln>
-1.72932169518337

> <r_i_glide_gscore>
-7.15159986791163

> <r_i_glide_lipo>
-3.60050709344899

> <r_i_glide_hbond>
-0.16

> <r_i_glide_metal>
0

> <r_i_glide_rewards>
-1.40240684383485

> <r_i_glide_evdw>
-38.1895637512207

> <r_i_glide_ecoul>
-2.59979820251465

> <r_i_glide_erotb>
0.340305029354583

> <r_i_glide_esite>
-0.0295430420441366

> <r_i_glide_emodel>
-58.583308840667

> <r_i_glide_energy>
-40.7893619537354

> <r_i_glide_einternal>
1.64388275146484

> <i_i_glide_confnum>
13

> <i_i_glide_posenum>
261

> <r_i_glide_eff_state_penalty>
0

> <s_user_duplicate_titles>
CHEMBL3880_lig345

> <i_f3d_flags>
0

> <s_m_subgroup_title>
dock_pv

> <s_m_subgroupid>
dock_pv

> <b_m_subgroup_collapsed>
1

$$$$
CHEMBL3880_lig360
                    3D
 Schrodinger Suite 2021-1.
 70 74  0  0  1  0            999 V2000
   -0.6752    9.9478   26.8974 C   0  0  0  0  0  0
   -0.1921    8.8268   27.5673 C   0  0  0  0  0  0
    0.7314    7.9832   26.9534 C   0  0  0  0  0  0
    1.1683    8.2397   25.6433 C   0  0  0  0  0  0
    0.6308    9.3406   24.9659 C   0  0  0  0  0  0
   -0.2583   10.2277   25.5864 C   0  0  0  0  0  0
    1.2233    6.9362   27.6870 O   0  0  0  0  0  0
   -1.5379   10.7689   27.5717 O   0  0  0  0  0  0
    2.2474    7.4282   24.9803 C   0  0  0  0  0  0
    2.1209    6.1165   24.9135 N   0  0  0  0  0  0
    3.2729    5.6222   24.3069 O   0  0  0  0  0  0
    4.0841    6.6721   24.0535 C   0  0  0  0  0  0
    3.4558    7.8753   24.3859 C   0  0  0  0  0  0
    5.2985    6.3576   23.4695 N   0  0  0  0  0  0
    3.9873    9.2724   24.1825 C   0  0  0  0  0  0
    3.5679   10.3437   24.9792 C   0  0  0  0  0  0
    4.0609   11.6261   24.7671 C   0  0  0  0  0  0
    5.0798   11.8360   23.8490 C   0  0  0  0  0  0
    5.5310   10.7719   23.0673 C   0  0  0  0  0  0
    4.9475    9.5176   23.1936 C   0  0  0  0  0  0
    6.4738    6.6926   24.0383 C   0  0  0  0  0  0
    6.5692    7.1690   25.1669 O   0  0  0  0  0  0
    7.7314    6.5340   23.1674 C   0  0  0  0  0  0
    8.4379    7.8488   22.8569 C   0  0  0  0  0  0
    9.0609    6.8882   23.8226 C   0  0  0  0  0  0
   -0.7177   11.5038   24.8625 C   0  0  0  0  0  0
   -1.9334   11.2669   23.9532 C   0  0  0  0  0  0
    0.4135   12.2375   24.1128 C   0  0  0  0  0  0
    5.7257   13.2101   23.7224 C   0  0  0  0  0  0
    6.7822   13.5519   24.6872 N   0  0  0  0  0  0
    7.1237   14.9802   24.6048 C   0  0  0  0  0  0
    8.2682   15.3102   25.5992 C   0  0  0  0  0  0
    9.4833   14.5647   25.2429 N   0  0  0  0  0  0
    9.1439   13.1434   25.3524 C   0  0  0  0  0  0
    8.0014   12.7908   24.3669 C   0  0  0  0  0  0
   10.5620   14.8950   26.1711 C   0  0  0  0  0  0
   -0.5109    8.6297   28.5811 H   0  0  0  0  0  0
    0.9741    9.5461   23.9668 H   0  0  0  0  0  0
    0.9012    6.9474   28.5898 H   0  0  0  0  0  0
   -1.7072   10.4450   28.4585 H   0  0  0  0  0  0
    5.2957    5.7206   22.6894 H   0  0  0  0  0  0
    2.8750   10.2041   25.7921 H   0  0  0  0  0  0
    3.7178   12.4372   25.3945 H   0  0  0  0  0  0
    6.3192   10.9180   22.3448 H   0  0  0  0  0  0
    5.2847    8.7344   22.5338 H   0  0  0  0  0  0
    7.7251    5.7066   22.4555 H   0  0  0  0  0  0
    8.0345    8.7879   23.2399 H   0  0  0  0  0  0
    8.8610    7.9685   21.8650 H   0  0  0  0  0  0
    9.9592    6.3697   23.5002 H   0  0  0  0  0  0
    9.1112    7.1685   24.8758 H   0  0  0  0  0  0
   -1.0454   12.1959   25.6336 H   0  0  0  0  0  0
   -2.7023   10.6760   24.4523 H   0  0  0  0  0  0
   -2.3892   12.2143   23.6639 H   0  0  0  0  0  0
   -1.6538   10.7614   23.0320 H   0  0  0  0  0  0
    1.2657   12.4137   24.7670 H   0  0  0  0  0  0
    0.7676   11.6775   23.2473 H   0  0  0  0  0  0
    0.0778   13.2101   23.7521 H   0  0  0  0  0  0
    6.2148   13.1690   22.7670 H   0  0  0  0  0  0
    4.9458   13.9744   23.6927 H   0  0  0  0  0  0
    7.4249   15.2445   23.5895 H   0  0  0  0  0  0
    6.2483   15.5841   24.8470 H   0  0  0  0  0  0
    7.9525   15.0932   26.6230 H   0  0  0  0  0  0
    8.4929   16.3688   25.5670 H   0  0  0  0  0  0
    8.8189   12.9400   26.3664 H   0  0  0  0  0  0
   10.0183   12.5176   25.1673 H   0  0  0  0  0  0
    7.8078   11.7178   24.3673 H   0  0  0  0  0  0
    8.2950   13.0292   23.3486 H   0  0  0  0  0  0
   10.8128   15.9552   26.1112 H   0  0  0  0  0  0
   10.2933   14.6742   27.2064 H   0  0  0  0  0  0
   11.4646   14.3318   25.9288 H   0  0  0  0  0  0
  1  2  2  0  0  0
  1  6  1  0  0  0
  1  8  1  0  0  0
  2  3  1  0  0  0
  2 37  1  0  0  0
  3  4  2  0  0  0
  3  7  1  0  0  0
  4  5  1  0  0  0
  4  9  1  0  0  0
  5  6  2  0  0  0
  5 38  1  0  0  0
  6 26  1  0  0  0
  7 39  1  0  0  0
  8 40  1  0  0  0
  9 10  2  0  0  0
  9 13  1  0  0  0
 10 11  1  0  0  0
 11 12  1  0  0  0
 12 13  2  0  0  0
 12 14  1  0  0  0
 13 15  1  0  0  0
 14 21  1  0  0  0
 14 41  1  0  0  0
 15 16  2  0  0  0
 15 20  1  0  0  0
 16 17  1  0  0  0
 16 42  1  0  0  0
 17 18  2  0  0  0
 17 43  1  0  0  0
 18 19  1  0  0  0
 18 29  1  0  0  0
 19 20  2  0  0  0
 19 44  1  0  0  0
 20 45  1  0  0  0
 21 22  2  0  0  0
 21 23  1  0  0  0
 23 24  1  0  0  0
 23 25  1  0  0  0
 23 46  1  0  0  0
 24 25  1  0  0  0
 24 47  1  0  0  0
 24 48  1  0  0  0
 25 49  1  0  0  0
 25 50  1  0  0  0
 26 27  1  0  0  0
 26 28  1  0  0  0
 26 51  1  0  0  0
 27 52  1  0  0  0
 27 53  1  0  0  0
 27 54  1  0  0  0
 28 55  1  0  0  0
 28 56  1  0  0  0
 28 57  1  0  0  0
 29 30  1  0  0  0
 29 58  1  0  0  0
 29 59  1  0  0  0
 30 31  1  0  0  0
 30 35  1  0  0  0
 31 32  1  0  0  0
 31 60  1  0  0  0
 31 61  1  0  0  0
 32 33  1  0  0  0
 32 62  1  0  0  0
 32 63  1  0  0  0
 33 34  1  0  0  0
 33 36  1  0  0  0
 34 35  1  0  0  0
 34 64  1  0  0  0
 34 65  1  0  0  0
 35 66  1  0  0  0
 35 67  1  0  0  0
 36 68  1  0  0  0
 36 69  1  0  0  0
 36 70  1  0  0  0
M  END
> <s_m_entry_id>
5083

> <s_m_entry_name>
dock_pv.402

> <s_m_Source_Path>
/home/csk/Desktop/cluster/DUD-E-result/hs90a

> <s_m_Source_File>
dock_pv.maegz

> <i_m_Source_File_Index>
402

> <chembl_id>
CHEMBL3342723

> <chembl_pref_name>
None

> <i_lp_mmshare_version>
53161

> <r_lp_tautomer_probability>
0.999999999898

> <s_lp_Force_Field>
OPLS_2005

> <r_lp_Energy>
51.090458

> <b_lp_Chiralities_Consistent>
1

> <s_lp_Variant>
CHEMBL3880_lig360-1

> <s_i_glide_gridfile>
glide-grid_1uyg

> <i_i_glide_lignum>
397

> <i_i_glide_rotatable_bonds>
10

> <r_i_docking_score>
-7.14882527800841

> <r_i_glide_ligand_efficiency>
-0.198578479944678

> <r_i_glide_ligand_efficiency_sa>
-0.65569169319018

> <r_i_glide_ligand_efficiency_ln>
-1.55968053672238

> <r_i_glide_gscore>
-7.14882527800841

> <r_i_glide_lipo>
-4.29132206786069

> <r_i_glide_hbond>
-0.307994093384692

> <r_i_glide_metal>
0

> <r_i_glide_rewards>
-0.283987362011428

> <r_i_glide_evdw>
-40.3565216064453

> <r_i_glide_ecoul>
-5.59714889526367

> <r_i_glide_erotb>
0.591906250621735

> <r_i_glide_esite>
-2.95907615122333e-05

> <r_i_glide_emodel>
-55.0705233964129

> <r_i_glide_energy>
-45.953670501709

> <r_i_glide_einternal>
15.3018445968628

> <i_i_glide_confnum>
12

> <i_i_glide_posenum>
217

> <r_i_glide_eff_state_penalty>
0

> <s_user_duplicate_titles>
CHEMBL3880_lig360

> <i_f3d_flags>
0

> <s_m_subgroup_title>
dock_pv

> <s_m_subgroupid>
dock_pv

> <b_m_subgroup_collapsed>
1

$$$$
CHEMBL3880_lig313
                    3D
 Schrodinger Suite 2021-1.
 41 43  0  0  1  0            999 V2000
    3.3206   14.0172   24.7675 C   0  0  0  0  0  0
    2.0943   13.3621   24.0518 C   0  0  0  0  0  0
    2.0781   11.8850   24.2796 N   0  0  0  0  0  0
    3.2735   11.1334   23.8345 C   0  0  0  0  0  0
    5.7917   13.7580   24.3652 O   0  0  0  0  0  0
    4.5384   13.2502   24.3510 C   0  0  0  0  0  0
    4.5434   11.9616   23.9017 C   0  0  0  0  0  0
    5.8816   11.7180   23.5694 C   0  0  0  0  0  0
    6.6383   12.7681   23.8583 N   0  0  0  0  0  0
    0.9548   11.2899   24.7940 C   0  0  0  0  0  0
   -0.0335   11.9667   25.0828 O   0  0  0  0  0  0
    0.8761    9.7867   25.0696 C   0  0  0  0  0  0
    6.3385   10.4794   22.9873 C   0  0  0  0  0  0
    5.5421    9.6306   22.5786 O   0  0  0  0  0  0
    7.6709   10.3212   22.9273 N   0  0  0  0  0  0
    8.3026    9.1249   22.3928 C   0  0  0  0  0  0
    8.4448    7.9991   23.4286 C   0  0  0  0  0  0
    0.1991    9.2920   26.2104 C   0  0  0  0  0  0
    0.0625    7.9188   26.4242 C   0  0  0  0  0  0
    0.5673    7.0098   25.5019 C   0  0  0  0  0  0
    1.2329    7.4689   24.3738 C   0  0  0  0  0  0
    1.3824    8.8372   24.1613 C   0  0  0  0  0  0
    0.3979    5.6665   25.6948 O   0  0  0  0  0  0
   -0.3440   10.1132   27.1662 O   0  0  0  0  0  0
    3.2611   14.0079   25.8540 H   0  0  0  0  0  0
    3.3961   15.0603   24.4612 H   0  0  0  0  0  0
    1.1749   13.8585   24.3677 H   0  0  0  0  0  0
    2.1748   13.5302   22.9769 H   0  0  0  0  0  0
    3.1273   10.7756   22.8153 H   0  0  0  0  0  0
    3.4309   10.2252   24.4162 H   0  0  0  0  0  0
    8.2758   11.0783   23.2145 H   0  0  0  0  0  0
    9.2608    9.4014   21.9671 H   0  0  0  0  0  0
    7.7136    8.7687   21.5557 H   0  0  0  0  0  0
    9.0722    7.1929   23.0478 H   0  0  0  0  0  0
    7.4715    7.5644   23.6585 H   0  0  0  0  0  0
    8.8695    8.3598   24.3640 H   0  0  0  0  0  0
   -0.4545    7.5580   27.3004 H   0  0  0  0  0  0
    1.6103    6.7645   23.6461 H   0  0  0  0  0  0
    1.8483    9.1292   23.2337 H   0  0  0  0  0  0
   -0.1669    5.4652   26.4423 H   0  0  0  0  0  0
   -0.7380    9.6273   27.8927 H   0  0  0  0  0  0
  1  2  1  0  0  0
  1  6  1  0  0  0
  1 25  1  0  0  0
  1 26  1  0  0  0
  2  3  1  0  0  0
  2 27  1  0  0  0
  2 28  1  0  0  0
  3  4  1  0  0  0
  3 10  1  0  0  0
  4  7  1  0  0  0
  4 29  1  0  0  0
  4 30  1  0  0  0
  5  6  1  0  0  0
  5  9  1  0  0  0
  6  7  2  0  0  0
  7  8  1  0  0  0
  8  9  2  0  0  0
  8 13  1  0  0  0
 10 11  2  0  0  0
 10 12  1  0  0  0
 12 18  2  0  0  0
 12 22  1  0  0  0
 13 14  2  0  0  0
 13 15  1  0  0  0
 15 16  1  0  0  0
 15 31  1  0  0  0
 16 17  1  0  0  0
 16 32  1  0  0  0
 16 33  1  0  0  0
 17 34  1  0  0  0
 17 35  1  0  0  0
 17 36  1  0  0  0
 18 19  1  0  0  0
 18 24  1  0  0  0
 19 20  2  0  0  0
 19 37  1  0  0  0
 20 21  1  0  0  0
 20 23  1  0  0  0
 21 22  2  0  0  0
 21 38  1  0  0  0
 22 39  1  0  0  0
 23 40  1  0  0  0
 24 41  1  0  0  0
M  END
> <s_m_entry_id>
5084

> <s_m_entry_name>
dock_pv.403

> <s_m_Source_Path>
/home/csk/Desktop/cluster/DUD-E-result/hs90a

> <s_m_Source_File>
dock_pv.maegz

> <i_m_Source_File_Index>
403

> <chembl_id>
CHEMBL3233487

> <chembl_pref_name>
None

> <i_lp_mmshare_version>
53161

> <r_lp_tautomer_probability>
0.999999999898

> <s_lp_Force_Field>
OPLS_2005

> <r_lp_Energy>
35.756932

> <b_lp_Chiralities_Consistent>
1

> <s_lp_Variant>
CHEMBL3880_lig313-1

> <s_i_glide_gridfile>
glide-grid_1uyg

> <i_i_glide_lignum>
350

> <i_i_glide_rotatable_bonds>
7

> <r_i_docking_score>
-7.13891484597873

> <r_i_glide_ligand_efficiency>
-0.297454785249114

> <r_i_glide_ligand_efficiency_sa>
-0.858008071513902

> <r_i_glide_ligand_efficiency_ln>
-1.70866990609937

> <r_i_glide_gscore>
-7.13891484597873

> <r_i_glide_lipo>
-3.04416880124188

> <r_i_glide_hbond>
0

> <r_i_glide_metal>
0

> <r_i_glide_rewards>
-2.66516337392795

> <r_i_glide_evdw>
-38.0887336730957

> <r_i_glide_ecoul>
-1.40603017807007

> <r_i_glide_erotb>
0.685758539556394

> <r_i_glide_esite>
0

> <r_i_glide_emodel>
-55.8294298755334

> <r_i_glide_energy>
-39.4947638511658

> <r_i_glide_einternal>
5.60089778900146

> <i_i_glide_confnum>
40

> <i_i_glide_posenum>
396

> <r_i_glide_eff_state_penalty>
0

> <s_user_duplicate_titles>
CHEMBL3880_lig313

> <i_f3d_flags>
0

> <s_m_subgroup_title>
dock_pv

> <s_m_subgroupid>
dock_pv

> <b_m_subgroup_collapsed>
1

$$$$
CHEMBL3880_lig253
                    3D
 Schrodinger Suite 2021-1.
 31 32  0  0  1  0            999 V2000
    1.5920   12.6391   23.5584 S   0  0  0  0  0  0
    0.8710   13.8990   23.7805 O   0  0  0  0  0  0
    1.5995   12.0051   22.2349 O   0  0  0  0  0  0
    3.6605   14.0915   24.6928 C   0  0  0  0  0  0
    5.0023   14.4152   24.8686 C   0  0  0  0  0  0
    5.9922   13.5688   24.3670 C   0  0  0  0  0  0
    5.6398   12.3713   23.7344 C   0  0  0  0  0  0
    4.2963   12.0443   23.5671 C   0  0  0  0  0  0
    3.3077   12.9276   24.0057 C   0  0  0  0  0  0
    0.9044   11.4328   24.6831 C   0  0  0  0  0  0
    1.6661   10.4055   25.2518 C   0  0  0  0  0  0
    0.9917    9.5384   26.1176 C   0  0  0  0  0  0
   -0.3379    9.6543   26.3796 N   0  0  0  0  0  0
   -0.9911   10.6595   25.7436 C   0  0  0  0  0  0
   -0.4303   11.5645   24.9068 N   0  0  0  0  0  0
   -2.3564   10.7690   25.9688 N   0  0  0  0  0  0
    1.7123    8.4147   26.8352 C   0  0  0  0  0  0
    7.4559   13.9429   24.5109 C   0  0  0  0  0  0
    2.8988   14.7734   25.0389 H   0  0  0  0  0  0
    5.2679   15.3352   25.3691 H   0  0  0  0  0  0
    6.4040   11.7072   23.3566 H   0  0  0  0  0  0
    4.0275   11.1419   23.0364 H   0  0  0  0  0  0
    2.7223   10.2986   25.0587 H   0  0  0  0  0  0
   -2.8117   10.0423   26.4971 H   0  0  0  0  0  0
   -2.9120   11.3861   25.3839 H   0  0  0  0  0  0
    2.7655    8.3692   26.5575 H   0  0  0  0  0  0
    1.6546    8.5598   27.9143 H   0  0  0  0  0  0
    1.2565    7.4544   26.5918 H   0  0  0  0  0  0
    8.0133   13.6560   23.6182 H   0  0  0  0  0  0
    7.8963   13.4354   25.3699 H   0  0  0  0  0  0
    7.5813   15.0206   24.6278 H   0  0  0  0  0  0
  1  3  2  0  0  0
  1 10  1  0  0  0
  1  2  2  0  0  0
  1  9  1  0  0  0
  4  5  2  0  0  0
  4  9  1  0  0  0
  4 19  1  0  0  0
  5  6  1  0  0  0
  5 20  1  0  0  0
  6  7  2  0  0  0
  6 18  1  0  0  0
  7  8  1  0  0  0
  7 21  1  0  0  0
  8  9  2  0  0  0
  8 22  1  0  0  0
 10 11  2  0  0  0
 10 15  1  0  0  0
 11 12  1  0  0  0
 11 23  1  0  0  0
 12 13  2  0  0  0
 12 17  1  0  0  0
 13 14  1  0  0  0
 14 15  2  0  0  0
 14 16  1  0  0  0
 16 24  1  0  0  0
 16 25  1  0  0  0
 17 26  1  0  0  0
 17 27  1  0  0  0
 17 28  1  0  0  0
 18 29  1  0  0  0
 18 30  1  0  0  0
 18 31  1  0  0  0
M  END
> <s_m_entry_id>
5085

> <s_m_entry_name>
dock_pv.404

> <s_m_Source_Path>
/home/csk/Desktop/cluster/DUD-E-result/hs90a

> <s_m_Source_File>
dock_pv.maegz

> <i_m_Source_File_Index>
404

> <chembl_id>
CHEMBL1834091

> <chembl_pref_name>
None

> <i_lp_mmshare_version>
53161

> <r_lp_tautomer_probability>
0.999999987636

> <s_lp_Force_Field>
OPLS_2005

> <r_lp_Energy>
0.929958

> <b_lp_Chiralities_Consistent>
1

> <s_lp_Variant>
CHEMBL3880_lig253-1

> <s_i_glide_gridfile>
glide-grid_1uyg

> <i_i_glide_lignum>
287

> <i_i_glide_rotatable_bonds>
2

> <r_i_docking_score>
-7.13633774667917

> <r_i_glide_ligand_efficiency>
-0.396463208148843

> <r_i_glide_ligand_efficiency_sa>
-1.03902753987547

> <r_i_glide_ligand_efficiency_ln>
-1.83435881987236

> <r_i_glide_gscore>
-7.13633774667917

> <r_i_glide_lipo>
-2.5327235906719

> <r_i_glide_hbond>
-0.024331754469498

> <r_i_glide_metal>
0

> <r_i_glide_rewards>
-2.95814929676837

> <r_i_glide_evdw>
-31.027307510376

> <r_i_glide_ecoul>
-3.54621934890747

> <r_i_glide_erotb>
0.512192043240282

> <r_i_glide_esite>
-0.0500268701547656

> <r_i_glide_emodel>
-47.7981044713224

> <r_i_glide_energy>
-34.5735268592834

> <r_i_glide_einternal>
1.18015050888062

> <i_i_glide_confnum>
2

> <i_i_glide_posenum>
274

> <r_i_glide_eff_state_penalty>
0

> <s_user_duplicate_titles>
CHEMBL3880_lig253

> <i_f3d_flags>
0

> <s_m_subgroup_title>
dock_pv

> <s_m_subgroupid>
dock_pv

> <b_m_subgroup_collapsed>
1

$$$$
CHEMBL3880_lig828
                    3D
 Schrodinger Suite 2021-1.
 46 47  0  0  1  0            999 V2000
    5.0835   13.5779   24.3668 C   0  0  0  0  0  0
    6.4314   13.9384   24.3779 C   0  0  0  0  0  0
    7.3947   13.0245   23.9664 C   0  0  0  0  0  0
    7.0293   11.7651   23.4910 C   0  0  0  0  0  0
    5.6705   11.3907   23.4442 C   0  0  0  0  0  0
    4.7156   12.3135   23.9114 C   0  0  0  0  0  0
    8.0472   10.9337   23.0961 O   0  0  0  0  0  0
    6.8314   15.1694   24.8228 O   0  0  0  0  0  0
    3.8540   14.6763   24.8894 Cl  0  0  0  0  0  0
    5.2203   10.0909   22.7964 C   0  0  0  0  0  0
    4.1773    9.3992   23.3346 N   0  0  0  0  0  0
    5.7683    9.7304   21.7529 O   0  0  0  0  0  0
    3.5093    8.3339   22.5759 C   0  0  0  0  0  0
    3.8416    9.4058   24.7694 C   0  0  0  0  0  0
    2.3888    9.7051   25.1619 C   0  0  0  0  0  0
    1.8601    9.1854   26.3511 C   0  0  0  0  0  0
    0.5387    9.4798   26.7227 C   0  0  0  0  0  0
   -0.2327   10.3669   25.9552 C   0  0  0  0  0  0
    0.2982   10.9102   24.7709 C   0  0  0  0  0  0
    1.5859   10.5264   24.3670 C   0  0  0  0  0  0
   -1.4752   10.7250   26.4437 O   0  0  0  0  0  0
   -2.5771   10.6476   25.5440 C   0  0  0  0  0  0
    0.0115    8.9650   27.8846 O   0  0  0  0  0  0
   -0.3489    7.5896   27.8115 C   0  0  0  0  0  0
   -0.4664   11.8269   24.0707 O   0  0  0  0  0  0
    0.0697   12.4873   22.9286 C   0  0  0  0  0  0
    2.8433    8.2063   27.3941 Cl  0  0  0  0  0  0
    8.4343   13.3105   24.0117 H   0  0  0  0  0  0
    3.6653   12.0874   23.8728 H   0  0  0  0  0  0
    8.9013   11.3798   23.0978 H   0  0  0  0  0  0
    6.0870   15.7200   25.0785 H   0  0  0  0  0  0
    3.6637    8.4219   21.4998 H   0  0  0  0  0  0
    3.8797    7.3574   22.8899 H   0  0  0  0  0  0
    2.4315    8.3532   22.7488 H   0  0  0  0  0  0
    4.1166    8.4233   25.1509 H   0  0  0  0  0  0
    4.4616   10.1135   25.3196 H   0  0  0  0  0  0
    1.9854   10.8990   23.4389 H   0  0  0  0  0  0
   -3.4863   10.4178   26.1004 H   0  0  0  0  0  0
   -2.7361   11.6039   25.0521 H   0  0  0  0  0  0
   -2.4522    9.8905   24.7671 H   0  0  0  0  0  0
   -0.7233    7.2623   28.7745 H   0  0  0  0  0  0
   -1.1388    7.4166   27.0895 H   0  0  0  0  0  0
    0.4843    6.9368   27.5531 H   0  0  0  0  0  0
   -0.6837   13.1687   22.5302 H   0  0  0  0  0  0
    0.9520   13.0764   23.1829 H   0  0  0  0  0  0
    0.3212   11.7848   22.1352 H   0  0  0  0  0  0
  1  2  2  0  0  0
  1  6  1  0  0  0
  1  9  1  0  0  0
  2  3  1  0  0  0
  2  8  1  0  0  0
  3  4  2  0  0  0
  3 28  1  0  0  0
  4  5  1  0  0  0
  4  7  1  0  0  0
  5  6  2  0  0  0
  5 10  1  0  0  0
  6 29  1  0  0  0
  7 30  1  0  0  0
  8 31  1  0  0  0
 10 11  1  0  0  0
 10 12  2  0  0  0
 11 13  1  0  0  0
 11 14  1  0  0  0
 13 32  1  0  0  0
 13 33  1  0  0  0
 13 34  1  0  0  0
 14 15  1  0  0  0
 14 35  1  0  0  0
 14 36  1  0  0  0
 15 16  2  0  0  0
 15 20  1  0  0  0
 16 17  1  0  0  0
 16 27  1  0  0  0
 17 18  2  0  0  0
 17 23  1  0  0  0
 18 19  1  0  0  0
 18 21  1  0  0  0
 19 20  2  0  0  0
 19 25  1  0  0  0
 20 37  1  0  0  0
 21 22  1  0  0  0
 22 38  1  0  0  0
 22 39  1  0  0  0
 22 40  1  0  0  0
 23 24  1  0  0  0
 24 41  1  0  0  0
 24 42  1  0  0  0
 24 43  1  0  0  0
 25 26  1  0  0  0
 26 44  1  0  0  0
 26 45  1  0  0  0
 26 46  1  0  0  0
M  END
> <s_m_entry_id>
5086

> <s_m_entry_name>
dock_pv.405

> <s_m_Source_Path>
/home/csk/Desktop/cluster/DUD-E-result/hs90a

> <s_m_Source_File>
dock_pv.maegz

> <i_m_Source_File_Index>
405

> <chembl_id>
CHEMBL4291855

> <chembl_pref_name>
None

> <i_lp_mmshare_version>
53161

> <r_lp_tautomer_probability>
0.999999999898

> <s_lp_Force_Field>
OPLS_2005

> <r_lp_Energy>
43.117269

> <b_lp_Chiralities_Consistent>
1

> <s_lp_Variant>
CHEMBL3880_lig828-1

> <s_i_glide_gridfile>
glide-grid_1uyg

> <i_i_glide_lignum>
929

> <i_i_glide_rotatable_bonds>
9

> <r_i_docking_score>
-7.12510075243748

> <r_i_glide_ligand_efficiency>
-0.263892620460647

> <r_i_glide_ligand_efficiency_sa>
-0.791677860512195

> <r_i_glide_ligand_efficiency_ln>
-1.65860598870104

> <r_i_glide_gscore>
-7.12510075243748

> <r_i_glide_lipo>
-3.75485837617626

> <r_i_glide_hbond>
-0.0376976980885702

> <r_i_glide_metal>
0

> <r_i_glide_rewards>
-0.976534099723327

> <r_i_glide_evdw>
-42.4796562194824

> <r_i_glide_ecoul>
-4.58715438842773

> <r_i_glide_erotb>
0.456045390788967

> <r_i_glide_esite>
0

> <r_i_glide_emodel>
-63.509694855481

> <r_i_glide_energy>
-47.0668106079102

> <r_i_glide_einternal>
6.74670171737671

> <i_i_glide_confnum>
25

> <i_i_glide_posenum>
212

> <r_i_glide_eff_state_penalty>
0

> <s_user_duplicate_titles>
CHEMBL3880_lig828

> <i_f3d_flags>
0

> <s_m_subgroup_title>
dock_pv

> <s_m_subgroupid>
dock_pv

> <b_m_subgroup_collapsed>
1

$$$$
CHEMBL3880_lig54
                    3D
 Schrodinger Suite 2021-1.
 31 32  0  0  1  0            999 V2000
    1.0472   12.4182   23.3015 S   0  0  0  0  0  0
    0.8095   13.7025   23.9676 O   0  0  0  0  0  0
    1.2615   12.3691   21.8505 O   0  0  0  0  0  0
   -1.5381   11.7903   22.8783 O   0  0  0  0  0  0
   -0.3928   11.3809   23.6131 N   0  0  0  0  0  0
   -0.7159   10.8635   24.8928 C   0  0  0  0  0  0
    2.5092   11.5626   24.1603 C   0  0  0  0  0  0
    3.8369   12.3081   24.1157 C   0  0  0  0  0  0
    0.1569    9.9722   25.5302 C   0  0  0  0  0  0
   -1.9111   11.1876   25.5465 C   0  0  0  0  0  0
    4.9630   11.6892   23.5650 C   0  0  0  0  0  0
    3.9570   13.5658   24.7152 C   0  0  0  0  0  0
   -0.0810    9.5447   26.8347 C   0  0  0  0  0  0
   -2.1571   10.7688   26.8476 C   0  0  0  0  0  0
   -1.2245    9.9696   27.5017 C   0  0  0  0  0  0
    6.2021   12.3257   23.6041 C   0  0  0  0  0  0
    5.1964   14.1992   24.7671 C   0  0  0  0  0  0
    6.3161   13.5694   24.2255 C   0  0  0  0  0  0
   -1.5937   11.1343   22.1802 H   0  0  0  0  0  0
    2.5966   10.5702   23.7200 H   0  0  0  0  0  0
    2.2454   11.4589   25.2067 H   0  0  0  0  0  0
    1.0319    9.5973   25.0262 H   0  0  0  0  0  0
   -2.6487   11.8122   25.0647 H   0  0  0  0  0  0
    4.8854   10.7107   23.1138 H   0  0  0  0  0  0
    3.0978   14.0459   25.1600 H   0  0  0  0  0  0
    0.6183    8.8841   27.3262 H   0  0  0  0  0  0
   -3.0732   11.0645   27.3404 H   0  0  0  0  0  0
   -1.4082    9.6433   28.5157 H   0  0  0  0  0  0
    7.0734   11.8497   23.1785 H   0  0  0  0  0  0
    5.2916   15.1679   25.2353 H   0  0  0  0  0  0
    7.2774   14.0594   24.2698 H   0  0  0  0  0  0
  1  2  2  0  0  0
  1  3  2  0  0  0
  1  5  1  0  0  0
  1  7  1  0  0  0
  4  5  1  0  0  0
  4 19  1  0  0  0
  5  6  1  0  0  0
  6  9  2  0  0  0
  6 10  1  0  0  0
  7  8  1  0  0  0
  7 20  1  0  0  0
  7 21  1  0  0  0
  8 11  2  0  0  0
  8 12  1  0  0  0
  9 13  1  0  0  0
  9 22  1  0  0  0
 10 14  2  0  0  0
 10 23  1  0  0  0
 11 16  1  0  0  0
 11 24  1  0  0  0
 12 17  2  0  0  0
 12 25  1  0  0  0
 13 15  2  0  0  0
 13 26  1  0  0  0
 14 15  1  0  0  0
 14 27  1  0  0  0
 15 28  1  0  0  0
 16 18  2  0  0  0
 16 29  1  0  0  0
 17 18  1  0  0  0
 17 30  1  0  0  0
 18 31  1  0  0  0
M  END
> <s_m_entry_id>
5087

> <s_m_entry_name>
dock_pv.406

> <s_m_Source_Path>
/home/csk/Desktop/cluster/DUD-E-result/hs90a

> <s_m_Source_File>
dock_pv.maegz

> <i_m_Source_File_Index>
406

> <chembl_id>
CHEMBL1489355

> <chembl_pref_name>
None

> <i_lp_mmshare_version>
53161

> <r_lp_tautomer_probability>
1

> <s_lp_Force_Field>
OPLS_2005

> <r_lp_Energy>
9.483447

> <b_lp_Chiralities_Consistent>
1

> <s_lp_Variant>
CHEMBL3880_lig54-1

> <s_i_glide_gridfile>
glide-grid_1uyg

> <i_i_glide_lignum>
60

> <i_i_glide_rotatable_bonds>
5

> <r_i_docking_score>
-7.12207128416743

> <r_i_glide_ligand_efficiency>
-0.39567062689819

> <r_i_glide_ligand_efficiency_sa>
-1.03695038938561

> <r_i_glide_ligand_efficiency_ln>
-1.8306916992475

> <r_i_glide_gscore>
-7.12207128416743

> <r_i_glide_lipo>
-2.80181338705511

> <r_i_glide_hbond>
0

> <r_i_glide_metal>
0

> <r_i_glide_rewards>
-2.66355497874827

> <r_i_glide_evdw>
-31.805549621582

> <r_i_glide_ecoul>
-3.85752367973328

> <r_i_glide_erotb>
0.512203114675041

> <r_i_glide_esite>
0

> <r_i_glide_emodel>
-48.1265727402522

> <r_i_glide_energy>
-35.6630733013153

> <r_i_glide_einternal>
5.49856567382812

> <i_i_glide_confnum>
5

> <i_i_glide_posenum>
238

> <r_i_glide_eff_state_penalty>
0

> <s_user_duplicate_titles>
CHEMBL3880_lig54

> <i_f3d_flags>
0

> <s_m_subgroup_title>
dock_pv

> <s_m_subgroupid>
dock_pv

> <b_m_subgroup_collapsed>
1

$$$$
CHEMBL3880_lig96
                    3D
 Schrodinger Suite 2021-1.
 31 31  0  0  1  0            999 V2000
   -0.8589   10.5801   25.2708 S   0  0  0  0  0  0
   -0.3111   11.5697   23.4488 S   0  0  0  0  0  0
   -2.3054    9.9692   24.7670 O   0  0  0  0  0  0
    0.0555    9.4568   25.4976 O   0  0  0  0  0  0
   -1.1305   11.5689   26.3166 O   0  0  0  0  0  0
    5.0760   13.9687   24.6216 N   0  0  0  0  0  0
    1.2584   12.2425   23.8922 C   0  0  0  0  0  0
    3.7953   13.3648   24.4061 C   0  0  0  0  0  0
    1.4027   13.6202   23.9666 C   0  0  0  0  0  0
    2.3533   11.4120   24.1159 C   0  0  0  0  0  0
    2.6538   14.1661   24.2287 C   0  0  0  0  0  0
    3.6011   11.9734   24.3878 C   0  0  0  0  0  0
    6.3957   13.4183   24.2391 C   0  0  0  0  0  0
    5.1607   15.3738   25.0515 C   0  0  0  0  0  0
    6.5193   12.0505   23.5495 C   0  0  0  0  0  0
    4.6867   15.5941   26.4887 C   0  0  0  0  0  0
   -2.1702    9.3025   24.0591 H   0  0  0  0  0  0
    0.5556   14.2707   23.8050 H   0  0  0  0  0  0
    2.2416   10.3372   24.0863 H   0  0  0  0  0  0
    2.7114   15.2383   24.2523 H   0  0  0  0  0  0
    4.3981   11.2910   24.6144 H   0  0  0  0  0  0
    7.0287   13.4160   25.1282 H   0  0  0  0  0  0
    6.8582   14.1425   23.5670 H   0  0  0  0  0  0
    6.1869   15.7384   24.9819 H   0  0  0  0  0  0
    4.6089   16.0159   24.3679 H   0  0  0  0  0  0
    7.4993   11.9600   23.0799 H   0  0  0  0  0  0
    5.7753   11.9169   22.7668 H   0  0  0  0  0  0
    6.4547   11.2274   24.2604 H   0  0  0  0  0  0
    4.7538   16.6470   26.7640 H   0  0  0  0  0  0
    3.6578   15.2717   26.6434 H   0  0  0  0  0  0
    5.3220   15.0294   27.1681 H   0  0  0  0  0  0
  1  2  1  0  0  0
  1  3  1  0  0  0
  1  4  2  0  0  0
  1  5  2  0  0  0
  2  7  1  0  0  0
  3 17  1  0  0  0
  6  8  1  0  0  0
  6 13  1  0  0  0
  6 14  1  0  0  0
  7  9  2  0  0  0
  7 10  1  0  0  0
  8 11  2  0  0  0
  8 12  1  0  0  0
  9 11  1  0  0  0
  9 18  1  0  0  0
 10 12  2  0  0  0
 10 19  1  0  0  0
 11 20  1  0  0  0
 12 21  1  0  0  0
 13 15  1  0  0  0
 13 22  1  0  0  0
 13 23  1  0  0  0
 14 16  1  0  0  0
 14 24  1  0  0  0
 14 25  1  0  0  0
 15 26  1  0  0  0
 15 27  1  0  0  0
 15 28  1  0  0  0
 16 29  1  0  0  0
 16 30  1  0  0  0
 16 31  1  0  0  0
M  END
> <s_m_entry_id>
5088

> <s_m_entry_name>
dock_pv.407

> <s_m_Source_Path>
/home/csk/Desktop/cluster/DUD-E-result/hs90a

> <s_m_Source_File>
dock_pv.maegz

> <i_m_Source_File_Index>
407

> <chembl_id>
CHEMBL1603549

> <chembl_pref_name>
None

> <i_lp_mmshare_version>
53161

> <r_lp_tautomer_probability>
1

> <s_lp_Force_Field>
OPLS_2005

> <r_lp_Energy>
9.041671

> <b_lp_Chiralities_Consistent>
1

> <s_lp_Variant>
CHEMBL3880_lig96-1

> <s_i_glide_gridfile>
glide-grid_1uyg

> <i_i_glide_lignum>
108

> <i_i_glide_rotatable_bonds>
6

> <r_i_docking_score>
-7.10743522117512

> <r_i_glide_ligand_efficiency>
-0.444214701323445

> <r_i_glide_ligand_efficiency_sa>
-1.11935090470584

> <r_i_glide_ligand_efficiency_ln>
-1.88396767961376

> <r_i_glide_gscore>
-7.10743522117512

> <r_i_glide_lipo>
-3.02848753564617

> <r_i_glide_hbond>
0

> <r_i_glide_metal>
0

> <r_i_glide_rewards>
-2.54095623978036

> <r_i_glide_evdw>
-27.438892364502

> <r_i_glide_ecoul>
-6.29507827758789

> <r_i_glide_erotb>
0.778214914114694

> <r_i_glide_esite>
0

> <r_i_glide_emodel>
-46.8203541643576

> <r_i_glide_energy>
-33.7339706420898

> <r_i_glide_einternal>
3.3636109828949

> <i_i_glide_confnum>
45

> <i_i_glide_posenum>
189

> <r_i_glide_eff_state_penalty>
0

> <s_user_duplicate_titles>
CHEMBL3880_lig96

> <i_f3d_flags>
0

> <s_m_subgroup_title>
dock_pv

> <s_m_subgroupid>
dock_pv

> <b_m_subgroup_collapsed>
1

$$$$
CHEMBL3880_lig66
                    3D
 Schrodinger Suite 2021-1.
 35 38  0  0  1  0            999 V2000
    3.5428   13.9246   24.7668 S   0  0  0  0  0  0
   -0.5936   10.6194   26.3665 S   0  0  0  0  0  0
    2.4643   11.3718   23.3615 P   0  0  2  0  0  0
    1.8064   11.9691   22.1673 O   0  0  0  0  0  0
    5.0888   12.2147   23.5688 N   0  0  0  0  0  0
    1.5280   11.3121   24.7829 N   0  0  0  0  0  0
   -0.6934   11.4284   23.9234 N   0  0  0  0  0  0
    3.8434   12.4441   23.8816 C   0  0  0  0  0  0
    3.1057    9.6678   23.1671 C   0  0  0  0  0  0
    5.2710   14.2095   24.7837 C   0  0  0  0  0  0
    5.9164   13.1690   24.0654 C   0  0  0  0  0  0
    0.1447   11.1692   24.8953 C   0  0  0  0  0  0
    4.2687    9.4400   22.4248 C   0  0  0  0  0  0
    2.4132    8.5825   23.7176 C   0  0  0  0  0  0
    6.0047   15.2288   25.4013 C   0  0  0  0  0  0
    7.3148   13.1477   23.9673 C   0  0  0  0  0  0
    7.3946   15.1688   25.3136 C   0  0  0  0  0  0
    8.0383   14.1516   24.6152 C   0  0  0  0  0  0
    4.7507    8.1457   22.2548 C   0  0  0  0  0  0
    2.8892    7.2859   23.5391 C   0  0  0  0  0  0
    4.0574    7.0732   22.8107 C   0  0  0  0  0  0
   -2.1356   10.7691   25.5885 C   0  0  0  0  0  0
   -1.9390   11.2113   24.2860 C   0  0  0  0  0  0
    2.0172   11.4505   25.6705 H   0  0  0  0  0  0
    4.8064   10.2546   21.9670 H   0  0  0  0  0  0
    1.4960    8.7284   24.2701 H   0  0  0  0  0  0
    5.5173   16.0223   25.9513 H   0  0  0  0  0  0
    7.8234   12.3568   23.4339 H   0  0  0  0  0  0
    7.9859   15.9312   25.8001 H   0  0  0  0  0  0
    9.1156   14.1431   24.5887 H   0  0  0  0  0  0
    5.6513    7.9712   21.6835 H   0  0  0  0  0  0
    2.3466    6.4477   23.9527 H   0  0  0  0  0  0
    4.4249    6.0676   22.6684 H   0  0  0  0  0  0
   -3.0674   10.5522   26.0902 H   0  0  0  0  0  0
   -2.7375   11.3941   23.5752 H   0  0  0  0  0  0
  1  8  1  0  0  0
  1 10  1  0  0  0
  2 12  1  0  0  0
  2 22  1  0  0  0
  3  4  2  0  0  0
  3  6  1  0  0  0
  3  8  1  0  0  0
  3  9  1  0  0  0
  5  8  2  0  0  0
  5 11  1  0  0  0
  6 12  1  0  0  0
  6 24  1  0  0  0
  7 12  2  0  0  0
  7 23  1  0  0  0
  9 13  2  0  0  0
  9 14  1  0  0  0
 10 11  2  0  0  0
 10 15  1  0  0  0
 11 16  1  0  0  0
 13 19  1  0  0  0
 13 25  1  0  0  0
 14 20  2  0  0  0
 14 26  1  0  0  0
 15 17  2  0  0  0
 15 27  1  0  0  0
 16 18  2  0  0  0
 16 28  1  0  0  0
 17 18  1  0  0  0
 17 29  1  0  0  0
 18 30  1  0  0  0
 19 21  2  0  0  0
 19 31  1  0  0  0
 20 21  1  0  0  0
 20 32  1  0  0  0
 21 33  1  0  0  0
 22 23  2  0  0  0
 22 34  1  0  0  0
 23 35  1  0  0  0
M  END
> <s_m_entry_id>
5089

> <s_m_entry_name>
dock_pv.408

> <s_m_Source_Path>
/home/csk/Desktop/cluster/DUD-E-result/hs90a

> <s_m_Source_File>
dock_pv.maegz

> <i_m_Source_File_Index>
408

> <chembl_id>
CHEMBL1410147

> <chembl_pref_name>
None

> <i_lp_mmshare_version>
53161

> <r_lp_tautomer_probability>
1

> <s_lp_Force_Field>
OPLS_2005

> <r_lp_Energy>
4.474276

> <b_lp_Chiralities_Consistent>
1

> <s_lp_Variant>
CHEMBL3880_lig66-2

> <s_i_glide_gridfile>
glide-grid_1uyg

> <i_i_glide_lignum>
73

> <i_i_glide_rotatable_bonds>
4

> <r_i_docking_score>
-7.10390611824725

> <r_i_glide_ligand_efficiency>
-0.308865483402054

> <r_i_glide_ligand_efficiency_sa>
-0.87837234854495

> <r_i_glide_ligand_efficiency_ln>
-1.71778891405151

> <r_i_glide_gscore>
-7.10390611824725

> <r_i_glide_lipo>
-3.41094890203486

> <r_i_glide_hbond>
-0.0473960693435283

> <r_i_glide_metal>
0

> <r_i_glide_rewards>
-1.67232904545454

> <r_i_glide_evdw>
-40.8717651367188

> <r_i_glide_ecoul>
-3.52766299247742

> <r_i_glide_erotb>
0.599505604293234

> <r_i_glide_esite>
0

> <r_i_glide_emodel>
-60.2873539649184

> <r_i_glide_energy>
-44.3994281291962

> <r_i_glide_einternal>
4.85562515258789

> <i_i_glide_confnum>
54

> <i_i_glide_posenum>
193

> <r_i_glide_eff_state_penalty>
0

> <s_user_duplicate_titles>
CHEMBL3880_lig66

> <i_f3d_flags>
0

> <s_m_subgroup_title>
dock_pv

> <s_m_subgroupid>
dock_pv

> <b_m_subgroup_collapsed>
1

$$$$
CHEMBL3880_lig404
                    3D
 Schrodinger Suite 2021-1.
 57 58  0  0  1  0            999 V2000
    7.1410   12.4215   24.0803 C   0  0  0  0  0  0
    6.5217   13.6192   24.3965 C   0  0  0  0  0  0
    5.1426   13.7226   24.3670 C   0  0  0  0  0  0
    4.3627   12.6238   23.9672 C   0  0  0  0  0  0
    5.0138   11.4463   23.5665 C   0  0  0  0  0  0
    6.4062   11.3140   23.6258 C   0  0  0  0  0  0
    7.0369    9.9684   23.2089 C   0  0  0  0  0  0
    8.0624    9.3525   24.1837 C   0  0  0  0  0  0
    7.6537   10.0446   21.8135 C   0  0  0  0  0  0
    8.4610   12.3689   24.3670 O   0  0  0  0  0  0
    4.6014   14.9124   24.7778 O   0  0  0  0  0  0
    2.8684   12.6873   23.9552 C   0  0  0  0  0  0
    2.3327   13.9315   23.9664 O   0  0  0  0  0  0
    0.9595   13.8398   23.8632 N   0  0  0  0  0  0
    0.6772   12.5568   23.7697 C   0  0  0  0  0  0
    1.8310   11.7597   23.9231 C   0  0  0  0  0  0
    1.9402   10.3052   23.9767 C   0  0  0  0  0  0
   -0.6679   12.0941   23.5671 C   0  0  0  0  0  0
   -1.3092   12.7965   22.6181 N   0  0  0  0  0  0
   -1.1524   11.1647   24.2120 O   0  0  0  0  0  0
    2.0949    9.0961   24.0590 C   0  0  0  0  0  0
    2.3561    7.6478   24.1985 C   0  0  0  0  0  0
   -2.7026   12.6730   22.2490 C   0  0  0  0  0  0
   -3.4813   13.9693   22.5314 C   0  0  0  0  0  0
    1.0792    6.8597   23.8262 C   0  0  0  0  0  0
    3.5045    7.2621   23.2327 C   0  0  0  0  0  0
    2.7299    7.4392   25.6036 N   0  0  0  0  0  0
    3.1267    6.3023   26.2031 C   0  0  0  0  0  0
    3.2300    5.2203   25.6299 O   0  0  0  0  0  0
    3.4635    6.3986   27.6859 C   0  0  0  0  0  0
    7.1087   14.4551   24.7493 H   0  0  0  0  0  0
    4.4380   10.6057   23.2140 H   0  0  0  0  0  0
    6.2306    9.2363   23.1421 H   0  0  0  0  0  0
    7.6610    9.1716   25.1673 H   0  0  0  0  0  0
    8.4089    8.3829   23.8225 H   0  0  0  0  0  0
    8.9457    9.9692   24.3169 H   0  0  0  0  0  0
    6.9191   10.3107   21.0531 H   0  0  0  0  0  0
    8.4601   10.7700   21.7856 H   0  0  0  0  0  0
    8.0775    9.0733   21.5608 H   0  0  0  0  0  0
    8.9970   11.9690   23.6711 H   0  0  0  0  0  0
    3.6477   14.9167   24.6551 H   0  0  0  0  0  0
   -0.7759   13.4680   22.0881 H   0  0  0  0  0  0
   -2.7390   12.4375   21.1849 H   0  0  0  0  0  0
   -3.1390   11.8209   22.7672 H   0  0  0  0  0  0
   -4.5503   13.8456   22.3633 H   0  0  0  0  0  0
   -3.3660   14.2893   23.5669 H   0  0  0  0  0  0
   -3.1539   14.7757   21.8770 H   0  0  0  0  0  0
    0.8436    6.9847   22.7696 H   0  0  0  0  0  0
    1.2039    5.7887   23.9878 H   0  0  0  0  0  0
    0.2080    7.1734   24.4056 H   0  0  0  0  0  0
    3.2619    7.5106   22.1971 H   0  0  0  0  0  0
    4.4379    7.7646   23.4867 H   0  0  0  0  0  0
    3.7050    6.1905   23.2537 H   0  0  0  0  0  0
    2.6715    8.2674   26.1751 H   0  0  0  0  0  0
    3.0096    7.2756   28.1474 H   0  0  0  0  0  0
    4.5444    6.4557   27.8215 H   0  0  0  0  0  0
    3.0994    5.5152   28.2103 H   0  0  0  0  0  0
  1  2  2  0  0  0
  1  6  1  0  0  0
  1 10  1  0  0  0
  2  3  1  0  0  0
  2 31  1  0  0  0
  3  4  2  0  0  0
  3 11  1  0  0  0
  4  5  1  0  0  0
  4 12  1  0  0  0
  5  6  2  0  0  0
  5 32  1  0  0  0
  6  7  1  0  0  0
  7  8  1  0  0  0
  7  9  1  0  0  0
  7 33  1  0  0  0
  8 34  1  0  0  0
  8 35  1  0  0  0
  8 36  1  0  0  0
  9 37  1  0  0  0
  9 38  1  0  0  0
  9 39  1  0  0  0
 10 40  1  0  0  0
 11 41  1  0  0  0
 12 13  1  0  0  0
 12 16  2  0  0  0
 13 14  1  0  0  0
 14 15  2  0  0  0
 15 16  1  0  0  0
 15 18  1  0  0  0
 16 17  1  0  0  0
 17 21  3  0  0  0
 18 19  1  0  0  0
 18 20  2  0  0  0
 19 23  1  0  0  0
 19 42  1  0  0  0
 21 22  1  0  0  0
 22 25  1  0  0  0
 22 26  1  0  0  0
 22 27  1  0  0  0
 23 24  1  0  0  0
 23 43  1  0  0  0
 23 44  1  0  0  0
 24 45  1  0  0  0
 24 46  1  0  0  0
 24 47  1  0  0  0
 25 48  1  0  0  0
 25 49  1  0  0  0
 25 50  1  0  0  0
 26 51  1  0  0  0
 26 52  1  0  0  0
 26 53  1  0  0  0
 27 28  1  0  0  0
 27 54  1  0  0  0
 28 29  2  0  0  0
 28 30  1  0  0  0
 30 55  1  0  0  0
 30 56  1  0  0  0
 30 57  1  0  0  0
M  END
> <s_m_entry_id>
5090

> <s_m_entry_name>
dock_pv.409

> <s_m_Source_Path>
/home/csk/Desktop/cluster/DUD-E-result/hs90a

> <s_m_Source_File>
dock_pv.maegz

> <i_m_Source_File_Index>
409

> <chembl_id>
CHEMBL3600513

> <chembl_pref_name>
None

> <i_lp_mmshare_version>
53161

> <r_lp_tautomer_probability>
0.999999999898

> <s_lp_Force_Field>
OPLS_2005

> <r_lp_Energy>
14.685794

> <b_lp_Chiralities_Consistent>
1

> <s_lp_Variant>
CHEMBL3880_lig404-1

> <s_i_glide_gridfile>
glide-grid_1uyg

> <i_i_glide_lignum>
446

> <i_i_glide_rotatable_bonds>
11

> <r_i_docking_score>
-7.09519687137842

> <r_i_glide_ligand_efficiency>
-0.236506562379281

> <r_i_glide_ligand_efficiency_sa>
-0.734880877663147

> <r_i_glide_ligand_efficiency_ln>
-1.612106037539

> <r_i_glide_gscore>
-7.09519687137842

> <r_i_glide_lipo>
-3.73427262945514

> <r_i_glide_hbond>
-0.153363559346508

> <r_i_glide_metal>
0

> <r_i_glide_rewards>
-1.20824903383308

> <r_i_glide_evdw>
-39.4128341674805

> <r_i_glide_ecoul>
-4.80720853805542

> <r_i_glide_erotb>
0.692411340338643

> <r_i_glide_esite>
0

> <r_i_glide_emodel>
-60.92622309623

> <r_i_glide_energy>
-44.2200427055359

> <r_i_glide_einternal>
16.944896697998

> <i_i_glide_confnum>
21

> <i_i_glide_posenum>
154

> <r_i_glide_eff_state_penalty>
0

> <s_user_duplicate_titles>
CHEMBL3880_lig404

> <i_f3d_flags>
0

> <s_m_subgroup_title>
dock_pv

> <s_m_subgroupid>
dock_pv

> <b_m_subgroup_collapsed>
1

$$$$
CHEMBL3880_lig91
                    3D
 Schrodinger Suite 2021-1.
 26 27  0  0  1  0            999 V2000
    6.8480   13.9704   24.6327 Br  0  0  0  0  0  0
   -1.1308   10.7693   26.9862 O   0  0  0  0  0  0
    0.3529   11.6781   24.8154 N   0  0  0  0  0  0
    0.3292   12.7693   22.6512 N   0  0  0  0  0  0
   -1.6718   10.7663   25.7180 N   0  0  0  0  0  0
    0.9431   12.3539   23.7923 C   0  0  0  0  0  0
    2.3624   12.7347   23.9772 C   0  0  0  0  0  0
   -0.9809   11.4198   24.6885 C   0  0  0  0  0  0
   -0.9915   12.4639   22.5431 C   0  0  0  0  0  0
   -1.6880   11.7884   23.5453 C   0  0  0  0  0  0
    3.3829   11.7987   23.7865 C   0  0  0  0  0  0
    2.6893   14.0368   24.3665 C   0  0  0  0  0  0
    5.0273   13.4685   24.3669 C   0  0  0  0  0  0
    4.7148   12.1693   23.9670 C   0  0  0  0  0  0
    4.0162   14.3994   24.5804 C   0  0  0  0  0  0
   -1.6999   12.9099   21.2807 C   0  0  0  0  0  0
   -0.7102    9.9032   27.0163 H   0  0  0  0  0  0
   -2.6841   10.7373   25.7713 H   0  0  0  0  0  0
   -2.7385   11.5692   23.4432 H   0  0  0  0  0  0
    3.1425   10.7869   23.4922 H   0  0  0  0  0  0
    1.9059   14.7654   24.5109 H   0  0  0  0  0  0
    5.5024   11.4471   23.8111 H   0  0  0  0  0  0
    4.2620   15.4054   24.8892 H   0  0  0  0  0  0
   -2.6405   12.3709   21.1672 H   0  0  0  0  0  0
   -1.0932   12.7309   20.3932 H   0  0  0  0  0  0
   -1.9422   13.9690   21.3295 H   0  0  0  0  0  0
  1 13  1  0  0  0
  2  5  1  0  0  0
  2 17  1  0  0  0
  3  6  1  0  0  0
  3  8  2  0  0  0
  4  6  2  0  0  0
  4  9  1  0  0  0
  5  8  1  0  0  0
  5 18  1  0  0  0
  6  7  1  0  0  0
  7 11  2  0  0  0
  7 12  1  0  0  0
  8 10  1  0  0  0
  9 10  2  0  0  0
  9 16  1  0  0  0
 10 19  1  0  0  0
 11 14  1  0  0  0
 11 20  1  0  0  0
 12 15  2  0  0  0
 12 21  1  0  0  0
 13 14  2  0  0  0
 13 15  1  0  0  0
 14 22  1  0  0  0
 15 23  1  0  0  0
 16 24  1  0  0  0
 16 25  1  0  0  0
 16 26  1  0  0  0
M  END
> <s_m_entry_id>
5091

> <s_m_entry_name>
dock_pv.410

> <s_m_Source_Path>
/home/csk/Desktop/cluster/DUD-E-result/hs90a

> <s_m_Source_File>
dock_pv.maegz

> <i_m_Source_File_Index>
410

> <chembl_id>
CHEMBL1521872

> <chembl_pref_name>
None

> <i_lp_mmshare_version>
53161

> <r_lp_tautomer_probability>
1

> <s_lp_Force_Field>
OPLS_2005

> <r_lp_Energy>
4.314222

> <b_lp_Chiralities_Consistent>
1

> <s_lp_Variant>
CHEMBL3880_lig91-1

> <s_i_glide_gridfile>
glide-grid_1uyg

> <i_i_glide_lignum>
102

> <i_i_glide_rotatable_bonds>
3

> <r_i_docking_score>
-7.09462293031977

> <r_i_glide_ligand_efficiency>
-0.443413933144985

> <r_i_glide_ligand_efficiency_sa>
-1.11733309533946

> <r_i_glide_ligand_efficiency_ln>
-1.88057152599123

> <r_i_glide_gscore>
-7.09462293031977

> <r_i_glide_lipo>
-2.69626469957654

> <r_i_glide_hbond>
-0.159782498727347

> <r_i_glide_metal>
0

> <r_i_glide_rewards>
-2.41603720067243

> <r_i_glide_evdw>
-34.6181297302246

> <r_i_glide_ecoul>
-3.67876029014587

> <r_i_glide_erotb>
0.460181998689658

> <r_i_glide_esite>
0

> <r_i_glide_emodel>
-51.0810575194978

> <r_i_glide_energy>
-38.2968900203705

> <r_i_glide_einternal>
7.53702688217163

> <i_i_glide_confnum>
1

> <i_i_glide_posenum>
268

> <r_i_glide_eff_state_penalty>
0

> <s_user_duplicate_titles>
CHEMBL3880_lig91

> <i_f3d_flags>
0

> <s_m_subgroup_title>
dock_pv

> <s_m_subgroupid>
dock_pv

> <b_m_subgroup_collapsed>
1

$$$$
CHEMBL3880_lig347
                    3D
 Schrodinger Suite 2021-1.
 59 61  0  0  1  0            999 V2000
    5.1138    5.7584   28.6356 C   0  0  0  0  0  0
    4.3192    6.4103   29.5727 C   0  0  0  0  0  0
    3.1595    7.0850   29.1867 C   0  0  0  0  0  0
    2.7539    7.0785   27.8397 C   0  0  0  0  0  0
    3.5404    6.3741   26.9149 C   0  0  0  0  0  0
    4.7234    5.7420   27.2949 C   0  0  0  0  0  0
    5.6896    4.9717   26.0863 Cl  0  0  0  0  0  0
    2.4610    7.7653   30.1515 O   0  0  0  0  0  0
    6.2759    5.1608   29.0476 O   0  0  0  0  0  0
    1.5425    7.8125   27.3295 C   0  0  0  0  0  0
    0.4449    7.9293   28.0573 N   0  0  0  0  0  0
   -0.4825    8.6444   27.2982 O   0  0  0  0  0  0
    0.1055    8.9203   26.1097 C   0  0  0  0  0  0
    1.3922    8.4351   26.0786 C   0  0  0  0  0  0
   -0.6235    9.5690   25.1418 N   0  0  0  0  0  0
    2.3599    8.5780   24.9607 C   0  0  0  0  0  0
    2.2287    7.8018   23.8097 C   0  0  0  0  0  0
    3.1453    7.9454   22.7729 C   0  0  0  0  0  0
    4.1732    8.8976   22.8562 C   0  0  0  0  0  0
    4.3051    9.6482   24.0214 C   0  0  0  0  0  0
    3.4080    9.4897   25.0738 C   0  0  0  0  0  0
    5.0856    9.1578   21.8531 O   0  0  0  0  0  0
    4.9492    8.4935   20.6023 C   0  0  0  0  0  0
   -1.0731   10.8262   25.2680 C   0  0  0  0  0  0
   -1.4391   11.5208   23.9447 C   0  0  0  0  0  0
   -1.1389   11.4402   26.3347 O   0  0  0  0  0  0
   -0.3927   12.5582   23.4431 C   0  0  0  0  0  0
    1.1033   12.1568   23.5446 C   0  0  0  0  0  0
    2.0606   13.3536   23.6933 C   0  0  0  0  0  0
    3.4959   12.9044   24.0369 C   0  0  0  0  0  0
    4.4864   14.0317   24.3656 C   0  0  0  0  0  0
    4.2456   14.7099   25.7219 C   0  0  0  0  0  0
    4.6210    6.4214   30.6101 H   0  0  0  0  0  0
    3.2567    6.3238   25.8753 H   0  0  0  0  0  0
    3.0069    7.9669   30.9236 H   0  0  0  0  0  0
    6.4609    5.3217   29.9752 H   0  0  0  0  0  0
   -0.5654    9.1832   24.2114 H   0  0  0  0  0  0
    1.4269    7.0838   23.7231 H   0  0  0  0  0  0
    3.0217    7.3195   21.9046 H   0  0  0  0  0  0
    5.1076   10.3678   24.1068 H   0  0  0  0  0  0
    3.5185   10.0846   25.9692 H   0  0  0  0  0  0
    5.8032    8.7428   19.9752 H   0  0  0  0  0  0
    4.9089    7.4089   20.7075 H   0  0  0  0  0  0
    4.0606    8.8241   20.0731 H   0  0  0  0  0  0
   -2.4093   12.0034   24.0577 H   0  0  0  0  0  0
   -1.5887   10.7697   23.1670 H   0  0  0  0  0  0
   -0.5574   13.4973   23.9670 H   0  0  0  0  0  0
   -0.6171   12.8053   22.4033 H   0  0  0  0  0  0
    1.3830   11.5522   22.6816 H   0  0  0  0  0  0
    1.2767   11.5186   24.4092 H   0  0  0  0  0  0
    1.6902   14.0149   24.4755 H   0  0  0  0  0  0
    2.0588   13.9438   22.7795 H   0  0  0  0  0  0
    3.8885   12.3275   23.1996 H   0  0  0  0  0  0
    3.4650   12.2298   24.8937 H   0  0  0  0  0  0
    4.4613   14.7692   23.5687 H   0  0  0  0  0  0
    5.4982   13.6251   24.3581 H   0  0  0  0  0  0
    4.9811   15.4919   25.9030 H   0  0  0  0  0  0
    4.3199   13.9931   26.5406 H   0  0  0  0  0  0
    3.2609   15.1685   25.7678 H   0  0  0  0  0  0
  1  2  2  0  0  0
  1  6  1  0  0  0
  1  9  1  0  0  0
  2  3  1  0  0  0
  2 33  1  0  0  0
  3  4  2  0  0  0
  3  8  1  0  0  0
  4  5  1  0  0  0
  4 10  1  0  0  0
  5  6  2  0  0  0
  5 34  1  0  0  0
  6  7  1  0  0  0
  8 35  1  0  0  0
  9 36  1  0  0  0
 10 11  2  0  0  0
 10 14  1  0  0  0
 11 12  1  0  0  0
 12 13  1  0  0  0
 13 14  2  0  0  0
 13 15  1  0  0  0
 14 16  1  0  0  0
 15 24  1  0  0  0
 15 37  1  0  0  0
 16 17  2  0  0  0
 16 21  1  0  0  0
 17 18  1  0  0  0
 17 38  1  0  0  0
 18 19  2  0  0  0
 18 39  1  0  0  0
 19 20  1  0  0  0
 19 22  1  0  0  0
 20 21  2  0  0  0
 20 40  1  0  0  0
 21 41  1  0  0  0
 22 23  1  0  0  0
 23 42  1  0  0  0
 23 43  1  0  0  0
 23 44  1  0  0  0
 24 25  1  0  0  0
 24 26  2  0  0  0
 25 27  1  0  0  0
 25 45  1  0  0  0
 25 46  1  0  0  0
 27 28  1  0  0  0
 27 47  1  0  0  0
 27 48  1  0  0  0
 28 29  1  0  0  0
 28 49  1  0  0  0
 28 50  1  0  0  0
 29 30  1  0  0  0
 29 51  1  0  0  0
 29 52  1  0  0  0
 30 31  1  0  0  0
 30 53  1  0  0  0
 30 54  1  0  0  0
 31 32  1  0  0  0
 31 55  1  0  0  0
 31 56  1  0  0  0
 32 57  1  0  0  0
 32 58  1  0  0  0
 32 59  1  0  0  0
M  END
> <s_m_entry_id>
5092

> <s_m_entry_name>
dock_pv.411

> <s_m_Source_Path>
/home/csk/Desktop/cluster/DUD-E-result/hs90a

> <s_m_Source_File>
dock_pv.maegz

> <i_m_Source_File_Index>
411

> <chembl_id>
CHEMBL3342587

> <chembl_pref_name>
None

> <i_lp_mmshare_version>
53161

> <r_lp_tautomer_probability>
0.999999999898

> <s_lp_Force_Field>
OPLS_2005

> <r_lp_Energy>
23.509506

> <b_lp_Chiralities_Consistent>
1

> <s_lp_Variant>
CHEMBL3880_lig347-1

> <s_i_glide_gridfile>
glide-grid_1uyg

> <i_i_glide_lignum>
384

> <i_i_glide_rotatable_bonds>
13

> <r_i_docking_score>
-7.08951869277433

> <r_i_glide_ligand_efficiency>
-0.221547459149198

> <r_i_glide_ligand_efficiency_sa>
-0.703369338616073

> <r_i_glide_ligand_efficiency_ln>
-1.58753648829293

> <r_i_glide_gscore>
-7.08951869277433

> <r_i_glide_lipo>
-3.0550270515456

> <r_i_glide_hbond>
-0.433581430992212

> <r_i_glide_metal>
0

> <r_i_glide_rewards>
-0.834889040089818

> <r_i_glide_evdw>
-40.5578842163086

> <r_i_glide_ecoul>
-10.6515254974365

> <r_i_glide_erotb>
0.859601865284205

> <r_i_glide_esite>
0

> <r_i_glide_emodel>
-64.8866433995929

> <r_i_glide_energy>
-51.2094097137451

> <r_i_glide_einternal>
18.0149211883545

> <i_i_glide_confnum>
94

> <i_i_glide_posenum>
187

> <r_i_glide_eff_state_penalty>
0

> <s_user_duplicate_titles>
CHEMBL3880_lig347

> <i_f3d_flags>
0

> <s_m_subgroup_title>
dock_pv

> <s_m_subgroupid>
dock_pv

> <b_m_subgroup_collapsed>
1

$$$$
CHEMBL3880_lig884 
                    3D
 Schrodinger Suite 2021-1.
 36 38  0  0  1  0            999 V2000
   -0.7534   11.8749   24.0310 N   0  0  0  0  0  0
   -1.1465   10.7683   24.7110 C   0  0  0  0  0  0
    0.0076   10.1434   25.0680 N   0  0  0  0  0  0
    0.6203   11.9679   23.9953 C   0  0  0  0  0  0
    1.1073   10.8700   24.6481 C   0  0  0  0  0  0
    2.4808   10.6592   24.7838 C   0  0  0  0  0  0
    3.3570   11.6125   24.2532 C   0  0  0  0  0  0
    2.8546   12.7436   23.6004 C   0  0  0  0  0  0
    1.4748   12.9313   23.4624 C   0  0  0  0  0  0
    0.0912    9.0037   25.8804 C   0  0  0  0  0  0
   -0.2156    9.1231   27.2419 C   0  0  0  0  0  0
   -0.1183    8.0136   28.0772 C   0  0  0  0  0  0
    0.2739    6.7814   27.5569 C   0  0  0  0  0  0
    0.5789    6.6626   26.1991 C   0  0  0  0  0  0
    0.5025    7.7723   25.3404 C   0  0  0  0  0  0
   -2.2979   10.4086   24.9579 O   0  0  0  0  0  0
   -1.7023   12.8103   23.4272 C   0  0  0  0  0  0
   -1.9126   12.5704   21.9264 C   0  0  0  0  0  0
    0.8208    7.7171   23.9920 O   0  0  0  0  0  0
    1.2259    6.4778   23.4186 C   0  0  0  0  0  0
    2.8690    9.7899   25.2935 H   0  0  0  0  0  0
    4.4223   11.4729   24.3506 H   0  0  0  0  0  0
    3.5383   13.4734   23.1948 H   0  0  0  0  0  0
    1.0930   13.8067   22.9597 H   0  0  0  0  0  0
   -0.5291   10.0725   27.6528 H   0  0  0  0  0  0
   -0.3417    8.1140   29.1302 H   0  0  0  0  0  0
    0.3453    5.9191   28.2020 H   0  0  0  0  0  0
    0.8867    5.6967   25.8304 H   0  0  0  0  0  0
   -2.6617   12.7752   23.9490 H   0  0  0  0  0  0
   -1.3210   13.8181   23.5663 H   0  0  0  0  0  0
   -2.6061   13.3081   21.5212 H   0  0  0  0  0  0
   -0.9766   12.6611   21.3763 H   0  0  0  0  0  0
   -2.3396   11.5843   21.7295 H   0  0  0  0  0  0
    1.3956    6.6031   22.3498 H   0  0  0  0  0  0
    2.1590    6.1219   23.8574 H   0  0  0  0  0  0
    0.4619    5.7116   23.5382 H   0  0  0  0  0  0
  1  4  1  0  0  0
  1  2  1  0  0  0
  1 17  1  0  0  0
  2  3  1  0  0  0
  2 16  2  0  0  0
  3  5  1  0  0  0
  3 10  1  0  0  0
  4  5  2  0  0  0
  4  9  1  0  0  0
  5  6  1  0  0  0
  6  7  2  0  0  0
  6 21  1  0  0  0
  7  8  1  0  0  0
  7 22  1  0  0  0
  8  9  2  0  0  0
  8 23  1  0  0  0
  9 24  1  0  0  0
 10 11  2  0  0  0
 10 15  1  0  0  0
 11 12  1  0  0  0
 11 25  1  0  0  0
 12 13  2  0  0  0
 12 26  1  0  0  0
 13 14  1  0  0  0
 13 27  1  0  0  0
 14 15  2  0  0  0
 14 28  1  0  0  0
 15 19  1  0  0  0
 17 18  1  0  0  0
 17 29  1  0  0  0
 17 30  1  0  0  0
 18 31  1  0  0  0
 18 32  1  0  0  0
 18 33  1  0  0  0
 19 20  1  0  0  0
 20 34  1  0  0  0
 20 35  1  0  0  0
 20 36  1  0  0  0
M  END
> <s_m_entry_id>
5093

> <s_m_entry_name>
dock_pv.412

> <s_m_Source_Path>
/home/csk/Desktop/cluster/DUD-E-result/hs90a

> <s_m_Source_File>
dock_pv.maegz

> <i_m_Source_File_Index>
412

> <chembl_id>
CHEMBL4542365

> <chembl_pref_name>
None

> <i_lp_mmshare_version>
53161

> <r_lp_tautomer_probability>
1

> <s_lp_Force_Field>
OPLS_2005

> <r_lp_Energy>
56.145963

> <b_lp_Chiralities_Consistent>
1

> <s_lp_Variant>
CHEMBL3880_lig884 -1

> <s_i_glide_gridfile>
glide-grid_1uyg

> <i_i_glide_lignum>
990

> <i_i_glide_rotatable_bonds>
3

> <r_i_docking_score>
-7.07944956637358

> <r_i_glide_ligand_efficiency>
-0.353972478318679

> <r_i_glide_ligand_efficiency_sa>
-0.960829129978519

> <r_i_glide_ligand_efficiency_ln>
-1.77175273058943

> <r_i_glide_gscore>
-7.07944956637358

> <r_i_glide_lipo>
-2.89760647979975

> <r_i_glide_hbond>
0

> <r_i_glide_metal>
0

> <r_i_glide_rewards>
-2.54972848395324

> <r_i_glide_evdw>
-37.4188003540039

> <r_i_glide_ecoul>
-0.0606416799128056

> <r_i_glide_erotb>
0.247921667066521

> <r_i_glide_esite>
0

> <r_i_glide_emodel>
-52.6785910178825

> <r_i_glide_energy>
-37.4794420339167

> <r_i_glide_einternal>
0.279031276702881

> <i_i_glide_confnum>
1

> <i_i_glide_posenum>
245

> <r_i_glide_eff_state_penalty>
0

> <s_user_duplicate_titles>
CHEMBL3880_lig884 

> <i_f3d_flags>
0

> <s_m_subgroup_title>
dock_pv

> <s_m_subgroupid>
dock_pv

> <b_m_subgroup_collapsed>
1

$$$$
CHEMBL3880_lig402
                    3D
 Schrodinger Suite 2021-1.
 67 69  0  0  1  0            999 V2000
    7.6940   13.1860   24.7471 C   0  0  0  0  0  0
    6.9415   14.2741   25.1784 C   0  0  0  0  0  0
    5.5716   14.3153   24.9685 C   0  0  0  0  0  0
    4.9276   13.2632   24.2890 C   0  0  0  0  0  0
    5.7184   12.2375   23.7466 C   0  0  0  0  0  0
    7.0966   12.1668   23.9727 C   0  0  0  0  0  0
    7.8691   10.9485   23.4303 C   0  0  0  0  0  0
    7.7000   10.8077   21.9113 C   0  0  0  0  0  0
    7.4454    9.6178   24.0716 C   0  0  0  0  0  0
    9.0024   13.1444   25.1670 O   0  0  0  0  0  0
    4.8873   15.3910   25.4776 O   0  0  0  0  0  0
    3.4472   13.2046   24.0623 C   0  0  0  0  0  0
    2.7823   14.3678   24.2784 O   0  0  0  0  0  0
    1.4668   14.2235   23.8724 N   0  0  0  0  0  0
    1.3645   12.9975   23.4128 C   0  0  0  0  0  0
    2.5249   12.2362   23.6551 C   0  0  0  0  0  0
    2.7162   10.7915   23.4675 C   0  0  0  0  0  0
    0.1818   12.5479   22.7514 C   0  0  0  0  0  0
   -0.8875   12.4419   23.5469 N   0  0  0  0  0  0
    0.1648   12.3812   21.5328 O   0  0  0  0  0  0
    2.8341    9.5718   23.4199 C   0  0  0  0  0  0
    2.9835    8.0873   23.4984 C   0  0  0  0  0  0
   -2.2435   12.2265   23.0670 C   0  0  0  0  0  0
   -2.9176   13.5605   22.7079 C   0  0  0  0  0  0
    1.7095    7.3187   23.0410 C   0  0  0  0  0  0
    4.1413    7.6433   22.5691 C   0  0  0  0  0  0
    3.3542    7.6826   24.8644 N   0  0  0  0  0  0
    2.6761    7.6813   26.0333 C   0  0  0  0  0  0
    3.2703    7.3270   27.0495 O   0  0  0  0  0  0
    1.2030    8.1896   26.1150 C   0  0  0  0  0  0
    0.2016    7.0103   26.2117 C   0  0  0  0  0  0
   -0.2329    6.9733   27.6750 C   0  0  0  0  0  0
   -0.2893    8.4496   28.0675 C   0  0  0  0  0  0
    0.9404    9.0586   27.3796 C   0  0  0  0  0  0
    7.4158   15.0586   25.7505 H   0  0  0  0  0  0
    5.2561   11.4554   23.1645 H   0  0  0  0  0  0
    8.9296   11.0673   23.6427 H   0  0  0  0  0  0
    7.8233   11.7654   21.4146 H   0  0  0  0  0  0
    8.4300   10.1036   21.5075 H   0  0  0  0  0  0
    6.7126   10.4368   21.6393 H   0  0  0  0  0  0
    7.6641    9.5665   25.1294 H   0  0  0  0  0  0
    6.3776    9.4530   23.9599 H   0  0  0  0  0  0
    7.9622    8.7697   23.6183 H   0  0  0  0  0  0
    9.4297   12.3340   24.8816 H   0  0  0  0  0  0
    3.9536   15.3388   25.2544 H   0  0  0  0  0  0
   -0.7734   12.5185   24.5448 H   0  0  0  0  0  0
   -2.2888   11.5643   22.2055 H   0  0  0  0  0  0
   -2.7374   11.7072   23.8779 H   0  0  0  0  0  0
   -3.9340   13.4468   22.3553 H   0  0  0  0  0  0
   -2.9843   14.2207   23.5684 H   0  0  0  0  0  0
   -2.3653   14.0633   21.9134 H   0  0  0  0  0  0
    1.6909    7.1489   21.9709 H   0  0  0  0  0  0
    1.6709    6.3176   23.4782 H   0  0  0  0  0  0
    0.7719    7.8133   23.3019 H   0  0  0  0  0  0
    3.9518    7.9059   21.5244 H   0  0  0  0  0  0
    5.1004    8.0846   22.8412 H   0  0  0  0  0  0
    4.2754    6.5590   22.6067 H   0  0  0  0  0  0
    4.3068    7.3675   24.9510 H   0  0  0  0  0  0
    0.9809    8.8209   25.2625 H   0  0  0  0  0  0
    0.6015    6.0462   25.8844 H   0  0  0  0  0  0
   -0.6678    7.2023   25.5777 H   0  0  0  0  0  0
    0.5229    6.4502   28.2660 H   0  0  0  0  0  0
   -1.1833    6.4614   27.8169 H   0  0  0  0  0  0
   -0.2903    8.6063   29.1474 H   0  0  0  0  0  0
   -1.2003    8.9078   27.6778 H   0  0  0  0  0  0
    0.7416   10.0961   27.1125 H   0  0  0  0  0  0
    1.7751    9.0659   28.0894 H   0  0  0  0  0  0
  1  2  2  0  0  0
  1  6  1  0  0  0
  1 10  1  0  0  0
  2  3  1  0  0  0
  2 35  1  0  0  0
  3  4  2  0  0  0
  3 11  1  0  0  0
  4  5  1  0  0  0
  4 12  1  0  0  0
  5  6  2  0  0  0
  5 36  1  0  0  0
  6  7  1  0  0  0
  7  8  1  0  0  0
  7  9  1  0  0  0
  7 37  1  0  0  0
  8 38  1  0  0  0
  8 39  1  0  0  0
  8 40  1  0  0  0
  9 41  1  0  0  0
  9 42  1  0  0  0
  9 43  1  0  0  0
 10 44  1  0  0  0
 11 45  1  0  0  0
 12 13  1  0  0  0
 12 16  2  0  0  0
 13 14  1  0  0  0
 14 15  2  0  0  0
 15 16  1  0  0  0
 15 18  1  0  0  0
 16 17  1  0  0  0
 17 21  3  0  0  0
 18 19  1  0  0  0
 18 20  2  0  0  0
 19 23  1  0  0  0
 19 46  1  0  0  0
 21 22  1  0  0  0
 22 25  1  0  0  0
 22 26  1  0  0  0
 22 27  1  0  0  0
 23 24  1  0  0  0
 23 47  1  0  0  0
 23 48  1  0  0  0
 24 49  1  0  0  0
 24 50  1  0  0  0
 24 51  1  0  0  0
 25 52  1  0  0  0
 25 53  1  0  0  0
 25 54  1  0  0  0
 26 55  1  0  0  0
 26 56  1  0  0  0
 26 57  1  0  0  0
 27 28  1  0  0  0
 27 58  1  0  0  0
 28 29  2  0  0  0
 28 30  1  0  0  0
 30 31  1  0  0  0
 30 34  1  0  0  0
 30 59  1  0  0  0
 31 32  1  0  0  0
 31 60  1  0  0  0
 31 61  1  0  0  0
 32 33  1  0  0  0
 32 62  1  0  0  0
 32 63  1  0  0  0
 33 34  1  0  0  0
 33 64  1  0  0  0
 33 65  1  0  0  0
 34 66  1  0  0  0
 34 67  1  0  0  0
M  END
> <s_m_entry_id>
5094

> <s_m_entry_name>
dock_pv.413

> <s_m_Source_Path>
/home/csk/Desktop/cluster/DUD-E-result/hs90a

> <s_m_Source_File>
dock_pv.maegz

> <i_m_Source_File_Index>
413

> <chembl_id>
CHEMBL3600387

> <chembl_pref_name>
None

> <i_lp_mmshare_version>
53161

> <r_lp_tautomer_probability>
0.999999999898

> <s_lp_Force_Field>
OPLS_2005

> <r_lp_Energy>
32.729631

> <b_lp_Chiralities_Consistent>
1

> <s_lp_Variant>
CHEMBL3880_lig402-1

> <s_i_glide_gridfile>
glide-grid_1uyg

> <i_i_glide_lignum>
444

> <i_i_glide_rotatable_bonds>
12

> <r_i_docking_score>
-7.07926011229269

> <r_i_glide_ligand_efficiency>
-0.208213532714491

> <r_i_glide_ligand_efficiency_sa>
-0.67453101697466

> <r_i_glide_ligand_efficiency_ln>
-1.56400712532571

> <r_i_glide_gscore>
-7.07926011229269

> <r_i_glide_lipo>
-4.50439176884865

> <r_i_glide_hbond>
-0.15424934827975

> <r_i_glide_metal>
0

> <r_i_glide_rewards>
0.0858616480089698

> <r_i_glide_evdw>
-46.982837677002

> <r_i_glide_ecoul>
-5.35744667053223

> <r_i_glide_erotb>
0.646278241256672

> <r_i_glide_esite>
0

> <r_i_glide_emodel>
-53.3139848956271

> <r_i_glide_energy>
-52.3402843475342

> <r_i_glide_einternal>
9.17342662811279

> <i_i_glide_confnum>
170

> <i_i_glide_posenum>
70

> <r_i_glide_eff_state_penalty>
0

> <s_user_duplicate_titles>
CHEMBL3880_lig402

> <i_f3d_flags>
0

> <s_m_subgroup_title>
dock_pv

> <s_m_subgroupid>
dock_pv

> <b_m_subgroup_collapsed>
1

$$$$
CHEMBL3880_lig986
                    3D
 Schrodinger Suite 2021-1.
 48 51  0  0  1  0            999 V2000
    0.6796   13.5947   23.9668 C   0  0  0  0  0  0
    0.3549   12.3775   23.0873 C   0  0  0  0  0  0
    0.1591   12.7729   21.6088 C   0  0  0  0  0  0
    5.7606   10.4142   23.6644 C   0  0  0  0  0  0
    4.4805   10.5153   24.1981 C   0  0  0  0  0  0
    5.4145    8.0360   23.4174 C   0  0  0  0  0  0
    6.2455    9.1561   23.2686 C   0  0  0  0  0  0
    3.6636    9.3902   24.3577 C   0  0  0  0  0  0
    4.1480    8.1107   24.0031 C   0  0  0  0  0  0
    3.3879    6.9415   24.1935 N   0  0  0  0  0  0
    2.7303    6.5782   25.4544 C   0  0  0  0  0  0
    2.5474    7.6957   26.4972 C   0  0  0  0  0  0
    1.8000    8.8809   25.9254 C   0  0  0  0  0  0
    2.3627    9.5855   24.8797 N   0  0  0  0  0  0
    0.5684    9.4465   26.2591 C   0  0  0  0  0  0
    0.2777   10.3459   25.2149 C   0  0  0  0  0  0
    1.4131   10.4746   24.4186 C   0  0  0  0  0  0
    1.5777   11.4109   23.2146 C   0  0  0  0  0  0
   -0.9901   11.7372   23.5600 C   0  0  0  0  0  0
   -0.9537   11.0776   24.9465 C   0  0  0  0  0  0
    7.6611    8.9717   22.7906 C   0  0  0  0  0  0
    8.1715    9.7135   21.9596 O   0  0  0  0  0  0
    8.3367    7.9663   23.3477 N   0  0  0  0  0  0
   -1.8783   11.1690   25.7497 O   0  0  0  0  0  0
   -0.3334    9.0182   27.4025 C   0  0  0  0  0  0
    6.7000   11.8695   23.5652 Cl  0  0  0  0  0  0
    0.8598   13.2842   24.9932 H   0  0  0  0  0  0
    1.5676   14.1258   23.6219 H   0  0  0  0  0  0
   -0.1385   14.3146   23.9668 H   0  0  0  0  0  0
    0.3002   11.9691   20.9005 H   0  0  0  0  0  0
   -0.8409   13.1694   21.4275 H   0  0  0  0  0  0
    0.8604   13.5543   21.3238 H   0  0  0  0  0  0
    4.1413   11.4869   24.5274 H   0  0  0  0  0  0
    5.7793    7.0628   23.1157 H   0  0  0  0  0  0
    3.7660    6.1314   23.7249 H   0  0  0  0  0  0
    3.2953    5.7600   25.9027 H   0  0  0  0  0  0
    1.7518    6.1647   25.2008 H   0  0  0  0  0  0
    3.5272    7.9909   26.8744 H   0  0  0  0  0  0
    2.0246    7.2872   27.3624 H   0  0  0  0  0  0
    1.6610   10.7691   22.3458 H   0  0  0  0  0  0
    2.5007   11.9879   23.2229 H   0  0  0  0  0  0
   -1.2977   10.9503   22.8725 H   0  0  0  0  0  0
   -1.8037   12.4628   23.5562 H   0  0  0  0  0  0
    9.2897    7.7983   23.0664 H   0  0  0  0  0  0
    7.9025    7.3869   24.0484 H   0  0  0  0  0  0
   -1.3888    9.1689   27.1922 H   0  0  0  0  0  0
   -0.2303    7.9571   27.6310 H   0  0  0  0  0  0
   -0.1069    9.5674   28.3165 H   0  0  0  0  0  0
  1  2  1  0  0  0
  1 27  1  0  0  0
  1 28  1  0  0  0
  1 29  1  0  0  0
  2  3  1  0  0  0
  2 18  1  0  0  0
  2 19  1  0  0  0
  3 30  1  0  0  0
  3 31  1  0  0  0
  3 32  1  0  0  0
  4  5  2  0  0  0
  4  7  1  0  0  0
  4 26  1  0  0  0
  5  8  1  0  0  0
  5 33  1  0  0  0
  6  9  1  0  0  0
  6  7  2  0  0  0
  6 34  1  0  0  0
  7 21  1  0  0  0
  8  9  2  0  0  0
  8 14  1  0  0  0
  9 10  1  0  0  0
 10 11  1  0  0  0
 10 35  1  0  0  0
 11 12  1  0  0  0
 11 36  1  0  0  0
 11 37  1  0  0  0
 12 13  1  0  0  0
 12 38  1  0  0  0
 12 39  1  0  0  0
 13 14  1  0  0  0
 13 15  2  0  0  0
 14 17  1  0  0  0
 15 16  1  0  0  0
 15 25  1  0  0  0
 16 17  2  0  0  0
 16 20  1  0  0  0
 17 18  1  0  0  0
 18 40  1  0  0  0
 18 41  1  0  0  0
 19 20  1  0  0  0
 19 42  1  0  0  0
 19 43  1  0  0  0
 20 24  2  0  0  0
 21 22  2  0  0  0
 21 23  1  0  0  0
 23 44  1  0  0  0
 23 45  1  0  0  0
 25 46  1  0  0  0
 25 47  1  0  0  0
 25 48  1  0  0  0
M  END
> <s_m_entry_id>
5095

> <s_m_entry_name>
dock_pv.414

> <s_m_Source_Path>
/home/csk/Desktop/cluster/DUD-E-result/hs90a

> <s_m_Source_File>
dock_pv.maegz

> <i_m_Source_File_Index>
414

> <chembl_id>
CHEMBL3401147

> <chembl_pref_name>
None

> <i_lp_mmshare_version>
53161

> <r_lp_tautomer_probability>
0.99995

> <s_lp_Force_Field>
OPLS_2005

> <r_lp_Energy>
33.285375

> <b_lp_Chiralities_Consistent>
1

> <s_lp_Variant>
CHEMBL3880_lig986-1

> <s_i_glide_gridfile>
glide-grid_1uyg

> <i_i_glide_lignum>
1095

> <i_i_glide_rotatable_bonds>
1

> <r_i_docking_score>
-7.07781058432046

> <r_i_glide_ligand_efficiency>
-0.272223484012325

> <r_i_glide_ligand_efficiency_sa>
-0.806461000238828

> <r_i_glide_ligand_efficiency_ln>
-1.66220059153688

> <r_i_glide_gscore>
-7.07781058432046

> <r_i_glide_lipo>
-3.11832175759793

> <r_i_glide_hbond>
-0.00597811118839908

> <r_i_glide_metal>
0

> <r_i_glide_rewards>
-1.75196052687351

> <r_i_glide_evdw>
-41.3343925476074

> <r_i_glide_ecoul>
-0.898870408535004

> <r_i_glide_erotb>
0

> <r_i_glide_esite>
0

> <r_i_glide_emodel>
-54.6514499941391

> <r_i_glide_energy>
-42.2332629561424

> <r_i_glide_einternal>
0.0386660657823086

> <i_i_glide_confnum>
1

> <i_i_glide_posenum>
101

> <r_i_glide_eff_state_penalty>
0

> <s_user_duplicate_titles>
CHEMBL3880_lig986

> <i_f3d_flags>
0

> <s_m_subgroup_title>
dock_pv

> <s_m_subgroupid>
dock_pv

> <b_m_subgroup_collapsed>
1

$$$$
CHEMBL3880_lig832
                    3D
 Schrodinger Suite 2021-1.
 38 39  0  0  1  0            999 V2000
    1.2433    8.7677   27.1714 C   0  0  0  0  0  0
    0.2666    8.7689   28.1696 C   0  0  0  0  0  0
   -0.9205    9.4653   27.9666 C   0  0  0  0  0  0
   -1.1373   10.1727   26.7859 C   0  0  0  0  0  0
   -0.1346   10.2483   25.7951 C   0  0  0  0  0  0
    1.0359    9.4963   26.0005 C   0  0  0  0  0  0
   -2.3629   10.7688   26.6416 O   0  0  0  0  0  0
    0.4614    8.1202   29.3612 O   0  0  0  0  0  0
    2.7268    7.8995   27.3705 Cl  0  0  0  0  0  0
   -0.3427   11.0684   24.5265 C   0  0  0  0  0  0
    0.7115   11.6657   23.8931 N   0  0  0  0  0  0
   -1.4927   11.1843   24.0932 O   0  0  0  0  0  0
    0.5471   12.2632   22.5592 C   0  0  0  0  0  0
    2.0155   11.9882   24.5016 C   0  0  0  0  0  0
    3.2569   11.3596   23.8597 C   0  0  0  0  0  0
    3.2048   10.1478   23.1619 C   0  0  0  0  0  0
    4.3657    9.5986   22.6223 C   0  0  0  0  0  0
    5.5904   10.2499   22.7672 C   0  0  0  0  0  0
    5.6380   11.4755   23.4482 C   0  0  0  0  0  0
    4.4741   12.0312   23.9715 C   0  0  0  0  0  0
    6.6903    9.6326   22.2056 O   0  0  0  0  0  0
    7.9830   10.1953   22.4095 C   0  0  0  0  0  0
   -1.6890    9.4500   28.7254 H   0  0  0  0  0  0
    1.8103    9.4545   25.2555 H   0  0  0  0  0  0
   -2.5044   11.1017   25.7452 H   0  0  0  0  0  0
   -0.1224    8.4597   30.0508 H   0  0  0  0  0  0
   -0.3803   11.9708   22.0649 H   0  0  0  0  0  0
    0.5572   13.3509   22.6327 H   0  0  0  0  0  0
    1.3692   11.9670   21.9103 H   0  0  0  0  0  0
    2.1292   13.0717   24.4486 H   0  0  0  0  0  0
    2.0373   11.7645   25.5663 H   0  0  0  0  0  0
    2.2726    9.6155   23.0356 H   0  0  0  0  0  0
    4.3166    8.6600   22.0906 H   0  0  0  0  0  0
    6.5644   12.0154   23.5755 H   0  0  0  0  0  0
    4.5308   12.9749   24.4962 H   0  0  0  0  0  0
    8.7302    9.5636   21.9277 H   0  0  0  0  0  0
    8.0603   11.1918   21.9707 H   0  0  0  0  0  0
    8.2347   10.2480   23.4713 H   0  0  0  0  0  0
  1  2  2  0  0  0
  1  6  1  0  0  0
  1  9  1  0  0  0
  2  3  1  0  0  0
  2  8  1  0  0  0
  3  4  2  0  0  0
  3 23  1  0  0  0
  4  5  1  0  0  0
  4  7  1  0  0  0
  5  6  2  0  0  0
  5 10  1  0  0  0
  6 24  1  0  0  0
  7 25  1  0  0  0
  8 26  1  0  0  0
 10 11  1  0  0  0
 10 12  2  0  0  0
 11 13  1  0  0  0
 11 14  1  0  0  0
 13 27  1  0  0  0
 13 28  1  0  0  0
 13 29  1  0  0  0
 14 15  1  0  0  0
 14 30  1  0  0  0
 14 31  1  0  0  0
 15 16  2  0  0  0
 15 20  1  0  0  0
 16 17  1  0  0  0
 16 32  1  0  0  0
 17 18  2  0  0  0
 17 33  1  0  0  0
 18 19  1  0  0  0
 18 21  1  0  0  0
 19 20  2  0  0  0
 19 34  1  0  0  0
 20 35  1  0  0  0
 21 22  1  0  0  0
 22 36  1  0  0  0
 22 37  1  0  0  0
 22 38  1  0  0  0
M  END
> <s_m_entry_id>
5096

> <s_m_entry_name>
dock_pv.415

> <s_m_Source_Path>
/home/csk/Desktop/cluster/DUD-E-result/hs90a

> <s_m_Source_File>
dock_pv.maegz

> <i_m_Source_File_Index>
415

> <chembl_id>
CHEMBL4292004

> <chembl_pref_name>
None

> <i_lp_mmshare_version>
53161

> <r_lp_tautomer_probability>
0.999999999898

> <s_lp_Force_Field>
OPLS_2005

> <r_lp_Energy>
26.78821

> <b_lp_Chiralities_Consistent>
1

> <s_lp_Variant>
CHEMBL3880_lig832-1

> <s_i_glide_gridfile>
glide-grid_1uyg

> <i_i_glide_lignum>
933

> <i_i_glide_rotatable_bonds>
7

> <r_i_docking_score>
-7.07686560747632

> <r_i_glide_ligand_efficiency>
-0.321675709430742

> <r_i_glide_ligand_efficiency_sa>
-0.901347988612712

> <r_i_glide_ligand_efficiency_ln>
-1.72984408941221

> <r_i_glide_gscore>
-7.07686560747632

> <r_i_glide_lipo>
-3.49659731382841

> <r_i_glide_hbond>
-0.32

> <r_i_glide_metal>
0

> <r_i_glide_rewards>
-1.61820903309648

> <r_i_glide_evdw>
-38.0779685974121

> <r_i_glide_ecoul>
-3.06887793540955

> <r_i_glide_erotb>
0.7221708596306

> <r_i_glide_esite>
0

> <r_i_glide_emodel>
-57.0986789221053

> <r_i_glide_energy>
-41.1468465328217

> <r_i_glide_einternal>
1.49524652957916

> <i_i_glide_confnum>
18

> <i_i_glide_posenum>
241

> <r_i_glide_eff_state_penalty>
0

> <s_user_duplicate_titles>
CHEMBL3880_lig832

> <i_f3d_flags>
0

> <s_m_subgroup_title>
dock_pv

> <s_m_subgroupid>
dock_pv

> <b_m_subgroup_collapsed>
1

$$$$
CHEMBL3880_lig138
                    3D
 Schrodinger Suite 2021-1.
 52 55  0  0  1  0            999 V2000
    3.4035   10.8648   25.1799 C   0  0  0  0  0  0
    2.9934    9.8790   24.1710 N   0  0  0  0  0  0
    1.5280    9.7350   24.0389 C   0  0  2  0  0  0
    0.8574   11.1483   23.8098 C   0  0  0  0  0  0
    1.7032   12.3745   24.1065 C   0  0  0  0  0  0
    1.2600   13.6380   23.7189 C   0  0  0  0  0  0
    2.0292   14.7660   23.9670 C   0  0  0  0  0  0
    3.2615   14.6461   24.6022 C   0  0  0  0  0  0
    3.7111   13.3903   24.9900 C   0  0  0  0  0  0
    2.9412   12.2462   24.7539 C   0  0  0  0  0  0
    0.9276    8.9727   25.2508 C   0  0  0  0  0  0
    0.2465    9.5545   26.0979 O   0  0  0  0  0  0
    1.1506    7.6465   25.2850 N   0  0  0  0  0  0
    0.6375    6.7289   26.3030 C   0  0  0  0  0  0
    3.8534    9.2108   23.3464 C   0  0  0  0  0  0
    5.3173    9.5947   23.3585 C   0  0  0  0  0  0
    6.3371    8.6329   23.4811 C   0  0  0  0  0  0
    7.6626    9.0427   23.6212 C   0  0  0  0  0  0
    7.9838   10.3981   23.6455 C   0  0  0  0  0  0
    6.9883   11.3573   23.4587 C   0  0  0  0  0  0
    5.6767   10.9470   23.2664 C   0  0  0  0  0  0
    3.4811    8.3184   22.5860 O   0  0  0  0  0  0
    9.2593   10.7690   23.9668 O   0  0  0  0  0  0
    6.0764    7.2892   23.5507 O   0  0  0  0  0  0
    7.3143   13.0510   23.5723 Cl  0  0  0  0  0  0
    1.2971    6.8793   27.6700 C   0  0  0  0  0  0
    0.6685    7.6228   28.6735 C   0  0  0  0  0  0
    1.2563    7.7309   29.9308 C   0  0  0  0  0  0
    2.4581    7.0792   30.1882 C   0  0  0  0  0  0
    3.0861    6.3280   29.1976 C   0  0  0  0  0  0
    2.5018    6.2227   27.9379 C   0  0  0  0  0  0
    2.9039   10.6207   26.1178 H   0  0  0  0  0  0
    4.4613   10.8270   25.4187 H   0  0  0  0  0  0
    1.2635    9.0475   23.2361 H   0  0  0  0  0  0
    0.6144   11.2142   22.7545 H   0  0  0  0  0  0
   -0.1102   11.2480   24.3067 H   0  0  0  0  0  0
    0.3081   13.7452   23.2208 H   0  0  0  0  0  0
    1.6612   15.7283   23.6543 H   0  0  0  0  0  0
    3.8659   15.5213   24.7913 H   0  0  0  0  0  0
    4.6650   13.3149   25.4851 H   0  0  0  0  0  0
    1.7441    7.2467   24.5721 H   0  0  0  0  0  0
    0.7968    5.7094   25.9486 H   0  0  0  0  0  0
   -0.4471    6.8338   26.3923 H   0  0  0  0  0  0
    8.4440    8.3130   23.7766 H   0  0  0  0  0  0
    4.9245   11.7072   23.1153 H   0  0  0  0  0  0
    9.5043   11.6432   23.6310 H   0  0  0  0  0  0
    6.8659    6.7590   23.4230 H   0  0  0  0  0  0
   -0.2633    8.1329   28.4762 H   0  0  0  0  0  0
    0.7850    8.3244   30.7011 H   0  0  0  0  0  0
    2.9150    7.1730   31.1637 H   0  0  0  0  0  0
    4.0276    5.8400   29.4050 H   0  0  0  0  0  0
    2.9912    5.6418   27.1693 H   0  0  0  0  0  0
  1  2  1  0  0  0
  1 10  1  0  0  0
  1 32  1  0  0  0
  1 33  1  0  0  0
  2  3  1  0  0  0
  2 15  1  0  0  0
  3  4  1  0  0  0
  3 11  1  0  0  0
  3 34  1  0  0  0
  4  5  1  0  0  0
  4 35  1  0  0  0
  4 36  1  0  0  0
  5  6  1  0  0  0
  5 10  2  0  0  0
  6  7  2  0  0  0
  6 37  1  0  0  0
  7  8  1  0  0  0
  7 38  1  0  0  0
  8  9  2  0  0  0
  8 39  1  0  0  0
  9 10  1  0  0  0
  9 40  1  0  0  0
 11 12  2  0  0  0
 11 13  1  0  0  0
 13 14  1  0  0  0
 13 41  1  0  0  0
 14 26  1  0  0  0
 14 42  1  0  0  0
 14 43  1  0  0  0
 15 16  1  0  0  0
 15 22  2  0  0  0
 16 17  1  0  0  0
 16 21  2  0  0  0
 17 18  2  0  0  0
 17 24  1  0  0  0
 18 19  1  0  0  0
 18 44  1  0  0  0
 19 20  2  0  0  0
 19 23  1  0  0  0
 20 21  1  0  0  0
 20 25  1  0  0  0
 21 45  1  0  0  0
 23 46  1  0  0  0
 24 47  1  0  0  0
 26 27  2  0  0  0
 26 31  1  0  0  0
 27 28  1  0  0  0
 27 48  1  0  0  0
 28 29  2  0  0  0
 28 49  1  0  0  0
 29 30  1  0  0  0
 29 50  1  0  0  0
 30 31  2  0  0  0
 30 51  1  0  0  0
 31 52  1  0  0  0
M  END
> <s_m_entry_id>
5097

> <s_m_entry_name>
dock_pv.416

> <s_m_Source_Path>
/home/csk/Desktop/cluster/DUD-E-result/hs90a

> <s_m_Source_File>
dock_pv.maegz

> <i_m_Source_File_Index>
416

> <chembl_id>
CHEMBL3907292

> <chembl_pref_name>
None

> <i_lp_mmshare_version>
53161

> <r_lp_tautomer_probability>
0.999999999898

> <s_lp_Force_Field>
OPLS_2005

> <r_lp_Energy>
32.138732

> <b_lp_Chiralities_Consistent>
1

> <s_lp_Variant>
CHEMBL3880_lig138-1

> <s_i_glide_gridfile>
glide-grid_1uyg

> <i_i_glide_lignum>
155

> <i_i_glide_rotatable_bonds>
8

> <r_i_docking_score>
-7.05505497917958

> <r_i_glide_ligand_efficiency>
-0.227582418683212

> <r_i_glide_ligand_efficiency_sa>
-0.714923006057535

> <r_i_glide_ligand_efficiency_ln>
-1.59113110927409

> <r_i_glide_gscore>
-7.05505497917958

> <r_i_glide_lipo>
-3.55266084343944

> <r_i_glide_hbond>
-0.32

> <r_i_glide_metal>
0

> <r_i_glide_rewards>
-1.56277278183888

> <r_i_glide_evdw>
-31.4089012145996

> <r_i_glide_ecoul>
-3.80955028533936

> <r_i_glide_erotb>
0.522256249629618

> <r_i_glide_esite>
0

> <r_i_glide_emodel>
-40.7841151200735

> <r_i_glide_energy>
-35.218451499939

> <r_i_glide_einternal>
5.74474430084229

> <i_i_glide_confnum>
85

> <i_i_glide_posenum>
340

> <r_i_glide_eff_state_penalty>
0

> <s_user_duplicate_titles>
CHEMBL3880_lig138

> <i_f3d_flags>
0

> <s_m_subgroup_title>
dock_pv

> <s_m_subgroupid>
dock_pv

> <b_m_subgroup_collapsed>
1

$$$$
CHEMBL3880_lig287
                    3D
 Schrodinger Suite 2021-1.
 66 69  0  0  1  0            999 V2000
    4.9914    8.3013   22.0389 C   0  0  0  0  0  0
    4.0613    7.2821   21.8713 C   0  0  0  0  0  0
    3.2510    6.8822   22.9291 C   0  0  0  0  0  0
    3.3629    7.5021   24.1862 C   0  0  0  0  0  0
    4.3555    8.4793   24.3596 C   0  0  0  0  0  0
    5.1862    8.8688   23.3016 C   0  0  0  0  0  0
    2.3335    5.8945   22.6890 O   0  0  0  0  0  0
    2.3881    7.1429   25.3236 C   0  0  0  0  0  0
    0.9839    7.7262   25.0568 C   0  0  0  0  0  0
    2.8654    7.5259   26.7409 C   0  0  0  0  0  0
    5.6611    8.7690   20.9431 O   0  0  0  0  0  0
    6.1223    9.9158   23.4819 N   0  0  0  0  0  0
    5.9123   11.2495   23.8176 C   0  0  0  0  0  0
    7.2275   11.7761   23.9136 C   0  0  0  0  0  0
    8.0882   10.8296   23.5668 N   0  0  0  0  0  0
    7.4183    9.6595   23.3051 N   0  0  0  0  0  0
    7.6646   13.0664   24.4273 C   0  0  0  0  0  0
    6.9198   14.1286   24.1004 N   0  0  0  0  0  0
    8.6476   13.1677   25.1670 O   0  0  0  0  0  0
    7.0419   15.4365   24.7459 C   0  0  0  0  0  0
    6.2183   15.5051   26.0442 C   0  0  0  0  0  0
    4.5446   11.8669   23.9620 C   0  0  0  0  0  0
    3.5247   11.3576   23.1648 C   0  0  0  0  0  0
    2.3298   12.0138   23.0190 C   0  0  0  0  0  0
    2.1001   13.1754   23.7402 C   0  0  0  0  0  0
    3.0650   13.6780   24.5982 C   0  0  0  0  0  0
    4.2648   13.0052   24.7209 C   0  0  0  0  0  0
    0.7914   13.8975   23.5913 C   0  0  0  0  0  0
   -0.3847   13.0354   23.7461 N   0  0  0  0  0  0
   -0.2452   11.9696   24.7602 C   0  0  0  0  0  0
   -1.5844   11.2979   25.0696 C   0  0  0  0  0  0
   -2.1318   10.7691   23.8387 N   0  0  0  0  0  0
   -2.3273   11.8256   22.8358 C   0  0  0  0  0  0
   -1.0241   12.5852   22.5092 C   0  0  0  0  0  0
    3.9180    6.8337   20.8977 H   0  0  0  0  0  0
    4.4577    8.9837   25.3040 H   0  0  0  0  0  0
    1.6729    5.7985   23.3761 H   0  0  0  0  0  0
    2.3050    6.0544   25.3254 H   0  0  0  0  0  0
    0.5864    7.4267   24.0865 H   0  0  0  0  0  0
    0.9984    8.8172   25.0754 H   0  0  0  0  0  0
    0.2675    7.3961   25.8100 H   0  0  0  0  0  0
    3.8736    7.1581   26.9371 H   0  0  0  0  0  0
    2.8607    8.6065   26.8921 H   0  0  0  0  0  0
    2.2125    7.0945   27.5020 H   0  0  0  0  0  0
    6.2665    8.0727   20.6455 H   0  0  0  0  0  0
    6.2039   14.0243   23.3936 H   0  0  0  0  0  0
    8.0854   15.6878   24.9458 H   0  0  0  0  0  0
    6.6818   16.1917   24.0476 H   0  0  0  0  0  0
    6.4609   16.3693   26.6415 H   0  0  0  0  0  0
    5.1508   15.5743   25.8353 H   0  0  0  0  0  0
    6.3985   14.6426   26.6853 H   0  0  0  0  0  0
    3.6555   10.5272   22.4972 H   0  0  0  0  0  0
    1.6014   11.6132   22.3360 H   0  0  0  0  0  0
    2.8907   14.5774   25.1695 H   0  0  0  0  0  0
    4.9755   13.4110   25.4067 H   0  0  0  0  0  0
    0.7241   14.6952   24.3337 H   0  0  0  0  0  0
    0.8609   14.3693   22.6158 H   0  0  0  0  0  0
    0.4322   11.1882   24.4188 H   0  0  0  0  0  0
    0.1903   12.3686   25.6700 H   0  0  0  0  0  0
   -2.2998   11.9685   25.5322 H   0  0  0  0  0  0
   -1.4511   10.4757   25.7727 H   0  0  0  0  0  0
   -3.0273   10.3446   24.0393 H   0  0  0  0  0  0
   -3.0799   12.5408   23.1671 H   0  0  0  0  0  0
   -2.7383   11.3788   21.9305 H   0  0  0  0  0  0
   -1.2739   13.4650   21.9096 H   0  0  0  0  0  0
   -0.3692   11.9661   21.9035 H   0  0  0  0  0  0
  1  2  2  0  0  0
  1  6  1  0  0  0
  1 11  1  0  0  0
  2  3  1  0  0  0
  2 35  1  0  0  0
  3  4  2  0  0  0
  3  7  1  0  0  0
  4  5  1  0  0  0
  4  8  1  0  0  0
  5  6  2  0  0  0
  5 36  1  0  0  0
  6 12  1  0  0  0
  7 37  1  0  0  0
  8  9  1  0  0  0
  8 10  1  0  0  0
  8 38  1  0  0  0
  9 39  1  0  0  0
  9 40  1  0  0  0
  9 41  1  0  0  0
 10 42  1  0  0  0
 10 43  1  0  0  0
 10 44  1  0  0  0
 11 45  1  0  0  0
 12 13  1  0  0  0
 12 16  1  0  0  0
 13 14  2  0  0  0
 13 22  1  0  0  0
 14 15  1  0  0  0
 14 17  1  0  0  0
 15 16  2  0  0  0
 17 18  1  0  0  0
 17 19  2  0  0  0
 18 20  1  0  0  0
 18 46  1  0  0  0
 20 21  1  0  0  0
 20 47  1  0  0  0
 20 48  1  0  0  0
 21 49  1  0  0  0
 21 50  1  0  0  0
 21 51  1  0  0  0
 22 23  2  0  0  0
 22 27  1  0  0  0
 23 24  1  0  0  0
 23 52  1  0  0  0
 24 25  2  0  0  0
 24 53  1  0  0  0
 25 26  1  0  0  0
 25 28  1  0  0  0
 26 27  2  0  0  0
 26 54  1  0  0  0
 27 55  1  0  0  0
 28 29  1  0  0  0
 28 56  1  0  0  0
 28 57  1  0  0  0
 29 30  1  0  0  0
 29 34  1  0  0  0
 30 31  1  0  0  0
 30 58  1  0  0  0
 30 59  1  0  0  0
 31 32  1  0  0  0
 31 60  1  0  0  0
 31 61  1  0  0  0
 32 33  1  0  0  0
 32 62  1  0  0  0
 33 34  1  0  0  0
 33 63  1  0  0  0
 33 64  1  0  0  0
 34 65  1  0  0  0
 34 66  1  0  0  0
M  END
> <s_m_entry_id>
5098

> <s_m_entry_name>
dock_pv.417

> <s_m_Source_Path>
/home/csk/Desktop/cluster/DUD-E-result/hs90a

> <s_m_Source_File>
dock_pv.maegz

> <i_m_Source_File_Index>
417

> <chembl_id>
CHEMBL3234774

> <chembl_pref_name>
None

> <i_lp_mmshare_version>
53161

> <r_lp_tautomer_probability>
1

> <s_lp_Force_Field>
OPLS_2005

> <r_lp_Energy>
45.609548

> <b_lp_Chiralities_Consistent>
1

> <s_lp_Variant>
CHEMBL3880_lig287-1

> <s_i_glide_gridfile>
glide-grid_1uyg

> <i_i_glide_lignum>
324

> <i_i_glide_rotatable_bonds>
10

> <r_i_docking_score>
-7.05319467959729

> <r_i_glide_ligand_efficiency>
-0.207446902341097

> <r_i_glide_ligand_efficiency_sa>
-0.672047432172714

> <r_i_glide_ligand_efficiency_ln>
-1.55824854013267

> <r_i_glide_gscore>
-7.05319467959729

> <r_i_glide_lipo>
-3.72313907839679

> <r_i_glide_hbond>
-0.32

> <r_i_glide_metal>
0

> <r_i_glide_rewards>
-1.02456047849151

> <r_i_glide_evdw>
-33.3546829223633

> <r_i_glide_ecoul>
-5.85498571395874

> <r_i_glide_erotb>
0.560486880502992

> <r_i_glide_esite>
0

> <r_i_glide_emodel>
-38.0528744734741

> <r_i_glide_energy>
-39.209668636322

> <r_i_glide_einternal>
23.0393657684326

> <i_i_glide_confnum>
144

> <i_i_glide_posenum>
281

> <r_i_glide_eff_state_penalty>
0

> <s_user_duplicate_titles>
CHEMBL3880_lig287

> <i_f3d_flags>
0

> <s_m_subgroup_title>
dock_pv

> <s_m_subgroupid>
dock_pv

> <b_m_subgroup_collapsed>
1

$$$$
CHEMBL3880_lig8
                    3D
 Schrodinger Suite 2021-1.
 35 37  0  0  1  0            999 V2000
    2.4049    9.0341   25.3272 S   0  0  0  0  0  0
    2.3527    7.9944   24.2954 O   0  0  0  0  0  0
    3.6608    9.7470   25.5599 O   0  0  0  0  0  0
   -0.9022   10.8304   26.2740 O   0  0  0  0  0  0
    0.2759   13.1713   23.8636 O   0  0  0  0  0  0
    1.0631   10.1505   25.1533 N   0  0  0  0  0  0
    1.7484    8.4511   26.8699 C   0  0  0  0  0  0
    0.5604    9.1011   27.1894 C   0  0  0  0  0  0
    0.1075   10.1296   26.1992 C   0  0  0  0  0  0
    0.8822   10.8797   23.8711 C   0  0  0  0  0  0
    2.3420    7.5036   27.7004 C   0  0  0  0  0  0
   -0.0758    8.7681   28.3852 C   0  0  0  0  0  0
    1.2157   12.3783   23.8953 C   0  0  0  0  0  0
    1.7122    7.2115   28.9084 C   0  0  0  0  0  0
    0.5124    7.8389   29.2484 C   0  0  0  0  0  0
    2.6429   12.8198   23.9995 C   0  0  0  0  0  0
    2.9087   14.1422   24.3705 C   0  0  0  0  0  0
    3.7208   11.9698   23.7202 C   0  0  0  0  0  0
    4.2147   14.5708   24.5900 C   0  0  0  0  0  0
    5.0284   12.4014   23.9154 C   0  0  0  0  0  0
    5.2766   13.6970   24.3670 C   0  0  0  0  0  0
    6.7053   14.1698   24.5686 C   0  0  0  0  0  0
   -0.1607   10.7689   23.5672 H   0  0  0  0  0  0
    1.5070   10.4024   23.1219 H   0  0  0  0  0  0
    3.2758    7.0226   27.4484 H   0  0  0  0  0  0
   -0.9954    9.2521   28.6843 H   0  0  0  0  0  0
    2.1637    6.5076   29.5919 H   0  0  0  0  0  0
    0.0613    7.6206   30.2036 H   0  0  0  0  0  0
    2.0988   14.8334   24.5513 H   0  0  0  0  0  0
    3.5770   10.9581   23.3720 H   0  0  0  0  0  0
    4.3977   15.5833   24.9175 H   0  0  0  0  0  0
    5.8473   11.7235   23.7220 H   0  0  0  0  0  0
    6.7933   15.2388   24.3693 H   0  0  0  0  0  0
    7.0308   13.9713   25.5911 H   0  0  0  0  0  0
    7.3835   13.6659   23.8766 H   0  0  0  0  0  0
  1  2  2  0  0  0
  1  3  2  0  0  0
  1  6  1  0  0  0
  1  7  1  0  0  0
  4  9  2  0  0  0
  5 13  2  0  0  0
  6  9  1  0  0  0
  6 10  1  0  0  0
  7  8  1  0  0  0
  7 11  2  0  0  0
  8  9  1  0  0  0
  8 12  2  0  0  0
 10 13  1  0  0  0
 10 23  1  0  0  0
 10 24  1  0  0  0
 11 14  1  0  0  0
 11 25  1  0  0  0
 12 15  1  0  0  0
 12 26  1  0  0  0
 13 16  1  0  0  0
 14 15  2  0  0  0
 14 27  1  0  0  0
 15 28  1  0  0  0
 16 17  2  0  0  0
 16 18  1  0  0  0
 17 19  1  0  0  0
 17 29  1  0  0  0
 18 20  2  0  0  0
 18 30  1  0  0  0
 19 21  2  0  0  0
 19 31  1  0  0  0
 20 21  1  0  0  0
 20 32  1  0  0  0
 21 22  1  0  0  0
 22 33  1  0  0  0
 22 34  1  0  0  0
 22 35  1  0  0  0
M  END
> <s_m_entry_id>
5099

> <s_m_entry_name>
dock_pv.418

> <s_m_Source_Path>
/home/csk/Desktop/cluster/DUD-E-result/hs90a

> <s_m_Source_File>
dock_pv.maegz

> <i_m_Source_File_Index>
418

> <chembl_id>
CHEMBL1428735

> <chembl_pref_name>
None

> <i_lp_mmshare_version>
53161

> <r_lp_tautomer_probability>
0.99990000499975

> <s_lp_Force_Field>
OPLS_2005

> <r_lp_Energy>
30.499956

> <b_lp_Chiralities_Consistent>
1

> <s_lp_Variant>
CHEMBL3880_lig8-1

> <s_i_glide_gridfile>
glide-grid_1uyg

> <i_i_glide_lignum>
10

> <i_i_glide_rotatable_bonds>
3

> <r_i_docking_score>
-7.04097994198786

> <r_i_glide_ligand_efficiency>
-0.32004454281763

> <r_i_glide_ligand_efficiency_sa>
-0.896777395612628

> <r_i_glide_ligand_efficiency_ln>
-1.72107232380538

> <r_i_glide_gscore>
-7.04097994198786

> <r_i_glide_lipo>
-2.87600711984989

> <r_i_glide_hbond>
0

> <r_i_glide_metal>
0

> <r_i_glide_rewards>
-3.08318779473157

> <r_i_glide_evdw>
-32.6894607543945

> <r_i_glide_ecoul>
-0.0565348453819752

> <r_i_glide_erotb>
0.56116823712062

> <r_i_glide_esite>
0

> <r_i_glide_emodel>
-46.6791430508105

> <r_i_glide_energy>
-32.7459955997765

> <r_i_glide_einternal>
2.21689891815186

> <i_i_glide_confnum>
14

> <i_i_glide_posenum>
89

> <r_i_glide_eff_state_penalty>
0

> <s_user_duplicate_titles>
CHEMBL3880_lig8

> <i_f3d_flags>
0

> <s_m_subgroup_title>
dock_pv

> <s_m_subgroupid>
dock_pv

> <b_m_subgroup_collapsed>
1

$$$$
CHEMBL3880_lig104
                    3D
 Schrodinger Suite 2021-1.
 30 31  0  0  1  0            999 V2000
    9.4995   14.0455   26.1240 O   0  0  0  0  0  0
   10.0609   16.2469   26.6159 O   0  0  0  0  0  0
    4.0879   14.5743   24.8467 N   0  0  0  0  0  0
    5.4548   14.4559   25.1369 C   0  0  0  0  0  0
    8.1714   14.2580   25.7995 C   0  0  0  0  0  0
    3.1588   13.6366   24.3670 C   0  0  0  0  0  0
    5.9631   15.1698   26.2190 C   0  0  0  0  0  0
    6.3125   13.6658   24.3670 C   0  0  0  0  0  0
    7.3078   15.0577   26.5626 C   0  0  0  0  0  0
    7.6612   13.5671   24.6999 C   0  0  0  0  0  0
    1.9044   14.1050   23.9671 C   0  0  0  0  0  0
    3.4306   12.2640   24.3187 C   0  0  0  0  0  0
   10.3165   15.0426   26.5633 C   0  0  0  0  0  0
    0.9264   13.2146   23.5337 C   0  0  0  0  0  0
    2.4550   11.3723   23.8790 C   0  0  0  0  0  0
    1.2069   11.8539   23.4931 C   0  0  0  0  0  0
   11.6762   14.5128   26.9917 C   0  0  0  0  0  0
    3.6947   15.4767   25.0644 H   0  0  0  0  0  0
    5.3135   15.7890   26.8198 H   0  0  0  0  0  0
    5.9375   13.1292   23.5091 H   0  0  0  0  0  0
    7.6675   15.5698   27.4425 H   0  0  0  0  0  0
    8.3055   12.9308   24.1115 H   0  0  0  0  0  0
    1.6798   15.1608   23.9959 H   0  0  0  0  0  0
    4.3783   11.8714   24.6510 H   0  0  0  0  0  0
   -0.0482   13.5707   23.2340 H   0  0  0  0  0  0
    2.6593   10.3120   23.8532 H   0  0  0  0  0  0
    0.4402   11.1690   23.1673 H   0  0  0  0  0  0
   11.5700   13.8891   27.8793 H   0  0  0  0  0  0
   12.3460   15.3382   27.2311 H   0  0  0  0  0  0
   12.1233   13.9211   26.1935 H   0  0  0  0  0  0
  1  5  1  0  0  0
  1 13  1  0  0  0
  2 13  2  0  0  0
  3  4  1  0  0  0
  3  6  1  0  0  0
  3 18  1  0  0  0
  4  7  2  0  0  0
  4  8  1  0  0  0
  5  9  2  0  0  0
  5 10  1  0  0  0
  6 11  2  0  0  0
  6 12  1  0  0  0
  7  9  1  0  0  0
  7 19  1  0  0  0
  8 10  2  0  0  0
  8 20  1  0  0  0
  9 21  1  0  0  0
 10 22  1  0  0  0
 11 14  1  0  0  0
 11 23  1  0  0  0
 12 15  2  0  0  0
 12 24  1  0  0  0
 13 17  1  0  0  0
 14 16  2  0  0  0
 14 25  1  0  0  0
 15 16  1  0  0  0
 15 26  1  0  0  0
 16 27  1  0  0  0
 17 28  1  0  0  0
 17 29  1  0  0  0
 17 30  1  0  0  0
M  END
> <s_m_entry_id>
5100

> <s_m_entry_name>
dock_pv.419

> <s_m_Source_Path>
/home/csk/Desktop/cluster/DUD-E-result/hs90a

> <s_m_Source_File>
dock_pv.maegz

> <i_m_Source_File_Index>
419

> <chembl_id>
CHEMBL1454886

> <chembl_pref_name>
None

> <i_lp_mmshare_version>
53161

> <r_lp_tautomer_probability>
1

> <s_lp_Force_Field>
OPLS_2005

> <r_lp_Energy>
17.025363

> <b_lp_Chiralities_Consistent>
1

> <s_lp_Variant>
CHEMBL3880_lig104-1

> <s_i_glide_gridfile>
glide-grid_1uyg

> <i_i_glide_lignum>
118

> <i_i_glide_rotatable_bonds>
4

> <r_i_docking_score>
-7.03942854176007

> <r_i_glide_ligand_efficiency>
-0.414084031868239

> <r_i_glide_ligand_efficiency_sa>
-1.06472664712281

> <r_i_glide_ligand_efficiency_ln>
-1.8364301461789

> <r_i_glide_gscore>
-7.03942854176007

> <r_i_glide_lipo>
-3.74302481990321

> <r_i_glide_hbond>
-0.32

> <r_i_glide_metal>
0

> <r_i_glide_rewards>
-1.97917408719357

> <r_i_glide_evdw>
-35.2206726074219

> <r_i_glide_ecoul>
-1.49644899368286

> <r_i_glide_erotb>
0.988271344760239

> <r_i_glide_esite>
0

> <r_i_glide_emodel>
-49.3607618558259

> <r_i_glide_energy>
-36.7171216011047

> <r_i_glide_einternal>
2.93502974510193

> <i_i_glide_confnum>
12

> <i_i_glide_posenum>
386

> <r_i_glide_eff_state_penalty>
0

> <s_user_duplicate_titles>
CHEMBL3880_lig104

> <i_f3d_flags>
0

> <s_m_subgroup_title>
dock_pv

> <s_m_subgroupid>
dock_pv

> <b_m_subgroup_collapsed>
1

$$$$
CHEMBL3880_lig838 
                    3D
 Schrodinger Suite 2021-1.
 55 57  0  0  1  0            999 V2000
    4.7606   14.5815   26.7664 C   0  0  0  0  0  0
    4.9824   14.9266   25.2964 C   0  0  0  0  0  0
    4.9966   16.4414   25.1880 C   0  0  0  0  0  0
    2.1226    8.1414   27.2971 C   0  0  0  0  0  0
    3.2605    7.4952   26.7811 C   0  0  0  0  0  0
    3.5148    7.4588   25.4016 C   0  0  0  0  0  0
    2.6034    8.0671   24.5297 C   0  0  0  0  0  0
    1.4402    8.6523   25.0371 C   0  0  0  0  0  0
    1.2020    8.7241   26.4160 C   0  0  0  0  0  0
    2.8369    8.0763   23.0161 C   0  0  0  0  0  0
    3.9372    9.0646   22.5599 C   0  0  0  0  0  0
    3.9852   10.4370   23.1676 C   0  0  0  0  0  0
    5.2017   11.1297   23.3757 C   0  0  0  0  0  0
    2.7524   12.4047   23.9177 C   0  0  0  0  0  0
    2.7752   11.1040   23.4270 C   0  0  0  0  0  0
    3.9477   13.0750   24.1296 C   0  0  0  0  0  0
    5.1699   12.4541   23.8417 C   0  0  0  0  0  0
    6.3863   13.2245   24.1042 C   0  0  0  0  0  0
    6.3259   14.3778   24.7863 C   0  0  0  0  0  0
    3.8730   14.4030   24.5300 O   0  0  0  0  0  0
    6.4257   10.6190   22.9934 O   0  0  0  0  0  0
    4.7824    8.6554   21.7627 O   0  0  0  0  0  0
    6.9638    9.5770   23.7988 C   0  0  0  0  0  0
    0.1010    9.3583   26.9696 O   0  0  0  0  0  0
   -0.7428   10.1499   26.1390 C   0  0  0  0  0  0
    1.8505    8.2482   28.6506 O   0  0  0  0  0  0
    2.8273    7.8393   29.6025 C   0  0  0  0  0  0
    4.6237    6.8505   24.8411 O   0  0  0  0  0  0
    5.5280    6.1212   25.6640 C   0  0  0  0  0  0
    5.6540   14.7703   27.3652 H   0  0  0  0  0  0
    3.9354   15.1691   27.1680 H   0  0  0  0  0  0
    4.4605   13.5612   26.8897 H   0  0  0  0  0  0
    5.7886   16.7692   25.8508 H   0  0  0  0  0  0
    5.2169   16.8177   24.1974 H   0  0  0  0  0  0
    4.0696   16.8821   25.5667 H   0  0  0  0  0  0
    3.9596    7.0366   27.4602 H   0  0  0  0  0  0
    0.7305    9.0717   24.3428 H   0  0  0  0  0  0
    1.9147    8.2978   22.4859 H   0  0  0  0  0  0
    3.1245    7.0719   22.7041 H   0  0  0  0  0  0
    1.8138   12.9015   24.1082 H   0  0  0  0  0  0
    1.8271   10.6361   23.2192 H   0  0  0  0  0  0
    7.3442   12.8675   23.7491 H   0  0  0  0  0  0
    7.2375   14.9288   24.9663 H   0  0  0  0  0  0
    7.8593    9.1802   23.3194 H   0  0  0  0  0  0
    7.2612    9.9711   24.7667 H   0  0  0  0  0  0
    6.2795    8.7468   23.9659 H   0  0  0  0  0  0
   -1.5521   10.5678   26.7381 H   0  0  0  0  0  0
   -0.1927   10.9838   25.6988 H   0  0  0  0  0  0
   -1.1976    9.5687   25.3373 H   0  0  0  0  0  0
    2.4588    8.0502   30.6070 H   0  0  0  0  0  0
    3.0245    6.7694   29.5415 H   0  0  0  0  0  0
    3.7626    8.3871   29.4770 H   0  0  0  0  0  0
    6.2936    5.6644   25.0366 H   0  0  0  0  0  0
    6.0345    6.7692   26.3782 H   0  0  0  0  0  0
    5.0223    5.3185   26.2003 H   0  0  0  0  0  0
  1  2  1  0  0  0
  1 30  1  0  0  0
  1 31  1  0  0  0
  1 32  1  0  0  0
  2  3  1  0  0  0
  2 19  1  0  0  0
  2 20  1  0  0  0
  3 33  1  0  0  0
  3 34  1  0  0  0
  3 35  1  0  0  0
  4  5  2  0  0  0
  4  9  1  0  0  0
  4 26  1  0  0  0
  5  6  1  0  0  0
  5 36  1  0  0  0
  6  7  2  0  0  0
  6 28  1  0  0  0
  7  8  1  0  0  0
  7 10  1  0  0  0
  8  9  2  0  0  0
  8 37  1  0  0  0
  9 24  1  0  0  0
 10 11  1  0  0  0
 10 38  1  0  0  0
 10 39  1  0  0  0
 11 12  1  0  0  0
 11 22  2  0  0  0
 12 13  2  0  0  0
 12 15  1  0  0  0
 13 17  1  0  0  0
 13 21  1  0  0  0
 14 16  1  0  0  0
 14 15  2  0  0  0
 14 40  1  0  0  0
 15 41  1  0  0  0
 16 17  2  0  0  0
 16 20  1  0  0  0
 17 18  1  0  0  0
 18 19  2  0  0  0
 18 42  1  0  0  0
 19 43  1  0  0  0
 21 23  1  0  0  0
 23 44  1  0  0  0
 23 45  1  0  0  0
 23 46  1  0  0  0
 24 25  1  0  0  0
 25 47  1  0  0  0
 25 48  1  0  0  0
 25 49  1  0  0  0
 26 27  1  0  0  0
 27 50  1  0  0  0
 27 51  1  0  0  0
 27 52  1  0  0  0
 28 29  1  0  0  0
 29 53  1  0  0  0
 29 54  1  0  0  0
 29 55  1  0  0  0
M  END
> <s_m_entry_id>
5101

> <s_m_entry_name>
dock_pv.420

> <s_m_Source_Path>
/home/csk/Desktop/cluster/DUD-E-result/hs90a

> <s_m_Source_File>
dock_pv.maegz

> <i_m_Source_File_Index>
420

> <chembl_id>
CHEMBL4513831

> <chembl_pref_name>
None

> <i_lp_mmshare_version>
53161

> <r_lp_tautomer_probability>
0.99990000499975

> <s_lp_Force_Field>
OPLS_2005

> <r_lp_Energy>
44.374317

> <b_lp_Chiralities_Consistent>
1

> <s_lp_Variant>
CHEMBL3880_lig838 -1

> <s_i_glide_gridfile>
glide-grid_1uyg

> <i_i_glide_lignum>
939

> <i_i_glide_rotatable_bonds>
7

> <r_i_docking_score>
-7.03429738709482

> <r_i_glide_ligand_efficiency>
-0.242561978865339

> <r_i_glide_ligand_efficiency_sa>
-0.745227248103168

> <r_i_glide_ligand_efficiency_ln>
-1.61067572725354

> <r_i_glide_gscore>
-7.03429738709482

> <r_i_glide_lipo>
-3.99454771990287

> <r_i_glide_hbond>
0

> <r_i_glide_metal>
0

> <r_i_glide_rewards>
-1.65004406344472

> <r_i_glide_evdw>
-35.7634468078613

> <r_i_glide_ecoul>
0.18925416469574

> <r_i_glide_erotb>
0.370078611941474

> <r_i_glide_esite>
0

> <r_i_glide_emodel>
-42.8084747286254

> <r_i_glide_energy>
-35.5741926431656

> <r_i_glide_einternal>
5.50437688827515

> <i_i_glide_confnum>
1

> <i_i_glide_posenum>
142

> <r_i_glide_eff_state_penalty>
0

> <s_user_duplicate_titles>
CHEMBL3880_lig838 

> <i_f3d_flags>
0

> <s_m_subgroup_title>
dock_pv

> <s_m_subgroupid>
dock_pv

> <b_m_subgroup_collapsed>
1

$$$$
CHEMBL3880_lig165
                    3D
 Schrodinger Suite 2021-1.
 47 50  0  0  1  0            999 V2000
    2.0676    7.4415   23.7456 C   0  0  0  0  0  0
    2.0697    8.5355   24.6181 C   0  0  0  0  0  0
    3.0953    9.4975   24.5378 C   0  0  0  0  0  0
    3.0483    7.2793   22.7671 C   0  0  0  0  0  0
    5.0374    8.3592   21.7674 O   0  0  0  0  0  0
    4.0203    8.2791   22.6733 C   0  0  0  0  0  0
    4.0668    9.3863   23.5269 C   0  0  0  0  0  0
    5.1962   10.1364   23.0512 C   0  0  0  0  0  0
    5.7648    9.5259   22.0293 N   0  0  0  0  0  0
    5.6809   11.4697   23.5303 C   0  0  0  0  0  0
    7.0355   11.8579   23.5770 C   0  0  0  0  0  0
    7.3741   13.1193   24.0671 C   0  0  0  0  0  0
    6.3897   14.0032   24.5049 C   0  0  0  0  0  0
    5.0444   13.6331   24.4419 C   0  0  0  0  0  0
    4.7005   12.3727   23.9667 C   0  0  0  0  0  0
    8.0590   11.0342   23.1761 O   0  0  0  0  0  0
    6.7652   15.2236   24.9957 O   0  0  0  0  0  0
    3.6621   14.8055   25.0342 Br  0  0  0  0  0  0
    1.0350    8.5926   25.5692 N   0  0  0  0  0  0
    0.6943    9.7948   26.3339 C   0  0  0  0  0  0
   -0.5774   10.5524   25.8701 C   0  0  0  0  0  0
   -0.5970   10.9766   24.4675 N   0  0  0  0  0  0
   -0.9026   12.9186   22.3875 O   0  0  0  0  0  0
    0.3863   12.3922   22.6762 C   0  0  0  0  0  0
    0.4576   11.9483   24.1492 C   0  0  0  0  0  0
   -1.9267   11.4927   24.0966 C   0  0  0  0  0  0
   -1.9626   12.0012   22.6395 C   0  0  0  0  0  0
    1.2858    6.6976   23.8164 H   0  0  0  0  0  0
    3.1435   10.3220   25.2283 H   0  0  0  0  0  0
    3.0322    6.4418   22.0844 H   0  0  0  0  0  0
    8.4074   13.4260   24.1173 H   0  0  0  0  0  0
    3.6540   12.1077   23.9263 H   0  0  0  0  0  0
    8.9142   11.4817   23.1667 H   0  0  0  0  0  0
    6.0138   15.7589   25.2609 H   0  0  0  0  0  0
    0.3005    7.9093   25.4682 H   0  0  0  0  0  0
    1.5286   10.4840   26.4283 H   0  0  0  0  0  0
    0.5240    9.4631   27.3588 H   0  0  0  0  0  0
   -0.7027   11.4342   26.4987 H   0  0  0  0  0  0
   -1.4452    9.9214   26.0701 H   0  0  0  0  0  0
    1.1266   13.1696   22.4892 H   0  0  0  0  0  0
    0.6269   11.5709   22.0062 H   0  0  0  0  0  0
    1.4352   11.5183   24.3492 H   0  0  0  0  0  0
    0.3778   12.8160   24.8062 H   0  0  0  0  0  0
   -2.2103   12.3057   24.7652 H   0  0  0  0  0  0
   -2.6768   10.7162   24.2379 H   0  0  0  0  0  0
   -2.8983   12.5268   22.4596 H   0  0  0  0  0  0
   -1.9362   11.1759   21.9305 H   0  0  0  0  0  0
  1  2  2  0  0  0
  1  4  1  0  0  0
  1 28  1  0  0  0
  2 19  1  0  0  0
  2  3  1  0  0  0
  3  7  2  0  0  0
  3 29  1  0  0  0
  4  6  2  0  0  0
  4 30  1  0  0  0
  5  6  1  0  0  0
  5  9  1  0  0  0
  6  7  1  0  0  0
  7  8  1  0  0  0
  8 10  1  0  0  0
  8  9  2  0  0  0
 10 15  1  0  0  0
 10 11  2  0  0  0
 11 16  1  0  0  0
 11 12  1  0  0  0
 12 13  2  0  0  0
 12 31  1  0  0  0
 13 14  1  0  0  0
 13 17  1  0  0  0
 14 15  2  0  0  0
 14 18  1  0  0  0
 15 32  1  0  0  0
 16 33  1  0  0  0
 17 34  1  0  0  0
 19 20  1  0  0  0
 19 35  1  0  0  0
 20 21  1  0  0  0
 20 36  1  0  0  0
 20 37  1  0  0  0
 21 22  1  0  0  0
 21 38  1  0  0  0
 21 39  1  0  0  0
 22 25  1  0  0  0
 22 26  1  0  0  0
 23 27  1  0  0  0
 23 24  1  0  0  0
 24 25  1  0  0  0
 24 40  1  0  0  0
 24 41  1  0  0  0
 25 42  1  0  0  0
 25 43  1  0  0  0
 26 27  1  0  0  0
 26 44  1  0  0  0
 26 45  1  0  0  0
 27 46  1  0  0  0
 27 47  1  0  0  0
M  END
> <s_m_entry_id>
5102

> <s_m_entry_name>
dock_pv.421

> <s_m_Source_Path>
/home/csk/Desktop/cluster/DUD-E-result/hs90a

> <s_m_Source_File>
dock_pv.maegz

> <i_m_Source_File_Index>
421

> <chembl_id>
CHEMBL254875

> <chembl_pref_name>
None

> <i_lp_mmshare_version>
53161

> <r_lp_tautomer_probability>
0.999999999898

> <s_lp_Force_Field>
OPLS_2005

> <r_lp_Energy>
42.225117

> <b_lp_Chiralities_Consistent>
1

> <s_lp_Variant>
CHEMBL3880_lig165-1

> <s_i_glide_gridfile>
glide-grid_1uyg

> <i_i_glide_lignum>
196

> <i_i_glide_rotatable_bonds>
7

> <r_i_docking_score>
-7.02531815421438

> <r_i_glide_ligand_efficiency>
-0.260196968674607

> <r_i_glide_ligand_efficiency_sa>
-0.780590905166253

> <r_i_glide_ligand_efficiency_ln>
-1.6353782448794

> <r_i_glide_gscore>
-7.02531815421438

> <r_i_glide_lipo>
-3.68328106610614

> <r_i_glide_hbond>
-0.32

> <r_i_glide_metal>
0

> <r_i_glide_rewards>
-0.788800434662171

> <r_i_glide_evdw>
-43.0539779663086

> <r_i_glide_ecoul>
-3.2648332118988

> <r_i_glide_erotb>
0.422357723399948

> <r_i_glide_esite>
-0.0131704967457655

> <r_i_glide_emodel>
-65.7988439419492

> <r_i_glide_energy>
-46.3188111782074

> <r_i_glide_einternal>
1.91001117229462

> <i_i_glide_confnum>
9

> <i_i_glide_posenum>
173

> <r_i_glide_eff_state_penalty>
0

> <s_user_duplicate_titles>
CHEMBL3880_lig165,419309

> <i_f3d_flags>
0

> <s_m_subgroup_title>
dock_pv

> <s_m_subgroupid>
dock_pv

> <b_m_subgroup_collapsed>
1

$$$$
CHEMBL3880_lig60
                    3D
 Schrodinger Suite 2021-1.
 51 54  0  0  1  0            999 V2000
    3.9234    7.8801   23.5099 S   0  0  0  0  0  0
   -0.6005    8.9648   28.3667 O   0  0  0  0  0  0
    2.7253    8.2764   22.7675 O   0  0  0  0  0  0
    4.7950    6.9380   22.8007 O   0  0  0  0  0  0
   -1.0421   12.9104   21.1669 O   0  0  0  0  0  0
    3.7494    7.5760   25.2441 N   0  0  0  0  0  0
   -0.3386   10.2292   25.9496 N   0  0  0  0  0  0
    2.6626    7.5868   27.3775 C   0  0  0  0  0  0
    2.7783    8.0374   25.9421 C   0  0  0  0  0  0
    1.5601    7.9410   28.2001 C   0  0  0  0  0  0
    0.4152    8.7690   27.6910 C   0  0  0  0  0  0
    0.6465    9.3338   26.3463 C   0  0  0  0  0  0
    1.7096    8.9560   25.5841 C   0  0  0  0  0  0
    4.9139    9.3873   23.5674 C   0  0  0  0  0  0
    3.6734    6.7879   27.9547 C   0  0  0  0  0  0
    1.5206    7.5137   29.5385 C   0  0  0  0  0  0
   -0.4691   11.0018   24.7902 C   0  0  0  0  0  0
    3.6255    6.3873   29.2867 C   0  0  0  0  0  0
    2.5505    6.7584   30.0820 C   0  0  0  0  0  0
    4.2845   10.6326   23.5518 C   0  0  0  0  0  0
    6.3109    9.3127   23.5659 C   0  0  0  0  0  0
    6.4392   11.7280   23.5872 C   0  0  0  0  0  0
    5.0447   11.7990   23.5670 C   0  0  0  0  0  0
    7.0710   10.4822   23.5665 C   0  0  0  0  0  0
    0.6074   11.6595   24.1843 C   0  0  0  0  0  0
   -1.7505   11.1279   24.2579 C   0  0  0  0  0  0
    0.4165   12.3415   22.9820 C   0  0  0  0  0  0
   -1.9389   11.8046   23.0619 C   0  0  0  0  0  0
   -0.8538   12.3691   22.4053 C   0  0  0  0  0  0
    7.2605   13.0142   23.6265 C   0  0  0  0  0  0
    8.1652   13.1684   24.8592 C   0  0  0  0  0  0
   -1.9349   12.7550   20.8373 H   0  0  0  0  0  0
   -1.1999   10.1930   26.4763 H   0  0  0  0  0  0
    1.7484    9.3866   24.6022 H   0  0  0  0  0  0
    4.5383    6.4872   27.3797 H   0  0  0  0  0  0
    0.6989    7.7942   30.1857 H   0  0  0  0  0  0
    4.4368    5.8138   29.7085 H   0  0  0  0  0  0
    2.5276    6.4810   31.1264 H   0  0  0  0  0  0
    3.2096   10.6963   23.5067 H   0  0  0  0  0  0
    6.8067    8.3530   23.5537 H   0  0  0  0  0  0
    4.5445   12.7552   23.5611 H   0  0  0  0  0  0
    8.1506   10.4163   23.5691 H   0  0  0  0  0  0
    1.5861   11.6317   24.6389 H   0  0  0  0  0  0
   -2.6042   10.6652   24.7357 H   0  0  0  0  0  0
    1.2500   12.8157   22.4834 H   0  0  0  0  0  0
   -2.9273   11.8566   22.6354 H   0  0  0  0  0  0
    6.5992   13.8793   23.5675 H   0  0  0  0  0  0
    7.8735   13.0440   22.7330 H   0  0  0  0  0  0
    8.7115   14.1119   24.8197 H   0  0  0  0  0  0
    8.9047   12.3691   24.9126 H   0  0  0  0  0  0
    7.5965   13.1693   25.7870 H   0  0  0  0  0  0
  1  3  2  0  0  0
  1  4  2  0  0  0
  1  6  1  0  0  0
  1 14  1  0  0  0
  2 11  2  0  0  0
  5 29  1  0  0  0
  5 32  1  0  0  0
  6  9  2  0  0  0
  7 12  1  0  0  0
  7 17  1  0  0  0
  7 33  1  0  0  0
  8  9  1  0  0  0
  8 10  1  0  0  0
  8 15  2  0  0  0
  9 13  1  0  0  0
 10 11  1  0  0  0
 10 16  2  0  0  0
 11 12  1  0  0  0
 12 13  2  0  0  0
 13 34  1  0  0  0
 14 20  2  0  0  0
 14 21  1  0  0  0
 15 18  1  0  0  0
 15 35  1  0  0  0
 16 19  1  0  0  0
 16 36  1  0  0  0
 17 25  2  0  0  0
 17 26  1  0  0  0
 18 19  2  0  0  0
 18 37  1  0  0  0
 19 38  1  0  0  0
 20 23  1  0  0  0
 20 39  1  0  0  0
 21 24  2  0  0  0
 21 40  1  0  0  0
 22 23  2  0  0  0
 22 24  1  0  0  0
 22 30  1  0  0  0
 23 41  1  0  0  0
 24 42  1  0  0  0
 25 27  1  0  0  0
 25 43  1  0  0  0
 26 28  2  0  0  0
 26 44  1  0  0  0
 27 29  2  0  0  0
 27 45  1  0  0  0
 28 29  1  0  0  0
 28 46  1  0  0  0
 30 31  1  0  0  0
 30 47  1  0  0  0
 30 48  1  0  0  0
 31 49  1  0  0  0
 31 50  1  0  0  0
 31 51  1  0  0  0
M  END
> <s_m_entry_id>
5103

> <s_m_entry_name>
dock_pv.422

> <s_m_Source_Path>
/home/csk/Desktop/cluster/DUD-E-result/hs90a

> <s_m_Source_File>
dock_pv.maegz

> <i_m_Source_File_Index>
422

> <chembl_id>
CHEMBL1987894

> <chembl_pref_name>
None

> <i_lp_mmshare_version>
53161

> <r_lp_tautomer_probability>
1

> <s_lp_Force_Field>
OPLS_2005

> <r_lp_Energy>
26.790875

> <b_lp_Chiralities_Consistent>
1

> <s_lp_Variant>
CHEMBL3880_lig60-1

> <s_i_glide_gridfile>
glide-grid_1uyg

> <i_i_glide_lignum>
66

> <i_i_glide_rotatable_bonds>
6

> <r_i_docking_score>
-7.02420140144365

> <r_i_glide_ligand_efficiency>
-0.226587141982053

> <r_i_glide_ligand_efficiency_sa>
-0.711796463088317

> <r_i_glide_ligand_efficiency_ln>
-1.58417268194604

> <r_i_glide_gscore>
-7.02420140144365

> <r_i_glide_lipo>
-3.62643698053477

> <r_i_glide_hbond>
-0.0118988313277749

> <r_i_glide_metal>
0

> <r_i_glide_rewards>
-1.1563848324784

> <r_i_glide_evdw>
-48.9443168640137

> <r_i_glide_ecoul>
-1.38532316684723

> <r_i_glide_erotb>
0.425533561125057

> <r_i_glide_esite>
0

> <r_i_glide_emodel>
-68.8470776377601

> <r_i_glide_energy>
-50.3296400308609

> <r_i_glide_einternal>
4.09644460678101

> <i_i_glide_confnum>
1

> <i_i_glide_posenum>
91

> <r_i_glide_eff_state_penalty>
0

> <s_user_duplicate_titles>
CHEMBL3880_lig60

> <i_f3d_flags>
0

> <s_m_subgroup_title>
dock_pv

> <s_m_subgroupid>
dock_pv

> <b_m_subgroup_collapsed>
1

$$$$
CHEMBL3880_lig185
                    3D
 Schrodinger Suite 2021-1.
 62 65  0  0  1  0            999 V2000
    7.6613   14.3697   26.6482 C   0  0  0  0  0  0
    7.5681   14.3925   25.1127 C   0  0  0  0  0  0
    8.9671   14.7683   24.6160 C   0  0  0  0  0  0
    6.7174    8.7658   22.9502 C   0  0  0  0  0  0
    6.3659   10.1182   23.0238 C   0  0  0  0  0  0
    5.2318   10.4975   23.7439 C   0  0  0  0  0  0
    4.4815    9.4996   24.3667 C   0  0  0  0  0  0
    4.7654    8.1388   24.2577 C   0  0  0  0  0  0
    5.9349    7.7624   23.5667 C   0  0  0  0  0  0
    6.3581    6.3134   23.4741 C   0  0  0  0  0  0
    7.6613    6.0775   23.5709 N   0  0  0  0  0  0
    5.5541    5.3930   23.3395 O   0  0  0  0  0  0
    3.8882    7.1864   24.8291 N   0  0  0  0  0  0
    2.6273    7.5631   25.4742 C   0  0  0  0  0  0
    1.4818    7.8416   24.4683 C   0  0  2  0  0  0
    4.7872   11.8436   23.8614 N   0  0  0  0  0  0
    3.3764   13.5910   24.0397 C   0  0  0  0  0  0
    3.4451   12.2358   23.7996 C   0  0  0  0  0  0
    4.6768   14.0187   24.3722 C   0  0  0  0  0  0
    5.5597   12.9812   24.1225 C   0  0  0  0  0  0
    7.0931   13.0724   24.3544 C   0  0  0  0  0  0
    6.6289   15.5694   24.8087 C   0  0  0  0  0  0
    5.1253   15.2862   24.9489 C   0  0  0  0  0  0
    4.3946   16.0539   25.5668 O   0  0  0  0  0  0
    2.0844   14.3678   24.0538 C   0  0  0  0  0  0
    0.3799    8.7523   25.0782 C   0  0  0  0  0  0
    0.2968   10.0736   24.4485 N   0  0  2  0  0  0
    1.3866   10.9914   24.7578 C   0  0  0  0  0  0
    2.2461   11.3168   23.4986 C   0  0  0  0  0  0
    0.8843    6.5294   23.9243 C   0  0  0  0  0  0
    6.6811   14.3708   27.1149 H   0  0  0  0  0  0
    8.2757   13.5686   27.0291 H   0  0  0  0  0  0
    8.1304   15.2760   27.0322 H   0  0  0  0  0  0
    8.9463   15.0216   23.5682 H   0  0  0  0  0  0
    9.3619   15.6453   25.1342 H   0  0  0  0  0  0
    9.6792   13.9572   24.7672 H   0  0  0  0  0  0
    7.5989    8.5001   22.3814 H   0  0  0  0  0  0
    6.9743   10.8556   22.5183 H   0  0  0  0  0  0
    3.6594    9.8075   24.9713 H   0  0  0  0  0  0
    7.9907    5.1287   23.5028 H   0  0  0  0  0  0
    8.3073    6.8372   23.7110 H   0  0  0  0  0  0
    3.9567    6.2493   24.4507 H   0  0  0  0  0  0
    2.7803    8.4196   26.1304 H   0  0  0  0  0  0
    2.3467    6.7632   26.1618 H   0  0  0  0  0  0
    1.9038    8.3509   23.6020 H   0  0  0  0  0  0
    7.4907   13.1230   23.3390 H   0  0  0  0  0  0
    7.5266   12.1664   24.7667 H   0  0  0  0  0  0
    6.8564   15.9947   23.8422 H   0  0  0  0  0  0
    6.8258   16.3691   25.5127 H   0  0  0  0  0  0
    1.2196   13.7933   24.3660 H   0  0  0  0  0  0
    2.1571   15.1689   24.7661 H   0  0  0  0  0  0
    1.8327   14.7785   23.0812 H   0  0  0  0  0  0
    0.4872    8.8692   26.1582 H   0  0  0  0  0  0
   -0.5973    8.2999   24.9080 H   0  0  0  0  0  0
   -0.6023   10.4917   24.6447 H   0  0  0  0  0  0
    1.9751   10.6449   25.6054 H   0  0  0  0  0  0
    0.9317   11.8997   25.1433 H   0  0  0  0  0  0
    1.5961   11.8238   22.7839 H   0  0  0  0  0  0
    2.5387   10.4128   22.9683 H   0  0  0  0  0  0
    0.4260    5.9334   24.7149 H   0  0  0  0  0  0
    0.1156    6.7325   23.1782 H   0  0  0  0  0  0
    1.6424    5.9129   23.4396 H   0  0  0  0  0  0
  1  2  1  0  0  0
  1 31  1  0  0  0
  1 32  1  0  0  0
  1 33  1  0  0  0
  2  3  1  0  0  0
  2 21  1  0  0  0
  2 22  1  0  0  0
  3 34  1  0  0  0
  3 35  1  0  0  0
  3 36  1  0  0  0
  4  5  2  0  0  0
  4  9  1  0  0  0
  4 37  1  0  0  0
  5  6  1  0  0  0
  5 38  1  0  0  0
  6 16  1  0  0  0
  6  7  2  0  0  0
  7  8  1  0  0  0
  7 39  1  0  0  0
  8  9  2  0  0  0
  8 13  1  0  0  0
  9 10  1  0  0  0
 10 11  1  0  0  0
 10 12  2  0  0  0
 11 40  1  0  0  0
 11 41  1  0  0  0
 13 14  1  0  0  0
 13 42  1  0  0  0
 14 15  1  0  0  0
 14 43  1  0  0  0
 14 44  1  0  0  0
 15 26  1  0  0  0
 15 30  1  0  0  0
 15 45  1  0  0  0
 16 20  1  0  0  0
 16 18  1  0  0  0
 17 19  1  0  0  0
 17 18  2  0  0  0
 17 25  1  0  0  0
 18 29  1  0  0  0
 19 20  2  0  0  0
 19 23  1  0  0  0
 20 21  1  0  0  0
 21 46  1  0  0  0
 21 47  1  0  0  0
 22 23  1  0  0  0
 22 48  1  0  0  0
 22 49  1  0  0  0
 23 24  2  0  0  0
 25 50  1  0  0  0
 25 51  1  0  0  0
 25 52  1  0  0  0
 26 27  1  0  0  0
 26 53  1  0  0  0
 26 54  1  0  0  0
 27 28  1  0  0  0
 27 55  1  0  0  0
 28 29  1  0  0  0
 28 56  1  0  0  0
 28 57  1  0  0  0
 29 58  1  0  0  0
 29 59  1  0  0  0
 30 60  1  0  0  0
 30 61  1  0  0  0
 30 62  1  0  0  0
M  END
> <s_m_entry_id>
5104

> <s_m_entry_name>
dock_pv.423

> <s_m_Source_Path>
/home/csk/Desktop/cluster/DUD-E-result/hs90a

> <s_m_Source_File>
dock_pv.maegz

> <i_m_Source_File_Index>
423

> <chembl_id>
CHEMBL1760605

> <chembl_pref_name>
None

> <i_lp_mmshare_version>
53161

> <r_lp_tautomer_probability>
0.99995

> <s_lp_Force_Field>
OPLS_2005

> <r_lp_Energy>
40.687119

> <b_lp_Chiralities_Consistent>
1

> <s_lp_Variant>
CHEMBL3880_lig185-2

> <s_i_glide_gridfile>
glide-grid_1uyg

> <i_i_glide_lignum>
217

> <i_i_glide_rotatable_bonds>
1

> <r_i_docking_score>
-7.0200061466463

> <r_i_glide_ligand_efficiency>
-0.23400020488821

> <r_i_glide_ligand_efficiency_sa>
-0.72709304220418

> <r_i_glide_ligand_efficiency_ln>
-1.5950218856113

> <r_i_glide_gscore>
-7.0200061466463

> <r_i_glide_lipo>
-3.94270600053391

> <r_i_glide_hbond>
0

> <r_i_glide_metal>
0

> <r_i_glide_rewards>
-1.90291661485631

> <r_i_glide_evdw>
-30.0097522735596

> <r_i_glide_ecoul>
2.40241980552673

> <r_i_glide_erotb>
0

> <r_i_glide_esite>
-0.0342588884071176

> <r_i_glide_emodel>
-59.2832640076174

> <r_i_glide_energy>
-27.6073324680328

> <r_i_glide_einternal>
3.59704732894897

> <i_i_glide_confnum>
1

> <i_i_glide_posenum>
71

> <r_i_glide_eff_state_penalty>
0

> <s_user_duplicate_titles>
CHEMBL3880_lig185

> <i_f3d_flags>
0

> <s_m_subgroup_title>
dock_pv

> <s_m_subgroupid>
dock_pv

> <b_m_subgroup_collapsed>
1

$$$$
CHEMBL3880_lig16
                    3D
 Schrodinger Suite 2021-1.
 42 44  0  0  1  0            999 V2000
   -0.6953   11.8067   24.2535 O   0  0  0  0  0  0
    3.5742   10.7796   23.2210 O   0  0  0  0  0  0
   -1.2526   10.3694   25.9266 O   0  0  0  0  0  0
    0.5145   12.1903   23.6112 N   0  0  0  0  0  0
    3.6785   12.7520   24.2577 N   0  0  0  0  0  0
    4.8920   11.2211   23.1693 N   0  0  0  0  0  0
    1.5320   11.5179   24.2632 C   0  0  0  0  0  0
    2.9208   11.7432   23.9111 C   0  0  0  0  0  0
    1.0183   10.6718   25.1678 C   0  0  0  0  0  0
    4.8677   12.3745   23.8183 C   0  0  0  0  0  0
   -0.4204   10.8872   25.1849 C   0  0  0  0  0  0
    6.1319   13.1182   24.1822 C   0  0  0  0  0  0
    8.4676   14.1120   25.4422 C   0  0  0  0  0  0
    7.3365   12.4178   24.1096 C   0  0  0  0  0  0
    6.1283   14.3782   24.7947 C   0  0  0  0  0  0
    1.6530    9.6966   26.1452 C   0  0  0  0  0  0
    9.7652   14.5529   26.1857 C   0  0  0  0  0  0
    0.4803   13.6419   23.5674 C   0  0  0  0  0  0
    8.4611   12.8927   24.7670 C   0  0  0  0  0  0
    7.2836   14.8712   25.4133 C   0  0  0  0  0  0
   10.0136   13.7165   27.4578 C   0  0  0  0  0  0
    9.6794   15.9889   26.7091 C   0  0  0  0  0  0
   11.0079   14.4038   25.2687 C   0  0  0  0  0  0
    7.3915   11.4386   23.6566 H   0  0  0  0  0  0
    5.2116   14.9451   24.8659 H   0  0  0  0  0  0
    1.4224    8.6693   25.8604 H   0  0  0  0  0  0
    2.7378    9.8124   26.1554 H   0  0  0  0  0  0
    1.2886    9.8637   27.1602 H   0  0  0  0  0  0
    1.2666   14.0243   22.9164 H   0  0  0  0  0  0
   -0.4805   13.9690   23.1739 H   0  0  0  0  0  0
    0.6153   14.0777   24.5569 H   0  0  0  0  0  0
    9.3388   12.2645   24.7704 H   0  0  0  0  0  0
    7.2188   15.8271   25.9101 H   0  0  0  0  0  0
   10.7533   14.1706   28.1202 H   0  0  0  0  0  0
   10.4284   12.7617   27.1957 H   0  0  0  0  0  0
    9.1065   13.5691   28.0456 H   0  0  0  0  0  0
    9.4605   16.7085   25.9264 H   0  0  0  0  0  0
    8.9041   15.9999   27.4773 H   0  0  0  0  0  0
   10.6058   16.3157   27.1828 H   0  0  0  0  0  0
   10.8238   14.7699   24.2624 H   0  0  0  0  0  0
   11.8724   14.9313   25.6727 H   0  0  0  0  0  0
   11.3126   13.3614   25.1661 H   0  0  0  0  0  0
  1  4  1  0  0  0
  1 11  1  0  0  0
  2  6  1  0  0  0
  2  8  1  0  0  0
  3 11  2  0  0  0
  4  7  1  0  0  0
  4 18  1  0  0  0
  5  8  2  0  0  0
  5 10  1  0  0  0
  6 10  2  0  0  0
  7  8  1  0  0  0
  7  9  2  0  0  0
  9 11  1  0  0  0
  9 16  1  0  0  0
 10 12  1  0  0  0
 12 14  2  0  0  0
 12 15  1  0  0  0
 13 17  1  0  0  0
 13 19  2  0  0  0
 13 20  1  0  0  0
 14 19  1  0  0  0
 14 24  1  0  0  0
 15 20  2  0  0  0
 15 25  1  0  0  0
 16 26  1  0  0  0
 16 27  1  0  0  0
 16 28  1  0  0  0
 17 21  1  0  0  0
 17 22  1  0  0  0
 17 23  1  0  0  0
 18 29  1  0  0  0
 18 30  1  0  0  0
 18 31  1  0  0  0
 19 32  1  0  0  0
 20 33  1  0  0  0
 21 34  1  0  0  0
 21 35  1  0  0  0
 21 36  1  0  0  0
 22 37  1  0  0  0
 22 38  1  0  0  0
 22 39  1  0  0  0
 23 40  1  0  0  0
 23 41  1  0  0  0
 23 42  1  0  0  0
M  END
> <s_m_entry_id>
5105

> <s_m_entry_name>
dock_pv.424

> <s_m_Source_Path>
/home/csk/Desktop/cluster/DUD-E-result/hs90a

> <s_m_Source_File>
dock_pv.maegz

> <i_m_Source_File_Index>
424

> <chembl_id>
CHEMBL1326315

> <chembl_pref_name>
None

> <i_lp_mmshare_version>
53161

> <r_lp_tautomer_probability>
1

> <s_lp_Force_Field>
OPLS_2005

> <r_lp_Energy>
18.976938

> <b_lp_Chiralities_Consistent>
1

> <s_lp_Variant>
CHEMBL3880_lig16-1

> <s_i_glide_gridfile>
glide-grid_1uyg

> <i_i_glide_lignum>
19

> <i_i_glide_rotatable_bonds>
3

> <r_i_docking_score>
-7.01799039818296

> <r_i_glide_ligand_efficiency>
-0.305130017312302

> <r_i_glide_ligand_efficiency_sa>
-0.867749179889053

> <r_i_glide_ligand_efficiency_ln>
-1.69701371389929

> <r_i_glide_gscore>
-7.01799039818296

> <r_i_glide_lipo>
-3.15109160892628

> <r_i_glide_hbond>
0

> <r_i_glide_metal>
0

> <r_i_glide_rewards>
-2.58638629337879

> <r_i_glide_evdw>
-32.3791809082031

> <r_i_glide_ecoul>
-0.265744924545288

> <r_i_glide_erotb>
0.37830828821406

> <r_i_glide_esite>
0

> <r_i_glide_emodel>
-36.5660999313795

> <r_i_glide_energy>
-32.6449258327484

> <r_i_glide_einternal>
5.56194305419922

> <i_i_glide_confnum>
4

> <i_i_glide_posenum>
8

> <r_i_glide_eff_state_penalty>
0

> <s_user_duplicate_titles>
CHEMBL3880_lig16

> <i_f3d_flags>
0

> <s_m_subgroup_title>
dock_pv

> <s_m_subgroupid>
dock_pv

> <b_m_subgroup_collapsed>
1

$$$$
CHEMBL3880_lig141
                    3D
 Schrodinger Suite 2021-1.
 61 64  0  0  1  0            999 V2000
   -0.4663    9.6150   26.6022 C   0  0  0  0  0  0
   -0.8424   10.0502   27.6895 O   0  0  0  0  0  0
   -0.5268   10.4961   25.3833 C   0  0  0  0  0  0
   -1.7268   10.8312   24.7392 C   0  0  0  0  0  0
   -1.7136   11.6178   23.5901 C   0  0  0  0  0  0
   -0.4970   12.0609   23.0646 C   0  0  0  0  0  0
    0.7166   11.7450   23.7051 C   0  0  0  0  0  0
    0.6769   10.9769   24.8691 C   0  0  0  0  0  0
    2.0764   12.2133   23.1736 C   0  0  0  0  0  0
    3.1832   11.1372   23.2784 C   0  0  0  0  0  0
    2.5071   13.5120   23.8836 C   0  0  0  0  0  0
   -2.9315   10.3691   25.1765 O   0  0  0  0  0  0
   -0.5262   12.7690   21.8937 O   0  0  0  0  0  0
    4.2206    6.3569   26.4081 C   0  0  0  0  0  0
    3.9707    6.3268   25.0299 C   0  0  0  0  0  0
    2.7399    6.7829   24.5456 C   0  0  0  0  0  0
    1.7614    7.2202   25.4346 C   0  0  0  0  0  0
    0.3746    7.7340   25.1603 C   0  0  0  0  0  0
    0.0696    8.3797   26.4419 N   0  0  0  0  0  0
    0.7373    7.6624   27.5270 C   0  0  0  0  0  0
    1.9890    7.1991   26.8074 C   0  0  0  0  0  0
    3.2259    6.7794   27.2987 C   0  0  0  0  0  0
    5.0409    5.8750   24.0343 C   0  0  0  0  0  0
    5.3439    8.1864   23.1929 C   0  0  0  0  0  0
    6.3840    9.1626   22.5849 C   0  0  0  0  0  0
    7.4866    9.3879   23.5309 N   0  0  0  0  0  0
    8.1282    8.0922   23.7918 C   0  0  0  0  0  0
    7.1126    7.1447   24.4798 C   0  0  0  0  0  0
    5.9757    6.9132   23.5778 N   0  0  0  0  0  0
    8.4442   10.3342   22.9740 C   0  0  0  0  0  0
   -2.6442   11.8446   23.0883 H   0  0  0  0  0  0
    1.5951   10.7337   25.3839 H   0  0  0  0  0  0
    1.9685   12.4102   22.1072 H   0  0  0  0  0  0
    2.8676   10.1888   22.8479 H   0  0  0  0  0  0
    3.4803   10.9411   24.3085 H   0  0  0  0  0  0
    4.0890   11.4570   22.7648 H   0  0  0  0  0  0
    1.8119   14.3254   23.6812 H   0  0  0  0  0  0
    2.5467   13.3729   24.9621 H   0  0  0  0  0  0
    3.4992   13.8369   23.5774 H   0  0  0  0  0  0
   -3.6666   10.9221   24.8624 H   0  0  0  0  0  0
   -1.4277   12.8903   21.5835 H   0  0  0  0  0  0
    5.1794    6.0407   26.7922 H   0  0  0  0  0  0
    2.5487    6.7916   23.4823 H   0  0  0  0  0  0
   -0.3244    6.9173   24.9608 H   0  0  0  0  0  0
    0.3527    8.4099   24.3036 H   0  0  0  0  0  0
    0.9567    8.3064   28.3802 H   0  0  0  0  0  0
    0.1319    6.8196   27.8660 H   0  0  0  0  0  0
    3.4271    6.7790   28.3592 H   0  0  0  0  0  0
    5.6016    5.0399   24.4554 H   0  0  0  0  0  0
    4.5397    5.4903   23.1445 H   0  0  0  0  0  0
    4.5577    7.9966   22.4631 H   0  0  0  0  0  0
    4.8694    8.6559   24.0588 H   0  0  0  0  0  0
    5.9022   10.1151   22.3601 H   0  0  0  0  0  0
    6.7542    8.7706   21.6357 H   0  0  0  0  0  0
    9.0206    8.2158   24.4063 H   0  0  0  0  0  0
    8.4719    7.6465   22.8553 H   0  0  0  0  0  0
    6.7745    7.5656   25.4271 H   0  0  0  0  0  0
    7.5999    6.1970   24.7094 H   0  0  0  0  0  0
    7.9739   11.3019   22.7972 H   0  0  0  0  0  0
    9.2544   10.4890   23.6838 H   0  0  0  0  0  0
    8.8532    9.9809   22.0275 H   0  0  0  0  0  0
  1  2  2  0  0  0
  1  3  1  0  0  0
  1 19  1  0  0  0
  3  4  2  0  0  0
  3  8  1  0  0  0
  4  5  1  0  0  0
  4 12  1  0  0  0
  5  6  2  0  0  0
  5 31  1  0  0  0
  6  7  1  0  0  0
  6 13  1  0  0  0
  7  8  2  0  0  0
  7  9  1  0  0  0
  8 32  1  0  0  0
  9 10  1  0  0  0
  9 11  1  0  0  0
  9 33  1  0  0  0
 10 34  1  0  0  0
 10 35  1  0  0  0
 10 36  1  0  0  0
 11 37  1  0  0  0
 11 38  1  0  0  0
 11 39  1  0  0  0
 12 40  1  0  0  0
 13 41  1  0  0  0
 14 15  2  0  0  0
 14 22  1  0  0  0
 14 42  1  0  0  0
 15 16  1  0  0  0
 15 23  1  0  0  0
 16 17  2  0  0  0
 16 43  1  0  0  0
 17 18  1  0  0  0
 17 21  1  0  0  0
 18 19  1  0  0  0
 18 44  1  0  0  0
 18 45  1  0  0  0
 19 20  1  0  0  0
 20 21  1  0  0  0
 20 46  1  0  0  0
 20 47  1  0  0  0
 21 22  2  0  0  0
 22 48  1  0  0  0
 23 29  1  0  0  0
 23 49  1  0  0  0
 23 50  1  0  0  0
 24 25  1  0  0  0
 24 29  1  0  0  0
 24 51  1  0  0  0
 24 52  1  0  0  0
 25 26  1  0  0  0
 25 53  1  0  0  0
 25 54  1  0  0  0
 26 27  1  0  0  0
 26 30  1  0  0  0
 27 28  1  0  0  0
 27 55  1  0  0  0
 27 56  1  0  0  0
 28 29  1  0  0  0
 28 57  1  0  0  0
 28 58  1  0  0  0
 30 59  1  0  0  0
 30 60  1  0  0  0
 30 61  1  0  0  0
M  END
> <s_m_entry_id>
5106

> <s_m_entry_name>
dock_pv.425

> <s_m_Source_Path>
/home/csk/Desktop/cluster/DUD-E-result/hs90a

> <s_m_Source_File>
dock_pv.maegz

> <i_m_Source_File_Index>
425

> <chembl_id>
CHEMBL1214827

> <chembl_pref_name>
ONALESPIB

> <i_lp_mmshare_version>
53161

> <r_lp_tautomer_probability>
0.999999999898

> <s_lp_Force_Field>
OPLS_2005

> <r_lp_Energy>
56.560105

> <b_lp_Chiralities_Consistent>
1

> <s_lp_Variant>
CHEMBL3880_lig141-1

> <s_i_glide_gridfile>
glide-grid_1uyg

> <i_i_glide_lignum>
158

> <i_i_glide_rotatable_bonds>
7

> <r_i_docking_score>
-7.01634043331527

> <r_i_glide_ligand_efficiency>
-0.233878014443842

> <r_i_glide_ligand_efficiency_sa>
-0.726713368083954

> <r_i_glide_ligand_efficiency_ln>
-1.59418899560135

> <r_i_glide_gscore>
-7.01634043331527

> <r_i_glide_lipo>
-3.63369992410445

> <r_i_glide_hbond>
0

> <r_i_glide_metal>
0

> <r_i_glide_rewards>
-1.1453512119172

> <r_i_glide_evdw>
-39.5988082885742

> <r_i_glide_ecoul>
-4.84675312042236

> <r_i_glide_erotb>
0.46966408519845

> <r_i_glide_esite>
0

> <r_i_glide_emodel>
-45.7173000432945

> <r_i_glide_energy>
-44.4455614089966

> <r_i_glide_einternal>
11.9228267669678

> <i_i_glide_confnum>
27

> <i_i_glide_posenum>
131

> <r_i_glide_eff_state_penalty>
0

> <s_user_duplicate_titles>
CHEMBL3880_lig141

> <i_f3d_flags>
0

> <s_m_subgroup_title>
dock_pv

> <s_m_subgroupid>
dock_pv

> <b_m_subgroup_collapsed>
1

$$$$
CHEMBL3880_lig27
                    3D
 Schrodinger Suite 2021-1.
 59 62  0  0  1  0            999 V2000
    4.4505    8.2864   23.1860 O   0  0  0  0  0  0
    7.1215   14.0457   24.1852 O   0  0  0  0  0  0
    2.6074    9.2944   23.9384 N   0  0  0  0  0  0
    0.5570    7.6959   25.6570 N   0  0  2  0  0  0
   -0.6137   12.0949   23.8101 N   0  0  0  0  0  0
    0.4747   12.3541   23.0675 N   0  0  0  0  0  0
    3.8593    9.4444   23.5726 C   0  0  0  0  0  0
    2.3657    7.9923   23.8776 C   0  0  0  0  0  0
    3.4878    7.3509   23.3647 C   0  0  0  0  0  0
    4.6789   10.6952   23.6277 C   0  0  0  0  0  0
    1.0167    7.3920   24.2834 C   0  0  0  0  0  0
    0.3090    9.1221   25.9902 C   0  0  2  0  0  0
    6.0574   10.6466   23.3991 C   0  0  0  0  0  0
    4.0830   11.9143   23.9679 C   0  0  0  0  0  0
    1.3832    6.9866   26.6455 C   0  0  0  0  0  0
    6.2548   12.9912   23.9670 C   0  0  0  0  0  0
    6.8363   11.7888   23.5666 C   0  0  0  0  0  0
    4.8619   13.0575   24.1323 C   0  0  0  0  0  0
    3.8401    5.9281   23.0073 C   0  0  0  0  0  0
   -0.2802    9.2678   27.4192 C   0  0  0  0  0  0
   -0.5071    9.9229   24.9480 C   0  0  0  0  0  0
    0.7776    7.0735   28.0572 C   0  0  0  0  0  0
    0.5487    8.5273   28.4804 C   0  0  0  0  0  0
   -0.4623   11.4576   25.1132 C   0  0  0  0  0  0
   -1.7787   12.3157   23.1244 C   0  0  0  0  0  0
    0.0013   12.7690   21.9154 C   0  0  0  0  0  0
   -1.3972   12.7686   21.8776 C   0  0  0  0  0  0
    6.6738   15.2342   24.8405 C   0  0  0  0  0  0
    6.4293   15.0239   26.3417 C   0  0  0  0  0  0
    1.0467    6.3075   24.1688 H   0  0  0  0  0  0
    0.2443    7.6979   23.5794 H   0  0  0  0  0  0
    1.3022    9.5662   26.0645 H   0  0  0  0  0  0
    6.5376    9.7168   23.1294 H   0  0  0  0  0  0
    3.0183   11.9746   24.1419 H   0  0  0  0  0  0
    2.4066    7.3658   26.6201 H   0  0  0  0  0  0
    1.4388    5.9329   26.3671 H   0  0  0  0  0  0
    7.9056   11.7350   23.4205 H   0  0  0  0  0  0
    4.3722   13.9755   24.4165 H   0  0  0  0  0  0
    4.6863    5.5671   23.5910 H   0  0  0  0  0  0
    3.0089    5.2451   23.1826 H   0  0  0  0  0  0
    4.1100    5.8394   21.9551 H   0  0  0  0  0  0
   -0.3391   10.3217   27.6892 H   0  0  0  0  0  0
   -1.2998    8.8867   27.4473 H   0  0  0  0  0  0
   -1.5389    9.5725   24.9141 H   0  0  0  0  0  0
   -0.1076    9.6994   23.9670 H   0  0  0  0  0  0
    1.4535    6.5954   28.7666 H   0  0  0  0  0  0
   -0.1469    6.4957   28.1018 H   0  0  0  0  0  0
    1.5127    9.0237   28.5948 H   0  0  0  0  0  0
    0.0609    8.5687   29.4543 H   0  0  0  0  0  0
    0.4910   11.7822   25.5353 H   0  0  0  0  0  0
   -1.2522   11.8095   25.7769 H   0  0  0  0  0  0
   -2.7390   12.1072   23.5695 H   0  0  0  0  0  0
    0.6576   13.0691   21.1137 H   0  0  0  0  0  0
   -2.0437   13.0393   21.0541 H   0  0  0  0  0  0
    7.4673   15.9690   24.7153 H   0  0  0  0  0  0
    5.7931   15.6659   24.3670 H   0  0  0  0  0  0
    6.2163   15.9696   26.8381 H   0  0  0  0  0  0
    5.5791   14.3690   26.5243 H   0  0  0  0  0  0
    7.3062   14.5890   26.8213 H   0  0  0  0  0  0
  1  7  1  0  0  0
  1  9  1  0  0  0
  2 16  1  0  0  0
  2 28  1  0  0  0
  3  7  2  0  0  0
  3  8  1  0  0  0
  4 11  1  0  0  0
  4 12  1  0  0  0
  4 15  1  0  0  0
  5  6  1  0  0  0
  5 24  1  0  0  0
  5 25  1  0  0  0
  6 26  2  0  0  0
  7 10  1  0  0  0
  8  9  2  0  0  0
  8 11  1  0  0  0
  9 19  1  0  0  0
 10 13  2  0  0  0
 10 14  1  0  0  0
 11 30  1  0  0  0
 11 31  1  0  0  0
 12 20  1  0  0  0
 12 21  1  0  0  0
 12 32  1  0  0  0
 13 17  1  0  0  0
 13 33  1  0  0  0
 14 18  2  0  0  0
 14 34  1  0  0  0
 15 22  1  0  0  0
 15 35  1  0  0  0
 15 36  1  0  0  0
 16 17  2  0  0  0
 16 18  1  0  0  0
 17 37  1  0  0  0
 18 38  1  0  0  0
 19 39  1  0  0  0
 19 40  1  0  0  0
 19 41  1  0  0  0
 20 23  1  0  0  0
 20 42  1  0  0  0
 20 43  1  0  0  0
 21 24  1  0  0  0
 21 44  1  0  0  0
 21 45  1  0  0  0
 22 23  1  0  0  0
 22 46  1  0  0  0
 22 47  1  0  0  0
 23 48  1  0  0  0
 23 49  1  0  0  0
 24 50  1  0  0  0
 24 51  1  0  0  0
 25 27  2  0  0  0
 25 52  1  0  0  0
 26 27  1  0  0  0
 26 53  1  0  0  0
 27 54  1  0  0  0
 28 29  1  0  0  0
 28 55  1  0  0  0
 28 56  1  0  0  0
 29 57  1  0  0  0
 29 58  1  0  0  0
 29 59  1  0  0  0
M  END
> <s_m_entry_id>
5107

> <s_m_entry_name>
dock_pv.426

> <s_m_Source_Path>
/home/csk/Desktop/cluster/DUD-E-result/hs90a

> <s_m_Source_File>
dock_pv.maegz

> <i_m_Source_File_Index>
426

> <chembl_id>
CHEMBL1458996

> <chembl_pref_name>
None

> <i_lp_mmshare_version>
53161

> <r_lp_tautomer_probability>
1

> <s_lp_Force_Field>
OPLS_2005

> <r_lp_Energy>
29.90626

> <b_lp_Chiralities_Consistent>
1

> <s_lp_Variant>
CHEMBL3880_lig27-1

> <s_i_glide_gridfile>
glide-grid_1uyg

> <i_i_glide_lignum>
31

> <i_i_glide_rotatable_bonds>
8

> <r_i_docking_score>
-7.01382096338937

> <r_i_glide_ligand_efficiency>
-0.241855895289289

> <r_i_glide_ligand_efficiency_sa>
-0.743057935654564

> <r_i_glide_ligand_efficiency_ln>
-1.6059871454623

> <r_i_glide_gscore>
-7.01382096338937

> <r_i_glide_lipo>
-4.21489307847291

> <r_i_glide_hbond>
0

> <r_i_glide_metal>
0

> <r_i_glide_rewards>
-1.2697635491776

> <r_i_glide_evdw>
-45.1898078918457

> <r_i_glide_ecoul>
-0.991731107234955

> <r_i_glide_erotb>
0.879085724938669

> <r_i_glide_esite>
0

> <r_i_glide_emodel>
-60.4396377431386

> <r_i_glide_energy>
-46.1815389990807

> <r_i_glide_einternal>
10.000373840332

> <i_i_glide_confnum>
3

> <i_i_glide_posenum>
346

> <r_i_glide_eff_state_penalty>
0

> <s_user_duplicate_titles>
CHEMBL3880_lig27

> <i_f3d_flags>
0

> <s_m_subgroup_title>
dock_pv

> <s_m_subgroupid>
dock_pv

> <b_m_subgroup_collapsed>
1

$$$$
CHEMBL3880_lig980
                    3D
 Schrodinger Suite 2021-1.
 63 66  0  0  1  0            999 V2000
    8.9602   14.0438   26.2206 C   0  0  0  0  0  0
    7.8404   14.3264   25.1875 C   0  0  0  0  0  0
    8.3941   15.0433   23.9671 C   0  0  0  0  0  0
    6.9711    9.0980   22.8117 C   0  0  0  0  0  0
    6.4828   10.3957   22.9105 C   0  0  0  0  0  0
    5.0237    8.3000   23.9672 C   0  0  0  0  0  0
    6.2644    8.0268   23.3947 C   0  0  0  0  0  0
    5.3183   10.6728   23.6273 C   0  0  0  0  0  0
    4.5503    9.6040   24.1579 C   0  0  0  0  0  0
    3.3870    9.8223   24.9226 N   0  0  0  0  0  0
    2.2416   10.5221   24.3309 C   0  0  0  0  0  0
    2.5533   11.5942   23.2807 C   0  0  0  0  0  0
    3.6701   12.5081   23.7379 C   0  0  0  0  0  0
    4.9574   12.0281   23.8570 N   0  0  0  0  0  0
    3.6340   13.8213   24.1600 C   0  0  0  0  0  0
    4.9358   14.1543   24.5775 C   0  0  0  0  0  0
    5.7577   13.0707   24.3200 C   0  0  0  0  0  0
    7.2581   12.9893   24.6655 C   0  0  0  0  0  0
    6.7799   15.1909   25.9211 C   0  0  0  0  0  0
    5.4408   15.3703   25.1985 C   0  0  0  0  0  0
    6.7535    6.5965   23.4429 C   0  0  0  0  0  0
    5.9802    5.6429   23.3904 O   0  0  0  0  0  0
    8.0599    6.4065   23.5925 N   0  0  0  0  0  0
    4.8608   16.4483   25.1687 O   0  0  0  0  0  0
    2.3837   14.6476   24.2297 C   0  0  0  0  0  0
    8.4609    8.9150   21.9672 Cl  0  0  0  0  0  0
    3.0860    8.8794   26.0198 C   0  0  0  0  0  0
    2.0362    7.7936   25.7125 C   0  0  0  0  0  0
    0.5855    8.2581   25.9760 C   0  0  0  0  0  0
    0.0403    7.7514   27.3252 C   0  0  0  0  0  0
   -0.3388    7.9033   24.8081 C   0  0  0  0  0  0
    8.5718   13.5695   27.1219 H   0  0  0  0  0  0
    9.7280   13.3855   25.8126 H   0  0  0  0  0  0
    9.4552   14.9646   26.5343 H   0  0  0  0  0  0
    7.6610   15.1748   23.1780 H   0  0  0  0  0  0
    8.8394   15.9766   24.2474 H   0  0  0  0  0  0
    9.2117   14.4676   23.5671 H   0  0  0  0  0  0
    7.0454   11.1949   22.4510 H   0  0  0  0  0  0
    4.4525    7.4721   24.3632 H   0  0  0  0  0  0
    1.7082   11.0180   25.1434 H   0  0  0  0  0  0
    1.5404    9.8062   23.9053 H   0  0  0  0  0  0
    1.6396   12.1431   23.0504 H   0  0  0  0  0  0
    2.7936   11.1039   22.3377 H   0  0  0  0  0  0
    7.8827   12.5576   23.8841 H   0  0  0  0  0  0
    7.3457   12.3690   25.5280 H   0  0  0  0  0  0
    7.1711   16.1752   26.1346 H   0  0  0  0  0  0
    6.5312   14.7643   26.8917 H   0  0  0  0  0  0
    8.4123    5.4640   23.6343 H   0  0  0  0  0  0
    8.6925    7.1913   23.5482 H   0  0  0  0  0  0
    2.5919   15.5690   24.7418 H   0  0  0  0  0  0
    1.9759   14.8642   23.2437 H   0  0  0  0  0  0
    1.5866   14.1324   24.7644 H   0  0  0  0  0  0
    2.7404    9.4835   26.8598 H   0  0  0  0  0  0
    3.9844    8.3688   26.3667 H   0  0  0  0  0  0
    2.2553    6.8908   26.2850 H   0  0  0  0  0  0
    2.1434    7.5056   24.6656 H   0  0  0  0  0  0
    0.5729    9.3448   26.0498 H   0  0  0  0  0  0
   -0.0462    6.6646   27.3384 H   0  0  0  0  0  0
    0.6955    8.0414   28.1468 H   0  0  0  0  0  0
   -0.9461    8.1640   27.5410 H   0  0  0  0  0  0
   -0.7589    6.8998   24.8940 H   0  0  0  0  0  0
   -1.1390    8.6359   24.7671 H   0  0  0  0  0  0
    0.1555    7.9665   23.8386 H   0  0  0  0  0  0
  1  2  1  0  0  0
  1 32  1  0  0  0
  1 33  1  0  0  0
  1 34  1  0  0  0
  2  3  1  0  0  0
  2 18  1  0  0  0
  2 19  1  0  0  0
  3 35  1  0  0  0
  3 36  1  0  0  0
  3 37  1  0  0  0
  4  5  2  0  0  0
  4  7  1  0  0  0
  4 26  1  0  0  0
  5  8  1  0  0  0
  5 38  1  0  0  0
  6  9  1  0  0  0
  6  7  2  0  0  0
  6 39  1  0  0  0
  7 21  1  0  0  0
  8  9  2  0  0  0
  8 14  1  0  0  0
  9 10  1  0  0  0
 10 11  1  0  0  0
 10 27  1  0  0  0
 11 12  1  0  0  0
 11 40  1  0  0  0
 11 41  1  0  0  0
 12 13  1  0  0  0
 12 42  1  0  0  0
 12 43  1  0  0  0
 13 14  1  0  0  0
 13 15  2  0  0  0
 14 17  1  0  0  0
 15 16  1  0  0  0
 15 25  1  0  0  0
 16 17  2  0  0  0
 16 20  1  0  0  0
 17 18  1  0  0  0
 18 44  1  0  0  0
 18 45  1  0  0  0
 19 20  1  0  0  0
 19 46  1  0  0  0
 19 47  1  0  0  0
 20 24  2  0  0  0
 21 22  2  0  0  0
 21 23  1  0  0  0
 23 48  1  0  0  0
 23 49  1  0  0  0
 25 50  1  0  0  0
 25 51  1  0  0  0
 25 52  1  0  0  0
 27 28  1  0  0  0
 27 53  1  0  0  0
 27 54  1  0  0  0
 28 29  1  0  0  0
 28 55  1  0  0  0
 28 56  1  0  0  0
 29 30  1  0  0  0
 29 31  1  0  0  0
 29 57  1  0  0  0
 30 58  1  0  0  0
 30 59  1  0  0  0
 30 60  1  0  0  0
 31 61  1  0  0  0
 31 62  1  0  0  0
 31 63  1  0  0  0
M  END
> <s_m_entry_id>
5108

> <s_m_entry_name>
dock_pv.427

> <s_m_Source_Path>
/home/csk/Desktop/cluster/DUD-E-result/hs90a

> <s_m_Source_File>
dock_pv.maegz

> <i_m_Source_File_Index>
427

> <chembl_id>
CHEMBL3401153

> <chembl_pref_name>
None

> <i_lp_mmshare_version>
53161

> <r_lp_tautomer_probability>
0.99995

> <s_lp_Force_Field>
OPLS_2005

> <r_lp_Energy>
36.958009

> <b_lp_Chiralities_Consistent>
1

> <s_lp_Variant>
CHEMBL3880_lig980-1

> <s_i_glide_gridfile>
glide-grid_1uyg

> <i_i_glide_lignum>
1089

> <i_i_glide_rotatable_bonds>
4

> <r_i_docking_score>
-7.01349787775608

> <r_i_glide_ligand_efficiency>
-0.22624186702439

> <r_i_glide_ligand_efficiency_sa>
-0.710711823017799

> <r_i_glide_ligand_efficiency_ln>
-1.58175870933088

> <r_i_glide_gscore>
-7.01349787775608

> <r_i_glide_lipo>
-4.4442292307461

> <r_i_glide_hbond>
0

> <r_i_glide_metal>
0

> <r_i_glide_rewards>
-1.87395602775436

> <r_i_glide_evdw>
-23.771656036377

> <r_i_glide_ecoul>
2.16690325737

> <r_i_glide_erotb>
0.204543974305624

> <r_i_glide_esite>
-0.036309280347891

> <r_i_glide_emodel>
-42.2533158788866

> <r_i_glide_energy>
-21.604752779007

> <r_i_glide_einternal>
4.99308347702026

> <i_i_glide_confnum>
4

> <i_i_glide_posenum>
324

> <r_i_glide_eff_state_penalty>
0

> <s_user_duplicate_titles>
CHEMBL3880_lig980

> <i_f3d_flags>
0

> <s_m_subgroup_title>
dock_pv

> <s_m_subgroupid>
dock_pv

> <b_m_subgroup_collapsed>
1

$$$$
CHEMBL3880_lig436
                    3D
 Schrodinger Suite 2021-1.
 26 28  0  0  1  0            999 V2000
    7.1073   10.9161   23.2632 C   0  0  0  0  0  0
    6.2899    9.8004   23.0975 C   0  0  0  0  0  0
    4.9079    9.9084   23.2477 C   0  0  0  0  0  0
    4.3263   11.1462   23.5657 C   0  0  0  0  0  0
    5.1548   12.2658   23.7130 C   0  0  0  0  0  0
    6.5404   12.1555   23.5681 C   0  0  0  0  0  0
    8.4609   10.7682   23.1261 O   0  0  0  0  0  0
    4.1429    8.7882   23.0443 O   0  0  0  0  0  0
    7.5320   13.5538   23.8087 Cl  0  0  0  0  0  0
    2.1851   10.3779   24.4765 O   0  0  0  0  0  0
    2.8515   11.3096   23.7270 C   0  0  0  0  0  0
    2.1081   12.2759   23.2255 N   0  0  0  0  0  0
    0.8432   11.9480   23.6259 C   0  0  0  0  0  0
    0.8893   10.7827   24.4089 C   0  0  0  0  0  0
   -0.2463   10.1882   24.9737 C   0  0  0  0  0  0
   -1.4699   10.8128   24.7089 C   0  0  0  0  0  0
   -1.5387   11.9694   23.9220 C   0  0  0  0  0  0
   -0.3931   12.5584   23.3716 C   0  0  0  0  0  0
    6.7372    8.8479   22.8519 H   0  0  0  0  0  0
    4.7250   13.2311   23.9517 H   0  0  0  0  0  0
    8.9598   11.5964   23.1630 H   0  0  0  0  0  0
    4.6615    8.0220   22.7898 H   0  0  0  0  0  0
   -0.1807    9.2858   25.5640 H   0  0  0  0  0  0
   -2.3865   10.3954   25.1058 H   0  0  0  0  0  0
   -2.5080   12.4148   23.7363 H   0  0  0  0  0  0
   -0.4627   13.4506   22.7692 H   0  0  0  0  0  0
  1  2  1  0  0  0
  1  6  2  0  0  0
  1  7  1  0  0  0
  2  3  2  0  0  0
  2 19  1  0  0  0
  3  4  1  0  0  0
  3  8  1  0  0  0
  4  5  2  0  0  0
  4 11  1  0  0  0
  5  6  1  0  0  0
  5 20  1  0  0  0
  6  9  1  0  0  0
  7 21  1  0  0  0
  8 22  1  0  0  0
 10 11  1  0  0  0
 10 14  1  0  0  0
 11 12  2  0  0  0
 12 13  1  0  0  0
 13 14  1  0  0  0
 13 18  2  0  0  0
 14 15  2  0  0  0
 15 16  1  0  0  0
 15 23  1  0  0  0
 16 17  2  0  0  0
 16 24  1  0  0  0
 17 18  1  0  0  0
 17 25  1  0  0  0
 18 26  1  0  0  0
M  END
> <s_m_entry_id>
5109

> <s_m_entry_name>
dock_pv.428

> <s_m_Source_Path>
/home/csk/Desktop/cluster/DUD-E-result/hs90a

> <s_m_Source_File>
dock_pv.maegz

> <i_m_Source_File_Index>
428

> <chembl_id>
CHEMBL3926941

> <chembl_pref_name>
None

> <i_lp_mmshare_version>
53161

> <r_lp_tautomer_probability>
0.999999999898

> <s_lp_Force_Field>
OPLS_2005

> <r_lp_Energy>
16.209835

> <b_lp_Chiralities_Consistent>
1

> <s_lp_Variant>
CHEMBL3880_lig436-1

> <s_i_glide_gridfile>
glide-grid_1uyg

> <i_i_glide_lignum>
478

> <i_i_glide_rotatable_bonds>
3

> <r_i_docking_score>
-7.00391770205947

> <r_i_glide_ligand_efficiency>
-0.389106539003304

> <r_i_glide_ligand_efficiency_sa>
-1.01974761254083

> <r_i_glide_ligand_efficiency_ln>
-1.80032093021543

> <r_i_glide_gscore>
-7.00391770205947

> <r_i_glide_lipo>
-2.79549644928975

> <r_i_glide_hbond>
-0.32

> <r_i_glide_metal>
0

> <r_i_glide_rewards>
-1.93337728787879

> <r_i_glide_evdw>
-30.5290966033936

> <r_i_glide_ecoul>
-4.58324337005615

> <r_i_glide_erotb>
0.258897370787162

> <r_i_glide_esite>
0

> <r_i_glide_emodel>
-49.2828086899705

> <r_i_glide_energy>
-35.1123399734497

> <r_i_glide_einternal>
1.25833737850189

> <i_i_glide_confnum>
3

> <i_i_glide_posenum>
209

> <r_i_glide_eff_state_penalty>
0

> <s_user_duplicate_titles>
CHEMBL3880_lig436

> <i_f3d_flags>
0

> <s_m_subgroup_title>
dock_pv

> <s_m_subgroupid>
dock_pv

> <b_m_subgroup_collapsed>
1

$$$$
CHEMBL3880_lig76
                    3D
 Schrodinger Suite 2021-1.
 44 47  0  0  1  0            999 V2000
    5.3371    9.6044   23.4283 O   0  0  0  0  0  0
    8.1257   11.1229   23.4902 O   0  0  0  0  0  0
    2.6599    7.5742   24.6082 O   0  0  0  0  0  0
    2.6996    9.8521   24.2697 O   0  0  0  0  0  0
    2.3955    7.3472   27.3597 N   0  0  0  0  0  0
    4.6486    8.5411   23.9164 C   0  0  0  0  0  0
    6.6110    9.2100   23.1668 C   0  0  0  0  0  0
    5.4553   13.5671   24.3669 C   0  0  0  0  0  0
    6.2058   14.4567   25.1904 C   0  0  0  0  0  0
    3.2506    8.7488   24.2756 C   0  0  0  0  0  0
    7.4560   12.2339   23.9660 C   0  0  0  0  0  0
    5.4930    7.4399   23.9684 C   0  0  0  0  0  0
    6.7423    7.8723   23.5108 C   0  0  0  0  0  0
    6.1100   12.4997   23.7156 C   0  0  0  0  0  0
    7.5377   10.2346   22.5323 C   0  0  0  0  0  0
    7.5904   14.2347   25.3522 C   0  0  0  0  0  0
    8.1794   13.1186   24.7673 C   0  0  0  0  0  0
    4.0628   13.7296   24.2427 C   0  0  0  0  0  0
    5.5307   15.5084   25.8508 C   0  0  0  0  0  0
    1.3299    7.5285   25.1340 C   0  0  0  0  0  0
    1.2920    7.7218   26.6514 C   0  0  0  0  0  0
    3.4319   14.7689   24.8982 C   0  0  0  0  0  0
    4.1573   15.6467   25.7024 C   0  0  0  0  0  0
    0.1462    8.2326   27.2699 C   0  0  0  0  0  0
    2.3703    7.4818   28.7108 C   0  0  0  0  0  0
    0.1418    8.3668   28.6600 C   0  0  0  0  0  0
    1.2605    7.9717   29.3976 C   0  0  0  0  0  0
    5.2329    6.4464   24.3038 H   0  0  0  0  0  0
    7.6325    7.2703   23.4037 H   0  0  0  0  0  0
    5.5167   11.8745   23.0732 H   0  0  0  0  0  0
    8.3587    9.7143   22.0376 H   0  0  0  0  0  0
    7.0444   10.7973   21.7413 H   0  0  0  0  0  0
    8.1691   14.8966   25.9823 H   0  0  0  0  0  0
    9.2205   12.9144   24.9603 H   0  0  0  0  0  0
    3.4935   13.0477   23.6267 H   0  0  0  0  0  0
    6.0812   16.1935   26.4801 H   0  0  0  0  0  0
    0.8880    6.5596   24.8995 H   0  0  0  0  0  0
    0.7139    8.2897   24.6506 H   0  0  0  0  0  0
    2.3673   14.8913   24.7670 H   0  0  0  0  0  0
    3.6613   16.4575   26.2144 H   0  0  0  0  0  0
   -0.7228    8.5228   26.6945 H   0  0  0  0  0  0
    3.2669    7.1969   29.2437 H   0  0  0  0  0  0
   -0.7252    8.7703   29.1631 H   0  0  0  0  0  0
    1.2773    8.0802   30.4741 H   0  0  0  0  0  0
  1  6  1  0  0  0
  1  7  1  0  0  0
  2 11  1  0  0  0
  2 15  1  0  0  0
  3 10  1  0  0  0
  3 20  1  0  0  0
  4 10  2  0  0  0
  5 21  1  0  0  0
  5 25  2  0  0  0
  6 10  1  0  0  0
  6 12  2  0  0  0
  7 13  2  0  0  0
  7 15  1  0  0  0
  8  9  1  0  0  0
  8 14  2  0  0  0
  8 18  1  0  0  0
  9 16  2  0  0  0
  9 19  1  0  0  0
 11 14  1  0  0  0
 11 17  2  0  0  0
 12 13  1  0  0  0
 12 28  1  0  0  0
 13 29  1  0  0  0
 14 30  1  0  0  0
 15 31  1  0  0  0
 15 32  1  0  0  0
 16 17  1  0  0  0
 16 33  1  0  0  0
 17 34  1  0  0  0
 18 22  2  0  0  0
 18 35  1  0  0  0
 19 23  2  0  0  0
 19 36  1  0  0  0
 20 21  1  0  0  0
 20 37  1  0  0  0
 20 38  1  0  0  0
 21 24  2  0  0  0
 22 23  1  0  0  0
 22 39  1  0  0  0
 23 40  1  0  0  0
 24 26  1  0  0  0
 24 41  1  0  0  0
 25 27  1  0  0  0
 25 42  1  0  0  0
 26 27  2  0  0  0
 26 43  1  0  0  0
 27 44  1  0  0  0
M  END
> <s_m_entry_id>
5110

> <s_m_entry_name>
dock_pv.429

> <s_m_Source_Path>
/home/csk/Desktop/cluster/DUD-E-result/hs90a

> <s_m_Source_File>
dock_pv.maegz

> <i_m_Source_File_Index>
429

> <chembl_id>
CHEMBL1442683

> <chembl_pref_name>
None

> <i_lp_mmshare_version>
53161

> <r_lp_tautomer_probability>
1

> <s_lp_Force_Field>
OPLS_2005

> <r_lp_Energy>
17.406511

> <b_lp_Chiralities_Consistent>
1

> <s_lp_Variant>
CHEMBL3880_lig76-1

> <s_i_glide_gridfile>
glide-grid_1uyg

> <i_i_glide_lignum>
83

> <i_i_glide_rotatable_bonds>
7

> <r_i_docking_score>
-6.99021193452079

> <r_i_glide_ligand_efficiency>
-0.258896738315585

> <r_i_glide_ligand_efficiency_sa>
-0.776690214093473

> <r_i_glide_ligand_efficiency_ln>
-1.627206095706

> <r_i_glide_gscore>
-6.99021193452079

> <r_i_glide_lipo>
-4.06767289415765

> <r_i_glide_hbond>
0

> <r_i_glide_metal>
0

> <r_i_glide_rewards>
-1.99504838613965

> <r_i_glide_evdw>
-36.5173950195312

> <r_i_glide_ecoul>
0.0529526732861996

> <r_i_glide_erotb>
0.890436195760145

> <r_i_glide_esite>
0

> <r_i_glide_emodel>
-55.1813874737421

> <r_i_glide_energy>
-36.4644423462451

> <r_i_glide_einternal>
2.33677577972412

> <i_i_glide_confnum>
8

> <i_i_glide_posenum>
311

> <r_i_glide_eff_state_penalty>
0

> <s_user_duplicate_titles>
CHEMBL3880_lig76

> <i_f3d_flags>
0

> <s_m_subgroup_title>
dock_pv

> <s_m_subgroupid>
dock_pv

> <b_m_subgroup_collapsed>
1

$$$$
CHEMBL3880_lig89
                    3D
 Schrodinger Suite 2021-1.
 45 47  0  0  1  0            999 V2000
   -0.7386    6.4063   25.5655 F   0  0  0  0  0  0
    1.2156    6.0951   26.4465 F   0  0  0  0  0  0
    0.8780    5.6023   24.3641 F   0  0  0  0  0  0
    2.2243    8.0743   24.7355 O   0  0  0  0  0  0
    6.4906   14.3116   25.1672 N   0  0  0  0  0  0
    3.9349   12.2596   23.6972 N   0  0  0  0  0  0
    0.0635    8.8278   24.7694 N   0  0  0  0  0  0
    5.1400   12.7924   23.9679 N   0  0  0  0  0  0
    1.5021   12.2073   23.9394 C   0  0  0  0  0  0
    2.7968   12.9440   24.0037 C   0  0  0  0  0  0
    5.2382   13.9690   24.6571 C   0  0  0  0  0  0
    0.2024   10.1844   24.4033 C   0  0  0  0  0  0
    1.4261   10.8731   24.3602 C   0  0  0  0  0  0
    1.0223    7.8801   24.9259 C   0  0  0  0  0  0
    0.5731    6.4616   25.3362 C   0  0  0  0  0  0
    2.8607   14.2383   24.5162 C   0  0  0  0  0  0
    4.1015   14.7545   24.8770 C   0  0  0  0  0  0
    0.3188   12.8480   23.5509 C   0  0  0  0  0  0
   -0.9664   10.8636   24.0418 C   0  0  0  0  0  0
   -0.9063   12.1832   23.5985 C   0  0  0  0  0  0
    7.7555   13.9967   24.4626 C   0  0  0  0  0  0
    6.6059   15.2207   26.3268 C   0  0  0  0  0  0
    9.1333   15.1695   26.2411 C   0  0  0  0  0  0
    9.0043   13.9271   25.3718 C   0  0  0  0  0  0
    7.9094   15.1015   27.1474 C   0  0  0  0  0  0
   10.4496   15.1943   27.0336 C   0  0  0  0  0  0
   -0.8917    8.5028   24.8288 H   0  0  0  0  0  0
    2.3390   10.4006   24.6844 H   0  0  0  0  0  0
    1.9571   14.7694   24.7642 H   0  0  0  0  0  0
    4.1632   15.7095   25.3760 H   0  0  0  0  0  0
    0.3449   13.8773   23.2260 H   0  0  0  0  0  0
   -1.9267   10.3668   24.0667 H   0  0  0  0  0  0
   -1.8140   12.6923   23.3049 H   0  0  0  0  0  0
    7.6607   13.0241   23.9780 H   0  0  0  0  0  0
    7.8996   14.7272   23.6652 H   0  0  0  0  0  0
    6.4607   16.2451   25.9855 H   0  0  0  0  0  0
    5.7862   14.9992   27.0111 H   0  0  0  0  0  0
    9.0803   16.0594   25.6122 H   0  0  0  0  0  0
    9.0298   13.0026   25.9509 H   0  0  0  0  0  0
    9.9017   13.8562   24.7673 H   0  0  0  0  0  0
    7.9424   15.9070   27.8817 H   0  0  0  0  0  0
    7.9308   14.2141   27.7802 H   0  0  0  0  0  0
   10.5514   14.3183   27.6756 H   0  0  0  0  0  0
   11.3152   15.2288   26.3712 H   0  0  0  0  0  0
   10.4910   16.0755   27.6737 H   0  0  0  0  0  0
  1 15  1  0  0  0
  2 15  1  0  0  0
  3 15  1  0  0  0
  4 14  2  0  0  0
  5 11  1  0  0  0
  5 21  1  0  0  0
  5 22  1  0  0  0
  6  8  2  0  0  0
  6 10  1  0  0  0
  7 12  1  0  0  0
  7 14  1  0  0  0
  7 27  1  0  0  0
  8 11  1  0  0  0
  9 10  1  0  0  0
  9 13  1  0  0  0
  9 18  2  0  0  0
 10 16  2  0  0  0
 11 17  2  0  0  0
 12 13  2  0  0  0
 12 19  1  0  0  0
 13 28  1  0  0  0
 14 15  1  0  0  0
 16 17  1  0  0  0
 16 29  1  0  0  0
 17 30  1  0  0  0
 18 20  1  0  0  0
 18 31  1  0  0  0
 19 20  2  0  0  0
 19 32  1  0  0  0
 20 33  1  0  0  0
 21 24  1  0  0  0
 21 34  1  0  0  0
 21 35  1  0  0  0
 22 25  1  0  0  0
 22 36  1  0  0  0
 22 37  1  0  0  0
 23 24  1  0  0  0
 23 25  1  0  0  0
 23 26  1  0  0  0
 23 38  1  0  0  0
 24 39  1  0  0  0
 24 40  1  0  0  0
 25 41  1  0  0  0
 25 42  1  0  0  0
 26 43  1  0  0  0
 26 44  1  0  0  0
 26 45  1  0  0  0
M  END
> <s_m_entry_id>
5111

> <s_m_entry_name>
dock_pv.430

> <s_m_Source_Path>
/home/csk/Desktop/cluster/DUD-E-result/hs90a

> <s_m_Source_File>
dock_pv.maegz

> <i_m_Source_File_Index>
430

> <chembl_id>
CHEMBL1503659

> <chembl_pref_name>
None

> <i_lp_mmshare_version>
53161

> <r_lp_tautomer_probability>
1

> <s_lp_Force_Field>
OPLS_2005

> <r_lp_Energy>
39.665665

> <b_lp_Chiralities_Consistent>
1

> <s_lp_Variant>
CHEMBL3880_lig89-1

> <s_i_glide_gridfile>
glide-grid_1uyg

> <i_i_glide_lignum>
100

> <i_i_glide_rotatable_bonds>
5

> <r_i_docking_score>
-6.98758801105337

> <r_i_glide_ligand_efficiency>
-0.268753385040514

> <r_i_glide_ligand_efficiency_sa>
-0.796180845689017

> <r_i_glide_ligand_efficiency_ln>
-1.64101211624952

> <r_i_glide_gscore>
-6.98758801105337

> <r_i_glide_lipo>
-3.99296910440388

> <r_i_glide_hbond>
-0.0696195789306696

> <r_i_glide_metal>
0

> <r_i_glide_rewards>
-1.36845396339366

> <r_i_glide_evdw>
-40.2020568847656

> <r_i_glide_ecoul>
-0.837631642818451

> <r_i_glide_erotb>
0.579202226335889

> <r_i_glide_esite>
0

> <r_i_glide_emodel>
-50.3768946447844

> <r_i_glide_energy>
-41.0396885275841

> <r_i_glide_einternal>
4.46220207214355

> <i_i_glide_confnum>
2

> <i_i_glide_posenum>
110

> <r_i_glide_eff_state_penalty>
0

> <s_user_duplicate_titles>
CHEMBL3880_lig89

> <i_f3d_flags>
0

> <s_m_subgroup_title>
dock_pv

> <s_m_subgroupid>
dock_pv

> <b_m_subgroup_collapsed>
1

$$$$
CHEMBL3880_lig818
                    3D
 Schrodinger Suite 2021-1.
 56 57  0  0  1  0            999 V2000
    0.3284   12.3420   23.7548 C   0  0  0  0  0  0
   -0.8249   12.2396   22.9609 C   0  0  0  0  0  0
   -1.9386   11.5689   23.4438 C   0  0  0  0  0  0
   -1.9118   10.9626   24.6945 C   0  0  0  0  0  0
   -0.7500   10.9648   25.4614 C   0  0  0  0  0  0
    0.3612   11.6758   24.9915 C   0  0  0  0  0  0
   -3.0417   10.3690   25.1670 O   0  0  0  0  0  0
   -0.9034   12.7691   21.6995 O   0  0  0  0  0  0
    1.5455   13.1481   23.2894 C   0  0  0  0  0  0
   -0.7188   10.2082   26.7670 C   0  0  0  0  0  0
   -0.3190    8.9080   26.7607 N   0  0  0  0  0  0
   -1.1421   10.7691   27.7718 O   0  0  0  0  0  0
   -0.1119    8.1693   28.0123 C   0  0  0  0  0  0
    0.1015    8.1772   25.5474 C   0  0  0  0  0  0
    1.5327    8.4427   25.0856 C   0  0  0  0  0  0
    2.3726    9.2723   25.8284 C   0  0  0  0  0  0
    3.6021    9.6383   25.3282 C   0  0  0  0  0  0
    4.0679    9.1130   24.1235 C   0  0  0  0  0  0
    3.2577    8.2306   23.3958 C   0  0  0  0  0  0
    1.9841    7.9104   23.8730 C   0  0  0  0  0  0
    5.4320    9.5455   23.6681 C   0  0  0  0  0  0
    6.2118    8.6127   23.0944 N   0  0  0  0  0  0
    5.8348   10.6727   23.9670 O   0  0  0  0  0  0
    2.6918   12.2161   22.8856 C   0  0  0  0  0  0
    2.0215   14.1676   24.3390 C   0  0  0  0  0  0
    7.6739    8.7052   22.9525 C   0  0  0  0  0  0
    8.2654   10.0258   22.3922 C   0  0  0  0  0  0
    7.4230   10.7689   21.3456 C   0  0  0  0  0  0
   -2.8394   11.5205   22.8523 H   0  0  0  0  0  0
    1.2611   11.7222   25.5859 H   0  0  0  0  0  0
   -3.0068   10.1689   26.1036 H   0  0  0  0  0  0
   -1.7688   12.6087   21.3116 H   0  0  0  0  0  0
    1.2612   13.7330   22.4138 H   0  0  0  0  0  0
   -0.4096    8.7319   28.8996 H   0  0  0  0  0  0
   -0.6896    7.2446   28.0018 H   0  0  0  0  0  0
    0.9403    7.9068   28.1274 H   0  0  0  0  0  0
   -0.0199    7.1052   25.7098 H   0  0  0  0  0  0
   -0.5676    8.4405   24.7273 H   0  0  0  0  0  0
    2.0704    9.7000   26.7721 H   0  0  0  0  0  0
    4.1875   10.3465   25.8990 H   0  0  0  0  0  0
    3.5831    7.8209   22.4495 H   0  0  0  0  0  0
    1.3431    7.2671   23.2861 H   0  0  0  0  0  0
    5.7886    7.7420   22.8099 H   0  0  0  0  0  0
    2.4605   11.6785   21.9670 H   0  0  0  0  0  0
    2.8726   11.4787   23.6579 H   0  0  0  0  0  0
    3.6282   12.7597   22.7670 H   0  0  0  0  0  0
    1.1867   14.7504   24.7314 H   0  0  0  0  0  0
    2.5316   13.6736   25.1664 H   0  0  0  0  0  0
    2.7342   14.8707   23.9081 H   0  0  0  0  0  0
    8.0918    8.5419   23.9482 H   0  0  0  0  0  0
    8.0217    7.8580   22.3670 H   0  0  0  0  0  0
    8.4375   10.7045   23.2294 H   0  0  0  0  0  0
    9.2507    9.8315   21.9685 H   0  0  0  0  0  0
    7.6695   11.8277   21.3123 H   0  0  0  0  0  0
    7.5505   10.3691   20.3513 H   0  0  0  0  0  0
    6.3634   10.7535   21.5668 H   0  0  0  0  0  0
  1  2  2  0  0  0
  1  6  1  0  0  0
  1  9  1  0  0  0
  2  3  1  0  0  0
  2  8  1  0  0  0
  3  4  2  0  0  0
  3 29  1  0  0  0
  4  5  1  0  0  0
  4  7  1  0  0  0
  5  6  2  0  0  0
  5 10  1  0  0  0
  6 30  1  0  0  0
  7 31  1  0  0  0
  8 32  1  0  0  0
  9 24  1  0  0  0
  9 25  1  0  0  0
  9 33  1  0  0  0
 10 11  1  0  0  0
 10 12  2  0  0  0
 11 13  1  0  0  0
 11 14  1  0  0  0
 13 34  1  0  0  0
 13 35  1  0  0  0
 13 36  1  0  0  0
 14 15  1  0  0  0
 14 37  1  0  0  0
 14 38  1  0  0  0
 15 16  2  0  0  0
 15 20  1  0  0  0
 16 17  1  0  0  0
 16 39  1  0  0  0
 17 18  2  0  0  0
 17 40  1  0  0  0
 18 19  1  0  0  0
 18 21  1  0  0  0
 19 20  2  0  0  0
 19 41  1  0  0  0
 20 42  1  0  0  0
 21 22  1  0  0  0
 21 23  2  0  0  0
 22 26  1  0  0  0
 22 43  1  0  0  0
 24 44  1  0  0  0
 24 45  1  0  0  0
 24 46  1  0  0  0
 25 47  1  0  0  0
 25 48  1  0  0  0
 25 49  1  0  0  0
 26 27  1  0  0  0
 26 50  1  0  0  0
 26 51  1  0  0  0
 27 28  1  0  0  0
 27 52  1  0  0  0
 27 53  1  0  0  0
 28 54  1  0  0  0
 28 55  1  0  0  0
 28 56  1  0  0  0
M  END
> <s_m_entry_id>
5112

> <s_m_entry_name>
dock_pv.431

> <s_m_Source_Path>
/home/csk/Desktop/cluster/DUD-E-result/hs90a

> <s_m_Source_File>
dock_pv.maegz

> <i_m_Source_File_Index>
431

> <chembl_id>
CHEMBL4289811

> <chembl_pref_name>
None

> <i_lp_mmshare_version>
53161

> <r_lp_tautomer_probability>
0.999999999898

> <s_lp_Force_Field>
OPLS_2005

> <r_lp_Energy>
28.762245

> <b_lp_Chiralities_Consistent>
1

> <s_lp_Variant>
CHEMBL3880_lig818-1

> <s_i_glide_gridfile>
glide-grid_1uyg

> <i_i_glide_lignum>
919

> <i_i_glide_rotatable_bonds>
11

> <r_i_docking_score>
-6.98535131072787

> <r_i_glide_ligand_efficiency>
-0.249476832525995

> <r_i_glide_ligand_efficiency_sa>
-0.757558597545462

> <r_i_glide_ligand_efficiency_ln>
-1.61242418134258

> <r_i_glide_gscore>
-6.98535131072787

> <r_i_glide_lipo>
-3.72616297497541

> <r_i_glide_hbond>
-0.151895112115315

> <r_i_glide_metal>
0

> <r_i_glide_rewards>
-1.45819326956149

> <r_i_glide_evdw>
-35.2775764465332

> <r_i_glide_ecoul>
-5.37307929992676

> <r_i_glide_erotb>
0.920740763240026

> <r_i_glide_esite>
0

> <r_i_glide_emodel>
-50.4349898779538

> <r_i_glide_energy>
-40.65065574646

> <r_i_glide_einternal>
9.39164638519287

> <i_i_glide_confnum>
42

> <i_i_glide_posenum>
207

> <r_i_glide_eff_state_penalty>
0

> <s_user_duplicate_titles>
CHEMBL3880_lig818

> <i_f3d_flags>
0

> <s_m_subgroup_title>
dock_pv

> <s_m_subgroupid>
dock_pv

> <b_m_subgroup_collapsed>
1

$$$$
CHEMBL3880_lig109
                    3D
 Schrodinger Suite 2021-1.
 56 59  0  0  1  0            999 V2000
    2.7717    6.3366   24.0632 S   0  0  0  0  0  0
    1.6282    6.7925   23.2663 O   0  0  0  0  0  0
    2.8708    4.8785   24.1767 O   0  0  0  0  0  0
    4.8508   12.6989   23.9666 O   0  0  0  0  0  0
   -2.1190   13.4916   20.7672 O   0  0  0  0  0  0
   -3.1666   13.5692   22.7666 O   0  0  0  0  0  0
    4.2914    7.1843   23.7123 N   0  0  0  0  0  0
    2.4202   11.4672   24.7687 N   0  0  0  0  0  0
    4.3754    8.4556   23.7998 C   0  0  0  0  0  0
    5.6798    9.1360   23.5035 C   0  0  0  0  0  0
    2.4757    6.8285   25.8167 C   0  0  0  0  0  0
    5.8414   10.5488   23.5709 C   0  0  0  0  0  0
    4.7176   11.4705   23.9518 C   0  0  0  0  0  0
    3.4823   10.7440   24.2915 C   0  0  0  0  0  0
    3.3660    9.4047   24.1871 C   0  0  0  0  0  0
    3.4881    6.5941   26.7832 C   0  0  0  0  0  0
    1.2610    7.4282   26.2514 C   0  0  0  0  0  0
    6.8026    8.3637   23.1551 C   0  0  0  0  0  0
    7.0917   11.1205   23.2900 C   0  0  0  0  0  0
    3.2877    6.9658   28.1159 C   0  0  0  0  0  0
    1.0999    7.7922   27.5933 C   0  0  0  0  0  0
    2.1039    7.5645   28.5251 C   0  0  0  0  0  0
    1.2788   11.7800   24.0413 C   0  0  0  0  0  0
    8.0288    8.9488   22.8653 C   0  0  0  0  0  0
    8.1758   10.3260   22.9447 C   0  0  0  0  0  0
    4.8257    5.9298   26.4660 C   0  0  0  0  0  0
    0.0677    7.7059   25.3445 C   0  0  0  0  0  0
    1.3956   12.2587   22.7399 C   0  0  0  0  0  0
    0.0313   11.6376   24.6448 C   0  0  0  0  0  0
   -0.9938   12.5701   22.6700 C   0  0  0  0  0  0
    1.9213    7.9761   29.9744 C   0  0  0  0  0  0
    0.2592   12.6449   22.0533 C   0  0  0  0  0  0
   -1.1142   12.0209   23.9573 C   0  0  0  0  0  0
   -2.1660   13.1693   21.9506 C   0  0  0  0  0  0
   -3.3591   13.0088   23.5261 H   0  0  0  0  0  0
    2.1967   11.3182   25.7423 H   0  0  0  0  0  0
    2.3960    9.0207   24.4401 H   0  0  0  0  0  0
    6.7407    7.2867   23.0766 H   0  0  0  0  0  0
    7.2432   12.1904   23.3475 H   0  0  0  0  0  0
    4.0658    6.8010   28.8494 H   0  0  0  0  0  0
    0.1789    8.2521   27.9253 H   0  0  0  0  0  0
    8.8594    8.3197   22.5809 H   0  0  0  0  0  0
    9.1397   10.7692   22.7506 H   0  0  0  0  0  0
    5.2600    5.4746   27.3555 H   0  0  0  0  0  0
    4.7250    5.1211   25.7483 H   0  0  0  0  0  0
    5.5371    6.6540   26.0687 H   0  0  0  0  0  0
   -0.7387    8.1933   25.8850 H   0  0  0  0  0  0
    0.3226    8.3801   24.5281 H   0  0  0  0  0  0
   -0.3222    6.7823   24.9178 H   0  0  0  0  0  0
    2.3647   12.3692   22.2775 H   0  0  0  0  0  0
   -0.0551   11.2474   25.6489 H   0  0  0  0  0  0
    2.8602    8.3692   30.3676 H   0  0  0  0  0  0
    1.1795    8.7669   30.0877 H   0  0  0  0  0  0
    1.6257    7.1245   30.5846 H   0  0  0  0  0  0
    0.3711   13.0633   21.0648 H   0  0  0  0  0  0
   -2.0744   11.9302   24.4471 H   0  0  0  0  0  0
  1  2  2  0  0  0
  1  3  2  0  0  0
  1  7  1  0  0  0
  1 11  1  0  0  0
  4 13  2  0  0  0
  5 34  2  0  0  0
  6 34  1  0  0  0
  6 35  1  0  0  0
  7  9  2  0  0  0
  8 14  1  0  0  0
  8 23  1  0  0  0
  8 36  1  0  0  0
  9 10  1  0  0  0
  9 15  1  0  0  0
 10 12  1  0  0  0
 10 18  2  0  0  0
 11 16  2  0  0  0
 11 17  1  0  0  0
 12 13  1  0  0  0
 12 19  2  0  0  0
 13 14  1  0  0  0
 14 15  2  0  0  0
 15 37  1  0  0  0
 16 20  1  0  0  0
 16 26  1  0  0  0
 17 21  2  0  0  0
 17 27  1  0  0  0
 18 24  1  0  0  0
 18 38  1  0  0  0
 19 25  1  0  0  0
 19 39  1  0  0  0
 20 22  2  0  0  0
 20 40  1  0  0  0
 21 22  1  0  0  0
 21 41  1  0  0  0
 22 31  1  0  0  0
 23 28  2  0  0  0
 23 29  1  0  0  0
 24 25  2  0  0  0
 24 42  1  0  0  0
 25 43  1  0  0  0
 26 44  1  0  0  0
 26 45  1  0  0  0
 26 46  1  0  0  0
 27 47  1  0  0  0
 27 48  1  0  0  0
 27 49  1  0  0  0
 28 32  1  0  0  0
 28 50  1  0  0  0
 29 33  2  0  0  0
 29 51  1  0  0  0
 30 32  2  0  0  0
 30 33  1  0  0  0
 30 34  1  0  0  0
 31 52  1  0  0  0
 31 53  1  0  0  0
 31 54  1  0  0  0
 32 55  1  0  0  0
 33 56  1  0  0  0
M  END
> <s_m_entry_id>
5113

> <s_m_entry_name>
dock_pv.432

> <s_m_Source_Path>
/home/csk/Desktop/cluster/DUD-E-result/hs90a

> <s_m_Source_File>
dock_pv.maegz

> <i_m_Source_File_Index>
432

> <chembl_id>
CHEMBL3197091

> <chembl_pref_name>
None

> <i_lp_mmshare_version>
53161

> <r_lp_tautomer_probability>
1

> <s_lp_Force_Field>
OPLS_2005

> <r_lp_Energy>
37.789667

> <b_lp_Chiralities_Consistent>
1

> <s_lp_Variant>
CHEMBL3880_lig109-1

> <s_i_glide_gridfile>
glide-grid_1uyg

> <i_i_glide_lignum>
123

> <i_i_glide_rotatable_bonds>
6

> <r_i_docking_score>
-6.97868190354154

> <r_i_glide_ligand_efficiency>
-0.205255350104163

> <r_i_glide_ligand_efficiency_sa>
-0.664947653691173

> <r_i_glide_ligand_efficiency_ln>
-1.54178657788938

> <r_i_glide_gscore>
-6.97868190354154

> <r_i_glide_lipo>
-3.29026393357805

> <r_i_glide_hbond>
0

> <r_i_glide_metal>
0

> <r_i_glide_rewards>
-0.730839190202075

> <r_i_glide_evdw>
-49.436840057373

> <r_i_glide_ecoul>
-6.20910310745239

> <r_i_glide_erotb>
0.449325335222271

> <r_i_glide_esite>
-0.0036966459971798

> <r_i_glide_emodel>
-56.7431869932732

> <r_i_glide_energy>
-55.6459431648254

> <r_i_glide_einternal>
14.2824792861938

> <i_i_glide_confnum>
57

> <i_i_glide_posenum>
179

> <r_i_glide_eff_state_penalty>
0

> <s_user_duplicate_titles>
CHEMBL3880_lig109

> <i_f3d_flags>
0

> <s_m_subgroup_title>
dock_pv

> <s_m_subgroupid>
dock_pv

> <b_m_subgroup_collapsed>
1

$$$$
CHEMBL3880_lig413
                    3D
 Schrodinger Suite 2021-1.
 57 59  0  0  1  0            999 V2000
    7.1673    8.5232   23.4593 C   0  0  0  0  0  0
    6.8056    9.8337   23.1847 C   0  0  0  0  0  0
    5.5102   10.2604   23.4207 C   0  0  0  0  0  0
    4.5277    9.3826   23.9050 C   0  0  0  0  0  0
    4.9026    8.0522   24.1464 C   0  0  0  0  0  0
    6.2295    7.6207   23.9714 C   0  0  0  0  0  0
    6.6873    6.2257   24.4268 C   0  0  0  0  0  0
    7.0487    5.3134   23.2475 C   0  0  0  0  0  0
    5.7270    5.5211   25.4083 C   0  0  0  0  0  0
    8.4604    8.1577   23.2371 O   0  0  0  0  0  0
    5.2533   11.5687   23.1757 O   0  0  0  0  0  0
    3.0949    9.7668   24.1710 C   0  0  0  0  0  0
    2.2088    8.7428   24.0962 O   0  0  0  0  0  0
    0.9285    9.2023   24.3768 N   0  0  0  0  0  0
    1.0368   10.5005   24.5631 C   0  0  0  0  0  0
    2.3845   10.9332   24.5039 C   0  0  0  0  0  0
    2.9066   12.2744   24.7711 C   0  0  0  0  0  0
   -0.1371   11.3098   24.7415 C   0  0  0  0  0  0
   -0.3638   12.1216   23.6982 N   0  0  0  0  0  0
   -0.8812   11.1714   25.7147 O   0  0  0  0  0  0
    3.4197   13.3370   25.0868 C   0  0  0  0  0  0
    4.0963   14.5780   25.5380 C   0  0  0  0  0  0
   -1.5686   12.9136   23.4745 C   0  0  0  0  0  0
   -2.1512   12.6384   22.0876 C   0  0  0  0  0  0
    5.5482   14.3704   25.6379 N   0  0  0  0  0  0
    6.2194   14.4729   24.3514 C   0  0  0  0  0  0
    7.6579   13.9320   24.3657 C   0  0  0  0  0  0
    8.7436   14.9419   25.4050 S   0  0  0  0  0  0
    7.6777   14.9389   26.8799 C   0  0  0  0  0  0
    6.1809   15.2544   26.6195 C   0  0  0  0  0  0
    7.5477   10.5319   22.8084 H   0  0  0  0  0  0
    4.1603    7.3694   24.5262 H   0  0  0  0  0  0
    7.5994    6.3863   25.0041 H   0  0  0  0  0  0
    7.7917    5.7570   22.5848 H   0  0  0  0  0  0
    7.4890    4.3923   23.5987 H   0  0  0  0  0  0
    6.1719    5.0771   22.6422 H   0  0  0  0  0  0
    5.4165    6.1890   26.2138 H   0  0  0  0  0  0
    4.8310    5.1549   24.9039 H   0  0  0  0  0  0
    6.2178    4.6719   25.8820 H   0  0  0  0  0  0
    8.6040    7.2241   23.4136 H   0  0  0  0  0  0
    4.4178   11.8509   23.5617 H   0  0  0  0  0  0
    0.4221   12.3441   23.1069 H   0  0  0  0  0  0
    3.6696   14.8211   26.5148 H   0  0  0  0  0  0
    3.8530   15.3941   24.8564 H   0  0  0  0  0  0
   -2.3364   12.7209   24.2245 H   0  0  0  0  0  0
   -1.3089   13.9660   23.5690 H   0  0  0  0  0  0
   -3.0786   13.1936   21.9412 H   0  0  0  0  0  0
   -1.4597   12.9363   21.2950 H   0  0  0  0  0  0
   -2.3721   11.5780   21.9617 H   0  0  0  0  0  0
    6.1775   15.4840   23.9740 H   0  0  0  0  0  0
    5.6751   13.8936   23.6139 H   0  0  0  0  0  0
    7.6794   12.9032   24.7265 H   0  0  0  0  0  0
    8.0608   13.9328   23.3552 H   0  0  0  0  0  0
    7.8119   13.9726   27.3432 H   0  0  0  0  0  0
    8.0957   15.6544   27.5876 H   0  0  0  0  0  0
    5.6589   15.1379   27.5670 H   0  0  0  0  0  0
    6.0390   16.2980   26.3306 H   0  0  0  0  0  0
  1  2  2  0  0  0
  1  6  1  0  0  0
  1 10  1  0  0  0
  2  3  1  0  0  0
  2 31  1  0  0  0
  3  4  2  0  0  0
  3 11  1  0  0  0
  4  5  1  0  0  0
  4 12  1  0  0  0
  5  6  2  0  0  0
  5 32  1  0  0  0
  6  7  1  0  0  0
  7  8  1  0  0  0
  7  9  1  0  0  0
  7 33  1  0  0  0
  8 34  1  0  0  0
  8 35  1  0  0  0
  8 36  1  0  0  0
  9 37  1  0  0  0
  9 38  1  0  0  0
  9 39  1  0  0  0
 10 40  1  0  0  0
 11 41  1  0  0  0
 12 13  1  0  0  0
 12 16  2  0  0  0
 13 14  1  0  0  0
 14 15  2  0  0  0
 15 16  1  0  0  0
 15 18  1  0  0  0
 16 17  1  0  0  0
 17 21  3  0  0  0
 18 19  1  0  0  0
 18 20  2  0  0  0
 19 23  1  0  0  0
 19 42  1  0  0  0
 21 22  1  0  0  0
 22 25  1  0  0  0
 22 43  1  0  0  0
 22 44  1  0  0  0
 23 24  1  0  0  0
 23 45  1  0  0  0
 23 46  1  0  0  0
 24 47  1  0  0  0
 24 48  1  0  0  0
 24 49  1  0  0  0
 25 26  1  0  0  0
 25 30  1  0  0  0
 26 27  1  0  0  0
 26 50  1  0  0  0
 26 51  1  0  0  0
 27 28  1  0  0  0
 27 52  1  0  0  0
 27 53  1  0  0  0
 28 29  1  0  0  0
 29 30  1  0  0  0
 29 54  1  0  0  0
 29 55  1  0  0  0
 30 56  1  0  0  0
 30 57  1  0  0  0
M  END
> <s_m_entry_id>
5114

> <s_m_entry_name>
dock_pv.433

> <s_m_Source_Path>
/home/csk/Desktop/cluster/DUD-E-result/hs90a

> <s_m_Source_File>
dock_pv.maegz

> <i_m_Source_File_Index>
433

> <chembl_id>
CHEMBL3600504

> <chembl_pref_name>
None

> <i_lp_mmshare_version>
53161

> <r_lp_tautomer_probability>
0.999999999898

> <s_lp_Force_Field>
OPLS_2005

> <r_lp_Energy>
21.052831

> <b_lp_Chiralities_Consistent>
1

> <s_lp_Variant>
CHEMBL3880_lig413-1

> <s_i_glide_gridfile>
glide-grid_1uyg

> <i_i_glide_lignum>
455

> <i_i_glide_rotatable_bonds>
10

> <r_i_docking_score>
-6.97790687088593

> <r_i_glide_ligand_efficiency>
-0.232596895696198

> <r_i_glide_ligand_efficiency_sa>
-0.722732634271799

> <r_i_glide_ligand_efficiency_ln>
-1.5854564714502

> <r_i_glide_gscore>
-6.97790687088593

> <r_i_glide_lipo>
-3.82000661914433

> <r_i_glide_hbond>
0

> <r_i_glide_metal>
0

> <r_i_glide_rewards>
-1.10683740268624

> <r_i_glide_evdw>
-46.2513618469238

> <r_i_glide_ecoul>
-1.84712719917297

> <r_i_glide_erotb>
0.538574323166775

> <r_i_glide_esite>
0

> <r_i_glide_emodel>
-52.2000743820739

> <r_i_glide_energy>
-48.0984890460968

> <r_i_glide_einternal>
18.5674171447754

> <i_i_glide_confnum>
4

> <i_i_glide_posenum>
149

> <r_i_glide_eff_state_penalty>
0

> <s_user_duplicate_titles>
CHEMBL3880_lig413

> <i_f3d_flags>
0

> <s_m_subgroup_title>
dock_pv

> <s_m_subgroupid>
dock_pv

> <b_m_subgroup_collapsed>
1

$$$$
CHEMBL3880_lig164
                    3D
 Schrodinger Suite 2021-1.
 47 50  0  0  1  0            999 V2000
    1.9375    7.4342   23.7577 C   0  0  0  0  0  0
    2.9098    7.2905   22.7671 C   0  0  0  0  0  0
    3.8703    8.3007   22.6760 C   0  0  0  0  0  0
    3.9174    9.4002   23.5440 C   0  0  0  0  0  0
    2.9620    9.4824   24.5752 C   0  0  0  0  0  0
    1.9445    8.5118   24.6517 C   0  0  0  0  0  0
    0.9127    8.5455   25.6079 N   0  0  0  0  0  0
    0.5812    9.7258   26.4084 C   0  0  0  0  0  0
   -0.6455   10.5467   25.9258 C   0  0  0  0  0  0
   -0.6235   10.9723   24.5207 N   0  0  0  0  0  0
    0.4299   11.9536   24.2343 C   0  0  0  0  0  0
    0.4014   12.3900   22.7556 C   0  0  0  0  0  0
   -0.8795   12.9052   22.4177 O   0  0  0  0  0  0
   -1.9486   11.9936   22.6534 C   0  0  0  0  0  0
   -1.9390   11.4871   24.1119 C   0  0  0  0  0  0
    5.0265   10.1705   23.0510 C   0  0  0  0  0  0
    5.5851    9.5687   22.0167 N   0  0  0  0  0  0
    4.8680    8.3942   21.7548 O   0  0  0  0  0  0
    5.5036   11.5091   23.5328 C   0  0  0  0  0  0
    4.5323   12.4193   23.9669 C   0  0  0  0  0  0
    4.8862   13.6726   24.4619 C   0  0  0  0  0  0
    6.2372   14.0265   24.5441 C   0  0  0  0  0  0
    7.2160   13.1453   24.0900 C   0  0  0  0  0  0
    6.8574   11.8951   23.5829 C   0  0  0  0  0  0
    7.8642   11.0679   23.1617 O   0  0  0  0  0  0
    6.6205   15.2286   25.0766 O   0  0  0  0  0  0
    3.6416   14.7537   24.9835 Cl  0  0  0  0  0  0
    1.1599    6.6857   23.8238 H   0  0  0  0  0  0
    2.8931    6.4634   22.0703 H   0  0  0  0  0  0
    3.0142   10.2950   25.2800 H   0  0  0  0  0  0
    0.1585    7.8897   25.4647 H   0  0  0  0  0  0
    1.4363   10.3691   26.5899 H   0  0  0  0  0  0
    0.3482    9.3546   27.4074 H   0  0  0  0  0  0
   -0.7326   11.4391   26.5471 H   0  0  0  0  0  0
   -1.5472    9.9665   26.1197 H   0  0  0  0  0  0
    1.4003   11.5319   24.4712 H   0  0  0  0  0  0
    0.3234   12.8214   24.8852 H   0  0  0  0  0  0
    1.1413   13.1738   22.5915 H   0  0  0  0  0  0
    0.6710   11.5690   22.0942 H   0  0  0  0  0  0
   -2.8770   12.5311   22.4707 H   0  0  0  0  0  0
   -1.9375   11.1687   21.9439 H   0  0  0  0  0  0
   -2.2462   12.3021   24.7670 H   0  0  0  0  0  0
   -2.6919   10.7065   24.2378 H   0  0  0  0  0  0
    3.4856   12.1657   23.9127 H   0  0  0  0  0  0
    8.2570   13.4246   24.1498 H   0  0  0  0  0  0
    8.7254   11.4969   23.1674 H   0  0  0  0  0  0
    7.5709   15.3384   25.1184 H   0  0  0  0  0  0
  1  2  2  0  0  0
  1  6  1  0  0  0
  1 28  1  0  0  0
  2  3  1  0  0  0
  2 29  1  0  0  0
  3  4  2  0  0  0
  3 18  1  0  0  0
  4  5  1  0  0  0
  4 16  1  0  0  0
  5  6  2  0  0  0
  5 30  1  0  0  0
  6  7  1  0  0  0
  7  8  1  0  0  0
  7 31  1  0  0  0
  8  9  1  0  0  0
  8 32  1  0  0  0
  8 33  1  0  0  0
  9 10  1  0  0  0
  9 34  1  0  0  0
  9 35  1  0  0  0
 10 11  1  0  0  0
 10 15  1  0  0  0
 11 12  1  0  0  0
 11 36  1  0  0  0
 11 37  1  0  0  0
 12 13  1  0  0  0
 12 38  1  0  0  0
 12 39  1  0  0  0
 13 14  1  0  0  0
 14 15  1  0  0  0
 14 40  1  0  0  0
 14 41  1  0  0  0
 15 42  1  0  0  0
 15 43  1  0  0  0
 16 17  2  0  0  0
 16 19  1  0  0  0
 17 18  1  0  0  0
 19 20  2  0  0  0
 19 24  1  0  0  0
 20 21  1  0  0  0
 20 44  1  0  0  0
 21 22  2  0  0  0
 21 27  1  0  0  0
 22 23  1  0  0  0
 22 26  1  0  0  0
 23 24  2  0  0  0
 23 45  1  0  0  0
 24 25  1  0  0  0
 25 46  1  0  0  0
 26 47  1  0  0  0
M  END
> <s_m_entry_id>
5115

> <s_m_entry_name>
dock_pv.434

> <s_m_Source_Path>
/home/csk/Desktop/cluster/DUD-E-result/hs90a

> <s_m_Source_File>
dock_pv.maegz

> <i_m_Source_File_Index>
434

> <chembl_id>
CHEMBL404630

> <chembl_pref_name>
None

> <i_lp_mmshare_version>
53161

> <r_lp_tautomer_probability>
0.999999999898

> <s_lp_Force_Field>
OPLS_2005

> <r_lp_Energy>
44.850846

> <b_lp_Chiralities_Consistent>
1

> <s_lp_Variant>
CHEMBL3880_lig164-1

> <s_i_glide_gridfile>
glide-grid_1uyg

> <i_i_glide_lignum>
195

> <i_i_glide_rotatable_bonds>
7

> <r_i_docking_score>
-6.97626267295919

> <r_i_glide_ligand_efficiency>
-0.258380098998489

> <r_i_glide_ligand_efficiency_sa>
-0.775140296143887

> <r_i_glide_ligand_efficiency_ln>
-1.62395893758601

> <r_i_glide_gscore>
-6.97626267295919

> <r_i_glide_lipo>
-3.69773055450621

> <r_i_glide_hbond>
-0.289382202853301

> <r_i_glide_metal>
0

> <r_i_glide_rewards>
-1.09217499598401

> <r_i_glide_evdw>
-43.1470947265625

> <r_i_glide_ecoul>
-1.6318176984787

> <r_i_glide_erotb>
0.513216293473225

> <r_i_glide_esite>
-0.00806382198896305

> <r_i_glide_emodel>
-64.5815196476444

> <r_i_glide_energy>
-44.7789124250412

> <r_i_glide_einternal>
1.85684931278229

> <i_i_glide_confnum>
9

> <i_i_glide_posenum>
278

> <r_i_glide_eff_state_penalty>
0

> <s_user_duplicate_titles>
CHEMBL3880_lig164,419311

> <i_f3d_flags>
0

> <s_m_subgroup_title>
dock_pv

> <s_m_subgroupid>
dock_pv

> <b_m_subgroup_collapsed>
1

$$$$
CHEMBL3880_lig870
                    3D
 Schrodinger Suite 2021-1.
 55 58  0  0  1  0            999 V2000
    1.8798   10.0376   25.6499 C   0  0  2  0  0  0
    3.2406   10.7736   25.5626 C   0  0  0  0  0  0
    2.0253    8.5345   25.9109 C   0  0  0  0  0  0
    4.1628   10.3437   24.3620 C   0  0  1  0  0  0
    2.1865    7.9406   24.5134 C   0  0  0  0  0  0
    2.0654    9.1521   23.5726 C   0  0  2  0  0  0
    3.4143    9.7557   23.1654 C   0  0  0  0  0  0
    1.2591   10.1294   24.3368 N   0  0  0  0  0  0
   -1.5726   12.7731   22.7713 C   0  0  0  0  0  0
   -1.7617   12.0397   23.9520 C   0  0  0  0  0  0
   -0.7972   11.2587   24.5159 N   0  0  0  0  0  0
    0.4122   11.1690   23.8973 C   0  0  0  0  0  0
    0.7164   11.9684   22.7854 C   0  0  0  0  0  0
   -0.2872   12.7473   22.2091 C   0  0  0  0  0  0
   -2.6959   13.5687   22.1347 C   0  0  0  0  0  0
   -3.5382   14.1847   22.7805 O   0  0  0  0  0  0
   -2.7384   13.5699   20.8071 N   0  0  0  0  0  0
    5.2117   11.2792   23.9841 N   0  0  0  0  0  0
    5.0333   12.5990   23.8686 C   0  0  0  0  0  0
    3.9338   13.0666   23.5671 O   0  0  0  0  0  0
    6.1579   13.4929   24.3670 C   0  0  0  0  0  0
    7.5210   13.0947   24.5274 C   0  0  0  0  0  0
    8.4008   13.9014   25.2857 C   0  0  0  0  0  0
    7.9285   15.0979   25.8366 C   0  0  0  0  0  0
    6.6160   15.4983   25.6454 C   0  0  0  0  0  0
    5.7517   14.7199   24.9043 C   0  0  0  0  0  0
    8.0619   11.7684   23.9632 C   0  0  0  0  0  0
    9.6959   13.4560   25.5023 O   0  0  0  0  0  0
   10.5655   14.1705   26.3768 C   0  0  0  0  0  0
    1.2516   10.4990   26.4135 H   0  0  0  0  0  0
    3.7607   10.6552   26.5052 H   0  0  0  0  0  0
    2.9623   11.8230   25.4748 H   0  0  0  0  0  0
    2.8635    8.3030   26.5692 H   0  0  0  0  0  0
    1.1216    8.1460   26.3835 H   0  0  0  0  0  0
    4.6638    9.4633   24.7656 H   0  0  0  0  0  0
    3.1287    7.4047   24.3903 H   0  0  0  0  0  0
    1.3832    7.2284   24.3152 H   0  0  0  0  0  0
    1.6609    8.7905   22.6437 H   0  0  0  0  0  0
    3.2130   10.5356   22.4370 H   0  0  0  0  0  0
    4.0164    8.9942   22.6670 H   0  0  0  0  0  0
   -2.7237   12.0309   24.4467 H   0  0  0  0  0  0
    1.6847   11.9333   22.3190 H   0  0  0  0  0  0
   -0.0621   13.3035   21.3111 H   0  0  0  0  0  0
   -3.4774   14.0986   20.3714 H   0  0  0  0  0  0
   -2.3258   12.7987   20.3040 H   0  0  0  0  0  0
    6.1517   10.9173   23.9485 H   0  0  0  0  0  0
    8.5622   15.7248   26.4408 H   0  0  0  0  0  0
    6.2424   16.3945   26.1087 H   0  0  0  0  0  0
    4.7252   15.0530   24.8267 H   0  0  0  0  0  0
    7.5598   10.8955   24.3656 H   0  0  0  0  0  0
    7.9484   11.7490   22.8786 H   0  0  0  0  0  0
    9.1073   11.5692   24.1958 H   0  0  0  0  0  0
   11.5117   13.6368   26.4555 H   0  0  0  0  0  0
   10.7810   15.1714   25.9998 H   0  0  0  0  0  0
   10.1486   14.2462   27.3823 H   0  0  0  0  0  0
  1  2  1  0  0  0
  1  3  1  0  0  0
  1  8  1  0  0  0
  1 30  1  0  0  0
  2  4  1  0  0  0
  2 31  1  0  0  0
  2 32  1  0  0  0
  3  5  1  0  0  0
  3 33  1  0  0  0
  3 34  1  0  0  0
  4  7  1  0  0  0
  4 18  1  0  0  0
  4 35  1  0  0  0
  5  6  1  0  0  0
  5 36  1  0  0  0
  5 37  1  0  0  0
  6  7  1  0  0  0
  6  8  1  0  0  0
  6 38  1  0  0  0
  7 39  1  0  0  0
  7 40  1  0  0  0
  8 12  1  0  0  0
  9 10  2  0  0  0
  9 14  1  0  0  0
  9 15  1  0  0  0
 10 11  1  0  0  0
 10 41  1  0  0  0
 11 12  2  0  0  0
 12 13  1  0  0  0
 13 14  2  0  0  0
 13 42  1  0  0  0
 14 43  1  0  0  0
 15 16  2  0  0  0
 15 17  1  0  0  0
 17 44  1  0  0  0
 17 45  1  0  0  0
 18 19  1  0  0  0
 18 46  1  0  0  0
 19 20  2  0  0  0
 19 21  1  0  0  0
 21 22  2  0  0  0
 21 26  1  0  0  0
 22 23  1  0  0  0
 22 27  1  0  0  0
 23 24  2  0  0  0
 23 28  1  0  0  0
 24 25  1  0  0  0
 24 47  1  0  0  0
 25 26  2  0  0  0
 25 48  1  0  0  0
 26 49  1  0  0  0
 27 50  1  0  0  0
 27 51  1  0  0  0
 27 52  1  0  0  0
 28 29  1  0  0  0
 29 53  1  0  0  0
 29 54  1  0  0  0
 29 55  1  0  0  0
M  END
> <s_m_entry_id>
5116

> <s_m_entry_name>
dock_pv.435

> <s_m_Source_Path>
/home/csk/Desktop/cluster/DUD-E-result/hs90a

> <s_m_Source_File>
dock_pv.maegz

> <i_m_Source_File_Index>
435

> <chembl_id>
CHEMBL2204508

> <chembl_pref_name>
None

> <i_lp_mmshare_version>
53161

> <r_lp_tautomer_probability>
1

> <s_lp_Force_Field>
OPLS_2005

> <r_lp_Energy>
63.114625

> <b_lp_Chiralities_Consistent>
1

> <s_lp_Variant>
CHEMBL3880_lig870-1

> <s_i_glide_gridfile>
glide-grid_1uyg

> <i_i_glide_lignum>
972

> <i_i_glide_rotatable_bonds>
6

> <r_i_docking_score>
-6.97535763118718

> <r_i_glide_ligand_efficiency>
-0.240529573489213

> <r_i_glide_ligand_efficiency_sa>
-0.738983054876491

> <r_i_glide_ligand_efficiency_ln>
-1.59718001773394

> <r_i_glide_gscore>
-6.97535763118718

> <r_i_glide_lipo>
-3.63735494913194

> <r_i_glide_hbond>
-0.352817085260837

> <r_i_glide_metal>
0

> <r_i_glide_rewards>
-1.67226308673104

> <r_i_glide_evdw>
-33.2726898193359

> <r_i_glide_ecoul>
-0.943076848983765

> <r_i_glide_erotb>
0.502433284758026

> <r_i_glide_esite>
-0.0102597765070246

> <r_i_glide_emodel>
-41.3223728742751

> <r_i_glide_energy>
-34.2157666683197

> <r_i_glide_einternal>
15.6205358505249

> <i_i_glide_confnum>
8

> <i_i_glide_posenum>
354

> <r_i_glide_eff_state_penalty>
0

> <s_user_duplicate_titles>
CHEMBL3880_lig870

> <i_f3d_flags>
0

> <s_m_subgroup_title>
dock_pv

> <s_m_subgroupid>
dock_pv

> <b_m_subgroup_collapsed>
1

$$$$
CHEMBL3880_lig33
                    3D
 Schrodinger Suite 2021-1.
 37 38  0  0  1  0            999 V2000
   -0.3402    6.4358   26.4980 Br  0  0  0  0  0  0
    2.2820    6.7762   23.1924 O   0  0  0  0  0  0
    1.6124   11.2619   24.4009 O   0  0  0  0  0  0
    1.2619    4.9966   24.0537 O   0  0  0  0  0  0
    3.7223   10.6689   23.7352 N   0  0  0  0  0  0
    2.0932    8.9995   24.0512 C   0  0  0  0  0  0
    2.4351   10.4103   24.0598 C   0  0  0  0  0  0
    4.4781   11.8431   23.9072 C   0  0  0  0  0  0
    0.8500    7.1521   25.0972 C   0  0  0  0  0  0
    1.1643    8.4653   25.0413 C   0  0  0  0  0  0
    1.4290    6.2101   24.1239 C   0  0  0  0  0  0
    6.2584   13.9367   24.5592 C   0  0  0  0  0  0
    2.5996    8.1030   23.1718 C   0  0  0  0  0  0
    4.8794   14.0732   24.8058 C   0  0  0  0  0  0
    4.0020   13.0354   24.4747 C   0  0  0  0  0  0
    5.8317   11.7408   23.5879 C   0  0  0  0  0  0
    6.7119   12.7639   23.9358 C   0  0  0  0  0  0
    7.2645   15.0032   25.0152 C   0  0  0  0  0  0
    4.3172   15.3067   25.4963 C   0  0  0  0  0  0
    8.4350   15.1708   24.0422 C   0  0  0  0  0  0
    7.7666   14.7431   26.4469 C   0  0  0  0  0  0
    4.2638    9.8751   23.4332 H   0  0  0  0  0  0
    0.7281    9.1278   25.7767 H   0  0  0  0  0  0
    3.2821    8.3274   22.3631 H   0  0  0  0  0  0
    2.9593   13.1537   24.7268 H   0  0  0  0  0  0
    6.2328   10.8369   23.1503 H   0  0  0  0  0  0
    7.7588   12.6077   23.7335 H   0  0  0  0  0  0
    6.7615   15.9690   25.0193 H   0  0  0  0  0  0
    3.2610   15.1858   25.7211 H   0  0  0  0  0  0
    4.8284   15.4869   26.4402 H   0  0  0  0  0  0
    4.4585   16.1908   24.8720 H   0  0  0  0  0  0
    8.0613   15.3785   23.0392 H   0  0  0  0  0  0
    9.0572   14.2873   24.0083 H   0  0  0  0  0  0
    9.0949   15.9690   24.3509 H   0  0  0  0  0  0
    6.9511   14.7695   27.1700 H   0  0  0  0  0  0
    8.2507   13.7694   26.5285 H   0  0  0  0  0  0
    8.4910   15.4964   26.7584 H   0  0  0  0  0  0
  1  9  1  0  0  0
  2 11  1  0  0  0
  2 13  1  0  0  0
  3  7  2  0  0  0
  4 11  2  0  0  0
  5  7  1  0  0  0
  5  8  1  0  0  0
  5 22  1  0  0  0
  6  7  1  0  0  0
  6 10  1  0  0  0
  6 13  2  0  0  0
  8 15  1  0  0  0
  8 16  2  0  0  0
  9 10  2  0  0  0
  9 11  1  0  0  0
 10 23  1  0  0  0
 12 14  1  0  0  0
 12 17  2  0  0  0
 12 18  1  0  0  0
 13 24  1  0  0  0
 14 15  2  0  0  0
 14 19  1  0  0  0
 15 25  1  0  0  0
 16 17  1  0  0  0
 16 26  1  0  0  0
 17 27  1  0  0  0
 18 20  1  0  0  0
 18 21  1  0  0  0
 18 28  1  0  0  0
 19 29  1  0  0  0
 19 30  1  0  0  0
 19 31  1  0  0  0
 20 32  1  0  0  0
 20 33  1  0  0  0
 20 34  1  0  0  0
 21 35  1  0  0  0
 21 36  1  0  0  0
 21 37  1  0  0  0
M  END
> <s_m_entry_id>
5117

> <s_m_entry_name>
dock_pv.436

> <s_m_Source_Path>
/home/csk/Desktop/cluster/DUD-E-result/hs90a

> <s_m_Source_File>
dock_pv.maegz

> <i_m_Source_File_Index>
436

> <chembl_id>
CHEMBL1583282

> <chembl_pref_name>
None

> <i_lp_mmshare_version>
53161

> <r_lp_tautomer_probability>
1

> <s_lp_Force_Field>
OPLS_2005

> <r_lp_Energy>
21.555205

> <b_lp_Chiralities_Consistent>
1

> <s_lp_Variant>
CHEMBL3880_lig33-1

> <s_i_glide_gridfile>
glide-grid_1uyg

> <i_i_glide_lignum>
38

> <i_i_glide_rotatable_bonds>
4

> <r_i_docking_score>
-6.97190959436423

> <r_i_glide_ligand_efficiency>
-0.331995694969725

> <r_i_glide_ligand_efficiency_sa>
-0.915950948376882

> <r_i_glide_ligand_efficiency_ln>
-1.72379055913671

> <r_i_glide_gscore>
-6.97190959436423

> <r_i_glide_lipo>
-3.3726372810105

> <r_i_glide_hbond>
0

> <r_i_glide_metal>
0

> <r_i_glide_rewards>
-1.89664194893653

> <r_i_glide_evdw>
-32.0064697265625

> <r_i_glide_ecoul>
-3.7898862361908

> <r_i_glide_erotb>
0.466176057339552

> <r_i_glide_esite>
0

> <r_i_glide_emodel>
-48.5937309547632

> <r_i_glide_energy>
-35.7963559627533

> <r_i_glide_einternal>
7.81583881378174

> <i_i_glide_confnum>
16

> <i_i_glide_posenum>
300

> <r_i_glide_eff_state_penalty>
0

> <s_user_duplicate_titles>
CHEMBL3880_lig33

> <i_f3d_flags>
0

> <s_m_subgroup_title>
dock_pv

> <s_m_subgroupid>
dock_pv

> <b_m_subgroup_collapsed>
1

$$$$
CHEMBL3880_lig50
                    3D
 Schrodinger Suite 2021-1.
 41 42  0  0  1  0            999 V2000
    1.1781   11.3148   24.9012 O   0  0  0  0  0  0
    2.8661   13.5989   24.1170 O   0  0  0  0  0  0
    0.2381    8.7868   27.2215 O   0  0  0  0  0  0
   -0.8335   10.7691   26.7660 O   0  0  0  0  0  0
    1.1099   10.1226   25.5519 C   0  0  0  0  0  0
    2.2503   11.2710   24.0642 C   0  0  0  0  0  0
    2.1446    9.3022   25.1156 C   0  0  0  0  0  0
    0.0609    9.9465   26.5508 C   0  0  0  0  0  0
    2.8673   10.0340   24.1718 C   0  0  0  0  0  0
    4.1830   13.8673   24.4434 C   0  0  0  0  0  0
    2.5220   12.5178   23.2550 C   0  0  0  0  0  0
    6.7686   14.6378   25.2457 C   0  0  0  0  0  0
    4.3696   14.9458   25.3025 C   0  0  0  0  0  0
    5.3082   13.1689   23.9715 C   0  0  0  0  0  0
    5.6423   15.3314   25.6969 C   0  0  0  0  0  0
    6.5920   13.5613   24.3670 C   0  0  0  0  0  0
    8.1453   15.1135   25.7356 C   0  0  2  0  0  0
    9.4081   14.5235   25.0567 C   0  0  0  0  0  0
    8.2586   15.0731   27.2677 C   0  0  0  0  0  0
   -0.6145    8.4433   28.3012 C   0  0  0  0  0  0
    9.8822   13.1504   25.5669 C   0  0  0  0  0  0
    2.3545    8.2976   25.4532 H   0  0  0  0  0  0
    3.7432    9.7020   23.6344 H   0  0  0  0  0  0
    1.6043   12.8181   22.7494 H   0  0  0  0  0  0
    3.2450   12.3557   22.4603 H   0  0  0  0  0  0
    3.5171   15.4958   25.6652 H   0  0  0  0  0  0
    5.2131   12.3266   23.3056 H   0  0  0  0  0  0
    5.7482   16.1804   26.3570 H   0  0  0  0  0  0
    7.4376   13.0100   23.9855 H   0  0  0  0  0  0
    8.1656   16.1634   25.4600 H   0  0  0  0  0  0
   10.2348   15.2118   25.2276 H   0  0  0  0  0  0
    9.2609   14.5202   23.9779 H   0  0  0  0  0  0
    7.4742   15.6386   27.7685 H   0  0  0  0  0  0
    8.2047   14.0564   27.6567 H   0  0  0  0  0  0
    9.2149   15.4996   27.5670 H   0  0  0  0  0  0
   -0.3396    7.4641   28.6941 H   0  0  0  0  0  0
   -0.5289    9.1697   29.1109 H   0  0  0  0  0  0
   -1.6543    8.4042   27.9767 H   0  0  0  0  0  0
   10.8598   12.8862   25.1668 H   0  0  0  0  0  0
    9.1866   12.3691   25.2797 H   0  0  0  0  0  0
    9.9995   13.1311   26.6496 H   0  0  0  0  0  0
  1  5  1  0  0  0
  1  6  1  0  0  0
  2 10  1  0  0  0
  2 11  1  0  0  0
  3  8  1  0  0  0
  3 20  1  0  0  0
  4  8  2  0  0  0
  5  7  2  0  0  0
  5  8  1  0  0  0
  6  9  2  0  0  0
  6 11  1  0  0  0
  7  9  1  0  0  0
  7 22  1  0  0  0
  9 23  1  0  0  0
 10 13  2  0  0  0
 10 14  1  0  0  0
 11 24  1  0  0  0
 11 25  1  0  0  0
 12 15  2  0  0  0
 12 16  1  0  0  0
 12 17  1  0  0  0
 13 15  1  0  0  0
 13 26  1  0  0  0
 14 16  2  0  0  0
 14 27  1  0  0  0
 15 28  1  0  0  0
 16 29  1  0  0  0
 17 18  1  0  0  0
 17 19  1  0  0  0
 17 30  1  0  0  0
 18 21  1  0  0  0
 18 31  1  0  0  0
 18 32  1  0  0  0
 19 33  1  0  0  0
 19 34  1  0  0  0
 19 35  1  0  0  0
 20 36  1  0  0  0
 20 37  1  0  0  0
 20 38  1  0  0  0
 21 39  1  0  0  0
 21 40  1  0  0  0
 21 41  1  0  0  0
M  END
> <s_m_entry_id>
5118

> <s_m_entry_name>
dock_pv.437

> <s_m_Source_Path>
/home/csk/Desktop/cluster/DUD-E-result/hs90a

> <s_m_Source_File>
dock_pv.maegz

> <i_m_Source_File_Index>
437

> <chembl_id>
CHEMBL1343916

> <chembl_pref_name>
None

> <i_lp_mmshare_version>
53161

> <r_lp_tautomer_probability>
1

> <s_lp_Force_Field>
OPLS_2005

> <r_lp_Energy>
11.639066

> <b_lp_Chiralities_Consistent>
1

> <s_lp_Variant>
CHEMBL3880_lig50-1

> <s_i_glide_gridfile>
glide-grid_1uyg

> <i_i_glide_lignum>
55

> <i_i_glide_rotatable_bonds>
7

> <r_i_docking_score>
-6.95978454177524

> <r_i_glide_ligand_efficiency>
-0.331418311513107

> <r_i_glide_ligand_efficiency_sa>
-0.914357991200992

> <r_i_glide_ligand_efficiency_ln>
-1.72079266438506

> <r_i_glide_gscore>
-6.95978454177524

> <r_i_glide_lipo>
-3.65859298764975

> <r_i_glide_hbond>
-0.0696675501558623

> <r_i_glide_metal>
0

> <r_i_glide_rewards>
-2.49325839544883

> <r_i_glide_evdw>
-34.6793899536133

> <r_i_glide_ecoul>
-0.655411660671234

> <r_i_glide_erotb>
1.09401563826054

> <r_i_glide_esite>
0

> <r_i_glide_emodel>
-48.3280017323606

> <r_i_glide_energy>
-35.3348016142845

> <r_i_glide_einternal>
3.76192355155945

> <i_i_glide_confnum>
19

> <i_i_glide_posenum>
314

> <r_i_glide_eff_state_penalty>
0

> <s_user_duplicate_titles>
CHEMBL3880_lig50

> <i_f3d_flags>
0

> <s_m_subgroup_title>
dock_pv

> <s_m_subgroupid>
dock_pv

> <b_m_subgroup_collapsed>
1

$$$$
CHEMBL3880_lig50
                    3D
 Schrodinger Suite 2021-1.
 41 42  0  0  1  0            999 V2000
    0.5001   10.9054   24.6847 O   0  0  0  0  0  0
    1.6449   12.0477   22.6045 O   0  0  0  0  0  0
   -0.2321    9.1682   27.6837 O   0  0  0  0  0  0
    1.6933    9.1559   26.4374 O   0  0  0  0  0  0
   -0.2097   10.3571   25.7005 C   0  0  0  0  0  0
   -0.3453   11.6595   23.9375 C   0  0  0  0  0  0
   -1.5346   10.7691   25.6122 C   0  0  0  0  0  0
    0.5233    9.5029   26.6197 C   0  0  0  0  0  0
   -1.6207   11.5693   24.4722 C   0  0  0  0  0  0
    2.5665   12.7024   23.4007 C   0  0  0  0  0  0
    0.2513   12.3520   22.7267 C   0  0  0  0  0  0
    4.6392   14.0113   24.7958 C   0  0  0  0  0  0
    2.3538   13.9649   23.9678 C   0  0  0  0  0  0
    3.8089   12.0920   23.5670 C   0  0  0  0  0  0
    3.3840   14.5987   24.6580 C   0  0  0  0  0  0
    4.8394   12.7472   24.2369 C   0  0  0  0  0  0
    5.7654   14.7219   25.5782 C   0  0  1  0  0  0
    6.9034   15.2959   24.7059 C   0  0  0  0  0  0
    5.2680   15.7925   26.5743 C   0  0  0  0  0  0
    0.3299    8.3708   28.7157 C   0  0  0  0  0  0
    7.7955   14.2511   24.0224 C   0  0  0  0  0  0
   -2.3470   10.4979   26.2722 H   0  0  0  0  0  0
   -2.5140   12.0372   24.0843 H   0  0  0  0  0  0
    0.0452   13.4199   22.7018 H   0  0  0  0  0  0
   -0.2330   11.9689   21.8305 H   0  0  0  0  0  0
    1.4189   14.4906   23.8657 H   0  0  0  0  0  0
    3.9853   11.1162   23.1394 H   0  0  0  0  0  0
    3.2242   15.5691   25.0745 H   0  0  0  0  0  0
    5.7948   12.2542   24.3395 H   0  0  0  0  0  0
    6.2230   13.9691   26.2107 H   0  0  0  0  0  0
    7.5538   15.9059   25.3337 H   0  0  0  0  0  0
    6.4934   15.9808   23.9675 H   0  0  0  0  0  0
    4.4263   15.4275   27.1642 H   0  0  0  0  0  0
    6.0605   16.0644   27.2718 H   0  0  0  0  0  0
    4.9542   16.7060   26.0668 H   0  0  0  0  0  0
   -0.3390    8.3658   29.5680 H   0  0  0  0  0  0
    0.4749    7.3441   28.3786 H   0  0  0  0  0  0
    1.2888    8.7662   29.0555 H   0  0  0  0  0  0
    8.6548   14.7402   23.5670 H   0  0  0  0  0  0
    7.2679   13.7094   23.2375 H   0  0  0  0  0  0
    8.1766   13.5219   24.7384 H   0  0  0  0  0  0
  1  5  1  0  0  0
  1  6  1  0  0  0
  2 10  1  0  0  0
  2 11  1  0  0  0
  3  8  1  0  0  0
  3 20  1  0  0  0
  4  8  2  0  0  0
  5  7  2  0  0  0
  5  8  1  0  0  0
  6  9  2  0  0  0
  6 11  1  0  0  0
  7  9  1  0  0  0
  7 22  1  0  0  0
  9 23  1  0  0  0
 10 13  2  0  0  0
 10 14  1  0  0  0
 11 24  1  0  0  0
 11 25  1  0  0  0
 12 15  2  0  0  0
 12 16  1  0  0  0
 12 17  1  0  0  0
 13 15  1  0  0  0
 13 26  1  0  0  0
 14 16  2  0  0  0
 14 27  1  0  0  0
 15 28  1  0  0  0
 16 29  1  0  0  0
 17 18  1  0  0  0
 17 19  1  0  0  0
 17 30  1  0  0  0
 18 21  1  0  0  0
 18 31  1  0  0  0
 18 32  1  0  0  0
 19 33  1  0  0  0
 19 34  1  0  0  0
 19 35  1  0  0  0
 20 36  1  0  0  0
 20 37  1  0  0  0
 20 38  1  0  0  0
 21 39  1  0  0  0
 21 40  1  0  0  0
 21 41  1  0  0  0
M  END
> <s_m_entry_id>
5119

> <s_m_entry_name>
dock_pv.438

> <s_m_Source_Path>
/home/csk/Desktop/cluster/DUD-E-result/hs90a

> <s_m_Source_File>
dock_pv.maegz

> <i_m_Source_File_Index>
438

> <chembl_id>
CHEMBL1343916

> <chembl_pref_name>
None

> <i_lp_mmshare_version>
53161

> <r_lp_tautomer_probability>
1

> <s_lp_Force_Field>
OPLS_2005

> <r_lp_Energy>
11.439616

> <b_lp_Chiralities_Consistent>
1

> <s_lp_Variant>
CHEMBL3880_lig50-2

> <s_i_glide_gridfile>
glide-grid_1uyg

> <i_i_glide_lignum>
56

> <i_i_glide_rotatable_bonds>
7

> <r_i_docking_score>
-6.95890751481063

> <r_i_glide_ligand_efficiency>
-0.331376548324316

> <r_i_glide_ligand_efficiency_sa>
-0.91424276972987

> <r_i_glide_ligand_efficiency_ln>
-1.72057582124026

> <r_i_glide_gscore>
-6.95890751481063

> <r_i_glide_lipo>
-3.75029972008654

> <r_i_glide_hbond>
0

> <r_i_glide_metal>
0

> <r_i_glide_rewards>
-2.55413575481442

> <r_i_glide_evdw>
-33.071346282959

> <r_i_glide_ecoul>
-0.632802426815033

> <r_i_glide_erotb>
1.09401563826054

> <r_i_glide_esite>
0

> <r_i_glide_emodel>
-45.943765967795

> <r_i_glide_energy>
-33.704148709774

> <r_i_glide_einternal>
5.24395275115967

> <i_i_glide_confnum>
3

> <i_i_glide_posenum>
97

> <r_i_glide_eff_state_penalty>
0

> <s_user_duplicate_titles>
CHEMBL3880_lig50

> <i_f3d_flags>
0

> <s_m_subgroup_title>
dock_pv

> <s_m_subgroupid>
dock_pv

> <b_m_subgroup_collapsed>
1

$$$$
CHEMBL3880_lig365
                    3D
 Schrodinger Suite 2021-1.
 72 76  0  0  1  0            999 V2000
   -0.6845    9.2277   27.6436 C   0  0  0  0  0  0
   -0.1340    8.1228   28.2837 C   0  0  0  0  0  0
    0.7083    7.2563   27.5986 C   0  0  0  0  0  0
    1.0046    7.4823   26.2466 C   0  0  0  0  0  0
    0.4367    8.5963   25.6070 C   0  0  0  0  0  0
   -0.3638    9.5120   26.3064 C   0  0  0  0  0  0
    1.2659    6.2244   28.3062 O   0  0  0  0  0  0
   -1.5329   10.0217   28.3670 O   0  0  0  0  0  0
    2.0304    6.6597   25.5245 C   0  0  0  0  0  0
    1.9936    5.3398   25.5203 N   0  0  0  0  0  0
    3.1406    4.9057   24.8504 O   0  0  0  0  0  0
    3.8461    6.0041   24.4999 C   0  0  0  0  0  0
    3.1438    7.1516   24.8242 C   0  0  0  0  0  0
    5.0556    5.8062   23.8658 N   0  0  0  0  0  0
    3.5262    8.5590   24.5264 C   0  0  0  0  0  0
    3.3318    9.5649   25.4733 C   0  0  0  0  0  0
    3.6608   10.8761   25.1673 C   0  0  0  0  0  0
    4.2179   11.1919   23.9359 C   0  0  0  0  0  0
    4.4144   10.1862   22.9852 C   0  0  0  0  0  0
    4.0681    8.8741   23.2794 C   0  0  0  0  0  0
    6.2012    6.3037   24.3746 C   0  0  0  0  0  0
    6.2966    6.7689   25.5126 O   0  0  0  0  0  0
    7.4071    6.3379   23.4194 C   0  0  0  0  0  0
    7.9583    7.7365   23.1669 C   0  0  0  0  0  0
    8.7464    6.7702   24.0025 C   0  0  0  0  0  0
   -0.8865   10.8015   25.6438 C   0  0  0  0  0  0
   -2.3387   10.6612   25.1634 C   0  0  0  0  0  0
    0.0086   11.3767   24.5281 C   0  0  0  0  0  0
    4.4429   12.6458   23.5669 C   0  0  0  0  0  0
    5.1480   13.4459   24.5653 N   0  0  1  0  0  0
    6.6110   13.3192   24.3719 C   0  0  0  0  0  0
    7.4019   14.2448   25.3235 C   0  0  2  0  0  0
    6.9350   15.5690   25.1099 O   0  0  0  0  0  0
    5.5584   15.7695   25.4397 C   0  0  1  0  0  0
    4.6992   14.8390   24.5700 C   0  0  0  0  0  0
    8.9068   14.2219   25.0455 C   0  0  0  0  0  0
    5.2847   15.5465   26.9221 C   0  0  0  0  0  0
   -0.3389    7.9476   29.3282 H   0  0  0  0  0  0
    0.6773    8.7805   24.5702 H   0  0  0  0  0  0
    1.0890    6.3145   29.2437 H   0  0  0  0  0  0
   -1.5033    9.7961   29.3042 H   0  0  0  0  0  0
    5.0891    5.1655   23.0890 H   0  0  0  0  0  0
    2.9332    9.3416   26.4513 H   0  0  0  0  0  0
    3.4939   11.6516   25.8987 H   0  0  0  0  0  0
    4.8226   10.4013   22.0101 H   0  0  0  0  0  0
    4.2110    8.1078   22.5315 H   0  0  0  0  0  0
    7.4089    5.5900   22.6253 H   0  0  0  0  0  0
    7.4941    8.5979   23.6521 H   0  0  0  0  0  0
    8.3419    7.9875   22.1783 H   0  0  0  0  0  0
    9.6607    6.3693   23.5669 H   0  0  0  0  0  0
    8.8494    6.9683   25.0706 H   0  0  0  0  0  0
   -0.8833   11.5640   26.4228 H   0  0  0  0  0  0
   -3.0088   10.3696   25.9723 H   0  0  0  0  0  0
   -2.7131   11.6052   24.7685 H   0  0  0  0  0  0
   -2.4249    9.9238   24.3671 H   0  0  0  0  0  0
    1.0415   11.4696   24.8565 H   0  0  0  0  0  0
   -0.0123   10.7690   23.6257 H   0  0  0  0  0  0
   -0.3239   12.3750   24.2421 H   0  0  0  0  0  0
    5.0505   12.6313   22.6798 H   0  0  0  0  0  0
    3.4769   13.0757   23.2956 H   0  0  0  0  0  0
    6.8665   12.2731   24.5455 H   0  0  0  0  0  0
    6.8578   13.5697   23.3390 H   0  0  0  0  0  0
    7.2610   13.9684   26.3667 H   0  0  0  0  0  0
    5.3211   16.8036   25.1929 H   0  0  0  0  0  0
    4.8554   15.1690   23.5670 H   0  0  0  0  0  0
    3.6299   14.9805   24.7339 H   0  0  0  0  0  0
    9.3152   13.2177   25.1668 H   0  0  0  0  0  0
    9.1154   14.5743   24.0360 H   0  0  0  0  0  0
    9.4341   14.8795   25.7374 H   0  0  0  0  0  0
    4.3246   15.9987   27.1669 H   0  0  0  0  0  0
    5.2121   14.4869   27.1671 H   0  0  0  0  0  0
    6.0617   15.9832   27.5481 H   0  0  0  0  0  0
  1  2  2  0  0  0
  1  6  1  0  0  0
  1  8  1  0  0  0
  2  3  1  0  0  0
  2 38  1  0  0  0
  3  4  2  0  0  0
  3  7  1  0  0  0
  4  5  1  0  0  0
  4  9  1  0  0  0
  5  6  2  0  0  0
  5 39  1  0  0  0
  6 26  1  0  0  0
  7 40  1  0  0  0
  8 41  1  0  0  0
  9 10  2  0  0  0
  9 13  1  0  0  0
 10 11  1  0  0  0
 11 12  1  0  0  0
 12 13  2  0  0  0
 12 14  1  0  0  0
 13 15  1  0  0  0
 14 21  1  0  0  0
 14 42  1  0  0  0
 15 16  2  0  0  0
 15 20  1  0  0  0
 16 17  1  0  0  0
 16 43  1  0  0  0
 17 18  2  0  0  0
 17 44  1  0  0  0
 18 19  1  0  0  0
 18 29  1  0  0  0
 19 20  2  0  0  0
 19 45  1  0  0  0
 20 46  1  0  0  0
 21 22  2  0  0  0
 21 23  1  0  0  0
 23 24  1  0  0  0
 23 25  1  0  0  0
 23 47  1  0  0  0
 24 25  1  0  0  0
 24 48  1  0  0  0
 24 49  1  0  0  0
 25 50  1  0  0  0
 25 51  1  0  0  0
 26 27  1  0  0  0
 26 28  1  0  0  0
 26 52  1  0  0  0
 27 53  1  0  0  0
 27 54  1  0  0  0
 27 55  1  0  0  0
 28 56  1  0  0  0
 28 57  1  0  0  0
 28 58  1  0  0  0
 29 30  1  0  0  0
 29 59  1  0  0  0
 29 60  1  0  0  0
 30 31  1  0  0  0
 30 35  1  0  0  0
 31 32  1  0  0  0
 31 61  1  0  0  0
 31 62  1  0  0  0
 32 33  1  0  0  0
 32 36  1  0  0  0
 32 63  1  0  0  0
 33 34  1  0  0  0
 34 35  1  0  0  0
 34 37  1  0  0  0
 34 64  1  0  0  0
 35 65  1  0  0  0
 35 66  1  0  0  0
 36 67  1  0  0  0
 36 68  1  0  0  0
 36 69  1  0  0  0
 37 70  1  0  0  0
 37 71  1  0  0  0
 37 72  1  0  0  0
M  END
> <s_m_entry_id>
5120

> <s_m_entry_name>
dock_pv.439

> <s_m_Source_Path>
/home/csk/Desktop/cluster/DUD-E-result/hs90a

> <s_m_Source_File>
dock_pv.maegz

> <i_m_Source_File_Index>
439

> <chembl_id>
CHEMBL3342728

> <chembl_pref_name>
None

> <i_lp_mmshare_version>
53161

> <r_lp_tautomer_probability>
0.999999999898

> <s_lp_Force_Field>
OPLS_2005

> <r_lp_Energy>
41.866671

> <b_lp_Chiralities_Consistent>
1

> <s_lp_Variant>
CHEMBL3880_lig365-3

> <s_i_glide_gridfile>
glide-grid_1uyg

> <i_i_glide_lignum>
404

> <i_i_glide_rotatable_bonds>
10

> <r_i_docking_score>
-6.9588430972986

> <r_i_glide_ligand_efficiency>
-0.18807684046753

> <r_i_glide_ligand_efficiency_sa>
-0.626713756840095

> <r_i_glide_ligand_efficiency_ln>
-1.50920992937563

> <r_i_glide_gscore>
-6.9588430972986

> <r_i_glide_lipo>
-4.12515049116373

> <r_i_glide_hbond>
-0.32

> <r_i_glide_metal>
0

> <r_i_glide_rewards>
-0.674313512668669

> <r_i_glide_evdw>
-40.958324432373

> <r_i_glide_ecoul>
-2.33836507797241

> <r_i_glide_erotb>
0.560096474879276

> <r_i_glide_esite>
-0.000804585030967879

> <r_i_glide_emodel>
-49.5517453257066

> <r_i_glide_energy>
-43.2966895103455

> <r_i_glide_einternal>
11.2584476470947

> <i_i_glide_confnum>
12

> <i_i_glide_posenum>
244

> <r_i_glide_eff_state_penalty>
0

> <s_user_duplicate_titles>
CHEMBL3880_lig365

> <i_f3d_flags>
0

> <s_m_subgroup_title>
dock_pv

> <s_m_subgroupid>
dock_pv

> <b_m_subgroup_collapsed>
1

$$$$
CHEMBL3880_lig388
                    3D
 Schrodinger Suite 2021-1.
 50 53  0  0  1  0            999 V2000
    6.0127   11.8719   23.5678 N   0  0  0  0  0  0
    6.5041   10.5906   23.3607 C   0  0  0  0  0  0
    4.6371   11.7358   23.7183 C   0  0  0  0  0  0
    5.3450    9.7830   23.3024 C   0  0  0  0  0  0
    7.7834   10.0289   23.2380 C   0  0  0  0  0  0
    4.2176   10.5416   23.3938 N   0  0  0  0  0  0
    5.5005    8.3935   23.1872 C   0  0  0  0  0  0
    7.8207    8.6312   23.1670 C   0  0  0  0  0  0
    6.7280    7.8307   23.1672 N   0  0  0  0  0  0
    4.4080    7.5335   23.1117 N   0  0  0  0  0  0
    3.5704   12.9937   24.3671 S   0  0  0  0  0  0
    1.9290   12.3490   24.1053 C   0  0  0  0  0  0
    1.4235   11.1955   24.7656 C   0  0  0  0  0  0
    0.0937   10.8004   24.5716 C   0  0  0  0  0  0
    1.0905   13.0900   23.2581 C   0  0  0  0  0  0
    6.7909   13.1131   23.6671 C   0  0  0  0  0  0
    7.7840   13.1663   24.8338 C   0  0  0  0  0  0
    8.6948   14.4029   24.7747 C   0  0  0  0  0  0
    9.9090   14.1475   25.5459 N   0  0  1  0  0  0
    9.8976   14.7835   26.8565 C   0  0  0  0  0  0
   10.2165   16.2764   26.7030 C   0  0  0  0  0  0
   10.9414   14.0873   27.7432 C   0  0  0  0  0  0
   -0.2133   12.6508   23.0733 C   0  0  0  0  0  0
   -0.6944   11.5541   23.7169 C   0  0  0  0  0  0
   -1.9726   11.3266   23.3365 O   0  0  0  0  0  0
   -2.3317   12.3995   22.5078 C   0  0  0  0  0  0
   -1.1769   13.1503   22.2595 O   0  0  0  0  0  0
    2.5423    9.9687   26.0486 I   0  0  0  0  0  0
    8.6858   10.6216   23.2444 H   0  0  0  0  0  0
    8.7559    8.0965   23.0929 H   0  0  0  0  0  0
    3.4762    7.9186   23.0625 H   0  0  0  0  0  0
    4.5790    6.5497   22.9683 H   0  0  0  0  0  0
   -0.2998    9.9192   25.0573 H   0  0  0  0  0  0
    1.4529   13.9782   22.7671 H   0  0  0  0  0  0
    6.1258   13.9757   23.6739 H   0  0  0  0  0  0
    7.3834   13.1693   22.7663 H   0  0  0  0  0  0
    8.4009   12.2723   24.7686 H   0  0  0  0  0  0
    7.2614   13.1690   25.7872 H   0  0  0  0  0  0
    8.1533   15.2921   25.1026 H   0  0  0  0  0  0
    8.9859   14.6028   23.7451 H   0  0  0  0  0  0
   10.0187   13.1515   25.6847 H   0  0  0  0  0  0
    8.9186   14.6509   27.3235 H   0  0  0  0  0  0
   10.0698   16.7824   27.6545 H   0  0  0  0  0  0
    9.5873   16.7671   25.9666 H   0  0  0  0  0  0
   11.2485   16.4286   26.3828 H   0  0  0  0  0  0
   11.0415   14.5898   28.7048 H   0  0  0  0  0  0
   10.6499   13.0623   27.9538 H   0  0  0  0  0  0
   11.9304   14.0768   27.2812 H   0  0  0  0  0  0
   -2.7273   12.0201   21.5660 H   0  0  0  0  0  0
   -3.0661   13.0257   23.0189 H   0  0  0  0  0  0
  1  2  1  0  0  0
  1  3  1  0  0  0
  1 16  1  0  0  0
  2  4  1  0  0  0
  2  5  2  0  0  0
  3  6  2  0  0  0
  3 11  1  0  0  0
  4  7  2  0  0  0
  4  6  1  0  0  0
  5  8  1  0  0  0
  5 29  1  0  0  0
  7  9  1  0  0  0
  7 10  1  0  0  0
  8  9  2  0  0  0
  8 30  1  0  0  0
 10 31  1  0  0  0
 10 32  1  0  0  0
 11 12  1  0  0  0
 12 13  2  0  0  0
 12 15  1  0  0  0
 13 14  1  0  0  0
 13 28  1  0  0  0
 14 24  2  0  0  0
 14 33  1  0  0  0
 15 23  2  0  0  0
 15 34  1  0  0  0
 16 17  1  0  0  0
 16 35  1  0  0  0
 16 36  1  0  0  0
 17 18  1  0  0  0
 17 37  1  0  0  0
 17 38  1  0  0  0
 18 19  1  0  0  0
 18 39  1  0  0  0
 18 40  1  0  0  0
 19 20  1  0  0  0
 19 41  1  0  0  0
 20 21  1  0  0  0
 20 22  1  0  0  0
 20 42  1  0  0  0
 21 43  1  0  0  0
 21 44  1  0  0  0
 21 45  1  0  0  0
 22 46  1  0  0  0
 22 47  1  0  0  0
 22 48  1  0  0  0
 23 24  1  0  0  0
 23 27  1  0  0  0
 24 25  1  0  0  0
 25 26  1  0  0  0
 26 27  1  0  0  0
 26 49  1  0  0  0
 26 50  1  0  0  0
M  END
> <s_m_entry_id>
5121

> <s_m_entry_name>
dock_pv.440

> <s_m_Source_Path>
/home/csk/Desktop/cluster/DUD-E-result/hs90a

> <s_m_Source_File>
dock_pv.maegz

> <i_m_Source_File_Index>
440

> <chembl_id>
CHEMBL3426784

> <chembl_pref_name>
None

> <i_lp_mmshare_version>
53161

> <r_lp_tautomer_probability>
1

> <s_lp_Force_Field>
OPLS_2005

> <r_lp_Energy>
24.267112

> <b_lp_Chiralities_Consistent>
1

> <s_lp_Variant>
CHEMBL3880_lig388-1

> <s_i_glide_gridfile>
glide-grid_1uyg

> <i_i_glide_lignum>
430

> <i_i_glide_rotatable_bonds>
7

> <r_i_docking_score>
-6.94497212774458

> <r_i_glide_ligand_efficiency>
-0.248034718848021

> <r_i_glide_ligand_efficiency_sa>
-0.753179491059598

> <r_i_glide_ligand_efficiency_ln>
-1.6031034803257

> <r_i_glide_gscore>
-6.94497212774458

> <r_i_glide_lipo>
-3.57616872141778

> <r_i_glide_hbond>
-0.142274977829049

> <r_i_glide_metal>
0

> <r_i_glide_rewards>
-0.678521809387487

> <r_i_glide_evdw>
-48.6653747558594

> <r_i_glide_ecoul>
-3.8994312286377

> <r_i_glide_erotb>
0.470176802978361

> <r_i_glide_esite>
0

> <r_i_glide_emodel>
-63.7554686414239

> <r_i_glide_energy>
-52.5648059844971

> <r_i_glide_einternal>
9.10513687133789

> <i_i_glide_confnum>
58

> <i_i_glide_posenum>
5

> <r_i_glide_eff_state_penalty>
0

> <s_user_duplicate_titles>
CHEMBL3880_lig388

> <i_f3d_flags>
0

> <s_m_subgroup_title>
dock_pv

> <s_m_subgroupid>
dock_pv

> <b_m_subgroup_collapsed>
1

$$$$
CHEMBL3880_lig295
                    3D
 Schrodinger Suite 2021-1.
 77 79  0  0  1  0            999 V2000
    0.1242    7.1879   25.8303 C   0  0  0  0  0  0
    0.5987    6.1277   26.5931 C   0  0  0  0  0  0
    1.3996    6.3554   27.6997 C   0  0  0  0  0  0
    1.7367    7.6667   28.0632 C   0  0  0  0  0  0
    1.2183    8.7362   27.3209 C   0  0  0  0  0  0
    0.4378    8.5186   26.1809 C   0  0  0  0  0  0
    1.8492    5.2793   28.4171 O   0  0  0  0  0  0
    2.6410    7.9560   29.2602 C   0  0  0  0  0  0
    3.9999    7.2231   29.1680 C   0  0  0  0  0  0
    1.8763    7.7154   30.5809 C   0  0  0  0  0  0
   -0.6480    6.8259   24.7670 O   0  0  0  0  0  0
   -0.0460    9.6439   25.4585 N   0  0  0  0  0  0
    0.5733   10.4987   24.5531 C   0  0  0  0  0  0
   -0.4495   11.3627   24.1304 C   0  0  0  0  0  0
   -1.5384   11.1196   24.8407 N   0  0  0  0  0  0
   -1.2843   10.0692   25.6921 N   0  0  0  0  0  0
   -0.3415   12.3667   23.0984 C   0  0  0  0  0  0
   -1.4584   12.4960   22.3682 N   0  0  0  0  0  0
    0.7240   12.9239   22.8281 O   0  0  0  0  0  0
   -1.5334   13.1688   21.0819 C   0  0  0  0  0  0
   -2.7909   14.0208   20.9423 C   0  0  0  0  0  0
    2.0027   10.4168   24.1506 C   0  0  0  0  0  0
    2.4609   10.3418   22.8359 C   0  0  0  0  0  0
    3.8022   10.1292   22.5388 C   0  0  0  0  0  0
    4.7328   10.1788   23.5647 C   0  0  0  0  0  0
    4.2601   10.3673   24.8574 C   0  0  0  0  0  0
    2.9295   10.4660   25.1613 C   0  0  0  0  0  0
    6.2256   10.0465   23.2653 C   0  0  0  0  0  0
    7.0343   11.1616   23.7648 N   0  0  2  0  0  0
    6.6790   12.4329   23.1396 C   0  0  0  0  0  0
    7.5001   13.6311   23.6543 C   0  0  0  0  0  0
    7.7308   13.6730   25.1646 C   0  0  0  0  0  0
    7.7599   15.0191   25.7301 N   0  0  0  0  0  0
    6.4196   15.6427   25.7109 C   0  0  0  0  0  0
    8.3652   15.0244   27.0700 C   0  0  0  0  0  0
    9.8969   14.8731   26.9864 C   0  0  0  0  0  0
    5.2000   14.8248   26.1886 C   0  0  0  0  0  0
    0.3467    5.1138   26.3164 H   0  0  0  0  0  0
    1.4228    9.7461   27.6409 H   0  0  0  0  0  0
    2.5537    5.5701   29.0008 H   0  0  0  0  0  0
    2.9043    9.0116   29.2174 H   0  0  0  0  0  0
    4.2805    7.0053   28.1362 H   0  0  0  0  0  0
    4.0100    6.2848   29.7224 H   0  0  0  0  0  0
    4.8021    7.8424   29.5670 H   0  0  0  0  0  0
    0.9729    8.3257   30.6208 H   0  0  0  0  0  0
    1.5700    6.6756   30.6946 H   0  0  0  0  0  0
    2.4611    7.9693   31.4608 H   0  0  0  0  0  0
   -1.0477    7.5351   24.2447 H   0  0  0  0  0  0
   -2.3068   12.0590   22.7034 H   0  0  0  0  0  0
   -0.6400   13.6918   20.7671 H   0  0  0  0  0  0
   -1.5391   12.3666   20.3661 H   0  0  0  0  0  0
   -2.7365   14.7038   20.0962 H   0  0  0  0  0  0
   -3.6328   13.3612   20.7668 H   0  0  0  0  0  0
   -3.0158   14.6019   21.8362 H   0  0  0  0  0  0
    1.7547   10.4433   22.0419 H   0  0  0  0  0  0
    4.1125    9.9697   21.5174 H   0  0  0  0  0  0
    4.8610   10.3735   25.7165 H   0  0  0  0  0  0
    2.6471   10.5980   26.1886 H   0  0  0  0  0  0
    6.5793    9.1233   23.7259 H   0  0  0  0  0  0
    6.3976    9.9205   22.1949 H   0  0  0  0  0  0
    8.0171   10.9681   23.6216 H   0  0  0  0  0  0
    6.8610   12.3413   22.0716 H   0  0  0  0  0  0
    5.6208   12.6445   23.3018 H   0  0  0  0  0  0
    8.4608   13.5737   23.1743 H   0  0  0  0  0  0
    7.1423   14.5855   23.2923 H   0  0  0  0  0  0
    6.9105   13.1690   25.6309 H   0  0  0  0  0  0
    8.6303   13.1059   25.3992 H   0  0  0  0  0  0
    6.4596   16.4972   26.3674 H   0  0  0  0  0  0
    6.2239   16.0487   24.7190 H   0  0  0  0  0  0
    8.1603   15.9690   27.5753 H   0  0  0  0  0  0
    7.9395   14.2452   27.7031 H   0  0  0  0  0  0
   10.3566   14.9935   27.9668 H   0  0  0  0  0  0
   10.2041   13.8954   26.6148 H   0  0  0  0  0  0
   10.3321   15.6321   26.3348 H   0  0  0  0  0  0
    4.3237   15.4685   26.2738 H   0  0  0  0  0  0
    4.9371   14.0316   25.4884 H   0  0  0  0  0  0
    5.3650   14.3813   27.1669 H   0  0  0  0  0  0
  1  2  2  0  0  0
  1  6  1  0  0  0
  1 11  1  0  0  0
  2  3  1  0  0  0
  2 38  1  0  0  0
  3  4  2  0  0  0
  3  7  1  0  0  0
  4  5  1  0  0  0
  4  8  1  0  0  0
  5  6  2  0  0  0
  5 39  1  0  0  0
  6 12  1  0  0  0
  7 40  1  0  0  0
  8  9  1  0  0  0
  8 10  1  0  0  0
  8 41  1  0  0  0
  9 42  1  0  0  0
  9 43  1  0  0  0
  9 44  1  0  0  0
 10 45  1  0  0  0
 10 46  1  0  0  0
 10 47  1  0  0  0
 11 48  1  0  0  0
 12 13  1  0  0  0
 12 16  1  0  0  0
 13 14  2  0  0  0
 13 22  1  0  0  0
 14 15  1  0  0  0
 14 17  1  0  0  0
 15 16  2  0  0  0
 17 18  1  0  0  0
 17 19  2  0  0  0
 18 20  1  0  0  0
 18 49  1  0  0  0
 20 21  1  0  0  0
 20 50  1  0  0  0
 20 51  1  0  0  0
 21 52  1  0  0  0
 21 53  1  0  0  0
 21 54  1  0  0  0
 22 23  2  0  0  0
 22 27  1  0  0  0
 23 24  1  0  0  0
 23 55  1  0  0  0
 24 25  2  0  0  0
 24 56  1  0  0  0
 25 26  1  0  0  0
 25 28  1  0  0  0
 26 27  2  0  0  0
 26 57  1  0  0  0
 27 58  1  0  0  0
 28 29  1  0  0  0
 28 59  1  0  0  0
 28 60  1  0  0  0
 29 30  1  0  0  0
 29 61  1  0  0  0
 30 31  1  0  0  0
 30 62  1  0  0  0
 30 63  1  0  0  0
 31 32  1  0  0  0
 31 64  1  0  0  0
 31 65  1  0  0  0
 32 33  1  0  0  0
 32 66  1  0  0  0
 32 67  1  0  0  0
 33 34  1  0  0  0
 33 35  1  0  0  0
 34 37  1  0  0  0
 34 68  1  0  0  0
 34 69  1  0  0  0
 35 36  1  0  0  0
 35 70  1  0  0  0
 35 71  1  0  0  0
 36 72  1  0  0  0
 36 73  1  0  0  0
 36 74  1  0  0  0
 37 75  1  0  0  0
 37 76  1  0  0  0
 37 77  1  0  0  0
M  END
> <s_m_entry_id>
5122

> <s_m_entry_name>
dock_pv.441

> <s_m_Source_Path>
/home/csk/Desktop/cluster/DUD-E-result/hs90a

> <s_m_Source_File>
dock_pv.maegz

> <i_m_Source_File_Index>
441

> <chembl_id>
CHEMBL3235110

> <chembl_pref_name>
None

> <i_lp_mmshare_version>
53161

> <r_lp_tautomer_probability>
1

> <s_lp_Force_Field>
OPLS_2005

> <r_lp_Energy>
36.829184

> <b_lp_Chiralities_Consistent>
1

> <s_lp_Variant>
CHEMBL3880_lig295-1

> <s_i_glide_gridfile>
glide-grid_1uyg

> <i_i_glide_lignum>
332

> <i_i_glide_rotatable_bonds>
16

> <r_i_docking_score>
-6.93379914586749

> <r_i_glide_ligand_efficiency>
-0.187399976915338

> <r_i_glide_ligand_efficiency_sa>
-0.624458297323613

> <r_i_glide_ligand_efficiency_ln>
-1.50377848342374

> <r_i_glide_gscore>
-6.93379914586749

> <r_i_glide_lipo>
-4.25917820268088

> <r_i_glide_hbond>
-0.283312316982268

> <r_i_glide_metal>
0

> <r_i_glide_rewards>
-0.618425985697292

> <r_i_glide_evdw>
-31.574520111084

> <r_i_glide_ecoul>
-6.57006883621216

> <r_i_glide_erotb>
0.791353690478969

> <r_i_glide_esite>
0

> <r_i_glide_emodel>
-43.1523218509171

> <r_i_glide_energy>
-38.1445889472961

> <r_i_glide_einternal>
13.5954027175903

> <i_i_glide_confnum>
131

> <i_i_glide_posenum>
192

> <r_i_glide_eff_state_penalty>
0

> <s_user_duplicate_titles>
CHEMBL3880_lig295

> <i_f3d_flags>
0

> <s_m_subgroup_title>
dock_pv

> <s_m_subgroupid>
dock_pv

> <b_m_subgroup_collapsed>
1

$$$$
CHEMBL3880_lig906
                    3D
 Schrodinger Suite 2021-1.
 29 30  0  0  1  0            999 V2000
   -1.7281   11.6577   23.2118 N   0  0  0  0  0  0
   -0.9567   12.3803   22.3667 C   0  0  0  0  0  0
    0.3330   12.7453   22.5757 N   0  0  0  0  0  0
    0.8916   12.3269   23.7443 C   0  0  0  0  0  0
    0.1830   11.5702   24.6844 C   0  0  0  0  0  0
   -1.1454   11.2679   24.3739 C   0  0  0  0  0  0
   -1.5389   12.7692   21.1715 N   0  0  0  0  0  0
    2.3043   12.7119   23.9531 C   0  0  0  0  0  0
    2.6109   14.0119   24.3668 C   0  0  0  0  0  0
    3.9295   14.3972   24.5899 C   0  0  0  0  0  0
    4.9578   13.4920   24.3670 C   0  0  0  0  0  0
    4.6664   12.1880   23.9663 C   0  0  0  0  0  0
    3.3389   11.7850   23.7458 C   0  0  0  0  0  0
    2.9834   10.5196   23.3099 O   0  0  0  0  0  0
   -2.0378   10.4934   25.3206 C   0  0  0  0  0  0
    3.9953    9.5703   23.0014 C   0  0  0  0  0  0
    0.6414   11.2478   25.6076 H   0  0  0  0  0  0
   -2.4569   12.4005   20.9420 H   0  0  0  0  0  0
   -1.0019   13.3073   20.5100 H   0  0  0  0  0  0
    1.8191   14.7330   24.5102 H   0  0  0  0  0  0
    4.1539   15.4057   24.9069 H   0  0  0  0  0  0
    5.9833   13.7929   24.5196 H   0  0  0  0  0  0
    5.4906   11.5104   23.8121 H   0  0  0  0  0  0
   -1.4624    9.9696   26.0846 H   0  0  0  0  0  0
   -2.6225    9.7609   24.7674 H   0  0  0  0  0  0
   -2.7411   11.1663   25.8139 H   0  0  0  0  0  0
    3.5269    8.6524   22.6427 H   0  0  0  0  0  0
    4.6561    9.9316   22.2115 H   0  0  0  0  0  0
    4.5899    9.3178   23.8804 H   0  0  0  0  0  0
  1  6  1  0  0  0
  1  2  2  0  0  0
  2  3  1  0  0  0
  2  7  1  0  0  0
  3  4  2  0  0  0
  4  5  1  0  0  0
  4  8  1  0  0  0
  5  6  2  0  0  0
  5 17  1  0  0  0
  6 15  1  0  0  0
  7 18  1  0  0  0
  7 19  1  0  0  0
  8  9  2  0  0  0
  8 13  1  0  0  0
  9 10  1  0  0  0
  9 20  1  0  0  0
 10 11  2  0  0  0
 10 21  1  0  0  0
 11 12  1  0  0  0
 11 22  1  0  0  0
 12 13  2  0  0  0
 12 23  1  0  0  0
 13 14  1  0  0  0
 14 16  1  0  0  0
 15 24  1  0  0  0
 15 25  1  0  0  0
 15 26  1  0  0  0
 16 27  1  0  0  0
 16 28  1  0  0  0
 16 29  1  0  0  0
M  END
> <s_m_entry_id>
5123

> <s_m_entry_name>
dock_pv.442

> <s_m_Source_Path>
/home/csk/Desktop/cluster/DUD-E-result/hs90a

> <s_m_Source_File>
dock_pv.maegz

> <i_m_Source_File_Index>
442

> <chembl_id>
CHEMBL1774832

> <chembl_pref_name>
None

> <i_lp_mmshare_version>
53161

> <r_lp_tautomer_probability>
0.999999987636

> <s_lp_Force_Field>
OPLS_2005

> <r_lp_Energy>
10.239947

> <b_lp_Chiralities_Consistent>
1

> <s_lp_Variant>
CHEMBL3880_lig906-1

> <s_i_glide_gridfile>
glide-grid_1uyg

> <i_i_glide_lignum>
1012

> <i_i_glide_rotatable_bonds>
2

> <r_i_docking_score>
-6.91939419758199

> <r_i_glide_ligand_efficiency>
-0.432462137348875

> <r_i_glide_ligand_efficiency_sa>
-1.08973629924962

> <r_i_glide_ligand_efficiency_ln>
-1.83412365010569

> <r_i_glide_gscore>
-6.91939419758199

> <r_i_glide_lipo>
-2.56774643132906

> <r_i_glide_hbond>
-0.133054124859194

> <r_i_glide_metal>
0

> <r_i_glide_rewards>
-2.69652744689853

> <r_i_glide_evdw>
-30.750732421875

> <r_i_glide_ecoul>
-2.30384540557861

> <r_i_glide_erotb>
0.361047237435334

> <r_i_glide_esite>
0

> <r_i_glide_emodel>
-44.5156043000771

> <r_i_glide_energy>
-33.0545778274536

> <r_i_glide_einternal>
4.16107845306396

> <i_i_glide_confnum>
4

> <i_i_glide_posenum>
252

> <r_i_glide_eff_state_penalty>
0

> <s_user_duplicate_titles>
CHEMBL3880_lig906

> <i_f3d_flags>
0

> <s_m_subgroup_title>
dock_pv

> <s_m_subgroupid>
dock_pv

> <b_m_subgroup_collapsed>
1

$$$$
CHEMBL3880_lig979
                    3D
 Schrodinger Suite 2021-1.
 63 66  0  0  1  0            999 V2000
    1.6963    8.0681   30.2925 C   0  0  0  0  0  0
    1.9706    7.4558   28.9028 C   0  0  0  0  0  0
    0.8618    6.4629   28.4643 C   0  0  0  0  0  0
   -0.4711   10.5873   24.5477 C   0  0  0  0  0  0
    0.4030    9.6727   25.1368 C   0  0  0  0  0  0
    1.4260   11.7022   23.5605 C   0  0  0  0  0  0
    0.0387   11.5943   23.7025 C   0  0  0  0  0  0
    1.7835    9.7413   24.9083 C   0  0  0  0  0  0
    2.3219   10.8117   24.1637 C   0  0  0  0  0  0
    3.7037   10.8801   23.9031 N   0  0  0  0  0  0
    4.2345    9.8852   22.9578 C   0  0  0  0  0  0
    3.6650    8.4500   23.0561 C   0  0  0  0  0  0
    3.4850    7.9818   24.4947 C   0  0  0  0  0  0
    2.6153    8.6697   25.3309 N   0  0  0  0  0  0
    4.0651    6.9248   25.1929 C   0  0  0  0  0  0
    3.6025    7.0319   26.5180 C   0  0  0  0  0  0
    2.7511    8.1338   26.5939 C   0  0  0  0  0  0
    2.0612    8.6191   27.8663 C   0  0  0  0  0  0
    3.3406    6.7216   29.0086 C   0  0  0  0  0  0
    3.9075    6.1952   27.6811 C   0  0  0  0  0  0
   -0.8151   12.4678   22.8117 C   0  0  0  0  0  0
   -0.4560   12.7578   21.6703 O   0  0  0  0  0  0
   -1.9409   12.9558   23.3108 N   0  0  0  0  0  0
    4.5231    5.1325   27.6194 O   0  0  0  0  0  0
    5.1010    5.9634   24.6462 C   0  0  0  0  0  0
   -2.1648   10.3691   24.8469 Cl  0  0  0  0  0  0
    4.2543   12.2329   23.7459 C   0  0  0  0  0  0
    5.7907   12.3061   23.8339 C   0  0  0  0  0  0
    6.2928   13.6591   24.3656 C   0  0  0  0  0  0
    7.8120   13.8002   24.2220 C   0  0  0  0  0  0
    8.3470   15.1416   24.7329 C   0  0  0  0  0  0
    2.5426    8.6444   30.6640 H   0  0  0  0  0  0
    0.8599    8.7595   30.2596 H   0  0  0  0  0  0
    1.4715    7.3062   31.0368 H   0  0  0  0  0  0
    1.0259    6.0660   27.4630 H   0  0  0  0  0  0
    0.7943    5.6156   29.1459 H   0  0  0  0  0  0
   -0.1136    6.9488   28.4595 H   0  0  0  0  0  0
   -0.0135    8.8507   25.7013 H   0  0  0  0  0  0
    1.8134   12.4648   22.9029 H   0  0  0  0  0  0
    5.3091    9.7990   23.1279 H   0  0  0  0  0  0
    4.1368   10.2505   21.9372 H   0  0  0  0  0  0
    4.2892    7.7782   22.4674 H   0  0  0  0  0  0
    2.7125    8.4165   22.5244 H   0  0  0  0  0  0
    1.0910    9.0849   27.7073 H   0  0  0  0  0  0
    2.7128    9.3994   28.2662 H   0  0  0  0  0  0
    3.3100    5.9016   29.7268 H   0  0  0  0  0  0
    4.0953    7.4111   29.3947 H   0  0  0  0  0  0
   -2.5095   13.5477   22.7269 H   0  0  0  0  0  0
   -2.3665   12.5361   24.1253 H   0  0  0  0  0  0
    5.8283    5.6578   25.4002 H   0  0  0  0  0  0
    4.6403    5.0601   24.2471 H   0  0  0  0  0  0
    5.6890    6.4137   23.8451 H   0  0  0  0  0  0
    3.8200   12.8981   24.4998 H   0  0  0  0  0  0
    3.9650   12.6236   22.7670 H   0  0  0  0  0  0
    6.1712   12.1969   22.8169 H   0  0  0  0  0  0
    6.2193   11.4603   24.3669 H   0  0  0  0  0  0
    6.0047   13.7889   25.4079 H   0  0  0  0  0  0
    5.7969   14.4694   23.8352 H   0  0  0  0  0  0
    8.0604   13.6929   23.1670 H   0  0  0  0  0  0
    8.3115   12.9850   24.7476 H   0  0  0  0  0  0
    9.4335   15.1761   24.6537 H   0  0  0  0  0  0
    7.9388   15.9685   24.1524 H   0  0  0  0  0  0
    8.0851   15.3021   25.7807 H   0  0  0  0  0  0
  1  2  1  0  0  0
  1 32  1  0  0  0
  1 33  1  0  0  0
  1 34  1  0  0  0
  2  3  1  0  0  0
  2 18  1  0  0  0
  2 19  1  0  0  0
  3 35  1  0  0  0
  3 36  1  0  0  0
  3 37  1  0  0  0
  4  5  2  0  0  0
  4  7  1  0  0  0
  4 26  1  0  0  0
  5  8  1  0  0  0
  5 38  1  0  0  0
  6  9  1  0  0  0
  6  7  2  0  0  0
  6 39  1  0  0  0
  7 21  1  0  0  0
  8  9  2  0  0  0
  8 14  1  0  0  0
  9 10  1  0  0  0
 10 11  1  0  0  0
 10 27  1  0  0  0
 11 12  1  0  0  0
 11 40  1  0  0  0
 11 41  1  0  0  0
 12 13  1  0  0  0
 12 42  1  0  0  0
 12 43  1  0  0  0
 13 14  1  0  0  0
 13 15  2  0  0  0
 14 17  1  0  0  0
 15 16  1  0  0  0
 15 25  1  0  0  0
 16 17  2  0  0  0
 16 20  1  0  0  0
 17 18  1  0  0  0
 18 44  1  0  0  0
 18 45  1  0  0  0
 19 20  1  0  0  0
 19 46  1  0  0  0
 19 47  1  0  0  0
 20 24  2  0  0  0
 21 22  2  0  0  0
 21 23  1  0  0  0
 23 48  1  0  0  0
 23 49  1  0  0  0
 25 50  1  0  0  0
 25 51  1  0  0  0
 25 52  1  0  0  0
 27 28  1  0  0  0
 27 53  1  0  0  0
 27 54  1  0  0  0
 28 29  1  0  0  0
 28 55  1  0  0  0
 28 56  1  0  0  0
 29 30  1  0  0  0
 29 57  1  0  0  0
 29 58  1  0  0  0
 30 31  1  0  0  0
 30 59  1  0  0  0
 30 60  1  0  0  0
 31 61  1  0  0  0
 31 62  1  0  0  0
 31 63  1  0  0  0
M  END
> <s_m_entry_id>
5124

> <s_m_entry_name>
dock_pv.443

> <s_m_Source_Path>
/home/csk/Desktop/cluster/DUD-E-result/hs90a

> <s_m_Source_File>
dock_pv.maegz

> <i_m_Source_File_Index>
443

> <chembl_id>
CHEMBL3401154

> <chembl_pref_name>
None

> <i_lp_mmshare_version>
53161

> <r_lp_tautomer_probability>
0.99995

> <s_lp_Force_Field>
OPLS_2005

> <r_lp_Energy>
35.041305

> <b_lp_Chiralities_Consistent>
1

> <s_lp_Variant>
CHEMBL3880_lig979-1

> <s_i_glide_gridfile>
glide-grid_1uyg

> <i_i_glide_lignum>
1088

> <i_i_glide_rotatable_bonds>
5

> <r_i_docking_score>
-6.91339586537816

> <r_i_glide_ligand_efficiency>
-0.223012769850908

> <r_i_glide_ligand_efficiency_sa>
-0.700567999643944

> <r_i_glide_ligand_efficiency_ln>
-1.55918263778141

> <r_i_glide_gscore>
-6.91339586537816

> <r_i_glide_lipo>
-2.96828139094428

> <r_i_glide_hbond>
0

> <r_i_glide_metal>
0

> <r_i_glide_rewards>
-1.58835000633833

> <r_i_glide_evdw>
-42.9610290527344

> <r_i_glide_ecoul>
-3.43685984611511

> <r_i_glide_erotb>
0.306815961458435

> <r_i_glide_esite>
0

> <r_i_glide_emodel>
-54.5047680386862

> <r_i_glide_energy>
-46.3978888988495

> <r_i_glide_einternal>
5.33451843261719

> <i_i_glide_confnum>
1

> <i_i_glide_posenum>
151

> <r_i_glide_eff_state_penalty>
0

> <s_user_duplicate_titles>
CHEMBL3880_lig979

> <i_f3d_flags>
0

> <s_m_subgroup_title>
dock_pv

> <s_m_subgroupid>
dock_pv

> <b_m_subgroup_collapsed>
1

$$$$
CHEMBL3880_lig72
                    3D
 Schrodinger Suite 2021-1.
 29 30  0  0  1  0            999 V2000
    3.3938   12.2907   23.3042 Cl  0  0  0  0  0  0
    7.2614   11.0205   22.3168 O   0  0  0  0  0  0
    5.5454   10.1381   23.5200 O   0  0  0  0  0  0
    8.0850   14.9703   25.7694 N   0  0  0  0  0  0
    9.3891   14.4588   25.8517 N   0  0  0  0  0  0
   13.6881   13.9695   26.1147 N   0  0  0  0  0  0
    6.1054   12.4697   23.8350 C   0  0  0  0  0  0
    4.8156   13.0242   23.9709 C   0  0  0  0  0  0
    7.0259   14.3454   25.1022 C   0  0  0  0  0  0
    7.2006   13.1656   24.3669 C   0  0  0  0  0  0
    6.3593   11.1601   23.1368 C   0  0  0  0  0  0
    4.6491   14.2195   24.6744 C   0  0  0  0  0  0
    5.7421   14.8708   25.2413 C   0  0  0  0  0  0
   11.4954   14.5254   27.0217 C   0  0  0  0  0  0
   10.0941   14.8845   26.8132 C   0  0  0  0  0  0
   12.3521   14.1780   25.9667 C   0  0  0  0  0  0
   12.0528   14.5775   28.3041 C   0  0  0  0  0  0
   13.4222   14.3769   28.4805 C   0  0  0  0  0  0
   14.2034   14.0984   27.3621 C   0  0  0  0  0  0
    5.7834    9.3369   23.0533 H   0  0  0  0  0  0
    7.8583   15.6569   26.4747 H   0  0  0  0  0  0
    8.1947   12.7497   24.2714 H   0  0  0  0  0  0
    3.6614   14.6441   24.7861 H   0  0  0  0  0  0
    5.5839   15.7813   25.8015 H   0  0  0  0  0  0
    9.6931   15.5637   27.5632 H   0  0  0  0  0  0
   11.9861   14.1043   24.9532 H   0  0  0  0  0  0
   11.4427   14.8191   29.1637 H   0  0  0  0  0  0
   13.8660   14.4502   29.4646 H   0  0  0  0  0  0
   15.2610   13.9484   27.4706 H   0  0  0  0  0  0
  1  8  1  0  0  0
  2 11  2  0  0  0
  3 11  1  0  0  0
  3 20  1  0  0  0
  4  5  1  0  0  0
  4  9  1  0  0  0
  4 21  1  0  0  0
  5 15  2  0  0  0
  6 16  2  0  0  0
  6 19  1  0  0  0
  7  8  1  0  0  0
  7 10  2  0  0  0
  7 11  1  0  0  0
  8 12  2  0  0  0
  9 10  1  0  0  0
  9 13  2  0  0  0
 10 22  1  0  0  0
 12 13  1  0  0  0
 12 23  1  0  0  0
 13 24  1  0  0  0
 14 15  1  0  0  0
 14 16  1  0  0  0
 14 17  2  0  0  0
 15 25  1  0  0  0
 16 26  1  0  0  0
 17 18  1  0  0  0
 17 27  1  0  0  0
 18 19  2  0  0  0
 18 28  1  0  0  0
 19 29  1  0  0  0
M  END
> <s_m_entry_id>
5126

> <s_m_entry_name>
dock_pv.445

> <s_m_Source_Path>
/home/csk/Desktop/cluster/DUD-E-result/hs90a

> <s_m_Source_File>
dock_pv.maegz

> <i_m_Source_File_Index>
445

> <chembl_id>
CHEMBL3196203

> <chembl_pref_name>
None

> <i_lp_mmshare_version>
53161

> <r_lp_tautomer_probability>
1

> <s_lp_Force_Field>
OPLS_2005

> <r_lp_Energy>
13.307851

> <b_lp_Chiralities_Consistent>
1

> <s_lp_Variant>
CHEMBL3880_lig72-1

> <s_i_glide_gridfile>
glide-grid_1uyg

> <i_i_glide_lignum>
79

> <i_i_glide_rotatable_bonds>
5

> <r_i_docking_score>
-6.90146899301985

> <r_i_glide_ligand_efficiency>
-0.363235210158939

> <r_i_glide_ligand_efficiency_sa>
-0.969257432710669

> <r_i_glide_ligand_efficiency_ln>
-1.74967061969312

> <r_i_glide_gscore>
-6.90146899301985

> <r_i_glide_lipo>
-2.341562799226

> <r_i_glide_hbond>
0

> <r_i_glide_metal>
0

> <r_i_glide_rewards>
-2.94682691901921

> <r_i_glide_evdw>
-34.2197456359863

> <r_i_glide_ecoul>
-4.07819509506226

> <r_i_glide_erotb>
0.70963727128402

> <r_i_glide_esite>
0

> <r_i_glide_emodel>
-53.7586226182892

> <r_i_glide_energy>
-38.2979407310486

> <r_i_glide_einternal>
2.42631936073303

> <i_i_glide_confnum>
1

> <i_i_glide_posenum>
220

> <r_i_glide_eff_state_penalty>
0

> <s_user_duplicate_titles>
CHEMBL3880_lig72

> <i_f3d_flags>
0

> <s_m_subgroup_title>
dock_pv

> <s_m_subgroupid>
dock_pv

> <b_m_subgroup_collapsed>
1

$$$$
CHEMBL3880_lig71
                    3D
 Schrodinger Suite 2021-1.
 39 41  0  0  1  0            999 V2000
    2.2575   11.6613   23.0815 O   0  0  0  0  0  0
    1.7992   14.0167   24.3631 O   0  0  0  0  0  0
    3.2855    8.9130   23.7535 O   0  0  0  0  0  0
    4.0717    8.8603   21.5980 O   0  0  0  0  0  0
    8.9555   15.4903   26.1947 O   0  0  0  0  0  0
    7.0041   12.1828   23.9519 N   0  0  0  0  0  0
    6.4720   14.6575   25.0705 N   0  0  0  0  0  0
    4.6510   11.7182   23.5671 C   0  0  0  0  0  0
    5.7030   12.5874   23.9670 C   0  0  0  0  0  0
    5.3915   13.9320   24.5811 C   0  0  0  0  0  0
    5.0111   10.4000   23.1636 C   0  0  0  0  0  0
    3.2276   12.2410   23.5766 C   0  0  0  0  0  0
    2.9629   13.6231   24.2827 C   0  0  0  0  0  0
    4.1236   14.3697   24.7476 C   0  0  0  0  0  0
    6.3556   10.0180   23.1594 C   0  0  0  0  0  0
    7.3128   10.9307   23.5670 C   0  0  0  0  0  0
    4.0675    9.3330   22.7352 C   0  0  0  0  0  0
    7.5878   15.1477   24.2571 C   0  0  0  0  0  0
    6.5191   15.2638   26.4031 C   0  0  0  0  0  0
    8.7695   10.5438   23.6618 C   0  0  0  0  0  0
    8.9258   14.8231   24.9426 C   0  0  0  0  0  0
    7.9068   15.0411   27.0486 C   0  0  0  0  0  0
    2.3468    7.8651   23.5567 C   0  0  0  0  0  0
    3.9616   15.3232   25.2284 H   0  0  0  0  0  0
    6.6585    9.0206   22.8656 H   0  0  0  0  0  0
    7.5823   14.6303   23.2984 H   0  0  0  0  0  0
    7.4363   16.1826   23.9662 H   0  0  0  0  0  0
    6.1512   16.2905   26.3983 H   0  0  0  0  0  0
    5.7807   14.7697   27.0360 H   0  0  0  0  0  0
    8.8597    9.5137   24.0069 H   0  0  0  0  0  0
    9.2437   10.6330   22.6866 H   0  0  0  0  0  0
    9.3186   11.1699   24.3652 H   0  0  0  0  0  0
    9.7543   15.1690   24.3285 H   0  0  0  0  0  0
    9.0683   13.7470   25.0622 H   0  0  0  0  0  0
    7.9530   15.6098   27.9671 H   0  0  0  0  0  0
    8.0616   13.9962   27.3252 H   0  0  0  0  0  0
    1.7833    7.6936   24.4739 H   0  0  0  0  0  0
    2.8490    6.9350   23.2854 H   0  0  0  0  0  0
    1.6388    8.1145   22.7670 H   0  0  0  0  0  0
  1 12  2  0  0  0
  2 13  2  0  0  0
  3 17  1  0  0  0
  3 23  1  0  0  0
  4 17  2  0  0  0
  5 21  1  0  0  0
  5 22  1  0  0  0
  6  9  1  0  0  0
  6 16  2  0  0  0
  7 10  1  0  0  0
  7 18  1  0  0  0
  7 19  1  0  0  0
  8  9  2  0  0  0
  8 11  1  0  0  0
  8 12  1  0  0  0
  9 10  1  0  0  0
 10 14  2  0  0  0
 11 15  2  0  0  0
 11 17  1  0  0  0
 12 13  1  0  0  0
 13 14  1  0  0  0
 14 24  1  0  0  0
 15 16  1  0  0  0
 15 25  1  0  0  0
 16 20  1  0  0  0
 18 21  1  0  0  0
 18 26  1  0  0  0
 18 27  1  0  0  0
 19 22  1  0  0  0
 19 28  1  0  0  0
 19 29  1  0  0  0
 20 30  1  0  0  0
 20 31  1  0  0  0
 20 32  1  0  0  0
 21 33  1  0  0  0
 21 34  1  0  0  0
 22 35  1  0  0  0
 22 36  1  0  0  0
 23 37  1  0  0  0
 23 38  1  0  0  0
 23 39  1  0  0  0
M  END
> <s_m_entry_id>
5127

> <s_m_entry_name>
dock_pv.446

> <s_m_Source_Path>
/home/csk/Desktop/cluster/DUD-E-result/hs90a

> <s_m_Source_File>
dock_pv.maegz

> <i_m_Source_File_Index>
446

> <chembl_id>
CHEMBL1432707

> <chembl_pref_name>
None

> <i_lp_mmshare_version>
53161

> <r_lp_tautomer_probability>
1

> <s_lp_Force_Field>
OPLS_2005

> <r_lp_Energy>
34.498236

> <b_lp_Chiralities_Consistent>
1

> <s_lp_Variant>
CHEMBL3880_lig71-1

> <s_i_glide_gridfile>
glide-grid_1uyg

> <i_i_glide_lignum>
78

> <i_i_glide_rotatable_bonds>
3

> <r_i_docking_score>
-6.8985248977833

> <r_i_glide_ligand_efficiency>
-0.299935865121013

> <r_i_glide_ligand_efficiency_sa>
-0.85297770199936

> <r_i_glide_ligand_efficiency_ln>
-1.66812587264939

> <r_i_glide_gscore>
-6.8985248977833

> <r_i_glide_lipo>
-2.78341159769365

> <r_i_glide_hbond>
-0.0527342928011135

> <r_i_glide_metal>
0

> <r_i_glide_rewards>
-2.33555901686126

> <r_i_glide_evdw>
-35.4858818054199

> <r_i_glide_ecoul>
-2.16422939300537

> <r_i_glide_erotb>
0.372108508794524

> <r_i_glide_esite>
0

> <r_i_glide_emodel>
-52.002404903676

> <r_i_glide_energy>
-37.6501111984253

> <r_i_glide_einternal>
1.95446014404297

> <i_i_glide_confnum>
19

> <i_i_glide_posenum>
230

> <r_i_glide_eff_state_penalty>
0

> <s_user_duplicate_titles>
CHEMBL3880_lig71

> <i_f3d_flags>
0

> <s_m_subgroup_title>
dock_pv

> <s_m_subgroupid>
dock_pv

> <b_m_subgroup_collapsed>
1

$$$$
CHEMBL3880_lig974
                    3D
 Schrodinger Suite 2021-1.
 47 50  0  0  1  0            999 V2000
    2.1886    6.6770   23.2292 C   0  0  0  0  0  0
    3.2918    7.7212   23.5510 C   0  0  0  0  0  0
    4.2434    7.9374   22.3567 C   0  0  0  0  0  0
    0.1830   12.3622   23.0674 C   0  0  0  0  0  0
    0.8375   11.5680   24.0153 C   0  0  0  0  0  0
   -1.9223   11.5648   23.8797 C   0  0  0  0  0  0
   -1.2125   12.3406   22.9651 C   0  0  0  0  0  0
    0.1239   10.7214   24.8852 C   0  0  0  0  0  0
   -1.2812   10.8398   24.8777 C   0  0  0  0  0  0
   -2.0911   10.3700   25.8705 O   0  0  0  0  0  0
   -1.6613   10.6429   27.1891 C   0  0  0  0  0  0
   -0.7978    9.5123   27.7179 C   0  0  0  0  0  0
    0.4475    9.1712   26.9144 C   0  0  0  0  0  0
    0.8019    9.7207   25.6712 N   0  0  0  0  0  0
    1.4022    8.2343   27.3100 C   0  0  0  0  0  0
    2.2886    8.0882   26.2420 C   0  0  0  0  0  0
    1.9344    9.0147   25.2650 C   0  0  0  0  0  0
    2.6360    9.0906   23.9000 C   0  0  0  0  0  0
    4.1552    7.2442   24.7549 C   0  0  0  0  0  0
    3.4011    7.1409   26.0917 C   0  0  0  0  0  0
   -1.9339   13.0958   21.8749 C   0  0  0  0  0  0
   -1.4166   13.2118   20.7674 O   0  0  0  0  0  0
   -3.1327   13.6076   22.1713 N   0  0  0  0  0  0
    3.6905    6.2895   26.9305 O   0  0  0  0  0  0
    1.3967    7.4501   28.6106 C   0  0  0  0  0  0
    1.4882    6.5211   24.0496 H   0  0  0  0  0  0
    1.5962    6.9829   22.3665 H   0  0  0  0  0  0
    2.6226    5.7066   22.9872 H   0  0  0  0  0  0
    5.0144    8.6766   22.5758 H   0  0  0  0  0  0
    4.7516    7.0129   22.0784 H   0  0  0  0  0  0
    3.6950    8.2792   21.4774 H   0  0  0  0  0  0
    0.7715   12.9665   22.3908 H   0  0  0  0  0  0
    1.9166   11.5926   24.0341 H   0  0  0  0  0  0
   -2.9883   11.4860   23.8129 H   0  0  0  0  0  0
   -2.5477   10.7544   27.8160 H   0  0  0  0  0  0
   -1.1406   11.5864   27.2557 H   0  0  0  0  0  0
   -1.4451    8.6382   27.8203 H   0  0  0  0  0  0
   -0.4825    9.7339   28.7373 H   0  0  0  0  0  0
    3.4144    9.8496   23.9839 H   0  0  0  0  0  0
    1.9857    9.3980   23.0881 H   0  0  0  0  0  0
    4.9581    7.9588   24.9340 H   0  0  0  0  0  0
    4.6369    6.2874   24.5553 H   0  0  0  0  0  0
   -3.6506   14.0961   21.4575 H   0  0  0  0  0  0
   -3.5861   13.3779   23.0489 H   0  0  0  0  0  0
    2.2490    7.7152   29.2326 H   0  0  0  0  0  0
    0.4930    7.5886   29.2034 H   0  0  0  0  0  0
    1.4865    6.3819   28.4249 H   0  0  0  0  0  0
  1  2  1  0  0  0
  1 26  1  0  0  0
  1 27  1  0  0  0
  1 28  1  0  0  0
  2  3  1  0  0  0
  2 18  1  0  0  0
  2 19  1  0  0  0
  3 29  1  0  0  0
  3 30  1  0  0  0
  3 31  1  0  0  0
  4  5  2  0  0  0
  4  7  1  0  0  0
  4 32  1  0  0  0
  5  8  1  0  0  0
  5 33  1  0  0  0
  6  9  1  0  0  0
  6  7  2  0  0  0
  6 34  1  0  0  0
  7 21  1  0  0  0
  8  9  2  0  0  0
  8 14  1  0  0  0
  9 10  1  0  0  0
 10 11  1  0  0  0
 11 12  1  0  0  0
 11 35  1  0  0  0
 11 36  1  0  0  0
 12 13  1  0  0  0
 12 37  1  0  0  0
 12 38  1  0  0  0
 13 14  1  0  0  0
 13 15  2  0  0  0
 14 17  1  0  0  0
 15 16  1  0  0  0
 15 25  1  0  0  0
 16 17  2  0  0  0
 16 20  1  0  0  0
 17 18  1  0  0  0
 18 39  1  0  0  0
 18 40  1  0  0  0
 19 20  1  0  0  0
 19 41  1  0  0  0
 19 42  1  0  0  0
 20 24  2  0  0  0
 21 22  2  0  0  0
 21 23  1  0  0  0
 23 43  1  0  0  0
 23 44  1  0  0  0
 25 45  1  0  0  0
 25 46  1  0  0  0
 25 47  1  0  0  0
M  END
> <s_m_entry_id>
5128

> <s_m_entry_name>
dock_pv.447

> <s_m_Source_Path>
/home/csk/Desktop/cluster/DUD-E-result/hs90a

> <s_m_Source_File>
dock_pv.maegz

> <i_m_Source_File_Index>
447

> <chembl_id>
CHEMBL3403716

> <chembl_pref_name>
None

> <i_lp_mmshare_version>
53161

> <r_lp_tautomer_probability>
0.99995

> <s_lp_Force_Field>
OPLS_2005

> <r_lp_Energy>
34.587897

> <b_lp_Chiralities_Consistent>
1

> <s_lp_Variant>
CHEMBL3880_lig974-1

> <s_i_glide_gridfile>
glide-grid_1uyg

> <i_i_glide_lignum>
1083

> <i_i_glide_rotatable_bonds>
1

> <r_i_docking_score>
-6.87612480924597

> <r_i_glide_ligand_efficiency>
-0.275044992369839

> <r_i_glide_ligand_efficiency_sa>
-0.804236435633119

> <r_i_glide_ligand_efficiency_ln>
-1.62984764062374

> <r_i_glide_gscore>
-6.87612480924597

> <r_i_glide_lipo>
-2.77990212134952

> <r_i_glide_hbond>
-0.113840750076625

> <r_i_glide_metal>
0

> <r_i_glide_rewards>
-1.81707351000916

> <r_i_glide_evdw>
-37.0752182006836

> <r_i_glide_ecoul>
-2.07698345184326

> <r_i_glide_erotb>
0

> <r_i_glide_esite>
0

> <r_i_glide_emodel>
-48.4329863041173

> <r_i_glide_energy>
-39.1522016525269

> <r_i_glide_einternal>
2.32798528671265

> <i_i_glide_confnum>
1

> <i_i_glide_posenum>
364

> <r_i_glide_eff_state_penalty>
0

> <s_user_duplicate_titles>
CHEMBL3880_lig974

> <i_f3d_flags>
0

> <s_m_subgroup_title>
dock_pv

> <s_m_subgroupid>
dock_pv

> <b_m_subgroup_collapsed>
1

$$$$
CHEMBL3880_lig223
                    3D
 Schrodinger Suite 2021-1.
 47 50  0  0  1  0            999 V2000
    2.1421    9.4440   25.7790 C   0  0  0  0  0  0
    1.5786    8.3714   25.0638 C   0  0  0  0  0  0
    2.1675    7.9794   23.8488 C   0  0  0  0  0  0
    3.2395   10.1422   25.2801 C   0  0  0  0  0  0
    3.7684    9.7716   24.0443 C   0  0  0  0  0  0
    3.2622    8.7000   23.3679 C   0  0  0  0  0  0
    4.0184    8.5824   22.2307 N   0  0  0  0  0  0
    4.9417    9.5600   22.1328 C   0  0  0  0  0  0
    4.7703   10.3239   23.2546 N   0  0  0  0  0  0
    5.7198    9.7145   21.1912 O   0  0  0  0  0  0
    5.4183   11.5441   23.5688 C   0  0  0  0  0  0
    4.6263   12.6401   23.9592 C   0  0  0  0  0  0
    5.2058   13.8405   24.3671 C   0  0  0  0  0  0
    6.5975   13.9665   24.3700 C   0  0  0  0  0  0
    7.3896   12.8952   23.9674 C   0  0  0  0  0  0
    6.8196   11.6862   23.5731 C   0  0  0  0  0  0
    7.6688   10.6620   23.2472 O   0  0  0  0  0  0
    4.1867   15.1481   24.8632 Cl  0  0  0  0  0  0
    7.2041   15.1290   24.7695 O   0  0  0  0  0  0
    0.3444    7.6254   25.5839 C   0  0  0  0  0  0
    0.2527    7.4773   27.0418 N   0  0  0  0  0  0
   -0.1639    8.4226   27.9061 C   0  0  0  0  0  0
   -0.9322    9.3254   27.5839 O   0  0  0  0  0  0
    0.3196    8.3687   29.1634 N   0  0  0  0  0  0
    1.2910    7.5284   29.7321 C   0  0  0  0  0  0
    2.4397    7.1120   29.0447 C   0  0  0  0  0  0
    3.3839    6.3216   29.6925 C   0  0  0  0  0  0
    3.1916    5.9693   31.0264 C   0  0  0  0  0  0
    2.0623    6.3967   31.7219 C   0  0  0  0  0  0
    1.1116    7.1796   31.0725 C   0  0  0  0  0  0
    1.7293    9.7780   26.7171 H   0  0  0  0  0  0
    1.7612    7.1506   23.2864 H   0  0  0  0  0  0
    3.6395   10.9678   25.8505 H   0  0  0  0  0  0
    3.8817    7.8766   21.5216 H   0  0  0  0  0  0
    3.5478   12.5613   23.9556 H   0  0  0  0  0  0
    8.4609   13.0028   23.9913 H   0  0  0  0  0  0
    8.5790   10.9581   23.1671 H   0  0  0  0  0  0
    6.5660   15.7930   25.0449 H   0  0  0  0  0  0
    0.3275    6.6198   25.1601 H   0  0  0  0  0  0
   -0.5404    8.1323   25.1935 H   0  0  0  0  0  0
    0.7073    6.6678   27.4336 H   0  0  0  0  0  0
   -0.1436    8.9831   29.8237 H   0  0  0  0  0  0
    2.6309    7.4195   28.0274 H   0  0  0  0  0  0
    4.2806    6.0146   29.1746 H   0  0  0  0  0  0
    3.9480    5.3919   31.5382 H   0  0  0  0  0  0
    1.9407    6.1521   32.7672 H   0  0  0  0  0  0
    0.2486    7.5327   31.6196 H   0  0  0  0  0  0
  1  2  2  0  0  0
  1  4  1  0  0  0
  1 31  1  0  0  0
  2 20  1  0  0  0
  2  3  1  0  0  0
  3  6  2  0  0  0
  3 32  1  0  0  0
  4  5  2  0  0  0
  4 33  1  0  0  0
  5  9  1  0  0  0
  5  6  1  0  0  0
  6  7  1  0  0  0
  7  8  1  0  0  0
  7 34  1  0  0  0
  8  9  1  0  0  0
  8 10  2  0  0  0
  9 11  1  0  0  0
 11 16  1  0  0  0
 11 12  2  0  0  0
 12 13  1  0  0  0
 12 35  1  0  0  0
 13 18  1  0  0  0
 13 14  2  0  0  0
 14 15  1  0  0  0
 14 19  1  0  0  0
 15 16  2  0  0  0
 15 36  1  0  0  0
 16 17  1  0  0  0
 17 37  1  0  0  0
 19 38  1  0  0  0
 20 21  1  0  0  0
 20 39  1  0  0  0
 20 40  1  0  0  0
 21 22  1  0  0  0
 21 41  1  0  0  0
 22 23  2  0  0  0
 22 24  1  0  0  0
 24 25  1  0  0  0
 24 42  1  0  0  0
 25 26  2  0  0  0
 25 30  1  0  0  0
 26 27  1  0  0  0
 26 43  1  0  0  0
 27 28  2  0  0  0
 27 44  1  0  0  0
 28 29  1  0  0  0
 28 45  1  0  0  0
 29 30  2  0  0  0
 29 46  1  0  0  0
 30 47  1  0  0  0
M  END
> <s_m_entry_id>
5129

> <s_m_entry_name>
dock_pv.448

> <s_m_Source_Path>
/home/csk/Desktop/cluster/DUD-E-result/hs90a

> <s_m_Source_File>
dock_pv.maegz

> <i_m_Source_File_Index>
448

> <chembl_id>
CHEMBL1801576

> <chembl_pref_name>
None

> <i_lp_mmshare_version>
53161

> <r_lp_tautomer_probability>
1

> <s_lp_Force_Field>
OPLS_2005

> <r_lp_Energy>
58.797957

> <b_lp_Chiralities_Consistent>
1

> <s_lp_Variant>
CHEMBL3880_lig223-1

> <s_i_glide_gridfile>
glide-grid_1uyg

> <i_i_glide_lignum>
257

> <i_i_glide_rotatable_bonds>
8

> <r_i_docking_score>
-6.86661403544474

> <r_i_glide_ligand_efficiency>
-0.228887134514825

> <r_i_glide_ligand_efficiency_sa>
-0.71120554375278

> <r_i_glide_ligand_efficiency_ln>
-1.56016952660539

> <r_i_glide_gscore>
-6.86661403544474

> <r_i_glide_lipo>
-2.83524901976091

> <r_i_glide_hbond>
-0.32

> <r_i_glide_metal>
0

> <r_i_glide_rewards>
-0.656525990364839

> <r_i_glide_evdw>
-45.9815979003906

> <r_i_glide_ecoul>
-8.70106983184814

> <r_i_glide_erotb>
0.549401344477756

> <r_i_glide_esite>
0

> <r_i_glide_emodel>
-71.0399647661496

> <r_i_glide_energy>
-54.6826677322388

> <r_i_glide_einternal>
5.7293872833252

> <i_i_glide_confnum>
41

> <i_i_glide_posenum>
338

> <r_i_glide_eff_state_penalty>
0

> <s_user_duplicate_titles>
CHEMBL3880_lig223

> <i_f3d_flags>
0

> <s_m_subgroup_title>
dock_pv

> <s_m_subgroupid>
dock_pv

> <b_m_subgroup_collapsed>
1

$$$$
CHEMBL3880_lig21
                    3D
 Schrodinger Suite 2021-1.
 36 38  0  0  1  0            999 V2000
    0.5305   11.3059   24.8039 O   0  0  0  0  0  0
    2.9306   12.9291   24.1682 O   0  0  0  0  0  0
   -0.5908   10.2522   26.9342 O   0  0  0  0  0  0
   -2.7062   10.7690   26.2188 O   0  0  0  0  0  0
   -0.8273   11.3312   24.8815 C   0  0  0  0  0  0
    0.8902   11.8692   23.6210 C   0  0  0  0  0  0
    6.1158   14.3689   25.1656 C   0  0  0  0  0  0
    7.0455   13.5687   24.4999 C   0  0  0  0  0  0
    4.2981   13.0810   24.2260 C   0  0  0  0  0  0
    4.7506   14.1417   25.0074 C   0  0  0  0  0  0
   -1.3363   11.9362   23.7392 C   0  0  0  0  0  0
   -0.2455   12.2833   22.9429 C   0  0  0  0  0  0
   -1.4852   10.7689   26.0587 C   0  0  0  0  0  0
    2.3672   11.9270   23.3340 C   0  0  0  0  0  0
    6.6067   12.5215   23.6855 C   0  0  0  0  0  0
    5.2368   12.2644   23.5671 C   0  0  0  0  0  0
    6.8041   15.4617   25.9247 C   0  0  0  0  0  0
    8.4517   14.0565   24.7628 C   0  0  0  0  0  0
    8.2866   15.0894   25.8785 C   0  0  0  0  0  0
   -1.0281    9.6430   28.1421 C   0  0  0  0  0  0
    4.0280   14.7767   25.4998 H   0  0  0  0  0  0
   -2.3771   12.1036   23.5107 H   0  0  0  0  0  0
   -0.2817   12.7692   21.9802 H   0  0  0  0  0  0
    2.8066   10.9522   23.5571 H   0  0  0  0  0  0
    2.5351   12.1659   22.2845 H   0  0  0  0  0  0
    7.3162   11.8995   23.1602 H   0  0  0  0  0  0
    4.9232   11.4259   22.9657 H   0  0  0  0  0  0
    6.6220   16.3693   25.3693 H   0  0  0  0  0  0
    6.4463   15.5931   26.9460 H   0  0  0  0  0  0
    9.1276   13.2607   25.0726 H   0  0  0  0  0  0
    8.8604   14.5383   23.8758 H   0  0  0  0  0  0
    8.5730   14.6390   26.8308 H   0  0  0  0  0  0
    8.9287   15.9600   25.7370 H   0  0  0  0  0  0
   -0.1690    9.2899   28.7126 H   0  0  0  0  0  0
   -1.6763    8.7864   27.9537 H   0  0  0  0  0  0
   -1.5736   10.3537   28.7654 H   0  0  0  0  0  0
  1  5  1  0  0  0
  1  6  1  0  0  0
  2  9  1  0  0  0
  2 14  1  0  0  0
  3 13  1  0  0  0
  3 20  1  0  0  0
  4 13  2  0  0  0
  5 11  2  0  0  0
  5 13  1  0  0  0
  6 12  2  0  0  0
  6 14  1  0  0  0
  7  8  1  0  0  0
  7 10  2  0  0  0
  7 17  1  0  0  0
  8 15  2  0  0  0
  8 18  1  0  0  0
  9 10  1  0  0  0
  9 16  2  0  0  0
 10 21  1  0  0  0
 11 12  1  0  0  0
 11 22  1  0  0  0
 12 23  1  0  0  0
 14 24  1  0  0  0
 14 25  1  0  0  0
 15 16  1  0  0  0
 15 26  1  0  0  0
 16 27  1  0  0  0
 17 19  1  0  0  0
 17 28  1  0  0  0
 17 29  1  0  0  0
 18 19  1  0  0  0
 18 30  1  0  0  0
 18 31  1  0  0  0
 19 32  1  0  0  0
 19 33  1  0  0  0
 20 34  1  0  0  0
 20 35  1  0  0  0
 20 36  1  0  0  0
M  END
> <s_m_entry_id>
5130

> <s_m_entry_name>
dock_pv.449

> <s_m_Source_Path>
/home/csk/Desktop/cluster/DUD-E-result/hs90a

> <s_m_Source_File>
dock_pv.maegz

> <i_m_Source_File_Index>
449

> <chembl_id>
CHEMBL1346027

> <chembl_pref_name>
None

> <i_lp_mmshare_version>
53161

> <r_lp_tautomer_probability>
1

> <s_lp_Force_Field>
OPLS_2005

> <r_lp_Energy>
23.491498

> <b_lp_Chiralities_Consistent>
1

> <s_lp_Variant>
CHEMBL3880_lig21-1

> <s_i_glide_gridfile>
glide-grid_1uyg

> <i_i_glide_lignum>
24

> <i_i_glide_rotatable_bonds>
5

> <r_i_docking_score>
-6.86608297821696

> <r_i_glide_ligand_efficiency>
-0.343304148910848

> <r_i_glide_ligand_efficiency_sa>
-0.931870828723182

> <r_i_glide_ligand_efficiency_ln>
-1.71835411087489

> <r_i_glide_gscore>
-6.86608297821696

> <r_i_glide_lipo>
-3.75556775741285

> <r_i_glide_hbond>
0

> <r_i_glide_metal>
0

> <r_i_glide_rewards>
-2.38991967466795

> <r_i_glide_evdw>
-36.9216575622559

> <r_i_glide_ecoul>
1.05850553512573

> <r_i_glide_erotb>
0.966711501707767

> <r_i_glide_esite>
0

> <r_i_glide_emodel>
-51.4072084477047

> <r_i_glide_energy>
-35.8631520271301

> <r_i_glide_einternal>
0.581488728523254

> <i_i_glide_confnum>
26

> <i_i_glide_posenum>
235

> <r_i_glide_eff_state_penalty>
0

> <s_user_duplicate_titles>
CHEMBL3880_lig21

> <i_f3d_flags>
0

> <s_m_subgroup_title>
dock_pv

> <s_m_subgroupid>
dock_pv

> <b_m_subgroup_collapsed>
1

$$$$
CHEMBL3880_lig836
                    3D
 Schrodinger Suite 2021-1.
 51 53  0  0  1  0            999 V2000
    8.1823   15.4445   23.7789 C   0  0  0  0  0  0
    7.6318   14.6265   24.9511 C   0  0  0  0  0  0
    7.7351   15.2057   26.3628 C   0  0  0  0  0  0
   -0.1110    9.8137   26.5448 C   0  0  0  0  0  0
    0.9132    8.8488   26.5702 C   0  0  0  0  0  0
    0.6562   10.5089   24.3666 C   0  0  0  0  0  0
   -0.2400   10.6533   25.4319 C   0  0  0  0  0  0
    1.6480    9.5269   24.3737 C   0  0  0  0  0  0
    1.7772    8.6990   25.4885 C   0  0  0  0  0  0
    2.4927    9.3211   23.1207 C   0  0  0  0  0  0
    6.9170    9.8446   23.4043 O   0  0  0  0  0  0
    4.0017    9.3964   23.3859 C   0  0  0  0  0  0
    4.6441   10.7527   23.4978 C   0  0  0  0  0  0
    6.0488   10.8999   23.5681 C   0  0  0  0  0  0
    4.3970   13.1300   23.9671 C   0  0  0  0  0  0
    3.8415   11.8984   23.6464 C   0  0  0  0  0  0
    5.7649   13.2341   24.1645 C   0  0  0  0  0  0
    6.5914   12.1286   23.9668 C   0  0  0  0  0  0
    7.9831   12.2543   24.3603 C   0  0  0  0  0  0
    8.4602   13.3600   24.9235 C   0  0  0  0  0  0
    6.2220   14.4356   24.6775 O   0  0  0  0  0  0
   -1.2781   11.5679   25.4279 O   0  0  0  0  0  0
   -1.6156   12.2247   24.2077 C   0  0  0  0  0  0
   -1.0385    9.9709   27.5554 O   0  0  0  0  0  0
   -1.1362    8.9556   28.5368 C   0  0  0  0  0  0
    4.6136    8.3321   23.4673 O   0  0  0  0  0  0
    7.1766    9.5101   22.0456 C   0  0  0  0  0  0
    9.2346   15.6765   23.9205 H   0  0  0  0  0  0
    8.0612   14.8851   22.8510 H   0  0  0  0  0  0
    7.6611   16.3688   23.6001 H   0  0  0  0  0  0
    8.7197   15.6296   26.5573 H   0  0  0  0  0  0
    6.9770   15.9691   26.5096 H   0  0  0  0  0  0
    7.5511   14.4471   27.1238 H   0  0  0  0  0  0
    1.0418    8.1881   27.4133 H   0  0  0  0  0  0
    0.5644   11.1405   23.4965 H   0  0  0  0  0  0
    2.5319    7.9257   25.5114 H   0  0  0  0  0  0
    2.2578    8.3428   22.6987 H   0  0  0  0  0  0
    2.2357   10.0610   22.3671 H   0  0  0  0  0  0
    3.7630   13.9896   24.1261 H   0  0  0  0  0  0
    2.7684   11.8638   23.5738 H   0  0  0  0  0  0
    8.6395   11.3978   24.2860 H   0  0  0  0  0  0
    9.4855   13.3735   25.2633 H   0  0  0  0  0  0
   -2.4883   12.8539   24.3633 H   0  0  0  0  0  0
   -0.8107   12.8748   23.8626 H   0  0  0  0  0  0
   -1.8650   11.5086   23.4222 H   0  0  0  0  0  0
   -1.9945    9.1692   29.1670 H   0  0  0  0  0  0
   -0.2472    8.9219   29.1668 H   0  0  0  0  0  0
   -1.2894    7.9750   28.0834 H   0  0  0  0  0  0
    7.9212    8.7161   22.0064 H   0  0  0  0  0  0
    6.2859    9.1588   21.5241 H   0  0  0  0  0  0
    7.5823   10.3625   21.4973 H   0  0  0  0  0  0
  1  2  1  0  0  0
  1 28  1  0  0  0
  1 29  1  0  0  0
  1 30  1  0  0  0
  2  3  1  0  0  0
  2 20  1  0  0  0
  2 21  1  0  0  0
  3 31  1  0  0  0
  3 32  1  0  0  0
  3 33  1  0  0  0
  4  5  2  0  0  0
  4  7  1  0  0  0
  4 24  1  0  0  0
  5  9  1  0  0  0
  5 34  1  0  0  0
  6  8  1  0  0  0
  6  7  2  0  0  0
  6 35  1  0  0  0
  7 22  1  0  0  0
  8  9  2  0  0  0
  8 10  1  0  0  0
  9 36  1  0  0  0
 10 12  1  0  0  0
 10 37  1  0  0  0
 10 38  1  0  0  0
 11 14  1  0  0  0
 11 27  1  0  0  0
 12 13  1  0  0  0
 12 26  2  0  0  0
 13 14  2  0  0  0
 13 16  1  0  0  0
 14 18  1  0  0  0
 15 17  1  0  0  0
 15 16  2  0  0  0
 15 39  1  0  0  0
 16 40  1  0  0  0
 17 18  2  0  0  0
 17 21  1  0  0  0
 18 19  1  0  0  0
 19 20  2  0  0  0
 19 41  1  0  0  0
 20 42  1  0  0  0
 22 23  1  0  0  0
 23 43  1  0  0  0
 23 44  1  0  0  0
 23 45  1  0  0  0
 24 25  1  0  0  0
 25 46  1  0  0  0
 25 47  1  0  0  0
 25 48  1  0  0  0
 27 49  1  0  0  0
 27 50  1  0  0  0
 27 51  1  0  0  0
M  END
> <s_m_entry_id>
5131

> <s_m_entry_name>
dock_pv.450

> <s_m_Source_Path>
/home/csk/Desktop/cluster/DUD-E-result/hs90a

> <s_m_Source_File>
dock_pv.maegz

> <i_m_Source_File_Index>
450

> <chembl_id>
CHEMBL2177146

> <chembl_pref_name>
None

> <i_lp_mmshare_version>
53161

> <r_lp_tautomer_probability>
0.99990000499975

> <s_lp_Force_Field>
OPLS_2005

> <r_lp_Energy>
41.211363

> <b_lp_Chiralities_Consistent>
1

> <s_lp_Variant>
CHEMBL3880_lig836-1

> <s_i_glide_gridfile>
glide-grid_1uyg

> <i_i_glide_lignum>
937

> <i_i_glide_rotatable_bonds>
6

> <r_i_docking_score>
-6.85860306336105

> <r_i_glide_ligand_efficiency>
-0.254022335680039

> <r_i_glide_ligand_efficiency_sa>
-0.762067006202901

> <r_i_glide_ligand_efficiency_ln>
-1.59656972024182

> <r_i_glide_gscore>
-6.85860306336105

> <r_i_glide_lipo>
-4.03021202087982

> <r_i_glide_hbond>
0

> <r_i_glide_metal>
0

> <r_i_glide_rewards>
-1.71663641605195

> <r_i_glide_evdw>
-30.3634204864502

> <r_i_glide_ecoul>
-0.129856929183006

> <r_i_glide_erotb>
0.425894937270682

> <r_i_glide_esite>
0

> <r_i_glide_emodel>
-29.5131982851264

> <r_i_glide_energy>
-30.4932774156332

> <r_i_glide_einternal>
7.48832225799561

> <i_i_glide_confnum>
2

> <i_i_glide_posenum>
29

> <r_i_glide_eff_state_penalty>
0

> <s_user_duplicate_titles>
CHEMBL3880_lig836

> <i_f3d_flags>
0

> <s_m_subgroup_title>
dock_pv

> <s_m_subgroupid>
dock_pv

> <b_m_subgroup_collapsed>
1

$$$$
CHEMBL3880_lig67
                    3D
 Schrodinger Suite 2021-1.
 37 38  0  0  1  0            999 V2000
    0.6218    9.1332   26.1502 O   0  0  0  0  0  0
   -1.3276   13.0261   21.2143 O   0  0  0  0  0  0
   -3.1386   13.5687   22.5233 O   0  0  0  0  0  0
   -2.3323   11.4896   24.2967 N   0  0  0  0  0  0
   -0.2463   10.7417   24.7037 C   0  0  0  0  0  0
    0.8660    9.9699   25.2769 C   0  0  0  0  0  0
    2.2362   10.0638   24.6728 C   0  0  0  0  0  0
   -1.5367   12.0440   23.3237 C   0  0  0  0  0  0
   -0.2484   11.5714   23.5672 C   0  0  0  0  0  0
    4.8610   10.1850   23.6262 C   0  0  0  0  0  0
   -1.5648   10.7470   25.1542 C   0  0  0  0  0  0
    6.2875   10.2216   23.0090 C   0  0  0  0  0  0
    2.8319   11.2980   24.3910 C   0  0  0  0  0  0
    2.9700    8.8937   24.4517 C   0  0  0  0  0  0
   -1.9788   12.8880   22.2492 C   0  0  0  0  0  0
    4.1258   11.3568   23.8739 C   0  0  0  0  0  0
    4.2540    8.9547   23.9153 C   0  0  0  0  0  0
    6.1960    9.8064   21.5256 C   0  0  0  0  0  0
    7.2639    9.2494   23.7247 C   0  0  0  0  0  0
    6.9487   11.6235   23.0917 C   0  0  0  0  0  0
   -3.6161   13.2599   23.3031 H   0  0  0  0  0  0
   -3.3450   11.6175   24.3679 H   0  0  0  0  0  0
    0.6068   11.7898   22.9454 H   0  0  0  0  0  0
   -2.0279   10.2372   25.9856 H   0  0  0  0  0  0
    2.3092   12.2230   24.5882 H   0  0  0  0  0  0
    2.5435    7.9246   24.6735 H   0  0  0  0  0  0
    4.5376   12.3331   23.6690 H   0  0  0  0  0  0
    4.7692    8.0262   23.7255 H   0  0  0  0  0  0
    7.1402    9.9696   21.0073 H   0  0  0  0  0  0
    5.4282   10.3687   21.0009 H   0  0  0  0  0  0
    5.9412    8.7526   21.4198 H   0  0  0  0  0  0
    7.4135    9.5216   24.7671 H   0  0  0  0  0  0
    6.9338    8.2114   23.6967 H   0  0  0  0  0  0
    8.2497    9.2621   23.2574 H   0  0  0  0  0  0
    6.9928   11.9861   24.1192 H   0  0  0  0  0  0
    7.9737   11.6057   22.7162 H   0  0  0  0  0  0
    6.4205   12.3684   22.5018 H   0  0  0  0  0  0
  1  6  2  0  0  0
  2 15  2  0  0  0
  3 15  1  0  0  0
  3 21  1  0  0  0
  4  8  1  0  0  0
  4 11  1  0  0  0
  4 22  1  0  0  0
  5  6  1  0  0  0
  5  9  1  0  0  0
  5 11  2  0  0  0
  6  7  1  0  0  0
  7 13  2  0  0  0
  7 14  1  0  0  0
  8  9  2  0  0  0
  8 15  1  0  0  0
  9 23  1  0  0  0
 10 12  1  0  0  0
 10 16  2  0  0  0
 10 17  1  0  0  0
 11 24  1  0  0  0
 12 18  1  0  0  0
 12 19  1  0  0  0
 12 20  1  0  0  0
 13 16  1  0  0  0
 13 25  1  0  0  0
 14 17  2  0  0  0
 14 26  1  0  0  0
 16 27  1  0  0  0
 17 28  1  0  0  0
 18 29  1  0  0  0
 18 30  1  0  0  0
 18 31  1  0  0  0
 19 32  1  0  0  0
 19 33  1  0  0  0
 19 34  1  0  0  0
 20 35  1  0  0  0
 20 36  1  0  0  0
 20 37  1  0  0  0
M  END
> <s_m_entry_id>
5132

> <s_m_entry_name>
dock_pv.451

> <s_m_Source_Path>
/home/csk/Desktop/cluster/DUD-E-result/hs90a

> <s_m_Source_File>
dock_pv.maegz

> <i_m_Source_File_Index>
451

> <chembl_id>
CHEMBL1468337

> <chembl_pref_name>
None

> <i_lp_mmshare_version>
53161

> <r_lp_tautomer_probability>
1

> <s_lp_Force_Field>
OPLS_2005

> <r_lp_Energy>
16.597594

> <b_lp_Chiralities_Consistent>
1

> <s_lp_Variant>
CHEMBL3880_lig67-1

> <s_i_glide_gridfile>
glide-grid_1uyg

> <i_i_glide_lignum>
74

> <i_i_glide_rotatable_bonds>
5

> <r_i_docking_score>
-6.83836252369518

> <r_i_glide_ligand_efficiency>
-0.341918126184759

> <r_i_glide_ligand_efficiency_sa>
-0.928108584222242

> <r_i_glide_ligand_efficiency_ln>
-1.71141659538987

> <r_i_glide_gscore>
-6.83836252369518

> <r_i_glide_lipo>
-2.61482538765117

> <r_i_glide_hbond>
-0.152

> <r_i_glide_metal>
0

> <r_i_glide_rewards>
-2.26351511365498

> <r_i_glide_evdw>
-31.1156387329102

> <r_i_glide_ecoul>
-6.11827325820923

> <r_i_glide_erotb>
0.729595085691622

> <r_i_glide_esite>
-0.064094182703752

> <r_i_glide_emodel>
-51.1650532341271

> <r_i_glide_energy>
-37.2339119911194

> <r_i_glide_einternal>
7.60194492340088

> <i_i_glide_confnum>
16

> <i_i_glide_posenum>
128

> <r_i_glide_eff_state_penalty>
0

> <s_user_duplicate_titles>
CHEMBL3880_lig67

> <i_f3d_flags>
0

> <s_m_subgroup_title>
dock_pv

> <s_m_subgroupid>
dock_pv

> <b_m_subgroup_collapsed>
1

$$$$
CHEMBL3880_lig352
                    3D
 Schrodinger Suite 2021-1.
 46 48  0  0  1  0            999 V2000
   -1.5339   10.2645   26.9895 C   0  0  0  0  0  0
   -0.6156    9.5612   27.7691 C   0  0  0  0  0  0
    0.5250    8.9955   27.1878 C   0  0  0  0  0  0
    0.7209    9.0806   25.8003 C   0  0  0  0  0  0
   -0.2469    9.7150   25.0347 C   0  0  0  0  0  0
   -1.3186   10.3690   25.6151 C   0  0  0  0  0  0
   -2.3390   11.2800   24.5800 Cl  0  0  0  0  0  0
    1.4338    8.3667   27.9962 O   0  0  0  0  0  0
   -2.6684   10.7690   27.5670 O   0  0  0  0  0  0
    1.9021    8.5470   25.0597 C   0  0  0  0  0  0
    2.1403    7.2531   25.0944 N   0  0  0  0  0  0
    3.3199    7.0494   24.3879 O   0  0  0  0  0  0
    3.7421    8.2454   23.9205 C   0  0  0  0  0  0
    2.8679    9.2637   24.3087 C   0  0  0  0  0  0
    4.9649    8.1903   23.2861 N   0  0  0  0  0  0
    3.0124   10.7523   24.1166 C   0  0  0  0  0  0
    4.2645   11.3105   24.3670 C   0  0  0  0  0  0
    4.4458   12.6893   24.3670 C   0  0  0  0  0  0
    3.3548   13.5419   24.1933 C   0  0  0  0  0  0
    2.1276   12.9951   23.8286 C   0  0  0  0  0  0
    1.9668   11.6131   23.7605 C   0  0  0  0  0  0
    3.4180   14.9089   24.3670 O   0  0  0  0  0  0
    4.5807   15.4754   24.9733 C   0  0  0  0  0  0
    5.3245    8.9794   22.2644 C   0  0  0  0  0  0
    6.6567    9.1328   22.2179 N   0  0  0  0  0  0
    4.5422    9.5690   21.5197 O   0  0  0  0  0  0
    7.3513   10.2365   21.5670 C   0  0  0  0  0  0
    7.2610   11.5418   22.3670 C   0  0  0  0  0  0
   -0.7865    9.4695   28.8302 H   0  0  0  0  0  0
   -0.1686    9.7081   23.9670 H   0  0  0  0  0  0
    1.1928    8.4121   28.9242 H   0  0  0  0  0  0
   -3.2727   11.1690   26.9307 H   0  0  0  0  0  0
    5.6540    7.5914   23.7112 H   0  0  0  0  0  0
    5.1042   10.6800   24.6171 H   0  0  0  0  0  0
    5.4245   13.0799   24.5954 H   0  0  0  0  0  0
    1.2902   13.6461   23.6255 H   0  0  0  0  0  0
    1.0088   11.2461   23.4525 H   0  0  0  0  0  0
    4.4610   16.5516   25.0948 H   0  0  0  0  0  0
    4.7531   15.0545   25.9653 H   0  0  0  0  0  0
    5.4731   15.3218   24.3670 H   0  0  0  0  0  0
    7.2385    8.4182   22.6288 H   0  0  0  0  0  0
    6.9703   10.3690   20.5530 H   0  0  0  0  0  0
    8.4002    9.9565   21.4635 H   0  0  0  0  0  0
    7.6610   12.3690   21.7904 H   0  0  0  0  0  0
    7.8145   11.4836   23.3048 H   0  0  0  0  0  0
    6.2293   11.7992   22.5861 H   0  0  0  0  0  0
  1  2  2  0  0  0
  1  6  1  0  0  0
  1  9  1  0  0  0
  2  3  1  0  0  0
  2 29  1  0  0  0
  3  4  2  0  0  0
  3  8  1  0  0  0
  4  5  1  0  0  0
  4 10  1  0  0  0
  5  6  2  0  0  0
  5 30  1  0  0  0
  6  7  1  0  0  0
  8 31  1  0  0  0
  9 32  1  0  0  0
 10 11  2  0  0  0
 10 14  1  0  0  0
 11 12  1  0  0  0
 12 13  1  0  0  0
 13 14  2  0  0  0
 13 15  1  0  0  0
 14 16  1  0  0  0
 15 24  1  0  0  0
 15 33  1  0  0  0
 16 17  2  0  0  0
 16 21  1  0  0  0
 17 18  1  0  0  0
 17 34  1  0  0  0
 18 19  2  0  0  0
 18 35  1  0  0  0
 19 20  1  0  0  0
 19 22  1  0  0  0
 20 21  2  0  0  0
 20 36  1  0  0  0
 21 37  1  0  0  0
 22 23  1  0  0  0
 23 38  1  0  0  0
 23 39  1  0  0  0
 23 40  1  0  0  0
 24 25  1  0  0  0
 24 26  2  0  0  0
 25 27  1  0  0  0
 25 41  1  0  0  0
 27 28  1  0  0  0
 27 42  1  0  0  0
 27 43  1  0  0  0
 28 44  1  0  0  0
 28 45  1  0  0  0
 28 46  1  0  0  0
M  END
> <s_m_entry_id>
5133

> <s_m_entry_name>
dock_pv.452

> <s_m_Source_Path>
/home/csk/Desktop/cluster/DUD-E-result/hs90a

> <s_m_Source_File>
dock_pv.maegz

> <i_m_Source_File_Index>
452

> <chembl_id>
CHEMBL3342592

> <chembl_pref_name>
None

> <i_lp_mmshare_version>
53161

> <r_lp_tautomer_probability>
0.999999999898

> <s_lp_Force_Field>
OPLS_2005

> <r_lp_Energy>
23.064649

> <b_lp_Chiralities_Consistent>
1

> <s_lp_Variant>
CHEMBL3880_lig352-1

> <s_i_glide_gridfile>
glide-grid_1uyg

> <i_i_glide_lignum>
389

> <i_i_glide_rotatable_bonds>
9

> <r_i_docking_score>
-6.8284260722731

> <r_i_glide_ligand_efficiency>
-0.243872359724039

> <r_i_glide_ligand_efficiency_sa>
-0.740540117260769

> <r_i_glide_ligand_efficiency_ln>
-1.576201228782

> <r_i_glide_gscore>
-6.8284260722731

> <r_i_glide_lipo>
-3.96363565137886

> <r_i_glide_hbond>
-1.14287060808685e-05

> <r_i_glide_metal>
0

> <r_i_glide_rewards>
-0.874078400748281

> <r_i_glide_evdw>
-41.2916488647461

> <r_i_glide_ecoul>
-3.52156472206116

> <r_i_glide_erotb>
0.602116560106604

> <r_i_glide_esite>
0

> <r_i_glide_emodel>
-54.9177799028856

> <r_i_glide_energy>
-44.8132135868073

> <r_i_glide_einternal>
13.9538316726685

> <i_i_glide_confnum>
25

> <i_i_glide_posenum>
237

> <r_i_glide_eff_state_penalty>
0

> <s_user_duplicate_titles>
CHEMBL3880_lig352

> <i_f3d_flags>
0

> <s_m_subgroup_title>
dock_pv

> <s_m_subgroupid>
dock_pv

> <b_m_subgroup_collapsed>
1

$$$$
CHEMBL3880_lig255
                    3D
 Schrodinger Suite 2021-1.
 28 29  0  0  1  0            999 V2000
    4.8355   11.8882   23.5706 C   0  0  0  0  0  0
    5.2366   10.6169   23.1654 C   0  0  0  0  0  0
    4.2910    9.6047   23.0250 C   0  0  0  0  0  0
    2.9525    9.8639   23.3123 C   0  0  0  0  0  0
    2.5323   11.1319   23.7381 C   0  0  0  0  0  0
    3.4945   12.1542   23.8728 C   0  0  0  0  0  0
    1.1048   11.3176   24.1037 C   0  0  0  0  0  0
    0.7296   10.7708   25.2884 N   0  0  0  0  0  0
   -0.5781   10.9427   25.5991 C   0  0  0  0  0  0
   -1.4922   11.5677   24.8213 N   0  0  0  0  0  0
   -1.0090   12.0396   23.6508 C   0  0  0  0  0  0
    0.2816   11.9694   23.2336 N   0  0  0  0  0  0
   -1.9391   12.6318   22.8160 N   0  0  0  0  0  0
   -1.1439   10.3671   27.1655 S   0  0  0  0  0  0
    0.0609    9.1540   27.7768 C   0  0  0  0  0  0
    3.1352   13.5510   24.3634 C   0  0  0  0  0  0
    5.5758   12.6694   23.6727 H   0  0  0  0  0  0
    6.2762   10.4171   22.9508 H   0  0  0  0  0  0
    4.5944    8.6198   22.7028 H   0  0  0  0  0  0
    2.2337    9.0610   23.2181 H   0  0  0  0  0  0
   -2.9068   12.5829   23.1135 H   0  0  0  0  0  0
   -1.6774   12.8699   21.8747 H   0  0  0  0  0  0
   -0.2245    8.8153   28.7738 H   0  0  0  0  0  0
    0.0861    8.2909   27.1110 H   0  0  0  0  0  0
    1.0670    9.5718   27.8292 H   0  0  0  0  0  0
    2.1153   13.8334   24.1020 H   0  0  0  0  0  0
    3.2614   13.6095   25.4448 H   0  0  0  0  0  0
    3.7822   14.3032   23.9099 H   0  0  0  0  0  0
  1  6  1  0  0  0
  1  2  2  0  0  0
  1 17  1  0  0  0
  2  3  1  0  0  0
  2 18  1  0  0  0
  3  4  2  0  0  0
  3 19  1  0  0  0
  4  5  1  0  0  0
  4 20  1  0  0  0
  5  6  2  0  0  0
  5  7  1  0  0  0
  6 16  1  0  0  0
  7 12  1  0  0  0
  7  8  2  0  0  0
  8  9  1  0  0  0
  9 10  2  0  0  0
  9 14  1  0  0  0
 10 11  1  0  0  0
 11 12  2  0  0  0
 11 13  1  0  0  0
 13 21  1  0  0  0
 13 22  1  0  0  0
 14 15  1  0  0  0
 15 23  1  0  0  0
 15 24  1  0  0  0
 15 25  1  0  0  0
 16 26  1  0  0  0
 16 27  1  0  0  0
 16 28  1  0  0  0
M  END
> <s_m_entry_id>
5134

> <s_m_entry_name>
dock_pv.453

> <s_m_Source_Path>
/home/csk/Desktop/cluster/DUD-E-result/hs90a

> <s_m_Source_File>
dock_pv.maegz

> <i_m_Source_File_Index>
453

> <chembl_id>
CHEMBL1834094

> <chembl_pref_name>
None

> <i_lp_mmshare_version>
53161

> <r_lp_tautomer_probability>
1

> <s_lp_Force_Field>
OPLS_2005

> <r_lp_Energy>
3.784694

> <b_lp_Chiralities_Consistent>
1

> <s_lp_Variant>
CHEMBL3880_lig255-1

> <s_i_glide_gridfile>
glide-grid_1uyg

> <i_i_glide_lignum>
289

> <i_i_glide_rotatable_bonds>
2

> <r_i_docking_score>
-6.82238576210045

> <r_i_glide_ligand_efficiency>
-0.426399110131278

> <r_i_glide_ligand_efficiency_sa>
-1.07445842802867

> <r_i_glide_ligand_efficiency_ln>
-1.80840962649382

> <r_i_glide_gscore>
-6.82238576210045

> <r_i_glide_lipo>
-2.00524408361666

> <r_i_glide_hbond>
-0.0421680277902114

> <r_i_glide_metal>
0

> <r_i_glide_rewards>
-2.97201660825803

> <r_i_glide_evdw>
-33.5678939819336

> <r_i_glide_ecoul>
-2.94622683525085

> <r_i_glide_erotb>
0.317371681948764

> <r_i_glide_esite>
0

> <r_i_glide_emodel>
-49.6683851175585

> <r_i_glide_energy>
-36.5141208171844

> <r_i_glide_einternal>
3.02320384979248

> <i_i_glide_confnum>
4

> <i_i_glide_posenum>
129

> <r_i_glide_eff_state_penalty>
0

> <s_user_duplicate_titles>
CHEMBL3880_lig255

> <i_f3d_flags>
0

> <s_m_subgroup_title>
dock_pv

> <s_m_subgroupid>
dock_pv

> <b_m_subgroup_collapsed>
1

$$$$
CHEMBL3880_lig397
                    3D
 Schrodinger Suite 2021-1.
 68 70  0  0  1  0            999 V2000
   -0.7438   10.9647   24.6394 C   0  0  0  0  0  0
   -0.5563   11.9871   23.7141 C   0  0  0  0  0  0
    0.6996   12.5661   23.5563 C   0  0  0  0  0  0
    1.7854   12.1279   24.3106 C   0  0  0  0  0  0
    1.6132   11.0412   25.1668 C   0  0  0  0  0  0
    0.3498   10.4755   25.3806 C   0  0  0  0  0  0
    0.2243    9.3669   26.4367 C   0  0  0  0  0  0
    0.0631    7.9870   25.7785 C   0  0  0  0  0  0
   -0.8397    9.6591   27.5216 C   0  0  0  0  0  0
   -2.0124   10.4775   24.8005 O   0  0  0  0  0  0
    0.8622   13.5690   22.6502 O   0  0  0  0  0  0
    3.1052   12.8245   24.2866 C   0  0  0  0  0  0
    3.0979   14.1326   24.6309 O   0  0  0  0  0  0
    4.4132   14.5778   24.7014 N   0  0  0  0  0  0
    5.1945   13.5632   24.3671 C   0  0  0  0  0  0
    4.4050   12.4317   24.0289 C   0  0  0  0  0  0
    4.7737   11.0963   23.5812 C   0  0  0  0  0  0
    6.6532   13.6349   24.3671 C   0  0  0  0  0  0
    7.1648   14.7317   24.9618 N   0  0  0  0  0  0
    7.3540   12.7198   23.9361 O   0  0  0  0  0  0
    4.8554    9.9392   23.2028 C   0  0  0  0  0  0
    4.6955    8.5470   22.7380 C   0  0  0  0  0  0
    8.5721   14.9704   25.2619 C   0  0  0  0  0  0
    8.8539   14.8544   26.7640 C   0  0  0  0  0  0
    3.2018    8.1683   22.8858 C   0  0  0  0  0  0
    5.1470    8.4182   21.2700 C   0  0  0  0  0  0
    5.5991    7.7385   23.5653 N   0  0  1  0  0  0
    5.3178    6.3061   23.7255 C   0  0  0  0  0  0
    4.4310    6.0411   24.9417 C   0  0  0  0  0  0
    3.1495    5.5038   24.7907 C   0  0  0  0  0  0
    2.3152    5.3642   25.8974 C   0  0  0  0  0  0
    2.7590    5.7501   27.1678 C   0  0  0  0  0  0
    4.0629    6.2309   27.3250 C   0  0  0  0  0  0
    4.8946    6.3690   26.2171 C   0  0  0  0  0  0
    1.8380    5.6766   28.3842 C   0  0  0  0  0  0
    1.5356    6.9103   28.7834 F   0  0  0  0  0  0
    0.6990    5.0350   28.1241 F   0  0  0  0  0  0
    2.4479    5.0426   29.3868 F   0  0  0  0  0  0
   -1.3888   12.3521   23.1282 H   0  0  0  0  0  0
    2.4594   10.6887   25.7429 H   0  0  0  0  0  0
    1.1679    9.3242   26.9848 H   0  0  0  0  0  0
    0.9684    7.7114   25.2410 H   0  0  0  0  0  0
   -0.1368    7.2089   26.5156 H   0  0  0  0  0  0
   -0.7389    7.9738   25.0460 H   0  0  0  0  0  0
   -0.7401   10.6706   27.9128 H   0  0  0  0  0  0
   -1.8589    9.5694   27.1556 H   0  0  0  0  0  0
   -0.7437    8.9706   28.3632 H   0  0  0  0  0  0
   -2.6880   11.0083   24.3660 H   0  0  0  0  0  0
    1.7243   13.9849   22.7316 H   0  0  0  0  0  0
    6.5281   15.4813   25.1841 H   0  0  0  0  0  0
    9.2272   14.2903   24.7184 H   0  0  0  0  0  0
    8.8297   15.9689   24.9191 H   0  0  0  0  0  0
    9.9020   15.0597   26.9819 H   0  0  0  0  0  0
    8.2581   15.5622   27.3399 H   0  0  0  0  0  0
    8.6315   13.8522   27.1254 H   0  0  0  0  0  0
    2.5510    8.8753   22.3694 H   0  0  0  0  0  0
    2.9897    7.1896   22.4556 H   0  0  0  0  0  0
    2.8866    8.1563   23.9294 H   0  0  0  0  0  0
    4.4954    8.9809   20.5992 H   0  0  0  0  0  0
    6.1681    8.7773   21.1188 H   0  0  0  0  0  0
    5.1251    7.3799   20.9375 H   0  0  0  0  0  0
    6.5461    7.8676   23.2375 H   0  0  0  0  0  0
    6.2631    5.7918   23.9021 H   0  0  0  0  0  0
    4.8947    5.8741   22.8167 H   0  0  0  0  0  0
    2.7775    5.2311   23.8124 H   0  0  0  0  0  0
    1.3108    4.9945   25.7488 H   0  0  0  0  0  0
    4.4260    6.5282   28.2998 H   0  0  0  0  0  0
    5.8910    6.7688   26.3427 H   0  0  0  0  0  0
  1  2  2  0  0  0
  1  6  1  0  0  0
  1 10  1  0  0  0
  2  3  1  0  0  0
  2 39  1  0  0  0
  3  4  2  0  0  0
  3 11  1  0  0  0
  4  5  1  0  0  0
  4 12  1  0  0  0
  5  6  2  0  0  0
  5 40  1  0  0  0
  6  7  1  0  0  0
  7  8  1  0  0  0
  7  9  1  0  0  0
  7 41  1  0  0  0
  8 42  1  0  0  0
  8 43  1  0  0  0
  8 44  1  0  0  0
  9 45  1  0  0  0
  9 46  1  0  0  0
  9 47  1  0  0  0
 10 48  1  0  0  0
 11 49  1  0  0  0
 12 13  1  0  0  0
 12 16  2  0  0  0
 13 14  1  0  0  0
 14 15  2  0  0  0
 15 16  1  0  0  0
 15 18  1  0  0  0
 16 17  1  0  0  0
 17 21  3  0  0  0
 18 19  1  0  0  0
 18 20  2  0  0  0
 19 23  1  0  0  0
 19 50  1  0  0  0
 21 22  1  0  0  0
 22 25  1  0  0  0
 22 26  1  0  0  0
 22 27  1  0  0  0
 23 24  1  0  0  0
 23 51  1  0  0  0
 23 52  1  0  0  0
 24 53  1  0  0  0
 24 54  1  0  0  0
 24 55  1  0  0  0
 25 56  1  0  0  0
 25 57  1  0  0  0
 25 58  1  0  0  0
 26 59  1  0  0  0
 26 60  1  0  0  0
 26 61  1  0  0  0
 27 28  1  0  0  0
 27 62  1  0  0  0
 28 29  1  0  0  0
 28 63  1  0  0  0
 28 64  1  0  0  0
 29 30  2  0  0  0
 29 34  1  0  0  0
 30 31  1  0  0  0
 30 65  1  0  0  0
 31 32  2  0  0  0
 31 66  1  0  0  0
 32 33  1  0  0  0
 32 35  1  0  0  0
 33 34  2  0  0  0
 33 67  1  0  0  0
 34 68  1  0  0  0
 35 36  1  0  0  0
 35 37  1  0  0  0
 35 38  1  0  0  0
M  END
> <s_m_entry_id>
5135

> <s_m_entry_name>
dock_pv.454

> <s_m_Source_Path>
/home/csk/Desktop/cluster/DUD-E-result/hs90a

> <s_m_Source_File>
dock_pv.maegz

> <i_m_Source_File_Index>
454

> <chembl_id>
CHEMBL3600793

> <chembl_pref_name>
None

> <i_lp_mmshare_version>
53161

> <r_lp_tautomer_probability>
0.999999999898

> <s_lp_Force_Field>
OPLS_2005

> <r_lp_Energy>
24.435533

> <b_lp_Chiralities_Consistent>
1

> <s_lp_Variant>
CHEMBL3880_lig397-1

> <s_i_glide_gridfile>
glide-grid_1uyg

> <i_i_glide_lignum>
439

> <i_i_glide_rotatable_bonds>
13

> <r_i_docking_score>
-6.80848581060358

> <r_i_glide_ligand_efficiency>
-0.17917067922641

> <r_i_glide_ligand_efficiency_sa>
-0.602367416448269

> <r_i_glide_ligand_efficiency_ln>
-1.46810982612672

> <r_i_glide_gscore>
-6.80848581060358

> <r_i_glide_lipo>
-3.91047781309673

> <r_i_glide_hbond>
0

> <r_i_glide_metal>
0

> <r_i_glide_rewards>
-0.912359134112946

> <r_i_glide_evdw>
-48.6419792175293

> <r_i_glide_ecoul>
-0.943128764629364

> <r_i_glide_erotb>
0.587919412176969

> <r_i_glide_esite>
0

> <r_i_glide_emodel>
-60.6506024599043

> <r_i_glide_energy>
-49.5851079821587

> <r_i_glide_einternal>
14.5665407180786

> <i_i_glide_confnum>
20

> <i_i_glide_posenum>
393

> <r_i_glide_eff_state_penalty>
0

> <s_user_duplicate_titles>
CHEMBL3880_lig397

> <i_f3d_flags>
0

> <s_m_subgroup_title>
dock_pv

> <s_m_subgroupid>
dock_pv

> <b_m_subgroup_collapsed>
1

$$$$
355926
                    3D
 Schrodinger Suite 2021-1.
 38 41  0  0  1  0            999 V2000
    7.6798   14.1027   24.5776 C   0  0  0  0  0  0
    7.1665   12.9574   23.9671 C   0  0  0  0  0  0
    5.7758   12.7690   23.9670 C   0  0  0  0  0  0
    4.9253   13.7458   24.5539 C   0  0  0  0  0  0
    5.4572   14.8943   25.1648 C   0  0  0  0  0  0
    6.8423   15.0469   25.1673 C   0  0  0  0  0  0
    4.4607   16.0898   25.9133 Cl  0  0  0  0  0  0
    3.2612   13.2129   24.3670 S   0  0  0  0  0  0
    3.8523   11.7395   23.6250 C   0  0  0  0  0  0
    5.1457   11.6705   23.4748 N   0  0  0  0  0  0
    2.7585   10.4992   23.0172 S   0  0  0  0  0  0
    1.6363   10.3131   24.3706 C   0  0  0  0  0  0
    1.8202    9.4237   25.3175 N   0  0  0  0  0  0
    0.7745    9.5807   26.1470 C   0  0  0  0  0  0
    0.3939    8.9076   27.3311 C   0  0  0  0  0  0
   -0.7404    9.2988   27.9670 N   0  0  0  0  0  0
   -1.4176   10.3362   27.4613 C   0  0  0  0  0  0
   -1.1510   11.0594   26.3659 N   0  0  0  0  0  0
   -0.0446   10.6097   25.7250 C   0  0  0  0  0  0
    0.4995   11.0332   24.5453 N   0  0  0  0  0  0
   -0.0460   12.0984   23.6782 C   0  0  0  0  0  0
   -1.5107   11.8245   23.2681 C   0  0  0  0  0  0
   -2.0666   12.8665   22.2958 C   0  0  0  0  0  0
   -1.4259   12.7690   21.0470 O   0  0  0  0  0  0
    1.1244    7.8699   27.8963 N   0  0  0  0  0  0
    8.7479   14.2605   24.6054 H   0  0  0  0  0  0
    7.8264   12.2235   23.5277 H   0  0  0  0  0  0
    7.2716   15.9203   25.6363 H   0  0  0  0  0  0
   -2.3033   10.6274   28.0074 H   0  0  0  0  0  0
    0.0514   13.0225   24.2492 H   0  0  0  0  0  0
    0.5967   12.1797   22.8022 H   0  0  0  0  0  0
   -1.6164   10.8264   22.8417 H   0  0  0  0  0  0
   -2.1576   11.8392   24.1450 H   0  0  0  0  0  0
   -3.1390   12.7728   22.1827 H   0  0  0  0  0  0
   -1.8907   13.8647   22.6861 H   0  0  0  0  0  0
   -1.9683   12.1910   20.4922 H   0  0  0  0  0  0
    2.0034    7.6037   27.4777 H   0  0  0  0  0  0
    0.8240    7.5112   28.7894 H   0  0  0  0  0  0
  1  6  1  0  0  0
  1  2  2  0  0  0
  1 26  1  0  0  0
  2  3  1  0  0  0
  2 27  1  0  0  0
  3 10  1  0  0  0
  3  4  2  0  0  0
  4  5  1  0  0  0
  4  8  1  0  0  0
  5  6  2  0  0  0
  5  7  1  0  0  0
  6 28  1  0  0  0
  8  9  1  0  0  0
  9 10  2  0  0  0
  9 11  1  0  0  0
 11 12  1  0  0  0
 12 20  1  0  0  0
 12 13  2  0  0  0
 13 14  1  0  0  0
 14 19  2  0  0  0
 14 15  1  0  0  0
 15 16  2  0  0  0
 15 25  1  0  0  0
 16 17  1  0  0  0
 17 18  2  0  0  0
 17 29  1  0  0  0
 18 19  1  0  0  0
 19 20  1  0  0  0
 20 21  1  0  0  0
 21 22  1  0  0  0
 21 30  1  0  0  0
 21 31  1  0  0  0
 22 23  1  0  0  0
 22 32  1  0  0  0
 22 33  1  0  0  0
 23 24  1  0  0  0
 23 34  1  0  0  0
 23 35  1  0  0  0
 24 36  1  0  0  0
 25 37  1  0  0  0
 25 38  1  0  0  0
M  END
> <s_m_entry_id>
5256

> <s_m_entry_name>
ligand_docking-pose.1

> <s_m_Source_Path>
/home/csk/Desktop/cluster/DUD-E-result/hs90a

> <s_m_Source_File>
ligand_docking-pose.sdf

> <i_m_Source_File_Index>
1

> <i_lp_mmshare_version>
53161

> <r_lp_tautomer_probability>
0.999997216410988

> <s_lp_Force_Field>
OPLS_2005

> <r_lp_Energy>
10.061696

> <b_lp_Chiralities_Consistent>
1

> <s_lp_Variant>
355926-1

> <s_i_glide_gridfile>
glide-grid_1uyg

> <i_i_glide_lignum>
53

> <i_i_glide_rotatable_bonds>
6

> <r_i_docking_score>
-9.78500249269732

> <r_i_glide_ligand_efficiency>
-0.391400099707893

> <r_i_glide_ligand_efficiency_sa>
-1.1444608330562

> <r_i_glide_ligand_efficiency_ln>
-2.31933882363153

> <r_i_glide_gscore>
-9.78500249269732

> <r_i_glide_lipo>
-3.9560455586224

> <r_i_glide_hbond>
-0.4941996188354

> <r_i_glide_metal>
0

> <r_i_glide_rewards>
-2.84585520263584

> <r_i_glide_evdw>
-47.6324043273926

> <r_i_glide_ecoul>
-4.93244743347168

> <r_i_glide_erotb>
0.632585218786704

> <r_i_glide_esite>
0

> <r_i_glide_emodel>
-80.467965284182

> <r_i_glide_energy>
-52.5648517608643

> <r_i_glide_einternal>
4.60248231887817

> <i_i_glide_confnum>
40

> <i_i_glide_posenum>
309

> <r_i_glide_eff_state_penalty>
0

> <s_user_duplicate_titles>
355926

> <i_f3d_flags>
0

> <s_m_subgroup_title>
dock_pv

> <s_m_subgroupid>
dock_pv1

> <b_m_subgroup_collapsed>
0

$$$$
346173
                    3D
 Schrodinger Suite 2021-1.
 54 57  0  0  1  0            999 V2000
    6.0474   15.0006   25.3841 C   0  0  0  0  0  0
    7.4671   13.9912   24.6621 S   0  0  0  0  0  0
    8.0610   14.7592   23.5670 O   0  0  0  0  0  0
    8.3235   13.5690   25.7730 O   0  0  0  0  0  0
    6.7197   12.4950   23.9670 C   0  0  0  0  0  0
    5.3314   12.3281   23.9532 C   0  0  0  0  0  0
    4.7828   11.0938   23.6161 C   0  0  0  0  0  0
    5.5926   10.0143   23.2601 C   0  0  0  0  0  0
    6.9779   10.2081   23.2034 C   0  0  0  0  0  0
    7.5382   11.4353   23.5670 C   0  0  0  0  0  0
    5.0011    8.6260   22.9323 C   0  0  0  0  0  0
    3.8794    8.1369   23.7635 N   0  0  0  0  0  0
    2.5307    8.4523   23.2726 C   0  0  0  0  0  0
    1.3724    8.0369   24.2257 C   0  0  0  0  0  0
    1.6417    8.2901   25.6449 N   0  0  0  0  0  0
    2.9138    7.6779   26.0191 C   0  0  0  0  0  0
    4.0610    8.2920   25.2059 C   0  0  0  0  0  0
    0.7519    8.8044   26.5447 C   0  0  0  0  0  0
    0.5345    8.3609   27.8419 C   0  0  0  0  0  0
   -0.4291    9.1690   28.3670 N   0  0  0  0  0  0
   -0.8389   10.1016   27.5120 N   0  0  0  0  0  0
   -0.1356    9.9075   26.4115 C   0  0  0  0  0  0
   -0.3420   10.7945   25.2148 C   0  0  0  0  0  0
    0.7675   11.2543   24.4964 C   0  0  0  0  0  0
    0.6047   11.9460   23.2927 C   0  0  0  0  0  0
   -0.6784   12.2069   22.8063 C   0  0  0  0  0  0
   -1.7834   11.8314   23.5557 C   0  0  0  0  0  0
   -1.6215   11.1362   24.7519 C   0  0  0  0  0  0
   -2.7390   10.7690   25.4415 O   0  0  0  0  0  0
   -0.8815   12.7690   21.5739 O   0  0  0  0  0  0
    1.9926   12.3690   22.3670 Cl  0  0  0  0  0  0
   -0.7678    9.1300   29.3227 H   0  0  0  0  0  0
    6.4628   15.8759   25.8784 H   0  0  0  0  0  0
    5.5098   14.3907   26.1079 H   0  0  0  0  0  0
    5.3866   15.3150   24.5786 H   0  0  0  0  0  0
    4.6621   13.1179   24.2558 H   0  0  0  0  0  0
    3.7210   10.9643   23.6896 H   0  0  0  0  0  0
    7.6299    9.3934   22.9219 H   0  0  0  0  0  0
    8.6116   11.5466   23.5842 H   0  0  0  0  0  0
    4.7158    8.6060   21.8792 H   0  0  0  0  0  0
    5.8008    7.8901   23.0319 H   0  0  0  0  0  0
    2.4367    9.4966   22.9868 H   0  0  0  0  0  0
    2.4032    7.8806   22.3579 H   0  0  0  0  0  0
    1.1220    6.9824   24.1021 H   0  0  0  0  0  0
    0.4549    8.5491   23.9404 H   0  0  0  0  0  0
    2.8559    6.5915   25.9405 H   0  0  0  0  0  0
    3.1088    7.8710   27.0745 H   0  0  0  0  0  0
    4.9856    7.7911   25.4869 H   0  0  0  0  0  0
    4.1404    9.3457   25.4712 H   0  0  0  0  0  0
    0.9789    7.5680   28.4249 H   0  0  0  0  0  0
    1.7608   11.0203   24.8501 H   0  0  0  0  0  0
   -2.7706   12.0454   23.1806 H   0  0  0  0  0  0
   -3.5537   11.1643   25.0888 H   0  0  0  0  0  0
   -1.8131   12.7854   21.3373 H   0  0  0  0  0  0
  1  2  1  0  0  0
  1 33  1  0  0  0
  1 34  1  0  0  0
  1 35  1  0  0  0
  2  3  2  0  0  0
  2  4  2  0  0  0
  2  5  1  0  0  0
  5 10  1  0  0  0
  5  6  2  0  0  0
  6  7  1  0  0  0
  6 36  1  0  0  0
  7  8  2  0  0  0
  7 37  1  0  0  0
  8  9  1  0  0  0
  8 11  1  0  0  0
  9 10  2  0  0  0
  9 38  1  0  0  0
 10 39  1  0  0  0
 11 12  1  0  0  0
 11 40  1  0  0  0
 11 41  1  0  0  0
 12 17  1  0  0  0
 12 13  1  0  0  0
 13 14  1  0  0  0
 13 42  1  0  0  0
 13 43  1  0  0  0
 14 15  1  0  0  0
 14 44  1  0  0  0
 14 45  1  0  0  0
 15 16  1  0  0  0
 15 18  1  0  0  0
 16 17  1  0  0  0
 16 46  1  0  0  0
 16 47  1  0  0  0
 17 48  1  0  0  0
 17 49  1  0  0  0
 18 22  1  0  0  0
 18 19  2  0  0  0
 19 20  1  0  0  0
 19 50  1  0  0  0
 20 32  1  0  0  0
 20 21  1  0  0  0
 21 22  2  0  0  0
 22 23  1  0  0  0
 23 28  1  0  0  0
 23 24  2  0  0  0
 24 25  1  0  0  0
 24 51  1  0  0  0
 25 26  2  0  0  0
 25 31  1  0  0  0
 26 27  1  0  0  0
 26 30  1  0  0  0
 27 28  2  0  0  0
 27 52  1  0  0  0
 28 29  1  0  0  0
 29 53  1  0  0  0
 30 54  1  0  0  0
M  END
> <s_m_entry_id>
5257

> <s_m_entry_name>
ligand_docking-pose.2

> <s_m_Source_Path>
/home/csk/Desktop/cluster/DUD-E-result/hs90a

> <s_m_Source_File>
ligand_docking-pose.sdf

> <i_m_Source_File_Index>
2

> <i_lp_mmshare_version>
53161

> <r_lp_tautomer_probability>
0.4999999999745

> <s_lp_Force_Field>
OPLS_2005

> <r_lp_Energy>
44.791462

> <b_lp_Chiralities_Consistent>
1

> <s_lp_Variant>
346173-1

> <s_i_glide_gridfile>
glide-grid_1uyg

> <i_i_glide_lignum>
100

> <i_i_glide_rotatable_bonds>
7

> <r_i_docking_score>
-9.62026089718471

> <r_i_glide_ligand_efficiency>
-0.310330996683378

> <r_i_glide_ligand_efficiency_sa>
-0.974867787702605

> <r_i_glide_ligand_efficiency_ln>
-2.16966365790444

> <r_i_glide_gscore>
-9.62026089718471

> <r_i_glide_lipo>
-4.11153318500591

> <r_i_glide_hbond>
-0.456

> <r_i_glide_metal>
0

> <r_i_glide_rewards>
-1.13431224297106

> <r_i_glide_evdw>
-49.0970802307129

> <r_i_glide_ecoul>
-12.26393699646

> <r_i_glide_erotb>
0.376029091796904

> <r_i_glide_esite>
0

> <r_i_glide_emodel>
-87.8717240146828

> <r_i_glide_energy>
-61.3610172271729

> <r_i_glide_einternal>
9.14564418792725

> <i_i_glide_confnum>
28

> <i_i_glide_posenum>
383

> <r_i_glide_eff_state_penalty>
0

> <s_user_duplicate_titles>
346173

> <i_f3d_flags>
0

> <s_m_subgroup_title>
dock_pv

> <s_m_subgroupid>
dock_pv1

> <b_m_subgroup_collapsed>
0

$$$$
332551
                    3D
 Schrodinger Suite 2021-1.
 43 45  0  0  1  0            999 V2000
    6.7908   12.8728   24.0199 C   0  0  0  0  0  0
    8.0065   13.2370   24.5820 C   0  0  0  0  0  0
    8.1044   14.3569   25.4078 C   0  0  0  0  0  0
    6.9539   15.0974   25.6984 C   0  0  0  0  0  0
    5.7179   14.7002   25.1820 C   0  0  0  0  0  0
    5.6289   13.5652   24.3672 C   0  0  0  0  0  0
    4.2805   13.0721   23.8434 C   0  0  0  0  0  0
    3.7048   11.9251   24.5559 N   0  0  0  0  0  0
    4.0617   10.6389   24.3682 C   0  0  0  0  0  0
    4.9912   10.2813   23.6456 O   0  0  0  0  0  0
    3.2061    9.6674   25.0052 C   0  0  0  0  0  0
    3.5883    8.3667   25.3761 C   0  0  0  0  0  0
    2.6064    7.6529   25.8651 N   0  0  0  0  0  0
    1.5434    8.4441   25.7313 N   0  0  0  0  0  0
    1.8115    9.6720   25.1764 C   0  0  0  0  0  0
    0.7225   10.6160   24.7767 C   0  0  0  0  0  0
    0.8949   11.2931   23.5673 C   0  0  0  0  0  0
   -0.1183   12.0663   23.0199 C   0  0  0  0  0  0
   -1.3317   12.1841   23.6955 C   0  0  0  0  0  0
   -1.5210   11.5263   24.9112 C   0  0  0  0  0  0
   -0.4897   10.7715   25.4700 C   0  0  0  0  0  0
   -0.6932   10.1991   26.6984 O   0  0  0  0  0  0
   -2.3398   12.9354   23.1684 O   0  0  0  0  0  0
    0.1344   12.7700   21.4610 Cl  0  0  0  0  0  0
    9.7178   14.8497   26.0423 S   0  0  0  0  0  0
   10.7271   14.3685   25.0956 O   0  0  0  0  0  0
    9.6614   16.2686   26.3926 O   0  0  0  0  0  0
    9.9546   13.9690   27.5263 N   0  0  0  0  0  0
    0.6135    8.1088   25.9403 H   0  0  0  0  0  0
    6.7491   12.0078   23.3755 H   0  0  0  0  0  0
    8.8610   12.6226   24.3671 H   0  0  0  0  0  0
    7.0077   15.9682   26.3349 H   0  0  0  0  0  0
    4.8307   15.2626   25.4355 H   0  0  0  0  0  0
    4.3988   12.7692   22.8017 H   0  0  0  0  0  0
    3.5622   13.8933   23.8427 H   0  0  0  0  0  0
    3.1051   12.1301   25.3423 H   0  0  0  0  0  0
    4.5863    7.9589   25.3006 H   0  0  0  0  0  0
    1.7897   11.1555   22.9794 H   0  0  0  0  0  0
   -2.4678   11.5927   25.4272 H   0  0  0  0  0  0
    0.1224    9.8872   27.0964 H   0  0  0  0  0  0
   -3.1993   12.7682   23.5870 H   0  0  0  0  0  0
   10.9154   13.6407   27.6257 H   0  0  0  0  0  0
    9.6582   14.5142   28.3444 H   0  0  0  0  0  0
  1  6  1  0  0  0
  1  2  2  0  0  0
  1 30  1  0  0  0
  2  3  1  0  0  0
  2 31  1  0  0  0
  3  4  2  0  0  0
  3 25  1  0  0  0
  4  5  1  0  0  0
  4 32  1  0  0  0
  5  6  2  0  0  0
  5 33  1  0  0  0
  6  7  1  0  0  0
  7  8  1  0  0  0
  7 34  1  0  0  0
  7 35  1  0  0  0
  8  9  1  0  0  0
  8 36  1  0  0  0
  9 10  2  0  0  0
  9 11  1  0  0  0
 11 15  2  0  0  0
 11 12  1  0  0  0
 12 37  1  0  0  0
 12 13  2  0  0  0
 13 14  1  0  0  0
 14 29  1  0  0  0
 14 15  1  0  0  0
 15 16  1  0  0  0
 16 21  1  0  0  0
 16 17  2  0  0  0
 17 18  1  0  0  0
 17 38  1  0  0  0
 18 19  2  0  0  0
 18 24  1  0  0  0
 19 20  1  0  0  0
 19 23  1  0  0  0
 20 21  2  0  0  0
 20 39  1  0  0  0
 21 22  1  0  0  0
 22 40  1  0  0  0
 23 41  1  0  0  0
 25 26  2  0  0  0
 25 27  2  0  0  0
 25 28  1  0  0  0
 28 42  1  0  0  0
 28 43  1  0  0  0
M  END
> <s_m_entry_id>
5258

> <s_m_entry_name>
ligand_docking-pose.3

> <s_m_Source_Path>
/home/csk/Desktop/cluster/DUD-E-result/hs90a

> <s_m_Source_File>
ligand_docking-pose.sdf

> <i_m_Source_File_Index>
3

> <i_lp_mmshare_version>
53161

> <r_lp_tautomer_probability>
0.4999999999745

> <s_lp_Force_Field>
OPLS_2005

> <r_lp_Energy>
24.072861

> <b_lp_Chiralities_Consistent>
1

> <s_lp_Variant>
332551-2

> <s_i_glide_gridfile>
glide-grid_1uyg

> <i_i_glide_lignum>
88

> <i_i_glide_rotatable_bonds>
8

> <r_i_docking_score>
-9.39718267857032

> <r_i_glide_ligand_efficiency>
-0.335613667091797

> <r_i_glide_ligand_efficiency_sa>
-1.01912075916973

> <r_i_glide_ligand_efficiency_ln>
-2.16914567548665

> <r_i_glide_gscore>
-9.39718267857032

> <r_i_glide_lipo>
-3.40578007552865

> <r_i_glide_hbond>
-0.456

> <r_i_glide_metal>
0

> <r_i_glide_rewards>
-1.71156394422552

> <r_i_glide_evdw>
-42.7244529724121

> <r_i_glide_ecoul>
-14.4039525985718

> <r_i_glide_erotb>
0.554095619160565

> <r_i_glide_esite>
-0.0811187395703435

> <r_i_glide_emodel>
-78.9754249098274

> <r_i_glide_energy>
-57.1284055709839

> <r_i_glide_einternal>
11.737813949585

> <i_i_glide_confnum>
44

> <i_i_glide_posenum>
304

> <r_i_glide_eff_state_penalty>
0

> <s_user_duplicate_titles>
332551

> <i_f3d_flags>
0

> <s_m_subgroup_title>
dock_pv

> <s_m_subgroupid>
dock_pv1

> <b_m_subgroup_collapsed>
0

$$$$
332742
                    3D
 Schrodinger Suite 2021-1.
 40 42  0  0  1  0            999 V2000
    9.0612   15.0483   27.0389 C   0  0  0  0  0  0
    8.7309   14.8250   25.5700 C   0  0  0  0  0  0
    9.6606   14.7683   24.7668 O   0  0  0  0  0  0
    7.3182   14.4889   25.2386 C   0  0  0  0  0  0
    7.0524   13.5148   24.2710 C   0  0  0  0  0  0
    5.7378   13.1686   23.9670 C   0  0  0  0  0  0
    4.6773   13.8171   24.6172 C   0  0  0  0  0  0
    4.9376   14.8403   25.5291 C   0  0  0  0  0  0
    6.2536   15.1684   25.8483 C   0  0  0  0  0  0
    3.3372   13.4822   24.3660 N   0  0  0  0  0  0
    2.8485   12.2270   24.2632 C   0  0  0  0  0  0
    3.5223   11.2086   24.4109 O   0  0  0  0  0  0
    1.4569   12.1551   23.8872 C   0  0  0  0  0  0
    0.8057   12.9782   22.9494 C   0  0  0  0  0  0
   -0.4641   12.6973   22.8063 N   0  0  0  0  0  0
   -0.6747   11.7250   23.6917 N   0  0  0  0  0  0
    0.4298   11.3563   24.4240 C   0  0  0  0  0  0
    0.3454   10.3691   25.5575 C   0  0  0  0  0  0
    1.3808    9.4540   25.7796 C   0  0  0  0  0  0
    1.3894    8.6320   26.9074 C   0  0  0  0  0  0
    0.3366    8.7025   27.8244 C   0  0  0  0  0  0
   -0.7394    9.5514   27.5765 C   0  0  0  0  0  0
   -0.7446   10.3686   26.4480 C   0  0  0  0  0  0
   -1.8370   11.1689   26.2440 O   0  0  0  0  0  0
    0.3537    7.9725   28.9844 O   0  0  0  0  0  0
    2.7311    7.5684   27.1600 Cl  0  0  0  0  0  0
   -1.6011   11.3516   23.8545 H   0  0  0  0  0  0
    8.6051   15.9635   27.4111 H   0  0  0  0  0  0
   10.1393   15.1036   27.2002 H   0  0  0  0  0  0
    8.6705   14.2235   27.6363 H   0  0  0  0  0  0
    7.8565   12.9963   23.7674 H   0  0  0  0  0  0
    5.5482   12.3948   23.2371 H   0  0  0  0  0  0
    4.1261   15.3588   26.0203 H   0  0  0  0  0  0
    6.4320   15.9543   26.5711 H   0  0  0  0  0  0
    2.6755   14.2415   24.3590 H   0  0  0  0  0  0
    1.2630   13.7627   22.3659 H   0  0  0  0  0  0
    2.2036    9.3780   25.0875 H   0  0  0  0  0  0
   -1.5618    9.5872   28.2760 H   0  0  0  0  0  0
   -2.5857   10.9609   26.8092 H   0  0  0  0  0  0
   -0.2595    8.3126   29.6426 H   0  0  0  0  0  0
  1  2  1  0  0  0
  1 28  1  0  0  0
  1 29  1  0  0  0
  1 30  1  0  0  0
  2  3  2  0  0  0
  2  4  1  0  0  0
  4  9  1  0  0  0
  4  5  2  0  0  0
  5  6  1  0  0  0
  5 31  1  0  0  0
  6  7  2  0  0  0
  6 32  1  0  0  0
  7  8  1  0  0  0
  7 10  1  0  0  0
  8  9  2  0  0  0
  8 33  1  0  0  0
  9 34  1  0  0  0
 10 11  1  0  0  0
 10 35  1  0  0  0
 11 12  2  0  0  0
 11 13  1  0  0  0
 13 17  2  0  0  0
 13 14  1  0  0  0
 14 36  1  0  0  0
 14 15  2  0  0  0
 15 16  1  0  0  0
 16 27  1  0  0  0
 16 17  1  0  0  0
 17 18  1  0  0  0
 18 23  1  0  0  0
 18 19  2  0  0  0
 19 20  1  0  0  0
 19 37  1  0  0  0
 20 21  2  0  0  0
 20 26  1  0  0  0
 21 22  1  0  0  0
 21 25  1  0  0  0
 22 23  2  0  0  0
 22 38  1  0  0  0
 23 24  1  0  0  0
 24 39  1  0  0  0
 25 40  1  0  0  0
M  END
> <s_m_entry_id>
5259

> <s_m_entry_name>
ligand_docking-pose.4

> <s_m_Source_Path>
/home/csk/Desktop/cluster/DUD-E-result/hs90a

> <s_m_Source_File>
ligand_docking-pose.sdf

> <i_m_Source_File_Index>
4

> <i_lp_mmshare_version>
53161

> <r_lp_tautomer_probability>
0.499974999974501

> <s_lp_Force_Field>
OPLS_2005

> <r_lp_Energy>
31.810865

> <b_lp_Chiralities_Consistent>
1

> <s_lp_Variant>
332742-2

> <s_i_glide_gridfile>
glide-grid_1uyg

> <i_i_glide_lignum>
75

> <i_i_glide_rotatable_bonds>
7

> <r_i_docking_score>
-9.32832088725359

> <r_i_glide_ligand_efficiency>
-0.358781572586677

> <r_i_glide_ligand_efficiency_sa>
-1.06288899705071

> <r_i_glide_ligand_efficiency_ln>
-2.19072555165412

> <r_i_glide_gscore>
-9.32832088725359

> <r_i_glide_lipo>
-4.17483172400201

> <r_i_glide_hbond>
-0.580578431517277

> <r_i_glide_metal>
0

> <r_i_glide_rewards>
-1.83978554479191

> <r_i_glide_evdw>
-47.5671234130859

> <r_i_glide_ecoul>
-6.09008550643921

> <r_i_glide_erotb>
0.558743809677786

> <r_i_glide_esite>
0

> <r_i_glide_emodel>
-78.4872943925857

> <r_i_glide_energy>
-53.6572089195251

> <r_i_glide_einternal>
10.3325757980347

> <i_i_glide_confnum>
10

> <i_i_glide_posenum>
185

> <r_i_glide_eff_state_penalty>
0

> <s_user_duplicate_titles>
332742

> <i_f3d_flags>
0

> <s_m_subgroup_title>
dock_pv

> <s_m_subgroupid>
dock_pv1

> <b_m_subgroup_collapsed>
0

$$$$
346200
                    3D
 Schrodinger Suite 2021-1.
 54 57  0  0  1  0            999 V2000
   10.5582   15.9756   26.6807 C   0  0  0  0  0  0
   10.0005   14.2196   26.4475 S   0  0  0  0  0  0
   10.7484   13.6808   25.3107 O   0  0  0  0  0  0
   10.0607   13.5689   27.7564 O   0  0  0  0  0  0
    8.2765   14.3706   25.9760 C   0  0  0  0  0  0
    7.8063   13.8306   24.7756 C   0  0  0  0  0  0
    6.4656   13.9678   24.4327 C   0  0  0  0  0  0
    5.5813   14.6341   25.2848 C   0  0  0  0  0  0
    6.0585   15.1777   26.4781 C   0  0  0  0  0  0
    7.4005   15.0425   26.8268 C   0  0  0  0  0  0
    4.1024   14.8010   24.9300 C   0  0  0  0  0  0
    3.4970   13.6820   24.1888 N   0  0  0  0  0  0
    2.1193   13.9905   23.8063 C   0  0  0  0  0  0
    1.5976   12.8398   22.9144 C   0  0  0  0  0  0
    1.4273   11.6006   23.6897 N   0  0  0  0  0  0
    2.7259   11.2720   24.3020 C   0  0  0  0  0  0
    3.4484   12.4597   24.9931 C   0  0  0  0  0  0
    0.2121   11.2988   24.2580 C   0  0  0  0  0  0
   -0.9937   11.9363   23.9783 C   0  0  0  0  0  0
   -1.9418   11.3383   24.7446 N   0  0  0  0  0  0
   -1.4554   10.3711   25.5033 N   0  0  0  0  0  0
   -0.1732   10.2980   25.2073 C   0  0  0  0  0  0
    0.6107    9.2137   25.8848 C   0  0  0  0  0  0
    0.6024    9.1699   27.2858 C   0  0  0  0  0  0
    1.3019    8.1844   27.9797 C   0  0  0  0  0  0
    2.0170    7.2185   27.2706 C   0  0  0  0  0  0
    2.0054    7.2257   25.8773 C   0  0  0  0  0  0
    1.3022    8.2115   25.1848 C   0  0  0  0  0  0
    1.2927    8.1624   23.8183 O   0  0  0  0  0  0
    2.7282    6.2553   27.9339 O   0  0  0  0  0  0
    1.2636    8.1742   29.8862 Br  0  0  0  0  0  0
   -2.9307   11.5711   24.7400 H   0  0  0  0  0  0
   11.6371   15.9714   26.5480 H   0  0  0  0  0  0
   10.2987   16.2714   27.6864 H   0  0  0  0  0  0
   10.0596   16.6168   25.9674 H   0  0  0  0  0  0
    8.4565   13.2867   24.1117 H   0  0  0  0  0  0
    6.1020   13.5300   23.5184 H   0  0  0  0  0  0
    5.3923   15.7022   27.1448 H   0  0  0  0  0  0
    7.7518   15.4348   27.7708 H   0  0  0  0  0  0
    3.5330   14.9948   25.8412 H   0  0  0  0  0  0
    4.0496   15.7054   24.3268 H   0  0  0  0  0  0
    1.4918   14.1107   24.6946 H   0  0  0  0  0  0
    2.0757   14.9301   23.2588 H   0  0  0  0  0  0
    2.3295   12.6358   22.1321 H   0  0  0  0  0  0
    0.6881   13.1387   22.3962 H   0  0  0  0  0  0
    3.3718   10.9021   23.5021 H   0  0  0  0  0  0
    2.6460   10.4458   25.0037 H   0  0  0  0  0  0
    4.4615   12.1300   25.1661 H   0  0  0  0  0  0
    3.0200   12.6940   25.9596 H   0  0  0  0  0  0
   -1.2669   12.7422   23.3140 H   0  0  0  0  0  0
    0.0479    9.9115   27.8436 H   0  0  0  0  0  0
    2.5423    6.4593   25.3394 H   0  0  0  0  0  0
    1.7495    7.3944   23.4677 H   0  0  0  0  0  0
    2.8187    6.4688   28.8663 H   0  0  0  0  0  0
  1  2  1  0  0  0
  1 33  1  0  0  0
  1 34  1  0  0  0
  1 35  1  0  0  0
  2  3  2  0  0  0
  2  4  2  0  0  0
  2  5  1  0  0  0
  5 10  1  0  0  0
  5  6  2  0  0  0
  6  7  1  0  0  0
  6 36  1  0  0  0
  7  8  2  0  0  0
  7 37  1  0  0  0
  8  9  1  0  0  0
  8 11  1  0  0  0
  9 10  2  0  0  0
  9 38  1  0  0  0
 10 39  1  0  0  0
 11 12  1  0  0  0
 11 40  1  0  0  0
 11 41  1  0  0  0
 12 17  1  0  0  0
 12 13  1  0  0  0
 13 14  1  0  0  0
 13 42  1  0  0  0
 13 43  1  0  0  0
 14 15  1  0  0  0
 14 44  1  0  0  0
 14 45  1  0  0  0
 15 16  1  0  0  0
 15 18  1  0  0  0
 16 17  1  0  0  0
 16 46  1  0  0  0
 16 47  1  0  0  0
 17 48  1  0  0  0
 17 49  1  0  0  0
 18 22  1  0  0  0
 18 19  2  0  0  0
 19 20  1  0  0  0
 19 50  1  0  0  0
 20 32  1  0  0  0
 20 21  1  0  0  0
 21 22  2  0  0  0
 22 23  1  0  0  0
 23 28  1  0  0  0
 23 24  2  0  0  0
 24 25  1  0  0  0
 24 51  1  0  0  0
 25 26  2  0  0  0
 25 31  1  0  0  0
 26 27  1  0  0  0
 26 30  1  0  0  0
 27 28  2  0  0  0
 27 52  1  0  0  0
 28 29  1  0  0  0
 29 53  1  0  0  0
 30 54  1  0  0  0
M  END
> <s_m_entry_id>
5260

> <s_m_entry_name>
ligand_docking-pose.5

> <s_m_Source_Path>
/home/csk/Desktop/cluster/DUD-E-result/hs90a

> <s_m_Source_File>
ligand_docking-pose.sdf

> <i_m_Source_File_Index>
5

> <i_lp_mmshare_version>
53161

> <r_lp_tautomer_probability>
0.4999999999745

> <s_lp_Force_Field>
OPLS_2005

> <r_lp_Energy>
44.524761

> <b_lp_Chiralities_Consistent>
1

> <s_lp_Variant>
346200-1

> <s_i_glide_gridfile>
glide-grid_1uyg

> <i_i_glide_lignum>
93

> <i_i_glide_rotatable_bonds>
7

> <r_i_docking_score>
-9.21416447502973

> <r_i_glide_ligand_efficiency>
-0.297231112097733

> <r_i_glide_ligand_efficiency_sa>
-0.933716063763807

> <r_i_glide_ligand_efficiency_ln>
-2.07807646934778

> <r_i_glide_gscore>
-9.21416447502973

> <r_i_glide_lipo>
-4.80813923915851

> <r_i_glide_hbond>
-0.14022530307275

> <r_i_glide_metal>
0

> <r_i_glide_rewards>
-1.33711316527335

> <r_i_glide_evdw>
-47.4877471923828

> <r_i_glide_ecoul>
-5.36241292953491

> <r_i_glide_erotb>
0.317978768648635

> <r_i_glide_esite>
-0.067916237124383

> <r_i_glide_emodel>
-81.6992295726364

> <r_i_glide_energy>
-52.8501601219177

> <r_i_glide_einternal>
2.81800508499146

> <i_i_glide_confnum>
68

> <i_i_glide_posenum>
17

> <r_i_glide_eff_state_penalty>
0

> <s_user_duplicate_titles>
346200

> <i_f3d_flags>
0

> <s_m_subgroup_title>
dock_pv

> <s_m_subgroupid>
dock_pv1

> <b_m_subgroup_collapsed>
0

$$$$
355894
                    3D
 Schrodinger Suite 2021-1.
 41 44  0  0  1  0            999 V2000
    7.6735   14.1736   24.5987 C   0  0  0  0  0  0
    7.1512   13.0442   23.9677 C   0  0  0  0  0  0
    5.7593   12.8696   23.9670 C   0  0  0  0  0  0
    4.9149   13.8443   24.5677 C   0  0  0  0  0  0
    5.4549   14.9785   25.1931 C   0  0  0  0  0  0
    6.8420   15.1148   25.2018 C   0  0  0  0  0  0
    4.4610   16.1699   25.9548 Cl  0  0  0  0  0  0
    3.2443   13.3346   24.3670 S   0  0  0  0  0  0
    3.8274   11.8928   23.5680 C   0  0  0  0  0  0
    5.1204   11.7900   23.4499 N   0  0  0  0  0  0
    2.7181   10.7380   22.8599 S   0  0  0  0  0  0
    1.7570   10.2883   24.2678 C   0  0  0  0  0  0
    0.5644   10.7852   24.4837 N   0  0  0  0  0  0
    0.1639   10.2226   25.6349 C   0  0  0  0  0  0
   -1.0216   10.3713   26.3862 C   0  0  0  0  0  0
   -1.1390    9.7081   27.5670 N   0  0  0  0  0  0
   -0.1314    8.9023   27.9287 C   0  0  0  0  0  0
    1.0222    8.6505   27.2885 N   0  0  0  0  0  0
    1.1177    9.3572   26.1335 C   0  0  0  0  0  0
    2.1337    9.3960   25.2175 N   0  0  0  0  0  0
    3.3985    8.6358   25.3039 C   0  0  0  0  0  0
    3.3520    7.2839   24.5495 C   0  0  0  0  0  0
    3.5675    7.3615   23.0240 C   0  0  0  0  0  0
    4.9829    7.8315   22.6264 C   0  0  0  0  0  0
    5.0390    8.5752   21.3589 C   0  0  0  0  0  0
    5.0861    9.1690   20.3670 N   0  0  0  0  0  0
   -2.0782   11.1688   25.9670 N   0  0  0  0  0  0
    8.7428   14.3206   24.6317 H   0  0  0  0  0  0
    7.8038   12.3126   23.5133 H   0  0  0  0  0  0
    7.2813   15.9690   25.6931 H   0  0  0  0  0  0
   -0.2638    8.3897   28.8708 H   0  0  0  0  0  0
    4.1825    9.3067   24.9566 H   0  0  0  0  0  0
    3.5711    8.4679   26.3670 H   0  0  0  0  0  0
    4.1228    6.6318   24.9630 H   0  0  0  0  0  0
    2.4064    6.7804   24.7601 H   0  0  0  0  0  0
    3.3870    6.3828   22.5768 H   0  0  0  0  0  0
    2.8058    8.0012   22.5822 H   0  0  0  0  0  0
    5.4077    8.4990   23.3739 H   0  0  0  0  0  0
    5.6610    6.9809   22.5561 H   0  0  0  0  0  0
   -2.0694   11.5344   25.0249 H   0  0  0  0  0  0
   -2.9442   11.1433   26.4882 H   0  0  0  0  0  0
  1  6  1  0  0  0
  1  2  2  0  0  0
  1 28  1  0  0  0
  2  3  1  0  0  0
  2 29  1  0  0  0
  3 10  1  0  0  0
  3  4  2  0  0  0
  4  5  1  0  0  0
  4  8  1  0  0  0
  5  6  2  0  0  0
  5  7  1  0  0  0
  6 30  1  0  0  0
  8  9  1  0  0  0
  9 10  2  0  0  0
  9 11  1  0  0  0
 11 12  1  0  0  0
 12 20  1  0  0  0
 12 13  2  0  0  0
 13 14  1  0  0  0
 14 19  2  0  0  0
 14 15  1  0  0  0
 15 16  2  0  0  0
 15 27  1  0  0  0
 16 17  1  0  0  0
 17 18  2  0  0  0
 17 31  1  0  0  0
 18 19  1  0  0  0
 19 20  1  0  0  0
 20 21  1  0  0  0
 21 22  1  0  0  0
 21 32  1  0  0  0
 21 33  1  0  0  0
 22 23  1  0  0  0
 22 34  1  0  0  0
 22 35  1  0  0  0
 23 24  1  0  0  0
 23 36  1  0  0  0
 23 37  1  0  0  0
 24 25  1  0  0  0
 24 38  1  0  0  0
 24 39  1  0  0  0
 25 26  3  0  0  0
 27 40  1  0  0  0
 27 41  1  0  0  0
M  END
> <s_m_entry_id>
5262

> <s_m_entry_name>
ligand_docking-pose.7

> <s_m_Source_Path>
/home/csk/Desktop/cluster/DUD-E-result/hs90a

> <s_m_Source_File>
ligand_docking-pose.sdf

> <i_m_Source_File_Index>
7

> <i_lp_mmshare_version>
53161

> <r_lp_tautomer_probability>
0.999997216410988

> <s_lp_Force_Field>
OPLS_2005

> <r_lp_Energy>
9.198448

> <b_lp_Chiralities_Consistent>
1

> <s_lp_Variant>
355894-1

> <s_i_glide_gridfile>
glide-grid_1uyg

> <i_i_glide_lignum>
42

> <i_i_glide_rotatable_bonds>
6

> <r_i_docking_score>
-9.0598288478787

> <r_i_glide_ligand_efficiency>
-0.3355492165881

> <r_i_glide_ligand_efficiency_sa>
-1.00664764865838

> <r_i_glide_ligand_efficiency_ln>
-2.10897879283425

> <r_i_glide_gscore>
-9.0598288478787

> <r_i_glide_lipo>
-3.36830055813595

> <r_i_glide_hbond>
-0.294432811972205

> <r_i_glide_metal>
0

> <r_i_glide_rewards>
-2.55534196385539

> <r_i_glide_evdw>
-44.845573425293

> <r_i_glide_ecoul>
-7.33028888702393

> <r_i_glide_erotb>
0.570867254011825

> <r_i_glide_esite>
-0.0707987636087369

> <r_i_glide_emodel>
-77.7551023468927

> <r_i_glide_energy>
-52.1758623123169

> <r_i_glide_einternal>
3.63091230392456

> <i_i_glide_confnum>
72

> <i_i_glide_posenum>
391

> <r_i_glide_eff_state_penalty>
0

> <s_user_duplicate_titles>
355894

> <i_f3d_flags>
0

> <s_m_subgroup_title>
dock_pv

> <s_m_subgroupid>
dock_pv1

> <b_m_subgroup_collapsed>
0

$$$$
355955
                    3D
 Schrodinger Suite 2021-1.
 41 44  0  0  1  0            999 V2000
    7.8477   14.2386   24.6313 C   0  0  0  0  0  0
    7.4302   13.0707   23.9948 C   0  0  0  0  0  0
    6.0633   12.7808   23.9632 C   0  0  0  0  0  0
    5.1277   13.6803   24.5429 C   0  0  0  0  0  0
    5.5572   14.8621   25.1669 C   0  0  0  0  0  0
    6.9280   15.1079   25.2097 C   0  0  0  0  0  0
    4.4588   15.9690   25.9089 Cl  0  0  0  0  0  0
    3.5228   12.9917   24.3670 S   0  0  0  0  0  0
    4.2581   11.5690   23.6360 C   0  0  0  0  0  0
    5.5453   11.6330   23.4660 N   0  0  0  0  0  0
    3.3439   10.1509   23.1366 S   0  0  0  0  0  0
    1.9714   10.2193   24.2368 C   0  0  0  0  0  0
    0.9024   10.9202   23.9675 N   0  0  0  0  0  0
    0.0797   10.6904   24.9975 C   0  0  0  0  0  0
   -1.2350   11.1256   25.2397 C   0  0  0  0  0  0
   -1.8337   10.7693   26.4056 N   0  0  0  0  0  0
   -1.1391    9.9942   27.2531 C   0  0  0  0  0  0
    0.0958    9.4870   27.1159 N   0  0  0  0  0  0
    0.6620    9.8741   25.9452 C   0  0  0  0  0  0
    1.8833    9.5607   25.4173 N   0  0  0  0  0  0
    2.8893    8.6812   26.0369 C   0  0  0  0  0  0
    2.5261    7.1824   25.9540 C   0  0  0  0  0  0
    2.4725    6.5400   24.5427 C   0  0  0  0  0  0
    1.2568    6.8768   23.6518 C   0  0  0  0  0  0
    0.0610    6.7709   24.3924 O   0  0  0  0  0  0
   -1.9391   11.8831   24.3137 N   0  0  0  0  0  0
    8.9004   14.4699   24.6953 H   0  0  0  0  0  0
    8.1400   12.3795   23.5677 H   0  0  0  0  0  0
    7.2888   15.9828   25.7215 H   0  0  0  0  0  0
   -1.6485    9.7333   28.1695 H   0  0  0  0  0  0
    3.8493    8.8974   25.5677 H   0  0  0  0  0  0
    2.9404    9.0079   27.0766 H   0  0  0  0  0  0
    3.2788    6.6417   26.5291 H   0  0  0  0  0  0
    1.5916    6.9996   26.4870 H   0  0  0  0  0  0
    3.3890    6.7685   23.9976 H   0  0  0  0  0  0
    2.4834    5.4569   24.6727 H   0  0  0  0  0  0
    1.3046    7.8911   23.2651 H   0  0  0  0  0  0
    1.1977    6.1980   22.7993 H   0  0  0  0  0  0
   -0.6739    7.0918   23.8545 H   0  0  0  0  0  0
   -1.5185   12.0464   23.4115 H   0  0  0  0  0  0
   -2.9448   11.9837   24.4393 H   0  0  0  0  0  0
  1  6  1  0  0  0
  1  2  2  0  0  0
  1 27  1  0  0  0
  2  3  1  0  0  0
  2 28  1  0  0  0
  3 10  1  0  0  0
  3  4  2  0  0  0
  4  5  1  0  0  0
  4  8  1  0  0  0
  5  6  2  0  0  0
  5  7  1  0  0  0
  6 29  1  0  0  0
  8  9  1  0  0  0
  9 10  2  0  0  0
  9 11  1  0  0  0
 11 12  1  0  0  0
 12 20  1  0  0  0
 12 13  2  0  0  0
 13 14  1  0  0  0
 14 19  2  0  0  0
 14 15  1  0  0  0
 15 16  2  0  0  0
 15 26  1  0  0  0
 16 17  1  0  0  0
 17 18  2  0  0  0
 17 30  1  0  0  0
 18 19  1  0  0  0
 19 20  1  0  0  0
 20 21  1  0  0  0
 21 22  1  0  0  0
 21 31  1  0  0  0
 21 32  1  0  0  0
 22 23  1  0  0  0
 22 33  1  0  0  0
 22 34  1  0  0  0
 23 24  1  0  0  0
 23 35  1  0  0  0
 23 36  1  0  0  0
 24 25  1  0  0  0
 24 37  1  0  0  0
 24 38  1  0  0  0
 25 39  1  0  0  0
 26 40  1  0  0  0
 26 41  1  0  0  0
M  END
> <s_m_entry_id>
5263

> <s_m_entry_name>
ligand_docking-pose.8

> <s_m_Source_Path>
/home/csk/Desktop/cluster/DUD-E-result/hs90a

> <s_m_Source_File>
ligand_docking-pose.sdf

> <i_m_Source_File_Index>
8

> <i_lp_mmshare_version>
53161

> <r_lp_tautomer_probability>
0.999997216410988

> <s_lp_Force_Field>
OPLS_2005

> <r_lp_Energy>
10.039624

> <b_lp_Chiralities_Consistent>
1

> <s_lp_Variant>
355955-1

> <s_i_glide_gridfile>
glide-grid_1uyg

> <i_i_glide_lignum>
54

> <i_i_glide_rotatable_bonds>
7

> <r_i_docking_score>
-9.05688931745669

> <r_i_glide_ligand_efficiency>
-0.348341896825257

> <r_i_glide_ligand_efficiency_sa>
-1.03196149868565

> <r_i_glide_ligand_efficiency_ln>
-2.12698073812694

> <r_i_glide_gscore>
-9.05688931745669

> <r_i_glide_lipo>
-3.3952317291289

> <r_i_glide_hbond>
-0.491110286093303

> <r_i_glide_metal>
0

> <r_i_glide_rewards>
-2.68066305822905

> <r_i_glide_evdw>
-44.364574432373

> <r_i_glide_ecoul>
-6.25022745132446

> <r_i_glide_erotb>
0.712654878417737

> <r_i_glide_esite>
-0.0467762831058495

> <r_i_glide_emodel>
-76.8816247639687

> <r_i_glide_energy>
-50.6148018836975

> <r_i_glide_einternal>
1.54644775390625

> <i_i_glide_confnum>
120

> <i_i_glide_posenum>
309

> <r_i_glide_eff_state_penalty>
0

> <s_user_duplicate_titles>
355955

> <i_f3d_flags>
0

> <s_m_subgroup_title>
dock_pv

> <s_m_subgroupid>
dock_pv1

> <b_m_subgroup_collapsed>
0

$$$$
355596
                    3D
 Schrodinger Suite 2021-1.
 34 37  0  0  1  0            999 V2000
   -1.5448   11.7583   23.0640 C   0  0  0  0  0  0
   -0.1549   12.1427   23.5999 C   0  0  0  0  0  0
    0.4052   11.1103   24.5017 N   0  0  0  0  0  0
   -0.1526   10.6756   25.6732 C   0  0  0  0  0  0
    0.7212    9.7168   26.1506 C   0  0  0  0  0  0
    0.3685    9.0721   27.3594 C   0  0  0  0  0  0
   -0.7962    9.4147   27.9670 N   0  0  0  0  0  0
   -1.5390   10.3690   27.3953 C   0  0  0  0  0  0
   -1.3048   11.0641   26.2724 N   0  0  0  0  0  0
    1.1602    8.1133   27.9788 N   0  0  0  0  0  0
    1.7882    9.5880   25.3453 N   0  0  0  0  0  0
    1.5730   10.4322   24.3654 C   0  0  0  0  0  0
    2.6955   10.6107   23.0116 S   0  0  0  0  0  0
    3.8060   11.8299   23.6264 C   0  0  0  0  0  0
    5.0985   11.7427   23.4791 N   0  0  0  0  0  0
    5.7417   12.8351   23.9670 C   0  0  0  0  0  0
    7.1346   13.0077   23.9670 C   0  0  0  0  0  0
    7.6610   14.1476   24.5766 C   0  0  0  0  0  0
    6.8333   15.1005   25.1670 C   0  0  0  0  0  0
    5.4465   14.9624   25.1670 C   0  0  0  0  0  0
    4.9022   13.8206   24.5561 C   0  0  0  0  0  0
    3.2311   13.3091   24.3670 S   0  0  0  0  0  0
    4.4610   16.1668   25.9171 Cl  0  0  0  0  0  0
   -1.8802   12.4685   22.3075 H   0  0  0  0  0  0
   -1.5426   10.7690   22.6107 H   0  0  0  0  0  0
   -2.3006   11.7623   23.8506 H   0  0  0  0  0  0
   -0.1888   13.0573   24.1907 H   0  0  0  0  0  0
    0.5490   12.3019   22.7842 H   0  0  0  0  0  0
   -2.4528   10.6212   27.9141 H   0  0  0  0  0  0
    2.0638    7.8953   27.5856 H   0  0  0  0  0  0
    0.8756    7.7786   28.8865 H   0  0  0  0  0  0
    7.7860   12.2660   23.5276 H   0  0  0  0  0  0
    8.7306   14.2935   24.6033 H   0  0  0  0  0  0
    7.2724   15.9685   25.6368 H   0  0  0  0  0  0
  1  2  1  0  0  0
  1 24  1  0  0  0
  1 25  1  0  0  0
  1 26  1  0  0  0
  2  3  1  0  0  0
  2 27  1  0  0  0
  2 28  1  0  0  0
  3 12  1  0  0  0
  3  4  1  0  0  0
  4  9  2  0  0  0
  4  5  1  0  0  0
  5  6  2  0  0  0
  5 11  1  0  0  0
  6  7  1  0  0  0
  6 10  1  0  0  0
  7  8  2  0  0  0
  8  9  1  0  0  0
  8 29  1  0  0  0
 10 30  1  0  0  0
 10 31  1  0  0  0
 11 12  2  0  0  0
 12 13  1  0  0  0
 13 14  1  0  0  0
 14 22  1  0  0  0
 14 15  2  0  0  0
 15 16  1  0  0  0
 16 21  2  0  0  0
 16 17  1  0  0  0
 17 18  2  0  0  0
 17 32  1  0  0  0
 18 19  1  0  0  0
 18 33  1  0  0  0
 19 20  2  0  0  0
 19 34  1  0  0  0
 20 21  1  0  0  0
 20 23  1  0  0  0
 21 22  1  0  0  0
M  END
> <s_m_entry_id>
5264

> <s_m_entry_name>
ligand_docking-pose.9

> <s_m_Source_Path>
/home/csk/Desktop/cluster/DUD-E-result/hs90a

> <s_m_Source_File>
ligand_docking-pose.sdf

> <i_m_Source_File_Index>
9

> <i_lp_mmshare_version>
53161

> <r_lp_tautomer_probability>
0.999997216410988

> <s_lp_Force_Field>
OPLS_2005

> <r_lp_Energy>
10.00203

> <b_lp_Chiralities_Consistent>
1

> <s_lp_Variant>
355596-1

> <s_i_glide_gridfile>
glide-grid_1uyg

> <i_i_glide_lignum>
68

> <i_i_glide_rotatable_bonds>
3

> <r_i_docking_score>
-9.04839399458038

> <r_i_glide_ligand_efficiency>
-0.393408434546973

> <r_i_glide_ligand_efficiency_sa>
-1.1188012554339

> <r_i_glide_ligand_efficiency_ln>
-2.18798371419011

> <r_i_glide_gscore>
-9.04839399458038

> <r_i_glide_lipo>
-3.79916909531721

> <r_i_glide_hbond>
-0.162030210342099

> <r_i_glide_metal>
0

> <r_i_glide_rewards>
-3.06564143602063

> <r_i_glide_evdw>
-44.5694885253906

> <r_i_glide_ecoul>
-0.565490186214447

> <r_i_glide_erotb>
0.291744701301259

> <r_i_glide_esite>
0

> <r_i_glide_emodel>
-67.0965073664734

> <r_i_glide_energy>
-45.1349787116051

> <r_i_glide_einternal>
2.97729015350342

> <i_i_glide_confnum>
1

> <i_i_glide_posenum>
149

> <r_i_glide_eff_state_penalty>
0

> <s_user_duplicate_titles>
355596

> <i_f3d_flags>
0

> <s_m_subgroup_title>
dock_pv

> <s_m_subgroupid>
dock_pv1

> <b_m_subgroup_collapsed>
0

$$$$
418968
                    3D
 Schrodinger Suite 2021-1.
 48 51  0  0  1  0            999 V2000
    8.3148   14.1822   25.8097 C   0  0  0  0  0  0
    7.4861   15.0287   26.5390 C   0  0  0  0  0  0
    6.1479   15.1691   26.1791 C   0  0  0  0  0  0
    5.6236   14.4323   25.1127 C   0  0  0  0  0  0
    6.4738   13.6068   24.3668 C   0  0  0  0  0  0
    7.8138   13.4732   24.7222 C   0  0  0  0  0  0
    4.1602   14.6556   24.7166 C   0  0  0  0  0  0
    3.4683   13.5225   24.0785 N   0  0  0  0  0  0
    2.0940   13.9091   23.7650 C   0  0  0  0  0  0
    1.4419   12.7464   23.0000 C   0  0  0  0  0  0
    1.1513   11.6592   23.9399 N   0  0  0  0  0  0
    2.3933   11.2404   24.6181 C   0  0  0  0  0  0
    3.4499   12.3377   24.9446 C   0  0  0  0  0  0
   -0.1309   11.3228   24.3077 C   0  0  0  0  0  0
   -1.2971   11.9281   23.8423 C   0  0  0  0  0  0
   -2.3384   11.3164   24.4658 N   0  0  0  0  0  0
   -1.9452   10.3690   25.2947 N   0  0  0  0  0  0
   -0.6329   10.3378   25.2156 C   0  0  0  0  0  0
    0.0745    9.3188   26.0573 C   0  0  0  0  0  0
    1.0106    8.4741   25.4496 C   0  0  0  0  0  0
    1.7388    7.5536   26.2041 C   0  0  0  0  0  0
    1.5180    7.4559   27.5830 C   0  0  0  0  0  0
    0.5515    8.2541   28.1899 C   0  0  0  0  0  0
   -0.1806    9.1685   27.4344 C   0  0  0  0  0  0
   -1.1383    9.9061   28.0826 O   0  0  0  0  0  0
    2.2453    6.5968   28.3640 O   0  0  0  0  0  0
    2.9209    6.5692   25.4133 Cl  0  0  0  0  0  0
   -3.3261   11.5712   24.3667 H   0  0  0  0  0  0
    9.3504   14.0705   26.0948 H   0  0  0  0  0  0
    7.8775   15.5692   27.3880 H   0  0  0  0  0  0
    5.5177   15.8408   26.7446 H   0  0  0  0  0  0
    6.0915   13.0640   23.5147 H   0  0  0  0  0  0
    8.4572   12.8153   24.1579 H   0  0  0  0  0  0
    3.6045   15.0032   25.5899 H   0  0  0  0  0  0
    4.1563   15.4881   24.0124 H   0  0  0  0  0  0
    1.5356   14.1305   24.6776 H   0  0  0  0  0  0
    2.0609   14.8164   23.1671 H   0  0  0  0  0  0
    2.0821   12.3691   22.2010 H   0  0  0  0  0  0
    0.5463   13.1053   22.4958 H   0  0  0  0  0  0
    2.8519   10.4644   24.0041 H   0  0  0  0  0  0
    2.1536   10.7382   25.5504 H   0  0  0  0  0  0
    4.4311   11.8671   24.8896 H   0  0  0  0  0  0
    3.3333   12.6652   25.9670 H   0  0  0  0  0  0
   -1.4838   12.7348   23.1494 H   0  0  0  0  0  0
    1.1918    8.5509   24.3866 H   0  0  0  0  0  0
    0.3691    8.1684   29.2516 H   0  0  0  0  0  0
   -1.1530    9.7136   29.0251 H   0  0  0  0  0  0
    2.1228    6.7683   29.2998 H   0  0  0  0  0  0
  1  6  1  0  0  0
  1  2  2  0  0  0
  1 29  1  0  0  0
  2  3  1  0  0  0
  2 30  1  0  0  0
  3  4  2  0  0  0
  3 31  1  0  0  0
  4  5  1  0  0  0
  4  7  1  0  0  0
  5  6  2  0  0  0
  5 32  1  0  0  0
  6 33  1  0  0  0
  7  8  1  0  0  0
  7 34  1  0  0  0
  7 35  1  0  0  0
  8 13  1  0  0  0
  8  9  1  0  0  0
  9 10  1  0  0  0
  9 36  1  0  0  0
  9 37  1  0  0  0
 10 11  1  0  0  0
 10 38  1  0  0  0
 10 39  1  0  0  0
 11 12  1  0  0  0
 11 14  1  0  0  0
 12 13  1  0  0  0
 12 40  1  0  0  0
 12 41  1  0  0  0
 13 42  1  0  0  0
 13 43  1  0  0  0
 14 18  1  0  0  0
 14 15  2  0  0  0
 15 16  1  0  0  0
 15 44  1  0  0  0
 16 28  1  0  0  0
 16 17  1  0  0  0
 17 18  2  0  0  0
 18 19  1  0  0  0
 19 24  1  0  0  0
 19 20  2  0  0  0
 20 21  1  0  0  0
 20 45  1  0  0  0
 21 22  2  0  0  0
 21 27  1  0  0  0
 22 23  1  0  0  0
 22 26  1  0  0  0
 23 24  2  0  0  0
 23 46  1  0  0  0
 24 25  1  0  0  0
 25 47  1  0  0  0
 26 48  1  0  0  0
M  END
> <s_m_entry_id>
5265

> <s_m_entry_name>
ligand_docking-pose.10

> <s_m_Source_Path>
/home/csk/Desktop/cluster/DUD-E-result/hs90a

> <s_m_Source_File>
ligand_docking-pose.sdf

> <i_m_Source_File_Index>
10

> <i_lp_mmshare_version>
53161

> <r_lp_tautomer_probability>
0.4999999999745

> <s_lp_Force_Field>
OPLS_2005

> <r_lp_Energy>
45.179778

> <b_lp_Chiralities_Consistent>
1

> <s_lp_Variant>
418968-1

> <s_i_glide_gridfile>
glide-grid_1uyg

> <i_i_glide_lignum>
95

> <i_i_glide_rotatable_bonds>
6

> <r_i_docking_score>
-9.0245220951846

> <r_i_glide_ligand_efficiency>
-0.334241559080911

> <r_i_glide_ligand_efficiency_sa>
-1.00272467614113

> <r_i_glide_ligand_efficiency_ln>
-2.10075996288438

> <r_i_glide_gscore>
-9.0245220951846

> <r_i_glide_lipo>
-4.59924417562161

> <r_i_glide_hbond>
-0.378923341032451

> <r_i_glide_metal>
0

> <r_i_glide_rewards>
-1.59171113177625

> <r_i_glide_evdw>
-40.0722198486328

> <r_i_glide_ecoul>
-6.15762615203857

> <r_i_glide_erotb>
0.52518085539719

> <r_i_glide_esite>
-0.0525693869140464

> <r_i_glide_emodel>
-68.9431884158364

> <r_i_glide_energy>
-46.2298460006714

> <r_i_glide_einternal>
1.80798411369324

> <i_i_glide_confnum>
192

> <i_i_glide_posenum>
342

> <r_i_glide_eff_state_penalty>
0

> <s_user_duplicate_titles>
418968

> <i_f3d_flags>
0

> <s_m_subgroup_title>
dock_pv

> <s_m_subgroupid>
dock_pv1

> <b_m_subgroup_collapsed>
0

$$$$
355957
                    3D
 Schrodinger Suite 2021-1.
 42 45  0  0  1  0            999 V2000
    6.8601    9.8041   21.5662 C   0  0  0  0  0  0
    5.4827    9.1689   21.4470 C   0  0  0  0  0  0
    4.8678    9.1689   20.3787 O   0  0  0  0  0  0
    5.0757    8.6417   22.6129 O   0  0  0  0  0  0
    3.8228    7.9784   22.7330 C   0  0  0  0  0  0
    3.5348    7.7407   24.2267 C   0  0  0  0  0  0
    3.4909    9.0172   25.1012 C   0  0  0  0  0  0
    2.1855    9.7092   25.0501 N   0  0  0  0  0  0
    1.1751    9.5682   25.9625 C   0  0  0  0  0  0
    0.1677   10.3920   25.4993 C   0  0  0  0  0  0
   -1.0243   10.4336   26.2547 C   0  0  0  0  0  0
   -1.0932    9.7248   27.4117 N   0  0  0  0  0  0
   -0.0364    8.9696   27.7406 C   0  0  0  0  0  0
    1.1265    8.8106   27.0879 N   0  0  0  0  0  0
   -2.1368   11.1672   25.8670 N   0  0  0  0  0  0
    0.5315   11.0281   24.3741 N   0  0  0  0  0  0
    1.7548   10.6206   24.1421 C   0  0  0  0  0  0
    2.6874   11.2058   22.7671 S   0  0  0  0  0  0
    3.7950   12.2953   23.5813 C   0  0  0  0  0  0
    5.0894   12.1413   23.5670 N   0  0  0  0  0  0
    5.7254   13.1689   24.1829 C   0  0  0  0  0  0
    7.1142   13.2941   24.3423 C   0  0  0  0  0  0
    7.6556   14.2992   25.0722 N   0  0  0  0  0  0
    6.8206   15.1930   25.6569 C   0  0  0  0  0  0
    5.4299   15.1790   25.5348 C   0  0  0  0  0  0
    4.8788   14.1404   24.7696 C   0  0  0  0  0  0
    3.2121   13.7423   24.3675 S   0  0  0  0  0  0
    4.4599   16.3696   26.3205 Cl  0  0  0  0  0  0
    6.8981   10.4769   22.4218 H   0  0  0  0  0  0
    7.1026   10.3687   20.6675 H   0  0  0  0  0  0
    7.6118    9.0266   21.7012 H   0  0  0  0  0  0
    3.0172    8.5544   22.2790 H   0  0  0  0  0  0
    3.8654    7.0260   22.2023 H   0  0  0  0  0  0
    2.6063    7.1778   24.3358 H   0  0  0  0  0  0
    4.3171    7.0860   24.6132 H   0  0  0  0  0  0
    3.6601    8.7675   26.1485 H   0  0  0  0  0  0
    4.2475    9.7511   24.8247 H   0  0  0  0  0  0
   -0.1332    8.4153   28.6632 H   0  0  0  0  0  0
   -2.1598   11.5688   24.9398 H   0  0  0  0  0  0
   -2.9932   11.0752   26.3965 H   0  0  0  0  0  0
    7.7970   12.5732   23.9173 H   0  0  0  0  0  0
    7.2932   15.9690   26.2396 H   0  0  0  0  0  0
  1  2  1  0  0  0
  1 29  1  0  0  0
  1 30  1  0  0  0
  1 31  1  0  0  0
  2  3  2  0  0  0
  2  4  1  0  0  0
  4  5  1  0  0  0
  5  6  1  0  0  0
  5 32  1  0  0  0
  5 33  1  0  0  0
  6  7  1  0  0  0
  6 34  1  0  0  0
  6 35  1  0  0  0
  7  8  1  0  0  0
  7 36  1  0  0  0
  7 37  1  0  0  0
  8 17  1  0  0  0
  8  9  1  0  0  0
  9 14  2  0  0  0
  9 10  1  0  0  0
 10 11  2  0  0  0
 10 16  1  0  0  0
 11 12  1  0  0  0
 11 15  1  0  0  0
 12 13  2  0  0  0
 13 14  1  0  0  0
 13 38  1  0  0  0
 15 39  1  0  0  0
 15 40  1  0  0  0
 16 17  2  0  0  0
 17 18  1  0  0  0
 18 19  1  0  0  0
 19 27  1  0  0  0
 19 20  2  0  0  0
 20 21  1  0  0  0
 21 26  2  0  0  0
 21 22  1  0  0  0
 22 23  2  0  0  0
 22 41  1  0  0  0
 23 24  1  0  0  0
 24 25  2  0  0  0
 24 42  1  0  0  0
 25 26  1  0  0  0
 25 28  1  0  0  0
 26 27  1  0  0  0
M  END
> <s_m_entry_id>
5267

> <s_m_entry_name>
ligand_docking-pose.12

> <s_m_Source_Path>
/home/csk/Desktop/cluster/DUD-E-result/hs90a

> <s_m_Source_File>
ligand_docking-pose.sdf

> <i_m_Source_File_Index>
12

> <i_lp_mmshare_version>
53161

> <r_lp_tautomer_probability>
0.999997216410988

> <s_lp_Force_Field>
OPLS_2005

> <r_lp_Energy>
8.075152

> <b_lp_Chiralities_Consistent>
1

> <s_lp_Variant>
355957-1

> <s_i_glide_gridfile>
glide-grid_1uyg

> <i_i_glide_lignum>
61

> <i_i_glide_rotatable_bonds>
7

> <r_i_docking_score>
-8.79044314168156

> <r_i_glide_ligand_efficiency>
-0.313944397917199

> <r_i_glide_ligand_efficiency_sa>
-0.953320095438625

> <r_i_glide_ligand_efficiency_ln>
-2.02909237572583

> <r_i_glide_gscore>
-8.79044314168156

> <r_i_glide_lipo>
-3.33895430653959

> <r_i_glide_hbond>
-0.228310939219381

> <r_i_glide_metal>
0

> <r_i_glide_rewards>
-2.47496384738082

> <r_i_glide_evdw>
-48.2075004577637

> <r_i_glide_ecoul>
-6.06239938735962

> <r_i_glide_erotb>
0.629250624539091

> <r_i_glide_esite>
-0.0577297420887375

> <r_i_glide_emodel>
-80.6226536722489

> <r_i_glide_energy>
-54.2698998451233

> <r_i_glide_einternal>
4.64645957946777

> <i_i_glide_confnum>
13

> <i_i_glide_posenum>
216

> <r_i_glide_eff_state_penalty>
0

> <s_user_duplicate_titles>
355957

> <i_f3d_flags>
0

> <s_m_subgroup_title>
dock_pv

> <s_m_subgroupid>
dock_pv1

> <b_m_subgroup_collapsed>
0

$$$$
355794
                    3D
 Schrodinger Suite 2021-1.
 40 43  0  0  1  0            999 V2000
    0.4216    6.5460   24.5643 C   0  0  0  0  0  0
    1.4539    6.3463   25.6872 C   0  0  0  0  0  0
    2.7855    7.1046   25.4853 C   0  0  0  0  0  0
    2.8380    8.5370   26.0631 C   0  0  0  0  0  0
    1.8468    9.4359   25.4476 N   0  0  0  0  0  0
    0.6391    9.7922   25.9789 C   0  0  0  0  0  0
    0.0645   10.5971   25.0151 C   0  0  0  0  0  0
   -1.2349   11.0770   25.2672 C   0  0  0  0  0  0
   -1.8222   10.7690   26.4526 N   0  0  0  0  0  0
   -1.1393    9.9925   27.3069 C   0  0  0  0  0  0
    0.0766    9.4445   27.1637 N   0  0  0  0  0  0
   -1.9390   11.8337   24.3405 N   0  0  0  0  0  0
    0.8807   10.7732   23.9670 N   0  0  0  0  0  0
    1.9422   10.0650   24.2529 C   0  0  0  0  0  0
    3.3477    9.9941   23.1915 S   0  0  0  0  0  0
    4.2081   11.4638   23.6565 C   0  0  0  0  0  0
    5.4922   11.5896   23.4821 N   0  0  0  0  0  0
    5.9576   12.7692   23.9670 C   0  0  0  0  0  0
    7.3072   13.1440   23.9675 C   0  0  0  0  0  0
    7.6614   14.3481   24.5763 C   0  0  0  0  0  0
    6.7005   15.1653   25.1671 C   0  0  0  0  0  0
    5.3487   14.8297   25.1585 C   0  0  0  0  0  0
    4.9810   13.6227   24.5438 C   0  0  0  0  0  0
    3.4114   12.8627   24.3670 S   0  0  0  0  0  0
    4.1948   15.8662   25.9191 Cl  0  0  0  0  0  0
   -0.4809    5.9689   24.7671 H   0  0  0  0  0  0
    0.1152    7.5844   24.4528 H   0  0  0  0  0  0
    0.8132    6.2131   23.6018 H   0  0  0  0  0  0
    1.6675    5.2783   25.7520 H   0  0  0  0  0  0
    1.0116    6.6144   26.6481 H   0  0  0  0  0  0
    3.0573    7.1135   24.4283 H   0  0  0  0  0  0
    3.5765    6.5331   25.9730 H   0  0  0  0  0  0
    3.8069    9.0042   25.8947 H   0  0  0  0  0  0
    2.6463    8.5494   27.1375 H   0  0  0  0  0  0
   -1.6431    9.7681   28.2365 H   0  0  0  0  0  0
   -1.5360   11.9639   23.4256 H   0  0  0  0  0  0
   -2.9381   11.9696   24.4882 H   0  0  0  0  0  0
    8.0590   12.5003   23.5334 H   0  0  0  0  0  0
    8.6984   14.6483   24.6080 H   0  0  0  0  0  0
    7.0088   16.0764   25.6528 H   0  0  0  0  0  0
  1  2  1  0  0  0
  1 26  1  0  0  0
  1 27  1  0  0  0
  1 28  1  0  0  0
  2  3  1  0  0  0
  2 29  1  0  0  0
  2 30  1  0  0  0
  3  4  1  0  0  0
  3 31  1  0  0  0
  3 32  1  0  0  0
  4  5  1  0  0  0
  4 33  1  0  0  0
  4 34  1  0  0  0
  5 14  1  0  0  0
  5  6  1  0  0  0
  6 11  2  0  0  0
  6  7  1  0  0  0
  7  8  2  0  0  0
  7 13  1  0  0  0
  8  9  1  0  0  0
  8 12  1  0  0  0
  9 10  2  0  0  0
 10 11  1  0  0  0
 10 35  1  0  0  0
 12 36  1  0  0  0
 12 37  1  0  0  0
 13 14  2  0  0  0
 14 15  1  0  0  0
 15 16  1  0  0  0
 16 24  1  0  0  0
 16 17  2  0  0  0
 17 18  1  0  0  0
 18 23  2  0  0  0
 18 19  1  0  0  0
 19 20  2  0  0  0
 19 38  1  0  0  0
 20 21  1  0  0  0
 20 39  1  0  0  0
 21 22  2  0  0  0
 21 40  1  0  0  0
 22 23  1  0  0  0
 22 25  1  0  0  0
 23 24  1  0  0  0
M  END
> <s_m_entry_id>
5268

> <s_m_entry_name>
ligand_docking-pose.13

> <s_m_Source_Path>
/home/csk/Desktop/cluster/DUD-E-result/hs90a

> <s_m_Source_File>
ligand_docking-pose.sdf

> <i_m_Source_File_Index>
13

> <i_lp_mmshare_version>
53161

> <r_lp_tautomer_probability>
0.999997216410988

> <s_lp_Force_Field>
OPLS_2005

> <r_lp_Energy>
9.315919

> <b_lp_Chiralities_Consistent>
1

> <s_lp_Variant>
355794-1

> <s_i_glide_gridfile>
glide-grid_1uyg

> <i_i_glide_lignum>
63

> <i_i_glide_rotatable_bonds>
5

> <r_i_docking_score>
-8.72975512370577

> <r_i_glide_ligand_efficiency>
-0.349190204948231

> <r_i_glide_ligand_efficiency_sa>
-1.02103835218328

> <r_i_glide_ligand_efficiency_ln>
-2.06921357396872

> <r_i_glide_gscore>
-8.72975512370577

> <r_i_glide_lipo>
-3.48699835813821

> <r_i_glide_hbond>
-0.21029776741283

> <r_i_glide_metal>
0

> <r_i_glide_rewards>
-2.78152241726762

> <r_i_glide_evdw>
-42.9809036254883

> <r_i_glide_ecoul>
-3.81665754318237

> <r_i_glide_erotb>
0.510666112191875

> <r_i_glide_esite>
-0.0400588803272186

> <r_i_glide_emodel>
-67.9376565787541

> <r_i_glide_energy>
-46.7975611686707

> <r_i_glide_einternal>
2.76680421829224

> <i_i_glide_confnum>
2

> <i_i_glide_posenum>
100

> <r_i_glide_eff_state_penalty>
0

> <s_user_duplicate_titles>
355794

> <i_f3d_flags>
0

> <s_m_subgroup_title>
dock_pv

> <s_m_subgroupid>
dock_pv1

> <b_m_subgroup_collapsed>
0

$$$$
355859
                    3D
 Schrodinger Suite 2021-1.
 43 46  0  0  1  0            999 V2000
    0.3163    6.8462   24.5554 C   0  0  0  0  0  0
    1.3161    6.7052   25.7152 C   0  0  0  0  0  0
    2.6470    7.4654   25.5200 C   0  0  0  0  0  0
    2.6741    8.9184   26.0478 C   0  0  0  0  0  0
    1.7521    9.8134   25.3255 N   0  0  0  0  0  0
    0.5069   10.1856   25.7370 C   0  0  0  0  0  0
    0.0276   10.9906   24.7194 C   0  0  0  0  0  0
   -1.2983   11.4557   24.8425 C   0  0  0  0  0  0
   -1.9899   11.1328   25.9644 N   0  0  0  0  0  0
   -1.3903   10.3691   26.8856 C   0  0  0  0  0  0
   -0.1610    9.8393   26.8651 N   0  0  0  0  0  0
   -1.9389   12.2144   23.8700 N   0  0  0  0  0  0
    0.9464   11.1689   23.7577 N   0  0  0  0  0  0
    1.9500   10.4083   24.1272 C   0  0  0  0  0  0
    3.4115   10.1922   23.1663 S   0  0  0  0  0  0
    4.3673   11.5914   23.6393 C   0  0  0  0  0  0
    5.6582   11.6297   23.4671 N   0  0  0  0  0  0
    6.1993   12.7690   23.9670 C   0  0  0  0  0  0
    7.5693   13.0447   24.0066 C   0  0  0  0  0  0
    7.9912   14.2149   24.6383 C   0  0  0  0  0  0
    7.0747   15.0938   25.2095 C   0  0  0  0  0  0
    5.6993   14.8528   25.1761 C   0  0  0  0  0  0
    5.2752   13.6793   24.5387 C   0  0  0  0  0  0
    3.6610   13.0249   24.3667 S   0  0  0  0  0  0
    4.7428   15.8080   25.8572 C   0  0  0  0  0  0
   -0.5958    6.2858   24.7668 H   0  0  0  0  0  0
    0.0189    7.8797   24.3824 H   0  0  0  0  0  0
    0.7316    6.4638   23.6201 H   0  0  0  0  0  0
    1.5341    5.6422   25.8300 H   0  0  0  0  0  0
    0.8419    7.0105   26.6508 H   0  0  0  0  0  0
    2.9550    7.4319   24.4731 H   0  0  0  0  0  0
    3.4230    6.9188   26.0577 H   0  0  0  0  0  0
    3.6608    9.3703   25.9561 H   0  0  0  0  0  0
    2.3936    8.9690   27.1014 H   0  0  0  0  0  0
   -1.9837   10.1394   27.7583 H   0  0  0  0  0  0
   -1.4840   12.3690   22.9839 H   0  0  0  0  0  0
   -2.9416   12.3639   23.9799 H   0  0  0  0  0  0
    8.2770   12.3433   23.5910 H   0  0  0  0  0  0
    9.0454   14.4374   24.7089 H   0  0  0  0  0  0
    7.4495   15.9693   25.7144 H   0  0  0  0  0  0
    5.2054   16.7691   26.0670 H   0  0  0  0  0  0
    3.8800   15.9716   25.2137 H   0  0  0  0  0  0
    4.3778   15.3751   26.7881 H   0  0  0  0  0  0
  1  2  1  0  0  0
  1 26  1  0  0  0
  1 27  1  0  0  0
  1 28  1  0  0  0
  2  3  1  0  0  0
  2 29  1  0  0  0
  2 30  1  0  0  0
  3  4  1  0  0  0
  3 31  1  0  0  0
  3 32  1  0  0  0
  4  5  1  0  0  0
  4 33  1  0  0  0
  4 34  1  0  0  0
  5 14  1  0  0  0
  5  6  1  0  0  0
  6 11  2  0  0  0
  6  7  1  0  0  0
  7  8  2  0  0  0
  7 13  1  0  0  0
  8  9  1  0  0  0
  8 12  1  0  0  0
  9 10  2  0  0  0
 10 11  1  0  0  0
 10 35  1  0  0  0
 12 36  1  0  0  0
 12 37  1  0  0  0
 13 14  2  0  0  0
 14 15  1  0  0  0
 15 16  1  0  0  0
 16 24  1  0  0  0
 16 17  2  0  0  0
 17 18  1  0  0  0
 18 23  2  0  0  0
 18 19  1  0  0  0
 19 20  2  0  0  0
 19 38  1  0  0  0
 20 21  1  0  0  0
 20 39  1  0  0  0
 21 22  2  0  0  0
 21 40  1  0  0  0
 22 23  1  0  0  0
 22 25  1  0  0  0
 23 24  1  0  0  0
 25 41  1  0  0  0
 25 42  1  0  0  0
 25 43  1  0  0  0
M  END
> <s_m_entry_id>
5269

> <s_m_entry_name>
ligand_docking-pose.14

> <s_m_Source_Path>
/home/csk/Desktop/cluster/DUD-E-result/hs90a

> <s_m_Source_File>
ligand_docking-pose.sdf

> <i_m_Source_File_Index>
14

> <i_lp_mmshare_version>
53161

> <r_lp_tautomer_probability>
0.999997216410988

> <s_lp_Force_Field>
OPLS_2005

> <r_lp_Energy>
11.323276

> <b_lp_Chiralities_Consistent>
1

> <s_lp_Variant>
355859-1

> <s_i_glide_gridfile>
glide-grid_1uyg

> <i_i_glide_lignum>
82

> <i_i_glide_rotatable_bonds>
5

> <r_i_docking_score>
-8.56239229288921

> <r_i_glide_ligand_efficiency>
-0.342495691715568

> <r_i_glide_ligand_efficiency_sa>
-1.00146347676328

> <r_i_glide_ligand_efficiency_ln>
-2.02954356760588

> <r_i_glide_gscore>
-8.56239229288921

> <r_i_glide_lipo>
-3.36974203870193

> <r_i_glide_hbond>
-0.206488459290484

> <r_i_glide_metal>
0

> <r_i_glide_rewards>
-2.8352438959921

> <r_i_glide_evdw>
-43.1098365783691

> <r_i_glide_ecoul>
-3.40355396270752

> <r_i_glide_erotb>
0.562191764575624

> <r_i_glide_esite>
-0.0470847401557365

> <r_i_glide_emodel>
-66.7899030020146

> <r_i_glide_energy>
-46.5133905410767

> <r_i_glide_einternal>
2.5579526424408

> <i_i_glide_confnum>
1

> <i_i_glide_posenum>
365

> <r_i_glide_eff_state_penalty>
0

> <s_user_duplicate_titles>
355859

> <i_f3d_flags>
0

> <s_m_subgroup_title>
dock_pv

> <s_m_subgroupid>
dock_pv1

> <b_m_subgroup_collapsed>
0

$$$$
355797
                    3D
 Schrodinger Suite 2021-1.
 39 42  0  0  1  0            999 V2000
   -2.4928   13.4666   22.3836 C   0  0  0  0  0  0
   -1.5895   12.2430   22.2197 C   0  0  0  0  0  0
   -1.5726   11.3368   23.4617 C   0  0  0  0  0  0
   -0.7303   11.8843   24.6307 C   0  0  0  0  0  0
    0.2292   10.8826   25.1399 N   0  0  0  0  0  0
    0.0746   10.1129   26.2587 C   0  0  0  0  0  0
    1.2253    9.3479   26.3208 C   0  0  0  0  0  0
    1.3398    8.4497   27.4069 C   0  0  0  0  0  0
    0.3186    8.3705   28.2979 N   0  0  0  0  0  0
   -0.7390    9.1690   28.1052 C   0  0  0  0  0  0
   -0.9536   10.0784   27.1427 N   0  0  0  0  0  0
    2.4528    7.6457   27.6210 N   0  0  0  0  0  0
    2.0503    9.6214   25.2961 N   0  0  0  0  0  0
    1.4151   10.5250   24.5896 C   0  0  0  0  0  0
    2.0372   11.1697   23.0691 S   0  0  0  0  0  0
    3.3757   12.1334   23.6584 C   0  0  0  0  0  0
    4.6277   11.7914   23.5294 N   0  0  0  0  0  0
    5.4578   12.7723   23.9670 C   0  0  0  0  0  0
    6.8613   12.7365   23.9669 C   0  0  0  0  0  0
    7.6021   13.7453   24.4935 N   0  0  0  0  0  0
    6.9624   14.8116   25.0370 C   0  0  0  0  0  0
    5.5741   14.9561   25.0808 C   0  0  0  0  0  0
    4.8164   13.9106   24.5259 C   0  0  0  0  0  0
    3.0785   13.7017   24.3670 S   0  0  0  0  0  0
    4.8487   16.3595   25.7801 Cl  0  0  0  0  0  0
   -2.3519   14.1743   21.5667 H   0  0  0  0  0  0
   -3.5389   13.1751   22.3794 H   0  0  0  0  0  0
   -2.3080   13.9689   23.3312 H   0  0  0  0  0  0
   -0.5747   12.5574   21.9722 H   0  0  0  0  0  0
   -1.9400   11.6693   21.3627 H   0  0  0  0  0  0
   -1.1948   10.3666   23.1671 H   0  0  0  0  0  0
   -2.5940   11.1467   23.7976 H   0  0  0  0  0  0
   -1.3747   12.1408   25.4711 H   0  0  0  0  0  0
   -0.1396   12.7628   24.3667 H   0  0  0  0  0  0
   -1.5257    9.0876   28.8399 H   0  0  0  0  0  0
    3.2405    7.7218   26.9950 H   0  0  0  0  0  0
    2.4924    7.0984   28.4668 H   0  0  0  0  0  0
    7.4026   11.8935   23.5635 H   0  0  0  0  0  0
    7.5961   15.5829   25.4492 H   0  0  0  0  0  0
  1  2  1  0  0  0
  1 26  1  0  0  0
  1 27  1  0  0  0
  1 28  1  0  0  0
  2  3  1  0  0  0
  2 29  1  0  0  0
  2 30  1  0  0  0
  3  4  1  0  0  0
  3 31  1  0  0  0
  3 32  1  0  0  0
  4  5  1  0  0  0
  4 33  1  0  0  0
  4 34  1  0  0  0
  5 14  1  0  0  0
  5  6  1  0  0  0
  6 11  2  0  0  0
  6  7  1  0  0  0
  7  8  2  0  0  0
  7 13  1  0  0  0
  8  9  1  0  0  0
  8 12  1  0  0  0
  9 10  2  0  0  0
 10 11  1  0  0  0
 10 35  1  0  0  0
 12 36  1  0  0  0
 12 37  1  0  0  0
 13 14  2  0  0  0
 14 15  1  0  0  0
 15 16  1  0  0  0
 16 24  1  0  0  0
 16 17  2  0  0  0
 17 18  1  0  0  0
 18 23  2  0  0  0
 18 19  1  0  0  0
 19 20  2  0  0  0
 19 38  1  0  0  0
 20 21  1  0  0  0
 21 22  2  0  0  0
 21 39  1  0  0  0
 22 23  1  0  0  0
 22 25  1  0  0  0
 23 24  1  0  0  0
M  END
> <s_m_entry_id>
5270

> <s_m_entry_name>
ligand_docking-pose.15

> <s_m_Source_Path>
/home/csk/Desktop/cluster/DUD-E-result/hs90a

> <s_m_Source_File>
ligand_docking-pose.sdf

> <i_m_Source_File_Index>
15

> <i_lp_mmshare_version>
53161

> <r_lp_tautomer_probability>
0.999997216410988

> <s_lp_Force_Field>
OPLS_2005

> <r_lp_Energy>
12.678208

> <b_lp_Chiralities_Consistent>
1

> <s_lp_Variant>
355797-1

> <s_i_glide_gridfile>
glide-grid_1uyg

> <i_i_glide_lignum>
76

> <i_i_glide_rotatable_bonds>
5

> <r_i_docking_score>
-8.55376373095231

> <r_i_glide_ligand_efficiency>
-0.342150549238092

> <r_i_glide_ligand_efficiency_sa>
-1.00045427403801

> <r_i_glide_ligand_efficiency_ln>
-2.0274983398497

> <r_i_glide_gscore>
-8.55376373095231

> <r_i_glide_lipo>
-3.70434112209692

> <r_i_glide_hbond>
0

> <r_i_glide_metal>
0

> <r_i_glide_rewards>
-2.94207929167628

> <r_i_glide_evdw>
-46.4887771606445

> <r_i_glide_ecoul>
-0.608399510383606

> <r_i_glide_erotb>
0.508355467410659

> <r_i_glide_esite>
0

> <r_i_glide_emodel>
-67.267955620741

> <r_i_glide_energy>
-47.0971766710281

> <r_i_glide_einternal>
5.69824266433716

> <i_i_glide_confnum>
9

> <i_i_glide_posenum>
138

> <r_i_glide_eff_state_penalty>
0

> <s_user_duplicate_titles>
355797

> <i_f3d_flags>
0

> <s_m_subgroup_title>
dock_pv

> <s_m_subgroupid>
dock_pv1

> <b_m_subgroup_collapsed>
0

$$$$
355828
                    3D
 Schrodinger Suite 2021-1.
 40 43  0  0  1  0            999 V2000
    0.3561    6.8684   24.4984 C   0  0  0  0  0  0
    1.4042    6.7558   25.6186 C   0  0  0  0  0  0
    2.7233    7.5172   25.3535 C   0  0  0  0  0  0
    2.7691    8.9773   25.8594 C   0  0  0  0  0  0
    1.8062    9.8528   25.1673 N   0  0  0  0  0  0
    0.5659   10.2043   25.6176 C   0  0  0  0  0  0
    0.0442   10.9972   24.6132 C   0  0  0  0  0  0
   -1.2782   11.4553   24.7799 C   0  0  0  0  0  0
   -1.9388   11.1252   25.9195 N   0  0  0  0  0  0
   -1.3007   10.3690   26.8214 C   0  0  0  0  0  0
   -0.0639    9.8552   26.7670 N   0  0  0  0  0  0
   -1.9390   12.2215   23.8295 N   0  0  0  0  0  0
    0.9270   11.1784   23.6195 N   0  0  0  0  0  0
    1.9624   10.4576   23.9670 C   0  0  0  0  0  0
    3.4059   10.3251   22.9699 S   0  0  0  0  0  0
    4.3633   11.6780   23.5675 C   0  0  0  0  0  0
    5.6573   11.7055   23.4254 N   0  0  0  0  0  0
    6.2014   12.8226   23.9670 C   0  0  0  0  0  0
    7.5757   13.0745   24.0442 C   0  0  0  0  0  0
    8.0052   14.2216   24.7117 C   0  0  0  0  0  0
    7.0907   15.1093   25.2709 C   0  0  0  0  0  0
    5.7171   14.8964   25.1861 C   0  0  0  0  0  0
    5.2781   13.7328   24.5447 C   0  0  0  0  0  0
    3.6610   13.0834   24.3670 S   0  0  0  0  0  0
    4.8490   15.7663   25.7511 F   0  0  0  0  0  0
   -0.5500    6.3241   24.7670 H   0  0  0  0  0  0
    0.0610    7.8967   24.3008 H   0  0  0  0  0  0
    0.7272    6.4482   23.5628 H   0  0  0  0  0  0
    1.6329    5.6971   25.7497 H   0  0  0  0  0  0
    0.9694    7.0779   26.5661 H   0  0  0  0  0  0
    2.9816    7.4725   24.2939 H   0  0  0  0  0  0
    3.5262    6.9802   25.8604 H   0  0  0  0  0  0
    3.7491    9.4290   25.7072 H   0  0  0  0  0  0
    2.5401    9.0456   26.9247 H   0  0  0  0  0  0
   -1.8645   10.1316   27.7121 H   0  0  0  0  0  0
   -1.5076   12.3690   22.9304 H   0  0  0  0  0  0
   -2.9379   12.3690   23.9670 H   0  0  0  0  0  0
    8.2810   12.3690   23.6318 H   0  0  0  0  0  0
    9.0614   14.4224   24.8137 H   0  0  0  0  0  0
    7.4537   15.9690   25.8061 H   0  0  0  0  0  0
  1  2  1  0  0  0
  1 26  1  0  0  0
  1 27  1  0  0  0
  1 28  1  0  0  0
  2  3  1  0  0  0
  2 29  1  0  0  0
  2 30  1  0  0  0
  3  4  1  0  0  0
  3 31  1  0  0  0
  3 32  1  0  0  0
  4  5  1  0  0  0
  4 33  1  0  0  0
  4 34  1  0  0  0
  5 14  1  0  0  0
  5  6  1  0  0  0
  6 11  2  0  0  0
  6  7  1  0  0  0
  7  8  2  0  0  0
  7 13  1  0  0  0
  8  9  1  0  0  0
  8 12  1  0  0  0
  9 10  2  0  0  0
 10 11  1  0  0  0
 10 35  1  0  0  0
 12 36  1  0  0  0
 12 37  1  0  0  0
 13 14  2  0  0  0
 14 15  1  0  0  0
 15 16  1  0  0  0
 16 24  1  0  0  0
 16 17  2  0  0  0
 17 18  1  0  0  0
 18 23  2  0  0  0
 18 19  1  0  0  0
 19 20  2  0  0  0
 19 38  1  0  0  0
 20 21  1  0  0  0
 20 39  1  0  0  0
 21 22  2  0  0  0
 21 40  1  0  0  0
 22 23  1  0  0  0
 22 25  1  0  0  0
 23 24  1  0  0  0
M  END
> <s_m_entry_id>
5271

> <s_m_entry_name>
ligand_docking-pose.16

> <s_m_Source_Path>
/home/csk/Desktop/cluster/DUD-E-result/hs90a

> <s_m_Source_File>
ligand_docking-pose.sdf

> <i_m_Source_File_Index>
16

> <i_lp_mmshare_version>
53161

> <r_lp_tautomer_probability>
0.999997216410988

> <s_lp_Force_Field>
OPLS_2005

> <r_lp_Energy>
9.723888

> <b_lp_Chiralities_Consistent>
1

> <s_lp_Variant>
355828-1

> <s_i_glide_gridfile>
glide-grid_1uyg

> <i_i_glide_lignum>
67

> <i_i_glide_rotatable_bonds>
5

> <r_i_docking_score>
-8.49968546814628

> <r_i_glide_ligand_efficiency>
-0.339987418725851

> <r_i_glide_ligand_efficiency_sa>
-0.994129242056935

> <r_i_glide_ligand_efficiency_ln>
-2.01468017096991

> <r_i_glide_gscore>
-8.49968546814628

> <r_i_glide_lipo>
-3.00284869346613

> <r_i_glide_hbond>
-0.197416928600112

> <r_i_glide_metal>
0

> <r_i_glide_rewards>
-3.24996936777174

> <r_i_glide_evdw>
-40.5752449035645

> <r_i_glide_ecoul>
-3.53770351409912

> <r_i_glide_erotb>
0.55159353121699

> <r_i_glide_esite>
-0.0416262372321989

> <r_i_glide_emodel>
-65.0611285059089

> <r_i_glide_energy>
-44.1129484176636

> <r_i_glide_einternal>
2.44881629943848

> <i_i_glide_confnum>
1

> <i_i_glide_posenum>
9

> <r_i_glide_eff_state_penalty>
0

> <s_user_duplicate_titles>
355828

> <i_f3d_flags>
0

> <s_m_subgroup_title>
dock_pv

> <s_m_subgroupid>
dock_pv1

> <b_m_subgroup_collapsed>
0

$$$$
518457
                    3D
 Schrodinger Suite 2021-1.
 42 44  0  0  1  0            999 V2000
    3.2859    8.1676   25.9432 C   0  0  0  0  0  0
    2.3919    8.3377   27.1856 C   0  0  0  0  0  0
    1.0600    9.0645   26.9762 C   0  0  0  0  0  0
    0.8014    9.8109   25.8179 C   0  0  0  0  0  0
   -0.4168   10.4706   25.6153 C   0  0  0  0  0  0
   -1.4071   10.3356   26.6097 C   0  0  0  0  0  0
   -1.1390    9.6480   27.7907 C   0  0  0  0  0  0
    0.0824    9.0145   27.9768 C   0  0  0  0  0  0
    0.3080    8.3692   29.1667 O   0  0  0  0  0  0
   -2.6949   10.7696   26.4527 O   0  0  0  0  0  0
   -0.6093   11.2498   24.3379 C   0  0  0  0  0  0
    0.3141   12.0564   23.6409 C   0  0  0  0  0  0
   -0.4866   12.7680   22.2663 S   0  0  0  0  0  0
   -1.9388   11.9706   22.6033 N   0  0  0  0  0  0
   -1.7899   11.2216   23.7500 N   0  0  0  0  0  0
    1.7380   12.4336   23.8530 C   0  0  0  0  0  0
    2.7846   11.5524   23.5757 C   0  0  0  0  0  0
    4.1039   11.9564   23.7737 C   0  0  0  0  0  0
    4.3945   13.2417   24.2334 C   0  0  0  0  0  0
    3.3388   14.1260   24.4952 C   0  0  0  0  0  0
    2.0228   13.7260   24.2903 C   0  0  0  0  0  0
    5.7314   13.5687   24.3675 O   0  0  0  0  0  0
    6.0846   14.8327   24.9287 C   0  0  0  0  0  0
    7.6070   14.9847   24.9029 C   0  0  0  0  0  0
    4.1629    7.5660   26.1820 H   0  0  0  0  0  0
    3.6467    9.1273   25.5702 H   0  0  0  0  0  0
    2.7546    7.6621   25.1354 H   0  0  0  0  0  0
    2.1759    7.3438   27.5822 H   0  0  0  0  0  0
    2.9335    8.8626   27.9727 H   0  0  0  0  0  0
    1.5495    9.8582   25.0489 H   0  0  0  0  0  0
   -1.9043    9.5734   28.5498 H   0  0  0  0  0  0
   -0.2655    8.7043   29.8677 H   0  0  0  0  0  0
   -2.9062   11.1410   25.5892 H   0  0  0  0  0  0
    2.5815   10.5613   23.1972 H   0  0  0  0  0  0
    4.9118   11.2736   23.5580 H   0  0  0  0  0  0
    3.5177   15.1322   24.8400 H   0  0  0  0  0  0
    1.2195   14.4254   24.4752 H   0  0  0  0  0  0
    5.6380   15.6545   24.3671 H   0  0  0  0  0  0
    5.7250   14.8991   25.9581 H   0  0  0  0  0  0
    7.9056   15.9548   25.3040 H   0  0  0  0  0  0
    8.0858   14.2086   25.5003 H   0  0  0  0  0  0
    7.9898   14.9106   23.8848 H   0  0  0  0  0  0
  1  2  1  0  0  0
  1 25  1  0  0  0
  1 26  1  0  0  0
  1 27  1  0  0  0
  2  3  1  0  0  0
  2 28  1  0  0  0
  2 29  1  0  0  0
  3  8  1  0  0  0
  3  4  2  0  0  0
  4  5  1  0  0  0
  4 30  1  0  0  0
  5  6  2  0  0  0
  5 11  1  0  0  0
  6  7  1  0  0  0
  6 10  1  0  0  0
  7  8  2  0  0  0
  7 31  1  0  0  0
  8  9  1  0  0  0
  9 32  1  0  0  0
 10 33  1  0  0  0
 11 15  1  0  0  0
 11 12  2  0  0  0
 12 13  1  0  0  0
 12 16  1  0  0  0
 13 14  1  0  0  0
 14 15  2  0  0  0
 16 21  1  0  0  0
 16 17  2  0  0  0
 17 18  1  0  0  0
 17 34  1  0  0  0
 18 19  2  0  0  0
 18 35  1  0  0  0
 19 20  1  0  0  0
 19 22  1  0  0  0
 20 21  2  0  0  0
 20 36  1  0  0  0
 21 37  1  0  0  0
 22 23  1  0  0  0
 23 24  1  0  0  0
 23 38  1  0  0  0
 23 39  1  0  0  0
 24 40  1  0  0  0
 24 41  1  0  0  0
 24 42  1  0  0  0
M  END
> <s_m_entry_id>
5272

> <s_m_entry_name>
ligand_docking-pose.17

> <s_m_Source_Path>
/home/csk/Desktop/cluster/DUD-E-result/hs90a

> <s_m_Source_File>
ligand_docking-pose.sdf

> <i_m_Source_File_Index>
17

> <i_lp_mmshare_version>
53161

> <r_lp_tautomer_probability>
0.999999999898

> <s_lp_Force_Field>
OPLS_2005

> <r_lp_Energy>
21.933245

> <b_lp_Chiralities_Consistent>
1

> <s_lp_Variant>
518457-1

> <s_i_glide_gridfile>
glide-grid_1uyg

> <i_i_glide_lignum>
29

> <i_i_glide_rotatable_bonds>
7

> <r_i_docking_score>
-8.48901634507389

> <r_i_glide_ligand_efficiency>
-0.353709014378079

> <r_i_glide_ligand_efficiency_sa>
-1.02027334692045

> <r_i_glide_ligand_efficiency_ln>
-2.03181114695378

> <r_i_glide_gscore>
-8.48901634507389

> <r_i_glide_lipo>
-4.74664889815928

> <r_i_glide_hbond>
-0.32

> <r_i_glide_metal>
0

> <r_i_glide_rewards>
-1.34924366617113

> <r_i_glide_evdw>
-41.3932075500488

> <r_i_glide_ecoul>
-3.25766777992249

> <r_i_glide_erotb>
0.485186763747335

> <r_i_glide_esite>
0

> <r_i_glide_emodel>
-64.4754940853291

> <r_i_glide_energy>
-44.6508753299713

> <r_i_glide_einternal>
4.75973272323608

> <i_i_glide_confnum>
55

> <i_i_glide_posenum>
207

> <r_i_glide_eff_state_penalty>
0

> <s_user_duplicate_titles>
518457

> <i_f3d_flags>
0

> <s_m_subgroup_title>
dock_pv

> <s_m_subgroupid>
dock_pv1

> <b_m_subgroup_collapsed>
0

$$$$
355762
                    3D
 Schrodinger Suite 2021-1.
 50 53  0  0  1  0            999 V2000
    8.1454    8.0533   24.3456 C   0  0  0  0  0  0
    6.7838    7.3677   24.2327 C   0  0  0  0  0  0
    6.4833    6.7691   25.4799 O   0  0  0  0  0  0
    5.1545    5.8410   25.6472 P   0  0  0  0  0  0
    4.9379    4.8720   24.5405 O   0  0  0  0  0  0
    3.8324    7.0756   25.9791 C   0  0  0  0  0  0
    3.0037    7.4291   24.7322 C   0  0  0  0  0  0
    2.0884    8.5730   24.9713 N   0  0  0  0  0  0
    1.1341    8.6551   25.9533 C   0  0  0  0  0  0
    0.4468    9.8229   25.6825 C   0  0  0  0  0  0
   -0.6587   10.1231   26.5121 C   0  0  0  0  0  0
   -0.9141    9.3222   27.5781 N   0  0  0  0  0  0
   -0.1464    8.2376   27.7370 C   0  0  0  0  0  0
    0.8658    7.7994   26.9726 N   0  0  0  0  0  0
   -1.5382   11.1689   26.2636 N   0  0  0  0  0  0
    0.9739   10.4636   24.6267 N   0  0  0  0  0  0
    1.9831    9.7159   24.2457 C   0  0  0  0  0  0
    3.0524   10.1486   22.9019 S   0  0  0  0  0  0
    4.0013   11.4799   23.5728 C   0  0  0  0  0  0
    5.2984   11.5441   23.4398 N   0  0  0  0  0  0
    5.8078   12.6888   23.9661 C   0  0  0  0  0  0
    7.1643   13.0498   23.9831 C   0  0  0  0  0  0
    7.5870   14.2004   24.5663 N   0  0  0  0  0  0
    6.6681   15.0156   25.1440 C   0  0  0  0  0  0
    5.2952   14.7600   25.1682 C   0  0  0  0  0  0
    4.8628   13.5695   24.5545 C   0  0  0  0  0  0
    3.2610   12.8634   24.3669 S   0  0  0  0  0  0
    4.1065   15.9682   26.0336 Br  0  0  0  0  0  0
    5.3714    5.1424   27.1120 O   0  0  0  0  0  0
    5.6050    5.8903   28.2995 C   0  0  0  0  0  0
    7.1052    5.9830   28.5999 C   0  0  0  0  0  0
    8.4201    8.5365   23.4089 H   0  0  0  0  0  0
    8.9294    7.3370   24.5954 H   0  0  0  0  0  0
    8.1305    8.8132   25.1247 H   0  0  0  0  0  0
    6.0153    8.0958   23.9688 H   0  0  0  0  0  0
    6.8080    6.6151   23.4423 H   0  0  0  0  0  0
    3.1902    6.6745   26.7609 H   0  0  0  0  0  0
    4.3006    7.9690   26.3675 H   0  0  0  0  0  0
    3.6434    7.6843   23.8889 H   0  0  0  0  0  0
    2.3657    6.5994   24.4218 H   0  0  0  0  0  0
   -0.3887    7.6181   28.5876 H   0  0  0  0  0  0
   -1.4835   11.6115   25.3574 H   0  0  0  0  0  0
   -2.4139   11.1566   26.7686 H   0  0  0  0  0  0
    7.9205   12.4143   23.5455 H   0  0  0  0  0  0
    7.0523   15.9149   25.6036 H   0  0  0  0  0  0
    5.1571    6.8815   28.2636 H   0  0  0  0  0  0
    5.1110    5.3731   29.1226 H   0  0  0  0  0  0
    7.2934    6.6363   29.4529 H   0  0  0  0  0  0
    7.5082    5.0029   28.8451 H   0  0  0  0  0  0
    7.6665    6.3733   27.7517 H   0  0  0  0  0  0
  1  2  1  0  0  0
  1 32  1  0  0  0
  1 33  1  0  0  0
  1 34  1  0  0  0
  2  3  1  0  0  0
  2 35  1  0  0  0
  2 36  1  0  0  0
  3  4  1  0  0  0
  4  5  2  0  0  0
  4  6  1  0  0  0
  4 29  1  0  0  0
  6  7  1  0  0  0
  6 37  1  0  0  0
  6 38  1  0  0  0
  7  8  1  0  0  0
  7 39  1  0  0  0
  7 40  1  0  0  0
  8 17  1  0  0  0
  8  9  1  0  0  0
  9 14  2  0  0  0
  9 10  1  0  0  0
 10 11  2  0  0  0
 10 16  1  0  0  0
 11 12  1  0  0  0
 11 15  1  0  0  0
 12 13  2  0  0  0
 13 14  1  0  0  0
 13 41  1  0  0  0
 15 42  1  0  0  0
 15 43  1  0  0  0
 16 17  2  0  0  0
 17 18  1  0  0  0
 18 19  1  0  0  0
 19 27  1  0  0  0
 19 20  2  0  0  0
 20 21  1  0  0  0
 21 26  2  0  0  0
 21 22  1  0  0  0
 22 23  2  0  0  0
 22 44  1  0  0  0
 23 24  1  0  0  0
 24 25  2  0  0  0
 24 45  1  0  0  0
 25 26  1  0  0  0
 25 28  1  0  0  0
 26 27  1  0  0  0
 29 30  1  0  0  0
 30 31  1  0  0  0
 30 46  1  0  0  0
 30 47  1  0  0  0
 31 48  1  0  0  0
 31 49  1  0  0  0
 31 50  1  0  0  0
M  END
> <s_m_entry_id>
5274

> <s_m_entry_name>
ligand_docking-pose.19

> <s_m_Source_Path>
/home/csk/Desktop/cluster/DUD-E-result/hs90a

> <s_m_Source_File>
ligand_docking-pose.sdf

> <i_m_Source_File_Index>
19

> <i_lp_mmshare_version>
53161

> <r_lp_tautomer_probability>
0.999997216410988

> <s_lp_Force_Field>
OPLS_2005

> <r_lp_Energy>
-0.723191

> <b_lp_Chiralities_Consistent>
1

> <s_lp_Variant>
355762-1

> <s_i_glide_gridfile>
glide-grid_1uyg

> <i_i_glide_lignum>
19

> <i_i_glide_rotatable_bonds>
9

> <r_i_docking_score>
-8.42253065207663

> <r_i_glide_ligand_efficiency>
-0.271694537163762

> <r_i_glide_ligand_efficiency_sa>
-0.853495961429712

> <r_i_glide_ligand_efficiency_ln>
-1.89953878160878

> <r_i_glide_gscore>
-8.42253065207663

> <r_i_glide_lipo>
-3.71158861515638

> <r_i_glide_hbond>
0

> <r_i_glide_metal>
0

> <r_i_glide_rewards>
-1.6221985830307

> <r_i_glide_evdw>
-47.263484954834

> <r_i_glide_ecoul>
-7.84516334533691

> <r_i_glide_erotb>
0.488887232861143

> <r_i_glide_esite>
-0.0376819372084514

> <r_i_glide_emodel>
-75.5828523666381

> <r_i_glide_energy>
-55.1086483001709

> <r_i_glide_einternal>
9.23107242584229

> <i_i_glide_confnum>
4

> <i_i_glide_posenum>
28

> <r_i_glide_eff_state_penalty>
0

> <s_user_duplicate_titles>
355762

> <i_f3d_flags>
0

> <s_m_subgroup_title>
dock_pv

> <s_m_subgroupid>
dock_pv1

> <b_m_subgroup_collapsed>
0

$$$$
355597
                    3D
 Schrodinger Suite 2021-1.
 37 40  0  0  1  0            999 V2000
    2.5387    6.7215   24.4688 C   0  0  0  0  0  0
    2.5358    7.1805   25.9369 C   0  0  0  0  0  0
    2.8805    8.6702   26.1419 C   0  0  0  0  0  0
    1.9091    9.5572   25.4758 N   0  0  0  0  0  0
    0.6712    9.8787   25.9547 C   0  0  0  0  0  0
    0.1089   10.6719   24.9731 C   0  0  0  0  0  0
   -1.2223   11.1006   25.1773 C   0  0  0  0  0  0
   -1.8351   10.7690   26.3446 N   0  0  0  0  0  0
   -1.1535   10.0196   27.2224 C   0  0  0  0  0  0
    0.0808    9.5094   27.1184 N   0  0  0  0  0  0
   -1.9390   11.8288   24.2333 N   0  0  0  0  0  0
    0.9723   10.8827   23.9670 N   0  0  0  0  0  0
    2.0408   10.1928   24.2871 C   0  0  0  0  0  0
    3.4995   10.1475   23.2825 S   0  0  0  0  0  0
    4.2701   11.6548   23.7734 C   0  0  0  0  0  0
    3.6325   12.6422   24.3339 N   0  0  0  0  0  0
    4.4610   13.6525   24.6820 C   0  0  0  0  0  0
    4.0384   14.8111   25.3354 C   0  0  0  0  0  0
    4.9879   15.7656   25.6848 C   0  0  0  0  0  0
    6.3317   15.5690   25.3848 C   0  0  0  0  0  0
    6.7824   14.4302   24.7229 C   0  0  0  0  0  0
    5.8298   13.4634   24.3670 C   0  0  0  0  0  0
    5.9959   11.8953   23.5670 S   0  0  0  0  0  0
    8.4610   14.2549   24.3670 Cl  0  0  0  0  0  0
    2.3389    5.6521   24.3944 H   0  0  0  0  0  0
    1.7737    7.2345   23.8846 H   0  0  0  0  0  0
    3.5027    6.9107   23.9953 H   0  0  0  0  0  0
    3.2554    6.5781   26.4928 H   0  0  0  0  0  0
    1.5639    6.9638   26.3838 H   0  0  0  0  0  0
    3.8654    8.9174   25.7479 H   0  0  0  0  0  0
    2.8610    8.9471   27.1977 H   0  0  0  0  0  0
   -1.6799    9.7767   28.1344 H   0  0  0  0  0  0
   -1.5216   11.9899   23.3298 H   0  0  0  0  0  0
   -2.9390   11.9690   24.3747 H   0  0  0  0  0  0
    2.9977   14.9449   25.5670 H   0  0  0  0  0  0
    4.6839   16.6688   26.1959 H   0  0  0  0  0  0
    7.0437   16.3236   25.6691 H   0  0  0  0  0  0
  1  2  1  0  0  0
  1 25  1  0  0  0
  1 26  1  0  0  0
  1 27  1  0  0  0
  2  3  1  0  0  0
  2 28  1  0  0  0
  2 29  1  0  0  0
  3  4  1  0  0  0
  3 30  1  0  0  0
  3 31  1  0  0  0
  4 13  1  0  0  0
  4  5  1  0  0  0
  5 10  2  0  0  0
  5  6  1  0  0  0
  6  7  2  0  0  0
  6 12  1  0  0  0
  7  8  1  0  0  0
  7 11  1  0  0  0
  8  9  2  0  0  0
  9 10  1  0  0  0
  9 32  1  0  0  0
 11 33  1  0  0  0
 11 34  1  0  0  0
 12 13  2  0  0  0
 13 14  1  0  0  0
 14 15  1  0  0  0
 15 23  1  0  0  0
 15 16  2  0  0  0
 16 17  1  0  0  0
 17 22  2  0  0  0
 17 18  1  0  0  0
 18 19  2  0  0  0
 18 35  1  0  0  0
 19 20  1  0  0  0
 19 36  1  0  0  0
 20 21  2  0  0  0
 20 37  1  0  0  0
 21 22  1  0  0  0
 21 24  1  0  0  0
 22 23  1  0  0  0
M  END
> <s_m_entry_id>
5276

> <s_m_entry_name>
ligand_docking-pose.21

> <s_m_Source_Path>
/home/csk/Desktop/cluster/DUD-E-result/hs90a

> <s_m_Source_File>
ligand_docking-pose.sdf

> <i_m_Source_File_Index>
21

> <i_lp_mmshare_version>
53161

> <r_lp_tautomer_probability>
0.999997216410988

> <s_lp_Force_Field>
OPLS_2005

> <r_lp_Energy>
9.012411

> <b_lp_Chiralities_Consistent>
1

> <s_lp_Variant>
355597-1

> <s_i_glide_gridfile>
glide-grid_1uyg

> <i_i_glide_lignum>
73

> <i_i_glide_rotatable_bonds>
4

> <r_i_docking_score>
-8.39863622883076

> <r_i_glide_ligand_efficiency>
-0.349943176201282

> <r_i_glide_ligand_efficiency_sa>
-1.0094107899473

> <r_i_glide_ligand_efficiency_ln>
-2.0101790378635

> <r_i_glide_gscore>
-8.39863622883076

> <r_i_glide_lipo>
-3.12767057231878

> <r_i_glide_hbond>
-0.187689200436536

> <r_i_glide_metal>
0

> <r_i_glide_rewards>
-2.8563438288028

> <r_i_glide_evdw>
-39.0593376159668

> <r_i_glide_ecoul>
-4.26977586746216

> <r_i_glide_erotb>
0.408937893744301

> <r_i_glide_esite>
-0.0424372600992782

> <r_i_glide_emodel>
-63.9568755501756

> <r_i_glide_energy>
-43.329113483429

> <r_i_glide_einternal>
1.44045329093933

> <i_i_glide_confnum>
1

> <i_i_glide_posenum>
316

> <r_i_glide_eff_state_penalty>
0

> <s_user_duplicate_titles>
355597

> <i_f3d_flags>
0

> <s_m_subgroup_title>
dock_pv

> <s_m_subgroupid>
dock_pv1

> <b_m_subgroup_collapsed>
0

$$$$
355987
                    3D
 Schrodinger Suite 2021-1.
 51 54  0  0  1  0            999 V2000
    1.9065    5.4405   28.2722 C   0  0  0  0  0  0
    1.1117    6.6957   27.8523 C   0  0  0  0  0  0
   -0.3897    6.3391   27.8021 C   0  0  0  0  0  0
    1.3246    7.8097   28.9069 C   0  0  0  0  0  0
    1.5409    7.1705   26.4371 C   0  0  0  0  0  0
    2.9623    7.5031   26.3489 N   0  0  2  0  0  0
    3.2443    8.5005   25.3241 C   0  0  0  0  0  0
    2.8773    9.9193   25.8163 C   0  0  0  0  0  0
    1.7743   10.5230   25.0400 N   0  0  0  0  0  0
    0.4799   10.6666   25.4473 C   0  0  0  0  0  0
   -0.1567   11.2937   24.3904 C   0  0  0  0  0  0
   -1.5429   11.5228   24.5260 C   0  0  0  0  0  0
   -2.1507   11.1219   25.6712 N   0  0  0  0  0  0
   -1.4096   10.5386   26.6174 C   0  0  0  0  0  0
   -0.0982   10.2796   26.6107 N   0  0  0  0  0  0
   -2.3334   12.1382   23.5619 N   0  0  0  0  0  0
    0.7024   11.5693   23.3960 N   0  0  0  0  0  0
    1.8340   11.0409   23.7914 C   0  0  0  0  0  0
    3.2658   10.9729   22.7741 S   0  0  0  0  0  0
    4.3034   12.1564   23.5669 C   0  0  0  0  0  0
    5.6030   12.0672   23.5415 N   0  0  0  0  0  0
    6.1983   13.1044   24.1824 C   0  0  0  0  0  0
    7.5822   13.2251   24.3672 C   0  0  0  0  0  0
    8.0530   14.2658   25.1646 C   0  0  0  0  0  0
    7.1703   15.1714   25.7464 C   0  0  0  0  0  0
    5.7923   15.0987   25.5465 C   0  0  0  0  0  0
    5.3079   14.0417   24.7670 C   0  0  0  0  0  0
    3.6605   13.5740   24.3758 S   0  0  0  0  0  0
    4.7355   16.2523   26.2807 Cl  0  0  0  0  0  0
    1.5441    5.0381   29.2181 H   0  0  0  0  0  0
    2.9689    5.6564   28.3991 H   0  0  0  0  0  0
    1.8201    4.6605   27.5172 H   0  0  0  0  0  0
   -0.9998    7.2137   27.5702 H   0  0  0  0  0  0
   -0.6015    5.5850   27.0420 H   0  0  0  0  0  0
   -0.7365    5.9416   28.7549 H   0  0  0  0  0  0
    0.7608    8.7110   28.6647 H   0  0  0  0  0  0
    1.0054    7.4915   29.9001 H   0  0  0  0  0  0
    2.3737    8.1005   28.9825 H   0  0  0  0  0  0
    1.3235    6.3990   25.6966 H   0  0  0  0  0  0
    0.9252    8.0194   26.1501 H   0  0  0  0  0  0
    3.4970    6.6654   26.1622 H   0  0  0  0  0  0
    4.3183    8.4719   25.1359 H   0  0  0  0  0  0
    2.7699    8.2396   24.3753 H   0  0  0  0  0  0
    2.5764    9.9458   26.8658 H   0  0  0  0  0  0
    3.7205   10.6028   25.7241 H   0  0  0  0  0  0
   -1.9407   10.2424   27.5106 H   0  0  0  0  0  0
   -1.9665   12.3679   22.6517 H   0  0  0  0  0  0
   -3.3315   12.2210   23.7898 H   0  0  0  0  0  0
    8.2593   12.4969   23.9460 H   0  0  0  0  0  0
    9.1129   14.3644   25.3515 H   0  0  0  0  0  0
    7.5593   15.9660   26.3634 H   0  0  0  0  0  0
  1  2  1  0  0  0
  1 30  1  0  0  0
  1 31  1  0  0  0
  1 32  1  0  0  0
  2  3  1  0  0  0
  2  4  1  0  0  0
  2  5  1  0  0  0
  3 33  1  0  0  0
  3 34  1  0  0  0
  3 35  1  0  0  0
  4 36  1  0  0  0
  4 37  1  0  0  0
  4 38  1  0  0  0
  5  6  1  0  0  0
  5 39  1  0  0  0
  5 40  1  0  0  0
  6  7  1  0  0  0
  6 41  1  0  0  0
  7  8  1  0  0  0
  7 42  1  0  0  0
  7 43  1  0  0  0
  8  9  1  0  0  0
  8 44  1  0  0  0
  8 45  1  0  0  0
  9 18  1  0  0  0
  9 10  1  0  0  0
 10 15  2  0  0  0
 10 11  1  0  0  0
 11 12  2  0  0  0
 11 17  1  0  0  0
 12 13  1  0  0  0
 12 16  1  0  0  0
 13 14  2  0  0  0
 14 15  1  0  0  0
 14 46  1  0  0  0
 16 47  1  0  0  0
 16 48  1  0  0  0
 17 18  2  0  0  0
 18 19  1  0  0  0
 19 20  1  0  0  0
 20 28  1  0  0  0
 20 21  2  0  0  0
 21 22  1  0  0  0
 22 27  2  0  0  0
 22 23  1  0  0  0
 23 24  2  0  0  0
 23 49  1  0  0  0
 24 25  1  0  0  0
 24 50  1  0  0  0
 25 26  2  0  0  0
 25 51  1  0  0  0
 26 27  1  0  0  0
 26 29  1  0  0  0
 27 28  1  0  0  0
M  END
> <s_m_entry_id>
5277

> <s_m_entry_name>
ligand_docking-pose.22

> <s_m_Source_Path>
/home/csk/Desktop/cluster/DUD-E-result/hs90a

> <s_m_Source_File>
ligand_docking-pose.sdf

> <i_m_Source_File_Index>
22

> <i_lp_mmshare_version>
53161

> <r_lp_tautomer_probability>
0.999997216410988

> <s_lp_Force_Field>
OPLS_2005

> <r_lp_Energy>
13.402357

> <b_lp_Chiralities_Consistent>
1

> <s_lp_Variant>
355987-1

> <s_i_glide_gridfile>
glide-grid_1uyg

> <i_i_glide_lignum>
25

> <i_i_glide_rotatable_bonds>
7

> <r_i_docking_score>
-8.38631725801876

> <r_i_glide_ligand_efficiency>
-0.289183353724785

> <r_i_glide_ligand_efficiency_sa>
-0.88846288235968

> <r_i_glide_ligand_efficiency_ln>
-1.92025399342932

> <r_i_glide_gscore>
-8.38631725801876

> <r_i_glide_lipo>
-3.73405328379582

> <r_i_glide_hbond>
-0.16

> <r_i_glide_metal>
0

> <r_i_glide_rewards>
-2.1890080682095

> <r_i_glide_evdw>
-42.2424507141113

> <r_i_glide_ecoul>
-4.81771993637085

> <r_i_glide_erotb>
0.598744977320427

> <r_i_glide_esite>
-0.0672203571726693

> <r_i_glide_emodel>
-68.1608967553274

> <r_i_glide_energy>
-47.0601706504822

> <r_i_glide_einternal>
4.55972814559937

> <i_i_glide_confnum>
21

> <i_i_glide_posenum>
199

> <r_i_glide_eff_state_penalty>
0

> <s_user_duplicate_titles>
355987

> <i_f3d_flags>
0

> <s_m_subgroup_title>
dock_pv

> <s_m_subgroupid>
dock_pv1

> <b_m_subgroup_collapsed>
0

$$$$
320889
                    3D
 Schrodinger Suite 2021-1.
 41 43  0  0  1  0            999 V2000
    0.4949    9.1927   27.0164 C   0  0  0  0  0  0
   -0.7341    9.6663   26.4755 O   0  0  0  0  0  0
   -0.7051   10.5925   25.4524 C   0  0  0  0  0  0
   -1.8830   10.7662   24.7243 C   0  0  0  0  0  0
   -1.9388   11.6564   23.6533 C   0  0  0  0  0  0
   -0.8280   12.4287   23.3319 C   0  0  0  0  0  0
    0.3467   12.2946   24.0694 C   0  0  0  0  0  0
    0.4160   11.3676   25.1157 C   0  0  0  0  0  0
    1.6936   13.3814   23.7177 S   0  0  0  0  0  0
    3.0628   12.2591   23.6409 C   0  0  0  0  0  0
    2.9791   11.0165   23.2215 N   0  0  0  0  0  0
    4.2499   10.5833   23.1671 C   0  0  0  0  0  0
    4.8149    9.3573   22.7428 C   0  0  0  0  0  0
    6.1659    9.2248   22.7569 N   0  0  0  0  0  0
    6.8967   10.2693   23.1660 C   0  0  0  0  0  0
    6.4828   11.4755   23.5788 N   0  0  0  0  0  0
    5.1293   11.5713   23.5699 C   0  0  0  0  0  0
    4.3368   12.6321   23.9184 N   0  0  0  0  0  0
    4.8254   13.9707   24.3223 C   0  0  0  0  0  0
    4.3646   14.4070   25.7271 C   0  0  0  0  0  0
    5.2024   15.5645   26.3062 C   0  0  0  0  0  0
    6.5545   15.1701   26.7496 C   0  0  0  0  0  0
    7.6621   14.8274   27.1333 C   0  0  0  0  0  0
    4.0702    8.2783   22.2830 N   0  0  0  0  0  0
    0.2871    8.3893   27.7232 H   0  0  0  0  0  0
    1.1433    8.7885   26.2363 H   0  0  0  0  0  0
    1.0326    9.9691   27.5573 H   0  0  0  0  0  0
   -2.7598   10.1867   24.9734 H   0  0  0  0  0  0
   -2.8460   11.7609   23.0796 H   0  0  0  0  0  0
   -0.8899   13.1417   22.5231 H   0  0  0  0  0  0
    1.3330   11.2799   25.6766 H   0  0  0  0  0  0
    7.9671   10.1226   23.1542 H   0  0  0  0  0  0
    5.9131   13.9457   24.2422 H   0  0  0  0  0  0
    4.4620   14.6651   23.5671 H   0  0  0  0  0  0
    3.3272   14.7340   25.6683 H   0  0  0  0  0  0
    4.3689   13.5685   26.4203 H   0  0  0  0  0  0
    5.3077   16.3703   25.5797 H   0  0  0  0  0  0
    4.6949   15.9940   27.1670 H   0  0  0  0  0  0
    8.6197   14.5190   27.4890 H   0  0  0  0  0  0
    3.0719    8.3680   22.1571 H   0  0  0  0  0  0
    4.5719    7.4673   21.9538 H   0  0  0  0  0  0
  1  2  1  0  0  0
  1 25  1  0  0  0
  1 26  1  0  0  0
  1 27  1  0  0  0
  2  3  1  0  0  0
  3  8  1  0  0  0
  3  4  2  0  0  0
  4  5  1  0  0  0
  4 28  1  0  0  0
  5  6  2  0  0  0
  5 29  1  0  0  0
  6  7  1  0  0  0
  6 30  1  0  0  0
  7  8  2  0  0  0
  7  9  1  0  0  0
  8 31  1  0  0  0
  9 10  1  0  0  0
 10 18  1  0  0  0
 10 11  2  0  0  0
 11 12  1  0  0  0
 12 17  2  0  0  0
 12 13  1  0  0  0
 13 14  2  0  0  0
 13 24  1  0  0  0
 14 15  1  0  0  0
 15 16  2  0  0  0
 15 32  1  0  0  0
 16 17  1  0  0  0
 17 18  1  0  0  0
 18 19  1  0  0  0
 19 20  1  0  0  0
 19 33  1  0  0  0
 19 34  1  0  0  0
 20 21  1  0  0  0
 20 35  1  0  0  0
 20 36  1  0  0  0
 21 22  1  0  0  0
 21 37  1  0  0  0
 21 38  1  0  0  0
 22 23  3  0  0  0
 23 39  1  0  0  0
 24 40  1  0  0  0
 24 41  1  0  0  0
M  END
> <s_m_entry_id>
5280

> <s_m_entry_name>
ligand_docking-pose.25

> <s_m_Source_Path>
/home/csk/Desktop/cluster/DUD-E-result/hs90a

> <s_m_Source_File>
ligand_docking-pose.sdf

> <i_m_Source_File_Index>
25

> <i_lp_mmshare_version>
53161

> <r_lp_tautomer_probability>
0.999997216410988

> <s_lp_Force_Field>
OPLS_2005

> <r_lp_Energy>
14.112247

> <b_lp_Chiralities_Consistent>
1

> <s_lp_Variant>
320889-1

> <s_i_glide_gridfile>
glide-grid_1uyg

> <i_i_glide_lignum>
105

> <i_i_glide_rotatable_bonds>
7

> <r_i_docking_score>
-8.2972908511961

> <r_i_glide_ligand_efficiency>
-0.345720452133171

> <r_i_glide_ligand_efficiency_sa>
-0.99723034601468

> <r_i_glide_ligand_efficiency_ln>
-1.98592243855918

> <r_i_glide_gscore>
-8.2972908511961

> <r_i_glide_lipo>
-3.70064932210043

> <r_i_glide_hbond>
0

> <r_i_glide_metal>
0

> <r_i_glide_rewards>
-2.71462985908761

> <r_i_glide_evdw>
-47.0949859619141

> <r_i_glide_ecoul>
-3.41921806335449

> <r_i_glide_erotb>
0.98562033759082

> <r_i_glide_esite>
0

> <r_i_glide_emodel>
-71.0730548229826

> <r_i_glide_energy>
-50.5142040252686

> <r_i_glide_einternal>
7.22640943527222

> <i_i_glide_confnum>
98

> <i_i_glide_posenum>
219

> <r_i_glide_eff_state_penalty>
0

> <s_user_duplicate_titles>
320889

> <i_f3d_flags>
0

> <s_m_subgroup_title>
dock_pv

> <s_m_subgroupid>
dock_pv1

> <b_m_subgroup_collapsed>
0

$$$$
518364
                    3D
 Schrodinger Suite 2021-1.
 36 38  0  0  1  0            999 V2000
    5.5581   15.3586   26.4715 C   0  0  0  0  0  0
    5.9383   15.1608   24.9986 C   0  0  0  0  0  0
    5.6428   13.8419   24.5357 O   0  0  0  0  0  0
    4.3337   13.4533   24.3141 C   0  0  0  0  0  0
    3.2356   14.3205   24.3734 C   0  0  0  0  0  0
    1.9505   13.8467   24.1406 C   0  0  0  0  0  0
    1.7378   12.5012   23.8436 C   0  0  0  0  0  0
    2.8334   11.6448   23.7171 C   0  0  0  0  0  0
    4.1206   12.1183   23.9667 C   0  0  0  0  0  0
    0.3334   12.0535   23.6294 C   0  0  0  0  0  0
   -0.5593   11.2151   24.3314 C   0  0  0  0  0  0
   -1.7490   11.1691   23.7634 N   0  0  0  0  0  0
   -1.9390   11.9342   22.6345 N   0  0  0  0  0  0
   -0.5028   12.7400   22.2615 S   0  0  0  0  0  0
   -0.3390   10.4308   25.6025 C   0  0  0  0  0  0
    0.8782    9.7617   25.7848 C   0  0  0  0  0  0
    1.1529    9.0426   26.9484 C   0  0  0  0  0  0
    0.2010    8.9889   27.9692 C   0  0  0  0  0  0
   -1.0274    9.6148   27.7960 C   0  0  0  0  0  0
   -1.3101   10.3050   26.6189 C   0  0  0  0  0  0
   -2.5909   10.7699   26.4916 O   0  0  0  0  0  0
    0.4613    8.3687   29.1644 O   0  0  0  0  0  0
    2.6804    8.2470   27.1028 Cl  0  0  0  0  0  0
    5.6750   16.3999   26.7651 H   0  0  0  0  0  0
    6.2005   14.7688   27.1230 H   0  0  0  0  0  0
    4.5274   15.0764   26.6812 H   0  0  0  0  0  0
    5.4694   15.9161   24.3671 H   0  0  0  0  0  0
    7.0110   15.3188   24.8853 H   0  0  0  0  0  0
    3.3578   15.3641   24.6105 H   0  0  0  0  0  0
    1.1166   14.5301   24.2131 H   0  0  0  0  0  0
    2.6994   10.6175   23.4150 H   0  0  0  0  0  0
    4.9630   11.4481   23.8834 H   0  0  0  0  0  0
    1.6250    9.7706   25.0135 H   0  0  0  0  0  0
   -1.7773    9.5525   28.5712 H   0  0  0  0  0  0
   -2.8205   11.1210   25.6242 H   0  0  0  0  0  0
   -0.1338    8.6650   29.8629 H   0  0  0  0  0  0
  1  2  1  0  0  0
  1 24  1  0  0  0
  1 25  1  0  0  0
  1 26  1  0  0  0
  2  3  1  0  0  0
  2 27  1  0  0  0
  2 28  1  0  0  0
  3  4  1  0  0  0
  4  9  1  0  0  0
  4  5  2  0  0  0
  5  6  1  0  0  0
  5 29  1  0  0  0
  6  7  2  0  0  0
  6 30  1  0  0  0
  7  8  1  0  0  0
  7 10  1  0  0  0
  8  9  2  0  0  0
  8 31  1  0  0  0
  9 32  1  0  0  0
 10 14  1  0  0  0
 10 11  2  0  0  0
 11 12  1  0  0  0
 11 15  1  0  0  0
 12 13  2  0  0  0
 13 14  1  0  0  0
 15 20  1  0  0  0
 15 16  2  0  0  0
 16 17  1  0  0  0
 16 33  1  0  0  0
 17 18  2  0  0  0
 17 23  1  0  0  0
 18 19  1  0  0  0
 18 22  1  0  0  0
 19 20  2  0  0  0
 19 34  1  0  0  0
 20 21  1  0  0  0
 21 35  1  0  0  0
 22 36  1  0  0  0
M  END
> <s_m_entry_id>
5281

> <s_m_entry_name>
ligand_docking-pose.26

> <s_m_Source_Path>
/home/csk/Desktop/cluster/DUD-E-result/hs90a

> <s_m_Source_File>
ligand_docking-pose.sdf

> <i_m_Source_File_Index>
26

> <i_lp_mmshare_version>
53161

> <r_lp_tautomer_probability>
0.999999999898

> <s_lp_Force_Field>
OPLS_2005

> <r_lp_Energy>
21.404199

> <b_lp_Chiralities_Consistent>
1

> <s_lp_Variant>
518364-1

> <s_i_glide_gridfile>
glide-grid_1uyg

> <i_i_glide_lignum>
8

> <i_i_glide_rotatable_bonds>
6

> <r_i_docking_score>
-8.29471408649923

> <r_i_glide_ligand_efficiency>
-0.360639742891271

> <r_i_glide_ligand_efficiency_sa>
-1.02561145535871

> <r_i_glide_ligand_efficiency_ln>
-2.00573707842452

> <r_i_glide_gscore>
-8.29471408649923

> <r_i_glide_lipo>
-4.58011657539465

> <r_i_glide_hbond>
-0.32

> <r_i_glide_metal>
0

> <r_i_glide_rewards>
-1.32221228844975

> <r_i_glide_evdw>
-42.4715576171875

> <r_i_glide_ecoul>
-2.78880190849304

> <r_i_glide_erotb>
0.469512944478499

> <r_i_glide_esite>
0

> <r_i_glide_emodel>
-66.4529565942014

> <r_i_glide_energy>
-45.2603595256805

> <r_i_glide_einternal>
2.62409853935242

> <i_i_glide_confnum>
7

> <i_i_glide_posenum>
355

> <r_i_glide_eff_state_penalty>
0

> <s_user_duplicate_titles>
518364

> <i_f3d_flags>
0

> <s_m_subgroup_title>
dock_pv

> <s_m_subgroupid>
dock_pv1

> <b_m_subgroup_collapsed>
0

$$$$
355724
                    3D
 Schrodinger Suite 2021-1.
 51 54  0  0  1  0            999 V2000
    4.6067    8.2235   20.9005 C   0  0  0  0  0  0
    4.3086    6.7894   21.3769 C   0  0  0  0  0  0
    5.0483    6.3602   22.5187 O   0  0  0  0  0  0
    5.0796    7.1228   23.9680 P   0  0  0  0  0  0
    5.6271    6.2975   25.0787 O   0  0  0  0  0  0
    3.3691    7.7606   24.1993 C   0  0  0  0  0  0
    3.3434    8.8682   25.2709 C   0  0  0  0  0  0
    2.0612    9.5922   25.2453 N   0  0  0  0  0  0
    1.0604    9.5013   26.1698 C   0  0  0  0  0  0
    0.0556   10.3064   25.6683 C   0  0  0  0  0  0
   -1.1414   10.3690   26.4098 C   0  0  0  0  0  0
   -1.2128    9.7056   27.5926 N   0  0  0  0  0  0
   -0.1573    8.9674   27.9606 C   0  0  0  0  0  0
    1.0086    8.7840   27.3207 N   0  0  0  0  0  0
   -2.2641   11.0554   25.9670 N   0  0  0  0  0  0
    0.4166   10.8918   24.5154 N   0  0  0  0  0  0
    1.6301   10.4556   24.2939 C   0  0  0  0  0  0
    2.5529   10.9070   22.8611 S   0  0  0  0  0  0
    3.7210   12.0059   23.5683 C   0  0  0  0  0  0
    5.0095   11.8445   23.4564 N   0  0  0  0  0  0
    5.6947   12.8995   23.9670 C   0  0  0  0  0  0
    7.0930   13.0185   23.9672 C   0  0  0  0  0  0
    7.6608   14.1367   24.5800 C   0  0  0  0  0  0
    6.8678   15.1196   25.1696 C   0  0  0  0  0  0
    5.4763   15.0331   25.1703 C   0  0  0  0  0  0
    4.8918   13.9128   24.5605 C   0  0  0  0  0  0
    3.2014   13.4710   24.3670 S   0  0  0  0  0  0
    4.5267   16.2693   25.9180 Cl  0  0  0  0  0  0
    5.9203    8.4919   23.6659 O   0  0  0  0  0  0
    7.2996    8.4808   23.3169 C   0  0  0  0  0  0
    8.2099    7.8533   24.3850 C   0  0  0  0  0  0
    4.0610    8.4415   19.9834 H   0  0  0  0  0  0
    5.6610    8.3689   20.6859 H   0  0  0  0  0  0
    4.3225    8.9720   21.6357 H   0  0  0  0  0  0
    3.2423    6.6642   21.5667 H   0  0  0  0  0  0
    4.5410    6.0954   20.5688 H   0  0  0  0  0  0
    2.9901    8.1392   23.2556 H   0  0  0  0  0  0
    2.7164    6.9340   24.4799 H   0  0  0  0  0  0
    3.4726    8.4637   26.2764 H   0  0  0  0  0  0
    4.1079    9.6296   25.1151 H   0  0  0  0  0  0
   -0.2592    8.4498   28.9038 H   0  0  0  0  0  0
   -2.2696   11.4450   25.0344 H   0  0  0  0  0  0
   -3.1238   10.9911   26.4943 H   0  0  0  0  0  0
    7.7161   12.2564   23.5221 H   0  0  0  0  0  0
    8.7351   14.2431   24.6075 H   0  0  0  0  0  0
    7.3394   15.9689   25.6411 H   0  0  0  0  0  0
    7.4338    7.9687   22.3671 H   0  0  0  0  0  0
    7.6005    9.5151   23.1492 H   0  0  0  0  0  0
    9.2610    7.9687   24.1285 H   0  0  0  0  0  0
    8.0529    8.3186   25.3561 H   0  0  0  0  0  0
    8.0350    6.7833   24.4889 H   0  0  0  0  0  0
  1  2  1  0  0  0
  1 32  1  0  0  0
  1 33  1  0  0  0
  1 34  1  0  0  0
  2  3  1  0  0  0
  2 35  1  0  0  0
  2 36  1  0  0  0
  3  4  1  0  0  0
  4  5  2  0  0  0
  4  6  1  0  0  0
  4 29  1  0  0  0
  6  7  1  0  0  0
  6 37  1  0  0  0
  6 38  1  0  0  0
  7  8  1  0  0  0
  7 39  1  0  0  0
  7 40  1  0  0  0
  8 17  1  0  0  0
  8  9  1  0  0  0
  9 14  2  0  0  0
  9 10  1  0  0  0
 10 11  2  0  0  0
 10 16  1  0  0  0
 11 12  1  0  0  0
 11 15  1  0  0  0
 12 13  2  0  0  0
 13 14  1  0  0  0
 13 41  1  0  0  0
 15 42  1  0  0  0
 15 43  1  0  0  0
 16 17  2  0  0  0
 17 18  1  0  0  0
 18 19  1  0  0  0
 19 27  1  0  0  0
 19 20  2  0  0  0
 20 21  1  0  0  0
 21 26  2  0  0  0
 21 22  1  0  0  0
 22 23  2  0  0  0
 22 44  1  0  0  0
 23 24  1  0  0  0
 23 45  1  0  0  0
 24 25  2  0  0  0
 24 46  1  0  0  0
 25 26  1  0  0  0
 25 28  1  0  0  0
 26 27  1  0  0  0
 29 30  1  0  0  0
 30 31  1  0  0  0
 30 47  1  0  0  0
 30 48  1  0  0  0
 31 49  1  0  0  0
 31 50  1  0  0  0
 31 51  1  0  0  0
M  END
> <s_m_entry_id>
5282

> <s_m_entry_name>
ligand_docking-pose.27

> <s_m_Source_Path>
/home/csk/Desktop/cluster/DUD-E-result/hs90a

> <s_m_Source_File>
ligand_docking-pose.sdf

> <i_m_Source_File_Index>
27

> <i_lp_mmshare_version>
53161

> <r_lp_tautomer_probability>
0.999997216410988

> <s_lp_Force_Field>
OPLS_2005

> <r_lp_Energy>
-6.390442

> <b_lp_Chiralities_Consistent>
1

> <s_lp_Variant>
355724-1

> <s_i_glide_gridfile>
glide-grid_1uyg

> <i_i_glide_lignum>
22

> <i_i_glide_rotatable_bonds>
9

> <r_i_docking_score>
-8.27930088927989

> <r_i_glide_ligand_efficiency>
-0.267074222234835

> <r_i_glide_ligand_efficiency_sa>
-0.838981793520639

> <r_i_glide_ligand_efficiency_ln>
-1.86723608063304

> <r_i_glide_gscore>
-8.27930088927989

> <r_i_glide_lipo>
-3.77384252771644

> <r_i_glide_hbond>
0

> <r_i_glide_metal>
0

> <r_i_glide_rewards>
-2.00909550033663

> <r_i_glide_evdw>
-50.9553565979004

> <r_i_glide_ecoul>
-3.04385018348694

> <r_i_glide_erotb>
0.573877640927635

> <r_i_glide_esite>
-0.0658951447363897

> <r_i_glide_emodel>
-78.0126469242429

> <r_i_glide_energy>
-53.9992067813873

> <r_i_glide_einternal>
4.98086738586426

> <i_i_glide_confnum>
62

> <i_i_glide_posenum>
79

> <r_i_glide_eff_state_penalty>
0

> <s_user_duplicate_titles>
355724

> <i_f3d_flags>
0

> <s_m_subgroup_title>
dock_pv

> <s_m_subgroupid>
dock_pv1

> <b_m_subgroup_collapsed>
0

$$$$
355827
                    3D
 Schrodinger Suite 2021-1.
 40 43  0  0  1  0            999 V2000
    0.5270    6.9459   24.2115 C   0  0  0  0  0  0
    1.4714    6.7922   25.4159 C   0  0  0  0  0  0
    2.8016    7.5702   25.2978 C   0  0  0  0  0  0
    2.7891    9.0123   25.8544 C   0  0  0  0  0  0
    1.8203    9.8836   25.1662 N   0  0  0  0  0  0
    0.5753   10.2204   25.6151 C   0  0  0  0  0  0
    0.0493   11.0141   24.6134 C   0  0  0  0  0  0
   -1.2751   11.4645   24.7818 C   0  0  0  0  0  0
   -1.9342   11.1280   25.9205 N   0  0  0  0  0  0
   -1.2928   10.3691   26.8185 C   0  0  0  0  0  0
   -0.0536    9.8613   26.7622 N   0  0  0  0  0  0
   -1.9390   12.2289   23.8320 N   0  0  0  0  0  0
    0.9311   11.2053   23.6209 N   0  0  0  0  0  0
    1.9717   10.4922   23.9672 C   0  0  0  0  0  0
    3.4151   10.3700   22.9683 S   0  0  0  0  0  0
    4.3643   11.7277   23.5674 C   0  0  0  0  0  0
    5.6565   11.7664   23.4178 N   0  0  0  0  0  0
    6.1948   12.8822   23.9670 C   0  0  0  0  0  0
    7.5684   13.1346   24.0486 C   0  0  0  0  0  0
    7.9959   14.2645   24.7466 C   0  0  0  0  0  0
    7.0811   15.1377   25.3294 C   0  0  0  0  0  0
    5.7061   14.9323   25.2339 C   0  0  0  0  0  0
    5.2694   13.7808   24.5641 C   0  0  0  0  0  0
    3.6548   13.1270   24.3670 S   0  0  0  0  0  0
    4.4881   16.1448   26.0593 Br  0  0  0  0  0  0
   -0.3848    6.3701   24.3673 H   0  0  0  0  0  0
    0.2267    7.9773   24.0411 H   0  0  0  0  0  0
    0.9902    6.5828   23.2938 H   0  0  0  0  0  0
    1.6966    5.7307   25.5254 H   0  0  0  0  0  0
    0.9519    7.0742   26.3324 H   0  0  0  0  0  0
    3.1500    7.5654   24.2636 H   0  0  0  0  0  0
    3.5640    7.0208   25.8524 H   0  0  0  0  0  0
    3.7579    9.4990   25.7458 H   0  0  0  0  0  0
    2.5283    9.0339   26.9145 H   0  0  0  0  0  0
   -1.8567   10.1235   27.7069 H   0  0  0  0  0  0
   -1.5088   12.3748   22.9322 H   0  0  0  0  0  0
   -2.9393   12.3687   23.9682 H   0  0  0  0  0  0
    8.2735   12.4356   23.6250 H   0  0  0  0  0  0
    9.0521   14.4590   24.8600 H   0  0  0  0  0  0
    7.4503   15.9695   25.8999 H   0  0  0  0  0  0
  1  2  1  0  0  0
  1 26  1  0  0  0
  1 27  1  0  0  0
  1 28  1  0  0  0
  2  3  1  0  0  0
  2 29  1  0  0  0
  2 30  1  0  0  0
  3  4  1  0  0  0
  3 31  1  0  0  0
  3 32  1  0  0  0
  4  5  1  0  0  0
  4 33  1  0  0  0
  4 34  1  0  0  0
  5 14  1  0  0  0
  5  6  1  0  0  0
  6 11  2  0  0  0
  6  7  1  0  0  0
  7  8  2  0  0  0
  7 13  1  0  0  0
  8  9  1  0  0  0
  8 12  1  0  0  0
  9 10  2  0  0  0
 10 11  1  0  0  0
 10 35  1  0  0  0
 12 36  1  0  0  0
 12 37  1  0  0  0
 13 14  2  0  0  0
 14 15  1  0  0  0
 15 16  1  0  0  0
 16 24  1  0  0  0
 16 17  2  0  0  0
 17 18  1  0  0  0
 18 23  2  0  0  0
 18 19  1  0  0  0
 19 20  2  0  0  0
 19 38  1  0  0  0
 20 21  1  0  0  0
 20 39  1  0  0  0
 21 22  2  0  0  0
 21 40  1  0  0  0
 22 23  1  0  0  0
 22 25  1  0  0  0
 23 24  1  0  0  0
M  END
> <s_m_entry_id>
5283

> <s_m_entry_name>
ligand_docking-pose.28

> <s_m_Source_Path>
/home/csk/Desktop/cluster/DUD-E-result/hs90a

> <s_m_Source_File>
ligand_docking-pose.sdf

> <i_m_Source_File_Index>
28

> <i_lp_mmshare_version>
53161

> <r_lp_tautomer_probability>
0.999997216410988

> <s_lp_Force_Field>
OPLS_2005

> <r_lp_Energy>
8.903911

> <b_lp_Chiralities_Consistent>
1

> <s_lp_Variant>
355827-1

> <s_i_glide_gridfile>
glide-grid_1uyg

> <i_i_glide_lignum>
84

> <i_i_glide_rotatable_bonds>
5

> <r_i_docking_score>
-8.27335003217792

> <r_i_glide_ligand_efficiency>
-0.330934001287117

> <r_i_glide_ligand_efficiency_sa>
-0.967656888903033

> <r_i_glide_ligand_efficiency_ln>
-1.96103188991972

> <r_i_glide_gscore>
-8.27335003217792

> <r_i_glide_lipo>
-3.34801700877461

> <r_i_glide_hbond>
-0.198812523807056

> <r_i_glide_metal>
0

> <r_i_glide_rewards>
-2.38575762933769

> <r_i_glide_evdw>
-43.4511528015137

> <r_i_glide_ecoul>
-3.64677286148071

> <r_i_glide_erotb>
0.420455342344021

> <r_i_glide_esite>
-0.0416446433047924

> <r_i_glide_emodel>
-66.9382863714825

> <r_i_glide_energy>
-47.0979256629944

> <r_i_glide_einternal>
2.70759987831116

> <i_i_glide_confnum>
2

> <i_i_glide_posenum>
372

> <r_i_glide_eff_state_penalty>
0

> <s_user_duplicate_titles>
355827

> <i_f3d_flags>
0

> <s_m_subgroup_title>
dock_pv

> <s_m_subgroupid>
dock_pv1

> <b_m_subgroup_collapsed>
0

$$$$
355798
                    3D
 Schrodinger Suite 2021-1.
 50 53  0  0  1  0            999 V2000
    8.0627    7.2282   24.8913 C   0  0  0  0  0  0
    7.3108    6.8603   23.6075 C   0  0  0  0  0  0
    5.9285    7.1497   23.7446 O   0  0  0  0  0  0
    5.3391    8.5760   23.2168 P   0  0  0  0  0  0
    6.1847    9.7492   23.5670 O   0  0  0  0  0  0
    3.5937    8.5259   23.8029 C   0  0  0  0  0  0
    3.3813    9.3566   25.0843 C   0  0  0  0  0  0
    1.9962    9.8660   25.1920 N   0  0  0  0  0  0
    1.1037    9.5694   26.1867 C   0  0  0  0  0  0
   -0.0311   10.2883   25.8615 C   0  0  0  0  0  0
   -1.1384   10.1669   26.7282 C   0  0  0  0  0  0
   -1.0159    9.4049   27.8453 N   0  0  0  0  0  0
    0.1471    8.7685   28.0384 C   0  0  0  0  0  0
    1.2515    8.7701   27.2738 N   0  0  0  0  0  0
   -2.3638   10.7690   26.4782 N   0  0  0  0  0  0
    0.1398   10.9971   24.7349 N   0  0  0  0  0  0
    1.3715   10.7488   24.3671 C   0  0  0  0  0  0
    2.0607   11.4675   22.9066 S   0  0  0  0  0  0
    3.2990   12.4791   23.6173 C   0  0  0  0  0  0
    4.5681   12.2011   23.5670 N   0  0  0  0  0  0
    5.3248   13.1690   24.1362 C   0  0  0  0  0  0
    6.7265   13.1788   24.2188 C   0  0  0  0  0  0
    7.3920   14.1714   24.8616 N   0  0  0  0  0  0
    6.6738   15.1683   25.4387 C   0  0  0  0  0  0
    5.2807   15.2609   25.3982 C   0  0  0  0  0  0
    4.6002   14.2406   24.7139 C   0  0  0  0  0  0
    2.8886   13.9963   24.3670 S   0  0  0  0  0  0
    4.4610   16.5694   26.1651 Cl  0  0  0  0  0  0
    5.1587    8.3688   21.6106 O   0  0  0  0  0  0
    4.4610    7.2576   21.0729 C   0  0  0  0  0  0
    4.4105    7.4570   19.5584 C   0  0  0  0  0  0
    9.1317    7.0511   24.7697 H   0  0  0  0  0  0
    7.7111    6.6405   25.7394 H   0  0  0  0  0  0
    7.9345    8.2827   25.1368 H   0  0  0  0  0  0
    7.7481    7.3970   22.7670 H   0  0  0  0  0  0
    7.4262    5.7959   23.4012 H   0  0  0  0  0  0
    2.9855    8.9004   22.9833 H   0  0  0  0  0  0
    3.2814    7.4926   23.9530 H   0  0  0  0  0  0
    3.5826    8.7562   25.9710 H   0  0  0  0  0  0
    4.0192   10.2362   25.1470 H   0  0  0  0  0  0
    0.2033    8.1711   28.9370 H   0  0  0  0  0  0
   -2.5300   11.2095   25.5827 H   0  0  0  0  0  0
   -3.1315   10.5973   27.1089 H   0  0  0  0  0  0
    7.3167   12.3787   23.7952 H   0  0  0  0  0  0
    7.2462   15.9272   25.9515 H   0  0  0  0  0  0
    4.9819    6.3319   21.3205 H   0  0  0  0  0  0
    3.4537    7.1710   21.4796 H   0  0  0  0  0  0
    3.9308    6.6136   19.0611 H   0  0  0  0  0  0
    3.8667    8.3626   19.2908 H   0  0  0  0  0  0
    5.4104    7.5690   19.1652 H   0  0  0  0  0  0
  1  2  1  0  0  0
  1 32  1  0  0  0
  1 33  1  0  0  0
  1 34  1  0  0  0
  2  3  1  0  0  0
  2 35  1  0  0  0
  2 36  1  0  0  0
  3  4  1  0  0  0
  4  5  2  0  0  0
  4  6  1  0  0  0
  4 29  1  0  0  0
  6  7  1  0  0  0
  6 37  1  0  0  0
  6 38  1  0  0  0
  7  8  1  0  0  0
  7 39  1  0  0  0
  7 40  1  0  0  0
  8 17  1  0  0  0
  8  9  1  0  0  0
  9 14  2  0  0  0
  9 10  1  0  0  0
 10 11  2  0  0  0
 10 16  1  0  0  0
 11 12  1  0  0  0
 11 15  1  0  0  0
 12 13  2  0  0  0
 13 14  1  0  0  0
 13 41  1  0  0  0
 15 42  1  0  0  0
 15 43  1  0  0  0
 16 17  2  0  0  0
 17 18  1  0  0  0
 18 19  1  0  0  0
 19 27  1  0  0  0
 19 20  2  0  0  0
 20 21  1  0  0  0
 21 26  2  0  0  0
 21 22  1  0  0  0
 22 23  2  0  0  0
 22 44  1  0  0  0
 23 24  1  0  0  0
 24 25  2  0  0  0
 24 45  1  0  0  0
 25 26  1  0  0  0
 25 28  1  0  0  0
 26 27  1  0  0  0
 29 30  1  0  0  0
 30 31  1  0  0  0
 30 46  1  0  0  0
 30 47  1  0  0  0
 31 48  1  0  0  0
 31 49  1  0  0  0
 31 50  1  0  0  0
M  END
> <s_m_entry_id>
5285

> <s_m_entry_name>
ligand_docking-pose.30

> <s_m_Source_Path>
/home/csk/Desktop/cluster/DUD-E-result/hs90a

> <s_m_Source_File>
ligand_docking-pose.sdf

> <i_m_Source_File_Index>
30

> <i_lp_mmshare_version>
53161

> <r_lp_tautomer_probability>
0.999997216410988

> <s_lp_Force_Field>
OPLS_2005

> <r_lp_Energy>
-7.807634

> <b_lp_Chiralities_Consistent>
1

> <s_lp_Variant>
355798-1

> <s_i_glide_gridfile>
glide-grid_1uyg

> <i_i_glide_lignum>
21

> <i_i_glide_rotatable_bonds>
9

> <r_i_docking_score>
-8.25128569712877

> <r_i_glide_ligand_efficiency>
-0.266170506358993

> <r_i_glide_ligand_efficiency_sa>
-0.836142877956258

> <r_i_glide_ligand_efficiency_ln>
-1.86091779624043

> <r_i_glide_gscore>
-8.25128569712877

> <r_i_glide_lipo>
-3.81985799001942

> <r_i_glide_hbond>
0

> <r_i_glide_metal>
0

> <r_i_glide_rewards>
-1.87486628831414

> <r_i_glide_evdw>
-52.1055908203125

> <r_i_glide_ecoul>
-3.18257355690002

> <r_i_glide_erotb>
0.571800170465365

> <r_i_glide_esite>
-0.0456960147099463

> <r_i_glide_emodel>
-78.0804247655352

> <r_i_glide_energy>
-55.2881643772125

> <r_i_glide_einternal>
8.40771102905273

> <i_i_glide_confnum>
35

> <i_i_glide_posenum>
195

> <r_i_glide_eff_state_penalty>
0

> <s_user_duplicate_titles>
355798

> <i_f3d_flags>
0

> <s_m_subgroup_title>
dock_pv

> <s_m_subgroupid>
dock_pv1

> <b_m_subgroup_collapsed>
0

$$$$
355761
                    3D
 Schrodinger Suite 2021-1.
 39 42  0  0  1  0            999 V2000
   -0.8371   12.7691   21.7162 C   0  0  0  0  0  0
   -1.9977   12.2568   22.5853 C   0  0  0  0  0  0
   -1.5893   11.2260   23.6520 C   0  0  0  0  0  0
   -0.6488   11.7762   24.7374 C   0  0  0  0  0  0
    0.2680   10.7413   25.2478 N   0  0  0  0  0  0
    0.0906   10.0058   26.3820 C   0  0  0  0  0  0
    1.2185    9.2104   26.4667 C   0  0  0  0  0  0
    1.3125    8.3547   27.5879 C   0  0  0  0  0  0
    0.2956    8.3466   28.4874 N   0  0  0  0  0  0
   -0.7390    9.1690   28.2687 C   0  0  0  0  0  0
   -0.9363   10.0363   27.2660 N   0  0  0  0  0  0
    2.4029    7.5286   27.8326 N   0  0  0  0  0  0
    2.0457    9.4241   25.4291 N   0  0  0  0  0  0
    1.4358   10.3272   24.6998 C   0  0  0  0  0  0
    2.0610   10.8993   23.1520 S   0  0  0  0  0  0
    3.3389   11.9740   23.6841 C   0  0  0  0  0  0
    4.6096   11.7220   23.5291 N   0  0  0  0  0  0
    5.3788   12.7524   23.9670 C   0  0  0  0  0  0
    6.7825   12.8029   23.9670 C   0  0  0  0  0  0
    7.4583   13.8465   24.5142 N   0  0  0  0  0  0
    6.7529   14.8571   25.0843 C   0  0  0  0  0  0
    5.3585   14.9124   25.1300 C   0  0  0  0  0  0
    4.6678   13.8390   24.5432 C   0  0  0  0  0  0
    2.9470   13.5330   24.3670 S   0  0  0  0  0  0
    4.4610   16.3690   25.9670 Br  0  0  0  0  0  0
   -1.2074   13.4506   20.9496 H   0  0  0  0  0  0
   -0.0939   13.3025   22.3062 H   0  0  0  0  0  0
   -0.3118   11.9690   21.2056 H   0  0  0  0  0  0
   -2.7390   11.8008   21.9295 H   0  0  0  0  0  0
   -2.5019   13.0992   23.0622 H   0  0  0  0  0  0
   -1.1390   10.3690   23.1670 H   0  0  0  0  0  0
   -2.4880   10.8330   24.1315 H   0  0  0  0  0  0
   -1.2277   12.1159   25.5950 H   0  0  0  0  0  0
   -0.0193   12.6013   24.4079 H   0  0  0  0  0  0
   -1.5183    9.1544   29.0163 H   0  0  0  0  0  0
    3.1961    7.5690   27.2101 H   0  0  0  0  0  0
    2.4361    7.0308   28.7085 H   0  0  0  0  0  0
    7.3749   12.0003   23.5534 H   0  0  0  0  0  0
    7.3352   15.6553   25.5207 H   0  0  0  0  0  0
  1  2  1  0  0  0
  1 26  1  0  0  0
  1 27  1  0  0  0
  1 28  1  0  0  0
  2  3  1  0  0  0
  2 29  1  0  0  0
  2 30  1  0  0  0
  3  4  1  0  0  0
  3 31  1  0  0  0
  3 32  1  0  0  0
  4  5  1  0  0  0
  4 33  1  0  0  0
  4 34  1  0  0  0
  5 14  1  0  0  0
  5  6  1  0  0  0
  6 11  2  0  0  0
  6  7  1  0  0  0
  7  8  2  0  0  0
  7 13  1  0  0  0
  8  9  1  0  0  0
  8 12  1  0  0  0
  9 10  2  0  0  0
 10 11  1  0  0  0
 10 35  1  0  0  0
 12 36  1  0  0  0
 12 37  1  0  0  0
 13 14  2  0  0  0
 14 15  1  0  0  0
 15 16  1  0  0  0
 16 24  1  0  0  0
 16 17  2  0  0  0
 17 18  1  0  0  0
 18 23  2  0  0  0
 18 19  1  0  0  0
 19 20  2  0  0  0
 19 38  1  0  0  0
 20 21  1  0  0  0
 21 22  2  0  0  0
 21 39  1  0  0  0
 22 23  1  0  0  0
 22 25  1  0  0  0
 23 24  1  0  0  0
M  END
> <s_m_entry_id>
5287

> <s_m_entry_name>
ligand_docking-pose.32

> <s_m_Source_Path>
/home/csk/Desktop/cluster/DUD-E-result/hs90a

> <s_m_Source_File>
ligand_docking-pose.sdf

> <i_m_Source_File_Index>
32

> <i_lp_mmshare_version>
53161

> <r_lp_tautomer_probability>
0.999997216410988

> <s_lp_Force_Field>
OPLS_2005

> <r_lp_Energy>
12.57903

> <b_lp_Chiralities_Consistent>
1

> <s_lp_Variant>
355761-1

> <s_i_glide_gridfile>
glide-grid_1uyg

> <i_i_glide_lignum>
85

> <i_i_glide_rotatable_bonds>
5

> <r_i_docking_score>
-8.17142353728362

> <r_i_glide_ligand_efficiency>
-0.326856941491345

> <r_i_glide_ligand_efficiency_sa>
-0.955735493753232

> <r_i_glide_ligand_efficiency_ln>
-1.9368722561392

> <r_i_glide_gscore>
-8.17142353728362

> <r_i_glide_lipo>
-3.52875334928025

> <r_i_glide_hbond>
0

> <r_i_glide_metal>
0

> <r_i_glide_rewards>
-2.60055074065092

> <r_i_glide_evdw>
-47.4065170288086

> <r_i_glide_ecoul>
-0.603493869304657

> <r_i_glide_erotb>
0.418730484483682

> <r_i_glide_esite>
0

> <r_i_glide_emodel>
-68.0636321711076

> <r_i_glide_energy>
-48.0100108981133

> <r_i_glide_einternal>
4.95574808120728

> <i_i_glide_confnum>
10

> <i_i_glide_posenum>
318

> <r_i_glide_eff_state_penalty>
0

> <s_user_duplicate_titles>
355761

> <i_f3d_flags>
0

> <s_m_subgroup_title>
dock_pv

> <s_m_subgroupid>
dock_pv1

> <b_m_subgroup_collapsed>
0

$$$$
355629
                    3D
 Schrodinger Suite 2021-1.
 40 43  0  0  1  0            999 V2000
    4.7102    7.9813   21.4057 C   0  0  0  0  0  0
    4.7246    7.8798   22.9224 C   0  0  0  0  0  0
    5.7587    8.0571   23.5670 O   0  0  0  0  0  0
    3.5004    7.6098   23.4303 O   0  0  0  0  0  0
    3.2913    7.4846   24.8348 C   0  0  0  0  0  0
    3.2461    8.8397   25.5730 C   0  0  0  0  0  0
    1.9771    9.5592   25.3613 N   0  0  0  0  0  0
    0.9110    9.5458   26.2171 C   0  0  0  0  0  0
   -0.0349   10.3427   25.6066 C   0  0  0  0  0  0
   -1.2664   10.4941   26.2761 C   0  0  0  0  0  0
   -1.4243    9.9317   27.5033 N   0  0  0  0  0  0
   -0.4239    9.1690   27.9670 C   0  0  0  0  0  0
    0.7667    8.9059   27.4058 N   0  0  0  0  0  0
   -2.3390   11.1690   25.7159 N   0  0  0  0  0  0
    0.4130   10.8341   24.4400 N   0  0  0  0  0  0
    1.6301   10.3630   24.3260 C   0  0  0  0  0  0
    2.6431   10.7177   22.9267 S   0  0  0  0  0  0
    3.7681   11.8844   23.5971 C   0  0  0  0  0  0
    5.0600   11.7715   23.4689 N   0  0  0  0  0  0
    5.7140   12.8519   23.9670 C   0  0  0  0  0  0
    7.1087   13.0103   23.9670 C   0  0  0  0  0  0
    7.6460   14.1446   24.5777 C   0  0  0  0  0  0
    6.8262   15.1054   25.1670 C   0  0  0  0  0  0
    5.4377   14.9805   25.1670 C   0  0  0  0  0  0
    4.8827   13.8437   24.5575 C   0  0  0  0  0  0
    3.2049   13.3499   24.3670 S   0  0  0  0  0  0
    4.4610   16.1930   25.9165 Cl  0  0  0  0  0  0
    3.9125    8.6473   21.0800 H   0  0  0  0  0  0
    5.6610    8.3690   21.0428 H   0  0  0  0  0  0
    4.5456    6.9977   20.9672 H   0  0  0  0  0  0
    4.0751    6.8566   25.2627 H   0  0  0  0  0  0
    2.3560    6.9472   24.9967 H   0  0  0  0  0  0
    4.0569    9.5159   25.2995 H   0  0  0  0  0  0
    3.2895    8.6711   26.6487 H   0  0  0  0  0  0
   -0.5904    8.7239   28.9373 H   0  0  0  0  0  0
   -2.2694   11.5076   24.7669 H   0  0  0  0  0  0
   -3.2364   11.1690   26.1848 H   0  0  0  0  0  0
    7.7523   12.2630   23.5255 H   0  0  0  0  0  0
    8.7170   14.2804   24.6047 H   0  0  0  0  0  0
    7.2732   15.9690   25.6373 H   0  0  0  0  0  0
  1  2  1  0  0  0
  1 28  1  0  0  0
  1 29  1  0  0  0
  1 30  1  0  0  0
  2  3  2  0  0  0
  2  4  1  0  0  0
  4  5  1  0  0  0
  5  6  1  0  0  0
  5 31  1  0  0  0
  5 32  1  0  0  0
  6  7  1  0  0  0
  6 33  1  0  0  0
  6 34  1  0  0  0
  7 16  1  0  0  0
  7  8  1  0  0  0
  8 13  2  0  0  0
  8  9  1  0  0  0
  9 10  2  0  0  0
  9 15  1  0  0  0
 10 11  1  0  0  0
 10 14  1  0  0  0
 11 12  2  0  0  0
 12 13  1  0  0  0
 12 35  1  0  0  0
 14 36  1  0  0  0
 14 37  1  0  0  0
 15 16  2  0  0  0
 16 17  1  0  0  0
 17 18  1  0  0  0
 18 26  1  0  0  0
 18 19  2  0  0  0
 19 20  1  0  0  0
 20 25  2  0  0  0
 20 21  1  0  0  0
 21 22  2  0  0  0
 21 38  1  0  0  0
 22 23  1  0  0  0
 22 39  1  0  0  0
 23 24  2  0  0  0
 23 40  1  0  0  0
 24 25  1  0  0  0
 24 27  1  0  0  0
 25 26  1  0  0  0
M  END
> <s_m_entry_id>
5288

> <s_m_entry_name>
ligand_docking-pose.33

> <s_m_Source_Path>
/home/csk/Desktop/cluster/DUD-E-result/hs90a

> <s_m_Source_File>
ligand_docking-pose.sdf

> <i_m_Source_File_Index>
33

> <i_lp_mmshare_version>
53161

> <r_lp_tautomer_probability>
0.999997216410988

> <s_lp_Force_Field>
OPLS_2005

> <r_lp_Energy>
5.533854

> <b_lp_Chiralities_Consistent>
1

> <s_lp_Variant>
355629-1

> <s_i_glide_gridfile>
glide-grid_1uyg

> <i_i_glide_lignum>
52

> <i_i_glide_rotatable_bonds>
6

> <r_i_docking_score>
-8.12671848952445

> <r_i_glide_ligand_efficiency>
-0.300989573686091

> <r_i_glide_ligand_efficiency_sa>
-0.90296872006626

> <r_i_glide_ligand_efficiency_ln>
-1.89176608493593

> <r_i_glide_gscore>
-8.12671848952445

> <r_i_glide_lipo>
-3.29962029770249

> <r_i_glide_hbond>
0

> <r_i_glide_metal>
0

> <r_i_glide_rewards>
-2.63359539650528

> <r_i_glide_evdw>
-45.1484680175781

> <r_i_glide_ecoul>
-2.83048391342163

> <r_i_glide_erotb>
0.558735560559667

> <r_i_glide_esite>
-0.0702423679841972

> <r_i_glide_emodel>
-69.3639262393844

> <r_i_glide_energy>
-47.9789519309998

> <r_i_glide_einternal>
3.28828835487366

> <i_i_glide_confnum>
11

> <i_i_glide_posenum>
348

> <r_i_glide_eff_state_penalty>
0

> <s_user_duplicate_titles>
355629

> <i_f3d_flags>
0

> <s_m_subgroup_title>
dock_pv

> <s_m_subgroupid>
dock_pv1

> <b_m_subgroup_collapsed>
0

$$$$
346533
                    3D
 Schrodinger Suite 2021-1.
 46 49  0  0  1  0            999 V2000
    2.4747    6.9571   26.7803 C   0  0  0  0  0  0
    2.4640    8.4019   27.2964 C   0  0  0  0  0  0
    1.1062    9.0739   27.1187 C   0  0  0  0  0  0
    0.8805    9.8568   25.9898 C   0  0  0  0  0  0
   -0.3441   10.4826   25.7505 C   0  0  0  0  0  0
   -1.3656   10.3098   26.7020 C   0  0  0  0  0  0
   -1.1390    9.5696   27.8624 C   0  0  0  0  0  0
    0.0845    8.9383   28.0597 C   0  0  0  0  0  0
    0.2790    8.2147   29.1998 O   0  0  0  0  0  0
   -2.6330   10.7743   26.4829 O   0  0  0  0  0  0
   -0.5153   11.2409   24.4615 C   0  0  0  0  0  0
    0.3580   11.9125   23.5877 C   0  0  0  0  0  0
   -0.4468   12.3181   22.5029 C   0  0  0  0  0  0
   -1.7109   12.0350   22.6970 N   0  0  0  0  0  0
   -1.7393   11.4031   23.8648 N   0  0  0  0  0  0
   -0.0372   12.9530   21.1984 C   0  0  0  0  0  0
    1.8258   12.1733   23.7154 C   0  0  0  0  0  0
    2.2023   13.4609   24.1105 C   0  0  0  0  0  0
    3.5476   13.8006   24.2624 C   0  0  0  0  0  0
    4.5414   12.8678   23.9677 C   0  0  0  0  0  0
    4.1852   11.5781   23.5910 C   0  0  0  0  0  0
    2.8309   11.2271   23.4522 C   0  0  0  0  0  0
    2.4612    9.9298   23.1540 O   0  0  0  0  0  0
    3.4996    9.1184   22.5954 C   0  0  0  0  0  0
    4.8214    9.3215   23.3652 C   0  0  0  0  0  0
    5.2108   10.6969   23.3148 O   0  0  0  0  0  0
   -2.6117   11.0975   24.2813 H   0  0  0  0  0  0
    3.4597    6.5061   26.9102 H   0  0  0  0  0  0
    2.2303    6.9153   25.7179 H   0  0  0  0  0  0
    1.7533    6.3388   27.3150 H   0  0  0  0  0  0
    2.7537    8.4289   28.3481 H   0  0  0  0  0  0
    3.2238    8.9783   26.7665 H   0  0  0  0  0  0
    1.6869    9.9486   25.2956 H   0  0  0  0  0  0
   -1.9276    9.4432   28.5893 H   0  0  0  0  0  0
   -0.2833    8.5389   29.9137 H   0  0  0  0  0  0
   -3.2679   10.5786   27.1736 H   0  0  0  0  0  0
    0.8538   13.5687   21.3160 H   0  0  0  0  0  0
    0.1931   12.1985   20.4515 H   0  0  0  0  0  0
   -0.8284   13.5694   20.7677 H   0  0  0  0  0  0
    1.4463   14.2063   24.3130 H   0  0  0  0  0  0
    3.8221   14.7981   24.5711 H   0  0  0  0  0  0
    5.5831   13.1373   24.0560 H   0  0  0  0  0  0
    3.6613    9.3989   21.5557 H   0  0  0  0  0  0
    3.1929    8.0728   22.6137 H   0  0  0  0  0  0
    5.6152    8.7026   22.9439 H   0  0  0  0  0  0
    4.6772    9.0185   24.4024 H   0  0  0  0  0  0
  1  2  1  0  0  0
  1 28  1  0  0  0
  1 29  1  0  0  0
  1 30  1  0  0  0
  2  3  1  0  0  0
  2 31  1  0  0  0
  2 32  1  0  0  0
  3  8  1  0  0  0
  3  4  2  0  0  0
  4  5  1  0  0  0
  4 33  1  0  0  0
  5  6  2  0  0  0
  5 11  1  0  0  0
  6  7  1  0  0  0
  6 10  1  0  0  0
  7  8  2  0  0  0
  7 34  1  0  0  0
  8  9  1  0  0  0
  9 35  1  0  0  0
 10 36  1  0  0  0
 11 15  1  0  0  0
 11 12  2  0  0  0
 12 13  1  0  0  0
 12 17  1  0  0  0
 13 14  2  0  0  0
 13 16  1  0  0  0
 14 15  1  0  0  0
 15 27  1  0  0  0
 16 37  1  0  0  0
 16 38  1  0  0  0
 16 39  1  0  0  0
 17 22  1  0  0  0
 17 18  2  0  0  0
 18 19  1  0  0  0
 18 40  1  0  0  0
 19 20  2  0  0  0
 19 41  1  0  0  0
 20 21  1  0  0  0
 20 42  1  0  0  0
 21 26  1  0  0  0
 21 22  2  0  0  0
 22 23  1  0  0  0
 23 24  1  0  0  0
 24 25  1  0  0  0
 24 43  1  0  0  0
 24 44  1  0  0  0
 25 26  1  0  0  0
 25 45  1  0  0  0
 25 46  1  0  0  0
M  END
> <s_m_entry_id>
5289

> <s_m_entry_name>
ligand_docking-pose.34

> <s_m_Source_Path>
/home/csk/Desktop/cluster/DUD-E-result/hs90a

> <s_m_Source_File>
ligand_docking-pose.sdf

> <i_m_Source_File_Index>
34

> <i_lp_mmshare_version>
53161

> <r_lp_tautomer_probability>
0.4999999999745

> <s_lp_Force_Field>
OPLS_2005

> <r_lp_Energy>
18.762351

> <b_lp_Chiralities_Consistent>
1

> <s_lp_Variant>
346533-1

> <s_i_glide_gridfile>
glide-grid_1uyg

> <i_i_glide_lignum>
49

> <i_i_glide_rotatable_bonds>
5

> <r_i_docking_score>
-8.08881622853734

> <r_i_glide_ligand_efficiency>
-0.311108316482205

> <r_i_glide_ligand_efficiency_sa>
-0.92165716342642

> <r_i_glide_ligand_efficiency_ln>
-1.89963194970112

> <r_i_glide_gscore>
-8.08881622853734

> <r_i_glide_lipo>
-4.18160444646782

> <r_i_glide_hbond>
-0.32

> <r_i_glide_metal>
0

> <r_i_glide_rewards>
-1.34878246862744

> <r_i_glide_evdw>
-40.4000511169434

> <r_i_glide_ecoul>
-3.505366563797

> <r_i_glide_erotb>
0.307378226974638

> <r_i_glide_esite>
0

> <r_i_glide_emodel>
-63.6288182579493

> <r_i_glide_energy>
-43.9054176807404

> <r_i_glide_einternal>
4.6789083480835

> <i_i_glide_confnum>
24

> <i_i_glide_posenum>
377

> <r_i_glide_eff_state_penalty>
0

> <s_user_duplicate_titles>
346533

> <i_f3d_flags>
0

> <s_m_subgroup_title>
dock_pv

> <s_m_subgroupid>
dock_pv1

> <b_m_subgroup_collapsed>
0

$$$$
355669
                    3D
 Schrodinger Suite 2021-1.
 43 47  0  0  1  0            999 V2000
    7.6296   14.1768   24.6088 C   0  0  0  0  0  0
    7.0811   13.0660   23.9676 C   0  0  0  0  0  0
    5.6854   12.9235   23.9670 C   0  0  0  0  0  0
    4.8612   13.9100   24.5735 C   0  0  0  0  0  0
    5.4271   15.0289   25.2041 C   0  0  0  0  0  0
    6.8177   15.1314   25.2177 C   0  0  0  0  0  0
    4.4610   16.2415   25.9670 Cl  0  0  0  0  0  0
    3.1787   13.4314   24.3670 S   0  0  0  0  0  0
    3.7346   11.9691   23.5870 C   0  0  0  0  0  0
    5.0245   11.8599   23.4496 N   0  0  0  0  0  0
    2.6122   10.7995   22.9169 S   0  0  0  0  0  0
    1.6265   10.4028   24.3254 C   0  0  0  0  0  0
    0.3953   10.8347   24.4311 N   0  0  0  0  0  0
   -0.0408   10.3433   25.6006 C   0  0  0  0  0  0
   -1.2698   10.4884   26.2732 C   0  0  0  0  0  0
   -1.4221    9.9280   27.5019 N   0  0  0  0  0  0
   -0.4127    9.1784   27.9670 C   0  0  0  0  0  0
    0.7838    8.9351   27.4095 N   0  0  0  0  0  0
    0.9191    9.5690   26.2161 C   0  0  0  0  0  0
    1.9931    9.6145   25.3696 N   0  0  0  0  0  0
    3.3048    8.9924   25.6369 C   0  0  0  0  0  0
    3.6075    7.7417   24.7759 C   0  0  0  0  0  0
    4.1343    8.0566   23.4537 N   0  0  2  0  0  0
    5.4682    8.6385   23.4905 C   0  0  0  0  0  0
    6.6303    7.7327   23.1670 C   0  0  0  0  0  0
    6.1787    8.7690   22.1673 C   0  0  0  0  0  0
   -2.3390   11.1690   25.7167 N   0  0  0  0  0  0
    8.7020   14.2979   24.6457 H   0  0  0  0  0  0
    7.7169   12.3219   23.5100 H   0  0  0  0  0  0
    7.2766   15.9690   25.7185 H   0  0  0  0  0  0
   -0.5728    8.7348   28.9390 H   0  0  0  0  0  0
    3.2610    8.6931   26.6846 H   0  0  0  0  0  0
    4.0416    9.7911   25.5670 H   0  0  0  0  0  0
    2.6978    7.1503   24.6591 H   0  0  0  0  0  0
    4.3214    7.0932   25.2871 H   0  0  0  0  0  0
    3.5018    8.6623   22.9466 H   0  0  0  0  0  0
    5.6244    9.4524   24.1949 H   0  0  0  0  0  0
    6.4345    6.6799   22.9600 H   0  0  0  0  0  0
    7.5671    7.8824   23.7036 H   0  0  0  0  0  0
    6.7956    9.6513   21.9980 H   0  0  0  0  0  0
    5.6610    8.4433   21.2637 H   0  0  0  0  0  0
   -2.2698   11.5055   24.7670 H   0  0  0  0  0  0
   -3.2363   11.1690   26.1858 H   0  0  0  0  0  0
  1  6  1  0  0  0
  1  2  2  0  0  0
  1 28  1  0  0  0
  2  3  1  0  0  0
  2 29  1  0  0  0
  3 10  1  0  0  0
  3  4  2  0  0  0
  4  5  1  0  0  0
  4  8  1  0  0  0
  5  6  2  0  0  0
  5  7  1  0  0  0
  6 30  1  0  0  0
  8  9  1  0  0  0
  9 10  2  0  0  0
  9 11  1  0  0  0
 11 12  1  0  0  0
 12 20  1  0  0  0
 12 13  2  0  0  0
 13 14  1  0  0  0
 14 19  2  0  0  0
 14 15  1  0  0  0
 15 16  2  0  0  0
 15 27  1  0  0  0
 16 17  1  0  0  0
 17 18  2  0  0  0
 17 31  1  0  0  0
 18 19  1  0  0  0
 19 20  1  0  0  0
 20 21  1  0  0  0
 21 22  1  0  0  0
 21 32  1  0  0  0
 21 33  1  0  0  0
 22 23  1  0  0  0
 22 34  1  0  0  0
 22 35  1  0  0  0
 23 24  1  0  0  0
 23 36  1  0  0  0
 24 26  1  0  0  0
 24 25  1  0  0  0
 24 37  1  0  0  0
 25 26  1  0  0  0
 25 38  1  0  0  0
 25 39  1  0  0  0
 26 40  1  0  0  0
 26 41  1  0  0  0
 27 42  1  0  0  0
 27 43  1  0  0  0
M  END
> <s_m_entry_id>
5290

> <s_m_entry_name>
ligand_docking-pose.35

> <s_m_Source_Path>
/home/csk/Desktop/cluster/DUD-E-result/hs90a

> <s_m_Source_File>
ligand_docking-pose.sdf

> <i_m_Source_File_Index>
35

> <i_lp_mmshare_version>
53161

> <r_lp_tautomer_probability>
0.999997216410988

> <s_lp_Force_Field>
OPLS_2005

> <r_lp_Energy>
16.552872

> <b_lp_Chiralities_Consistent>
1

> <s_lp_Variant>
355669-1

> <s_i_glide_gridfile>
glide-grid_1uyg

> <i_i_glide_lignum>
44

> <i_i_glide_rotatable_bonds>
6

> <r_i_docking_score>
-8.04121746708486

> <r_i_glide_ligand_efficiency>
-0.297822869151291

> <r_i_glide_ligand_efficiency_sa>
-0.893468606472298

> <r_i_glide_ligand_efficiency_ln>
-1.87186285650652

> <r_i_glide_gscore>
-8.04121746708486

> <r_i_glide_lipo>
-3.38294716143995

> <r_i_glide_hbond>
0

> <r_i_glide_metal>
0

> <r_i_glide_rewards>
-2.58846116114031

> <r_i_glide_evdw>
-43.9455337524414

> <r_i_glide_ecoul>
-2.45439076423645

> <r_i_glide_erotb>
0.565902593057008

> <r_i_glide_esite>
-0.0702764353040716

> <r_i_glide_emodel>
-67.0877139667818

> <r_i_glide_energy>
-46.3999245166779

> <r_i_glide_einternal>
3.21218299865723

> <i_i_glide_confnum>
56

> <i_i_glide_posenum>
243

> <r_i_glide_eff_state_penalty>
0

> <s_user_duplicate_titles>
355669

> <i_f3d_flags>
0

> <s_m_subgroup_title>
dock_pv

> <s_m_subgroupid>
dock_pv1

> <b_m_subgroup_collapsed>
0

$$$$
518366
                    3D
 Schrodinger Suite 2021-1.
 37 39  0  0  1  0            999 V2000
    7.1438   10.9119   23.1383 C   0  0  0  0  0  0
    6.3389   11.9671   23.6579 O   0  0  0  0  0  0
    4.9606   11.8291   23.6880 C   0  0  0  0  0  0
    4.2840   10.7116   23.1720 C   0  0  0  0  0  0
    2.8940   10.6510   23.1966 C   0  0  0  0  0  0
    2.1509   11.6888   23.7557 C   0  0  0  0  0  0
    2.8146   12.7920   24.2941 C   0  0  0  0  0  0
    4.2190   12.8789   24.2624 C   0  0  0  0  0  0
    4.9318   13.9554   24.7670 O   0  0  0  0  0  0
    4.2383   15.0421   25.3714 C   0  0  0  0  0  0
    0.6645   11.6356   23.7112 C   0  0  0  0  0  0
   -0.3233   11.0190   24.5007 C   0  0  0  0  0  0
   -1.5372   11.2025   24.0125 N   0  0  0  0  0  0
   -1.6556   11.9708   22.8749 N   0  0  0  0  0  0
   -0.1106   12.4761   22.3986 S   0  0  0  0  0  0
   -0.1541   10.2178   25.7712 C   0  0  0  0  0  0
    1.0297    9.4898   25.9643 C   0  0  0  0  0  0
    1.2622    8.7690   27.1367 C   0  0  0  0  0  0
    0.3010    8.7683   28.1505 C   0  0  0  0  0  0
   -0.8911    9.4571   27.9671 C   0  0  0  0  0  0
   -1.1302   10.1628   26.7911 C   0  0  0  0  0  0
   -2.3525   10.7690   26.6879 O   0  0  0  0  0  0
    0.5136    8.1329   29.3446 O   0  0  0  0  0  0
    2.7549    7.9150   27.3180 Cl  0  0  0  0  0  0
    8.1960   11.1814   23.2252 H   0  0  0  0  0  0
    6.9343   10.7312   22.0832 H   0  0  0  0  0  0
    6.9968    9.9853   23.6950 H   0  0  0  0  0  0
    4.8219    9.8879   22.7281 H   0  0  0  0  0  0
    2.3964    9.7927   22.7693 H   0  0  0  0  0  0
    2.2217   13.5887   24.7156 H   0  0  0  0  0  0
    4.9622   15.7826   25.7135 H   0  0  0  0  0  0
    3.5759   15.5344   24.6588 H   0  0  0  0  0  0
    3.6625   14.7239   26.2419 H   0  0  0  0  0  0
    1.7924    9.4712   25.2053 H   0  0  0  0  0  0
   -1.6422    9.4474   28.7450 H   0  0  0  0  0  0
   -2.5536   11.1091   25.8104 H   0  0  0  0  0  0
   -0.0586    8.4810   30.0385 H   0  0  0  0  0  0
  1  2  1  0  0  0
  1 25  1  0  0  0
  1 26  1  0  0  0
  1 27  1  0  0  0
  2  3  1  0  0  0
  3  8  1  0  0  0
  3  4  2  0  0  0
  4  5  1  0  0  0
  4 28  1  0  0  0
  5  6  2  0  0  0
  5 29  1  0  0  0
  6  7  1  0  0  0
  6 11  1  0  0  0
  7  8  2  0  0  0
  7 30  1  0  0  0
  8  9  1  0  0  0
  9 10  1  0  0  0
 10 31  1  0  0  0
 10 32  1  0  0  0
 10 33  1  0  0  0
 11 15  1  0  0  0
 11 12  2  0  0  0
 12 13  1  0  0  0
 12 16  1  0  0  0
 13 14  2  0  0  0
 14 15  1  0  0  0
 16 21  1  0  0  0
 16 17  2  0  0  0
 17 18  1  0  0  0
 17 34  1  0  0  0
 18 19  2  0  0  0
 18 24  1  0  0  0
 19 20  1  0  0  0
 19 23  1  0  0  0
 20 21  2  0  0  0
 20 35  1  0  0  0
 21 22  1  0  0  0
 22 36  1  0  0  0
 23 37  1  0  0  0
M  END
> <s_m_entry_id>
5291

> <s_m_entry_name>
ligand_docking-pose.36

> <s_m_Source_Path>
/home/csk/Desktop/cluster/DUD-E-result/hs90a

> <s_m_Source_File>
ligand_docking-pose.sdf

> <i_m_Source_File_Index>
36

> <i_lp_mmshare_version>
53161

> <r_lp_tautomer_probability>
0.999999999898

> <s_lp_Force_Field>
OPLS_2005

> <r_lp_Energy>
26.672975

> <b_lp_Chiralities_Consistent>
1

> <s_lp_Variant>
518366-1

> <s_i_glide_gridfile>
glide-grid_1uyg

> <i_i_glide_lignum>
24

> <i_i_glide_rotatable_bonds>
6

> <r_i_docking_score>
-7.98314634755257

> <r_i_glide_ligand_efficiency>
-0.33263109781469

> <r_i_glide_ligand_efficiency_sa>
-0.959474114771817

> <r_i_glide_ligand_efficiency_ln>
-1.91073324368531

> <r_i_glide_gscore>
-7.98314634755257

> <r_i_glide_lipo>
-4.32811941499658

> <r_i_glide_hbond>
-0.346639021192127

> <r_i_glide_metal>
0

> <r_i_glide_rewards>
-0.981171353937401

> <r_i_glide_evdw>
-43.5562782287598

> <r_i_glide_ecoul>
-2.9225447177887

> <r_i_glide_erotb>
0.288979061679831

> <r_i_glide_esite>
0

> <r_i_glide_emodel>
-66.5602176871588

> <r_i_glide_energy>
-46.4788229465485

> <r_i_glide_einternal>
3.45879173278809

> <i_i_glide_confnum>
4

> <i_i_glide_posenum>
30

> <r_i_glide_eff_state_penalty>
0

> <s_user_duplicate_titles>
518366

> <i_f3d_flags>
0

> <s_m_subgroup_title>
dock_pv

> <s_m_subgroupid>
dock_pv1

> <b_m_subgroup_collapsed>
0

$$$$
320743
                    3D
 Schrodinger Suite 2021-1.
 50 52  0  0  1  0            999 V2000
    1.0272    7.1329   23.7592 C   0  0  0  0  0  0
    2.4159    6.8573   24.3592 C   0  0  0  0  0  0
    3.3796    8.0647   24.3574 C   0  0  0  0  0  0
    3.2143    9.0681   25.5232 C   0  0  0  0  0  0
    1.9058    9.7480   25.5499 N   0  0  0  0  0  0
    0.9410    9.5600   26.4997 C   0  0  0  0  0  0
   -0.1286   10.3170   26.0680 C   0  0  0  0  0  0
   -1.3155   10.2288   26.8269 C   0  0  0  0  0  0
   -1.3134    9.4922   27.9666 N   0  0  0  0  0  0
   -0.1973    8.8190   28.2706 C   0  0  0  0  0  0
    0.9653    8.7716   27.6042 N   0  0  0  0  0  0
   -2.5244   10.7695   26.4141 N   0  0  0  0  0  0
    0.1699   10.9875   24.9435 N   0  0  0  0  0  0
    1.4002   10.6358   24.6573 C   0  0  0  0  0  0
    2.1835   11.1680   23.1684 S   0  0  0  0  0  0
    3.5714   12.0908   23.7678 C   0  0  0  0  0  0
    4.8343   11.5441   23.5679 C   0  0  0  0  0  0
    5.9932   12.2810   23.8354 C   0  0  0  0  0  0
    5.8842   13.5757   24.3669 C   0  0  0  0  0  0
    4.5983   14.1182   24.6208 C   0  0  0  0  0  0
    3.4478   13.3910   24.2715 C   0  0  0  0  0  0
    1.8927   14.1556   24.3665 Cl  0  0  0  0  0  0
    4.4381   15.3838   25.1355 O   0  0  0  0  0  0
    4.2365   15.4347   26.5414 C   0  0  0  0  0  0
    7.0999   14.2029   24.6059 O   0  0  0  0  0  0
    7.1810   15.5643   24.9976 C   0  0  0  0  0  0
    7.2688   11.7945   23.6055 O   0  0  0  0  0  0
    7.4503   10.4863   23.0751 C   0  0  0  0  0  0
    0.4619    6.2064   23.6610 H   0  0  0  0  0  0
    0.4305    7.8040   24.3741 H   0  0  0  0  0  0
    1.1076    7.5698   22.7647 H   0  0  0  0  0  0
    2.8718    6.0559   23.7744 H   0  0  0  0  0  0
    2.3118    6.4611   25.3709 H   0  0  0  0  0  0
    3.3360    8.5718   23.3933 H   0  0  0  0  0  0
    4.3970    7.6750   24.4179 H   0  0  0  0  0  0
    3.9658    9.8561   25.5179 H   0  0  0  0  0  0
    3.2938    8.5455   26.4763 H   0  0  0  0  0  0
   -0.2417    8.2312   29.1751 H   0  0  0  0  0  0
   -2.5870   11.2164   25.5091 H   0  0  0  0  0  0
   -3.3576   10.6143   26.9623 H   0  0  0  0  0  0
    4.9005   10.5522   23.1476 H   0  0  0  0  0  0
    4.2806   16.4743   26.8645 H   0  0  0  0  0  0
    3.2616   15.0441   26.8243 H   0  0  0  0  0  0
    4.9992   14.8789   27.0893 H   0  0  0  0  0  0
    8.2177   15.8879   24.9149 H   0  0  0  0  0  0
    6.5852   16.2220   24.3650 H   0  0  0  0  0  0
    6.8925   15.6978   26.0388 H   0  0  0  0  0  0
    8.5174   10.2920   22.9633 H   0  0  0  0  0  0
    7.0443    9.7239   23.7419 H   0  0  0  0  0  0
    6.9924   10.3872   22.0896 H   0  0  0  0  0  0
  1  2  1  0  0  0
  1 29  1  0  0  0
  1 30  1  0  0  0
  1 31  1  0  0  0
  2  3  1  0  0  0
  2 32  1  0  0  0
  2 33  1  0  0  0
  3  4  1  0  0  0
  3 34  1  0  0  0
  3 35  1  0  0  0
  4  5  1  0  0  0
  4 36  1  0  0  0
  4 37  1  0  0  0
  5 14  1  0  0  0
  5  6  1  0  0  0
  6 11  2  0  0  0
  6  7  1  0  0  0
  7  8  2  0  0  0
  7 13  1  0  0  0
  8  9  1  0  0  0
  8 12  1  0  0  0
  9 10  2  0  0  0
 10 11  1  0  0  0
 10 38  1  0  0  0
 12 39  1  0  0  0
 12 40  1  0  0  0
 13 14  2  0  0  0
 14 15  1  0  0  0
 15 16  1  0  0  0
 16 21  1  0  0  0
 16 17  2  0  0  0
 17 18  1  0  0  0
 17 41  1  0  0  0
 18 19  2  0  0  0
 18 27  1  0  0  0
 19 20  1  0  0  0
 19 25  1  0  0  0
 20 21  2  0  0  0
 20 23  1  0  0  0
 21 22  1  0  0  0
 23 24  1  0  0  0
 24 42  1  0  0  0
 24 43  1  0  0  0
 24 44  1  0  0  0
 25 26  1  0  0  0
 26 45  1  0  0  0
 26 46  1  0  0  0
 26 47  1  0  0  0
 27 28  1  0  0  0
 28 48  1  0  0  0
 28 49  1  0  0  0
 28 50  1  0  0  0
M  END
> <s_m_entry_id>
5296

> <s_m_entry_name>
ligand_docking-pose.41

> <s_m_Source_Path>
/home/csk/Desktop/cluster/DUD-E-result/hs90a

> <s_m_Source_File>
ligand_docking-pose.sdf

> <i_m_Source_File_Index>
41

> <i_lp_mmshare_version>
53161

> <r_lp_tautomer_probability>
0.999997216410988

> <s_lp_Force_Field>
OPLS_2005

> <r_lp_Energy>
28.907076

> <b_lp_Chiralities_Consistent>
1

> <s_lp_Variant>
320743-1

> <s_i_glide_gridfile>
glide-grid_1uyg

> <i_i_glide_lignum>
104

> <i_i_glide_rotatable_bonds>
8

> <r_i_docking_score>
-7.8835699558761

> <r_i_glide_ligand_efficiency>
-0.281556069852718

> <r_i_glide_ligand_efficiency_sa>
-0.854970055729771

> <r_i_glide_ligand_efficiency_ln>
-1.81975941748818

> <r_i_glide_gscore>
-7.8835699558761

> <r_i_glide_lipo>
-3.7383296005429

> <r_i_glide_hbond>
0

> <r_i_glide_metal>
0

> <r_i_glide_rewards>
-1.8581770907061

> <r_i_glide_evdw>
-46.2753562927246

> <r_i_glide_ecoul>
-2.39775252342224

> <r_i_glide_erotb>
0.441246721615351

> <r_i_glide_esite>
-0.0548792930928758

> <r_i_glide_emodel>
-68.6780684362271

> <r_i_glide_energy>
-48.6731088161469

> <r_i_glide_einternal>
2.54429244995117

> <i_i_glide_confnum>
18

> <i_i_glide_posenum>
129

> <r_i_glide_eff_state_penalty>
0

> <s_user_duplicate_titles>
320743

> <i_f3d_flags>
0

> <s_m_subgroup_title>
dock_pv

> <s_m_subgroupid>
dock_pv1

> <b_m_subgroup_collapsed>
0

$$$$
518363
                    3D
 Schrodinger Suite 2021-1.
 33 35  0  0  1  0            999 V2000
    7.1339   11.6696   23.5809 C   0  0  0  0  0  0
    6.1990   12.6712   23.9668 O   0  0  0  0  0  0
    4.8508   12.3694   23.9670 C   0  0  0  0  0  0
    4.3212   11.1360   23.5596 C   0  0  0  0  0  0
    2.9439   10.9465   23.5113 C   0  0  0  0  0  0
    2.0821   11.9671   23.9135 C   0  0  0  0  0  0
    2.6055   13.1864   24.3467 C   0  0  0  0  0  0
    3.9831   13.3848   24.3670 C   0  0  0  0  0  0
    0.6104   11.7830   23.8041 C   0  0  0  0  0  0
   -0.3519   11.0643   24.5379 C   0  0  0  0  0  0
   -1.5602   11.1694   24.0138 N   0  0  0  0  0  0
   -1.7014   11.9685   22.9004 N   0  0  0  0  0  0
   -0.1837   12.5913   22.4816 S   0  0  0  0  0  0
   -0.1671   10.2425   25.7912 C   0  0  0  0  0  0
    1.0191    9.5159   25.9661 C   0  0  0  0  0  0
    1.2579    8.7674   27.1184 C   0  0  0  0  0  0
    0.2958    8.7314   28.1298 C   0  0  0  0  0  0
   -0.8977    9.4246   27.9670 C   0  0  0  0  0  0
   -1.1385   10.1615   26.8110 C   0  0  0  0  0  0
   -2.3616   10.7690   26.7210 O   0  0  0  0  0  0
    0.5079    8.0480   29.2976 O   0  0  0  0  0  0
    2.7538    7.9120   27.2706 Cl  0  0  0  0  0  0
    8.1428   12.0595   23.6991 H   0  0  0  0  0  0
    7.0077   11.3861   22.5349 H   0  0  0  0  0  0
    7.0533   10.7800   24.2078 H   0  0  0  0  0  0
    4.9595   10.3279   23.2374 H   0  0  0  0  0  0
    2.5493   10.0094   23.1445 H   0  0  0  0  0  0
    1.9474   13.9924   24.6358 H   0  0  0  0  0  0
    4.3837   14.3392   24.6753 H   0  0  0  0  0  0
    1.7771    9.5107   25.2055 H   0  0  0  0  0  0
   -1.6483    9.3911   28.7434 H   0  0  0  0  0  0
   -2.5650   11.1244   25.8498 H   0  0  0  0  0  0
   -0.0808    8.3466   29.9988 H   0  0  0  0  0  0
  1  2  1  0  0  0
  1 23  1  0  0  0
  1 24  1  0  0  0
  1 25  1  0  0  0
  2  3  1  0  0  0
  3  8  1  0  0  0
  3  4  2  0  0  0
  4  5  1  0  0  0
  4 26  1  0  0  0
  5  6  2  0  0  0
  5 27  1  0  0  0
  6  7  1  0  0  0
  6  9  1  0  0  0
  7  8  2  0  0  0
  7 28  1  0  0  0
  8 29  1  0  0  0
  9 13  1  0  0  0
  9 10  2  0  0  0
 10 11  1  0  0  0
 10 14  1  0  0  0
 11 12  2  0  0  0
 12 13  1  0  0  0
 14 19  1  0  0  0
 14 15  2  0  0  0
 15 16  1  0  0  0
 15 30  1  0  0  0
 16 17  2  0  0  0
 16 22  1  0  0  0
 17 18  1  0  0  0
 17 21  1  0  0  0
 18 19  2  0  0  0
 18 31  1  0  0  0
 19 20  1  0  0  0
 20 32  1  0  0  0
 21 33  1  0  0  0
M  END
> <s_m_entry_id>
5298

> <s_m_entry_name>
ligand_docking-pose.43

> <s_m_Source_Path>
/home/csk/Desktop/cluster/DUD-E-result/hs90a

> <s_m_Source_File>
ligand_docking-pose.sdf

> <i_m_Source_File_Index>
43

> <i_lp_mmshare_version>
53161

> <r_lp_tautomer_probability>
0.999999999898

> <s_lp_Force_Field>
OPLS_2005

> <r_lp_Energy>
22.051598

> <b_lp_Chiralities_Consistent>
1

> <s_lp_Variant>
518363-1

> <s_i_glide_gridfile>
glide-grid_1uyg

> <i_i_glide_lignum>
11

> <i_i_glide_rotatable_bonds>
5

> <r_i_docking_score>
-7.81688692969365

> <r_i_glide_ligand_efficiency>
-0.355313042258802

> <r_i_glide_ligand_efficiency_sa>
-0.995601118078168

> <r_i_glide_ligand_efficiency_ln>
-1.91073229349571

> <r_i_glide_gscore>
-7.81688692969365

> <r_i_glide_lipo>
-4.10566889170081

> <r_i_glide_hbond>
-0.314984375765765

> <r_i_glide_metal>
0

> <r_i_glide_rewards>
-1.36576285135306

> <r_i_glide_evdw>
-40.2823028564453

> <r_i_glide_ecoul>
-2.35333323478699

> <r_i_glide_erotb>
0.336644317166304

> <r_i_glide_esite>
0

> <r_i_glide_emodel>
-60.9548006241225

> <r_i_glide_energy>
-42.6356360912323

> <r_i_glide_einternal>
2.53844237327576

> <i_i_glide_confnum>
4

> <i_i_glide_posenum>
393

> <r_i_glide_eff_state_penalty>
0

> <s_user_duplicate_titles>
518363

> <i_f3d_flags>
0

> <s_m_subgroup_title>
dock_pv

> <s_m_subgroupid>
dock_pv1

> <b_m_subgroup_collapsed>
0

$$$$
355666
                    3D
 Schrodinger Suite 2021-1.
 43 46  0  0  1  0            999 V2000
   -1.7502   11.5081   24.0558 C   0  0  0  0  0  0
   -1.1144   10.7364   25.2035 C   0  0  0  0  0  0
   -1.1351   11.1695   26.3555 O   0  0  0  0  0  0
   -0.5670    9.5716   24.7987 O   0  0  0  0  0  0
    0.0959    8.7051   25.7206 C   0  0  0  0  0  0
    1.6132    8.7285   25.4798 C   0  0  0  0  0  0
    2.0116    8.0464   24.1532 C   0  0  0  0  0  0
    3.4394    8.2472   23.8411 N   0  0  0  0  0  0
    4.4688    7.4187   24.1918 C   0  0  0  0  0  0
    5.6027    8.0345   23.6923 C   0  0  0  0  0  0
    6.8421    7.4082   23.9544 C   0  0  0  0  0  0
    6.8512    6.2568   24.6770 N   0  0  0  0  0  0
    5.6729    5.7738   25.0916 C   0  0  0  0  0  0
    4.4397    6.2644   24.9037 N   0  0  0  0  0  0
    8.0622    7.9370   23.5569 N   0  0  0  0  0  0
    5.2954    9.1783   23.0617 N   0  0  0  0  0  0
    3.9995    9.3146   23.2251 C   0  0  0  0  0  0
    3.0852   10.7641   22.7753 S   0  0  0  0  0  0
    4.0298   12.0278   23.5669 C   0  0  0  0  0  0
    5.3324   12.0768   23.5669 N   0  0  0  0  0  0
    5.8093   13.1691   24.2042 C   0  0  0  0  0  0
    7.1739   13.4404   24.3663 C   0  0  0  0  0  0
    7.5343   14.5134   25.1758 C   0  0  0  0  0  0
    6.5630   15.3011   25.7838 C   0  0  0  0  0  0
    5.2027   15.0865   25.5911 C   0  0  0  0  0  0
    4.8246   13.9975   24.7931 C   0  0  0  0  0  0
    3.2358   13.3624   24.3674 S   0  0  0  0  0  0
    4.0612   16.1183   26.3666 Cl  0  0  0  0  0  0
   -1.0764   11.5502   23.2002 H   0  0  0  0  0  0
   -1.9891   12.5266   24.3623 H   0  0  0  0  0  0
   -2.6779   11.0260   23.7488 H   0  0  0  0  0  0
   -0.1224    8.9598   26.7590 H   0  0  0  0  0  0
   -0.2844    7.6933   25.5743 H   0  0  0  0  0  0
    1.9692    9.7597   25.5162 H   0  0  0  0  0  0
    2.1096    8.2117   26.3020 H   0  0  0  0  0  0
    1.8521    6.9678   24.1902 H   0  0  0  0  0  0
    1.4508    8.4163   23.2948 H   0  0  0  0  0  0
    5.7265    4.8702   25.6798 H   0  0  0  0  0  0
    8.0767    8.7582   22.9689 H   0  0  0  0  0  0
    8.9027    7.4332   23.7920 H   0  0  0  0  0  0
    7.9208   12.8028   23.9144 H   0  0  0  0  0  0
    8.5775   14.7298   25.3561 H   0  0  0  0  0  0
    6.8608   16.1045   26.4309 H   0  0  0  0  0  0
  1  2  1  0  0  0
  1 29  1  0  0  0
  1 30  1  0  0  0
  1 31  1  0  0  0
  2  3  2  0  0  0
  2  4  1  0  0  0
  4  5  1  0  0  0
  5  6  1  0  0  0
  5 32  1  0  0  0
  5 33  1  0  0  0
  6  7  1  0  0  0
  6 34  1  0  0  0
  6 35  1  0  0  0
  7  8  1  0  0  0
  7 36  1  0  0  0
  7 37  1  0  0  0
  8 17  1  0  0  0
  8  9  1  0  0  0
  9 14  2  0  0  0
  9 10  1  0  0  0
 10 11  2  0  0  0
 10 16  1  0  0  0
 11 12  1  0  0  0
 11 15  1  0  0  0
 12 13  2  0  0  0
 13 14  1  0  0  0
 13 38  1  0  0  0
 15 39  1  0  0  0
 15 40  1  0  0  0
 16 17  2  0  0  0
 17 18  1  0  0  0
 18 19  1  0  0  0
 19 27  1  0  0  0
 19 20  2  0  0  0
 20 21  1  0  0  0
 21 26  2  0  0  0
 21 22  1  0  0  0
 22 23  2  0  0  0
 22 41  1  0  0  0
 23 24  1  0  0  0
 23 42  1  0  0  0
 24 25  2  0  0  0
 24 43  1  0  0  0
 25 26  1  0  0  0
 25 28  1  0  0  0
 26 27  1  0  0  0
M  END
> <s_m_entry_id>
5299

> <s_m_entry_name>
ligand_docking-pose.44

> <s_m_Source_Path>
/home/csk/Desktop/cluster/DUD-E-result/hs90a

> <s_m_Source_File>
ligand_docking-pose.sdf

> <i_m_Source_File_Index>
44

> <i_lp_mmshare_version>
53161

> <r_lp_tautomer_probability>
0.999997216410988

> <s_lp_Force_Field>
OPLS_2005

> <r_lp_Energy>
8.64897

> <b_lp_Chiralities_Consistent>
1

> <s_lp_Variant>
355666-1

> <s_i_glide_gridfile>
glide-grid_1uyg

> <i_i_glide_lignum>
41

> <i_i_glide_rotatable_bonds>
7

> <r_i_docking_score>
-7.81102211761766

> <r_i_glide_ligand_efficiency>
-0.278965075629202

> <r_i_glide_ligand_efficiency_sa>
-0.84710227125319

> <r_i_glide_ligand_efficiency_ln>
-1.80301324632104

> <r_i_glide_gscore>
-7.81102211761766

> <r_i_glide_lipo>
-3.49682703192444

> <r_i_glide_hbond>
-0.251734925359754

> <r_i_glide_metal>
0

> <r_i_glide_rewards>
-2.02555064216829

> <r_i_glide_evdw>
-44.6386680603027

> <r_i_glide_ecoul>
-2.9121413230896

> <r_i_glide_erotb>
0.631845083313403

> <r_i_glide_esite>
0

> <r_i_glide_emodel>
-65.7343149460057

> <r_i_glide_energy>
-47.5508093833923

> <r_i_glide_einternal>
2.46017408370972

> <i_i_glide_confnum>
40

> <i_i_glide_posenum>
372

> <r_i_glide_eff_state_penalty>
0

> <s_user_duplicate_titles>
355666

> <i_f3d_flags>
0

> <s_m_subgroup_title>
dock_pv

> <s_m_subgroupid>
dock_pv1

> <b_m_subgroup_collapsed>
0

$$$$
355986
                    3D
 Schrodinger Suite 2021-1.
 48 51  0  0  1  0            999 V2000
    8.8775   14.3017   27.4950 C   0  0  0  0  0  0
    9.7242   14.4385   26.2106 C   0  0  0  0  0  0
   10.4107   15.8151   26.2426 C   0  0  0  0  0  0
   10.8263   13.3648   26.1310 C   0  0  0  0  0  0
    8.8808   14.3896   25.0056 N   0  0  1  0  0  0
    8.1747   13.1207   24.7911 C   0  0  0  0  0  0
    7.2576   13.1631   23.5687 C   0  0  0  0  0  0
    6.3598   11.9840   23.5670 N   0  0  0  0  0  0
    6.7407   10.6859   23.3524 C   0  0  0  0  0  0
    5.5901    9.9446   23.5401 C   0  0  0  0  0  0
    5.6946    8.5413   23.4307 C   0  0  0  0  0  0
    6.9093    8.0048   23.1670 N   0  0  0  0  0  0
    7.9356    8.8421   22.9830 C   0  0  0  0  0  0
    7.9633   10.1830   23.0501 N   0  0  0  0  0  0
    4.6210    7.6731   23.5858 N   0  0  0  0  0  0
    4.5447   10.7340   23.7999 N   0  0  0  0  0  0
    5.0318   11.9493   23.8485 C   0  0  0  0  0  0
    4.0782   13.3834   24.2723 S   0  0  0  0  0  0
    2.4289   12.7745   24.1789 C   0  0  0  0  0  0
    1.9883   11.7288   24.8159 N   0  0  0  0  0  0
    0.6816   11.4936   24.5573 C   0  0  0  0  0  0
   -0.0782   10.4718   25.1378 C   0  0  0  0  0  0
   -1.4157   10.3688   24.7637 C   0  0  0  0  0  0
   -1.9675   11.2289   23.8210 C   0  0  0  0  0  0
   -1.2274   12.2145   23.1986 C   0  0  0  0  0  0
    0.0935   12.3707   23.6145 C   0  0  0  0  0  0
    1.2624   13.5700   23.1670 S   0  0  0  0  0  0
   -1.9456   13.1701   21.9566 Cl  0  0  0  0  0  0
    8.0889   13.5693   27.4342 H   0  0  0  0  0  0
    9.4950   13.9693   28.3321 H   0  0  0  0  0  0
    8.3784   15.2367   27.7513 H   0  0  0  0  0  0
   11.2618   15.8400   25.5672 H   0  0  0  0  0  0
    9.7368   16.6268   25.9672 H   0  0  0  0  0  0
   10.7991   16.0447   27.2366 H   0  0  0  0  0  0
   11.4038   13.4408   25.2078 H   0  0  0  0  0  0
   11.5239   13.4484   26.9656 H   0  0  0  0  0  0
   10.4009   12.3690   26.1552 H   0  0  0  0  0  0
    8.1999   15.1350   25.0671 H   0  0  0  0  0  0
    7.5521   12.8852   25.6433 H   0  0  0  0  0  0
    8.8719   12.2938   24.6662 H   0  0  0  0  0  0
    7.8231   13.1171   22.6429 H   0  0  0  0  0  0
    6.6343   14.0554   23.5676 H   0  0  0  0  0  0
    8.8611    8.3608   22.7187 H   0  0  0  0  0  0
    3.6963    8.0497   23.7309 H   0  0  0  0  0  0
    4.7807    6.6876   23.4453 H   0  0  0  0  0  0
    0.3569    9.7895   25.8522 H   0  0  0  0  0  0
   -2.0330    9.5895   25.1674 H   0  0  0  0  0  0
   -3.0091   11.1663   23.5491 H   0  0  0  0  0  0
  1  2  1  0  0  0
  1 29  1  0  0  0
  1 30  1  0  0  0
  1 31  1  0  0  0
  2  3  1  0  0  0
  2  4  1  0  0  0
  2  5  1  0  0  0
  3 32  1  0  0  0
  3 33  1  0  0  0
  3 34  1  0  0  0
  4 35  1  0  0  0
  4 36  1  0  0  0
  4 37  1  0  0  0
  5  6  1  0  0  0
  5 38  1  0  0  0
  6  7  1  0  0  0
  6 39  1  0  0  0
  6 40  1  0  0  0
  7  8  1  0  0  0
  7 41  1  0  0  0
  7 42  1  0  0  0
  8 17  1  0  0  0
  8  9  1  0  0  0
  9 14  2  0  0  0
  9 10  1  0  0  0
 10 11  2  0  0  0
 10 16  1  0  0  0
 11 12  1  0  0  0
 11 15  1  0  0  0
 12 13  2  0  0  0
 13 14  1  0  0  0
 13 43  1  0  0  0
 15 44  1  0  0  0
 15 45  1  0  0  0
 16 17  2  0  0  0
 17 18  1  0  0  0
 18 19  1  0  0  0
 19 27  1  0  0  0
 19 20  2  0  0  0
 20 21  1  0  0  0
 21 26  2  0  0  0
 21 22  1  0  0  0
 22 23  2  0  0  0
 22 46  1  0  0  0
 23 24  1  0  0  0
 23 47  1  0  0  0
 24 25  2  0  0  0
 24 48  1  0  0  0
 25 26  1  0  0  0
 25 28  1  0  0  0
 26 27  1  0  0  0
M  END
> <s_m_entry_id>
5300

> <s_m_entry_name>
ligand_docking-pose.45

> <s_m_Source_Path>
/home/csk/Desktop/cluster/DUD-E-result/hs90a

> <s_m_Source_File>
ligand_docking-pose.sdf

> <i_m_Source_File_Index>
45

> <i_lp_mmshare_version>
53161

> <r_lp_tautomer_probability>
0.999997216410988

> <s_lp_Force_Field>
OPLS_2005

> <r_lp_Energy>
12.548015

> <b_lp_Chiralities_Consistent>
1

> <s_lp_Variant>
355986-1

> <s_i_glide_gridfile>
glide-grid_1uyg

> <i_i_glide_lignum>
48

> <i_i_glide_rotatable_bonds>
6

> <r_i_docking_score>
-7.73772377506273

> <r_i_glide_ligand_efficiency>
-0.276347277680812

> <r_i_glide_ligand_efficiency_sa>
-0.839153094881337

> <r_i_glide_ligand_efficiency_ln>
-1.78609383672651

> <r_i_glide_gscore>
-7.73772377506273

> <r_i_glide_lipo>
-3.8785874109521

> <r_i_glide_hbond>
-0.0722450761940916

> <r_i_glide_metal>
0

> <r_i_glide_rewards>
-1.77537764325589

> <r_i_glide_evdw>
-44.7701835632324

> <r_i_glide_ecoul>
-2.01076769828796

> <r_i_glide_erotb>
0.528610688244176

> <r_i_glide_esite>
0

> <r_i_glide_emodel>
-60.9511067471296

> <r_i_glide_energy>
-46.7809512615204

> <r_i_glide_einternal>
6.18317842483521

> <i_i_glide_confnum>
1

> <i_i_glide_posenum>
167

> <r_i_glide_eff_state_penalty>
0

> <s_user_duplicate_titles>
355986

> <i_f3d_flags>
0

> <s_m_subgroup_title>
dock_pv

> <s_m_subgroupid>
dock_pv1

> <b_m_subgroup_collapsed>
0

$$$$
355925
                    3D
 Schrodinger Suite 2021-1.
 35 38  0  0  1  0            999 V2000
   -1.2796   10.3690   26.4239 C   0  0  0  0  0  0
    0.0607   10.0056   26.3029 C   0  0  0  0  0  0
    0.7888   10.5039   25.2135 C   0  0  0  0  0  0
    0.1809   11.4025   24.2998 C   0  0  0  0  0  0
   -1.1787   11.7222   24.4062 C   0  0  0  0  0  0
   -1.8975   11.1689   25.4674 C   0  0  0  0  0  0
   -1.9446   12.7721   23.2694 Cl  0  0  0  0  0  0
    1.3938   11.9373   23.1425 S   0  0  0  0  0  0
    2.4918   10.7676   23.8489 C   0  0  0  0  0  0
    2.0710   10.1684   24.9257 N   0  0  0  0  0  0
    4.0164   10.3690   23.0757 S   0  0  0  0  0  0
    5.0356   11.7226   23.5670 C   0  0  0  0  0  0
    4.5630   12.8692   23.9948 N   0  0  0  0  0  0
    5.6428   13.5691   24.3669 C   0  0  0  0  0  0
    5.7741   14.8159   25.0194 C   0  0  0  0  0  0
    7.0185   15.2588   25.3240 N   0  0  0  0  0  0
    8.0587   14.4924   24.9853 C   0  0  0  0  0  0
    8.0610   13.2993   24.3754 N   0  0  0  0  0  0
    6.8071   12.8766   24.0854 C   0  0  0  0  0  0
    6.3916   11.6773   23.5693 N   0  0  0  0  0  0
    7.2620   10.5126   23.2715 C   0  0  0  0  0  0
    7.5144   10.2970   21.7677 C   0  0  0  0  0  0
    6.4602    9.5695   21.1672 O   0  0  0  0  0  0
    4.6962   15.6042   25.4018 N   0  0  0  0  0  0
   -1.8650    9.9809   27.2455 H   0  0  0  0  0  0
    0.5215    9.3401   27.0176 H   0  0  0  0  0  0
   -2.9538   11.3823   25.5663 H   0  0  0  0  0  0
    9.0302   14.8852   25.2490 H   0  0  0  0  0  0
    8.2066   10.7093   23.7816 H   0  0  0  0  0  0
    6.8126    9.6456   23.7582 H   0  0  0  0  0  0
    7.6633   11.2465   21.2524 H   0  0  0  0  0  0
    8.4313    9.7228   21.6268 H   0  0  0  0  0  0
    6.6205    8.6231   21.2814 H   0  0  0  0  0  0
    3.7601   15.2975   25.1845 H   0  0  0  0  0  0
    4.8860   16.4792   25.8668 H   0  0  0  0  0  0
  1  6  1  0  0  0
  1  2  2  0  0  0
  1 25  1  0  0  0
  2  3  1  0  0  0
  2 26  1  0  0  0
  3 10  1  0  0  0
  3  4  2  0  0  0
  4  5  1  0  0  0
  4  8  1  0  0  0
  5  6  2  0  0  0
  5  7  1  0  0  0
  6 27  1  0  0  0
  8  9  1  0  0  0
  9 10  2  0  0  0
  9 11  1  0  0  0
 11 12  1  0  0  0
 12 20  1  0  0  0
 12 13  2  0  0  0
 13 14  1  0  0  0
 14 19  2  0  0  0
 14 15  1  0  0  0
 15 16  2  0  0  0
 15 24  1  0  0  0
 16 17  1  0  0  0
 17 18  2  0  0  0
 17 28  1  0  0  0
 18 19  1  0  0  0
 19 20  1  0  0  0
 20 21  1  0  0  0
 21 22  1  0  0  0
 21 29  1  0  0  0
 21 30  1  0  0  0
 22 23  1  0  0  0
 22 31  1  0  0  0
 22 32  1  0  0  0
 23 33  1  0  0  0
 24 34  1  0  0  0
 24 35  1  0  0  0
M  END
> <s_m_entry_id>
5301

> <s_m_entry_name>
ligand_docking-pose.46

> <s_m_Source_Path>
/home/csk/Desktop/cluster/DUD-E-result/hs90a

> <s_m_Source_File>
ligand_docking-pose.sdf

> <i_m_Source_File_Index>
46

> <i_lp_mmshare_version>
53161

> <r_lp_tautomer_probability>
0.999997216410988

> <s_lp_Force_Field>
OPLS_2005

> <r_lp_Energy>
6.259195

> <b_lp_Chiralities_Consistent>
1

> <s_lp_Variant>
355925-1

> <s_i_glide_gridfile>
glide-grid_1uyg

> <i_i_glide_lignum>
83

> <i_i_glide_rotatable_bonds>
5

> <r_i_docking_score>
-7.73448369207365

> <r_i_glide_ligand_efficiency>
-0.322270153836402

> <r_i_glide_ligand_efficiency_sa>
-0.929587980802146

> <r_i_glide_ligand_efficiency_ln>
-1.85121685984346

> <r_i_glide_gscore>
-7.73448369207365

> <r_i_glide_lipo>
-2.90014188901251

> <r_i_glide_hbond>
-0.298721258997146

> <r_i_glide_metal>
0

> <r_i_glide_rewards>
-2.21045287891994

> <r_i_glide_evdw>
-45.3959655761719

> <r_i_glide_ecoul>
-3.97030687332153

> <r_i_glide_erotb>
0.54017664466278

> <r_i_glide_esite>
0

> <r_i_glide_emodel>
-68.9140741934014

> <r_i_glide_energy>
-49.3662724494934

> <r_i_glide_einternal>
3.9820339679718

> <i_i_glide_confnum>
15

> <i_i_glide_posenum>
234

> <r_i_glide_eff_state_penalty>
0

> <s_user_duplicate_titles>
355925

> <i_f3d_flags>
0

> <s_m_subgroup_title>
dock_pv

> <s_m_subgroupid>
dock_pv1

> <b_m_subgroup_collapsed>
0

$$$$
332764
                    3D
 Schrodinger Suite 2021-1.
 45 48  0  0  1  0            999 V2000
    3.3334   14.4252   24.4719 C   0  0  0  0  0  0
    2.5637   13.3242   24.1316 C   0  0  0  0  0  0
    3.1729   12.1277   23.7711 C   0  0  0  0  0  0
    4.5901   11.9910   23.7725 C   0  0  0  0  0  0
    5.3632   13.1677   24.0427 C   0  0  0  0  0  0
    4.7163   14.3683   24.4115 C   0  0  0  0  0  0
    6.7667   13.1087   23.9673 C   0  0  0  0  0  0
    7.3909   11.9033   23.7060 C   0  0  0  0  0  0
    6.6690   10.7386   23.5138 C   0  0  0  0  0  0
    5.2625   10.7408   23.5194 C   0  0  0  0  0  0
    4.5038    9.4594   23.3334 C   0  0  0  0  0  0
    3.5729    9.0616   24.3088 C   0  0  0  0  0  0
    2.8291    7.8827   24.1732 C   0  0  0  0  0  0
    3.0745    7.0574   23.0751 C   0  0  0  0  0  0
    4.0219    7.4102   22.1177 C   0  0  0  0  0  0
    4.7108    8.6154   22.2250 C   0  0  0  0  0  0
    5.5962    8.9375   21.2285 O   0  0  0  0  0  0
    1.8284    7.4719   25.0710 N   0  0  0  0  0  0
    1.2398    8.3307   26.5191 S   0  0  0  0  0  0
    0.4861    7.3087   27.2519 O   0  0  0  0  0  0
    2.3708    9.0152   27.1544 O   0  0  0  0  0  0
    0.0610    9.5879   25.9793 C   0  0  0  0  0  0
    0.2280   10.1969   24.7296 C   0  0  0  0  0  0
   -0.6920   11.1352   24.2565 C   0  0  0  0  0  0
   -1.8302   11.4087   24.9999 C   0  0  0  0  0  0
   -2.0007   10.8276   26.2519 C   0  0  0  0  0  0
   -1.0371    9.9690   26.7724 C   0  0  0  0  0  0
   -1.2960    9.3626   28.3670 Cl  0  0  0  0  0  0
   -0.4440   11.9680   22.7617 Cl  0  0  0  0  0  0
    7.3941    9.5854   23.3438 O   0  0  0  0  0  0
    2.8611   15.3480   24.7581 H   0  0  0  0  0  0
    1.4882   13.4029   24.1570 H   0  0  0  0  0  0
    2.5516   11.2978   23.4887 H   0  0  0  0  0  0
    5.3040   15.2456   24.6400 H   0  0  0  0  0  0
    7.3534   13.9981   24.1504 H   0  0  0  0  0  0
    8.4610   11.8593   23.6847 H   0  0  0  0  0  0
    3.4227    9.7081   25.1573 H   0  0  0  0  0  0
    2.5188    6.1386   22.9460 H   0  0  0  0  0  0
    4.1818    6.7625   21.2681 H   0  0  0  0  0  0
    5.9149    8.1520   20.7670 H   0  0  0  0  0  0
    1.3091    6.6410   24.8293 H   0  0  0  0  0  0
    1.0598    9.9287   24.1036 H   0  0  0  0  0  0
   -2.5715   12.0934   24.6169 H   0  0  0  0  0  0
   -2.8806   11.0789   26.8296 H   0  0  0  0  0  0
    6.8381    8.8577   23.0570 H   0  0  0  0  0  0
  1  6  1  0  0  0
  1  2  2  0  0  0
  1 31  1  0  0  0
  2  3  1  0  0  0
  2 32  1  0  0  0
  3  4  2  0  0  0
  3 33  1  0  0  0
  4 10  1  0  0  0
  4  5  1  0  0  0
  5  6  2  0  0  0
  5  7  1  0  0  0
  6 34  1  0  0  0
  7  8  2  0  0  0
  7 35  1  0  0  0
  8  9  1  0  0  0
  8 36  1  0  0  0
  9 10  2  0  0  0
  9 30  1  0  0  0
 10 11  1  0  0  0
 11 16  1  0  0  0
 11 12  2  0  0  0
 12 13  1  0  0  0
 12 37  1  0  0  0
 13 14  2  0  0  0
 13 18  1  0  0  0
 14 15  1  0  0  0
 14 38  1  0  0  0
 15 16  2  0  0  0
 15 39  1  0  0  0
 16 17  1  0  0  0
 17 40  1  0  0  0
 18 19  1  0  0  0
 18 41  1  0  0  0
 19 20  2  0  0  0
 19 21  2  0  0  0
 19 22  1  0  0  0
 22 27  1  0  0  0
 22 23  2  0  0  0
 23 24  1  0  0  0
 23 42  1  0  0  0
 24 25  2  0  0  0
 24 29  1  0  0  0
 25 26  1  0  0  0
 25 43  1  0  0  0
 26 27  2  0  0  0
 26 44  1  0  0  0
 27 28  1  0  0  0
 30 45  1  0  0  0
M  END
> <s_m_entry_id>
5302

> <s_m_entry_name>
ligand_docking-pose.47

> <s_m_Source_Path>
/home/csk/Desktop/cluster/DUD-E-result/hs90a

> <s_m_Source_File>
ligand_docking-pose.sdf

> <i_m_Source_File_Index>
47

> <i_lp_mmshare_version>
53161

> <r_lp_tautomer_probability>
1

> <s_lp_Force_Field>
OPLS_2005

> <r_lp_Energy>
21.45139

> <b_lp_Chiralities_Consistent>
1

> <s_lp_Variant>
332764-1

> <s_i_glide_gridfile>
glide-grid_1uyg

> <i_i_glide_lignum>
98

> <i_i_glide_rotatable_bonds>
6

> <r_i_docking_score>
-7.73035238897394

> <r_i_glide_ligand_efficiency>
-0.257678412965798

> <r_i_glide_ligand_efficiency_sa>
-0.800666739942188

> <r_i_glide_ligand_efficiency_ln>
-1.75642029171037

> <r_i_glide_gscore>
-7.73035238897394

> <r_i_glide_lipo>
-4.46541654401315

> <r_i_glide_hbond>
0

> <r_i_glide_metal>
0

> <r_i_glide_rewards>
-0.685442705273403

> <r_i_glide_evdw>
-43.5584297180176

> <r_i_glide_ecoul>
-5.21006345748901

> <r_i_glide_erotb>
0.379937864836844

> <r_i_glide_esite>
0

> <r_i_glide_emodel>
-68.3640874934449

> <r_i_glide_energy>
-48.7684931755066

> <r_i_glide_einternal>
4.19016885757446

> <i_i_glide_confnum>
27

> <i_i_glide_posenum>
189

> <r_i_glide_eff_state_penalty>
0

> <s_user_duplicate_titles>
332764

> <i_f3d_flags>
0

> <s_m_subgroup_title>
dock_pv

> <s_m_subgroupid>
dock_pv1

> <b_m_subgroup_collapsed>
0

$$$$
518365
                    3D
 Schrodinger Suite 2021-1.
 32 34  0  0  1  0            999 V2000
    6.3668   11.9977   23.8005 C   0  0  0  0  0  0
    4.8522   11.8896   23.8103 C   0  0  0  0  0  0
    4.2402   10.7693   23.2472 C   0  0  0  0  0  0
    2.8518   10.6800   23.2199 C   0  0  0  0  0  0
    2.0747   11.6996   23.7751 C   0  0  0  0  0  0
    2.6879   12.8126   24.3506 C   0  0  0  0  0  0
    4.0760   12.9095   24.3671 C   0  0  0  0  0  0
    0.5927   11.6231   23.7154 C   0  0  0  0  0  0
   -0.3843   10.9911   24.5041 C   0  0  0  0  0  0
   -1.6041   11.1777   24.0320 N   0  0  0  0  0  0
   -1.7350   11.9686   22.9109 N   0  0  0  0  0  0
   -0.1949   12.4677   22.4132 S   0  0  0  0  0  0
   -0.1904   10.1781   25.7613 C   0  0  0  0  0  0
    0.9863    9.4294   25.9111 C   0  0  0  0  0  0
    1.2436    8.6933   27.0677 C   0  0  0  0  0  0
    0.3100    8.6908   28.1064 C   0  0  0  0  0  0
   -0.8746    9.4042   27.9670 C   0  0  0  0  0  0
   -1.1341   10.1316   26.8091 C   0  0  0  0  0  0
   -2.3436   10.7690   26.7479 O   0  0  0  0  0  0
    0.5416    8.0211   29.2786 O   0  0  0  0  0  0
    2.7278    7.8134   27.1918 Cl  0  0  0  0  0  0
    6.7168   12.9354   24.2340 H   0  0  0  0  0  0
    6.7420   11.9359   22.7784 H   0  0  0  0  0  0
    6.8073   11.1718   24.3604 H   0  0  0  0  0  0
    4.8365    9.9772   22.8174 H   0  0  0  0  0  0
    2.3827    9.8182   22.7673 H   0  0  0  0  0  0
    2.0909   13.6100   24.7670 H   0  0  0  0  0  0
    4.5435   13.7800   24.8037 H   0  0  0  0  0  0
    1.7239    9.4034   25.1281 H   0  0  0  0  0  0
   -1.6020    9.3972   28.7659 H   0  0  0  0  0  0
   -2.5647   11.1143   25.8770 H   0  0  0  0  0  0
   -0.0354    8.3273   29.9860 H   0  0  0  0  0  0
  1  2  1  0  0  0
  1 22  1  0  0  0
  1 23  1  0  0  0
  1 24  1  0  0  0
  2  7  1  0  0  0
  2  3  2  0  0  0
  3  4  1  0  0  0
  3 25  1  0  0  0
  4  5  2  0  0  0
  4 26  1  0  0  0
  5  6  1  0  0  0
  5  8  1  0  0  0
  6  7  2  0  0  0
  6 27  1  0  0  0
  7 28  1  0  0  0
  8 12  1  0  0  0
  8  9  2  0  0  0
  9 10  1  0  0  0
  9 13  1  0  0  0
 10 11  2  0  0  0
 11 12  1  0  0  0
 13 18  1  0  0  0
 13 14  2  0  0  0
 14 15  1  0  0  0
 14 29  1  0  0  0
 15 16  2  0  0  0
 15 21  1  0  0  0
 16 17  1  0  0  0
 16 20  1  0  0  0
 17 18  2  0  0  0
 17 30  1  0  0  0
 18 19  1  0  0  0
 19 31  1  0  0  0
 20 32  1  0  0  0
M  END
> <s_m_entry_id>
5309

> <s_m_entry_name>
ligand_docking-pose.54

> <s_m_Source_Path>
/home/csk/Desktop/cluster/DUD-E-result/hs90a

> <s_m_Source_File>
ligand_docking-pose.sdf

> <i_m_Source_File_Index>
54

> <i_lp_mmshare_version>
53161

> <r_lp_tautomer_probability>
0.999999999898

> <s_lp_Force_Field>
OPLS_2005

> <r_lp_Energy>
18.006718

> <b_lp_Chiralities_Consistent>
1

> <s_lp_Variant>
518365-1

> <s_i_glide_gridfile>
glide-grid_1uyg

> <i_i_glide_lignum>
13

> <i_i_glide_rotatable_bonds>
4

> <r_i_docking_score>
-7.49084454857542

> <r_i_glide_ligand_efficiency>
-0.356706883265496

> <r_i_glide_ligand_efficiency_sa>
-0.984127243124003

> <r_i_glide_ligand_efficiency_ln>
-1.85209617795862

> <r_i_glide_gscore>
-7.49084454857542

> <r_i_glide_lipo>
-3.82704860908732

> <r_i_glide_hbond>
-0.286892715631197

> <r_i_glide_metal>
0

> <r_i_glide_rewards>
-1.49393283333333

> <r_i_glide_evdw>
-38.1482315063477

> <r_i_glide_ecoul>
-2.28404116630554

> <r_i_glide_erotb>
0.367047359739641

> <r_i_glide_esite>
0

> <r_i_glide_emodel>
-57.2424410709509

> <r_i_glide_energy>
-40.4322726726532

> <r_i_glide_einternal>
2.08058643341064

> <i_i_glide_confnum>
2

> <i_i_glide_posenum>
366

> <r_i_glide_eff_state_penalty>
0

> <s_user_duplicate_titles>
518365

> <i_f3d_flags>
0

> <s_m_subgroup_title>
dock_pv

> <s_m_subgroupid>
dock_pv1

> <b_m_subgroup_collapsed>
0

$$$$
355667
                    3D
 Schrodinger Suite 2021-1.
 46 49  0  0  1  0            999 V2000
   10.8718   13.9607   27.9653 C   0  0  0  0  0  0
   10.2947   14.5171   26.6719 C   0  0  0  0  0  0
   11.0036   14.6905   25.6774 O   0  0  0  0  0  0
    8.9716   14.7731   26.7670 O   0  0  0  0  0  0
    8.2534   15.4227   25.7188 C   0  0  0  0  0  0
    8.0695   14.5738   24.4422 C   0  0  0  0  0  0
    7.2833   13.2718   24.6782 C   0  0  0  0  0  0
    7.3278   12.3047   23.4676 C   0  0  0  0  0  0
    6.4242   11.1385   23.5672 N   0  0  0  0  0  0
    6.8105    9.8268   23.5683 C   0  0  0  0  0  0
    5.6313    9.1044   23.5669 C   0  0  0  0  0  0
    5.7415    7.6951   23.5873 C   0  0  0  0  0  0
    6.9827    7.1390   23.6279 N   0  0  0  0  0  0
    8.0377    7.9632   23.6118 C   0  0  0  0  0  0
    8.0609    9.3038   23.5769 N   0  0  0  0  0  0
    4.6486    6.8389   23.5732 N   0  0  0  0  0  0
    4.5663    9.9207   23.5486 N   0  0  0  0  0  0
    5.0691   11.1347   23.5660 C   0  0  0  0  0  0
    4.1103   12.6246   23.5667 S   0  0  0  0  0  0
    2.4800   12.0527   23.8527 C   0  0  0  0  0  0
    2.1482   11.3210   24.8759 N   0  0  0  0  0  0
    0.8099   11.1292   24.9426 C   0  0  0  0  0  0
    0.1630   10.4576   25.9860 C   0  0  0  0  0  0
   -1.2246   10.3708   25.9523 C   0  0  0  0  0  0
   -1.9538   10.8930   24.8879 C   0  0  0  0  0  0
   -1.3324   11.5680   23.8369 C   0  0  0  0  0  0
    0.0631   11.6940   23.8783 C   0  0  0  0  0  0
    1.1761   12.4922   22.7734 S   0  0  0  0  0  0
   -2.2600   12.2236   22.5379 Cl  0  0  0  0  0  0
   10.2354   13.1690   28.3637 H   0  0  0  0  0  0
   10.9406   14.7557   28.7057 H   0  0  0  0  0  0
   11.8736   13.5692   27.7943 H   0  0  0  0  0  0
    7.2710   15.6893   26.1111 H   0  0  0  0  0  0
    8.7521   16.3653   25.4859 H   0  0  0  0  0  0
    7.5423   15.1705   23.6986 H   0  0  0  0  0  0
    9.0401   14.3696   24.0027 H   0  0  0  0  0  0
    7.6882   12.7693   25.5542 H   0  0  0  0  0  0
    6.2678   13.5629   24.9400 H   0  0  0  0  0  0
    7.0679   12.7691   22.5216 H   0  0  0  0  0  0
    8.3326   11.9008   23.3559 H   0  0  0  0  0  0
    9.0038    7.4820   23.6372 H   0  0  0  0  0  0
    3.7201    7.2233   23.4765 H   0  0  0  0  0  0
    4.8227    5.8486   23.5248 H   0  0  0  0  0  0
    0.7259   10.0423   26.8090 H   0  0  0  0  0  0
   -1.7483    9.8819   26.7614 H   0  0  0  0  0  0
   -3.0298   10.7773   24.8818 H   0  0  0  0  0  0
  1  2  1  0  0  0
  1 30  1  0  0  0
  1 31  1  0  0  0
  1 32  1  0  0  0
  2  3  2  0  0  0
  2  4  1  0  0  0
  4  5  1  0  0  0
  5  6  1  0  0  0
  5 33  1  0  0  0
  5 34  1  0  0  0
  6  7  1  0  0  0
  6 35  1  0  0  0
  6 36  1  0  0  0
  7  8  1  0  0  0
  7 37  1  0  0  0
  7 38  1  0  0  0
  8  9  1  0  0  0
  8 39  1  0  0  0
  8 40  1  0  0  0
  9 18  1  0  0  0
  9 10  1  0  0  0
 10 15  2  0  0  0
 10 11  1  0  0  0
 11 12  2  0  0  0
 11 17  1  0  0  0
 12 13  1  0  0  0
 12 16  1  0  0  0
 13 14  2  0  0  0
 14 15  1  0  0  0
 14 41  1  0  0  0
 16 42  1  0  0  0
 16 43  1  0  0  0
 17 18  2  0  0  0
 18 19  1  0  0  0
 19 20  1  0  0  0
 20 28  1  0  0  0
 20 21  2  0  0  0
 21 22  1  0  0  0
 22 27  2  0  0  0
 22 23  1  0  0  0
 23 24  2  0  0  0
 23 44  1  0  0  0
 24 25  1  0  0  0
 24 45  1  0  0  0
 25 26  2  0  0  0
 25 46  1  0  0  0
 26 27  1  0  0  0
 26 29  1  0  0  0
 27 28  1  0  0  0
M  END
> <s_m_entry_id>
5310

> <s_m_entry_name>
ligand_docking-pose.55

> <s_m_Source_Path>
/home/csk/Desktop/cluster/DUD-E-result/hs90a

> <s_m_Source_File>
ligand_docking-pose.sdf

> <i_m_Source_File_Index>
55

> <i_lp_mmshare_version>
53161

> <r_lp_tautomer_probability>
0.999997216410988

> <s_lp_Force_Field>
OPLS_2005

> <r_lp_Energy>
8.516704

> <b_lp_Chiralities_Consistent>
1

> <s_lp_Variant>
355667-1

> <s_i_glide_gridfile>
glide-grid_1uyg

> <i_i_glide_lignum>
47

> <i_i_glide_rotatable_bonds>
8

> <r_i_docking_score>
-7.41089690770071

> <r_i_glide_ligand_efficiency>
-0.255548169231059

> <r_i_glide_ligand_efficiency_sa>
-0.785124939220547

> <r_i_glide_ligand_efficiency_ln>
-1.69690746773242

> <r_i_glide_gscore>
-7.41089690770071

> <r_i_glide_lipo>
-3.02713727366675

> <r_i_glide_hbond>
0

> <r_i_glide_metal>
0

> <r_i_glide_rewards>
-2.28442382609534

> <r_i_glide_evdw>
-54.4203300476074

> <r_i_glide_ecoul>
-0.494627356529236

> <r_i_glide_erotb>
0.695874797921141

> <r_i_glide_esite>
0

> <r_i_glide_emodel>
-76.3327379506448

> <r_i_glide_energy>
-54.9149574041367

> <r_i_glide_einternal>
4.47082948684692

> <i_i_glide_confnum>
65

> <i_i_glide_posenum>
40

> <r_i_glide_eff_state_penalty>
0

> <s_user_duplicate_titles>
355667

> <i_f3d_flags>
0

> <s_m_subgroup_title>
dock_pv

> <s_m_subgroupid>
dock_pv1

> <b_m_subgroup_collapsed>
0

$$$$
332564
                    3D
 Schrodinger Suite 2021-1.
 42 45  0  0  1  0            999 V2000
   -1.4570   12.4408   22.4956 C   0  0  0  0  0  0
   -0.1475   12.6157   22.0718 C   0  0  0  0  0  0
    0.9077   12.0616   22.7897 C   0  0  0  0  0  0
    0.6734   11.2862   23.9674 C   0  0  0  0  0  0
   -0.6802   11.1187   24.3912 C   0  0  0  0  0  0
   -1.7238   11.7118   23.6470 C   0  0  0  0  0  0
   -0.9603   10.3513   25.5395 C   0  0  0  0  0  0
    0.0642    9.7051   26.2182 C   0  0  0  0  0  0
    1.3853    9.8409   25.8077 C   0  0  0  0  0  0
    1.7267   10.6577   24.7168 C   0  0  0  0  0  0
    3.1536   10.9306   24.3705 C   0  0  0  0  0  0
    3.5879   12.2562   24.4298 C   0  0  0  0  0  0
    4.8599   12.6174   24.0097 C   0  0  0  0  0  0
    5.7512   11.6402   23.5669 C   0  0  0  0  0  0
    5.3524   10.3027   23.5463 C   0  0  0  0  0  0
    4.0598    9.9452   23.9405 C   0  0  0  0  0  0
    3.6956    8.6268   23.8737 O   0  0  0  0  0  0
    5.1805   13.9689   23.9671 N   0  0  0  0  0  0
    5.4577   14.9883   25.3797 S   0  0  0  0  0  0
    4.7112   14.4408   26.5152 O   0  0  0  0  0  0
    5.2597   16.3691   24.9366 O   0  0  0  0  0  0
    7.2278   14.8208   25.6989 C   0  0  0  0  0  0
    7.8289   14.7690   26.9465 C   0  0  0  0  0  0
    9.2221   14.6689   26.8725 C   0  0  0  0  0  0
    9.6889   14.6655   25.5690 C   0  0  0  0  0  0
    8.3946   14.7691   24.4200 S   0  0  0  0  0  0
    2.3463    9.1690   26.5200 O   0  0  0  0  0  0
   -2.2732   12.8644   21.9268 H   0  0  0  0  0  0
    0.0484   13.1707   21.1679 H   0  0  0  0  0  0
    1.9111   12.1997   22.4177 H   0  0  0  0  0  0
   -2.7390   11.5715   23.9736 H   0  0  0  0  0  0
   -1.9852   10.2391   25.8638 H   0  0  0  0  0  0
   -0.1789    9.0930   27.0747 H   0  0  0  0  0  0
    2.9041   13.0267   24.7596 H   0  0  0  0  0  0
    6.7418   11.9146   23.2341 H   0  0  0  0  0  0
    6.0404    9.5411   23.2087 H   0  0  0  0  0  0
    2.8548    8.4694   24.3115 H   0  0  0  0  0  0
    5.2945   14.4045   23.0600 H   0  0  0  0  0  0
    7.2812   14.8127   27.8755 H   0  0  0  0  0  0
    9.8640   14.6158   27.7405 H   0  0  0  0  0  0
   10.7172   14.6139   25.2435 H   0  0  0  0  0  0
    1.9974    8.7316   27.2994 H   0  0  0  0  0  0
  1  6  1  0  0  0
  1  2  2  0  0  0
  1 28  1  0  0  0
  2  3  1  0  0  0
  2 29  1  0  0  0
  3  4  2  0  0  0
  3 30  1  0  0  0
  4 10  1  0  0  0
  4  5  1  0  0  0
  5  6  2  0  0  0
  5  7  1  0  0  0
  6 31  1  0  0  0
  7  8  2  0  0  0
  7 32  1  0  0  0
  8  9  1  0  0  0
  8 33  1  0  0  0
  9 10  2  0  0  0
  9 27  1  0  0  0
 10 11  1  0  0  0
 11 16  1  0  0  0
 11 12  2  0  0  0
 12 13  1  0  0  0
 12 34  1  0  0  0
 13 14  2  0  0  0
 13 18  1  0  0  0
 14 15  1  0  0  0
 14 35  1  0  0  0
 15 16  2  0  0  0
 15 36  1  0  0  0
 16 17  1  0  0  0
 17 37  1  0  0  0
 18 19  1  0  0  0
 18 38  1  0  0  0
 19 20  2  0  0  0
 19 21  2  0  0  0
 19 22  1  0  0  0
 22 26  1  0  0  0
 22 23  2  0  0  0
 23 24  1  0  0  0
 23 39  1  0  0  0
 24 25  2  0  0  0
 24 40  1  0  0  0
 25 26  1  0  0  0
 25 41  1  0  0  0
 27 42  1  0  0  0
M  END
> <s_m_entry_id>
5312

> <s_m_entry_name>
ligand_docking-pose.57

> <s_m_Source_Path>
/home/csk/Desktop/cluster/DUD-E-result/hs90a

> <s_m_Source_File>
ligand_docking-pose.sdf

> <i_m_Source_File_Index>
57

> <i_lp_mmshare_version>
53161

> <r_lp_tautomer_probability>
1

> <s_lp_Force_Field>
OPLS_2005

> <r_lp_Energy>
17.119391

> <b_lp_Chiralities_Consistent>
1

> <s_lp_Variant>
332564-1

> <s_i_glide_gridfile>
glide-grid_1uyg

> <i_i_glide_lignum>
92

> <i_i_glide_rotatable_bonds>
6

> <r_i_docking_score>
-7.40179491923987

> <r_i_glide_ligand_efficiency>
-0.27414055256444

> <r_i_glide_ligand_efficiency_sa>
-0.822421656789797

> <r_i_glide_ligand_efficiency_ln>
-1.72301582907278

> <r_i_glide_gscore>
-7.40179491923987

> <r_i_glide_lipo>
-4.34134143212246

> <r_i_glide_hbond>
0

> <r_i_glide_metal>
0

> <r_i_glide_rewards>
-1.18864310385477

> <r_i_glide_evdw>
-45.4241485595703

> <r_i_glide_ecoul>
-0.641541004180908

> <r_i_glide_erotb>
0.495628195343001

> <r_i_glide_esite>
0

> <r_i_glide_emodel>
-62.1738465103358

> <r_i_glide_energy>
-46.0656895637512

> <r_i_glide_einternal>
5.47028303146362

> <i_i_glide_confnum>
34

> <i_i_glide_posenum>
307

> <r_i_glide_eff_state_penalty>
0

> <s_user_duplicate_titles>
332564

> <i_f3d_flags>
0

> <s_m_subgroup_title>
dock_pv

> <s_m_subgroupid>
dock_pv1

> <b_m_subgroup_collapsed>
0

$$$$
355628
                    3D
 Schrodinger Suite 2021-1.
 43 46  0  0  1  0            999 V2000
    7.3869    6.7651   24.8517 C   0  0  0  0  0  0
    8.4627    7.3878   23.9504 C   0  0  0  0  0  0
    7.9413    8.4857   23.0033 C   0  0  0  0  0  0
    7.3830    9.7256   23.7206 C   0  0  0  0  0  0
    6.8935   10.8025   22.7400 C   0  0  0  0  0  0
    6.0156   11.7858   23.4062 N   0  0  0  0  0  0
    6.4122   12.9651   23.9669 C   0  0  0  0  0  0
    5.2360   13.5685   24.3768 C   0  0  0  0  0  0
    5.3586   14.8133   25.0359 C   0  0  0  0  0  0
    6.5943   15.3477   25.1993 N   0  0  0  0  0  0
    7.6429   14.6588   24.7358 C   0  0  0  0  0  0
    7.6608   13.4726   24.1093 N   0  0  0  0  0  0
    4.2840   15.5145   25.5665 N   0  0  0  0  0  0
    4.1698   12.7881   24.1317 N   0  0  0  0  0  0
    4.6705   11.7156   23.5663 C   0  0  0  0  0  0
    3.7109   10.3580   22.9546 S   0  0  0  0  0  0
    2.4070   10.2952   24.1266 C   0  0  0  0  0  0
    1.2634   10.8995   23.9682 N   0  0  0  0  0  0
    0.4094   10.6295   24.9879 C   0  0  0  0  0  0
   -0.8996   11.1215   25.0798 C   0  0  0  0  0  0
   -1.6648   10.7701   26.1917 C   0  0  0  0  0  0
   -1.1390    9.9694   27.2047 C   0  0  0  0  0  0
    0.1513    9.4489   27.1249 C   0  0  0  0  0  0
    0.9259    9.7837   26.0041 C   0  0  0  0  0  0
    2.5679    9.3253   25.5690 S   0  0  0  0  0  0
    0.7547    8.4365   28.3888 Cl  0  0  0  0  0  0
    7.8066    5.9686   25.4639 H   0  0  0  0  0  0
    6.9625    7.4950   25.5382 H   0  0  0  0  0  0
    6.5740    6.3384   24.2623 H   0  0  0  0  0  0
    8.9196    6.6011   23.3489 H   0  0  0  0  0  0
    9.2613    7.7849   24.5752 H   0  0  0  0  0  0
    7.1615    8.0659   22.3682 H   0  0  0  0  0  0
    8.7483    8.7857   22.3329 H   0  0  0  0  0  0
    8.1531   10.1476   24.3668 H   0  0  0  0  0  0
    6.5587    9.4244   24.3666 H   0  0  0  0  0  0
    6.3218   10.3790   21.9132 H   0  0  0  0  0  0
    7.7260   11.3646   22.3096 H   0  0  0  0  0  0
    8.6077   15.1238   24.8847 H   0  0  0  0  0  0
    3.3543   15.1329   25.4763 H   0  0  0  0  0  0
    4.4663   16.3913   26.0324 H   0  0  0  0  0  0
   -1.3133   11.7519   24.3052 H   0  0  0  0  0  0
   -2.6759   11.1555   26.2755 H   0  0  0  0  0  0
   -1.7516    9.7294   28.0629 H   0  0  0  0  0  0
  1  2  1  0  0  0
  1 27  1  0  0  0
  1 28  1  0  0  0
  1 29  1  0  0  0
  2  3  1  0  0  0
  2 30  1  0  0  0
  2 31  1  0  0  0
  3  4  1  0  0  0
  3 32  1  0  0  0
  3 33  1  0  0  0
  4  5  1  0  0  0
  4 34  1  0  0  0
  4 35  1  0  0  0
  5  6  1  0  0  0
  5 36  1  0  0  0
  5 37  1  0  0  0
  6 15  1  0  0  0
  6  7  1  0  0  0
  7 12  2  0  0  0
  7  8  1  0  0  0
  8  9  2  0  0  0
  8 14  1  0  0  0
  9 10  1  0  0  0
  9 13  1  0  0  0
 10 11  2  0  0  0
 11 12  1  0  0  0
 11 38  1  0  0  0
 13 39  1  0  0  0
 13 40  1  0  0  0
 14 15  2  0  0  0
 15 16  1  0  0  0
 16 17  1  0  0  0
 17 25  1  0  0  0
 17 18  2  0  0  0
 18 19  1  0  0  0
 19 24  2  0  0  0
 19 20  1  0  0  0
 20 21  2  0  0  0
 20 41  1  0  0  0
 21 22  1  0  0  0
 21 42  1  0  0  0
 22 23  2  0  0  0
 22 43  1  0  0  0
 23 24  1  0  0  0
 23 26  1  0  0  0
 24 25  1  0  0  0
M  END
> <s_m_entry_id>
5313

> <s_m_entry_name>
ligand_docking-pose.58

> <s_m_Source_Path>
/home/csk/Desktop/cluster/DUD-E-result/hs90a

> <s_m_Source_File>
ligand_docking-pose.sdf

> <i_m_Source_File_Index>
58

> <i_lp_mmshare_version>
53161

> <r_lp_tautomer_probability>
0.999997216410988

> <s_lp_Force_Field>
OPLS_2005

> <r_lp_Energy>
9.363994

> <b_lp_Chiralities_Consistent>
1

> <s_lp_Variant>
355628-1

> <s_i_glide_gridfile>
glide-grid_1uyg

> <i_i_glide_lignum>
99

> <i_i_glide_rotatable_bonds>
6

> <r_i_docking_score>
-7.40090441715279

> <r_i_glide_ligand_efficiency>
-0.284650169890492

> <r_i_glide_ligand_efficiency_sa>
-0.843275008256248

> <r_i_glide_ligand_efficiency_ln>
-1.73807811802022

> <r_i_glide_gscore>
-7.40090441715279

> <r_i_glide_lipo>
-3.72043442451805

> <r_i_glide_hbond>
0

> <r_i_glide_metal>
0

> <r_i_glide_rewards>
-1.95663051841364

> <r_i_glide_evdw>
-47.2859306335449

> <r_i_glide_ecoul>
0.275687277317047

> <r_i_glide_erotb>
0.599103965858589

> <r_i_glide_esite>
0

> <r_i_glide_emodel>
-65.6352243167854

> <r_i_glide_energy>
-47.0102433562279

> <r_i_glide_einternal>
3.31642723083496

> <i_i_glide_confnum>
38

> <i_i_glide_posenum>
314

> <r_i_glide_eff_state_penalty>
0

> <s_user_duplicate_titles>
355628

> <i_f3d_flags>
0

> <s_m_subgroup_title>
dock_pv

> <s_m_subgroupid>
dock_pv1

> <b_m_subgroup_collapsed>
0

$$$$
301179
                    3D
 Schrodinger Suite 2021-1.
 34 36  0  0  1  0            999 V2000
    3.1227   12.9911   23.7819 C   0  0  0  0  0  0
    2.3476   11.9863   22.9150 C   0  0  0  0  0  0
    0.9690   11.6694   23.4833 C   0  0  0  0  0  0
    0.8925   10.8855   24.6349 C   0  0  0  0  0  0
   -0.3408   10.5551   25.1973 C   0  0  0  0  0  0
   -1.5163   11.0517   24.6192 C   0  0  0  0  0  0
   -1.4530   11.8205   23.4585 C   0  0  0  0  0  0
   -0.2189   12.1069   22.8754 C   0  0  0  0  0  0
   -0.2083   12.7690   21.6781 O   0  0  0  0  0  0
   -2.7387   10.7690   25.1658 O   0  0  0  0  0  0
   -0.3388    9.6790   26.3988 C   0  0  0  0  0  0
    0.3020    8.4270   26.5625 C   0  0  0  0  0  0
    0.0442    8.0896   27.8796 C   0  0  0  0  0  0
   -0.7385    9.0956   28.3671 N   0  0  0  0  0  0
   -0.9783   10.0569   27.4848 N   0  0  0  0  0  0
    1.0593    7.6402   25.5942 C   0  0  0  0  0  0
    0.8105    7.5314   24.2299 C   0  0  0  0  0  0
    1.7369    6.6494   23.7520 N   0  0  0  0  0  0
    2.4833    6.2888   24.8409 C   0  0  0  0  0  0
    2.0810    6.8695   25.9480 N   0  0  0  0  0  0
   -1.0667    9.1631   29.3248 H   0  0  0  0  0  0
    1.8375    6.3212   22.7997 H   0  0  0  0  0  0
    4.1211   13.1620   23.3798 H   0  0  0  0  0  0
    3.2420   12.6330   24.8054 H   0  0  0  0  0  0
    2.6116   13.9538   23.8226 H   0  0  0  0  0  0
    2.2665   12.3688   21.8994 H   0  0  0  0  0  0
    2.9127   11.0561   22.8359 H   0  0  0  0  0  0
    1.8013   10.5190   25.0928 H   0  0  0  0  0  0
   -2.3683   12.1645   22.9975 H   0  0  0  0  0  0
   -1.1015   12.9626   21.3827 H   0  0  0  0  0  0
   -3.4690   11.2706   24.7670 H   0  0  0  0  0  0
    0.3301    7.2460   28.4899 H   0  0  0  0  0  0
    0.0616    7.9691   23.5866 H   0  0  0  0  0  0
    3.2941    5.5834   24.7351 H   0  0  0  0  0  0
  1  2  1  0  0  0
  1 23  1  0  0  0
  1 24  1  0  0  0
  1 25  1  0  0  0
  2  3  1  0  0  0
  2 26  1  0  0  0
  2 27  1  0  0  0
  3  8  1  0  0  0
  3  4  2  0  0  0
  4  5  1  0  0  0
  4 28  1  0  0  0
  5  6  2  0  0  0
  5 11  1  0  0  0
  6  7  1  0  0  0
  6 10  1  0  0  0
  7  8  2  0  0  0
  7 29  1  0  0  0
  8  9  1  0  0  0
  9 30  1  0  0  0
 10 31  1  0  0  0
 11 15  2  0  0  0
 11 12  1  0  0  0
 12 13  2  0  0  0
 12 16  1  0  0  0
 13 14  1  0  0  0
 13 32  1  0  0  0
 14 21  1  0  0  0
 14 15  1  0  0  0
 16 20  1  0  0  0
 16 17  2  0  0  0
 17 18  1  0  0  0
 17 33  1  0  0  0
 18 22  1  0  0  0
 18 19  1  0  0  0
 19 20  2  0  0  0
 19 34  1  0  0  0
M  END
> <s_m_entry_id>
5315

> <s_m_entry_name>
ligand_docking-pose.60

> <s_m_Source_Path>
/home/csk/Desktop/cluster/DUD-E-result/hs90a

> <s_m_Source_File>
ligand_docking-pose.sdf

> <i_m_Source_File_Index>
60

> <i_lp_mmshare_version>
53161

> <r_lp_tautomer_probability>
0.333333333310666

> <s_lp_Force_Field>
OPLS_2005

> <r_lp_Energy>
15.060708

> <b_lp_Chiralities_Consistent>
1

> <s_lp_Variant>
301179-1

> <s_i_glide_gridfile>
glide-grid_1uyg

> <i_i_glide_lignum>
77

> <i_i_glide_rotatable_bonds>
5

> <r_i_docking_score>
-7.27877452574375

> <r_i_glide_ligand_efficiency>
-0.363938726287188

> <r_i_glide_ligand_efficiency_sa>
-0.987881689008578

> <r_i_glide_ligand_efficiency_ln>
-1.82163719374263

> <r_i_glide_gscore>
-7.27877452574375

> <r_i_glide_lipo>
-2.61881813174539

> <r_i_glide_hbond>
-0.456

> <r_i_glide_metal>
0

> <r_i_glide_rewards>
-1.66183684560798

> <r_i_glide_evdw>
-33.4363975524902

> <r_i_glide_ecoul>
-9.06011581420898

> <r_i_glide_erotb>
0.489591286664499

> <r_i_glide_esite>
-0.000873585299020892

> <r_i_glide_emodel>
-60.5835337581226

> <r_i_glide_energy>
-42.4965133666992

> <r_i_glide_einternal>
2.16267466545105

> <i_i_glide_confnum>
8

> <i_i_glide_posenum>
239

> <r_i_glide_eff_state_penalty>
0

> <s_user_duplicate_titles>
301179

> <i_f3d_flags>
0

> <s_m_subgroup_title>
dock_pv

> <s_m_subgroupid>
dock_pv1

> <b_m_subgroup_collapsed>
0

$$$$
355727
                    3D
 Schrodinger Suite 2021-1.
 51 54  0  0  1  0            999 V2000
    3.5824    6.2501   29.5190 C   0  0  0  0  0  0
    2.2223    6.9600   29.3339 C   0  0  0  0  0  0
    1.0425    5.9692   29.3769 C   0  0  0  0  0  0
    2.0481    8.0254   30.4274 C   0  0  0  0  0  0
    2.1640    7.6993   28.0757 N   0  0  2  0  0  0
    2.5861    7.0322   26.8464 C   0  0  0  0  0  0
    2.1304    7.8680   25.6368 C   0  0  0  0  0  0
    2.6555    9.3250   25.6151 C   0  0  0  0  0  0
    1.8089   10.1924   24.7718 N   0  0  0  0  0  0
    0.5400   10.5804   25.0758 C   0  0  0  0  0  0
    0.1581   11.4046   24.0307 C   0  0  0  0  0  0
   -1.1625   11.9005   24.0653 C   0  0  0  0  0  0
   -1.9390   11.5678   25.1220 N   0  0  0  0  0  0
   -1.4381   10.7691   26.0677 C   0  0  0  0  0  0
   -0.2159   10.2351   26.1471 N   0  0  0  0  0  0
   -1.7320   12.6947   23.0784 N   0  0  0  0  0  0
    1.1550   11.5689   23.1461 N   0  0  0  0  0  0
    2.1121   10.7900   23.5977 C   0  0  0  0  0  0
    3.6724   10.6222   22.8125 S   0  0  0  0  0  0
    4.5468   11.9484   23.5753 C   0  0  0  0  0  0
    5.8466   12.0048   23.5664 N   0  0  0  0  0  0
    6.3061   13.1300   24.1667 C   0  0  0  0  0  0
    7.6611   13.4279   24.3340 C   0  0  0  0  0  0
    8.0013   14.6037   24.9951 C   0  0  0  0  0  0
    7.0122   15.4520   25.4817 C   0  0  0  0  0  0
    5.6569   15.1741   25.3514 C   0  0  0  0  0  0
    5.3105   13.9929   24.6914 C   0  0  0  0  0  0
    3.7403   13.2999   24.3670 S   0  0  0  0  0  0
    4.4711   16.2595   25.9880 Cl  0  0  0  0  0  0
    3.6637    5.7990   30.5083 H   0  0  0  0  0  0
    4.4121    6.9523   29.4186 H   0  0  0  0  0  0
    3.7384    5.4611   28.7829 H   0  0  0  0  0  0
    0.1042    6.4581   29.1085 H   0  0  0  0  0  0
    1.1772    5.1379   28.6850 H   0  0  0  0  0  0
    0.9096    5.5690   30.3798 H   0  0  0  0  0  0
    1.0999    8.5583   30.3369 H   0  0  0  0  0  0
    2.0894    7.5925   31.4276 H   0  0  0  0  0  0
    2.8424    8.7689   30.3671 H   0  0  0  0  0  0
    2.6319    8.5861   28.1891 H   0  0  0  0  0  0
    3.6724    6.9309   26.8425 H   0  0  0  0  0  0
    2.1520    6.0340   26.7800 H   0  0  0  0  0  0
    2.4380    7.3655   24.7189 H   0  0  0  0  0  0
    1.0394    7.8507   25.6173 H   0  0  0  0  0  0
    2.6359    9.8004   26.5964 H   0  0  0  0  0  0
    3.6811    9.3820   25.2523 H   0  0  0  0  0  0
   -2.1079   10.5328   26.8821 H   0  0  0  0  0  0
   -1.2329   12.8558   22.2182 H   0  0  0  0  0  0
   -2.7245   12.8733   23.1599 H   0  0  0  0  0  0
    8.4195   12.7527   23.9669 H   0  0  0  0  0  0
    9.0403   14.8649   25.1366 H   0  0  0  0  0  0
    7.2988   16.3629   25.9670 H   0  0  0  0  0  0
  1  2  1  0  0  0
  1 30  1  0  0  0
  1 31  1  0  0  0
  1 32  1  0  0  0
  2  3  1  0  0  0
  2  4  1  0  0  0
  2  5  1  0  0  0
  3 33  1  0  0  0
  3 34  1  0  0  0
  3 35  1  0  0  0
  4 36  1  0  0  0
  4 37  1  0  0  0
  4 38  1  0  0  0
  5  6  1  0  0  0
  5 39  1  0  0  0
  6  7  1  0  0  0
  6 40  1  0  0  0
  6 41  1  0  0  0
  7  8  1  0  0  0
  7 42  1  0  0  0
  7 43  1  0  0  0
  8  9  1  0  0  0
  8 44  1  0  0  0
  8 45  1  0  0  0
  9 18  1  0  0  0
  9 10  1  0  0  0
 10 15  2  0  0  0
 10 11  1  0  0  0
 11 12  2  0  0  0
 11 17  1  0  0  0
 12 13  1  0  0  0
 12 16  1  0  0  0
 13 14  2  0  0  0
 14 15  1  0  0  0
 14 46  1  0  0  0
 16 47  1  0  0  0
 16 48  1  0  0  0
 17 18  2  0  0  0
 18 19  1  0  0  0
 19 20  1  0  0  0
 20 28  1  0  0  0
 20 21  2  0  0  0
 21 22  1  0  0  0
 22 27  2  0  0  0
 22 23  1  0  0  0
 23 24  2  0  0  0
 23 49  1  0  0  0
 24 25  1  0  0  0
 24 50  1  0  0  0
 25 26  2  0  0  0
 25 51  1  0  0  0
 26 27  1  0  0  0
 26 29  1  0  0  0
 27 28  1  0  0  0
M  END
> <s_m_entry_id>
5316

> <s_m_entry_name>
ligand_docking-pose.61

> <s_m_Source_Path>
/home/csk/Desktop/cluster/DUD-E-result/hs90a

> <s_m_Source_File>
ligand_docking-pose.sdf

> <i_m_Source_File_Index>
61

> <i_lp_mmshare_version>
53161

> <r_lp_tautomer_probability>
0.999997216410988

> <s_lp_Force_Field>
OPLS_2005

> <r_lp_Energy>
11.78829

> <b_lp_Chiralities_Consistent>
1

> <s_lp_Variant>
355727-1

> <s_i_glide_gridfile>
glide-grid_1uyg

> <i_i_glide_lignum>
55

> <i_i_glide_rotatable_bonds>
7

> <r_i_docking_score>
-7.26314408987969

> <r_i_glide_ligand_efficiency>
-0.25045324447861

> <r_i_glide_ligand_efficiency_sa>
-0.769471716195564

> <r_i_glide_ligand_efficiency_ln>
-1.66307581913959

> <r_i_glide_gscore>
-7.26314408987969

> <r_i_glide_lipo>
-3.27586455015416

> <r_i_glide_hbond>
0

> <r_i_glide_metal>
0

> <r_i_glide_rewards>
-2.08881700657461

> <r_i_glide_evdw>
-44.1440734863281

> <r_i_glide_ecoul>
-1.93335890769958

> <r_i_glide_erotb>
0.598744977320427

> <r_i_glide_esite>
0

> <r_i_glide_emodel>
-61.1352000790258

> <r_i_glide_energy>
-46.0774323940277

> <r_i_glide_einternal>
7.42728471755981

> <i_i_glide_confnum>
51

> <i_i_glide_posenum>
267

> <r_i_glide_eff_state_penalty>
0

> <s_user_duplicate_titles>
355727

> <i_f3d_flags>
0

> <s_m_subgroup_title>
dock_pv

> <s_m_subgroupid>
dock_pv1

> <b_m_subgroup_collapsed>
0

$$$$
301178
                    3D
 Schrodinger Suite 2021-1.
 43 46  0  0  1  0            999 V2000
    6.6566   13.7348   24.3671 C   0  0  0  0  0  0
    6.9639   12.4168   23.6279 C   0  0  0  0  0  0
    5.8411   11.3702   23.5543 C   0  0  0  0  0  0
    4.4904   11.7272   23.6940 C   0  0  0  0  0  0
    3.4650   10.7788   23.5661 C   0  0  0  0  0  0
    3.8105    9.4424   23.3113 C   0  0  0  0  0  0
    5.1464    9.0766   23.1657 C   0  0  0  0  0  0
    6.1548   10.0306   23.2739 C   0  0  0  0  0  0
    7.4487    9.6240   23.0768 O   0  0  0  0  0  0
    2.8565    8.4705   23.1669 O   0  0  0  0  0  0
    2.0345   11.2317   23.6373 C   0  0  0  0  0  0
    0.9627   10.7127   24.4141 C   0  0  0  0  0  0
   -0.1531   11.4817   24.0404 C   0  0  0  0  0  0
    0.3423   12.3687   23.1224 N   0  0  0  0  0  0
    1.6436   12.2351   22.8796 N   0  0  0  0  0  0
   -1.5296   11.4680   24.4793 C   0  0  0  0  0  0
   -1.9258   10.8652   25.4728 O   0  0  0  0  0  0
   -2.3390   12.2166   23.6761 O   0  0  0  0  0  0
    1.0228    9.5907   25.4058 C   0  0  0  0  0  0
    0.0611    8.5606   25.3970 C   0  0  0  0  0  0
    0.0713    7.5420   26.3612 C   0  0  0  0  0  0
    1.0605    7.5937   27.3360 C   0  0  0  0  0  0
    2.0165    8.5689   27.3330 C   0  0  0  0  0  0
    2.0450    9.5689   26.3671 C   0  0  0  0  0  0
    2.8609    8.3689   28.3772 O   0  0  0  0  0  0
    2.2411    7.4008   29.1769 C   0  0  0  0  0  0
    1.2783    6.7545   28.3847 O   0  0  0  0  0  0
   -0.2202   13.0734   22.6666 H   0  0  0  0  0  0
    7.5179   14.4020   24.3239 H   0  0  0  0  0  0
    5.8174   14.2764   23.9329 H   0  0  0  0  0  0
    6.4373   13.5692   25.4195 H   0  0  0  0  0  0
    7.8352   11.9655   24.1052 H   0  0  0  0  0  0
    7.2719   12.6396   22.6065 H   0  0  0  0  0  0
    4.2184   12.7558   23.8768 H   0  0  0  0  0  0
    5.3999    8.0486   22.9502 H   0  0  0  0  0  0
    7.5050    8.6918   22.8534 H   0  0  0  0  0  0
    3.2197    7.6152   22.9281 H   0  0  0  0  0  0
   -3.2733   12.1749   23.9670 H   0  0  0  0  0  0
   -0.7181    8.5617   24.6502 H   0  0  0  0  0  0
   -0.6790    6.7654   26.3486 H   0  0  0  0  0  0
    2.8057   10.3354   26.3778 H   0  0  0  0  0  0
    2.9777    6.6990   29.5689 H   0  0  0  0  0  0
    1.7525    7.8964   30.0195 H   0  0  0  0  0  0
  1  2  1  0  0  0
  1 29  1  0  0  0
  1 30  1  0  0  0
  1 31  1  0  0  0
  2  3  1  0  0  0
  2 32  1  0  0  0
  2 33  1  0  0  0
  3  8  1  0  0  0
  3  4  2  0  0  0
  4  5  1  0  0  0
  4 34  1  0  0  0
  5  6  2  0  0  0
  5 11  1  0  0  0
  6  7  1  0  0  0
  6 10  1  0  0  0
  7  8  2  0  0  0
  7 35  1  0  0  0
  8  9  1  0  0  0
  9 36  1  0  0  0
 10 37  1  0  0  0
 11 15  2  0  0  0
 11 12  1  0  0  0
 12 13  2  0  0  0
 12 19  1  0  0  0
 13 14  1  0  0  0
 13 16  1  0  0  0
 14 28  1  0  0  0
 14 15  1  0  0  0
 16 17  2  0  0  0
 16 18  1  0  0  0
 18 38  1  0  0  0
 19 24  1  0  0  0
 19 20  2  0  0  0
 20 21  1  0  0  0
 20 39  1  0  0  0
 21 22  2  0  0  0
 21 40  1  0  0  0
 22 27  1  0  0  0
 22 23  1  0  0  0
 23 24  2  0  0  0
 23 25  1  0  0  0
 24 41  1  0  0  0
 25 26  1  0  0  0
 26 27  1  0  0  0
 26 42  1  0  0  0
 26 43  1  0  0  0
M  END
> <s_m_entry_id>
5317

> <s_m_entry_name>
ligand_docking-pose.62

> <s_m_Source_Path>
/home/csk/Desktop/cluster/DUD-E-result/hs90a

> <s_m_Source_File>
ligand_docking-pose.sdf

> <i_m_Source_File_Index>
62

> <i_lp_mmshare_version>
53161

> <r_lp_tautomer_probability>
0.999999999898

> <s_lp_Force_Field>
OPLS_2005

> <r_lp_Energy>
35.786846

> <b_lp_Chiralities_Consistent>
1

> <s_lp_Variant>
301178-1

> <s_i_glide_gridfile>
glide-grid_1uyg

> <i_i_glide_lignum>
97

> <i_i_glide_rotatable_bonds>
7

> <r_i_docking_score>
-7.23800384165972

> <r_i_glide_ligand_efficiency>
-0.268074216357767

> <r_i_glide_ligand_efficiency_sa>
-0.804222648189773

> <r_i_glide_ligand_efficiency_ln>
-1.68488796651908

> <r_i_glide_gscore>
-7.23800384165972

> <r_i_glide_lipo>
-3.13918947991674

> <r_i_glide_hbond>
0

> <r_i_glide_metal>
0

> <r_i_glide_rewards>
-1.29523397833262

> <r_i_glide_evdw>
-40.7232055664062

> <r_i_glide_ecoul>
-7.9187273979187

> <r_i_glide_erotb>
0.426066029306363

> <r_i_glide_esite>
-0.00567702470860163

> <r_i_glide_emodel>
-66.9971517145082

> <r_i_glide_energy>
-48.641932964325

> <r_i_glide_einternal>
7.1092004776001

> <i_i_glide_confnum>
30

> <i_i_glide_posenum>
301

> <r_i_glide_eff_state_penalty>
0

> <s_user_duplicate_titles>
301178

> <i_f3d_flags>
0

> <s_m_subgroup_title>
dock_pv

> <s_m_subgroupid>
dock_pv1

> <b_m_subgroup_collapsed>
0

$$$$
355891
                    3D
 Schrodinger Suite 2021-1.
 44 47  0  0  1  0            999 V2000
    7.7292    8.1546   22.9393 C   0  0  0  0  0  0
    7.8101    9.3027   23.9477 C   0  0  0  0  0  0
    8.3125   10.6260   23.3504 C   0  0  0  0  0  0
    7.2600   11.3731   22.5106 C   0  0  0  0  0  0
    6.2836   12.1010   23.3434 N   0  0  0  0  0  0
    6.5156   13.2936   23.9728 C   0  0  0  0  0  0
    5.2970   13.6422   24.5274 C   0  0  0  0  0  0
    5.2465   14.8375   25.2775 C   0  0  0  0  0  0
    6.3816   15.5668   25.4065 N   0  0  0  0  0  0
    7.4890   15.1161   24.8056 C   0  0  0  0  0  0
    7.6607   14.0128   24.0636 N   0  0  0  0  0  0
    4.1088   15.2809   25.9366 N   0  0  0  0  0  0
    4.3676   12.7098   24.2838 N   0  0  0  0  0  0
    4.9959   11.7751   23.6031 C   0  0  0  0  0  0
    4.2533   10.2464   23.1162 S   0  0  0  0  0  0
    2.6808   10.4025   23.8719 C   0  0  0  0  0  0
    1.7285   11.1667   23.4098 N   0  0  0  0  0  0
    0.6239   11.1061   24.1951 C   0  0  0  0  0  0
   -0.5825   11.7608   23.9188 C   0  0  0  0  0  0
   -1.6551   11.5558   24.7840 C   0  0  0  0  0  0
   -1.5281   10.7705   25.9286 C   0  0  0  0  0  0
   -0.3204   10.1315   26.2392 C   0  0  0  0  0  0
    0.7428   10.2808   25.3431 C   0  0  0  0  0  0
    2.3468    9.5648   25.3672 S   0  0  0  0  0  0
   -0.0581    9.3536   27.3466 O   0  0  0  0  0  0
   -1.0469    9.2545   28.3571 C   0  0  0  0  0  0
    7.4249    7.2269   23.4272 H   0  0  0  0  0  0
    6.9982    8.3694   22.1614 H   0  0  0  0  0  0
    8.6918    7.9692   22.4602 H   0  0  0  0  0  0
    8.4610    9.0027   24.7674 H   0  0  0  0  0  0
    6.8185    9.4546   24.3667 H   0  0  0  0  0  0
    9.1806   10.4231   22.7233 H   0  0  0  0  0  0
    8.6871   11.2767   24.1423 H   0  0  0  0  0  0
    6.7000   10.7072   21.8558 H   0  0  0  0  0  0
    7.7073   12.1399   21.8818 H   0  0  0  0  0  0
    8.3690   15.7254   24.9466 H   0  0  0  0  0  0
    3.2793   14.7074   25.9151 H   0  0  0  0  0  0
    4.1793   16.1036   26.5136 H   0  0  0  0  0  0
   -0.6916   12.3817   23.0421 H   0  0  0  0  0  0
   -2.6060   12.0203   24.5674 H   0  0  0  0  0  0
   -2.3932   10.6603   26.5634 H   0  0  0  0  0  0
   -0.6513    8.6453   29.1666 H   0  0  0  0  0  0
   -1.3182   10.2276   28.7648 H   0  0  0  0  0  0
   -1.9386    8.7619   27.9771 H   0  0  0  0  0  0
  1  2  1  0  0  0
  1 27  1  0  0  0
  1 28  1  0  0  0
  1 29  1  0  0  0
  2  3  1  0  0  0
  2 30  1  0  0  0
  2 31  1  0  0  0
  3  4  1  0  0  0
  3 32  1  0  0  0
  3 33  1  0  0  0
  4  5  1  0  0  0
  4 34  1  0  0  0
  4 35  1  0  0  0
  5 14  1  0  0  0
  5  6  1  0  0  0
  6 11  2  0  0  0
  6  7  1  0  0  0
  7  8  2  0  0  0
  7 13  1  0  0  0
  8  9  1  0  0  0
  8 12  1  0  0  0
  9 10  2  0  0  0
 10 11  1  0  0  0
 10 36  1  0  0  0
 12 37  1  0  0  0
 12 38  1  0  0  0
 13 14  2  0  0  0
 14 15  1  0  0  0
 15 16  1  0  0  0
 16 24  1  0  0  0
 16 17  2  0  0  0
 17 18  1  0  0  0
 18 23  2  0  0  0
 18 19  1  0  0  0
 19 20  2  0  0  0
 19 39  1  0  0  0
 20 21  1  0  0  0
 20 40  1  0  0  0
 21 22  2  0  0  0
 21 41  1  0  0  0
 22 23  1  0  0  0
 22 25  1  0  0  0
 23 24  1  0  0  0
 25 26  1  0  0  0
 26 42  1  0  0  0
 26 43  1  0  0  0
 26 44  1  0  0  0
M  END
> <s_m_entry_id>
5318

> <s_m_entry_name>
ligand_docking-pose.63

> <s_m_Source_Path>
/home/csk/Desktop/cluster/DUD-E-result/hs90a

> <s_m_Source_File>
ligand_docking-pose.sdf

> <i_m_Source_File_Index>
63

> <i_lp_mmshare_version>
53161

> <r_lp_tautomer_probability>
0.999997216410988

> <s_lp_Force_Field>
OPLS_2005

> <r_lp_Energy>
13.424039

> <b_lp_Chiralities_Consistent>
1

> <s_lp_Variant>
355891-1

> <s_i_glide_gridfile>
glide-grid_1uyg

> <i_i_glide_lignum>
65

> <i_i_glide_rotatable_bonds>
6

> <r_i_docking_score>
-7.22947760936847

> <r_i_glide_ligand_efficiency>
-0.278056831129556

> <r_i_glide_ligand_efficiency_sa>
-0.823742268120513

> <r_i_glide_ligand_efficiency_ln>
-1.69781909470931

> <r_i_glide_gscore>
-7.22947760936847

> <r_i_glide_lipo>
-3.09256168033528

> <r_i_glide_hbond>
0

> <r_i_glide_metal>
0

> <r_i_glide_rewards>
-2.24965243889635

> <r_i_glide_evdw>
-46.7977294921875

> <r_i_glide_ecoul>
-0.457152456045151

> <r_i_glide_erotb>
0.521195852879317

> <r_i_glide_esite>
0

> <r_i_glide_emodel>
-65.4849766604181

> <r_i_glide_energy>
-47.2548819482327

> <r_i_glide_einternal>
3.47615265846252

> <i_i_glide_confnum>
8

> <i_i_glide_posenum>
63

> <r_i_glide_eff_state_penalty>
0

> <s_user_duplicate_titles>
355891

> <i_f3d_flags>
0

> <s_m_subgroup_title>
dock_pv

> <s_m_subgroupid>
dock_pv1

> <b_m_subgroup_collapsed>
0

$$$$
355956
                    3D
 Schrodinger Suite 2021-1.
 47 51  0  0  1  0            999 V2000
   -1.8277   11.9904   23.9656 C   0  0  0  0  0  0
   -0.6651   12.2245   23.2362 C   0  0  0  0  0  0
    0.5047   11.5694   23.6362 C   0  0  0  0  0  0
    0.4973   10.7154   24.7732 C   0  0  0  0  0  0
   -0.6708   10.5341   25.5281 C   0  0  0  0  0  0
   -1.8329   11.1688   25.0899 C   0  0  0  0  0  0
   -0.6958    9.5706   26.9605 Cl  0  0  0  0  0  0
    2.1090   10.0337   24.9639 S   0  0  0  0  0  0
    2.5950   10.9173   23.5370 C   0  0  0  0  0  0
    1.6893   11.6697   22.9859 N   0  0  0  0  0  0
    4.2109   10.7477   22.8929 S   0  0  0  0  0  0
    5.0473   12.1042   23.6596 C   0  0  0  0  0  0
    4.4606   13.0461   24.3663 N   0  0  0  0  0  0
    5.4584   13.8485   24.7666 C   0  0  0  0  0  0
    5.4658   14.9984   25.5815 C   0  0  0  0  0  0
    6.6567   15.5690   25.8745 N   0  0  0  0  0  0
    7.7648   15.0347   25.3483 C   0  0  0  0  0  0
    7.8910   13.9670   24.5475 N   0  0  0  0  0  0
    6.6830   13.3968   24.3035 C   0  0  0  0  0  0
    6.3876   12.2809   23.5668 N   0  0  0  0  0  0
    7.3471   11.5080   22.7500 C   0  0  0  0  0  0
    8.0801   10.3721   23.4894 C   0  0  0  0  0  0
    7.2639    9.2060   23.8567 N   0  0  0  0  0  0
    8.0623    8.2825   24.6782 C   0  0  0  0  0  0
    7.3049    6.9870   25.0591 C   0  0  0  0  0  0
    6.8304    6.3425   23.8848 O   0  0  0  0  0  0
    5.9902    7.1924   23.1112 C   0  0  0  0  0  0
    6.7700    8.4632   22.6891 C   0  0  0  0  0  0
    4.3240   15.5674   26.1290 N   0  0  0  0  0  0
   -2.7388   12.4778   23.6566 H   0  0  0  0  0  0
   -0.6706   12.8704   22.3713 H   0  0  0  0  0  0
   -2.7608   11.0326   25.6300 H   0  0  0  0  0  0
    8.6827   15.5421   25.6081 H   0  0  0  0  0  0
    8.0608   12.2447   22.3924 H   0  0  0  0  0  0
    6.8263   11.1604   21.8682 H   0  0  0  0  0  0
    8.5868   10.7890   24.3600 H   0  0  0  0  0  0
    8.8615   10.0240   22.8189 H   0  0  0  0  0  0
    8.3846    8.8032   25.5668 H   0  0  0  0  0  0
    8.9810    8.0072   24.1566 H   0  0  0  0  0  0
    7.9859    6.3102   25.5742 H   0  0  0  0  0  0
    6.4797    7.1686   25.7478 H   0  0  0  0  0  0
    5.6605    6.6410   22.2325 H   0  0  0  0  0  0
    5.0902    7.4556   23.6723 H   0  0  0  0  0  0
    7.6378    8.2019   22.0837 H   0  0  0  0  0  0
    6.1457    9.0769   22.0441 H   0  0  0  0  0  0
    3.4280   15.1481   25.9382 H   0  0  0  0  0  0
    4.4266   16.3804   26.7168 H   0  0  0  0  0  0
  1  6  1  0  0  0
  1  2  2  0  0  0
  1 30  1  0  0  0
  2  3  1  0  0  0
  2 31  1  0  0  0
  3 10  1  0  0  0
  3  4  2  0  0  0
  4  5  1  0  0  0
  4  8  1  0  0  0
  5  6  2  0  0  0
  5  7  1  0  0  0
  6 32  1  0  0  0
  8  9  1  0  0  0
  9 10  2  0  0  0
  9 11  1  0  0  0
 11 12  1  0  0  0
 12 20  1  0  0  0
 12 13  2  0  0  0
 13 14  1  0  0  0
 14 19  2  0  0  0
 14 15  1  0  0  0
 15 16  2  0  0  0
 15 29  1  0  0  0
 16 17  1  0  0  0
 17 18  2  0  0  0
 17 33  1  0  0  0
 18 19  1  0  0  0
 19 20  1  0  0  0
 20 21  1  0  0  0
 21 22  1  0  0  0
 21 34  1  0  0  0
 21 35  1  0  0  0
 22 23  1  0  0  0
 22 36  1  0  0  0
 22 37  1  0  0  0
 23 28  1  0  0  0
 23 24  1  0  0  0
 24 25  1  0  0  0
 24 38  1  0  0  0
 24 39  1  0  0  0
 25 26  1  0  0  0
 25 40  1  0  0  0
 25 41  1  0  0  0
 26 27  1  0  0  0
 27 28  1  0  0  0
 27 42  1  0  0  0
 27 43  1  0  0  0
 28 44  1  0  0  0
 28 45  1  0  0  0
 29 46  1  0  0  0
 29 47  1  0  0  0
M  END
> <s_m_entry_id>
5321

> <s_m_entry_name>
ligand_docking-pose.66

> <s_m_Source_Path>
/home/csk/Desktop/cluster/DUD-E-result/hs90a

> <s_m_Source_File>
ligand_docking-pose.sdf

> <i_m_Source_File_Index>
66

> <i_lp_mmshare_version>
53161

> <r_lp_tautomer_probability>
0.999997216410988

> <s_lp_Force_Field>
OPLS_2005

> <r_lp_Energy>
23.007028

> <b_lp_Chiralities_Consistent>
1

> <s_lp_Variant>
355956-1

> <s_i_glide_gridfile>
glide-grid_1uyg

> <i_i_glide_lignum>
51

> <i_i_glide_rotatable_bonds>
5

> <r_i_docking_score>
-7.08307753117081

> <r_i_glide_ligand_efficiency>
-0.244244052798993

> <r_i_glide_ligand_efficiency_sa>
-0.750395112145782

> <r_i_glide_ligand_efficiency_ln>
-1.62184514328922

> <r_i_glide_gscore>
-7.08307753117081

> <r_i_glide_lipo>
-3.43836640636678

> <r_i_glide_hbond>
0

> <r_i_glide_metal>
0

> <r_i_glide_rewards>
-1.68009610394413

> <r_i_glide_evdw>
-45.5458869934082

> <r_i_glide_ecoul>
-1.24241328239441

> <r_i_glide_erotb>
0.499041321169669

> <r_i_glide_esite>
0

> <r_i_glide_emodel>
-65.3254716743456

> <r_i_glide_energy>
-46.7883002758026

> <r_i_glide_einternal>
2.66087913513184

> <i_i_glide_confnum>
134

> <i_i_glide_posenum>
335

> <r_i_glide_eff_state_penalty>
0

> <s_user_duplicate_titles>
355956

> <i_f3d_flags>
0

> <s_m_subgroup_title>
dock_pv

> <s_m_subgroupid>
dock_pv1

> <b_m_subgroup_collapsed>
0

$$$$
316696
                    3D
 Schrodinger Suite 2021-1.
 38 40  0  0  1  0            999 V2000
    4.2408    5.9678   25.7482 C   0  0  0  0  0  0
    4.1633    6.6641   24.5103 O   0  0  0  0  0  0
    3.6258    7.9353   24.4921 C   0  0  0  0  0  0
    3.6130    8.5872   23.2599 C   0  0  0  0  0  0
    3.1135    9.8825   23.1573 C   0  0  0  0  0  0
    2.6385   10.5456   24.2878 C   0  0  0  0  0  0
    2.6140    9.8863   25.5138 C   0  0  0  0  0  0
    3.1032    8.5866   25.6187 C   0  0  0  0  0  0
    2.1209   11.9395   24.1682 C   0  0  0  0  0  0
    2.8567   13.1632   24.1880 C   0  0  0  0  0  0
    2.0591   14.1874   23.9692 N   0  0  0  0  0  0
    0.8410   13.6756   23.8653 N   0  0  0  0  0  0
    0.7816   12.3205   24.0180 C   0  0  0  0  0  0
   -0.4604   11.5890   23.9666 C   0  0  0  0  0  0
   -1.5156   12.0948   23.5989 O   0  0  0  0  0  0
   -0.3448   10.2939   24.3671 O   0  0  0  0  0  0
    4.3306   13.4145   24.3830 C   0  0  0  0  0  0
    5.2348   12.4922   23.8476 C   0  0  0  0  0  0
    6.6100   12.6643   23.9668 C   0  0  0  0  0  0
    7.1135   13.7854   24.6292 C   0  0  0  0  0  0
    6.2390   14.7223   25.1673 C   0  0  0  0  0  0
    4.8595   14.5387   25.0590 C   0  0  0  0  0  0
    4.0615   15.4819   25.6487 O   0  0  0  0  0  0
    8.4620   13.9540   24.7670 O   0  0  0  0  0  0
    7.6610   11.4724   23.2844 Cl  0  0  0  0  0  0
    0.0316   14.2567   23.6965 H   0  0  0  0  0  0
    4.7357    5.0096   25.5871 H   0  0  0  0  0  0
    3.2508    5.7660   26.1550 H   0  0  0  0  0  0
    4.8269    6.5159   26.4863 H   0  0  0  0  0  0
    3.9941    8.0870   22.3816 H   0  0  0  0  0  0
    3.1064   10.3728   22.1941 H   0  0  0  0  0  0
    2.2087   10.3698   26.3844 H   0  0  0  0  0  0
    3.0724    8.1064   26.5842 H   0  0  0  0  0  0
   -1.1882    9.8380   24.2848 H   0  0  0  0  0  0
    4.8888   11.6375   23.2971 H   0  0  0  0  0  0
    6.6379   15.5846   25.6811 H   0  0  0  0  0  0
    4.5760   16.1765   26.0646 H   0  0  0  0  0  0
    8.9002   13.1567   24.4561 H   0  0  0  0  0  0
  1  2  1  0  0  0
  1 27  1  0  0  0
  1 28  1  0  0  0
  1 29  1  0  0  0
  2  3  1  0  0  0
  3  8  1  0  0  0
  3  4  2  0  0  0
  4  5  1  0  0  0
  4 30  1  0  0  0
  5  6  2  0  0  0
  5 31  1  0  0  0
  6  7  1  0  0  0
  6  9  1  0  0  0
  7  8  2  0  0  0
  7 32  1  0  0  0
  8 33  1  0  0  0
  9 13  2  0  0  0
  9 10  1  0  0  0
 10 11  2  0  0  0
 10 17  1  0  0  0
 11 12  1  0  0  0
 12 26  1  0  0  0
 12 13  1  0  0  0
 13 14  1  0  0  0
 14 15  2  0  0  0
 14 16  1  0  0  0
 16 34  1  0  0  0
 17 22  1  0  0  0
 17 18  2  0  0  0
 18 19  1  0  0  0
 18 35  1  0  0  0
 19 20  2  0  0  0
 19 25  1  0  0  0
 20 21  1  0  0  0
 20 24  1  0  0  0
 21 22  2  0  0  0
 21 36  1  0  0  0
 22 23  1  0  0  0
 23 37  1  0  0  0
 24 38  1  0  0  0
M  END
> <s_m_entry_id>
5325

> <s_m_entry_name>
ligand_docking-pose.70

> <s_m_Source_Path>
/home/csk/Desktop/cluster/DUD-E-result/hs90a

> <s_m_Source_File>
ligand_docking-pose.sdf

> <i_m_Source_File_Index>
70

> <i_lp_mmshare_version>
53161

> <r_lp_tautomer_probability>
0.999999999898

> <s_lp_Force_Field>
OPLS_2005

> <r_lp_Energy>
25.997991

> <b_lp_Chiralities_Consistent>
1

> <s_lp_Variant>
316696-1

> <s_i_glide_gridfile>
glide-grid_1uyg

> <i_i_glide_lignum>
90

> <i_i_glide_rotatable_bonds>
7

> <r_i_docking_score>
-6.81363677165044

> <r_i_glide_ligand_efficiency>
-0.272545470866018

> <r_i_glide_ligand_efficiency_sa>
-0.796927790426743

> <r_i_glide_ligand_efficiency_ln>
-1.61503610309822

> <r_i_glide_gscore>
-6.81363677165044

> <r_i_glide_lipo>
-3.4101602513138

> <r_i_glide_hbond>
-0.15899385519348

> <r_i_glide_metal>
0

> <r_i_glide_rewards>
-1.69696794309073

> <r_i_glide_evdw>
-39.4924163818359

> <r_i_glide_ecoul>
-0.100631028413773

> <r_i_glide_erotb>
0.44220075130144

> <r_i_glide_esite>
0

> <r_i_glide_emodel>
-50.1940795150247

> <r_i_glide_energy>
-39.5930474102497

> <r_i_glide_einternal>
8.41000175476074

> <i_i_glide_confnum>
16

> <i_i_glide_posenum>
38

> <r_i_glide_eff_state_penalty>
0

> <s_user_duplicate_titles>
316696

> <i_f3d_flags>
0

> <s_m_subgroup_title>
dock_pv

> <s_m_subgroupid>
dock_pv1

> <b_m_subgroup_collapsed>
0

$$$$
320879
                    3D
 Schrodinger Suite 2021-1.
 49 51  0  0  1  0            999 V2000
    1.3730   14.2448   24.1337 C   0  0  0  0  0  0
    2.7696   14.4137   24.3675 O   0  0  0  0  0  0
    3.6199   13.3296   24.2449 C   0  0  0  0  0  0
    3.1514   12.0320   24.0242 C   0  0  0  0  0  0
    4.0099   10.9469   23.8601 C   0  0  0  0  0  0
    5.3901   11.1934   23.7870 C   0  0  0  0  0  0
    5.8860   12.4974   23.9670 C   0  0  0  0  0  0
    5.0055   13.5510   24.2874 C   0  0  0  0  0  0
    5.5202   14.8063   24.5273 O   0  0  0  0  0  0
    5.2348   15.3742   25.8029 C   0  0  0  0  0  0
    7.2390   12.7083   23.7930 O   0  0  0  0  0  0
    7.9757   13.2033   24.9025 C   0  0  0  0  0  0
    6.5087    9.9038   23.4772 Cl  0  0  0  0  0  0
    3.3418    9.2869   23.7086 S   0  0  0  0  0  0
    1.9067    9.3736   24.7579 C   0  0  0  0  0  0
    0.7936    9.9415   24.3671 N   0  0  0  0  0  0
    0.0105    9.9739   25.4502 C   0  0  0  0  0  0
   -1.2524   10.5650   25.6701 C   0  0  0  0  0  0
   -1.8109   10.4548   26.9032 N   0  0  0  0  0  0
   -1.1391    9.7654   27.8337 C   0  0  0  0  0  0
    0.0587    9.1683   27.7430 N   0  0  0  0  0  0
    0.6012    9.3160   26.5093 C   0  0  0  0  0  0
    1.8173    8.9040   26.0279 N   0  0  0  0  0  0
    2.8500    8.1661   26.7814 C   0  0  0  0  0  0
    2.5888    6.6403   26.8266 C   0  0  0  0  0  0
    1.5010    6.1527   27.8132 C   0  0  0  0  0  0
    1.7454    6.4983   29.2281 C   0  0  0  0  0  0
    1.9827    6.8399   30.3773 C   0  0  0  0  0  0
   -1.9393   11.2669   24.6855 N   0  0  0  0  0  0
    0.8578   15.1698   24.3669 H   0  0  0  0  0  0
    1.1757   14.0005   23.0894 H   0  0  0  0  0  0
    0.9240   13.4800   24.7670 H   0  0  0  0  0  0
    2.0955   11.8744   23.9631 H   0  0  0  0  0  0
    5.7865   16.3094   25.9068 H   0  0  0  0  0  0
    4.1785   15.6095   25.9410 H   0  0  0  0  0  0
    5.5521   14.7136   26.6123 H   0  0  0  0  0  0
    9.0244   12.9462   24.7682 H   0  0  0  0  0  0
    7.9161   14.2890   24.9700 H   0  0  0  0  0  0
    7.6610   12.7724   25.8495 H   0  0  0  0  0  0
   -1.6295    9.6791   28.7905 H   0  0  0  0  0  0
    3.7983    8.3686   26.2894 H   0  0  0  0  0  0
    2.8777    8.6228   27.7725 H   0  0  0  0  0  0
    2.3544    6.2835   25.8221 H   0  0  0  0  0  0
    3.5262    6.1486   27.0912 H   0  0  0  0  0  0
    0.5235    6.5459   27.5349 H   0  0  0  0  0  0
    1.4166    5.0675   27.7589 H   0  0  0  0  0  0
    2.2220    7.1803   31.3619 H   0  0  0  0  0  0
   -1.5901   11.2363   23.7401 H   0  0  0  0  0  0
   -2.8968   11.5595   24.8654 H   0  0  0  0  0  0
  1  2  1  0  0  0
  1 30  1  0  0  0
  1 31  1  0  0  0
  1 32  1  0  0  0
  2  3  1  0  0  0
  3  8  1  0  0  0
  3  4  2  0  0  0
  4  5  1  0  0  0
  4 33  1  0  0  0
  5  6  2  0  0  0
  5 14  1  0  0  0
  6  7  1  0  0  0
  6 13  1  0  0  0
  7  8  2  0  0  0
  7 11  1  0  0  0
  8  9  1  0  0  0
  9 10  1  0  0  0
 10 34  1  0  0  0
 10 35  1  0  0  0
 10 36  1  0  0  0
 11 12  1  0  0  0
 12 37  1  0  0  0
 12 38  1  0  0  0
 12 39  1  0  0  0
 14 15  1  0  0  0
 15 23  1  0  0  0
 15 16  2  0  0  0
 16 17  1  0  0  0
 17 22  2  0  0  0
 17 18  1  0  0  0
 18 19  2  0  0  0
 18 29  1  0  0  0
 19 20  1  0  0  0
 20 21  2  0  0  0
 20 40  1  0  0  0
 21 22  1  0  0  0
 22 23  1  0  0  0
 23 24  1  0  0  0
 24 25  1  0  0  0
 24 41  1  0  0  0
 24 42  1  0  0  0
 25 26  1  0  0  0
 25 43  1  0  0  0
 25 44  1  0  0  0
 26 27  1  0  0  0
 26 45  1  0  0  0
 26 46  1  0  0  0
 27 28  3  0  0  0
 28 47  1  0  0  0
 29 48  1  0  0  0
 29 49  1  0  0  0
M  END
> <s_m_entry_id>
5326

> <s_m_entry_name>
ligand_docking-pose.71

> <s_m_Source_Path>
/home/csk/Desktop/cluster/DUD-E-result/hs90a

> <s_m_Source_File>
ligand_docking-pose.sdf

> <i_m_Source_File_Index>
71

> <i_lp_mmshare_version>
53161

> <r_lp_tautomer_probability>
0.999997216410988

> <s_lp_Force_Field>
OPLS_2005

> <r_lp_Energy>
29.226431

> <b_lp_Chiralities_Consistent>
1

> <s_lp_Variant>
320879-1

> <s_i_glide_gridfile>
glide-grid_1uyg

> <i_i_glide_lignum>
64

> <i_i_glide_rotatable_bonds>
9

> <r_i_docking_score>
-6.77646282659065

> <r_i_glide_ligand_efficiency>
-0.233671131951402

> <r_i_glide_ligand_efficiency_sa>
-0.717911749565542

> <r_i_glide_ligand_efficiency_ln>
-1.55163815101842

> <r_i_glide_gscore>
-6.77646282659065

> <r_i_glide_lipo>
-3.1185018276232

> <r_i_glide_hbond>
-0.114283514836733

> <r_i_glide_metal>
0

> <r_i_glide_rewards>
-1.67439845344971

> <r_i_glide_evdw>
-44.472225189209

> <r_i_glide_ecoul>
-1.86791622638702

> <r_i_glide_erotb>
0.634519662737503

> <r_i_glide_esite>
0

> <r_i_glide_emodel>
-63.1040412528575

> <r_i_glide_energy>
-46.340141415596

> <r_i_glide_einternal>
3.69750189781189

> <i_i_glide_confnum>
85

> <i_i_glide_posenum>
293

> <r_i_glide_eff_state_penalty>
0

> <s_user_duplicate_titles>
320879

> <i_f3d_flags>
0

> <s_m_subgroup_title>
dock_pv

> <s_m_subgroupid>
dock_pv1

> <b_m_subgroup_collapsed>
0

$$$$
456075
                    3D
 Schrodinger Suite 2021-1.
 42 44  0  0  1  0            999 V2000
    3.7730   13.8283   24.3673 C   0  0  0  0  0  0
    3.0562   12.5676   23.8508 C   0  0  2  0  0  0
    1.7122   12.3707   24.5823 C   0  0  0  0  0  0
    0.6101   11.5888   23.8452 C   0  0  1  0  0  0
   -0.2462   10.5629   24.5541 C   0  0  2  0  0  0
   -0.6878   11.8641   24.3035 O   0  0  0  0  0  0
    0.0289   10.2123   25.9999 C   0  0  0  0  0  0
    0.9647    9.3366   26.4048 C   0  0  0  0  0  0
    1.8303    8.6039   25.4983 C   0  0  0  0  0  0
    2.7334    7.7101   25.9370 C   0  0  0  0  0  0
    3.5905    6.9125   25.0725 C   0  0  0  0  0  0
    4.0364    5.8460   25.4895 O   0  0  0  0  0  0
    3.9706    7.3713   23.6465 C   0  0  0  0  0  0
    5.2815    8.1860   23.6621 C   0  0  0  0  0  0
    5.3028    9.6071   23.5666 C   0  0  0  0  0  0
    6.5425   10.2815   23.6578 C   0  0  0  0  0  0
    7.7143    9.5765   23.8756 C   0  0  0  0  0  0
    7.6934    8.1970   23.9677 C   0  0  0  0  0  0
    6.5017    7.4908   23.8129 C   0  0  0  0  0  0
    6.5768    5.7531   23.8055 Cl  0  0  0  0  0  0
    8.8625    7.5546   24.2635 O   0  0  0  0  0  0
    6.6734   11.6451   23.5595 O   0  0  0  0  0  0
    4.0699   10.4137   23.2896 C   0  0  0  0  0  0
    3.2216   10.1007   22.4614 O   0  0  0  0  0  0
    3.9893   11.5123   24.0773 O   0  0  0  0  0  0
    2.8799   12.7076   22.7820 H   0  0  0  0  0  0
    0.7082   11.5681   22.7607 H   0  0  0  0  0  0
   -0.7480    9.7960   23.9666 H   0  0  0  0  0  0
    3.1619   14.7200   24.2213 H   0  0  0  0  0  0
    4.0026   13.7518   25.4315 H   0  0  0  0  0  0
    4.7097   13.9959   23.8347 H   0  0  0  0  0  0
    1.9098   11.9533   25.5673 H   0  0  0  0  0  0
    1.2877   13.3579   24.7647 H   0  0  0  0  0  0
   -0.5716   10.7270   26.7348 H   0  0  0  0  0  0
    1.0767    9.1768   27.4680 H   0  0  0  0  0  0
    1.7106    8.7713   24.4374 H   0  0  0  0  0  0
    2.8441    7.5224   26.9958 H   0  0  0  0  0  0
    4.1371    6.4770   23.0459 H   0  0  0  0  0  0
    3.1425    7.8736   23.1580 H   0  0  0  0  0  0
    8.6470   10.1142   23.9747 H   0  0  0  0  0  0
    9.5168    8.1494   24.6432 H   0  0  0  0  0  0
    5.8219   12.0870   23.5183 H   0  0  0  0  0  0
  1  2  1  0  0  0
  1 29  1  0  0  0
  1 30  1  0  0  0
  1 31  1  0  0  0
  2 26  1  0  0  0
  2 25  1  0  0  0
  2  3  1  0  0  0
  3  4  1  0  0  0
  3 32  1  0  0  0
  3 33  1  0  0  0
  4 27  1  0  0  0
  4  6  1  0  0  0
  4  5  1  0  0  0
  5 28  1  0  0  0
  5  6  1  0  0  0
  5  7  1  0  0  0
  7  8  2  0  0  0
  7 34  1  0  0  0
  8  9  1  0  0  0
  8 35  1  0  0  0
  9 10  2  0  0  0
  9 36  1  0  0  0
 10 11  1  0  0  0
 10 37  1  0  0  0
 11 12  2  0  0  0
 11 13  1  0  0  0
 13 14  1  0  0  0
 13 38  1  0  0  0
 13 39  1  0  0  0
 14 19  2  0  0  0
 14 15  1  0  0  0
 15 16  2  0  0  0
 15 23  1  0  0  0
 16 17  1  0  0  0
 16 22  1  0  0  0
 17 18  2  0  0  0
 17 40  1  0  0  0
 18 19  1  0  0  0
 18 21  1  0  0  0
 19 20  1  0  0  0
 21 41  1  0  0  0
 22 42  1  0  0  0
 23 24  2  0  0  0
 23 25  1  0  0  0
M  END
> <s_m_entry_id>
5327

> <s_m_entry_name>
ligand_docking-pose.72

> <s_m_Source_Path>
/home/csk/Desktop/cluster/DUD-E-result/hs90a

> <s_m_Source_File>
ligand_docking-pose.sdf

> <i_m_Source_File_Index>
72

> <i_lp_mmshare_version>
53161

> <r_lp_tautomer_probability>
1

> <s_lp_Force_Field>
OPLS_2005

> <r_lp_Energy>
31.93385

> <b_lp_Chiralities_Consistent>
1

> <s_lp_Variant>
456075-1

> <s_i_glide_gridfile>
glide-grid_1uyg

> <i_i_glide_lignum>
4

> <i_i_glide_rotatable_bonds>
2

> <r_i_docking_score>
-6.57319086211351

> <r_i_glide_ligand_efficiency>
-0.26292763448454

> <r_i_glide_ligand_efficiency_sa>
-0.768805066274249

> <r_i_glide_ligand_efficiency_ln>
-1.55804321695552

> <r_i_glide_gscore>
-6.57319086211351

> <r_i_glide_lipo>
-2.77828259111384

> <r_i_glide_hbond>
-0.32

> <r_i_glide_metal>
0

> <r_i_glide_rewards>
-1.37272286669898

> <r_i_glide_evdw>
-35.7024574279785

> <r_i_glide_ecoul>
-2.11375021934509

> <r_i_glide_erotb>
0

> <r_i_glide_esite>
0

> <r_i_glide_emodel>
-47.8425645517356

> <r_i_glide_energy>
-37.8162076473236

> <r_i_glide_einternal>
0.139244183897972

> <i_i_glide_confnum>
1

> <i_i_glide_posenum>
171

> <r_i_glide_eff_state_penalty>
0

> <s_user_duplicate_titles>
456075

> <i_f3d_flags>
0

> <s_m_subgroup_title>
dock_pv

> <s_m_subgroupid>
dock_pv1

> <b_m_subgroup_collapsed>
0

$$$$
355726
                    3D
 Schrodinger Suite 2021-1.
 48 51  0  0  1  0            999 V2000
   10.6893   13.9483   27.9666 C   0  0  0  0  0  0
   10.4483   13.8436   26.4558 C   0  0  0  0  0  0
   11.6587   14.3684   25.6701 C   0  0  0  0  0  0
    9.2515   14.6216   26.1427 N   0  0  1  0  0  0
    8.6219   14.3775   24.8449 C   0  0  0  0  0  0
    8.0612   12.9453   24.7180 C   0  0  0  0  0  0
    7.2609   12.6956   23.4310 C   0  0  0  0  0  0
    6.3879   11.5004   23.5281 N   0  0  0  0  0  0
    6.8044   10.1968   23.5374 C   0  0  0  0  0  0
    5.6401    9.4514   23.5502 C   0  0  0  0  0  0
    5.7739    8.0440   23.5553 C   0  0  0  0  0  0
    7.0209    7.5098   23.5686 N   0  0  0  0  0  0
    8.0609    8.3542   23.5534 C   0  0  0  0  0  0
    8.0612    9.6972   23.5277 N   0  0  0  0  0  0
    4.6914    7.1732   23.5364 N   0  0  0  0  0  0
    4.5595   10.2425   23.5535 N   0  0  0  0  0  0
    5.0319   11.4662   23.5666 C   0  0  0  0  0  0
    4.0301   12.9257   23.5673 S   0  0  0  0  0  0
    2.4184   12.3047   23.8688 C   0  0  0  0  0  0
    2.1335   11.5087   24.8520 N   0  0  0  0  0  0
    0.8074   11.2567   24.9348 C   0  0  0  0  0  0
    0.2098   10.5087   25.9546 C   0  0  0  0  0  0
   -1.1744   10.3705   25.9436 C   0  0  0  0  0  0
   -1.9437   10.9132   24.9172 C   0  0  0  0  0  0
   -1.3679   11.6549   23.8858 C   0  0  0  0  0  0
    0.0195   11.8440   23.9153 C   0  0  0  0  0  0
    1.0739   12.7611   22.8504 S   0  0  0  0  0  0
   -2.3389   12.3377   22.6334 Cl  0  0  0  0  0  0
   11.5642   13.3715   28.2695 H   0  0  0  0  0  0
    9.8403   13.5660   28.5349 H   0  0  0  0  0  0
   10.8610   14.9806   28.2757 H   0  0  0  0  0  0
   10.2935   12.7876   26.2338 H   0  0  0  0  0  0
   12.5419   13.7582   25.8670 H   0  0  0  0  0  0
   11.4950   14.3604   24.5943 H   0  0  0  0  0  0
   11.8938   15.3919   25.9678 H   0  0  0  0  0  0
    8.5852   14.5770   26.9032 H   0  0  0  0  0  0
    7.7896   15.0774   24.7606 H   0  0  0  0  0  0
    9.2860   14.6406   24.0244 H   0  0  0  0  0  0
    8.8624   12.2099   24.7672 H   0  0  0  0  0  0
    7.4183   12.7688   25.5679 H   0  0  0  0  0  0
    6.6385   13.5489   23.1781 H   0  0  0  0  0  0
    7.9162   12.5022   22.5816 H   0  0  0  0  0  0
    9.0312    7.8795   23.5613 H   0  0  0  0  0  0
    3.7569    7.5464   23.4438 H   0  0  0  0  0  0
    4.8793    6.1848   23.4648 H   0  0  0  0  0  0
    0.8035   10.0753   26.7470 H   0  0  0  0  0  0
   -1.6584    9.8259   26.7401 H   0  0  0  0  0  0
   -3.0163   10.7695   24.9298 H   0  0  0  0  0  0
  1  2  1  0  0  0
  1 29  1  0  0  0
  1 30  1  0  0  0
  1 31  1  0  0  0
  2  3  1  0  0  0
  2  4  1  0  0  0
  2 32  1  0  0  0
  3 33  1  0  0  0
  3 34  1  0  0  0
  3 35  1  0  0  0
  4  5  1  0  0  0
  4 36  1  0  0  0
  5  6  1  0  0  0
  5 37  1  0  0  0
  5 38  1  0  0  0
  6  7  1  0  0  0
  6 39  1  0  0  0
  6 40  1  0  0  0
  7  8  1  0  0  0
  7 41  1  0  0  0
  7 42  1  0  0  0
  8 17  1  0  0  0
  8  9  1  0  0  0
  9 14  2  0  0  0
  9 10  1  0  0  0
 10 11  2  0  0  0
 10 16  1  0  0  0
 11 12  1  0  0  0
 11 15  1  0  0  0
 12 13  2  0  0  0
 13 14  1  0  0  0
 13 43  1  0  0  0
 15 44  1  0  0  0
 15 45  1  0  0  0
 16 17  2  0  0  0
 17 18  1  0  0  0
 18 19  1  0  0  0
 19 27  1  0  0  0
 19 20  2  0  0  0
 20 21  1  0  0  0
 21 26  2  0  0  0
 21 22  1  0  0  0
 22 23  2  0  0  0
 22 46  1  0  0  0
 23 24  1  0  0  0
 23 47  1  0  0  0
 24 25  2  0  0  0
 24 48  1  0  0  0
 25 26  1  0  0  0
 25 28  1  0  0  0
 26 27  1  0  0  0
M  END
> <s_m_entry_id>
5328

> <s_m_entry_name>
ligand_docking-pose.73

> <s_m_Source_Path>
/home/csk/Desktop/cluster/DUD-E-result/hs90a

> <s_m_Source_File>
ligand_docking-pose.sdf

> <i_m_Source_File_Index>
73

> <i_lp_mmshare_version>
53161

> <r_lp_tautomer_probability>
0.999997216410988

> <s_lp_Force_Field>
OPLS_2005

> <r_lp_Energy>
12.423961

> <b_lp_Chiralities_Consistent>
1

> <s_lp_Variant>
355726-1

> <s_i_glide_gridfile>
glide-grid_1uyg

> <i_i_glide_lignum>
62

> <i_i_glide_rotatable_bonds>
7

> <r_i_docking_score>
-6.52651333529642

> <r_i_glide_ligand_efficiency>
-0.233089761974872

> <r_i_glide_ligand_efficiency_sa>
-0.707797799883844

> <r_i_glide_ligand_efficiency_ln>
-1.50651090454464

> <r_i_glide_gscore>
-6.52651333529642

> <r_i_glide_lipo>
-2.8236417578362

> <r_i_glide_hbond>
0

> <r_i_glide_metal>
0

> <r_i_glide_rewards>
-1.87264968819667

> <r_i_glide_evdw>
-51.236442565918

> <r_i_glide_ecoul>
0.648449420928955

> <r_i_glide_erotb>
0.634332825893011

> <r_i_glide_esite>
0

> <r_i_glide_emodel>
-67.9721909828262

> <r_i_glide_energy>
-50.587993144989

> <r_i_glide_einternal>
2.77144956588745

> <i_i_glide_confnum>
33

> <i_i_glide_posenum>
164

> <r_i_glide_eff_state_penalty>
0

> <s_user_duplicate_titles>
355726

> <i_f3d_flags>
0

> <s_m_subgroup_title>
dock_pv

> <s_m_subgroupid>
dock_pv1

> <b_m_subgroup_collapsed>
0

$$$$
517636
                    3D
 Schrodinger Suite 2021-1.
 79 80  0  0  1  0            999 V2000
    1.3436    7.9780   23.4842 C   0  0  0  0  0  0
    2.3394    6.8168   23.5916 C   0  0  2  0  0  0
    1.8246    5.7320   24.5793 C   0  0  0  0  0  0
    1.6236    6.1691   26.0393 C   0  0  0  0  0  0
    0.4527    6.8560   26.4039 C   0  0  0  0  0  0
    0.2944    7.3420   27.7101 C   0  0  0  0  0  0
    1.2318    7.0155   28.6894 C   0  0  0  0  0  0
    2.3699    6.2839   28.3537 C   0  0  0  0  0  0
    2.5861    5.8861   27.0261 C   0  0  0  0  0  0
    3.7443    5.2249   26.6966 O   0  0  0  0  0  0
    3.5057    5.9060   29.6017 Cl  0  0  0  0  0  0
   -0.7501    8.2049   28.0732 N   0  0  0  0  0  0
   -1.1090    9.4146   27.5674 C   0  0  0  0  0  0
   -2.1029    9.9716   28.0289 O   0  0  0  0  0  0
   -0.3254   10.0447   26.5122 C   0  0  0  0  0  0
   -0.9758   10.7465   25.5305 C   0  0  0  0  0  0
   -0.4523   11.5996   24.3558 C   0  0  0  0  0  0
    1.0582   11.8296   24.3551 C   0  0  0  0  0  0
    1.8598   12.6349   23.3281 C   0  0  1  0  0  0
    3.3894   12.7137   23.7079 C   0  0  2  0  0  0
    4.2365   11.4248   23.9054 C   0  0  0  0  0  0
    5.3180   11.1507   23.1476 C   0  0  0  0  0  0
    6.3254   10.0031   23.3023 C   0  0  1  0  0  0
    5.9157    8.6318   22.6496 C   0  0  2  0  0  0
    4.4158    8.1366   22.6083 C   0  0  2  0  0  0
    3.8280    7.2688   23.7859 C   0  0  0  0  0  0
    4.2121    7.4882   21.3462 O   0  0  0  0  0  0
    4.6590    6.1408   21.1778 C   0  0  0  0  0  0
    6.7677    7.6272   23.1677 O   0  0  0  0  0  0
    7.7156   10.4624   22.8064 C   0  0  0  0  0  0
    3.9504   10.5470   25.0948 C   0  0  0  0  0  0
    3.4429   13.5618   24.8676 O   0  0  0  0  0  0
    4.4672   14.3740   25.2510 C   0  0  0  0  0  0
    4.3686   15.1494   26.1922 O   0  0  0  0  0  0
    5.6058   14.2355   24.4960 N   0  0  0  0  0  0
    1.6606   12.1198   22.0158 O   0  0  0  0  0  0
    0.5750   12.7438   21.3357 C   0  0  0  0  0  0
    1.1803    9.9672   26.7906 C   0  0  0  0  0  0
    2.2876    6.3437   22.6115 H   0  0  0  0  0  0
    1.4972   13.6678   23.3695 H   0  0  0  0  0  0
    3.8542   13.2444   22.8882 H   0  0  0  0  0  0
    6.4951    9.8377   24.3651 H   0  0  0  0  0  0
    6.2048    8.7497   21.6027 H   0  0  0  0  0  0
    3.8095    9.0350   22.5174 H   0  0  0  0  0  0
    1.2096    8.5051   24.4165 H   0  0  0  0  0  0
    0.3664    7.6145   23.1702 H   0  0  0  0  0  0
    1.6643    8.7235   22.7670 H   0  0  0  0  0  0
    0.8649    5.3572   24.2132 H   0  0  0  0  0  0
    2.4693    4.8571   24.5285 H   0  0  0  0  0  0
   -0.2917    7.0891   25.6559 H   0  0  0  0  0  0
    1.1050    7.3736   29.7035 H   0  0  0  0  0  0
    3.8239    5.0787   25.7545 H   0  0  0  0  0  0
   -1.2788    7.9192   28.8845 H   0  0  0  0  0  0
   -2.0592   10.7264   25.5329 H   0  0  0  0  0  0
   -0.9753   12.5557   24.3663 H   0  0  0  0  0  0
   -0.7587   11.0840   23.4472 H   0  0  0  0  0  0
    1.4452   10.8274   24.2854 H   0  0  0  0  0  0
    1.2788   12.3213   25.2981 H   0  0  0  0  0  0
    5.5621   11.8440   22.3671 H   0  0  0  0  0  0
    3.9208    7.7870   24.7340 H   0  0  0  0  0  0
    4.4473    6.3787   23.9029 H   0  0  0  0  0  0
    4.8221    5.9650   20.1167 H   0  0  0  0  0  0
    5.5911    5.9124   21.6974 H   0  0  0  0  0  0
    3.9135    5.4215   21.5131 H   0  0  0  0  0  0
    7.1040    7.1301   22.4124 H   0  0  0  0  0  0
    8.0636   11.3414   23.3497 H   0  0  0  0  0  0
    8.4600    9.6808   22.9485 H   0  0  0  0  0  0
    7.6993   10.7114   21.7455 H   0  0  0  0  0  0
    3.0640    9.9550   24.9640 H   0  0  0  0  0  0
    4.6634    9.7558   25.1671 H   0  0  0  0  0  0
    3.9955   11.1067   26.0240 H   0  0  0  0  0  0
    5.6304   13.5453   23.7628 H   0  0  0  0  0  0
    6.4036   14.8106   24.7216 H   0  0  0  0  0  0
    0.4269   12.2799   20.3688 H   0  0  0  0  0  0
   -0.3686   12.6785   21.8755 H   0  0  0  0  0  0
    0.7991   13.7959   21.1706 H   0  0  0  0  0  0
    1.4042    9.9640   27.8560 H   0  0  0  0  0  0
    1.6473    9.0781   26.3922 H   0  0  0  0  0  0
    1.7489   10.7686   26.3839 H   0  0  0  0  0  0
  1  2  1  0  0  0
  1 45  1  0  0  0
  1 46  1  0  0  0
  1 47  1  0  0  0
  2 39  1  0  0  0
  2 26  1  0  0  0
  2  3  1  0  0  0
  3  4  1  0  0  0
  3 48  1  0  0  0
  3 49  1  0  0  0
  4  9  1  0  0  0
  4  5  2  0  0  0
  5  6  1  0  0  0
  5 50  1  0  0  0
  6  7  2  0  0  0
  6 12  1  0  0  0
  7  8  1  0  0  0
  7 51  1  0  0  0
  8  9  2  0  0  0
  8 11  1  0  0  0
  9 10  1  0  0  0
 10 52  1  0  0  0
 12 13  1  0  0  0
 12 53  1  0  0  0
 13 14  2  0  0  0
 13 15  1  0  0  0
 15 16  2  0  0  0
 15 38  1  0  0  0
 16 17  1  0  0  0
 16 54  1  0  0  0
 17 18  1  0  0  0
 17 55  1  0  0  0
 17 56  1  0  0  0
 18 19  1  0  0  0
 18 57  1  0  0  0
 18 58  1  0  0  0
 19 40  1  0  0  0
 19 20  1  0  0  0
 19 36  1  0  0  0
 20 41  1  0  0  0
 20 21  1  0  0  0
 20 32  1  0  0  0
 21 22  2  0  0  0
 21 31  1  0  0  0
 22 23  1  0  0  0
 22 59  1  0  0  0
 23 42  1  0  0  0
 23 24  1  0  0  0
 23 30  1  0  0  0
 24 43  1  0  0  0
 24 25  1  0  0  0
 24 29  1  0  0  0
 25 44  1  0  0  0
 25 26  1  0  0  0
 25 27  1  0  0  0
 26 60  1  0  0  0
 26 61  1  0  0  0
 27 28  1  0  0  0
 28 62  1  0  0  0
 28 63  1  0  0  0
 28 64  1  0  0  0
 29 65  1  0  0  0
 30 66  1  0  0  0
 30 67  1  0  0  0
 30 68  1  0  0  0
 31 69  1  0  0  0
 31 70  1  0  0  0
 31 71  1  0  0  0
 32 33  1  0  0  0
 33 34  2  0  0  0
 33 35  1  0  0  0
 35 72  1  0  0  0
 35 73  1  0  0  0
 36 37  1  0  0  0
 37 74  1  0  0  0
 37 75  1  0  0  0
 37 76  1  0  0  0
 38 77  1  0  0  0
 38 78  1  0  0  0
 38 79  1  0  0  0
M  END
> <s_m_entry_id>
5330

> <s_m_entry_name>
ligand_docking-pose.75

> <s_m_Source_Path>
/home/csk/Desktop/cluster/DUD-E-result/hs90a

> <s_m_Source_File>
ligand_docking-pose.sdf

> <i_m_Source_File_Index>
75

> <i_lp_mmshare_version>
53161

> <r_lp_tautomer_probability>
0.999999999997365

> <s_lp_Force_Field>
OPLS_2005

> <r_lp_Energy>
33.266243

> <b_lp_Chiralities_Consistent>
1

> <s_lp_Variant>
517636-1

> <s_i_glide_gridfile>
glide-grid_1uyg

> <i_i_glide_lignum>
30

> <i_i_glide_rotatable_bonds>
6

> <r_i_docking_score>
-6.03495872980059

> <r_i_glide_ligand_efficiency>
-0.158814703415805

> <r_i_glide_ligand_efficiency_sa>
-0.533931126474601

> <r_i_glide_ligand_efficiency_ln>
-1.30131463264429

> <r_i_glide_gscore>
-6.03495872980059

> <r_i_glide_lipo>
-3.21852375566737

> <r_i_glide_hbond>
-0.111474246463149

> <r_i_glide_metal>
0

> <r_i_glide_rewards>
-0.199765468864478

> <r_i_glide_evdw>
-43.0003318786621

> <r_i_glide_ecoul>
-2.82003664970398

> <r_i_glide_erotb>
0.0678268325831033

> <r_i_glide_esite>
0

> <r_i_glide_emodel>
-36.0225853185331

> <r_i_glide_energy>
-45.8203685283661

> <r_i_glide_einternal>
16.7965812683105

> <i_i_glide_confnum>
12

> <i_i_glide_posenum>
76

> <r_i_glide_eff_state_penalty>
0

> <s_user_duplicate_titles>
517636

> <i_f3d_flags>
0

> <s_m_subgroup_title>
dock_pv

> <s_m_subgroupid>
dock_pv1

> <b_m_subgroup_collapsed>
0

$$$$
