CHEMBL1808_lig2
                    3D
 Schrodinger Suite 2021-1.
 40 42  0  0  1  0            999 V2000
   44.9710   48.0245   45.5063 C   0  0  0  0  0  0
   46.0787   47.1126   43.4224 C   0  0  0  0  0  0
   45.4517   48.1571   44.0877 C   0  0  0  0  0  0
   45.1759   49.3571   43.4346 C   0  0  0  0  0  0
   45.4011   49.4587   42.0746 C   0  0  0  0  0  0
   45.8643   48.3462   41.3675 C   0  0  0  0  0  0
   46.3071   47.2176   42.0617 C   0  0  0  0  0  0
   45.0526   46.7507   46.2103 N   0  0  0  0  0  0
   45.6838   48.2884   39.9052 C   0  0  0  0  0  0
   45.2963   47.0792   39.3173 C   0  0  0  0  0  0
   44.9619   47.0317   37.9791 C   0  0  0  0  0  0
   45.0224   48.1870   37.2182 C   0  0  0  0  0  0
   45.4195   49.3953   37.7777 C   0  0  0  0  0  0
   45.7514   49.4438   39.1229 C   0  0  0  0  0  0
   46.1377   46.2886   46.8629 C   0  0  0  0  0  0
   45.8462   45.4324   48.0707 C   0  0  0  0  0  0
   47.2965   46.5885   46.5782 O   0  0  0  0  0  0
   46.5916   45.6216   49.2440 C   0  0  0  0  0  0
   46.2742   44.9052   50.3972 C   0  0  0  0  0  0
   45.2124   44.0046   50.3785 C   0  0  0  0  0  0
   44.5023   43.8115   49.1959 C   0  0  0  0  0  0
   44.8448   44.5039   48.0720 N   0  3  0  0  0  0
   43.4535   42.9234   49.1543 O   0  0  0  0  0  0
   44.2530   44.2260   46.9805 O   0  5  0  0  0  0
   43.9144   48.2936   45.4966 H   0  0  0  0  0  0
   45.4520   48.7953   46.1095 H   0  0  0  0  0  0
   46.3042   46.1886   43.9273 H   0  0  0  0  0  0
   44.7175   50.1841   43.9611 H   0  0  0  0  0  0
   45.0689   50.3521   41.5662 H   0  0  0  0  0  0
   46.7095   46.3627   41.5363 H   0  0  0  0  0  0
   44.1584   46.4787   46.5993 H   0  0  0  0  0  0
   45.1930   46.1757   39.9007 H   0  0  0  0  0  0
   44.6535   46.1002   37.5342 H   0  0  0  0  0  0
   44.7531   48.1345   36.1777 H   0  0  0  0  0  0
   45.4509   50.2886   37.1703 H   0  0  0  0  0  0
   46.0266   50.3917   39.5561 H   0  0  0  0  0  0
   47.3977   46.3430   49.2721 H   0  0  0  0  0  0
   46.8378   45.0632   51.3067 H   0  0  0  0  0  0
   44.9404   43.4579   51.2693 H   0  0  0  0  0  0
   42.9703   42.9282   48.3198 H   0  0  0  0  0  0
  1  3  1  0  0  0
  1  8  1  0  0  0
  1 25  1  0  0  0
  1 26  1  0  0  0
  2  3  2  0  0  0
  2  7  1  0  0  0
  2 27  1  0  0  0
  3  4  1  0  0  0
  4  5  2  0  0  0
  4 28  1  0  0  0
  5  6  1  0  0  0
  5 29  1  0  0  0
  6  7  2  0  0  0
  6  9  1  0  0  0
  7 30  1  0  0  0
  8 15  1  0  0  0
  8 31  1  0  0  0
  9 10  2  0  0  0
  9 14  1  0  0  0
 10 11  1  0  0  0
 10 32  1  0  0  0
 11 12  2  0  0  0
 11 33  1  0  0  0
 12 13  1  0  0  0
 12 34  1  0  0  0
 13 14  2  0  0  0
 13 35  1  0  0  0
 14 36  1  0  0  0
 15 17  2  0  0  0
 15 16  1  0  0  0
 16 22  1  0  0  0
 16 18  2  0  0  0
 18 37  1  0  0  0
 18 19  1  0  0  0
 19 38  1  0  0  0
 19 20  2  0  0  0
 20 21  1  0  0  0
 20 39  1  0  0  0
 21 23  1  0  0  0
 21 22  2  0  0  0
 22 24  1  0  0  0
 23 40  1  0  0  0
M  CHG  2  22   1  24  -1
M  END
> <s_m_entry_id>
6650

> <s_m_entry_name>
dock_pv.2

> <s_m_Source_Path>
/home/csk/Desktop/cluster/DUD-E-result/ace

> <s_m_Source_File>
dock_pv.maegz

> <i_m_Source_File_Index>
2

> <chembl_id>
CHEMBL2435340

> <chembl_pref_name>
None

> <i_lp_mmshare_version>
53161

> <i_f3d_flags>
0

> <r_lp_tautomer_probability>
0.0303878448620552

> <s_lp_Force_Field>
OPLS_2005

> <r_lp_Energy>
27.176209

> <b_lp_Chiralities_Consistent>
1

> <s_lp_Variant>
CHEMBL1808_lig2-2

> <s_i_glide_gridfile>
glide-grid_3bkl

> <i_i_glide_lignum>
3

> <i_i_glide_rotatable_bonds>
6

> <r_i_docking_score>
-9.70735547940597

> <r_i_glide_ligand_efficiency>
-0.404473144975249

> <r_i_glide_ligand_efficiency_sa>
-1.16670243784693

> <r_i_glide_ligand_efficiency_ln>
-2.32341560773944

> <r_i_glide_gscore>
-9.70735547940597

> <r_i_glide_lipo>
-1.16561307803561

> <r_i_glide_hbond>
-0.0708529798552854

> <r_i_glide_metal>
-2.3

> <r_i_glide_rewards>
-1.59733910236811

> <r_i_glide_evdw>
-24.5383968353271

> <r_i_glide_ecoul>
-28.5887260437012

> <r_i_glide_erotb>
0.909744760555152

> <r_i_glide_esite>
-0.256375237935767

> <r_i_glide_emodel>
-78.0813017106044

> <r_i_glide_energy>
-53.1271228790283

> <r_i_glide_einternal>
6.8590350151062

> <i_i_glide_confnum>
112

> <i_i_glide_posenum>
82

> <r_i_glide_eff_state_penalty>
0

> <s_user_duplicate_titles>
CHEMBL1808_lig2

> <s_m_subgroup_title>
dock_pv

> <s_m_subgroupid>
dock_pv

> <b_m_subgroup_collapsed>
0

$$$$
CHEMBL1808_lig122
                    3D
 Schrodinger Suite 2021-1.
 71 73  0  0  1  0            999 V2000
   46.4546   48.1356   42.8602 C   0  0  2  0  0  0
   45.0601   47.2896   44.9807 P   0  0  2  0  0  0
   46.2862   47.2836   41.5767 C   0  0  2  0  0  0
   46.4107   47.3867   44.0760 O   0  0  0  0  0  0
   46.4254   48.1935   40.3342 C   0  0  1  0  0  0
   45.5034   49.2045   42.8879 O   0  0  0  0  0  0
   43.8623   40.5047   49.6578 C   0  0  0  0  0  0
   45.0064   46.0805   47.5613 C   0  0  2  0  0  0
   44.5837   44.6266   47.8731 C   0  0  0  0  0  0
   45.4322   49.3892   40.4529 C   0  0  1  0  0  0
   45.5023   46.1848   46.1768 N   0  0  3  0  0  0
   44.4532   38.3494   49.6038 N   0  0  0  0  0  0
   44.1896   44.3756   49.1413 N   0  0  0  0  0  0
   44.2757   39.4942   48.8572 C   0  0  0  0  0  0
   45.6217   50.1340   41.8065 C   0  0  1  0  0  0
   44.2113   43.1080   49.8985 C   0  0  2  0  0  0
   43.7884   39.9355   51.0051 C   0  0  0  0  0  0
   45.6269   42.8292   50.4483 C   0  0  0  0  0  0
   43.5571   41.8991   49.1742 C   0  0  0  0  0  0
   44.1629   38.5576   50.9347 C   0  0  0  0  0  0
   43.8530   46.9865   44.1789 O   0  0  0  0  0  0
   46.0604   46.5867   48.5862 C   0  0  0  0  0  0
   44.6530   43.7870   46.9780 O   0  0  0  0  0  0
   46.5280   42.3714   49.7780 O   0  0  0  0  0  0
   45.0518   48.6898   45.7780 O   0  0  0  0  0  0
   45.0536   46.5871   41.5348 O   0  0  0  0  0  0
   47.7871   48.5870   40.1781 O   0  0  0  0  0  0
   45.4609   50.2549   39.3270 O   0  0  0  0  0  0
   45.7159   43.1951   51.7622 O   0  0  0  0  0  0
   44.5670   51.2275   42.0461 C   0  0  0  0  0  0
   43.4531   40.4363   52.2854 C   0  0  0  0  0  0
   47.3742   45.7813   48.7372 C   0  0  0  0  0  0
   44.1833   37.7210   52.0653 C   0  0  0  0  0  0
   48.0880   46.1956   50.0363 C   0  0  0  0  0  0
   48.2883   45.8822   47.5073 C   0  0  0  0  0  0
   43.4654   39.6074   53.4272 C   0  0  0  0  0  0
   43.8293   38.2510   53.3191 C   0  0  0  0  0  0
   47.4529   48.5695   42.8638 H   0  0  0  0  0  0
   47.0536   46.5075   41.5650 H   0  0  0  0  0  0
   46.1779   47.6409   39.4257 H   0  0  0  0  0  0
   44.0845   46.6527   47.6394 H   0  0  0  0  0  0
   44.4229   48.9743   40.4382 H   0  0  0  0  0  0
   46.2531   45.5336   45.9362 H   0  0  0  0  0  0
   44.7600   37.4768   49.2000 H   0  0  0  0  0  0
   44.1225   45.1837   49.7406 H   0  0  0  0  0  0
   44.4344   39.5874   47.7911 H   0  0  0  0  0  0
   46.6054   50.6065   41.8455 H   0  0  0  0  0  0
   43.5703   43.2817   50.7645 H   0  0  0  0  0  0
   42.4767   42.0298   49.1825 H   0  0  0  0  0  0
   43.8533   41.8823   48.1310 H   0  0  0  0  0  0
   46.2990   47.6268   48.3940 H   0  0  0  0  0  0
   45.5832   46.5869   49.5579 H   0  0  0  0  0  0
   44.6600   48.6566   46.6907 H   0  0  0  0  0  0
   44.4297   46.9875   42.1575 H   0  0  0  0  0  0
   48.3245   47.7916   40.0676 H   0  0  0  0  0  0
   44.6215   50.7206   39.2686 H   0  0  0  0  0  0
   44.8891   43.5026   52.1398 H   0  0  0  0  0  0
   44.6212   52.0119   41.2906 H   0  0  0  0  0  0
   44.7179   51.7015   43.0170 H   0  0  0  0  0  0
   43.5556   50.8209   42.0368 H   0  0  0  0  0  0
   43.1410   41.4660   52.3885 H   0  0  0  0  0  0
   47.1395   44.7271   48.8575 H   0  0  0  0  0  0
   44.4675   36.6831   51.9749 H   0  0  0  0  0  0
   48.2498   47.2722   50.0804 H   0  0  0  0  0  0
   47.4929   45.9212   50.9081 H   0  0  0  0  0  0
   49.0521   45.7065   50.1560 H   0  0  0  0  0  0
   48.1614   46.8285   46.9789 H   0  0  0  0  0  0
   49.3396   45.7871   47.7757 H   0  0  0  0  0  0
   48.0790   45.0749   46.8088 H   0  0  0  0  0  0
   43.1869   40.0133   54.3888 H   0  0  0  0  0  0
   43.8354   37.6188   54.1957 H   0  0  0  0  0  0
  1  3  1  0  0  0
  1  4  1  0  0  0
  1  6  1  0  0  0
  1 38  1  0  0  0
  2  4  1  0  0  0
  2 11  1  0  0  0
  2 21  2  0  0  0
  2 25  1  0  0  0
  3  5  1  0  0  0
  3 26  1  0  0  0
  3 39  1  0  0  0
  5 10  1  0  0  0
  5 27  1  0  0  0
  5 40  1  0  0  0
  6 15  1  0  0  0
  7 19  1  0  0  0
  7 14  2  0  0  0
  7 17  1  0  0  0
  8 11  1  0  0  0
  8  9  1  0  0  0
  8 22  1  0  0  0
  8 41  1  0  0  0
  9 13  1  0  0  0
  9 23  2  0  0  0
 10 28  1  0  0  0
 10 15  1  0  0  0
 10 42  1  0  0  0
 11 43  1  0  0  0
 12 14  1  0  0  0
 12 20  1  0  0  0
 12 44  1  0  0  0
 13 16  1  0  0  0
 13 45  1  0  0  0
 14 46  1  0  0  0
 15 30  1  0  0  0
 15 47  1  0  0  0
 16 18  1  0  0  0
 16 19  1  0  0  0
 16 48  1  0  0  0
 17 20  1  0  0  0
 17 31  2  0  0  0
 18 24  2  0  0  0
 18 29  1  0  0  0
 19 49  1  0  0  0
 19 50  1  0  0  0
 20 33  2  0  0  0
 22 32  1  0  0  0
 22 51  1  0  0  0
 22 52  1  0  0  0
 25 53  1  0  0  0
 26 54  1  0  0  0
 27 55  1  0  0  0
 28 56  1  0  0  0
 29 57  1  0  0  0
 30 58  1  0  0  0
 30 59  1  0  0  0
 30 60  1  0  0  0
 31 36  1  0  0  0
 31 61  1  0  0  0
 32 34  1  0  0  0
 32 35  1  0  0  0
 32 62  1  0  0  0
 33 37  1  0  0  0
 33 63  1  0  0  0
 34 64  1  0  0  0
 34 65  1  0  0  0
 34 66  1  0  0  0
 35 67  1  0  0  0
 35 68  1  0  0  0
 35 69  1  0  0  0
 36 37  2  0  0  0
 36 70  1  0  0  0
 37 71  1  0  0  0
M  END
> <s_m_entry_id>
6651

> <s_m_entry_name>
dock_pv.3

> <s_m_Source_Path>
/home/csk/Desktop/cluster/DUD-E-result/ace

> <s_m_Source_File>
dock_pv.maegz

> <i_m_Source_File_Index>
3

> <chembl_id>
CHEMBL41289

> <chembl_pref_name>
None

> <i_lp_mmshare_version>
53161

> <i_f3d_flags>
0

> <r_lp_tautomer_probability>
1

> <s_lp_Force_Field>
OPLS_2005

> <r_lp_Energy>
7.539646

> <b_lp_Chiralities_Consistent>
1

> <s_lp_Variant>
CHEMBL1808_lig122-25

> <s_i_glide_gridfile>
glide-grid_3bkl

> <i_i_glide_lignum>
484

> <i_i_glide_rotatable_bonds>
17

> <r_i_docking_score>
-8.80225233663659

> <r_i_glide_ligand_efficiency>
-0.237898711800989

> <r_i_glide_ligand_efficiency_sa>
-0.792731284987516

> <r_i_glide_ligand_efficiency_ln>
-1.90900217774399

> <r_i_glide_gscore>
-8.80225233663659

> <r_i_glide_lipo>
-2.26725280380689

> <r_i_glide_hbond>
-0.997369296280041

> <r_i_glide_metal>
0

> <r_i_glide_rewards>
0.132696641503235

> <r_i_glide_evdw>
-42.2343826293945

> <r_i_glide_ecoul>
-26.3254528045654

> <r_i_glide_erotb>
0.700506560200236

> <r_i_glide_esite>
-0.3102963860986

> <r_i_glide_emodel>
-94.3209914181082

> <r_i_glide_energy>
-68.55983543396

> <r_i_glide_einternal>
20.4158020019531

> <i_i_glide_confnum>
15

> <i_i_glide_posenum>
200

> <r_i_glide_eff_state_penalty>
0

> <s_user_duplicate_titles>
CHEMBL1808_lig122

> <s_m_subgroup_title>
dock_pv

> <s_m_subgroupid>
dock_pv

> <b_m_subgroup_collapsed>
0

$$$$
CHEMBL1808_lig352
                    3D
 Schrodinger Suite 2021-1.
 65 67  0  0  1  0            999 V2000
   45.3003   43.8805   54.2277 P   0  0  0  0  0  0
   44.4834   43.9275   49.8555 C   0  0  0  0  0  0
   45.5664   44.3809   49.2122 N   0  0  0  0  0  0
   45.6785   45.6971   48.5740 C   0  0  2  0  0  0
   45.0936   45.6807   47.1364 C   0  0  0  0  0  0
   44.6023   42.5107   50.4687 C   0  0  1  0  0  0
   45.7359   43.0829   52.6124 C   0  0  0  0  0  0
   44.5077   42.6343   51.9428 N   0  0  2  0  0  0
   43.4885   41.5831   49.9024 C   0  0  0  0  0  0
   43.9028   40.1103   49.9163 C   0  0  0  0  0  0
   46.2850   43.8248   55.3404 O   0  0  0  0  0  0
   43.4527   44.5830   49.9788 O   0  0  0  0  0  0
   48.9755   46.0424   52.5772 C   0  0  0  0  0  0
   47.1435   46.2256   48.6357 C   0  0  0  0  0  0
   44.6531   44.6883   46.5789 O   0  0  0  0  0  0
   43.8757   39.3630   51.1076 C   0  0  0  0  0  0
   44.9026   45.3865   53.7794 O   0  0  0  0  0  0
   43.8531   43.2469   54.5780 O   0  0  0  0  0  0
   49.6741   46.0082   53.8952 C   0  0  0  0  0  0
   48.4282   47.2362   52.0968 C   0  0  0  0  0  0
   48.8770   44.8939   51.7803 C   0  0  0  0  0  0
   47.7672   46.1504   50.0360 C   0  0  0  0  0  0
   45.1350   46.9227   46.5778 O   0  0  0  0  0  0
   47.8525   47.2941   50.8302 C   0  0  0  0  0  0
   48.2734   44.9449   50.5241 C   0  0  0  0  0  0
   43.4572   40.0042   52.2619 O   0  0  0  0  0  0
   44.3237   39.5114   48.7205 C   0  0  0  0  0  0
   44.2783   38.0153   51.0706 C   0  0  0  0  0  0
   50.4624   47.0925   54.3126 C   0  0  0  0  0  0
   49.5777   44.8899   54.7327 C   0  0  0  0  0  0
   43.4499   39.2941   53.4977 C   0  0  0  0  0  0
   44.7204   38.1759   48.7033 C   0  0  0  0  0  0
   51.1381   47.0569   55.5297 C   0  0  0  0  0  0
   44.7008   37.4288   49.8780 C   0  0  0  0  0  0
   50.2553   44.8475   55.9497 C   0  0  0  0  0  0
   51.0357   45.9327   56.3420 C   0  0  0  0  0  0
   46.4208   43.8509   49.2698 H   0  0  0  0  0  0
   45.0590   46.3891   49.1412 H   0  0  0  0  0  0
   45.5605   42.0739   50.1813 H   0  0  0  0  0  0
   46.4265   42.2517   52.7670 H   0  0  0  0  0  0
   46.2504   43.8375   52.0212 H   0  0  0  0  0  0
   44.2028   41.7432   52.3303 H   0  0  0  0  0  0
   43.2499   41.8473   48.8719 H   0  0  0  0  0  0
   42.5522   41.7079   50.4503 H   0  0  0  0  0  0
   47.7866   45.6569   47.9618 H   0  0  0  0  0  0
   47.2101   47.2518   48.2732 H   0  0  0  0  0  0
   44.4542   45.9176   54.4656 H   0  0  0  0  0  0
   43.1755   43.4549   53.8902 H   0  0  0  0  0  0
   48.4732   48.1370   52.6897 H   0  0  0  0  0  0
   49.3002   43.9605   52.1179 H   0  0  0  0  0  0
   45.0722   47.6398   47.2322 H   0  0  0  0  0  0
   47.4536   48.2337   50.4744 H   0  0  0  0  0  0
   48.2467   44.0497   49.9222 H   0  0  0  0  0  0
   44.3461   40.0773   47.7969 H   0  0  0  0  0  0
   44.2765   37.4041   51.9615 H   0  0  0  0  0  0
   50.5820   47.9649   53.6842 H   0  0  0  0  0  0
   48.9646   44.0454   54.4492 H   0  0  0  0  0  0
   43.0869   39.9527   54.2862 H   0  0  0  0  0  0
   42.7873   38.4272   53.4607 H   0  0  0  0  0  0
   44.4510   38.9677   53.7763 H   0  0  0  0  0  0
   45.0443   37.7223   47.7760 H   0  0  0  0  0  0
   51.7499   47.8947   55.8315 H   0  0  0  0  0  0
   45.0129   36.3958   49.8685 H   0  0  0  0  0  0
   50.1748   43.9757   56.5833 H   0  0  0  0  0  0
   51.5599   45.9054   57.2866 H   0  0  0  0  0  0
  1  7  1  0  0  0
  1 11  2  0  0  0
  1 17  1  0  0  0
  1 18  1  0  0  0
  2  6  1  0  0  0
  2  3  1  0  0  0
  2 12  2  0  0  0
  3  4  1  0  0  0
  3 37  1  0  0  0
  4  5  1  0  0  0
  4 14  1  0  0  0
  4 38  1  0  0  0
  5 15  2  0  0  0
  5 23  1  0  0  0
  6  8  1  0  0  0
  6  9  1  0  0  0
  6 39  1  0  0  0
  7  8  1  0  0  0
  7 40  1  0  0  0
  7 41  1  0  0  0
  8 42  1  0  0  0
  9 10  1  0  0  0
  9 43  1  0  0  0
  9 44  1  0  0  0
 10 16  2  0  0  0
 10 27  1  0  0  0
 13 21  1  0  0  0
 13 19  1  0  0  0
 13 20  2  0  0  0
 14 22  1  0  0  0
 14 45  1  0  0  0
 14 46  1  0  0  0
 16 26  1  0  0  0
 16 28  1  0  0  0
 17 47  1  0  0  0
 18 48  1  0  0  0
 19 29  2  0  0  0
 19 30  1  0  0  0
 20 24  1  0  0  0
 20 49  1  0  0  0
 21 25  2  0  0  0
 21 50  1  0  0  0
 22 24  2  0  0  0
 22 25  1  0  0  0
 23 51  1  0  0  0
 24 52  1  0  0  0
 25 53  1  0  0  0
 26 31  1  0  0  0
 27 32  2  0  0  0
 27 54  1  0  0  0
 28 34  2  0  0  0
 28 55  1  0  0  0
 29 33  1  0  0  0
 29 56  1  0  0  0
 30 35  2  0  0  0
 30 57  1  0  0  0
 31 58  1  0  0  0
 31 59  1  0  0  0
 31 60  1  0  0  0
 32 34  1  0  0  0
 32 61  1  0  0  0
 33 36  2  0  0  0
 33 62  1  0  0  0
 34 63  1  0  0  0
 35 36  1  0  0  0
 35 64  1  0  0  0
 36 65  1  0  0  0
M  END
> <s_m_entry_id>
6652

> <s_m_entry_name>
dock_pv.4

> <s_m_Source_Path>
/home/csk/Desktop/cluster/DUD-E-result/ace

> <s_m_Source_File>
dock_pv.maegz

> <i_m_Source_File_Index>
4

> <chembl_id>
CHEMBL93785

> <chembl_pref_name>
None

> <i_lp_mmshare_version>
53161

> <i_f3d_flags>
0

> <r_lp_tautomer_probability>
1

> <s_lp_Force_Field>
OPLS_2005

> <r_lp_Energy>
8.329358

> <b_lp_Chiralities_Consistent>
1

> <s_lp_Variant>
CHEMBL1808_lig352-1

> <s_i_glide_gridfile>
glide-grid_3bkl

> <i_i_glide_lignum>
1300

> <i_i_glide_rotatable_bonds>
16

> <r_i_docking_score>
-7.89908952625147

> <r_i_glide_ligand_efficiency>
-0.219419153506985

> <r_i_glide_ligand_efficiency_sa>
-0.724506081028681

> <r_i_glide_ligand_efficiency_ln>
-1.72336792589149

> <r_i_glide_gscore>
-7.89908952625147

> <r_i_glide_lipo>
-2.62248938620756

> <r_i_glide_hbond>
-0.288

> <r_i_glide_metal>
0

> <r_i_glide_rewards>
2.49718709397729e-13

> <r_i_glide_evdw>
-44.6335983276367

> <r_i_glide_ecoul>
-23.6905860900879

> <r_i_glide_erotb>
0.936614166169959

> <r_i_glide_esite>
-0.139946476319102

> <r_i_glide_emodel>
-99.6013610592674

> <r_i_glide_energy>
-68.3241844177246

> <r_i_glide_einternal>
10.5713691711426

> <i_i_glide_confnum>
15

> <i_i_glide_posenum>
35

> <r_i_glide_eff_state_penalty>
0

> <s_user_duplicate_titles>
CHEMBL1808_lig352,149748

> <s_m_subgroup_title>
dock_pv

> <s_m_subgroupid>
dock_pv

> <b_m_subgroup_collapsed>
0

$$$$
CHEMBL1808_lig122
                    3D
 Schrodinger Suite 2021-1.
 71 73  0  0  1  0            999 V2000
   44.8988   49.1821   43.6152 C   0  0  2  0  0  0
   45.3201   47.0352   45.1997 P   0  0  1  0  0  0
   45.2294   50.6981   43.5042 C   0  0  1  0  0  0
   45.0530   48.6297   44.9280 O   0  0  0  0  0  0
   45.1764   51.1829   42.0417 C   0  0  1  0  0  0
   45.7720   48.4787   42.7199 O   0  0  0  0  0  0
   44.8656   40.2989   50.0540 C   0  0  0  0  0  0
   46.2627   45.8173   47.6437 C   0  0  1  0  0  0
   45.1409   44.7371   47.8159 C   0  0  0  0  0  0
   46.0221   50.2814   41.1208 C   0  0  1  0  0  0
   45.8025   46.9765   46.8324 N   0  0  2  0  0  0
   44.3578   38.1988   49.5020 N   0  0  0  0  0  0
   45.2616   43.9023   48.8640 N   0  0  0  0  0  0
   44.8030   39.4157   49.0308 C   0  0  0  0  0  0
   45.6645   48.7876   41.3313 C   0  0  1  0  0  0
   44.4572   42.7013   49.1212 C   0  0  2  0  0  0
   44.3888   39.5797   51.2354 C   0  0  0  0  0  0
   43.1057   43.0634   49.7780 C   0  0  0  0  0  0
   45.3335   41.7224   49.9415 C   0  0  0  0  0  0
   44.0926   38.2349   50.8558 C   0  0  0  0  0  0
   44.2530   46.0987   44.7537 O   0  0  0  0  0  0
   46.8440   46.3077   49.0152 C   0  0  0  0  0  0
   44.2534   44.5870   46.9780 O   0  0  0  0  0  0
   42.6532   44.1865   49.7781 O   0  0  0  0  0  0
   46.7157   46.8011   44.4423 O   0  0  0  0  0  0
   44.4623   51.5260   44.3561 O   0  0  0  0  0  0
   43.8529   51.2626   41.5694 O   0  0  0  0  0  0
   45.8529   50.6822   39.7732 O   0  0  0  0  0  0
   42.4842   41.9563   50.2743 O   0  0  0  0  0  0
   46.6220   47.8407   40.5882 C   0  0  0  0  0  0
   44.1827   39.9199   52.5945 C   0  0  0  0  0  0
   48.1813   45.6761   49.4866 C   0  0  0  0  0  0
   43.6376   37.2738   51.7776 C   0  0  0  0  0  0
   48.1083   44.1811   49.8426 C   0  0  0  0  0  0
   48.7529   46.4388   50.7001 C   0  0  0  0  0  0
   43.7191   38.9672   53.5263 C   0  0  0  0  0  0
   43.4530   37.6441   53.1221 C   0  0  0  0  0  0
   43.8546   49.0111   43.3784 H   0  0  0  0  0  0
   46.2530   50.8502   43.8007 H   0  0  0  0  0  0
   45.5587   52.2049   42.0020 H   0  0  0  0  0  0
   47.0650   45.3473   47.0741 H   0  0  0  0  0  0
   47.0744   50.4331   41.3677 H   0  0  0  0  0  0
   45.3223   47.6895   47.4034 H   0  0  0  0  0  0
   44.2560   37.3895   48.9076 H   0  0  0  0  0  0
   45.9696   44.1117   49.5545 H   0  0  0  0  0  0
   45.0762   39.6389   48.0081 H   0  0  0  0  0  0
   44.6534   48.5774   40.9791 H   0  0  0  0  0  0
   44.2335   42.2326   48.1613 H   0  0  0  0  0  0
   46.3257   41.6620   49.4941 H   0  0  0  0  0  0
   45.4903   42.1184   50.9462 H   0  0  0  0  0  0
   47.0111   47.3855   48.9548 H   0  0  0  0  0  0
   46.1069   46.1985   49.8120 H   0  0  0  0  0  0
   46.7823   45.8717   44.1376 H   0  0  0  0  0  0
   44.7283   52.4410   44.2292 H   0  0  0  0  0  0
   43.8662   51.2425   40.6073 H   0  0  0  0  0  0
   45.9373   51.6386   39.7227 H   0  0  0  0  0  0
   43.0308   41.1688   50.2063 H   0  0  0  0  0  0
   46.5851   48.0044   39.5106 H   0  0  0  0  0  0
   46.3555   46.7989   40.7697 H   0  0  0  0  0  0
   47.6533   47.9770   40.9141 H   0  0  0  0  0  0
   44.3863   40.9275   52.9263 H   0  0  0  0  0  0
   48.8817   45.7868   48.6580 H   0  0  0  0  0  0
   43.4305   36.2624   51.4609 H   0  0  0  0  0  0
   47.3446   43.9865   50.5960 H   0  0  0  0  0  0
   47.9102   43.5581   48.9752 H   0  0  0  0  0  0
   49.0530   43.8343   50.2614 H   0  0  0  0  0  0
   48.6490   45.8701   51.6251 H   0  0  0  0  0  0
   49.8159   46.6459   50.5794 H   0  0  0  0  0  0
   48.2479   47.3879   50.8673 H   0  0  0  0  0  0
   43.5703   39.2505   54.5585 H   0  0  0  0  0  0
   43.1059   36.9174   53.8434 H   0  0  0  0  0  0
  1  3  1  0  0  0
  1  4  1  0  0  0
  1  6  1  0  0  0
  1 38  1  0  0  0
  2  4  1  0  0  0
  2 11  1  0  0  0
  2 21  2  0  0  0
  2 25  1  0  0  0
  3  5  1  0  0  0
  3 26  1  0  0  0
  3 39  1  0  0  0
  5 10  1  0  0  0
  5 27  1  0  0  0
  5 40  1  0  0  0
  6 15  1  0  0  0
  7 19  1  0  0  0
  7 14  2  0  0  0
  7 17  1  0  0  0
  8 11  1  0  0  0
  8  9  1  0  0  0
  8 22  1  0  0  0
  8 41  1  0  0  0
  9 13  1  0  0  0
  9 23  2  0  0  0
 10 28  1  0  0  0
 10 15  1  0  0  0
 10 42  1  0  0  0
 11 43  1  0  0  0
 12 14  1  0  0  0
 12 20  1  0  0  0
 12 44  1  0  0  0
 13 16  1  0  0  0
 13 45  1  0  0  0
 14 46  1  0  0  0
 15 30  1  0  0  0
 15 47  1  0  0  0
 16 18  1  0  0  0
 16 19  1  0  0  0
 16 48  1  0  0  0
 17 20  1  0  0  0
 17 31  2  0  0  0
 18 24  2  0  0  0
 18 29  1  0  0  0
 19 49  1  0  0  0
 19 50  1  0  0  0
 20 33  2  0  0  0
 22 32  1  0  0  0
 22 51  1  0  0  0
 22 52  1  0  0  0
 25 53  1  0  0  0
 26 54  1  0  0  0
 27 55  1  0  0  0
 28 56  1  0  0  0
 29 57  1  0  0  0
 30 58  1  0  0  0
 30 59  1  0  0  0
 30 60  1  0  0  0
 31 36  1  0  0  0
 31 61  1  0  0  0
 32 34  1  0  0  0
 32 35  1  0  0  0
 32 62  1  0  0  0
 33 37  1  0  0  0
 33 63  1  0  0  0
 34 64  1  0  0  0
 34 65  1  0  0  0
 34 66  1  0  0  0
 35 67  1  0  0  0
 35 68  1  0  0  0
 35 69  1  0  0  0
 36 37  2  0  0  0
 36 70  1  0  0  0
 37 71  1  0  0  0
M  END
> <s_m_entry_id>
6653

> <s_m_entry_name>
dock_pv.5

> <s_m_Source_Path>
/home/csk/Desktop/cluster/DUD-E-result/ace

> <s_m_Source_File>
dock_pv.maegz

> <i_m_Source_File_Index>
5

> <chembl_id>
CHEMBL41289

> <chembl_pref_name>
None

> <i_lp_mmshare_version>
53161

> <i_f3d_flags>
0

> <r_lp_tautomer_probability>
1

> <s_lp_Force_Field>
OPLS_2005

> <r_lp_Energy>
12.196715

> <b_lp_Chiralities_Consistent>
1

> <s_lp_Variant>
CHEMBL1808_lig122-15

> <s_i_glide_gridfile>
glide-grid_3bkl

> <i_i_glide_lignum>
474

> <i_i_glide_rotatable_bonds>
17

> <r_i_docking_score>
-7.22030298558582

> <r_i_glide_ligand_efficiency>
-0.195143323934752

> <r_i_glide_ligand_efficiency_sa>
-0.650260847435526

> <r_i_glide_ligand_efficiency_ln>
-1.56591444965569

> <r_i_glide_gscore>
-7.22030298558582

> <r_i_glide_lipo>
-2.03935245761983

> <r_i_glide_hbond>
-0.648869502118733

> <r_i_glide_metal>
0

> <r_i_glide_rewards>
9.69266313589925e-05

> <r_i_glide_evdw>
-36.9029693603516

> <r_i_glide_ecoul>
-20.1166744232178

> <r_i_glide_erotb>
0.700506560200236

> <r_i_glide_esite>
-0.370034881178616

> <r_i_glide_emodel>
-77.4107051154253

> <r_i_glide_energy>
-57.0196437835693

> <r_i_glide_einternal>
15.0781621932983

> <i_i_glide_confnum>
10

> <i_i_glide_posenum>
391

> <r_i_glide_eff_state_penalty>
0

> <s_user_duplicate_titles>
CHEMBL1808_lig122

> <s_m_subgroup_title>
dock_pv

> <s_m_subgroupid>
dock_pv

> <b_m_subgroup_collapsed>
0

$$$$
CHEMBL1808_lig423
                    3D
 Schrodinger Suite 2021-1.
 50 50  0  0  1  0            999 V2000
   45.1732   47.5943   44.9742 C   0  0  0  0  0  0
   44.8940   46.5714   46.0716 C   0  0  2  0  0  0
   46.1004   46.4086   47.0320 C   0  0  0  0  0  0
   44.6530   45.3870   45.3779 O   0  0  0  0  0  0
   46.0899   45.4135   48.1404 N   0  0  0  0  0  0
   45.0023   44.6999   48.5827 C   0  0  0  0  0  0
   45.2189   43.9546   49.6866 N   0  0  0  0  0  0
   43.8977   44.7190   48.0382 O   0  0  0  0  0  0
   44.2712   43.6002   50.7551 C   0  0  2  0  0  0
   45.0685   43.1294   51.9996 C   0  0  0  0  0  0
   44.2530   42.9870   53.0876 O   0  0  0  0  0  0
   46.2654   42.9168   51.9934 O   0  0  0  0  0  0
   44.2530   48.5870   44.9690 O   0  0  0  0  0  0
   46.1079   47.4865   44.1780 O   0  0  0  0  0  0
   47.4065   45.3901   48.8349 C   0  0  0  0  0  0
   47.4650   46.1807   50.1725 C   0  0  0  0  0  0
   47.4466   47.7029   49.9666 C   0  0  0  0  0  0
   48.6902   45.7918   51.0119 C   0  0  0  0  0  0
   43.1904   42.5819   50.2844 C   0  0  0  0  0  0
   43.6477   41.1495   50.0385 C   0  0  0  0  0  0
   44.2530   40.8005   48.8158 C   0  0  0  0  0  0
   44.6500   39.4725   48.5705 C   0  0  0  0  0  0
   43.4586   40.1584   51.0256 C   0  0  0  0  0  0
   43.8556   38.8289   50.7817 C   0  0  0  0  0  0
   44.4466   38.4837   49.5514 C   0  0  0  0  0  0
   44.8131   37.1922   49.3095 O   0  0  0  0  0  0
   44.0135   46.8384   46.6496 H   0  0  0  0  0  0
   46.9892   46.2080   46.4318 H   0  0  0  0  0  0
   46.2726   47.3870   47.4713 H   0  0  0  0  0  0
   45.5211   45.1223   45.0137 H   0  0  0  0  0  0
   46.1780   43.7952   49.9605 H   0  0  0  0  0  0
   43.7730   44.5298   51.0336 H   0  0  0  0  0  0
   43.3498   43.3394   52.9780 H   0  0  0  0  0  0
   43.5656   48.4474   45.6357 H   0  0  0  0  0  0
   47.6723   44.3494   49.0270 H   0  0  0  0  0  0
   48.1945   45.7584   48.1759 H   0  0  0  0  0  0
   46.5951   45.9197   50.7749 H   0  0  0  0  0  0
   48.2530   48.0619   49.3780 H   0  0  0  0  0  0
   46.5962   48.0255   49.3780 H   0  0  0  0  0  0
   47.4530   48.2500   50.9103 H   0  0  0  0  0  0
   49.6069   46.1871   50.5780 H   0  0  0  0  0  0
   48.6166   46.1997   52.0211 H   0  0  0  0  0  0
   48.7911   44.7100   51.1083 H   0  0  0  0  0  0
   42.3840   42.5558   51.0175 H   0  0  0  0  0  0
   42.6983   42.9353   49.3782 H   0  0  0  0  0  0
   44.3934   41.5488   48.0504 H   0  0  0  0  0  0
   45.0948   39.2230   47.6179 H   0  0  0  0  0  0
   43.0127   40.4123   51.9755 H   0  0  0  0  0  0
   43.7032   38.0729   51.5382 H   0  0  0  0  0  0
   45.2096   37.0665   48.4452 H   0  0  0  0  0  0
  1 13  1  0  0  0
  1 14  2  0  0  0
  1  2  1  0  0  0
  2  4  1  0  0  0
  2  3  1  0  0  0
  2 27  1  0  0  0
  3  5  1  0  0  0
  3 28  1  0  0  0
  3 29  1  0  0  0
  4 30  1  0  0  0
  5 15  1  0  0  0
  5  6  1  0  0  0
  6  8  2  0  0  0
  6  7  1  0  0  0
  7  9  1  0  0  0
  7 31  1  0  0  0
  9 19  1  0  0  0
  9 10  1  0  0  0
  9 32  1  0  0  0
 10 11  1  0  0  0
 10 12  2  0  0  0
 11 33  1  0  0  0
 13 34  1  0  0  0
 15 16  1  0  0  0
 15 35  1  0  0  0
 15 36  1  0  0  0
 16 17  1  0  0  0
 16 18  1  0  0  0
 16 37  1  0  0  0
 17 38  1  0  0  0
 17 39  1  0  0  0
 17 40  1  0  0  0
 18 41  1  0  0  0
 18 42  1  0  0  0
 18 43  1  0  0  0
 19 20  1  0  0  0
 19 44  1  0  0  0
 19 45  1  0  0  0
 20 21  2  0  0  0
 20 23  1  0  0  0
 21 22  1  0  0  0
 21 46  1  0  0  0
 22 25  2  0  0  0
 22 47  1  0  0  0
 23 24  2  0  0  0
 23 48  1  0  0  0
 24 25  1  0  0  0
 24 49  1  0  0  0
 25 26  1  0  0  0
 26 50  1  0  0  0
M  END
> <s_m_entry_id>
6654

> <s_m_entry_name>
dock_pv.6

> <s_m_Source_Path>
/home/csk/Desktop/cluster/DUD-E-result/ace

> <s_m_Source_File>
dock_pv.maegz

> <i_m_Source_File_Index>
6

> <chembl_id>
CHEMBL270576

> <chembl_pref_name>
None

> <i_lp_mmshare_version>
53161

> <i_f3d_flags>
0

> <r_lp_tautomer_probability>
0.999999999997365

> <s_lp_Force_Field>
OPLS_2005

> <r_lp_Energy>
21.268708

> <b_lp_Chiralities_Consistent>
1

> <s_lp_Variant>
CHEMBL1808_lig423-1

> <s_i_glide_gridfile>
glide-grid_3bkl

> <i_i_glide_lignum>
1414

> <i_i_glide_rotatable_bonds>
15

> <r_i_docking_score>
-7.17660092067466

> <r_i_glide_ligand_efficiency>
-0.276023112333641

> <r_i_glide_ligand_efficiency_sa>
-0.817717384189909

> <r_i_glide_ligand_efficiency_ln>
-1.68540117787213

> <r_i_glide_gscore>
-7.17660092067466

> <r_i_glide_lipo>
-1.98439219981935

> <r_i_glide_hbond>
-0.301872503258669

> <r_i_glide_metal>
0

> <r_i_glide_rewards>
-0.649062670623746

> <r_i_glide_evdw>
-29.0820865631104

> <r_i_glide_ecoul>
-26.6293258666992

> <r_i_glide_erotb>
1.41993414367126

> <r_i_glide_esite>
-0.212704482483746

> <r_i_glide_emodel>
-71.2164912382703

> <r_i_glide_energy>
-55.7114124298096

> <r_i_glide_einternal>
15.2245864868164

> <i_i_glide_confnum>
129

> <i_i_glide_posenum>
30

> <r_i_glide_eff_state_penalty>
0

> <s_user_duplicate_titles>
CHEMBL1808_lig423,436516

> <s_m_subgroup_title>
dock_pv

> <s_m_subgroupid>
dock_pv

> <b_m_subgroup_collapsed>
0

$$$$
CHEMBL1808_lig101
                    3D
 Schrodinger Suite 2021-1.
 73 75  0  0  1  0            999 V2000
   44.9826   45.6557   47.1079 N   0  0  0  0  0  0
   44.9469   46.2426   45.8680 C   0  0  0  0  0  0
   45.8291   45.9757   48.2831 C   0  0  2  0  0  0
   43.8906   42.0991   49.4804 C   0  0  0  0  0  0
   43.3607   41.0530   50.4882 C   0  0  1  0  0  0
   46.4924   47.3221   44.2237 N   0  0  2  0  0  0
   47.3573   45.9001   48.0636 C   0  0  0  0  0  0
   45.6809   47.5491   45.4739 C   0  0  1  0  0  0
   43.4958   43.3691   49.6694 N   0  0  0  0  0  0
   44.0240   44.5870   47.4603 C   0  0  0  0  0  0
   45.3748   44.9768   49.3733 C   0  0  0  0  0  0
   43.9580   44.5896   48.9906 C   0  0  2  0  0  0
   46.6248   46.9871   41.7669 C   0  0  0  0  0  0
   45.9684   47.8044   42.9065 C   0  0  2  0  0  0
   44.2530   45.7869   44.9779 O   0  0  0  0  0  0
   43.0159   39.6678   49.8591 C   0  0  0  0  0  0
   44.6532   41.7778   48.5781 O   0  0  0  0  0  0
   47.8827   45.7869   46.9781 O   0  0  0  0  0  0
   47.8064   46.6425   41.7779 O   0  0  0  0  0  0
   46.2317   49.3145   42.6246 C   0  0  0  0  0  0
   48.0179   45.9848   49.2542 O   0  0  0  0  0  0
   45.7464   46.7443   40.7489 O   0  0  0  0  0  0
   46.0288   40.8678   51.5462 S   0  0  0  0  0  0
   45.2382   49.9747   41.6368 C   0  0  0  0  0  0
   44.1641   38.7308   49.4827 C   0  0  0  0  0  0
   44.2201   40.9600   51.7858 C   0  0  0  0  0  0
   45.6028   51.3769   41.1504 C   0  0  0  0  0  0
   44.6453   48.6861   45.3819 C   0  0  0  0  0  0
   44.6537   37.8129   50.4175 C   0  0  0  0  0  0
   44.6640   38.7253   48.1779 C   0  0  0  0  0  0
   45.1553   51.7875   39.8902 C   0  0  0  0  0  0
   46.3285   52.2690   41.9497 C   0  0  0  0  0  0
   45.6457   37.8113   47.8069 C   0  0  0  0  0  0
   45.4372   53.0694   39.4262 C   0  0  0  0  0  0
   46.6122   53.5509   41.4862 C   0  0  0  0  0  0
   45.6415   36.9021   50.0495 C   0  0  0  0  0  0
   46.1311   36.9035   48.7452 C   0  0  0  0  0  0
   46.1661   53.9453   40.2270 C   0  0  0  0  0  0
   45.6499   46.9881   48.6176 H   0  0  0  0  0  0
   42.3938   41.4423   50.8098 H   0  0  0  0  0  0
   46.6531   46.3201   44.1588 H   0  0  0  0  0  0
   46.3015   47.7860   46.3298 H   0  0  0  0  0  0
   42.8125   43.5130   50.3985 H   0  0  0  0  0  0
   44.4025   43.6227   47.1217 H   0  0  0  0  0  0
   43.0105   44.7940   47.1167 H   0  0  0  0  0  0
   45.4563   45.3563   50.3916 H   0  0  0  0  0  0
   45.9942   44.0757   49.3719 H   0  0  0  0  0  0
   43.2824   45.3869   49.2643 H   0  0  0  0  0  0
   44.9020   47.5848   42.8567 H   0  0  0  0  0  0
   42.3891   39.8076   48.9779 H   0  0  0  0  0  0
   42.3592   39.1306   50.5444 H   0  0  0  0  0  0
   46.2519   49.8829   43.5487 H   0  0  0  0  0  0
   47.2451   49.4504   42.2403 H   0  0  0  0  0  0
   47.4360   46.0767   50.0096 H   0  0  0  0  0  0
   44.8513   47.0414   40.9301 H   0  0  0  0  0  0
   46.3449   40.7801   52.8427 H   0  0  0  0  0  0
   45.1192   49.3321   40.7634 H   0  0  0  0  0  0
   44.2567   50.0469   42.1034 H   0  0  0  0  0  0
   44.0258   41.8339   52.4102 H   0  0  0  0  0  0
   43.9101   40.0996   52.3807 H   0  0  0  0  0  0
   43.9128   48.5869   46.1780 H   0  0  0  0  0  0
   45.0765   49.6789   45.4874 H   0  0  0  0  0  0
   44.0477   48.6714   44.4732 H   0  0  0  0  0  0
   44.2629   37.7950   51.4247 H   0  0  0  0  0  0
   44.2797   39.4150   47.4396 H   0  0  0  0  0  0
   44.5730   51.1214   39.2696 H   0  0  0  0  0  0
   46.6572   51.9943   42.9394 H   0  0  0  0  0  0
   46.0202   37.8054   46.7935 H   0  0  0  0  0  0
   45.0741   53.3873   38.4586 H   0  0  0  0  0  0
   47.1584   54.2434   42.1110 H   0  0  0  0  0  0
   46.0181   36.1896   50.7695 H   0  0  0  0  0  0
   46.8904   36.1907   48.4593 H   0  0  0  0  0  0
   46.3698   54.9468   39.8765 H   0  0  0  0  0  0
  1  2  1  0  0  0
  1  3  1  0  0  0
  1 10  1  0  0  0
  2  8  1  0  0  0
  2 15  2  0  0  0
  3  7  1  0  0  0
  3 11  1  0  0  0
  3 39  1  0  0  0
  4  9  1  0  0  0
  4  5  1  0  0  0
  4 17  2  0  0  0
  5 16  1  0  0  0
  5 26  1  0  0  0
  5 40  1  0  0  0
  6  8  1  0  0  0
  6 14  1  0  0  0
  6 41  1  0  0  0
  7 18  2  0  0  0
  7 21  1  0  0  0
  8 28  1  0  0  0
  8 42  1  0  0  0
  9 12  1  0  0  0
  9 43  1  0  0  0
 10 12  1  0  0  0
 10 44  1  0  0  0
 10 45  1  0  0  0
 11 12  1  0  0  0
 11 46  1  0  0  0
 11 47  1  0  0  0
 12 48  1  0  0  0
 13 14  1  0  0  0
 13 19  2  0  0  0
 13 22  1  0  0  0
 14 20  1  0  0  0
 14 49  1  0  0  0
 16 25  1  0  0  0
 16 50  1  0  0  0
 16 51  1  0  0  0
 20 24  1  0  0  0
 20 52  1  0  0  0
 20 53  1  0  0  0
 21 54  1  0  0  0
 22 55  1  0  0  0
 23 26  1  0  0  0
 23 56  1  0  0  0
 24 27  1  0  0  0
 24 57  1  0  0  0
 24 58  1  0  0  0
 25 29  1  0  0  0
 25 30  2  0  0  0
 26 59  1  0  0  0
 26 60  1  0  0  0
 27 31  2  0  0  0
 27 32  1  0  0  0
 28 61  1  0  0  0
 28 62  1  0  0  0
 28 63  1  0  0  0
 29 36  2  0  0  0
 29 64  1  0  0  0
 30 33  1  0  0  0
 30 65  1  0  0  0
 31 34  1  0  0  0
 31 66  1  0  0  0
 32 35  2  0  0  0
 32 67  1  0  0  0
 33 37  2  0  0  0
 33 68  1  0  0  0
 34 38  2  0  0  0
 34 69  1  0  0  0
 35 38  1  0  0  0
 35 70  1  0  0  0
 36 37  1  0  0  0
 36 71  1  0  0  0
 37 72  1  0  0  0
 38 73  1  0  0  0
M  END
> <s_m_entry_id>
6655

> <s_m_entry_name>
dock_pv.7

> <s_m_Source_Path>
/home/csk/Desktop/cluster/DUD-E-result/ace

> <s_m_Source_File>
dock_pv.maegz

> <i_m_Source_File_Index>
7

> <chembl_id>
CHEMBL312918

> <chembl_pref_name>
None

> <i_lp_mmshare_version>
53161

> <i_f3d_flags>
0

> <r_lp_tautomer_probability>
1

> <s_lp_Force_Field>
OPLS_2005

> <r_lp_Energy>
21.205882

> <b_lp_Chiralities_Consistent>
1

> <s_lp_Variant>
CHEMBL1808_lig101-2

> <s_i_glide_gridfile>
glide-grid_3bkl

> <i_i_glide_lignum>
335

> <i_i_glide_rotatable_bonds>
18

> <r_i_docking_score>
-7.06465122020565

> <r_i_glide_ligand_efficiency>
-0.185911874215938

> <r_i_glide_ligand_efficiency_sa>
-0.625031148188018

> <r_i_glide_ligand_efficiency_ln>
-1.5233466240598

> <r_i_glide_gscore>
-7.06465122020565

> <r_i_glide_lipo>
-2.4612490358374

> <r_i_glide_hbond>
-0.6325240289232

> <r_i_glide_metal>
0

> <r_i_glide_rewards>
0.00375193569090984

> <r_i_glide_evdw>
-52.3227691650391

> <r_i_glide_ecoul>
-13.8121089935303

> <r_i_glide_erotb>
0.916384435701381

> <r_i_glide_esite>
-0.203059719555848

> <r_i_glide_emodel>
-83.7289026240948

> <r_i_glide_energy>
-66.1348781585693

> <r_i_glide_einternal>
18.8803749084473

> <i_i_glide_confnum>
14

> <i_i_glide_posenum>
318

> <r_i_glide_eff_state_penalty>
0

> <s_user_duplicate_titles>
CHEMBL1808_lig101,144706

> <s_m_subgroup_title>
dock_pv

> <s_m_subgroupid>
dock_pv

> <b_m_subgroup_collapsed>
0

$$$$
CHEMBL1808_lig139
                    3D
 Schrodinger Suite 2021-1.
 65 66  0  0  1  0            999 V2000
   44.6384   44.4561   48.3286 C   0  0  0  0  0  0
   44.6121   44.0714   49.6197 N   0  0  0  0  0  0
   44.5836   46.4570   45.6203 C   0  0  0  0  0  0
   45.2690   45.8248   48.0558 C   0  0  2  0  0  0
   44.1995   42.7972   50.2403 C   0  0  2  0  0  0
   44.6716   46.5823   46.9507 N   0  0  0  0  0  0
   45.1373   42.5754   51.4453 C   0  0  0  0  0  0
   44.1959   47.7103   44.8164 C   0  0  0  0  0  0
   44.2533   43.7869   47.3779 O   0  0  0  0  0  0
   44.1771   41.5980   49.2393 C   0  0  0  0  0  0
   46.8060   45.7620   47.9141 C   0  0  0  0  0  0
   44.6530   45.3870   45.0442 O   0  0  0  0  0  0
   46.1696   41.9402   51.3826 O   0  0  0  0  0  0
   45.3248   48.2558   43.9092 C   0  0  1  0  0  0
   44.1592   40.1648   49.7603 C   0  0  0  0  0  0
   44.6529   43.1970   52.5629 O   0  0  0  0  0  0
   45.4562   47.3616   42.3346 S   0  0  0  0  0  0
   44.2327   37.5006   50.6983 C   0  0  0  0  0  0
   45.3425   49.7989   43.7342 C   0  0  0  0  0  0
   47.5273   45.5700   49.2411 C   0  0  0  0  0  0
   44.8014   39.1583   49.0061 C   0  0  0  0  0  0
   43.5192   39.8183   50.9705 C   0  0  0  0  0  0
   43.5718   38.4938   51.4458 C   0  0  0  0  0  0
   44.8384   37.8308   49.4724 C   0  0  0  0  0  0
   44.2547   36.2111   51.1401 O   0  0  0  0  0  0
   44.1663   50.5201   43.0288 C   0  0  0  0  0  0
   47.7106   46.6758   50.0987 C   0  0  0  0  0  0
   47.8534   44.2837   49.7199 C   0  0  0  0  0  0
   44.2808   50.5080   41.4872 C   0  0  0  0  0  0
   44.0823   51.9843   43.5080 C   0  0  0  0  0  0
   48.4084   44.1309   50.9840 C   0  0  0  0  0  0
   48.2620   46.5047   51.3604 C   0  0  0  0  0  0
   48.6157   45.2362   51.7986 C   0  0  0  0  0  0
   45.0311   44.7086   50.2827 H   0  0  0  0  0  0
   45.0540   46.4486   48.9236 H   0  0  0  0  0  0
   43.1798   42.9300   50.6056 H   0  0  0  0  0  0
   44.2112   47.3940   47.3225 H   0  0  0  0  0  0
   43.8922   48.4913   45.5139 H   0  0  0  0  0  0
   43.3009   47.4859   44.2401 H   0  0  0  0  0  0
   43.3212   41.7051   48.5777 H   0  0  0  0  0  0
   45.0620   41.6594   48.6083 H   0  0  0  0  0  0
   47.1005   44.9881   47.2054 H   0  0  0  0  0  0
   47.1671   46.7018   47.4948 H   0  0  0  0  0  0
   46.2588   48.0097   44.4012 H   0  0  0  0  0  0
   43.7563   43.5518   52.4984 H   0  0  0  0  0  0
   44.1490   47.3875   42.0199 H   0  0  0  0  0  0
   46.2533   50.0841   43.2152 H   0  0  0  0  0  0
   45.4486   50.2210   44.7353 H   0  0  0  0  0  0
   45.2729   39.4004   48.0642 H   0  0  0  0  0  0
   43.0083   40.5682   51.5546 H   0  0  0  0  0  0
   43.0933   38.2459   52.3816 H   0  0  0  0  0  0
   45.3319   37.0661   48.8905 H   0  0  0  0  0  0
   43.9029   36.1000   52.0283 H   0  0  0  0  0  0
   43.2388   50.0339   43.3278 H   0  0  0  0  0  0
   47.4282   47.6672   49.7753 H   0  0  0  0  0  0
   47.6857   43.4100   49.1105 H   0  0  0  0  0  0
   45.2096   50.9749   41.1569 H   0  0  0  0  0  0
   43.4651   51.0677   41.0292 H   0  0  0  0  0  0
   44.2532   49.5107   41.0540 H   0  0  0  0  0  0
   45.0208   52.5140   43.3411 H   0  0  0  0  0  0
   43.3066   52.5389   42.9778 H   0  0  0  0  0  0
   43.8583   52.0460   44.5736 H   0  0  0  0  0  0
   48.6682   43.1447   51.3412 H   0  0  0  0  0  0
   48.4147   47.3591   52.0043 H   0  0  0  0  0  0
   49.0439   45.1071   52.7821 H   0  0  0  0  0  0
  1  2  1  0  0  0
  1  4  1  0  0  0
  1  9  2  0  0  0
  2  5  1  0  0  0
  2 34  1  0  0  0
  3  6  1  0  0  0
  3  8  1  0  0  0
  3 12  2  0  0  0
  4  6  1  0  0  0
  4 11  1  0  0  0
  4 35  1  0  0  0
  5  7  1  0  0  0
  5 10  1  0  0  0
  5 36  1  0  0  0
  6 37  1  0  0  0
  7 13  2  0  0  0
  7 16  1  0  0  0
  8 14  1  0  0  0
  8 38  1  0  0  0
  8 39  1  0  0  0
 10 15  1  0  0  0
 10 40  1  0  0  0
 10 41  1  0  0  0
 11 20  1  0  0  0
 11 42  1  0  0  0
 11 43  1  0  0  0
 14 17  1  0  0  0
 14 19  1  0  0  0
 14 44  1  0  0  0
 15 21  1  0  0  0
 15 22  2  0  0  0
 16 45  1  0  0  0
 17 46  1  0  0  0
 18 23  2  0  0  0
 18 25  1  0  0  0
 18 24  1  0  0  0
 19 26  1  0  0  0
 19 47  1  0  0  0
 19 48  1  0  0  0
 20 27  2  0  0  0
 20 28  1  0  0  0
 21 24  2  0  0  0
 21 49  1  0  0  0
 22 23  1  0  0  0
 22 50  1  0  0  0
 23 51  1  0  0  0
 24 52  1  0  0  0
 25 53  1  0  0  0
 26 29  1  0  0  0
 26 30  1  0  0  0
 26 54  1  0  0  0
 27 32  1  0  0  0
 27 55  1  0  0  0
 28 31  2  0  0  0
 28 56  1  0  0  0
 29 57  1  0  0  0
 29 58  1  0  0  0
 29 59  1  0  0  0
 30 60  1  0  0  0
 30 61  1  0  0  0
 30 62  1  0  0  0
 31 33  1  0  0  0
 31 63  1  0  0  0
 32 33  2  0  0  0
 32 64  1  0  0  0
 33 65  1  0  0  0
M  END
> <s_m_entry_id>
6656

> <s_m_entry_name>
dock_pv.8

> <s_m_Source_Path>
/home/csk/Desktop/cluster/DUD-E-result/ace

> <s_m_Source_File>
dock_pv.maegz

> <i_m_Source_File_Index>
8

> <chembl_id>
CHEMBL367174

> <chembl_pref_name>
None

> <i_lp_mmshare_version>
53161

> <i_f3d_flags>
0

> <r_lp_tautomer_probability>
0.999999999997365

> <s_lp_Force_Field>
OPLS_2005

> <r_lp_Energy>
9.767184

> <b_lp_Chiralities_Consistent>
1

> <s_lp_Variant>
CHEMBL1808_lig139-5

> <s_i_glide_gridfile>
glide-grid_3bkl

> <i_i_glide_lignum>
594

> <i_i_glide_rotatable_bonds>
17

> <r_i_docking_score>
-6.8800858534183

> <r_i_glide_ligand_efficiency>
-0.208487450103585

> <r_i_glide_ligand_efficiency_sa>
-0.668730652801133

> <r_i_glide_ligand_efficiency_ln>
-1.53009547062219

> <r_i_glide_gscore>
-6.8800858534183

> <r_i_glide_lipo>
-2.52904943851175

> <r_i_glide_hbond>
-0.541009407876183

> <r_i_glide_metal>
0

> <r_i_glide_rewards>
-0.0225975006299547

> <r_i_glide_evdw>
-34.4987335205078

> <r_i_glide_ecoul>
-19.0839405059814

> <r_i_glide_erotb>
1.08643977719221

> <r_i_glide_esite>
-0.286341531670017

> <r_i_glide_emodel>
-61.4603835883545

> <r_i_glide_energy>
-53.5826740264893

> <r_i_glide_einternal>
16.0671310424805

> <i_i_glide_confnum>
10

> <i_i_glide_posenum>
119

> <r_i_glide_eff_state_penalty>
0

> <s_user_duplicate_titles>
CHEMBL1808_lig139

> <s_m_subgroup_title>
dock_pv

> <s_m_subgroupid>
dock_pv

> <b_m_subgroup_collapsed>
0

$$$$
CHEMBL1808_lig344
                    3D
 Schrodinger Suite 2021-1.
 47 48  0  0  1  0            999 V2000
   45.9206   49.3484   41.8779 N   0  0  0  0  0  0
   45.5812   47.9571   42.2508 C   0  0  2  0  0  0
   47.1807   49.4192   41.3780 C   0  0  0  0  0  0
   45.0031   50.3714   41.9320 C   0  0  0  0  0  0
   47.6411   48.1547   41.3205 N   0  0  0  0  0  0
   45.5203   47.7087   43.7780 C   0  0  0  0  0  0
   46.6446   47.1484   41.5441 C   0  0  0  0  0  0
   44.1981   52.3367   40.5845 N   0  0  1  0  0  0
   45.3023   51.8237   41.4066 C   0  0  1  0  0  0
   45.0616   52.2053   38.2460 C   0  0  0  0  0  0
   43.9963   51.7197   39.2434 C   0  0  2  0  0  0
   43.8933   50.1875   42.4356 O   0  0  0  0  0  0
   47.8530   50.4216   41.1875 O   0  0  0  0  0  0
   46.4744   47.3870   44.4489 O   0  0  0  0  0  0
   45.4530   53.3668   38.1785 O   0  0  0  0  0  0
   42.6145   52.0879   38.6567 C   0  0  0  0  0  0
   44.2530   47.8719   44.2482 O   0  0  0  0  0  0
   45.3873   51.2080   37.3780 O   0  0  0  0  0  0
   42.1974   51.4070   37.3323 C   0  0  0  0  0  0
   41.7220   49.9614   37.4038 C   0  0  0  0  0  0
   45.4723   52.7609   42.6011 C   0  0  0  0  0  0
   41.1374   49.4429   36.2515 C   0  0  0  0  0  0
   41.8250   49.1634   38.5519 C   0  0  0  0  0  0
   41.3498   47.8555   38.5357 C   0  0  0  0  0  0
   40.6530   48.1450   36.2348 C   0  0  0  0  0  0
   40.7627   47.3523   37.3780 C   0  0  0  0  0  0
   44.6530   47.6256   41.8279 H   0  0  0  0  0  0
   48.3872   47.9053   40.6861 H   0  0  0  0  0  0
   47.0478   46.2925   42.0903 H   0  0  0  0  0  0
   46.2801   46.7767   40.5832 H   0  0  0  0  0  0
   43.3573   52.2918   41.1457 H   0  0  0  0  0  0
   46.1728   51.9011   40.7665 H   0  0  0  0  0  0
   44.0587   50.6353   39.3247 H   0  0  0  0  0  0
   41.8530   51.8543   39.3780 H   0  0  0  0  0  0
   42.5350   53.1712   38.5499 H   0  0  0  0  0  0
   44.1804   47.7874   45.2043 H   0  0  0  0  0  0
   45.5813   51.5475   36.4826 H   0  0  0  0  0  0
   41.3755   51.9764   36.9054 H   0  0  0  0  0  0
   42.9823   51.4805   36.5804 H   0  0  0  0  0  0
   46.3194   52.4469   43.2136 H   0  0  0  0  0  0
   45.6700   53.7765   42.2542 H   0  0  0  0  0  0
   44.5770   52.7810   43.2262 H   0  0  0  0  0  0
   41.0372   50.0647   35.3751 H   0  0  0  0  0  0
   42.2530   49.5349   39.4681 H   0  0  0  0  0  0
   41.4227   47.2407   39.4224 H   0  0  0  0  0  0
   40.1783   47.7870   35.3359 H   0  0  0  0  0  0
   40.3834   46.3406   37.3827 H   0  0  0  0  0  0
  1  2  1  0  0  0
  1  3  1  0  0  0
  1  4  1  0  0  0
  2  6  1  0  0  0
  2  7  1  0  0  0
  2 27  1  0  0  0
  3  5  1  0  0  0
  3 13  2  0  0  0
  4  9  1  0  0  0
  4 12  2  0  0  0
  5  7  1  0  0  0
  5 28  1  0  0  0
  6 14  2  0  0  0
  6 17  1  0  0  0
  7 29  1  0  0  0
  7 30  1  0  0  0
  8  9  1  0  0  0
  8 11  1  0  0  0
  8 31  1  0  0  0
  9 21  1  0  0  0
  9 32  1  0  0  0
 10 11  1  0  0  0
 10 15  2  0  0  0
 10 18  1  0  0  0
 11 16  1  0  0  0
 11 33  1  0  0  0
 16 19  1  0  0  0
 16 34  1  0  0  0
 16 35  1  0  0  0
 17 36  1  0  0  0
 18 37  1  0  0  0
 19 20  1  0  0  0
 19 38  1  0  0  0
 19 39  1  0  0  0
 20 22  2  0  0  0
 20 23  1  0  0  0
 21 40  1  0  0  0
 21 41  1  0  0  0
 21 42  1  0  0  0
 22 25  1  0  0  0
 22 43  1  0  0  0
 23 24  2  0  0  0
 23 44  1  0  0  0
 24 26  1  0  0  0
 24 45  1  0  0  0
 25 26  2  0  0  0
 25 46  1  0  0  0
 26 47  1  0  0  0
M  END
> <s_m_entry_id>
6657

> <s_m_entry_name>
dock_pv.9

> <s_m_Source_Path>
/home/csk/Desktop/cluster/DUD-E-result/ace

> <s_m_Source_File>
dock_pv.maegz

> <i_m_Source_File_Index>
9

> <chembl_id>
CHEMBL431052

> <chembl_pref_name>
None

> <i_lp_mmshare_version>
53161

> <i_f3d_flags>
0

> <r_lp_tautomer_probability>
0.99990000499975

> <s_lp_Force_Field>
OPLS_2005

> <r_lp_Energy>
42.845167

> <b_lp_Chiralities_Consistent>
1

> <s_lp_Variant>
CHEMBL1808_lig344-1

> <s_i_glide_gridfile>
glide-grid_3bkl

> <i_i_glide_lignum>
1292

> <i_i_glide_rotatable_bonds>
11

> <r_i_docking_score>
-6.82007487757768

> <r_i_glide_ligand_efficiency>
-0.262310572214526

> <r_i_glide_ligand_efficiency_sa>
-0.777094038043272

> <r_i_glide_ligand_efficiency_ln>
-1.60167220650817

> <r_i_glide_gscore>
-6.82007487757768

> <r_i_glide_lipo>
-0.69405335384955

> <r_i_glide_hbond>
-1.06322606074668

> <r_i_glide_metal>
0

> <r_i_glide_rewards>
-0.930470454262559

> <r_i_glide_evdw>
-26.4829921722412

> <r_i_glide_ecoul>
-25.1860828399658

> <r_i_glide_erotb>
1.16409775951722

> <r_i_glide_esite>
-0.194360733629175

> <r_i_glide_emodel>
-67.1225824634297

> <r_i_glide_energy>
-51.669075012207

> <r_i_glide_einternal>
18.6480579376221

> <i_i_glide_confnum>
32

> <i_i_glide_posenum>
158

> <r_i_glide_eff_state_penalty>
0

> <s_user_duplicate_titles>
CHEMBL1808_lig344,164634

> <s_m_subgroup_title>
dock_pv

> <s_m_subgroupid>
dock_pv

> <b_m_subgroup_collapsed>
0

$$$$
CHEMBL1808_lig178
                    3D
 Schrodinger Suite 2021-1.
 63 65  0  0  1  0            999 V2000
   45.3528   49.1366   42.3742 N   0  0  0  0  0  0
   45.6175   48.4815   41.0778 C   0  0  1  0  0  0
   45.0327   50.5604   42.1903 C   0  0  2  0  0  0
   44.3826   44.6738   47.7781 C   0  0  0  0  0  0
   45.0522   48.5046   43.5427 C   0  0  0  0  0  0
   45.3139   49.5568   40.0185 C   0  0  0  0  0  0
   44.2188   45.9426   47.3996 N   0  0  0  0  0  0
   47.0521   47.9369   40.9456 C   0  0  0  0  0  0
   44.5145   50.6501   40.7285 C   0  0  2  0  0  0
   46.3155   46.8669   46.5037 C   0  0  0  0  0  0
   44.8204   46.6721   46.2840 C   0  0  1  0  0  0
   44.0969   44.3874   49.2732 C   0  0  2  0  0  0
   44.6529   43.7872   46.9780 O   0  0  0  0  0  0
   45.0368   46.9530   43.5829 C   0  0  0  0  0  0
   44.6988   49.1378   44.5346 O   0  0  0  0  0  0
   48.0393   48.4921   41.3787 O   0  0  0  0  0  0
   47.0638   46.9764   45.5764 O   0  0  0  0  0  0
   44.9525   43.3031   49.9912 C   0  0  0  0  0  0
   44.4336   46.2346   44.8421 C   0  0  0  0  0  0
   47.0521   46.7583   40.2713 O   0  0  0  0  0  0
   42.6566   44.1873   49.3976 N   0  0  0  0  0  0
   46.6630   46.9850   47.8189 O   0  0  0  0  0  0
   44.5593   41.8313   49.8623 C   0  0  0  0  0  0
   46.1809   51.5280   42.5570 C   0  0  0  0  0  0
   44.6554   52.0333   40.0331 C   0  0  0  0  0  0
   43.3144   41.3680   50.3446 C   0  0  0  0  0  0
   45.4524   40.8934   49.3068 C   0  0  0  0  0  0
   45.9871   52.9440   42.0014 C   0  0  0  0  0  0
   45.8341   52.9139   40.4804 C   0  0  0  0  0  0
   45.0917   39.5589   49.1850 C   0  0  0  0  0  0
   42.9708   40.0309   50.2188 C   0  0  0  0  0  0
   43.8526   39.1311   49.6363 C   0  0  0  0  0  0
   44.2308   50.9778   42.8044 H   0  0  0  0  0  0
   43.4531   50.3947   40.7274 H   0  0  0  0  0  0
   44.9676   47.6157   40.9397 H   0  0  0  0  0  0
   46.2248   50.0090   39.6207 H   0  0  0  0  0  0
   44.7651   49.1368   39.1744 H   0  0  0  0  0  0
   43.7465   46.5697   48.0426 H   0  0  0  0  0  0
   44.3846   47.6590   46.3712 H   0  0  0  0  0  0
   44.3674   45.3124   49.7866 H   0  0  0  0  0  0
   46.0466   46.5913   43.3909 H   0  0  0  0  0  0
   44.4564   46.5870   42.7361 H   0  0  0  0  0  0
   44.9077   43.5061   51.0625 H   0  0  0  0  0  0
   46.0049   43.4283   49.7329 H   0  0  0  0  0  0
   44.6544   45.1802   44.7174 H   0  0  0  0  0  0
   43.3620   46.3633   44.7805 H   0  0  0  0  0  0
   47.9622   46.4535   40.1741 H   0  0  0  0  0  0
   42.0929   44.8624   48.8793 H   0  0  0  0  0  0
   42.3835   43.2600   49.0919 H   0  0  0  0  0  0
   45.8816   47.0988   48.3625 H   0  0  0  0  0  0
   46.2555   51.5926   43.6423 H   0  0  0  0  0  0
   47.1273   51.1421   42.1763 H   0  0  0  0  0  0
   44.6269   51.9273   38.9471 H   0  0  0  0  0  0
   43.7438   52.5894   40.2595 H   0  0  0  0  0  0
   42.6241   42.0439   50.8267 H   0  0  0  0  0  0
   46.4288   41.2067   48.9784 H   0  0  0  0  0  0
   45.1068   53.4067   42.4518 H   0  0  0  0  0  0
   46.8339   53.5713   42.2826 H   0  0  0  0  0  0
   45.7013   53.9291   40.1030 H   0  0  0  0  0  0
   46.7553   52.5424   40.0319 H   0  0  0  0  0  0
   45.7789   38.8507   48.7454 H   0  0  0  0  0  0
   42.0123   39.6908   50.5804 H   0  0  0  0  0  0
   43.5776   38.0910   49.5448 H   0  0  0  0  0  0
  1  2  1  0  0  0
  1  3  1  0  0  0
  1  5  1  0  0  0
  2  6  1  0  0  0
  2  8  1  0  0  0
  2 35  1  0  0  0
  3  9  1  0  0  0
  3 24  1  0  0  0
  3 33  1  0  0  0
  4  7  1  0  0  0
  4 12  1  0  0  0
  4 13  2  0  0  0
  5 14  1  0  0  0
  5 15  2  0  0  0
  6  9  1  0  0  0
  6 36  1  0  0  0
  6 37  1  0  0  0
  7 11  1  0  0  0
  7 38  1  0  0  0
  8 16  2  0  0  0
  8 20  1  0  0  0
  9 25  1  0  0  0
  9 34  1  0  0  0
 10 11  1  0  0  0
 10 17  2  0  0  0
 10 22  1  0  0  0
 11 19  1  0  0  0
 11 39  1  0  0  0
 12 18  1  0  0  0
 12 21  1  0  0  0
 12 40  1  0  0  0
 14 19  1  0  0  0
 14 41  1  0  0  0
 14 42  1  0  0  0
 18 23  1  0  0  0
 18 43  1  0  0  0
 18 44  1  0  0  0
 19 45  1  0  0  0
 19 46  1  0  0  0
 20 47  1  0  0  0
 21 48  1  0  0  0
 21 49  1  0  0  0
 22 50  1  0  0  0
 23 26  2  0  0  0
 23 27  1  0  0  0
 24 28  1  0  0  0
 24 51  1  0  0  0
 24 52  1  0  0  0
 25 29  1  0  0  0
 25 53  1  0  0  0
 25 54  1  0  0  0
 26 31  1  0  0  0
 26 55  1  0  0  0
 27 30  2  0  0  0
 27 56  1  0  0  0
 28 29  1  0  0  0
 28 57  1  0  0  0
 28 58  1  0  0  0
 29 59  1  0  0  0
 29 60  1  0  0  0
 30 32  1  0  0  0
 30 61  1  0  0  0
 31 32  2  0  0  0
 31 62  1  0  0  0
 32 63  1  0  0  0
M  END
> <s_m_entry_id>
6658

> <s_m_entry_name>
dock_pv.10

> <s_m_Source_Path>
/home/csk/Desktop/cluster/DUD-E-result/ace

> <s_m_Source_File>
dock_pv.maegz

> <i_m_Source_File_Index>
10

> <chembl_id>
CHEMBL310869

> <chembl_pref_name>
None

> <i_lp_mmshare_version>
53161

> <i_f3d_flags>
0

> <r_lp_tautomer_probability>
1

> <s_lp_Force_Field>
OPLS_2005

> <r_lp_Energy>
20.627052

> <b_lp_Chiralities_Consistent>
1

> <s_lp_Variant>
CHEMBL1808_lig178-1

> <s_i_glide_gridfile>
glide-grid_3bkl

> <i_i_glide_lignum>
712

> <i_i_glide_rotatable_bonds>
13

> <r_i_docking_score>
-6.80714688570262

> <r_i_glide_ligand_efficiency>
-0.212723340178207

> <r_i_glide_ligand_efficiency_sa>
-0.675354507173949

> <r_i_glide_ligand_efficiency_ln>
-1.52430574352482

> <r_i_glide_gscore>
-6.80714688570262

> <r_i_glide_lipo>
-1.43554285464618

> <r_i_glide_hbond>
-1.07679226122586

> <r_i_glide_metal>
0

> <r_i_glide_rewards>
-0.077937590999672

> <r_i_glide_evdw>
-27.5831413269043

> <r_i_glide_ecoul>
-23.6175098419189

> <r_i_glide_erotb>
1.00811051068831

> <r_i_glide_esite>
-0.30320114688616

> <r_i_glide_emodel>
-65.4834461665831

> <r_i_glide_energy>
-51.2006511688232

> <r_i_glide_einternal>
17.3350830078125

> <i_i_glide_confnum>
78

> <i_i_glide_posenum>
387

> <r_i_glide_eff_state_penalty>
0

> <s_user_duplicate_titles>
CHEMBL1808_lig178,CHEMBL1808_lig232

> <s_m_subgroup_title>
dock_pv

> <s_m_subgroupid>
dock_pv

> <b_m_subgroup_collapsed>
0

$$$$
142229
                    3D
 Schrodinger Suite 2021-1.
 55 57  0  0  1  0            999 V2000
   44.3788   37.6361   50.5817 C   0  0  0  0  0  0
   45.2773   36.5787   50.4776 C   0  0  0  0  0  0
   46.0358   36.4251   49.3183 C   0  0  0  0  0  0
   45.9069   37.3267   48.2663 C   0  0  0  0  0  0
   45.0165   38.3888   48.3687 C   0  0  0  0  0  0
   44.2533   38.5456   49.5294 C   0  0  0  0  0  0
   43.3217   39.7450   49.6648 C   0  0  0  0  0  0
   43.7181   40.7340   50.7942 C   0  0  1  0  0  0
   45.1896   41.1937   50.7253 C   0  0  0  0  0  0
   45.7050   41.3981   49.6259 O   0  0  0  0  0  0
   45.8595   41.3069   51.8926 N   0  0  0  0  0  0
   47.3054   41.5569   52.0493 C   0  0  0  0  0  0
   47.7872   42.7945   51.2641 C   0  0  0  0  0  0
   48.3352   42.6036   50.1780 O   0  0  0  0  0  0
   47.4920   44.0414   51.7158 N   0  0  0  0  0  0
   47.6313   45.2266   50.8349 C   0  0  2  0  0  0
   47.6313   46.4123   51.8096 C   0  0  0  0  0  0
   48.0431   45.8231   53.1518 C   0  0  0  0  0  0
   47.4629   44.4025   53.1535 C   0  0  1  0  0  0
   46.0793   44.3216   53.8489 C   0  0  0  0  0  0
   45.9558   44.0691   55.0284 O   0  0  0  0  0  0
   45.0447   44.5669   52.9999 O   0  0  0  0  0  0
   46.5999   45.3016   49.6932 C   0  0  0  0  0  0
   45.3738   44.6285   49.7818 C   0  0  0  0  0  0
   44.4692   44.6551   48.7310 C   0  0  0  0  0  0
   44.7797   45.3600   47.5811 C   0  0  0  0  0  0
   45.9953   46.0322   47.4641 C   0  0  0  0  0  0
   46.9088   45.9982   48.5204 C   0  0  0  0  0  0
   43.8530   45.3888   46.5780 O   0  0  0  0  0  0
   42.6532   42.1870   50.5780 S   0  0  0  0  0  0
   46.9191   35.3862   49.2057 O   0  0  0  0  0  0
   43.5074   40.2895   51.7683 H   0  0  0  0  0  0
   48.6133   45.1455   50.3643 H   0  0  0  0  0  0
   48.0821   43.7204   53.7377 H   0  0  0  0  0  0
   43.7962   37.7560   51.4841 H   0  0  0  0  0  0
   45.3830   35.8849   51.2990 H   0  0  0  0  0  0
   46.5061   37.2099   47.3780 H   0  0  0  0  0  0
   44.9362   39.0964   47.5544 H   0  0  0  0  0  0
   43.2786   40.2647   48.7047 H   0  0  0  0  0  0
   42.3066   39.3853   49.8355 H   0  0  0  0  0  0
   45.3524   41.1398   52.7483 H   0  0  0  0  0  0
   47.5708   41.6336   53.1023 H   0  0  0  0  0  0
   47.8363   40.6783   51.6810 H   0  0  0  0  0  0
   48.3530   47.1733   51.5082 H   0  0  0  0  0  0
   46.6530   46.8805   51.8805 H   0  0  0  0  0  0
   49.1310   45.7563   53.2136 H   0  0  0  0  0  0
   47.7524   46.4250   54.0157 H   0  0  0  0  0  0
   44.1928   44.5220   53.4469 H   0  0  0  0  0  0
   45.1119   44.0612   50.6573 H   0  0  0  0  0  0
   43.5251   44.1390   48.8118 H   0  0  0  0  0  0
   46.2268   46.5839   46.5659 H   0  0  0  0  0  0
   47.8525   46.5142   48.4266 H   0  0  0  0  0  0
   43.3247   46.2096   46.6647 H   0  0  0  0  0  0
   42.8105   42.7150   51.7999 H   0  0  0  0  0  0
   46.9209   34.7969   49.9653 H   0  0  0  0  0  0
  1  6  1  0  0  0
  1  2  2  0  0  0
  1 35  1  0  0  0
  2  3  1  0  0  0
  2 36  1  0  0  0
  3  4  2  0  0  0
  3 31  1  0  0  0
  4  5  1  0  0  0
  4 37  1  0  0  0
  5  6  2  0  0  0
  5 38  1  0  0  0
  6  7  1  0  0  0
  7  8  1  0  0  0
  7 39  1  0  0  0
  7 40  1  0  0  0
  8 32  1  0  0  0
  8  9  1  0  0  0
  8 30  1  0  0  0
  9 10  2  0  0  0
  9 11  1  0  0  0
 11 12  1  0  0  0
 11 41  1  0  0  0
 12 13  1  0  0  0
 12 42  1  0  0  0
 12 43  1  0  0  0
 13 14  2  0  0  0
 13 15  1  0  0  0
 15 19  1  0  0  0
 15 16  1  0  0  0
 16 33  1  0  0  0
 16 17  1  0  0  0
 16 23  1  0  0  0
 17 18  1  0  0  0
 17 44  1  0  0  0
 17 45  1  0  0  0
 18 19  1  0  0  0
 18 46  1  0  0  0
 18 47  1  0  0  0
 19 34  1  0  0  0
 19 20  1  0  0  0
 20 21  2  0  0  0
 20 22  1  0  0  0
 22 48  1  0  0  0
 23 28  1  0  0  0
 23 24  2  0  0  0
 24 25  1  0  0  0
 24 49  1  0  0  0
 25 26  2  0  0  0
 25 50  1  0  0  0
 26 27  1  0  0  0
 26 29  1  0  0  0
 27 28  2  0  0  0
 27 51  1  0  0  0
 28 52  1  0  0  0
 29 53  1  0  0  0
 30 54  1  0  0  0
 31 55  1  0  0  0
M  END
> <s_m_entry_id>
7769

> <s_m_entry_name>
ligand_docking-pose.4

> <s_m_Source_Path>
/home/csk/Desktop/cluster/DUD-E-result/ace

> <s_m_Source_File>
ligand_docking-pose.sdf

> <i_m_Source_File_Index>
4

> <i_lp_mmshare_version>
53161

> <r_lp_tautomer_probability>
0.99999999999473

> <s_lp_Force_Field>
OPLS_2005

> <r_lp_Energy>
17.00807

> <b_lp_Chiralities_Consistent>
1

> <s_lp_Variant>
142229-1

> <s_i_glide_gridfile>
glide-grid_3bkl

> <i_i_glide_lignum>
402

> <i_i_glide_rotatable_bonds>
13

> <r_i_docking_score>
-7.03816476627341

> <r_i_glide_ligand_efficiency>
-0.227037573105594

> <r_i_glide_ligand_efficiency_sa>
-0.713211438703423

> <r_i_glide_ligand_efficiency_ln>
-1.58732184864089

> <r_i_glide_gscore>
-7.03816476627341

> <r_i_glide_lipo>
-2.64559038079925

> <r_i_glide_hbond>
-0.431125319976868

> <r_i_glide_metal>
0

> <r_i_glide_rewards>
-0.165855796292013

> <r_i_glide_evdw>
-43.2517204284668

> <r_i_glide_ecoul>
-16.9035816192627

> <r_i_glide_erotb>
0.911036592369936

> <r_i_glide_esite>
-0.00850659726247405

> <r_i_glide_emodel>
-83.8905374528135

> <r_i_glide_energy>
-60.1553020477295

> <r_i_glide_einternal>
17.4160041809082

> <i_i_glide_confnum>
80

> <i_i_glide_posenum>
111

> <r_i_glide_eff_state_penalty>
0

> <i_f3d_flags>
0

> <s_user_duplicate_titles>
142229

> <s_m_subgroup_title>
dock_pv

> <s_m_subgroupid>
dock_pv1

> <b_m_subgroup_collapsed>
0

$$$$
177157
                    3D
 Schrodinger Suite 2021-1.
 51 53  0  0  1  0            999 V2000
   45.9324   37.1582   48.5957 C   0  0  0  0  0  0
   45.4529   38.1998   47.8036 C   0  0  0  0  0  0
   44.5762   39.1338   48.3516 C   0  0  0  0  0  0
   44.1651   39.0148   49.6817 C   0  0  0  0  0  0
   44.6550   37.9707   50.4719 C   0  0  0  0  0  0
   45.5414   37.0431   49.9285 C   0  0  0  0  0  0
   43.1376   39.9885   50.2480 C   0  0  0  0  0  0
   43.7000   41.3775   50.6437 C   0  0  0  0  0  0
   44.5758   41.4701   51.9280 C   0  0  2  0  0  0
   43.8500   40.8818   53.1667 C   0  0  0  0  0  0
   43.9729   39.6993   53.4776 O   0  0  0  0  0  0
   43.0631   41.7868   53.8287 O   0  0  0  0  0  0
   44.9653   42.8648   52.2808 N   0  0  2  0  0  0
   45.8936   43.5736   51.3878 C   0  0  2  0  0  0
   46.7409   44.4460   52.3532 C   0  0  0  0  0  0
   48.0997   44.8912   51.7977 C   0  0  0  0  0  0
   48.0254   45.7057   50.5026 C   0  0  0  0  0  0
   47.3868   44.9540   49.3101 C   0  0  1  0  0  0
   45.9035   44.9561   49.3370 N   0  0  0  0  0  0
   45.1194   44.3993   50.3047 C   0  0  0  0  0  0
   43.8937   44.5619   50.3291 O   0  0  0  0  0  0
   45.3191   45.7685   48.2436 C   0  0  1  0  0  0
   46.3815   46.7911   47.8281 C   0  0  0  0  0  0
   47.8531   45.7871   47.7780 S   0  0  0  0  0  0
   44.7122   44.9930   47.0614 C   0  0  0  0  0  0
   44.6530   43.7871   46.9793 O   0  0  0  0  0  0
   44.2241   45.8053   46.0888 O   0  0  0  0  0  0
   46.6134   36.4334   48.1744 H   0  0  0  0  0  0
   45.7552   38.2878   46.7699 H   0  0  0  0  0  0
   44.2000   39.9385   47.7362 H   0  0  0  0  0  0
   44.3411   37.8686   51.5014 H   0  0  0  0  0  0
   45.9181   36.2335   50.5369 H   0  0  0  0  0  0
   42.3539   40.1235   49.5002 H   0  0  0  0  0  0
   42.6162   39.5230   51.0836 H   0  0  0  0  0  0
   44.3037   41.7263   49.8052 H   0  0  0  0  0  0
   42.8770   42.0934   50.6973 H   0  0  0  0  0  0
   45.4748   40.8626   51.8017 H   0  0  0  0  0  0
   43.0573   42.6463   53.3793 H   0  0  0  0  0  0
   45.3890   42.8808   53.1997 H   0  0  0  0  0  0
   46.5386   42.8379   50.9028 H   0  0  0  0  0  0
   46.1702   45.3224   52.6688 H   0  0  0  0  0  0
   46.9626   43.9047   53.2764 H   0  0  0  0  0  0
   48.6147   45.4829   52.5568 H   0  0  0  0  0  0
   48.7295   44.0145   51.6355 H   0  0  0  0  0  0
   47.4992   46.6444   50.6846 H   0  0  0  0  0  0
   49.0469   45.9958   50.2499 H   0  0  0  0  0  0
   47.8055   43.9491   49.2292 H   0  0  0  0  0  0
   44.4108   46.2590   48.5780 H   0  0  0  0  0  0
   46.2156   47.2630   46.8591 H   0  0  0  0  0  0
   46.4871   47.5743   48.5782 H   0  0  0  0  0  0
   44.1530   46.7316   46.3597 H   0  0  0  0  0  0
  1  6  1  0  0  0
  1  2  2  0  0  0
  1 28  1  0  0  0
  2  3  1  0  0  0
  2 29  1  0  0  0
  3  4  2  0  0  0
  3 30  1  0  0  0
  4  5  1  0  0  0
  4  7  1  0  0  0
  5  6  2  0  0  0
  5 31  1  0  0  0
  6 32  1  0  0  0
  7  8  1  0  0  0
  7 33  1  0  0  0
  7 34  1  0  0  0
  8  9  1  0  0  0
  8 35  1  0  0  0
  8 36  1  0  0  0
  9 10  1  0  0  0
  9 13  1  0  0  0
  9 37  1  0  0  0
 10 11  2  0  0  0
 10 12  1  0  0  0
 12 38  1  0  0  0
 13 14  1  0  0  0
 13 39  1  0  0  0
 14 20  1  0  0  0
 14 15  1  0  0  0
 14 40  1  0  0  0
 15 16  1  0  0  0
 15 41  1  0  0  0
 15 42  1  0  0  0
 16 17  1  0  0  0
 16 43  1  0  0  0
 16 44  1  0  0  0
 17 18  1  0  0  0
 17 45  1  0  0  0
 17 46  1  0  0  0
 18 24  1  0  0  0
 18 19  1  0  0  0
 18 47  1  0  0  0
 19 20  1  0  0  0
 19 22  1  0  0  0
 20 21  2  0  0  0
 22 23  1  0  0  0
 22 25  1  0  0  0
 22 48  1  0  0  0
 23 24  1  0  0  0
 23 49  1  0  0  0
 23 50  1  0  0  0
 25 26  2  0  0  0
 25 27  1  0  0  0
 27 51  1  0  0  0
M  END
> <s_m_entry_id>
7770

> <s_m_entry_name>
ligand_docking-pose.5

> <s_m_Source_Path>
/home/csk/Desktop/cluster/DUD-E-result/ace

> <s_m_Source_File>
ligand_docking-pose.sdf

> <i_m_Source_File_Index>
5

> <i_lp_mmshare_version>
53161

> <r_lp_tautomer_probability>
1

> <s_lp_Force_Field>
OPLS_2005

> <r_lp_Energy>
28.720157

> <b_lp_Chiralities_Consistent>
1

> <s_lp_Variant>
177157-1

> <s_i_glide_gridfile>
glide-grid_3bkl

> <i_i_glide_lignum>
194

> <i_i_glide_rotatable_bonds>
9

> <r_i_docking_score>
-6.87463365315825

> <r_i_glide_ligand_efficiency>
-0.254616061228083

> <r_i_glide_ligand_efficiency_sa>
-0.763848182845077

> <r_i_glide_ligand_efficiency_ln>
-1.60030137726168

> <r_i_glide_gscore>
-6.87463365315825

> <r_i_glide_lipo>
-2.28492494235369

> <r_i_glide_hbond>
-0.304442029558774

> <r_i_glide_metal>
0

> <r_i_glide_rewards>
-0.733157318181817

> <r_i_glide_evdw>
-37.8084030151367

> <r_i_glide_ecoul>
-15.4816274642944

> <r_i_glide_erotb>
0.760554907337033

> <r_i_glide_esite>
-0.1

> <r_i_glide_emodel>
-73.1572985108068

> <r_i_glide_energy>
-53.2900304794312

> <r_i_glide_einternal>
12.5150136947632

> <i_i_glide_confnum>
14

> <i_i_glide_posenum>
240

> <r_i_glide_eff_state_penalty>
0

> <i_f3d_flags>
0

> <s_user_duplicate_titles>
177157

> <s_m_subgroup_title>
dock_pv

> <s_m_subgroupid>
dock_pv1

> <b_m_subgroup_collapsed>
0

$$$$
