CHEMBL1795101_lig8
                    3D
 Schrodinger Suite 2021-1.
 32 32  0  0  1  0            999 V2000
  -36.0400   26.6456   67.5015 S   0  0  0  0  0  0
  -35.3409   27.8322   66.1818 C   0  0  2  0  0  0
  -33.9008   28.3033   66.5504 C   0  0  0  0  0  0
  -33.0621   28.6709   65.3138 C   0  0  0  0  0  0
  -35.5839   27.1102   68.8150 O   0  0  0  0  0  0
  -37.4719   26.4555   67.2394 O   0  0  0  0  0  0
  -35.2965   25.0459   67.2081 C   0  0  0  0  0  0
  -33.5410   29.3590   64.4150 O   0  0  0  0  0  0
  -31.8314   28.1590   65.2494 N   0  0  0  0  0  0
  -31.1850   28.1590   64.0184 O   0  0  0  0  0  0
  -36.3678   28.9723   65.9479 C   0  0  0  0  0  0
  -35.5072   24.4197   65.9815 C   0  0  0  0  0  0
  -34.6080   24.3838   68.2253 C   0  0  0  0  0  0
  -36.7826   29.7462   67.2058 C   0  0  0  0  0  0
  -35.0347   23.1309   65.7592 C   0  0  0  0  0  0
  -34.1623   23.0822   68.0152 C   0  0  0  0  0  0
  -34.3850   22.4590   66.7886 C   0  0  0  0  0  0
  -35.2773   27.2233   65.2822 H   0  0  0  0  0  0
  -33.3883   27.5118   67.1009 H   0  0  0  0  0  0
  -33.9187   29.1594   67.2237 H   0  0  0  0  0  0
  -31.3494   27.5734   65.9330 H   0  0  0  0  0  0
  -30.4044   28.7168   64.1492 H   0  0  0  0  0  0
  -35.9850   29.6785   65.2150 H   0  0  0  0  0  0
  -37.2712   28.5589   65.5008 H   0  0  0  0  0  0
  -36.0612   24.9289   65.2150 H   0  0  0  0  0  0
  -34.4505   24.8545   69.1849 H   0  0  0  0  0  0
  -37.4637   30.5590   66.9585 H   0  0  0  0  0  0
  -37.2984   29.1176   67.9312 H   0  0  0  0  0  0
  -35.9078   30.1634   67.6925 H   0  0  0  0  0  0
  -35.1850   22.6468   64.8044 H   0  0  0  0  0  0
  -33.6453   22.5590   68.8054 H   0  0  0  0  0  0
  -34.0322   21.4505   66.6289 H   0  0  0  0  0  0
  1  2  1  0  0  0
  1  5  2  0  0  0
  1  6  2  0  0  0
  1  7  1  0  0  0
  2  3  1  0  0  0
  2 11  1  0  0  0
  2 18  1  0  0  0
  3  4  1  0  0  0
  3 19  1  0  0  0
  3 20  1  0  0  0
  4  8  2  0  0  0
  4  9  1  0  0  0
  7 12  2  0  0  0
  7 13  1  0  0  0
  9 10  1  0  0  0
  9 21  1  0  0  0
 10 22  1  0  0  0
 11 14  1  0  0  0
 11 23  1  0  0  0
 11 24  1  0  0  0
 12 15  1  0  0  0
 12 25  1  0  0  0
 13 16  2  0  0  0
 13 26  1  0  0  0
 14 27  1  0  0  0
 14 28  1  0  0  0
 14 29  1  0  0  0
 15 17  2  0  0  0
 15 30  1  0  0  0
 16 17  1  0  0  0
 16 31  1  0  0  0
 17 32  1  0  0  0
M  END
> <s_m_entry_id>
39978

> <s_m_entry_name>
dock_pv.2

> <s_m_Source_Path>
/home/csk/Desktop/cluster/DUD-E-result/def

> <s_m_Source_File>
dock_pv.maegz

> <i_m_Source_File_Index>
2

> <chembl_id>
CHEMBL77625

> <chembl_pref_name>
None

> <i_lp_mmshare_version>
53161

> <i_f3d_flags>
0

> <r_lp_tautomer_probability>
1

> <s_lp_Force_Field>
OPLS_2005

> <r_lp_Energy>
15.687991

> <b_lp_Chiralities_Consistent>
1

> <s_lp_Variant>
CHEMBL1795101_lig8-1

> <s_i_glide_gridfile>
glide-grid_1lru

> <i_i_glide_lignum>
19

> <i_i_glide_rotatable_bonds>
7

> <r_i_docking_score>
-9.837247746152

> <r_i_glide_ligand_efficiency>
-0.578661632126588

> <r_i_glide_ligand_efficiency_sa>
-1.48790200050216

> <r_i_glide_ligand_efficiency_ln>
-2.56631887223435

> <r_i_glide_gscore>
-9.837247746152

> <r_i_glide_lipo>
-2.40521672094904

> <r_i_glide_hbond>
-0.47757728496918

> <r_i_glide_metal>
-2.3

> <r_i_glide_rewards>
-1.63707592184707

> <r_i_glide_evdw>
-24.6806774139404

> <r_i_glide_ecoul>
-18.0811710357666

> <r_i_glide_erotb>
1.06593975422394

> <r_i_glide_esite>
-0.137108046548639

> <r_i_glide_emodel>
-68.095325325905

> <r_i_glide_energy>
-42.761848449707

> <r_i_glide_einternal>
5.17753553390503

> <i_i_glide_confnum>
32

> <i_i_glide_posenum>
30

> <r_i_glide_eff_state_penalty>
0

> <s_user_duplicate_titles>
CHEMBL1795101_lig8

> <s_m_subgroup_title>
dock_pv

> <s_m_subgroupid>
dock_pv

> <b_m_subgroup_collapsed>
1

$$$$
CHEMBL1795101_lig25
                    3D
 Schrodinger Suite 2021-1.
 45 45  0  0  1  0            999 V2000
  -36.2133   27.0658   67.5906 S   0  0  0  0  0  0
  -34.7334   27.0362   66.3835 C   0  0  1  0  0  0
  -33.8737   28.3238   66.5746 C   0  0  0  0  0  0
  -37.2845   28.4360   67.1682 C   0  0  0  0  0  0
  -33.0664   28.6623   65.3157 C   0  0  0  0  0  0
  -37.0387   25.8724   67.3799 O   0  0  0  0  0  0
  -35.6830   27.3590   68.9220 O   0  0  0  0  0  0
  -41.4085   31.1756   66.0258 C   0  0  0  0  0  0
  -40.0727   31.3225   66.0029 N   0  0  0  0  0  0
  -33.5844   29.3200   64.4150 O   0  0  0  0  0  0
  -41.9851   30.1592   66.4150 O   0  0  0  0  0  0
  -38.3332   28.7459   68.0377 C   0  0  0  0  0  0
  -37.1423   29.1310   65.9698 C   0  0  0  0  0  0
  -31.8308   28.1590   65.2454 N   0  0  0  0  0  0
  -39.1488   30.3724   66.4506 C   0  0  0  0  0  0
  -39.2694   29.7139   67.6807 C   0  0  0  0  0  0
  -38.0738   30.0992   65.6148 C   0  0  0  0  0  0
  -31.1850   28.1590   64.0150 O   0  0  0  0  0  0
  -33.9116   25.7378   66.6202 C   0  0  0  0  0  0
  -42.2199   32.3407   65.4775 C   0  0  0  0  0  0
  -34.5215   24.4665   65.9958 C   0  0  0  0  0  0
  -33.6682   23.2086   66.2298 C   0  0  0  0  0  0
  -34.2439   21.9792   65.5155 C   0  0  0  0  0  0
  -35.1850   27.0133   65.3916 H   0  0  0  0  0  0
  -34.4940   29.1869   66.8150 H   0  0  0  0  0  0
  -33.2061   28.2131   67.4310 H   0  0  0  0  0  0
  -39.7043   32.0893   65.4574 H   0  0  0  0  0  0
  -38.4384   28.2162   68.9742 H   0  0  0  0  0  0
  -36.3497   28.9058   65.2740 H   0  0  0  0  0  0
  -31.3370   27.5914   65.9357 H   0  0  0  0  0  0
  -40.0853   29.9420   68.3506 H   0  0  0  0  0  0
  -37.9834   30.6119   64.6680 H   0  0  0  0  0  0
  -30.4067   28.7207   64.1433 H   0  0  0  0  0  0
  -33.7663   25.5876   67.6916 H   0  0  0  0  0  0
  -32.9079   25.8539   66.2110 H   0  0  0  0  0  0
  -42.5866   32.9635   66.2935 H   0  0  0  0  0  0
  -41.6134   32.9591   64.8150 H   0  0  0  0  0  0
  -43.0776   31.9765   64.9118 H   0  0  0  0  0  0
  -34.6650   24.6187   64.9252 H   0  0  0  0  0  0
  -35.5140   24.2781   66.3992 H   0  0  0  0  0  0
  -33.5998   23.0054   67.3000 H   0  0  0  0  0  0
  -32.6445   23.3749   65.8971 H   0  0  0  0  0  0
  -33.5849   21.1190   65.6148 H   0  0  0  0  0  0
  -34.3850   22.1608   64.4488 H   0  0  0  0  0  0
  -35.2092   21.7026   65.9372 H   0  0  0  0  0  0
  1  2  1  0  0  0
  1  4  1  0  0  0
  1  6  2  0  0  0
  1  7  2  0  0  0
  2  3  1  0  0  0
  2 19  1  0  0  0
  2 24  1  0  0  0
  3  5  1  0  0  0
  3 25  1  0  0  0
  3 26  1  0  0  0
  4 12  2  0  0  0
  4 13  1  0  0  0
  5 10  2  0  0  0
  5 14  1  0  0  0
  8  9  1  0  0  0
  8 11  2  0  0  0
  8 20  1  0  0  0
  9 15  1  0  0  0
  9 27  1  0  0  0
 12 16  1  0  0  0
 12 28  1  0  0  0
 13 17  2  0  0  0
 13 29  1  0  0  0
 14 18  1  0  0  0
 14 30  1  0  0  0
 15 17  1  0  0  0
 15 16  2  0  0  0
 16 31  1  0  0  0
 17 32  1  0  0  0
 18 33  1  0  0  0
 19 21  1  0  0  0
 19 34  1  0  0  0
 19 35  1  0  0  0
 20 36  1  0  0  0
 20 37  1  0  0  0
 20 38  1  0  0  0
 21 22  1  0  0  0
 21 39  1  0  0  0
 21 40  1  0  0  0
 22 23  1  0  0  0
 22 41  1  0  0  0
 22 42  1  0  0  0
 23 43  1  0  0  0
 23 44  1  0  0  0
 23 45  1  0  0  0
M  END
> <s_m_entry_id>
39979

> <s_m_entry_name>
dock_pv.3

> <s_m_Source_Path>
/home/csk/Desktop/cluster/DUD-E-result/def

> <s_m_Source_File>
dock_pv.maegz

> <i_m_Source_File_Index>
3

> <chembl_id>
CHEMBL78128

> <chembl_pref_name>
None

> <i_lp_mmshare_version>
53161

> <i_f3d_flags>
0

> <r_lp_tautomer_probability>
1

> <s_lp_Force_Field>
OPLS_2005

> <r_lp_Energy>
21.480487

> <b_lp_Chiralities_Consistent>
1

> <s_lp_Variant>
CHEMBL1795101_lig25-2

> <s_i_glide_gridfile>
glide-grid_1lru

> <i_i_glide_lignum>
61

> <i_i_glide_rotatable_bonds>
11

> <r_i_docking_score>
-9.79504658892344

> <r_i_glide_ligand_efficiency>
-0.425871590822758

> <r_i_glide_ligand_efficiency_sa>
-1.21112215353188

> <r_i_glide_ligand_efficiency_ln>
-2.36853108177367

> <r_i_glide_gscore>
-9.79504658892344

> <r_i_glide_lipo>
-2.22834728792022

> <r_i_glide_hbond>
-0.586435812104724

> <r_i_glide_metal>
-2.3

> <r_i_glide_rewards>
-0.739519457309984

> <r_i_glide_evdw>
-29.0890312194824

> <r_i_glide_ecoul>
-23.7689743041992

> <r_i_glide_erotb>
1.29384169276003

> <r_i_glide_esite>
-0.214788017744541

> <r_i_glide_emodel>
-79.8189188531029

> <r_i_glide_energy>
-52.8580055236816

> <r_i_glide_einternal>
11.5292644500732

> <i_i_glide_confnum>
108

> <i_i_glide_posenum>
119

> <r_i_glide_eff_state_penalty>
0

> <s_user_duplicate_titles>
CHEMBL1795101_lig25,121679

> <s_m_subgroup_title>
dock_pv

> <s_m_subgroupid>
dock_pv

> <b_m_subgroup_collapsed>
1

$$$$
CHEMBL1795101_lig18
                    3D
 Schrodinger Suite 2021-1.
 38 38  0  0  1  0            999 V2000
  -35.9386   26.8001   67.5454 S   0  0  2  0  0  0
  -33.8166   28.3237   66.5426 C   0  0  1  0  0  0
  -35.3197   28.0022   66.2600 C   0  0  2  0  0  0
  -32.9809   28.6100   65.2909 C   0  0  0  0  0  0
  -35.1850   27.1763   68.8150 O   0  0  0  0  0  0
  -35.1125   25.2959   66.9251 C   0  0  0  0  0  0
  -33.1850   29.5449   64.5123 O   0  0  0  0  0  0
  -31.9850   27.7590   65.1260 N   0  0  0  0  0  0
  -33.5850   29.3590   67.4661 O   0  0  0  0  0  0
  -36.2467   29.2482   66.1698 C   0  0  0  0  0  0
  -31.1823   27.9399   64.0150 O   0  0  0  0  0  0
  -33.8554   24.9258   67.4066 C   0  0  0  0  0  0
  -35.7682   24.5124   65.9784 C   0  0  0  0  0  0
  -37.7638   28.9603   66.2076 C   0  0  0  0  0  0
  -38.6242   30.1372   65.7178 C   0  0  0  0  0  0
  -40.1296   29.8498   65.8028 C   0  0  0  0  0  0
  -33.2400   23.7878   66.8981 C   0  0  0  0  0  0
  -35.1465   23.3697   65.4819 C   0  0  0  0  0  0
  -33.9008   22.9985   65.9655 C   0  0  0  0  0  0
  -33.3698   27.4658   67.0399 H   0  0  0  0  0  0
  -35.3872   27.4756   65.3086 H   0  0  0  0  0  0
  -31.6144   27.0517   65.7652 H   0  0  0  0  0  0
  -32.6342   29.3707   67.6590 H   0  0  0  0  0  0
  -36.0153   29.7590   65.2356 H   0  0  0  0  0  0
  -36.0157   29.9556   66.9671 H   0  0  0  0  0  0
  -30.3340   28.2381   64.3714 H   0  0  0  0  0  0
  -33.3465   25.5185   68.1532 H   0  0  0  0  0  0
  -36.7422   24.8029   65.6150 H   0  0  0  0  0  0
  -38.0549   28.7138   67.2299 H   0  0  0  0  0  0
  -37.9878   28.0761   65.6150 H   0  0  0  0  0  0
  -38.3659   30.3833   64.6866 H   0  0  0  0  0  0
  -38.3968   31.0244   66.3100 H   0  0  0  0  0  0
  -40.7062   30.6982   65.4319 H   0  0  0  0  0  0
  -40.4361   29.6650   66.8327 H   0  0  0  0  0  0
  -40.4021   28.9782   65.2080 H   0  0  0  0  0  0
  -32.2465   23.5206   67.2150 H   0  0  0  0  0  0
  -35.5851   22.7751   64.7002 H   0  0  0  0  0  0
  -33.4250   22.1110   65.5762 H   0  0  0  0  0  0
  1  3  1  0  0  0
  1  5  2  0  0  0
  1  6  1  0  0  0
  2  3  1  0  0  0
  2  4  1  0  0  0
  2  9  1  0  0  0
  2 20  1  0  0  0
  3 10  1  0  0  0
  3 21  1  0  0  0
  4  7  2  0  0  0
  4  8  1  0  0  0
  6 12  2  0  0  0
  6 13  1  0  0  0
  8 11  1  0  0  0
  8 22  1  0  0  0
  9 23  1  0  0  0
 10 14  1  0  0  0
 10 24  1  0  0  0
 10 25  1  0  0  0
 11 26  1  0  0  0
 12 17  1  0  0  0
 12 27  1  0  0  0
 13 18  2  0  0  0
 13 28  1  0  0  0
 14 15  1  0  0  0
 14 29  1  0  0  0
 14 30  1  0  0  0
 15 16  1  0  0  0
 15 31  1  0  0  0
 15 32  1  0  0  0
 16 33  1  0  0  0
 16 34  1  0  0  0
 16 35  1  0  0  0
 17 19  2  0  0  0
 17 36  1  0  0  0
 18 19  1  0  0  0
 18 37  1  0  0  0
 19 38  1  0  0  0
M  END
> <s_m_entry_id>
39980

> <s_m_entry_name>
dock_pv.4

> <s_m_Source_Path>
/home/csk/Desktop/cluster/DUD-E-result/def

> <s_m_Source_File>
dock_pv.maegz

> <i_m_Source_File_Index>
4

> <chembl_id>
CHEMBL74616

> <chembl_pref_name>
None

> <i_lp_mmshare_version>
53161

> <i_f3d_flags>
0

> <r_lp_tautomer_probability>
1

> <s_lp_Force_Field>
OPLS_2005

> <r_lp_Energy>
17.663657

> <b_lp_Chiralities_Consistent>
1

> <s_lp_Variant>
CHEMBL1795101_lig18-4

> <s_i_glide_gridfile>
glide-grid_1lru

> <i_i_glide_lignum>
41

> <i_i_glide_rotatable_bonds>
10

> <r_i_docking_score>
-9.49158127125861

> <r_i_glide_ligand_efficiency>
-0.499556909013611

> <r_i_glide_ligand_efficiency_sa>
-1.33301847833403

> <r_i_glide_ligand_efficiency_ln>
-2.40631971273756

> <r_i_glide_gscore>
-9.49158127125861

> <r_i_glide_lipo>
-2.50287165530705

> <r_i_glide_hbond>
-1.09542086263211

> <r_i_glide_metal>
-2.3

> <r_i_glide_rewards>
-1.46345133154339

> <r_i_glide_evdw>
-22.5960597991943

> <r_i_glide_ecoul>
-23.7091522216797

> <r_i_glide_erotb>
2.67354139069512

> <r_i_glide_esite>
-0.117202989259511

> <r_i_glide_emodel>
-70.6290302394698

> <r_i_glide_energy>
-46.305212020874

> <r_i_glide_einternal>
5.94636344909668

> <i_i_glide_confnum>
53

> <i_i_glide_posenum>
269

> <r_i_glide_eff_state_penalty>
0

> <s_user_duplicate_titles>
CHEMBL1795101_lig18

> <s_m_subgroup_title>
dock_pv

> <s_m_subgroupid>
dock_pv

> <b_m_subgroup_collapsed>
1

$$$$
CHEMBL1795101_lig10
                    3D
 Schrodinger Suite 2021-1.
 37 37  0  0  1  0            999 V2000
  -35.8610   26.5895   67.6949 S   0  0  2  0  0  0
  -33.9173   28.1660   66.4785 C   0  0  0  0  0  0
  -34.6306   26.7813   66.3191 C   0  0  1  0  0  0
  -33.0866   28.6056   65.2803 C   0  0  0  0  0  0
  -37.2634   27.6331   67.1832 C   0  0  0  0  0  0
  -35.1850   27.3590   68.8152 O   0  0  0  0  0  0
  -33.5850   29.3151   64.4151 O   0  0  0  0  0  0
  -31.8318   28.1589   65.2382 N   0  0  0  0  0  0
  -37.2431   29.0237   67.3287 C   0  0  0  0  0  0
  -38.4376   26.9762   66.8273 C   0  0  0  0  0  0
  -39.5757   29.0993   66.7328 C   0  0  0  0  0  0
  -38.3979   29.7604   67.0764 C   0  0  0  0  0  0
  -39.6012   27.7104   66.6332 C   0  0  0  0  0  0
  -41.1697   30.0903   66.4152 Br  0  0  0  0  0  0
  -31.1849   28.1590   64.0151 O   0  0  0  0  0  0
  -33.6112   25.6187   66.5118 C   0  0  0  0  0  0
  -34.0126   24.2076   66.0283 C   0  0  0  0  0  0
  -35.0043   23.4472   66.9270 C   0  0  0  0  0  0
  -34.9914   21.9345   66.6631 C   0  0  0  0  0  0
  -34.6439   28.9533   66.6410 H   0  0  0  0  0  0
  -33.3106   28.1883   67.3853 H   0  0  0  0  0  0
  -35.1692   26.7086   65.3730 H   0  0  0  0  0  0
  -31.3497   27.5707   65.9187 H   0  0  0  0  0  0
  -36.3634   29.5411   67.6747 H   0  0  0  0  0  0
  -38.4635   25.8980   66.7645 H   0  0  0  0  0  0
  -38.3871   30.8362   67.1811 H   0  0  0  0  0  0
  -40.5161   27.1946   66.3892 H   0  0  0  0  0  0
  -30.4073   28.7201   64.1468 H   0  0  0  0  0  0
  -33.3073   25.5605   67.5594 H   0  0  0  0  0  0
  -32.6875   25.8634   66.0066 H   0  0  0  0  0  0
  -33.0945   23.6193   65.9787 H   0  0  0  0  0  0
  -34.3927   24.2480   65.0069 H   0  0  0  0  0  0
  -36.0124   23.8324   66.7721 H   0  0  0  0  0  0
  -34.7639   23.6180   67.9774 H   0  0  0  0  0  0
  -35.7504   21.4244   67.2566 H   0  0  0  0  0  0
  -34.0240   21.4991   66.9189 H   0  0  0  0  0  0
  -35.1837   21.7157   65.6130 H   0  0  0  0  0  0
  1  3  1  0  0  0
  1  5  1  0  0  0
  1  6  2  0  0  0
  2  3  1  0  0  0
  2  4  1  0  0  0
  2 20  1  0  0  0
  2 21  1  0  0  0
  3 16  1  0  0  0
  3 22  1  0  0  0
  4  7  2  0  0  0
  4  8  1  0  0  0
  5  9  2  0  0  0
  5 10  1  0  0  0
  8 15  1  0  0  0
  8 23  1  0  0  0
  9 12  1  0  0  0
  9 24  1  0  0  0
 10 13  2  0  0  0
 10 25  1  0  0  0
 11 13  1  0  0  0
 11 14  1  0  0  0
 11 12  2  0  0  0
 12 26  1  0  0  0
 13 27  1  0  0  0
 15 28  1  0  0  0
 16 17  1  0  0  0
 16 29  1  0  0  0
 16 30  1  0  0  0
 17 18  1  0  0  0
 17 31  1  0  0  0
 17 32  1  0  0  0
 18 19  1  0  0  0
 18 33  1  0  0  0
 18 34  1  0  0  0
 19 35  1  0  0  0
 19 36  1  0  0  0
 19 37  1  0  0  0
M  END
> <s_m_entry_id>
39981

> <s_m_entry_name>
dock_pv.5

> <s_m_Source_Path>
/home/csk/Desktop/cluster/DUD-E-result/def

> <s_m_Source_File>
dock_pv.maegz

> <i_m_Source_File_Index>
5

> <chembl_id>
CHEMBL306481

> <chembl_pref_name>
None

> <i_lp_mmshare_version>
53161

> <i_f3d_flags>
0

> <r_lp_tautomer_probability>
1

> <s_lp_Force_Field>
OPLS_2005

> <r_lp_Energy>
7.75244

> <b_lp_Chiralities_Consistent>
1

> <s_lp_Variant>
CHEMBL1795101_lig10-1

> <s_i_glide_gridfile>
glide-grid_1lru

> <i_i_glide_lignum>
23

> <i_i_glide_rotatable_bonds>
9

> <r_i_docking_score>
-9.30096715480048

> <r_i_glide_ligand_efficiency>
-0.489524587094762

> <r_i_glide_ligand_efficiency_sa>
-1.30624821401154

> <r_i_glide_ligand_efficiency_ln>
-2.35799494019958

> <r_i_glide_gscore>
-9.30096715480048

> <r_i_glide_lipo>
-1.877081721969

> <r_i_glide_hbond>
-0.815100671072476

> <r_i_glide_metal>
-2.3

> <r_i_glide_rewards>
-0.976336788143568

> <r_i_glide_evdw>
-24.4773006439209

> <r_i_glide_ecoul>
-19.6415596008301

> <r_i_glide_erotb>
0.941652312391534

> <r_i_glide_esite>
-0.104001313686422

> <r_i_glide_emodel>
-64.6340347073497

> <r_i_glide_energy>
-44.118860244751

> <r_i_glide_einternal>
10.9179067611694

> <i_i_glide_confnum>
15

> <i_i_glide_posenum>
228

> <r_i_glide_eff_state_penalty>
0

> <s_user_duplicate_titles>
CHEMBL1795101_lig10,120707

> <s_m_subgroup_title>
dock_pv

> <s_m_subgroupid>
dock_pv

> <b_m_subgroup_collapsed>
1

$$$$
CHEMBL1795101_lig23
                    3D
 Schrodinger Suite 2021-1.
 44 45  0  0  1  0            999 V2000
  -36.5333   27.3739   67.4494 S   0  0  0  0  0  0
  -37.4476   28.9042   67.2135 C   0  0  0  0  0  0
  -35.0620   27.3269   66.2208 C   0  0  1  0  0  0
  -33.9646   28.3951   66.5284 C   0  0  0  0  0  0
  -33.0022   28.6113   65.3356 C   0  0  0  0  0  0
  -38.0188   29.5504   68.3123 C   0  0  0  0  0  0
  -37.4751   26.3253   67.0410 O   0  0  0  0  0  0
  -35.9917   27.3636   68.8148 O   0  0  0  0  0  0
  -38.9039   30.6465   68.1234 C   0  0  0  0  0  0
  -37.7211   29.3583   65.9260 C   0  0  0  0  0  0
  -33.1864   29.5056   64.5083 O   0  0  0  0  0  0
  -39.1833   31.0961   66.7941 C   0  0  0  0  0  0
  -38.5777   30.4313   65.7028 C   0  0  0  0  0  0
  -31.9850   27.7594   65.2163 N   0  0  0  0  0  0
  -31.1850   27.8752   64.0840 O   0  0  0  0  0  0
  -34.5512   25.8543   66.1057 C   0  0  0  0  0  0
  -39.5303   31.3020   69.2128 C   0  0  0  0  0  0
  -40.0547   32.1984   66.6030 C   0  0  0  0  0  0
  -34.4131   25.0203   67.3973 C   0  0  0  0  0  0
  -33.9882   23.5689   67.1034 C   0  0  0  0  0  0
  -34.2111   22.6299   68.2945 C   0  0  0  0  0  0
  -40.3865   32.3775   68.9910 C   0  0  0  0  0  0
  -40.6428   32.8256   67.6984 C   0  0  0  0  0  0
  -35.5115   27.5921   65.2656 H   0  0  0  0  0  0
  -34.4217   29.3570   66.7771 H   0  0  0  0  0  0
  -33.3942   28.1066   67.4134 H   0  0  0  0  0  0
  -37.8310   29.1955   69.3173 H   0  0  0  0  0  0
  -37.2884   28.8695   65.0719 H   0  0  0  0  0  0
  -38.7777   30.7704   64.6946 H   0  0  0  0  0  0
  -31.6432   27.0470   65.8657 H   0  0  0  0  0  0
  -30.3059   28.0819   64.4313 H   0  0  0  0  0  0
  -33.5865   25.8229   65.6148 H   0  0  0  0  0  0
  -35.2317   25.3220   65.4391 H   0  0  0  0  0  0
  -39.3250   30.9740   70.2229 H   0  0  0  0  0  0
  -40.2563   32.5528   65.6014 H   0  0  0  0  0  0
  -35.3688   24.9808   67.9170 H   0  0  0  0  0  0
  -33.7033   25.4895   68.0820 H   0  0  0  0  0  0
  -32.9397   23.5415   66.7994 H   0  0  0  0  0  0
  -34.5599   23.1828   66.2567 H   0  0  0  0  0  0
  -33.9852   21.5987   68.0218 H   0  0  0  0  0  0
  -35.2485   22.6522   68.6267 H   0  0  0  0  0  0
  -33.5856   22.9139   69.1398 H   0  0  0  0  0  0
  -40.8408   32.8815   69.8326 H   0  0  0  0  0  0
  -41.2990   33.6695   67.5439 H   0  0  0  0  0  0
  1  2  1  0  0  0
  1  3  1  0  0  0
  1  7  2  0  0  0
  1  8  2  0  0  0
  2  6  2  0  0  0
  2 10  1  0  0  0
  3  4  1  0  0  0
  3 16  1  0  0  0
  3 24  1  0  0  0
  4  5  1  0  0  0
  4 25  1  0  0  0
  4 26  1  0  0  0
  5 11  2  0  0  0
  5 14  1  0  0  0
  6  9  1  0  0  0
  6 27  1  0  0  0
  9 17  2  0  0  0
  9 12  1  0  0  0
 10 13  2  0  0  0
 10 28  1  0  0  0
 12 13  1  0  0  0
 12 18  2  0  0  0
 13 29  1  0  0  0
 14 15  1  0  0  0
 14 30  1  0  0  0
 15 31  1  0  0  0
 16 19  1  0  0  0
 16 32  1  0  0  0
 16 33  1  0  0  0
 17 22  1  0  0  0
 17 34  1  0  0  0
 18 23  1  0  0  0
 18 35  1  0  0  0
 19 20  1  0  0  0
 19 36  1  0  0  0
 19 37  1  0  0  0
 20 21  1  0  0  0
 20 38  1  0  0  0
 20 39  1  0  0  0
 21 40  1  0  0  0
 21 41  1  0  0  0
 21 42  1  0  0  0
 22 23  2  0  0  0
 22 43  1  0  0  0
 23 44  1  0  0  0
M  END
> <s_m_entry_id>
39982

> <s_m_entry_name>
dock_pv.6

> <s_m_Source_Path>
/home/csk/Desktop/cluster/DUD-E-result/def

> <s_m_Source_File>
dock_pv.maegz

> <i_m_Source_File_Index>
6

> <chembl_id>
CHEMBL78001

> <chembl_pref_name>
None

> <i_lp_mmshare_version>
53161

> <i_f3d_flags>
0

> <r_lp_tautomer_probability>
1

> <s_lp_Force_Field>
OPLS_2005

> <r_lp_Energy>
13.243229

> <b_lp_Chiralities_Consistent>
1

> <s_lp_Variant>
CHEMBL1795101_lig23-2

> <s_i_glide_gridfile>
glide-grid_1lru

> <i_i_glide_lignum>
57

> <i_i_glide_rotatable_bonds>
9

> <r_i_docking_score>
-9.22434472765034

> <r_i_glide_ligand_efficiency>
-0.40105846641958

> <r_i_glide_ligand_efficiency_sa>
-1.14055692844848

> <r_i_glide_ligand_efficiency_ln>
-2.23053019687947

> <r_i_glide_gscore>
-9.22434472765034

> <r_i_glide_lipo>
-1.92443149230029

> <r_i_glide_hbond>
-0.661328502667623

> <r_i_glide_metal>
-2.3

> <r_i_glide_rewards>
-1.12208257127762

> <r_i_glide_evdw>
-27.8787612915039

> <r_i_glide_ecoul>
-18.0490322113037

> <r_i_glide_erotb>
1.00652006366801

> <r_i_glide_esite>
-0.121729328802073

> <r_i_glide_emodel>
-67.7543710288849

> <r_i_glide_energy>
-45.9277935028076

> <r_i_glide_einternal>
13.6402292251587

> <i_i_glide_confnum>
11

> <i_i_glide_posenum>
390

> <r_i_glide_eff_state_penalty>
0

> <s_user_duplicate_titles>
CHEMBL1795101_lig23,121385

> <s_m_subgroup_title>
dock_pv

> <s_m_subgroupid>
dock_pv

> <b_m_subgroup_collapsed>
1

$$$$
CHEMBL1795101_lig141
                    3D
 Schrodinger Suite 2021-1.
 53 55  0  0  1  0            999 V2000
  -33.3551   28.9468   65.0207 C   0  0  0  0  0  0
  -32.6331   27.8481   65.2165 N   0  0  0  0  0  0
  -33.1850   29.7590   64.1176 O   0  0  0  0  0  0
  -32.8954   26.7734   66.1872 C   0  0  0  0  0  0
  -34.3787   26.3562   66.4742 C   0  0  2  0  0  0
  -35.0968   27.3057   67.4651 C   0  0  0  0  0  0
  -34.3942   24.9076   67.0557 C   0  0  0  0  0  0
  -34.8867   23.8481   66.0389 C   0  0  0  0  0  0
  -34.5577   22.4155   66.4687 C   0  0  0  0  0  0
  -35.6934   22.0323   67.4149 C   0  0  0  0  0  0
  -36.9347   22.7605   66.8881 C   0  0  0  0  0  0
  -36.4212   23.8208   65.8946 C   0  0  0  0  0  0
  -34.4661   27.7590   68.4150 O   0  0  0  0  0  0
  -36.3976   27.6192   67.2421 N   0  0  0  0  0  0
  -37.3559   27.7181   68.2984 N   0  0  0  0  0  0
  -38.3089   28.7880   67.9535 C   0  0  0  0  0  0
  -38.1966   28.8388   66.4444 C   0  0  0  0  0  0
  -36.7181   28.6153   66.2172 C   0  0  0  0  0  0
  -37.7140   26.6363   69.0541 C   0  0  0  0  0  0
  -37.3217   25.5004   68.7835 O   0  0  0  0  0  0
  -38.6291   26.8090   70.2541 C   0  0  0  0  0  0
  -38.8585   28.0480   70.8769 C   0  0  0  0  0  0
  -39.6542   28.2061   71.9650 N   0  0  0  0  0  0
  -40.2491   27.1050   72.4825 C   0  0  0  0  0  0
  -40.0750   25.8306   71.9462 C   0  0  0  0  0  0
  -39.2571   25.6884   70.8251 C   0  0  0  0  0  0
  -31.4599   27.7591   64.4476 O   0  0  0  0  0  0
  -34.1718   28.9782   65.7450 H   0  0  0  0  0  0
  -32.3850   26.9925   67.1251 H   0  0  0  0  0  0
  -32.3851   25.8939   65.8081 H   0  0  0  0  0  0
  -34.9296   26.3569   65.5329 H   0  0  0  0  0  0
  -35.0021   24.8205   67.9580 H   0  0  0  0  0  0
  -33.3985   24.6368   67.4146 H   0  0  0  0  0  0
  -34.4208   24.0321   65.0693 H   0  0  0  0  0  0
  -33.5882   22.3429   66.9612 H   0  0  0  0  0  0
  -34.5356   21.7555   65.5993 H   0  0  0  0  0  0
  -35.4605   22.3805   68.4211 H   0  0  0  0  0  0
  -35.8353   20.9561   67.4694 H   0  0  0  0  0  0
  -37.4858   23.2143   67.7108 H   0  0  0  0  0  0
  -37.6246   22.0636   66.4147 H   0  0  0  0  0  0
  -36.6957   23.5592   64.8729 H   0  0  0  0  0  0
  -36.8714   24.7944   66.0941 H   0  0  0  0  0  0
  -37.9652   29.7248   68.3982 H   0  0  0  0  0  0
  -39.3399   28.6039   68.2616 H   0  0  0  0  0  0
  -38.5670   29.7680   66.0079 H   0  0  0  0  0  0
  -38.7803   28.0284   66.0055 H   0  0  0  0  0  0
  -36.1783   29.5473   66.4040 H   0  0  0  0  0  0
  -36.4877   28.2638   65.2150 H   0  0  0  0  0  0
  -38.3850   28.9574   70.5409 H   0  0  0  0  0  0
  -40.8701   27.2606   73.3522 H   0  0  0  0  0  0
  -40.5575   24.9723   72.3899 H   0  0  0  0  0  0
  -39.1114   24.7019   70.4072 H   0  0  0  0  0  0
  -30.7644   27.5630   65.0946 H   0  0  0  0  0  0
  1  2  1  0  0  0
  1  3  2  0  0  0
  1 28  1  0  0  0
  2  4  1  0  0  0
  2 27  1  0  0  0
  4  5  1  0  0  0
  4 29  1  0  0  0
  4 30  1  0  0  0
  5  6  1  0  0  0
  5  7  1  0  0  0
  5 31  1  0  0  0
  6 13  2  0  0  0
  6 14  1  0  0  0
  7  8  1  0  0  0
  7 32  1  0  0  0
  7 33  1  0  0  0
  8  9  1  0  0  0
  8 12  1  0  0  0
  8 34  1  0  0  0
  9 10  1  0  0  0
  9 35  1  0  0  0
  9 36  1  0  0  0
 10 11  1  0  0  0
 10 37  1  0  0  0
 10 38  1  0  0  0
 11 12  1  0  0  0
 11 39  1  0  0  0
 11 40  1  0  0  0
 12 41  1  0  0  0
 12 42  1  0  0  0
 14 15  1  0  0  0
 14 18  1  0  0  0
 15 16  1  0  0  0
 15 19  1  0  0  0
 16 17  1  0  0  0
 16 43  1  0  0  0
 16 44  1  0  0  0
 17 18  1  0  0  0
 17 45  1  0  0  0
 17 46  1  0  0  0
 18 47  1  0  0  0
 18 48  1  0  0  0
 19 20  2  0  0  0
 19 21  1  0  0  0
 21 22  2  0  0  0
 21 26  1  0  0  0
 22 23  1  0  0  0
 22 49  1  0  0  0
 23 24  2  0  0  0
 24 25  1  0  0  0
 24 50  1  0  0  0
 25 26  2  0  0  0
 25 51  1  0  0  0
 26 52  1  0  0  0
 27 53  1  0  0  0
M  END
> <s_m_entry_id>
39983

> <s_m_entry_name>
dock_pv.7

> <s_m_Source_Path>
/home/csk/Desktop/cluster/DUD-E-result/def

> <s_m_Source_File>
dock_pv.maegz

> <i_m_Source_File_Index>
7

> <chembl_id>
CHEMBL1796093

> <chembl_pref_name>
None

> <i_lp_mmshare_version>
53161

> <i_f3d_flags>
0

> <r_lp_tautomer_probability>
1

> <s_lp_Force_Field>
OPLS_2005

> <r_lp_Energy>
65.495289

> <b_lp_Chiralities_Consistent>
1

> <s_lp_Variant>
CHEMBL1795101_lig141-1

> <s_i_glide_gridfile>
glide-grid_1lru

> <i_i_glide_lignum>
186

> <i_i_glide_rotatable_bonds>
10

> <r_i_docking_score>
-9.20946323247147

> <r_i_glide_ligand_efficiency>
-0.341091230832277

> <r_i_glide_ligand_efficiency_sa>
-1.02327369137265

> <r_i_glide_ligand_efficiency_ln>
-2.14381121065182

> <r_i_glide_gscore>
-9.20946323247147

> <r_i_glide_lipo>
-2.45600967397645

> <r_i_glide_hbond>
-1.00865978389882

> <r_i_glide_metal>
-1.7989842487092

> <r_i_glide_rewards>
-0.849651679715675

> <r_i_glide_evdw>
-24.7136402130127

> <r_i_glide_ecoul>
-18.17258644104

> <r_i_glide_erotb>
0.965412130635318

> <r_i_glide_esite>
-0.1

> <r_i_glide_emodel>
-60.1069091162775

> <r_i_glide_energy>
-42.8862266540527

> <r_i_glide_einternal>
17.002197265625

> <i_i_glide_confnum>
603

> <i_i_glide_posenum>
301

> <r_i_glide_eff_state_penalty>
0

> <s_user_duplicate_titles>
CHEMBL1795101_lig141

> <s_m_subgroup_title>
dock_pv

> <s_m_subgroupid>
dock_pv

> <b_m_subgroup_collapsed>
1

$$$$
CHEMBL1795101_lig4
                    3D
 Schrodinger Suite 2021-1.
 42 42  0  0  1  0            999 V2000
  -34.6256   25.9375   67.4326 S   0  0  0  0  0  0
  -35.0670   27.5103   66.4557 C   0  0  2  0  0  0
  -33.8640   28.4952   66.6253 C   0  0  0  0  0  0
  -36.0621   24.8638   67.4925 C   0  0  0  0  0  0
  -33.0733   28.7178   65.3334 C   0  0  0  0  0  0
  -33.5850   25.2256   66.6842 O   0  0  0  0  0  0
  -34.3850   26.3540   68.8150 O   0  0  0  0  0  0
  -33.5746   29.3590   64.4150 O   0  0  0  0  0  0
  -37.1233   25.1703   68.3478 C   0  0  0  0  0  0
  -36.0670   23.6683   66.7734 C   0  0  0  0  0  0
  -31.8612   28.1590   65.2687 N   0  0  0  0  0  0
  -38.2133   23.0961   67.7383 C   0  0  0  0  0  0
  -37.1307   22.7844   66.9211 C   0  0  0  0  0  0
  -38.2065   24.3019   68.4543 C   0  0  0  0  0  0
  -31.1850   28.1590   64.0510 O   0  0  0  0  0  0
  -39.2263   22.1605   67.7845 O   0  0  0  0  0  0
  -36.4188   28.0774   66.9540 C   0  0  0  0  0  0
  -40.3995   22.4409   68.5377 C   0  0  0  0  0  0
  -36.8969   29.3590   66.2475 C   0  0  0  0  0  0
  -38.2793   29.8550   66.7131 C   0  0  0  0  0  0
  -38.3146   30.3392   68.1732 C   0  0  0  0  0  0
  -35.1850   27.1807   65.4218 H   0  0  0  0  0  0
  -34.1832   29.4652   66.9971 H   0  0  0  0  0  0
  -33.1850   28.1486   67.4037 H   0  0  0  0  0  0
  -37.1068   26.0748   68.9389 H   0  0  0  0  0  0
  -35.2355   23.4004   66.1369 H   0  0  0  0  0  0
  -31.3837   27.5948   65.9732 H   0  0  0  0  0  0
  -37.1185   21.8337   66.4150 H   0  0  0  0  0  0
  -39.0178   24.5673   69.1143 H   0  0  0  0  0  0
  -30.3818   28.6760   64.2122 H   0  0  0  0  0  0
  -36.3586   28.2482   68.0290 H   0  0  0  0  0  0
  -37.1920   27.3254   66.8025 H   0  0  0  0  0  0
  -41.0988   21.6115   68.4318 H   0  0  0  0  0  0
  -40.1767   22.5521   69.5999 H   0  0  0  0  0  0
  -40.9001   23.3411   68.1776 H   0  0  0  0  0  0
  -36.9292   29.1803   65.1741 H   0  0  0  0  0  0
  -36.1773   30.1590   66.3938 H   0  0  0  0  0  0
  -39.0215   29.0687   66.5697 H   0  0  0  0  0  0
  -38.5900   30.6780   66.0675 H   0  0  0  0  0  0
  -39.2957   30.7423   68.4254 H   0  0  0  0  0  0
  -37.5850   31.1302   68.3509 H   0  0  0  0  0  0
  -38.1064   29.5327   68.8763 H   0  0  0  0  0  0
  1  2  1  0  0  0
  1  4  1  0  0  0
  1  6  2  0  0  0
  1  7  2  0  0  0
  2  3  1  0  0  0
  2 17  1  0  0  0
  2 22  1  0  0  0
  3  5  1  0  0  0
  3 23  1  0  0  0
  3 24  1  0  0  0
  4  9  1  0  0  0
  4 10  2  0  0  0
  5  8  2  0  0  0
  5 11  1  0  0  0
  9 14  2  0  0  0
  9 25  1  0  0  0
 10 13  1  0  0  0
 10 26  1  0  0  0
 11 15  1  0  0  0
 11 27  1  0  0  0
 12 13  2  0  0  0
 12 16  1  0  0  0
 12 14  1  0  0  0
 13 28  1  0  0  0
 14 29  1  0  0  0
 15 30  1  0  0  0
 16 18  1  0  0  0
 17 19  1  0  0  0
 17 31  1  0  0  0
 17 32  1  0  0  0
 18 33  1  0  0  0
 18 34  1  0  0  0
 18 35  1  0  0  0
 19 20  1  0  0  0
 19 36  1  0  0  0
 19 37  1  0  0  0
 20 21  1  0  0  0
 20 38  1  0  0  0
 20 39  1  0  0  0
 21 40  1  0  0  0
 21 41  1  0  0  0
 21 42  1  0  0  0
M  END
> <s_m_entry_id>
39984

> <s_m_entry_name>
dock_pv.8

> <s_m_Source_Path>
/home/csk/Desktop/cluster/DUD-E-result/def

> <s_m_Source_File>
dock_pv.maegz

> <i_m_Source_File_Index>
8

> <chembl_id>
CHEMBL43447

> <chembl_pref_name>
None

> <i_lp_mmshare_version>
53161

> <i_f3d_flags>
0

> <r_lp_tautomer_probability>
1

> <s_lp_Force_Field>
OPLS_2005

> <r_lp_Energy>
18.227837

> <b_lp_Chiralities_Consistent>
1

> <s_lp_Variant>
CHEMBL1795101_lig4-1

> <s_i_glide_gridfile>
glide-grid_1lru

> <i_i_glide_lignum>
7

> <i_i_glide_rotatable_bonds>
10

> <r_i_docking_score>
-8.89569156386644

> <r_i_glide_ligand_efficiency>
-0.423604360184116

> <r_i_glide_ligand_efficiency_sa>
-1.16869230934638

> <r_i_glide_ligand_efficiency_ln>
-2.19944176372863

> <r_i_glide_gscore>
-8.89569156386644

> <r_i_glide_lipo>
-2.19279125557085

> <r_i_glide_hbond>
-0.454899396630902

> <r_i_glide_metal>
-2.3

> <r_i_glide_rewards>
-1.25690376210378

> <r_i_glide_evdw>
-27.1780567169189

> <r_i_glide_ecoul>
-16.8751831054688

> <r_i_glide_erotb>
1.30908931091855

> <r_i_glide_esite>
-0.110006158813198

> <r_i_glide_emodel>
-66.7910948605655

> <r_i_glide_energy>
-44.0532398223877

> <r_i_glide_einternal>
7.95072555541992

> <i_i_glide_confnum>
137

> <i_i_glide_posenum>
168

> <r_i_glide_eff_state_penalty>
0

> <s_user_duplicate_titles>
CHEMBL1795101_lig4,64017

> <s_m_subgroup_title>
dock_pv

> <s_m_subgroupid>
dock_pv

> <b_m_subgroup_collapsed>
1

$$$$
CHEMBL1795101_lig10
                    3D
 Schrodinger Suite 2021-1.
 37 37  0  0  1  0            999 V2000
  -35.5292   27.3482   68.2455 S   0  0  1  0  0  0
  -33.7977   28.6501   66.5142 C   0  0  0  0  0  0
  -34.4081   27.2253   66.7495 C   0  0  1  0  0  0
  -32.8909   28.8686   65.2865 C   0  0  0  0  0  0
  -37.0567   27.9977   67.4838 C   0  0  0  0  0  0
  -35.8890   25.9553   68.7618 O   0  0  0  0  0  0
  -33.1850   29.6842   64.4150 O   0  0  0  0  0  0
  -31.7699   28.1590   65.2168 N   0  0  0  0  0  0
  -37.2001   29.3590   67.2083 C   0  0  0  0  0  0
  -38.1237   27.1192   67.2917 C   0  0  0  0  0  0
  -39.4678   28.9523   66.4971 C   0  0  0  0  0  0
  -38.4052   29.8327   66.6946 C   0  0  0  0  0  0
  -39.3373   27.6013   66.8150 C   0  0  0  0  0  0
  -41.1143   29.5955   65.7907 Br  0  0  0  0  0  0
  -31.0979   28.1590   64.0150 O   0  0  0  0  0  0
  -33.3050   26.1397   66.9582 C   0  0  0  0  0  0
  -33.6859   24.6935   67.3365 C   0  0  0  0  0  0
  -34.7103   24.0361   66.3943 C   0  0  0  0  0  0
  -34.9175   22.5477   66.7067 C   0  0  0  0  0  0
  -34.6121   29.3589   66.4402 H   0  0  0  0  0  0
  -33.2412   28.9698   67.3960 H   0  0  0  0  0  0
  -35.0390   26.9563   65.8995 H   0  0  0  0  0  0
  -31.3619   27.5108   65.8916 H   0  0  0  0  0  0
  -36.4037   30.0588   67.4100 H   0  0  0  0  0  0
  -38.0217   26.0711   67.5342 H   0  0  0  0  0  0
  -38.5209   30.8830   66.4680 H   0  0  0  0  0  0
  -40.1663   26.9242   66.6725 H   0  0  0  0  0  0
  -30.2986   28.6831   64.1762 H   0  0  0  0  0  0
  -32.5592   26.5023   67.6662 H   0  0  0  0  0  0
  -32.7850   26.0204   66.0150 H   0  0  0  0  0  0
  -34.0129   24.6310   68.3730 H   0  0  0  0  0  0
  -32.7695   24.1013   67.3126 H   0  0  0  0  0  0
  -34.3826   24.1405   65.3589 H   0  0  0  0  0  0
  -35.6664   24.5568   66.4648 H   0  0  0  0  0  0
  -35.6291   22.1007   66.0150 H   0  0  0  0  0  0
  -35.3012   22.4048   67.7176 H   0  0  0  0  0  0
  -33.9850   21.9894   66.6200 H   0  0  0  0  0  0
  1  3  1  0  0  0
  1  5  1  0  0  0
  1  6  2  0  0  0
  2  3  1  0  0  0
  2  4  1  0  0  0
  2 20  1  0  0  0
  2 21  1  0  0  0
  3 16  1  0  0  0
  3 22  1  0  0  0
  4  7  2  0  0  0
  4  8  1  0  0  0
  5  9  2  0  0  0
  5 10  1  0  0  0
  8 15  1  0  0  0
  8 23  1  0  0  0
  9 12  1  0  0  0
  9 24  1  0  0  0
 10 13  2  0  0  0
 10 25  1  0  0  0
 11 13  1  0  0  0
 11 14  1  0  0  0
 11 12  2  0  0  0
 12 26  1  0  0  0
 13 27  1  0  0  0
 15 28  1  0  0  0
 16 17  1  0  0  0
 16 29  1  0  0  0
 16 30  1  0  0  0
 17 18  1  0  0  0
 17 31  1  0  0  0
 17 32  1  0  0  0
 18 19  1  0  0  0
 18 33  1  0  0  0
 18 34  1  0  0  0
 19 35  1  0  0  0
 19 36  1  0  0  0
 19 37  1  0  0  0
M  END
> <s_m_entry_id>
39985

> <s_m_entry_name>
dock_pv.9

> <s_m_Source_Path>
/home/csk/Desktop/cluster/DUD-E-result/def

> <s_m_Source_File>
dock_pv.maegz

> <i_m_Source_File_Index>
9

> <chembl_id>
CHEMBL306481

> <chembl_pref_name>
None

> <i_lp_mmshare_version>
53161

> <i_f3d_flags>
0

> <r_lp_tautomer_probability>
1

> <s_lp_Force_Field>
OPLS_2005

> <r_lp_Energy>
11.022336

> <b_lp_Chiralities_Consistent>
1

> <s_lp_Variant>
CHEMBL1795101_lig10-2

> <s_i_glide_gridfile>
glide-grid_1lru

> <i_i_glide_lignum>
24

> <i_i_glide_rotatable_bonds>
9

> <r_i_docking_score>
-8.89051556137437

> <r_i_glide_ligand_efficiency>
-0.467921871651282

> <r_i_glide_ligand_efficiency_sa>
-1.24860349256186

> <r_i_glide_ligand_efficiency_ln>
-2.25393664557416

> <r_i_glide_gscore>
-8.89051556137437

> <r_i_glide_lipo>
-1.96464435800702

> <r_i_glide_hbond>
-0.8

> <r_i_glide_metal>
-2.3

> <r_i_glide_rewards>
-1.02065337922809

> <r_i_glide_evdw>
-26.5043296813965

> <r_i_glide_ecoul>
-15.4065370559692

> <r_i_glide_erotb>
0.941652312391534

> <r_i_glide_esite>
-0.11067309406558

> <r_i_glide_emodel>
-62.6689757501425

> <r_i_glide_energy>
-41.9108667373657

> <r_i_glide_einternal>
8.35821914672852

> <i_i_glide_confnum>
90

> <i_i_glide_posenum>
197

> <r_i_glide_eff_state_penalty>
0

> <s_user_duplicate_titles>
CHEMBL1795101_lig10

> <s_m_subgroup_title>
dock_pv

> <s_m_subgroupid>
dock_pv

> <b_m_subgroup_collapsed>
1

$$$$
CHEMBL1795101_lig156
                    3D
 Schrodinger Suite 2021-1.
 59 61  0  0  1  0            999 V2000
  -33.5312   28.9588   64.9622 C   0  0  0  0  0  0
  -32.7819   28.0409   65.5505 N   0  0  0  0  0  0
  -33.1848   29.6609   64.0151 O   0  0  0  0  0  0
  -33.0797   27.3990   66.8364 C   0  0  0  0  0  0
  -34.3292   26.4605   66.8389 C   0  0  2  0  0  0
  -35.5128   27.0947   67.6140 C   0  0  0  0  0  0
  -33.9351   25.0907   67.4674 C   0  0  0  0  0  0
  -35.0158   23.9804   67.4445 C   0  0  0  0  0  0
  -35.3010   23.4173   66.0343 C   0  0  0  0  0  0
  -34.7009   22.0113   66.0273 C   0  0  0  0  0  0
  -34.9111   21.5236   67.4584 C   0  0  0  0  0  0
  -34.6315   22.7619   68.3097 C   0  0  0  0  0  0
  -35.3802   27.3469   68.8130 O   0  0  0  0  0  0
  -36.6760   27.3313   66.9619 N   0  0  0  0  0  0
  -37.8829   26.9714   67.5879 N   0  0  0  0  0  0
  -38.7432   28.1496   67.7114 C   0  0  0  0  0  0
  -38.3546   28.9258   66.4680 C   0  0  0  0  0  0
  -36.8737   28.6227   66.2813 C   0  0  0  0  0  0
  -38.3814   25.7207   67.4877 C   0  0  0  0  0  0
  -38.4577   25.1117   66.4204 O   0  0  0  0  0  0
  -39.2796   23.9782   69.0136 C   0  0  0  0  0  0
  -39.9204   23.1426   68.0870 C   0  0  0  0  0  0
  -40.4745   21.9364   68.5041 C   0  0  0  0  0  0
  -40.3884   21.5466   69.8463 C   0  0  0  0  0  0
  -39.7470   22.3814   70.7668 C   0  0  0  0  0  0
  -39.2023   23.5935   70.3538 C   0  0  0  0  0  0
  -40.9829   20.2229   70.3257 C   0  0  0  0  0  0
  -40.0132   19.4516   70.8192 F   0  0  0  0  0  0
  -41.8746   20.4556   71.2895 F   0  0  0  0  0  0
  -41.5935   19.5527   69.3464 F   0  0  0  0  0  0
  -31.5885   27.7599   64.8776 O   0  0  0  0  0  0
  -38.7202   25.2272   68.6957 N   0  0  0  0  0  0
  -34.5013   29.0190   65.4638 H   0  0  0  0  0  0
  -33.1862   28.2015   67.5709 H   0  0  0  0  0  0
  -32.1996   26.8793   67.2003 H   0  0  0  0  0  0
  -34.6340   26.2584   65.8103 H   0  0  0  0  0  0
  -33.6189   25.2519   68.5010 H   0  0  0  0  0  0
  -33.0466   24.7066   66.9613 H   0  0  0  0  0  0
  -35.9387   24.3794   67.8597 H   0  0  0  0  0  0
  -34.8860   24.0215   65.2277 H   0  0  0  0  0  0
  -36.3771   23.3649   65.8655 H   0  0  0  0  0  0
  -33.6381   22.0531   65.7861 H   0  0  0  0  0  0
  -35.1796   21.3615   65.2958 H   0  0  0  0  0  0
  -34.2633   20.6857   67.7199 H   0  0  0  0  0  0
  -35.9443   21.1988   67.5934 H   0  0  0  0  0  0
  -35.1857   22.7360   69.2483 H   0  0  0  0  0  0
  -33.5781   22.7927   68.5800 H   0  0  0  0  0  0
  -38.4643   28.6913   68.6180 H   0  0  0  0  0  0
  -39.8115   27.9242   67.7495 H   0  0  0  0  0  0
  -38.5762   29.9929   66.5328 H   0  0  0  0  0  0
  -38.9173   28.5500   65.6131 H   0  0  0  0  0  0
  -36.2809   29.4257   66.7290 H   0  0  0  0  0  0
  -36.6227   28.5609   65.2222 H   0  0  0  0  0  0
  -40.0189   23.4098   67.0456 H   0  0  0  0  0  0
  -40.9661   21.3111   67.7706 H   0  0  0  0  0  0
  -39.6727   22.0928   71.8063 H   0  0  0  0  0  0
  -38.7151   24.2259   71.0835 H   0  0  0  0  0  0
  -31.0312   27.3043   65.5371 H   0  0  0  0  0  0
  -38.5011   25.8093   69.4908 H   0  0  0  0  0  0
  1  2  1  0  0  0
  1  3  2  0  0  0
  1 33  1  0  0  0
  2  4  1  0  0  0
  2 31  1  0  0  0
  4  5  1  0  0  0
  4 34  1  0  0  0
  4 35  1  0  0  0
  5  6  1  0  0  0
  5  7  1  0  0  0
  5 36  1  0  0  0
  6 13  2  0  0  0
  6 14  1  0  0  0
  7  8  1  0  0  0
  7 37  1  0  0  0
  7 38  1  0  0  0
  8  9  1  0  0  0
  8 12  1  0  0  0
  8 39  1  0  0  0
  9 10  1  0  0  0
  9 40  1  0  0  0
  9 41  1  0  0  0
 10 11  1  0  0  0
 10 42  1  0  0  0
 10 43  1  0  0  0
 11 12  1  0  0  0
 11 44  1  0  0  0
 11 45  1  0  0  0
 12 46  1  0  0  0
 12 47  1  0  0  0
 14 15  1  0  0  0
 14 18  1  0  0  0
 15 16  1  0  0  0
 15 19  1  0  0  0
 16 17  1  0  0  0
 16 48  1  0  0  0
 16 49  1  0  0  0
 17 18  1  0  0  0
 17 50  1  0  0  0
 17 51  1  0  0  0
 18 52  1  0  0  0
 18 53  1  0  0  0
 19 20  2  0  0  0
 19 32  1  0  0  0
 21 22  2  0  0  0
 21 26  1  0  0  0
 21 32  1  0  0  0
 22 23  1  0  0  0
 22 54  1  0  0  0
 23 24  2  0  0  0
 23 55  1  0  0  0
 24 25  1  0  0  0
 24 27  1  0  0  0
 25 26  2  0  0  0
 25 56  1  0  0  0
 26 57  1  0  0  0
 27 28  1  0  0  0
 27 29  1  0  0  0
 27 30  1  0  0  0
 31 58  1  0  0  0
 32 59  1  0  0  0
M  END
> <s_m_entry_id>
39986

> <s_m_entry_name>
dock_pv.10

> <s_m_Source_Path>
/home/csk/Desktop/cluster/DUD-E-result/def

> <s_m_Source_File>
dock_pv.maegz

> <i_m_Source_File_Index>
10

> <chembl_id>
CHEMBL1796227

> <chembl_pref_name>
None

> <i_lp_mmshare_version>
53161

> <i_f3d_flags>
0

> <r_lp_tautomer_probability>
1

> <s_lp_Force_Field>
OPLS_2005

> <r_lp_Energy>
71.510934

> <b_lp_Chiralities_Consistent>
1

> <s_lp_Variant>
CHEMBL1795101_lig156-1

> <s_i_glide_gridfile>
glide-grid_1lru

> <i_i_glide_lignum>
201

> <i_i_glide_rotatable_bonds>
12

> <r_i_docking_score>
-8.81851967578834

> <r_i_glide_ligand_efficiency>
-0.275578739868386

> <r_i_glide_ligand_efficiency_sa>
-0.874907962123559

> <r_i_glide_ligand_efficiency_ln>
-1.97470693917652

> <r_i_glide_gscore>
-8.81851967578834

> <r_i_glide_lipo>
-2.79805024810126

> <r_i_glide_hbond>
-1.28

> <r_i_glide_metal>
-0.201900281134042

> <r_i_glide_rewards>
-0.291704652515239

> <r_i_glide_evdw>
-30.6338157653809

> <r_i_glide_ecoul>
-21.1356887817383

> <r_i_glide_erotb>
0.540156621883598

> <r_i_glide_esite>
-0.0849770103916161

> <r_i_glide_emodel>
-57.1023021111583

> <r_i_glide_energy>
-51.7695045471191

> <r_i_glide_einternal>
32.8802185058594

> <i_i_glide_confnum>
622

> <i_i_glide_posenum>
329

> <r_i_glide_eff_state_penalty>
0

> <s_user_duplicate_titles>
CHEMBL1795101_lig156

> <s_m_subgroup_title>
dock_pv

> <s_m_subgroupid>
dock_pv

> <b_m_subgroup_collapsed>
1

$$$$
CHEMBL1795101_lig47
                    3D
 Schrodinger Suite 2021-1.
 76 78  0  0  1  0            999 V2000
  -39.1446   23.4076   72.2200 N   0  0  0  0  0  0
  -36.5432   27.7166   66.8186 N   0  0  0  0  0  0
  -35.3268   27.3058   67.2175 C   0  0  0  0  0  0
  -38.9767   24.2733   71.1213 C   0  0  0  0  0  0
  -37.6724   28.0698   67.7029 C   0  0  2  0  0  0
  -34.4427   26.6610   66.1298 C   0  0  1  0  0  0
  -38.5635   26.8231   67.6489 C   0  0  0  0  0  0
  -38.6815   25.9503   68.8562 C   0  0  0  0  0  0
  -38.9969   25.6763   71.2513 C   0  0  0  0  0  0
  -38.8377   26.4987   70.1348 C   0  0  0  0  0  0
  -38.8301   23.7366   69.8341 C   0  0  0  0  0  0
  -38.3846   29.4340   67.3336 C   0  0  0  0  0  0
  -32.9200   26.9106   66.3333 C   0  0  0  0  0  0
  -34.7920   25.1527   65.9055 C   0  0  0  0  0  0
  -38.7076   24.5592   68.7158 C   0  0  0  0  0  0
  -32.7407   29.3255   65.6372 C   0  0  0  0  0  0
  -39.7628   22.0687   72.2137 C   0  0  2  0  0  0
  -34.9500   27.3592   68.3896 O   0  0  0  0  0  0
  -39.0602   26.4701   66.5754 O   0  0  0  0  0  0
  -32.3847   28.0461   65.5661 N   0  0  0  0  0  0
  -32.3856   30.1652   64.8152 O   0  0  0  0  0  0
  -39.1869   26.2725   72.4516 F   0  0  0  0  0  0
  -38.9233   23.7413   73.6276 C   0  0  0  0  0  0
  -31.5779   27.7590   64.4672 O   0  0  0  0  0  0
  -35.2919   24.2450   67.0476 C   0  0  0  0  0  0
  -41.5031   20.5971   71.3389 O   0  0  0  0  0  0
  -38.8430   22.4288   74.3929 C   0  0  0  0  0  0
  -41.1183   21.9531   71.4708 C   0  0  0  0  0  0
  -37.6035   30.5584   68.0516 C   0  0  0  0  0  0
  -39.8470   29.5318   67.8476 C   0  0  0  0  0  0
  -38.3658   29.7575   65.8136 C   0  0  0  0  0  0
  -39.8630   21.5751   73.6683 C   0  0  0  0  0  0
  -35.9522   22.9829   66.4713 C   0  0  0  0  0  0
  -34.1921   23.7096   67.9725 C   0  0  0  0  0  0
  -34.6087   22.2750   68.3445 C   0  0  0  0  0  0
  -35.9195   21.9836   67.6128 C   0  0  0  0  0  0
  -36.7718   27.6583   65.8347 H   0  0  0  0  0  0
  -37.3066   28.1627   68.7269 H   0  0  0  0  0  0
  -34.7090   27.1248   65.1774 H   0  0  0  0  0  0
  -38.8629   27.5695   70.2849 H   0  0  0  0  0  0
  -38.8153   22.6657   69.6917 H   0  0  0  0  0  0
  -32.6387   27.0117   67.3819 H   0  0  0  0  0  0
  -32.3851   26.0187   66.0150 H   0  0  0  0  0  0
  -34.0009   24.6436   65.3556 H   0  0  0  0  0  0
  -35.6185   25.1465   65.2145 H   0  0  0  0  0  0
  -38.6108   24.1028   67.7400 H   0  0  0  0  0  0
  -33.3865   29.5174   66.5082 H   0  0  0  0  0  0
  -39.0992   21.4003   71.6623 H   0  0  0  0  0  0
  -37.9806   24.2813   73.7156 H   0  0  0  0  0  0
  -39.7049   24.3992   74.0107 H   0  0  0  0  0  0
  -30.7266   27.5294   64.8719 H   0  0  0  0  0  0
  -36.0408   24.7658   67.6450 H   0  0  0  0  0  0
  -42.3596   20.5608   70.9055 H   0  0  0  0  0  0
  -37.8334   22.0172   74.3530 H   0  0  0  0  0  0
  -39.0902   22.5616   75.4461 H   0  0  0  0  0  0
  -41.8992   22.4996   72.0012 H   0  0  0  0  0  0
  -41.0660   22.3696   70.4661 H   0  0  0  0  0  0
  -36.5453   30.5309   67.7953 H   0  0  0  0  0  0
  -37.9855   31.5473   67.7896 H   0  0  0  0  0  0
  -37.6758   30.4770   69.1376 H   0  0  0  0  0  0
  -40.4854   28.7652   67.4096 H   0  0  0  0  0  0
  -39.9041   29.4445   68.9340 H   0  0  0  0  0  0
  -40.2949   30.4919   67.5855 H   0  0  0  0  0  0
  -38.8061   28.9574   65.2223 H   0  0  0  0  0  0
  -38.9306   30.6646   65.5869 H   0  0  0  0  0  0
  -37.3531   29.9279   65.4435 H   0  0  0  0  0  0
  -39.5769   20.5260   73.7582 H   0  0  0  0  0  0
  -40.8648   21.7005   74.0829 H   0  0  0  0  0  0
  -35.3893   22.5958   65.6179 H   0  0  0  0  0  0
  -36.9713   23.1697   66.1302 H   0  0  0  0  0  0
  -34.0979   24.3446   68.8514 H   0  0  0  0  0  0
  -33.2166   23.7131   67.4815 H   0  0  0  0  0  0
  -33.8416   21.5704   68.0160 H   0  0  0  0  0  0
  -34.7597   22.1646   69.4195 H   0  0  0  0  0  0
  -35.9821   20.9568   67.2562 H   0  0  0  0  0  0
  -36.7705   22.1558   68.2722 H   0  0  0  0  0  0
  1  4  1  0  0  0
  1 17  1  0  0  0
  1 23  1  0  0  0
  2  5  1  0  0  0
  2  3  1  0  0  0
  2 37  1  0  0  0
  3  6  1  0  0  0
  3 18  2  0  0  0
  4  9  2  0  0  0
  4 11  1  0  0  0
  5  7  1  0  0  0
  5 12  1  0  0  0
  5 38  1  0  0  0
  6 13  1  0  0  0
  6 14  1  0  0  0
  6 39  1  0  0  0
  7  8  1  0  0  0
  7 19  2  0  0  0
  8 15  1  0  0  0
  8 10  2  0  0  0
  9 10  1  0  0  0
  9 22  1  0  0  0
 10 40  1  0  0  0
 11 15  2  0  0  0
 11 41  1  0  0  0
 12 29  1  0  0  0
 12 30  1  0  0  0
 12 31  1  0  0  0
 13 20  1  0  0  0
 13 42  1  0  0  0
 13 43  1  0  0  0
 14 25  1  0  0  0
 14 44  1  0  0  0
 14 45  1  0  0  0
 15 46  1  0  0  0
 16 20  1  0  0  0
 16 21  2  0  0  0
 16 47  1  0  0  0
 17 28  1  0  0  0
 17 32  1  0  0  0
 17 48  1  0  0  0
 20 24  1  0  0  0
 23 27  1  0  0  0
 23 49  1  0  0  0
 23 50  1  0  0  0
 24 51  1  0  0  0
 25 33  1  0  0  0
 25 34  1  0  0  0
 25 52  1  0  0  0
 26 28  1  0  0  0
 26 53  1  0  0  0
 27 32  1  0  0  0
 27 54  1  0  0  0
 27 55  1  0  0  0
 28 56  1  0  0  0
 28 57  1  0  0  0
 29 58  1  0  0  0
 29 59  1  0  0  0
 29 60  1  0  0  0
 30 61  1  0  0  0
 30 62  1  0  0  0
 30 63  1  0  0  0
 31 64  1  0  0  0
 31 65  1  0  0  0
 31 66  1  0  0  0
 32 67  1  0  0  0
 32 68  1  0  0  0
 33 36  1  0  0  0
 33 69  1  0  0  0
 33 70  1  0  0  0
 34 35  1  0  0  0
 34 71  1  0  0  0
 34 72  1  0  0  0
 35 36  1  0  0  0
 35 73  1  0  0  0
 35 74  1  0  0  0
 36 75  1  0  0  0
 36 76  1  0  0  0
M  END
> <s_m_entry_id>
39987

> <s_m_entry_name>
dock_pv.11

> <s_m_Source_Path>
/home/csk/Desktop/cluster/DUD-E-result/def

> <s_m_Source_File>
dock_pv.maegz

> <i_m_Source_File_Index>
11

> <chembl_id>
CHEMBL348314

> <chembl_pref_name>
None

> <i_lp_mmshare_version>
53161

> <i_f3d_flags>
0

> <r_lp_tautomer_probability>
0.99990000499975

> <s_lp_Force_Field>
OPLS_2005

> <r_lp_Energy>
76.892861

> <b_lp_Chiralities_Consistent>
1

> <s_lp_Variant>
CHEMBL1795101_lig47-1

> <s_i_glide_gridfile>
glide-grid_1lru

> <i_i_glide_lignum>
83

> <i_i_glide_rotatable_bonds>
15

> <r_i_docking_score>
-8.80984732763254

> <r_i_glide_ligand_efficiency>
-0.244717981323126

> <r_i_glide_ligand_efficiency_sa>
-0.808040969860107

> <r_i_glide_ligand_efficiency_ln>
-1.9220706723206

> <r_i_glide_gscore>
-8.80984732763254

> <r_i_glide_lipo>
-2.55546759907015

> <r_i_glide_hbond>
-0.842223974976098

> <r_i_glide_metal>
-2.01358307181897

> <r_i_glide_rewards>
0.00610382989526903

> <r_i_glide_evdw>
-31.74072265625

> <r_i_glide_ecoul>
-16.3661994934082

> <r_i_glide_erotb>
0.800089322056215

> <r_i_glide_esite>
-0.162799776895077

> <r_i_glide_emodel>
-63.6478670794327

> <r_i_glide_energy>
-48.1069221496582

> <r_i_glide_einternal>
24.6508350372314

> <i_i_glide_confnum>
108

> <i_i_glide_posenum>
94

> <r_i_glide_eff_state_penalty>
0

> <s_user_duplicate_titles>
CHEMBL1795101_lig47

> <s_m_subgroup_title>
dock_pv

> <s_m_subgroupid>
dock_pv

> <b_m_subgroup_collapsed>
1

$$$$
CHEMBL1795101_lig7
                    3D
 Schrodinger Suite 2021-1.
 41 41  0  0  1  0            999 V2000
  -34.3166   26.1937   67.3961 S   0  0  2  0  0  0
  -33.8147   28.7552   66.5376 C   0  0  0  0  0  0
  -34.8937   27.6334   66.3505 C   0  0  2  0  0  0
  -32.9198   28.9496   65.3008 C   0  0  0  0  0  0
  -35.7252   25.0341   67.3916 C   0  0  0  0  0  0
  -34.2717   26.7458   68.8150 O   0  0  0  0  0  0
  -33.1850   29.7590   64.4150 O   0  0  0  0  0  0
  -31.8561   28.1590   65.2186 N   0  0  0  0  0  0
  -35.5878   23.8148   66.7345 C   0  0  0  0  0  0
  -36.8516   25.2934   68.1749 C   0  0  0  0  0  0
  -37.7673   23.1425   67.5542 C   0  0  0  0  0  0
  -37.8886   24.3670   68.2262 C   0  0  0  0  0  0
  -36.5972   22.8637   66.8507 C   0  0  0  0  0  0
  -31.1773   28.1590   64.0151 O   0  0  0  0  0  0
  -38.7347   22.1592   67.5413 O   0  0  0  0  0  0
  -36.3390   28.0780   66.7048 C   0  0  0  0  0  0
  -40.0024   22.4197   68.1315 C   0  0  0  0  0  0
  -36.9144   29.2333   65.8654 C   0  0  0  0  0  0
  -38.4176   29.4673   66.0988 C   0  0  0  0  0  0
  -39.0240   30.4726   65.1080 C   0  0  0  0  0  0
  -34.2706   29.7018   66.8150 H   0  0  0  0  0  0
  -33.1850   28.5661   67.4057 H   0  0  0  0  0  0
  -34.9007   27.2548   65.3259 H   0  0  0  0  0  0
  -31.4642   27.5043   65.8960 H   0  0  0  0  0  0
  -34.6872   23.5834   66.1843 H   0  0  0  0  0  0
  -36.9253   26.2112   68.7397 H   0  0  0  0  0  0
  -38.7630   24.6024   68.8128 H   0  0  0  0  0  0
  -36.4731   21.8869   66.4150 H   0  0  0  0  0  0
  -30.3495   28.6268   64.1992 H   0  0  0  0  0  0
  -36.4092   28.3198   67.7663 H   0  0  0  0  0  0
  -37.0043   27.2371   66.5218 H   0  0  0  0  0  0
  -40.6529   21.5590   67.9756 H   0  0  0  0  0  0
  -39.9179   22.5805   69.2071 H   0  0  0  0  0  0
  -40.4869   23.2839   67.6740 H   0  0  0  0  0  0
  -36.7576   29.0089   64.8150 H   0  0  0  0  0  0
  -36.3832   30.1590   66.0679 H   0  0  0  0  0  0
  -38.5764   29.8203   67.1190 H   0  0  0  0  0  0
  -38.9580   28.5237   66.0147 H   0  0  0  0  0  0
  -40.0809   30.6407   65.3153 H   0  0  0  0  0  0
  -38.9432   30.1179   64.0799 H   0  0  0  0  0  0
  -38.5230   31.4392   65.1598 H   0  0  0  0  0  0
  1  3  1  0  0  0
  1  5  1  0  0  0
  1  6  2  0  0  0
  2  3  1  0  0  0
  2  4  1  0  0  0
  2 21  1  0  0  0
  2 22  1  0  0  0
  3 16  1  0  0  0
  3 23  1  0  0  0
  4  7  2  0  0  0
  4  8  1  0  0  0
  5  9  2  0  0  0
  5 10  1  0  0  0
  8 14  1  0  0  0
  8 24  1  0  0  0
  9 13  1  0  0  0
  9 25  1  0  0  0
 10 12  2  0  0  0
 10 26  1  0  0  0
 11 12  1  0  0  0
 11 15  1  0  0  0
 11 13  2  0  0  0
 12 27  1  0  0  0
 13 28  1  0  0  0
 14 29  1  0  0  0
 15 17  1  0  0  0
 16 18  1  0  0  0
 16 30  1  0  0  0
 16 31  1  0  0  0
 17 32  1  0  0  0
 17 33  1  0  0  0
 17 34  1  0  0  0
 18 19  1  0  0  0
 18 35  1  0  0  0
 18 36  1  0  0  0
 19 20  1  0  0  0
 19 37  1  0  0  0
 19 38  1  0  0  0
 20 39  1  0  0  0
 20 40  1  0  0  0
 20 41  1  0  0  0
M  END
> <s_m_entry_id>
39988

> <s_m_entry_name>
dock_pv.12

> <s_m_Source_Path>
/home/csk/Desktop/cluster/DUD-E-result/def

> <s_m_Source_File>
dock_pv.maegz

> <i_m_Source_File_Index>
12

> <chembl_id>
CHEMBL77579

> <chembl_pref_name>
None

> <i_lp_mmshare_version>
53161

> <i_f3d_flags>
0

> <r_lp_tautomer_probability>
1

> <s_lp_Force_Field>
OPLS_2005

> <r_lp_Energy>
20.248324

> <b_lp_Chiralities_Consistent>
1

> <s_lp_Variant>
CHEMBL1795101_lig7-3

> <s_i_glide_gridfile>
glide-grid_1lru

> <i_i_glide_lignum>
17

> <i_i_glide_rotatable_bonds>
10

> <r_i_docking_score>
-8.78685080301041

> <r_i_glide_ligand_efficiency>
-0.43934254015052

> <r_i_glide_ligand_efficiency_sa>
-1.19255912951327

> <r_i_glide_ligand_efficiency_ln>
-2.19905894625792

> <r_i_glide_gscore>
-8.78685080301041

> <r_i_glide_lipo>
-2.36119883852081

> <r_i_glide_hbond>
-1.20244994644181

> <r_i_glide_metal>
-2.3

> <r_i_glide_rewards>
-1.36487450476832

> <r_i_glide_evdw>
-26.4317150115967

> <r_i_glide_ecoul>
-20.0355091094971

> <r_i_glide_erotb>
2.86858460372492

> <r_i_glide_esite>
-0.1

> <r_i_glide_emodel>
-67.2910393118055

> <r_i_glide_energy>
-46.4672241210938

> <r_i_glide_einternal>
7.5296049118042

> <i_i_glide_confnum>
28

> <i_i_glide_posenum>
199

> <r_i_glide_eff_state_penalty>
0

> <s_user_duplicate_titles>
CHEMBL1795101_lig7,121511

> <s_m_subgroup_title>
dock_pv

> <s_m_subgroupid>
dock_pv

> <b_m_subgroup_collapsed>
1

$$$$
CHEMBL1795101_lig19
                    3D
 Schrodinger Suite 2021-1.
 41 41  0  0  1  0            999 V2000
  -35.3112   26.6290   68.0614 S   0  0  2  0  0  0
  -33.8232   28.5752   66.6495 C   0  0  0  0  0  0
  -35.3978   24.9893   67.3089 C   0  0  0  0  0  0
  -35.0693   27.6444   66.5158 C   0  0  2  0  0  0
  -33.0469   28.7364   65.3381 C   0  0  0  0  0  0
  -36.6025   24.2865   67.3129 C   0  0  0  0  0  0
  -33.9850   26.6071   68.8150 O   0  0  0  0  0  0
  -33.5584   29.3590   64.4150 O   0  0  0  0  0  0
  -31.8429   28.1590   65.2535 N   0  0  0  0  0  0
  -36.6342   22.9567   66.8651 C   0  0  0  0  0  0
  -31.1850   28.1590   64.0257 O   0  0  0  0  0  0
  -34.2234   24.3983   66.8413 C   0  0  0  0  0  0
  -37.7612   22.1592   66.8419 O   0  0  0  0  0  0
  -36.3914   28.3753   66.1752 C   0  0  0  0  0  0
  -34.2530   23.0871   66.3823 C   0  0  0  0  0  0
  -35.4480   22.3735   66.4150 C   0  0  0  0  0  0
  -38.9872   22.6648   67.3575 C   0  0  0  0  0  0
  -36.9133   29.3921   67.2153 C   0  0  0  0  0  0
  -38.2187   30.0934   66.7928 C   0  0  0  0  0  0
  -39.4480   29.1712   66.7600 C   0  0  0  0  0  0
  -34.0568   29.5401   67.0939 H   0  0  0  0  0  0
  -33.1139   28.1417   67.3486 H   0  0  0  0  0  0
  -34.9037   26.9444   65.6933 H   0  0  0  0  0  0
  -37.4883   24.7671   67.6976 H   0  0  0  0  0  0
  -31.3443   27.6154   65.9594 H   0  0  0  0  0  0
  -30.3967   28.7032   64.1672 H   0  0  0  0  0  0
  -33.2892   24.9432   66.8588 H   0  0  0  0  0  0
  -37.1568   27.6161   66.0150 H   0  0  0  0  0  0
  -36.2791   28.8778   65.2150 H   0  0  0  0  0  0
  -33.3516   22.6203   66.0153 H   0  0  0  0  0  0
  -35.4608   21.3583   66.0588 H   0  0  0  0  0  0
  -39.7587   21.9018   67.2523 H   0  0  0  0  0  0
  -38.9030   22.9063   68.4180 H   0  0  0  0  0  0
  -39.3235   23.5491   66.8150 H   0  0  0  0  0  0
  -36.1596   30.1590   67.3863 H   0  0  0  0  0  0
  -37.0671   28.9080   68.1802 H   0  0  0  0  0  0
  -38.0871   30.5588   65.8145 H   0  0  0  0  0  0
  -38.4157   30.9129   67.4862 H   0  0  0  0  0  0
  -40.3458   29.7367   66.5100 H   0  0  0  0  0  0
  -39.6125   28.6986   67.7290 H   0  0  0  0  0  0
  -39.3411   28.3835   66.0151 H   0  0  0  0  0  0
  1  3  1  0  0  0
  1  4  1  0  0  0
  1  7  2  0  0  0
  2  4  1  0  0  0
  2  5  1  0  0  0
  2 21  1  0  0  0
  2 22  1  0  0  0
  3  6  2  0  0  0
  3 12  1  0  0  0
  4 14  1  0  0  0
  4 23  1  0  0  0
  5  8  2  0  0  0
  5  9  1  0  0  0
  6 10  1  0  0  0
  6 24  1  0  0  0
  9 11  1  0  0  0
  9 25  1  0  0  0
 10 13  1  0  0  0
 10 16  2  0  0  0
 11 26  1  0  0  0
 12 15  2  0  0  0
 12 27  1  0  0  0
 13 17  1  0  0  0
 14 18  1  0  0  0
 14 28  1  0  0  0
 14 29  1  0  0  0
 15 16  1  0  0  0
 15 30  1  0  0  0
 16 31  1  0  0  0
 17 32  1  0  0  0
 17 33  1  0  0  0
 17 34  1  0  0  0
 18 19  1  0  0  0
 18 35  1  0  0  0
 18 36  1  0  0  0
 19 20  1  0  0  0
 19 37  1  0  0  0
 19 38  1  0  0  0
 20 39  1  0  0  0
 20 40  1  0  0  0
 20 41  1  0  0  0
M  END
> <s_m_entry_id>
39989

> <s_m_entry_name>
dock_pv.13

> <s_m_Source_Path>
/home/csk/Desktop/cluster/DUD-E-result/def

> <s_m_Source_File>
dock_pv.maegz

> <i_m_Source_File_Index>
13

> <chembl_id>
CHEMBL77578

> <chembl_pref_name>
None

> <i_lp_mmshare_version>
53161

> <i_f3d_flags>
0

> <r_lp_tautomer_probability>
1

> <s_lp_Force_Field>
OPLS_2005

> <r_lp_Energy>
19.20582

> <b_lp_Chiralities_Consistent>
1

> <s_lp_Variant>
CHEMBL1795101_lig19-4

> <s_i_glide_gridfile>
glide-grid_1lru

> <i_i_glide_lignum>
45

> <i_i_glide_rotatable_bonds>
10

> <r_i_docking_score>
-8.65810901997135

> <r_i_glide_ligand_efficiency>
-0.432905450998568

> <r_i_glide_ligand_efficiency_sa>
-1.17508618133706

> <r_i_glide_ligand_efficiency_ln>
-2.16683912415144

> <r_i_glide_gscore>
-8.65810901997135

> <r_i_glide_lipo>
-2.69878766864682

> <r_i_glide_hbond>
-0.897333379980955

> <r_i_glide_metal>
-2.3

> <r_i_glide_rewards>
-1.36724297085575

> <r_i_glide_evdw>
-28.7745456695557

> <r_i_glide_ecoul>
-18.1571388244629

> <r_i_glide_erotb>
2.86858460372492

> <r_i_glide_esite>
-0.101031497065535

> <r_i_glide_emodel>
-64.4566424376615

> <r_i_glide_energy>
-46.9316844940186

> <r_i_glide_einternal>
12.1883563995361

> <i_i_glide_confnum>
15

> <i_i_glide_posenum>
223

> <r_i_glide_eff_state_penalty>
0

> <s_user_duplicate_titles>
CHEMBL1795101_lig19,121510

> <s_m_subgroup_title>
dock_pv

> <s_m_subgroupid>
dock_pv

> <b_m_subgroup_collapsed>
1

$$$$
CHEMBL1795101_lig19
                    3D
 Schrodinger Suite 2021-1.
 41 41  0  0  1  0            999 V2000
  -33.7454   26.0775   67.3882 S   0  0  1  0  0  0
  -34.0004   28.6050   66.3970 C   0  0  0  0  0  0
  -34.7490   24.5854   67.2177 C   0  0  0  0  0  0
  -34.7458   27.2457   66.3291 C   0  0  2  0  0  0
  -33.0165   28.8491   65.2530 C   0  0  0  0  0  0
  -35.8599   24.4156   68.0417 C   0  0  0  0  0  0
  -33.9850   26.5590   68.8150 O   0  0  0  0  0  0
  -33.1850   29.7383   64.4150 O   0  0  0  0  0  0
  -31.9850   28.0176   65.2150 N   0  0  0  0  0  0
  -36.6955   23.3171   67.8856 C   0  0  0  0  0  0
  -31.1850   28.0895   64.0881 O   0  0  0  0  0  0
  -34.3991   23.6101   66.2887 C   0  0  0  0  0  0
  -37.8394   23.3219   68.6559 O   0  0  0  0  0  0
  -36.2240   27.3197   66.8268 C   0  0  0  0  0  0
  -35.1850   22.4674   66.1750 C   0  0  0  0  0  0
  -36.3361   22.3258   66.9567 C   0  0  0  0  0  0
  -38.7942   22.2889   68.4826 C   0  0  0  0  0  0
  -37.0913   28.4713   66.2710 C   0  0  0  0  0  0
  -38.6003   28.2417   66.4529 C   0  0  0  0  0  0
  -39.4434   29.3590   65.8212 C   0  0  0  0  0  0
  -34.7503   29.3590   66.2797 H   0  0  0  0  0  0
  -33.5485   28.8119   67.3685 H   0  0  0  0  0  0
  -34.7386   26.8358   65.3164 H   0  0  0  0  0  0
  -36.1142   25.1694   68.7720 H   0  0  0  0  0  0
  -31.6719   27.3136   65.8835 H   0  0  0  0  0  0
  -30.3290   28.3990   64.4141 H   0  0  0  0  0  0
  -33.5262   23.7316   65.6653 H   0  0  0  0  0  0
  -36.2586   27.3604   67.9161 H   0  0  0  0  0  0
  -36.7144   26.3917   66.5340 H   0  0  0  0  0  0
  -34.9175   21.7041   65.4584 H   0  0  0  0  0  0
  -36.9450   21.4480   66.8150 H   0  0  0  0  0  0
  -39.6875   22.5182   69.0633 H   0  0  0  0  0  0
  -39.0964   22.1652   67.4409 H   0  0  0  0  0  0
  -38.3850   21.3590   68.8616 H   0  0  0  0  0  0
  -36.8680   28.6132   65.2150 H   0  0  0  0  0  0
  -36.8330   29.4083   66.7662 H   0  0  0  0  0  0
  -38.8328   28.1694   67.5164 H   0  0  0  0  0  0
  -38.8806   27.2832   66.0156 H   0  0  0  0  0  0
  -40.5083   29.1690   65.9518 H   0  0  0  0  0  0
  -39.2506   29.4453   64.7509 H   0  0  0  0  0  0
  -39.2218   30.3259   66.2751 H   0  0  0  0  0  0
  1  3  1  0  0  0
  1  4  1  0  0  0
  1  7  2  0  0  0
  2  4  1  0  0  0
  2  5  1  0  0  0
  2 21  1  0  0  0
  2 22  1  0  0  0
  3  6  2  0  0  0
  3 12  1  0  0  0
  4 14  1  0  0  0
  4 23  1  0  0  0
  5  8  2  0  0  0
  5  9  1  0  0  0
  6 10  1  0  0  0
  6 24  1  0  0  0
  9 11  1  0  0  0
  9 25  1  0  0  0
 10 13  1  0  0  0
 10 16  2  0  0  0
 11 26  1  0  0  0
 12 15  2  0  0  0
 12 27  1  0  0  0
 13 17  1  0  0  0
 14 18  1  0  0  0
 14 28  1  0  0  0
 14 29  1  0  0  0
 15 16  1  0  0  0
 15 30  1  0  0  0
 16 31  1  0  0  0
 17 32  1  0  0  0
 17 33  1  0  0  0
 17 34  1  0  0  0
 18 19  1  0  0  0
 18 35  1  0  0  0
 18 36  1  0  0  0
 19 20  1  0  0  0
 19 37  1  0  0  0
 19 38  1  0  0  0
 20 39  1  0  0  0
 20 40  1  0  0  0
 20 41  1  0  0  0
M  END
> <s_m_entry_id>
39990

> <s_m_entry_name>
dock_pv.14

> <s_m_Source_Path>
/home/csk/Desktop/cluster/DUD-E-result/def

> <s_m_Source_File>
dock_pv.maegz

> <i_m_Source_File_Index>
14

> <chembl_id>
CHEMBL77578

> <chembl_pref_name>
None

> <i_lp_mmshare_version>
53161

> <i_f3d_flags>
0

> <r_lp_tautomer_probability>
1

> <s_lp_Force_Field>
OPLS_2005

> <r_lp_Energy>
19.850524

> <b_lp_Chiralities_Consistent>
1

> <s_lp_Variant>
CHEMBL1795101_lig19-3

> <s_i_glide_gridfile>
glide-grid_1lru

> <i_i_glide_lignum>
44

> <i_i_glide_rotatable_bonds>
10

> <r_i_docking_score>
-8.62844427534537

> <r_i_glide_ligand_efficiency>
-0.431422213767269

> <r_i_glide_ligand_efficiency_sa>
-1.17106005607085

> <r_i_glide_ligand_efficiency_ln>
-2.15941501698031

> <r_i_glide_gscore>
-8.62844427534537

> <r_i_glide_lipo>
-2.61510464678032

> <r_i_glide_hbond>
-1.15087504915765

> <r_i_glide_metal>
-2.3

> <r_i_glide_rewards>
-1.36618635964599

> <r_i_glide_evdw>
-28.2796611785889

> <r_i_glide_ecoul>
-17.0058650970459

> <r_i_glide_erotb>
2.86858460372492

> <r_i_glide_esite>
-0.1

> <r_i_glide_emodel>
-66.1857329607186

> <r_i_glide_energy>
-45.2855262756348

> <r_i_glide_einternal>
8.10105800628662

> <i_i_glide_confnum>
1

> <i_i_glide_posenum>
294

> <r_i_glide_eff_state_penalty>
0

> <s_user_duplicate_titles>
CHEMBL1795101_lig19

> <s_m_subgroup_title>
dock_pv

> <s_m_subgroupid>
dock_pv

> <b_m_subgroup_collapsed>
1

$$$$
CHEMBL1795101_lig148
                    3D
 Schrodinger Suite 2021-1.
 56 58  0  0  1  0            999 V2000
  -33.4034   28.9590   65.3286 C   0  0  0  0  0  0
  -32.8204   27.7793   65.4507 N   0  0  0  0  0  0
  -33.1850   29.7585   64.4150 O   0  0  0  0  0  0
  -33.1090   26.7181   66.4255 C   0  0  0  0  0  0
  -34.5998   26.2827   66.6414 C   0  0  2  0  0  0
  -35.4800   27.3216   67.3497 C   0  0  0  0  0  0
  -34.6410   25.0101   67.5484 C   0  0  0  0  0  0
  -35.1895   23.7813   66.8261 C   0  0  0  0  0  0
  -34.1836   23.2503   65.8000 C   0  0  0  0  0  0
  -34.4029   21.7541   65.7896 C   0  0  0  0  0  0
  -34.8422   21.3764   67.2102 C   0  0  0  0  0  0
  -35.4850   22.6265   67.8008 C   0  0  0  0  0  0
  -35.0624   27.7590   68.4150 O   0  0  0  0  0  0
  -36.7162   27.6088   66.8693 N   0  0  0  0  0  0
  -37.8095   27.4796   67.7449 N   0  0  0  0  0  0
  -38.4739   28.7828   67.9109 C   0  0  0  0  0  0
  -37.6327   29.7192   67.0539 C   0  0  0  0  0  0
  -36.9730   28.7971   66.0420 C   0  0  0  0  0  0
  -38.5305   26.3392   67.7420 C   0  0  0  0  0  0
  -39.2768   26.0294   66.8132 O   0  0  0  0  0  0
  -38.7438   24.3005   69.1617 C   0  0  0  0  0  0
  -38.3938   23.8306   70.4311 C   0  0  0  0  0  0
  -38.8128   22.5722   70.8534 C   0  0  0  0  0  0
  -39.5760   21.7757   70.0037 C   0  0  0  0  0  0
  -39.9241   22.2280   68.7338 C   0  0  0  0  0  0
  -39.5079   23.4853   68.3084 C   0  0  0  0  0  0
  -31.5850   27.7590   64.8137 O   0  0  0  0  0  0
  -38.2794   25.5890   68.8355 N   0  0  0  0  0  0
  -34.1087   29.1173   66.1510 H   0  0  0  0  0  0
  -32.6302   26.9691   67.3747 H   0  0  0  0  0  0
  -32.5805   25.8299   66.0819 H   0  0  0  0  0  0
  -35.0447   26.0761   65.6650 H   0  0  0  0  0  0
  -35.2446   25.1389   68.4526 H   0  0  0  0  0  0
  -33.6532   24.7853   67.9574 H   0  0  0  0  0  0
  -36.1207   24.0506   66.3214 H   0  0  0  0  0  0
  -33.1526   23.4725   66.0813 H   0  0  0  0  0  0
  -34.3612   23.6815   64.8148 H   0  0  0  0  0  0
  -33.5175   21.2098   65.4660 H   0  0  0  0  0  0
  -35.1848   21.5089   65.0812 H   0  0  0  0  0  0
  -33.9852   21.0685   67.8092 H   0  0  0  0  0  0
  -35.5624   20.5591   67.2151 H   0  0  0  0  0  0
  -36.5628   22.4873   67.8999 H   0  0  0  0  0  0
  -35.1036   22.8103   68.8070 H   0  0  0  0  0  0
  -38.4728   29.0925   68.9579 H   0  0  0  0  0  0
  -39.5102   28.7700   67.5630 H   0  0  0  0  0  0
  -36.8610   30.1851   67.6715 H   0  0  0  0  0  0
  -38.2015   30.5343   66.6037 H   0  0  0  0  0  0
  -36.1029   29.2565   65.5816 H   0  0  0  0  0  0
  -37.6729   28.5586   65.2394 H   0  0  0  0  0  0
  -37.8004   24.4366   71.1014 H   0  0  0  0  0  0
  -38.5437   22.2130   71.8357 H   0  0  0  0  0  0
  -39.9006   20.7994   70.3315 H   0  0  0  0  0  0
  -40.5188   21.6117   68.0770 H   0  0  0  0  0  0
  -39.7956   23.7937   67.3168 H   0  0  0  0  0  0
  -30.9744   27.4038   65.4819 H   0  0  0  0  0  0
  -37.6623   25.9986   69.5212 H   0  0  0  0  0  0
  1  2  1  0  0  0
  1  3  2  0  0  0
  1 29  1  0  0  0
  2  4  1  0  0  0
  2 27  1  0  0  0
  4  5  1  0  0  0
  4 30  1  0  0  0
  4 31  1  0  0  0
  5  6  1  0  0  0
  5  7  1  0  0  0
  5 32  1  0  0  0
  6 13  2  0  0  0
  6 14  1  0  0  0
  7  8  1  0  0  0
  7 33  1  0  0  0
  7 34  1  0  0  0
  8  9  1  0  0  0
  8 12  1  0  0  0
  8 35  1  0  0  0
  9 10  1  0  0  0
  9 36  1  0  0  0
  9 37  1  0  0  0
 10 11  1  0  0  0
 10 38  1  0  0  0
 10 39  1  0  0  0
 11 12  1  0  0  0
 11 40  1  0  0  0
 11 41  1  0  0  0
 12 42  1  0  0  0
 12 43  1  0  0  0
 14 15  1  0  0  0
 14 18  1  0  0  0
 15 16  1  0  0  0
 15 19  1  0  0  0
 16 17  1  0  0  0
 16 44  1  0  0  0
 16 45  1  0  0  0
 17 18  1  0  0  0
 17 46  1  0  0  0
 17 47  1  0  0  0
 18 48  1  0  0  0
 18 49  1  0  0  0
 19 20  2  0  0  0
 19 28  1  0  0  0
 21 22  2  0  0  0
 21 26  1  0  0  0
 21 28  1  0  0  0
 22 23  1  0  0  0
 22 50  1  0  0  0
 23 24  2  0  0  0
 23 51  1  0  0  0
 24 25  1  0  0  0
 24 52  1  0  0  0
 25 26  2  0  0  0
 25 53  1  0  0  0
 26 54  1  0  0  0
 27 55  1  0  0  0
 28 56  1  0  0  0
M  END
> <s_m_entry_id>
39991

> <s_m_entry_name>
dock_pv.15

> <s_m_Source_Path>
/home/csk/Desktop/cluster/DUD-E-result/def

> <s_m_Source_File>
dock_pv.maegz

> <i_m_Source_File_Index>
15

> <chembl_id>
CHEMBL1796101

> <chembl_pref_name>
None

> <i_lp_mmshare_version>
53161

> <i_f3d_flags>
0

> <r_lp_tautomer_probability>
1

> <s_lp_Force_Field>
OPLS_2005

> <r_lp_Energy>
68.113381

> <b_lp_Chiralities_Consistent>
1

> <s_lp_Variant>
CHEMBL1795101_lig148-1

> <s_i_glide_gridfile>
glide-grid_1lru

> <i_i_glide_lignum>
193

> <i_i_glide_rotatable_bonds>
11

> <r_i_docking_score>
-8.59552962822511

> <r_i_glide_ligand_efficiency>
-0.306983201008039

> <r_i_glide_ligand_efficiency_sa>
-0.932181801696696

> <r_i_glide_ligand_efficiency_ln>
-1.98410061391065

> <r_i_glide_gscore>
-8.59552962822511

> <r_i_glide_lipo>
-3.16083303292709

> <r_i_glide_hbond>
-1.07592311304398

> <r_i_glide_metal>
-0.215432880292169

> <r_i_glide_rewards>
-0.59818152799798

> <r_i_glide_evdw>
-33.0418472290039

> <r_i_glide_ecoul>
-16.7767696380615

> <r_i_glide_erotb>
0.723065025487283

> <r_i_glide_esite>
-0.0996162922917517

> <r_i_glide_emodel>
-59.9489107546575

> <r_i_glide_energy>
-49.8186168670654

> <r_i_glide_einternal>
23.1043663024902

> <i_i_glide_confnum>
490

> <i_i_glide_posenum>
197

> <r_i_glide_eff_state_penalty>
0

> <s_user_duplicate_titles>
CHEMBL1795101_lig148

> <s_m_subgroup_title>
dock_pv

> <s_m_subgroupid>
dock_pv

> <b_m_subgroup_collapsed>
1

$$$$
CHEMBL1795101_lig116
                    3D
 Schrodinger Suite 2021-1.
 40 42  0  0  1  0            999 V2000
  -34.2088   28.5906   67.2930 C   0  0  0  0  0  0
  -33.4407   28.1648   66.1224 N   0  0  0  0  0  0
  -32.6796   28.9587   65.3486 C   0  0  0  0  0  0
  -31.9849   28.5648   64.4153 O   0  0  0  0  0  0
  -33.1849   26.7910   66.0151 O   0  0  0  0  0  0
  -37.0077   26.1561   67.7034 N   0  0  0  0  0  0
  -38.5836   29.5955   66.0593 C   0  0  0  0  0  0
  -39.5038   28.6182   66.4155 C   0  0  0  0  0  0
  -39.1083   27.4128   66.9955 C   0  0  0  0  0  0
  -37.2286   29.4195   66.3166 C   0  0  0  0  0  0
  -35.5083   27.8122   67.3987 C   0  0  0  0  0  0
  -36.7907   28.2555   66.9520 C   0  0  0  0  0  0
  -37.7370   27.2357   67.2407 C   0  0  0  0  0  0
  -35.6911   26.5435   67.9145 C   0  0  0  0  0  0
  -39.1847   31.1868   65.2093 Br  0  0  0  0  0  0
  -34.6380   25.6347   68.5167 C   0  0  0  0  0  0
  -37.6124   24.5637   67.9585 S   0  0  0  0  0  0
  -36.4091   23.5472   67.1300 C   0  0  0  0  0  0
  -37.5541   24.3246   69.4050 O   0  0  0  0  0  0
  -38.8621   24.4516   67.1973 O   0  0  0  0  0  0
  -35.6256   22.6516   67.8540 C   0  0  0  0  0  0
  -34.6164   21.9436   67.2130 C   0  0  0  0  0  0
  -34.3848   22.1593   65.8568 C   0  0  0  0  0  0
  -35.1570   23.0687   65.1405 C   0  0  0  0  0  0
  -36.1825   23.7582   65.7715 C   0  0  0  0  0  0
  -33.5821   28.4216   68.1689 H   0  0  0  0  0  0
  -34.3972   29.6655   67.2805 H   0  0  0  0  0  0
  -32.7641   30.0136   65.6490 H   0  0  0  0  0  0
  -32.2168   26.7364   66.0671 H   0  0  0  0  0  0
  -40.5469   28.7932   66.2051 H   0  0  0  0  0  0
  -39.8379   26.6541   67.2330 H   0  0  0  0  0  0
  -36.5086   30.1592   66.0243 H   0  0  0  0  0  0
  -33.8724   26.1857   69.0560 H   0  0  0  0  0  0
  -35.0483   24.9180   69.2171 H   0  0  0  0  0  0
  -34.1174   25.0641   67.7495 H   0  0  0  0  0  0
  -35.7680   22.5589   68.9175 H   0  0  0  0  0  0
  -34.0027   21.2480   67.7669 H   0  0  0  0  0  0
  -33.6013   21.6110   65.3540 H   0  0  0  0  0  0
  -34.9771   23.2196   64.0867 H   0  0  0  0  0  0
  -36.7709   24.4763   65.2177 H   0  0  0  0  0  0
  1  2  1  0  0  0
  1 11  1  0  0  0
  1 26  1  0  0  0
  1 27  1  0  0  0
  2  3  1  0  0  0
  2  5  1  0  0  0
  3  4  2  0  0  0
  3 28  1  0  0  0
  5 29  1  0  0  0
  6 17  1  0  0  0
  6 13  1  0  0  0
  6 14  1  0  0  0
  7 15  1  0  0  0
  7  8  2  0  0  0
  7 10  1  0  0  0
  8  9  1  0  0  0
  8 30  1  0  0  0
  9 13  2  0  0  0
  9 31  1  0  0  0
 10 12  2  0  0  0
 10 32  1  0  0  0
 11 12  1  0  0  0
 11 14  2  0  0  0
 12 13  1  0  0  0
 14 16  1  0  0  0
 16 33  1  0  0  0
 16 34  1  0  0  0
 16 35  1  0  0  0
 17 18  1  0  0  0
 17 19  2  0  0  0
 17 20  2  0  0  0
 18 21  2  0  0  0
 18 25  1  0  0  0
 21 22  1  0  0  0
 21 36  1  0  0  0
 22 23  2  0  0  0
 22 37  1  0  0  0
 23 24  1  0  0  0
 23 38  1  0  0  0
 24 25  2  0  0  0
 24 39  1  0  0  0
 25 40  1  0  0  0
M  END
> <s_m_entry_id>
39992

> <s_m_entry_name>
dock_pv.16

> <s_m_Source_Path>
/home/csk/Desktop/cluster/DUD-E-result/def

> <s_m_Source_File>
dock_pv.maegz

> <i_m_Source_File_Index>
16

> <chembl_id>
CHEMBL220027

> <chembl_pref_name>
None

> <i_lp_mmshare_version>
53161

> <i_f3d_flags>
0

> <r_lp_tautomer_probability>
1

> <s_lp_Force_Field>
OPLS_2005

> <r_lp_Energy>
20.862387

> <b_lp_Chiralities_Consistent>
1

> <s_lp_Variant>
CHEMBL1795101_lig116-1

> <s_i_glide_gridfile>
glide-grid_1lru

> <i_i_glide_lignum>
161

> <i_i_glide_rotatable_bonds>
6

> <r_i_docking_score>
-8.3996002583185

> <r_i_glide_ligand_efficiency>
-0.33598401033274

> <r_i_glide_ligand_efficiency_sa>
-0.982423204914728

> <r_i_glide_ligand_efficiency_ln>
-1.99095697692902

> <r_i_glide_gscore>
-8.3996002583185

> <r_i_glide_lipo>
-3.11580918240378

> <r_i_glide_hbond>
-0.284290753924263

> <r_i_glide_metal>
-2.20057755327054

> <r_i_glide_rewards>
-0.50657487754957

> <r_i_glide_evdw>
-45.6347427368164

> <r_i_glide_ecoul>
-2.83515095710754

> <r_i_glide_erotb>
0.442446209830622

> <r_i_glide_esite>
-0.0277843205940146

> <r_i_glide_emodel>
-70.669875536848

> <r_i_glide_energy>
-48.469893693924

> <r_i_glide_einternal>
8.51003551483154

> <i_i_glide_confnum>
3

> <i_i_glide_posenum>
199

> <r_i_glide_eff_state_penalty>
0

> <s_user_duplicate_titles>
CHEMBL1795101_lig116,365427

> <s_m_subgroup_title>
dock_pv

> <s_m_subgroupid>
dock_pv

> <b_m_subgroup_collapsed>
1

$$$$
CHEMBL1795101_lig6
                    3D
 Schrodinger Suite 2021-1.
 35 35  0  0  1  0            999 V2000
  -36.1286   26.8328   67.4758 S   0  0  0  0  0  0
  -35.5700   28.2202   66.2924 C   0  0  2  0  0  0
  -34.0899   28.5939   66.6303 C   0  0  0  0  0  0
  -33.1843   28.7442   65.4033 C   0  0  0  0  0  0
  -35.6306   27.1558   68.8150 O   0  0  0  0  0  0
  -37.5482   26.5273   67.2624 O   0  0  0  0  0  0
  -35.2214   25.3902   66.9175 C   0  0  0  0  0  0
  -33.5765   29.3590   64.4150 O   0  0  0  0  0  0
  -31.9850   28.1590   65.4717 N   0  0  0  0  0  0
  -31.1850   28.1590   64.3314 O   0  0  0  0  0  0
  -36.5074   29.4580   66.3479 C   0  0  0  0  0  0
  -35.8277   24.5138   66.0150 C   0  0  0  0  0  0
  -33.9235   25.1419   67.3738 C   0  0  0  0  0  0
  -38.0046   29.2346   66.0577 C   0  0  0  0  0  0
  -38.7657   30.5325   65.7468 C   0  0  0  0  0  0
  -33.2292   24.0335   66.9004 C   0  0  0  0  0  0
  -35.1381   23.3953   65.5629 C   0  0  0  0  0  0
  -33.8471   23.1554   66.0150 C   0  0  0  0  0  0
  -35.6348   27.7590   65.3070 H   0  0  0  0  0  0
  -33.6394   27.8607   67.2945 H   0  0  0  0  0  0
  -34.0443   29.5221   67.2022 H   0  0  0  0  0  0
  -31.5620   27.6355   66.2352 H   0  0  0  0  0  0
  -30.4052   28.6777   64.5688 H   0  0  0  0  0  0
  -36.4083   29.9574   67.3132 H   0  0  0  0  0  0
  -36.1474   30.1590   65.5998 H   0  0  0  0  0  0
  -36.8243   24.7055   65.6459 H   0  0  0  0  0  0
  -33.4419   25.7996   68.0821 H   0  0  0  0  0  0
  -38.1200   28.5590   65.2150 H   0  0  0  0  0  0
  -38.4834   28.7589   66.9128 H   0  0  0  0  0  0
  -39.8226   30.3323   65.5702 H   0  0  0  0  0  0
  -38.6989   31.2412   66.5733 H   0  0  0  0  0  0
  -38.3756   31.0204   64.8520 H   0  0  0  0  0  0
  -32.2115   23.8590   67.2150 H   0  0  0  0  0  0
  -35.5850   22.7279   64.8438 H   0  0  0  0  0  0
  -33.3107   22.2976   65.6368 H   0  0  0  0  0  0
  1  2  1  0  0  0
  1  5  2  0  0  0
  1  6  2  0  0  0
  1  7  1  0  0  0
  2  3  1  0  0  0
  2 11  1  0  0  0
  2 19  1  0  0  0
  3  4  1  0  0  0
  3 20  1  0  0  0
  3 21  1  0  0  0
  4  8  2  0  0  0
  4  9  1  0  0  0
  7 12  2  0  0  0
  7 13  1  0  0  0
  9 10  1  0  0  0
  9 22  1  0  0  0
 10 23  1  0  0  0
 11 14  1  0  0  0
 11 24  1  0  0  0
 11 25  1  0  0  0
 12 17  1  0  0  0
 12 26  1  0  0  0
 13 16  2  0  0  0
 13 27  1  0  0  0
 14 15  1  0  0  0
 14 28  1  0  0  0
 14 29  1  0  0  0
 15 30  1  0  0  0
 15 31  1  0  0  0
 15 32  1  0  0  0
 16 18  1  0  0  0
 16 33  1  0  0  0
 17 18  2  0  0  0
 17 34  1  0  0  0
 18 35  1  0  0  0
M  END
> <s_m_entry_id>
39993

> <s_m_entry_name>
dock_pv.17

> <s_m_Source_Path>
/home/csk/Desktop/cluster/DUD-E-result/def

> <s_m_Source_File>
dock_pv.maegz

> <i_m_Source_File_Index>
17

> <chembl_id>
CHEMBL76930

> <chembl_pref_name>
None

> <i_lp_mmshare_version>
53161

> <i_f3d_flags>
0

> <r_lp_tautomer_probability>
1

> <s_lp_Force_Field>
OPLS_2005

> <r_lp_Energy>
17.928142

> <b_lp_Chiralities_Consistent>
1

> <s_lp_Variant>
CHEMBL1795101_lig6-1

> <s_i_glide_gridfile>
glide-grid_1lru

> <i_i_glide_lignum>
13

> <i_i_glide_rotatable_bonds>
8

> <r_i_docking_score>
-8.35875160827725

> <r_i_glide_ligand_efficiency>
-0.464375089348736

> <r_i_glide_ligand_efficiency_sa>
-1.21700701792315

> <r_i_glide_ligand_efficiency_ln>
-2.14857399972426

> <r_i_glide_gscore>
-8.35875160827725

> <r_i_glide_lipo>
-2.29511168199055

> <r_i_glide_hbond>
-0.462121701169256

> <r_i_glide_metal>
-1.27800952766529

> <r_i_glide_rewards>
-1.55878085187319

> <r_i_glide_evdw>
-27.7135162353516

> <r_i_glide_ecoul>
-16.4291362762451

> <r_i_glide_erotb>
1.21581652559192

> <r_i_glide_esite>
-0.130498117966535

> <r_i_glide_emodel>
-66.4654566107009

> <r_i_glide_energy>
-44.1426525115967

> <r_i_glide_einternal>
4.36404657363892

> <i_i_glide_confnum>
1

> <i_i_glide_posenum>
143

> <r_i_glide_eff_state_penalty>
0

> <s_user_duplicate_titles>
CHEMBL1795101_lig6,121716

> <s_m_subgroup_title>
dock_pv

> <s_m_subgroupid>
dock_pv

> <b_m_subgroup_collapsed>
1

$$$$
CHEMBL1795101_lig16
                    3D
 Schrodinger Suite 2021-1.
 44 44  0  0  1  0            999 V2000
  -35.9568   26.6729   67.4938 S   0  0  0  0  0  0
  -35.4293   28.0558   66.2878 C   0  0  2  0  0  0
  -33.9469   28.4563   66.5955 C   0  0  0  0  0  0
  -33.1045   28.7077   65.3413 C   0  0  0  0  0  0
  -35.6257   27.1547   68.8350 O   0  0  0  0  0  0
  -37.3293   26.2508   67.1913 O   0  0  0  0  0  0
  -34.8412   25.1695   67.1392 C   0  0  0  0  0  0
  -33.5711   29.3590   64.4150 O   0  0  0  0  0  0
  -31.8872   28.1590   65.3076 N   0  0  0  0  0  0
  -31.1850   28.1590   64.1047 O   0  0  0  0  0  0
  -36.3851   29.2890   66.3298 C   0  0  0  0  0  0
  -35.0749   24.1121   68.2441 C   0  0  0  0  0  0
  -35.1030   24.6216   65.7162 C   0  0  0  0  0  0
  -37.9029   29.0121   66.3760 C   0  0  0  0  0  0
  -38.7963   30.2619   66.2521 C   0  0  0  0  0  0
  -38.9262   30.8262   64.8297 C   0  0  0  0  0  0
  -34.3269   22.7986   67.9572 C   0  0  0  0  0  0
  -34.3850   23.2818   65.4657 C   0  0  0  0  0  0
  -34.6646   22.2447   66.5632 C   0  0  0  0  0  0
  -35.5072   27.5732   65.3152 H   0  0  0  0  0  0
  -33.9060   29.3590   67.2066 H   0  0  0  0  0  0
  -33.4464   27.7051   67.2045 H   0  0  0  0  0  0
  -33.8339   25.5733   67.2207 H   0  0  0  0  0  0
  -31.4179   27.5971   66.0168 H   0  0  0  0  0  0
  -30.4001   28.6993   64.2742 H   0  0  0  0  0  0
  -36.1783   29.8981   65.4515 H   0  0  0  0  0  0
  -36.1396   29.9098   67.1931 H   0  0  0  0  0  0
  -34.7696   24.5057   69.2149 H   0  0  0  0  0  0
  -36.1422   23.8971   68.3232 H   0  0  0  0  0  0
  -36.1741   24.4735   65.5687 H   0  0  0  0  0  0
  -34.7850   25.3476   64.9680 H   0  0  0  0  0  0
  -38.1415   28.5588   67.3380 H   0  0  0  0  0  0
  -38.1786   28.2825   65.6150 H   0  0  0  0  0  0
  -38.4393   31.0418   66.9269 H   0  0  0  0  0  0
  -39.7968   30.0074   66.6040 H   0  0  0  0  0  0
  -39.6420   31.6487   64.8150 H   0  0  0  0  0  0
  -39.2760   30.0709   64.1255 H   0  0  0  0  0  0
  -37.9850   31.2212   64.4542 H   0  0  0  0  0  0
  -33.2525   22.9775   68.0154 H   0  0  0  0  0  0
  -34.5575   22.0579   68.7239 H   0  0  0  0  0  0
  -33.3097   23.4494   65.4375 H   0  0  0  0  0  0
  -34.6676   22.8812   64.4906 H   0  0  0  0  0  0
  -34.0641   21.3590   66.3700 H   0  0  0  0  0  0
  -35.7092   21.9320   66.5261 H   0  0  0  0  0  0
  1  2  1  0  0  0
  1  5  2  0  0  0
  1  6  2  0  0  0
  1  7  1  0  0  0
  2  3  1  0  0  0
  2 11  1  0  0  0
  2 20  1  0  0  0
  3  4  1  0  0  0
  3 21  1  0  0  0
  3 22  1  0  0  0
  4  8  2  0  0  0
  4  9  1  0  0  0
  7 12  1  0  0  0
  7 13  1  0  0  0
  7 23  1  0  0  0
  9 10  1  0  0  0
  9 24  1  0  0  0
 10 25  1  0  0  0
 11 14  1  0  0  0
 11 26  1  0  0  0
 11 27  1  0  0  0
 12 17  1  0  0  0
 12 28  1  0  0  0
 12 29  1  0  0  0
 13 18  1  0  0  0
 13 30  1  0  0  0
 13 31  1  0  0  0
 14 15  1  0  0  0
 14 32  1  0  0  0
 14 33  1  0  0  0
 15 16  1  0  0  0
 15 34  1  0  0  0
 15 35  1  0  0  0
 16 36  1  0  0  0
 16 37  1  0  0  0
 16 38  1  0  0  0
 17 19  1  0  0  0
 17 39  1  0  0  0
 17 40  1  0  0  0
 18 19  1  0  0  0
 18 41  1  0  0  0
 18 42  1  0  0  0
 19 43  1  0  0  0
 19 44  1  0  0  0
M  END
> <s_m_entry_id>
39994

> <s_m_entry_name>
dock_pv.18

> <s_m_Source_Path>
/home/csk/Desktop/cluster/DUD-E-result/def

> <s_m_Source_File>
dock_pv.maegz

> <i_m_Source_File_Index>
18

> <chembl_id>
CHEMBL77258

> <chembl_pref_name>
None

> <i_lp_mmshare_version>
53161

> <i_f3d_flags>
0

> <r_lp_tautomer_probability>
1

> <s_lp_Force_Field>
OPLS_2005

> <r_lp_Energy>
10.251065

> <b_lp_Chiralities_Consistent>
1

> <s_lp_Variant>
CHEMBL1795101_lig16-1

> <s_i_glide_gridfile>
glide-grid_1lru

> <i_i_glide_lignum>
35

> <i_i_glide_rotatable_bonds>
9

> <r_i_docking_score>
-8.3171084831209

> <r_i_glide_ligand_efficiency>
-0.437742551743205

> <r_i_glide_ligand_efficiency_sa>
-1.16807294564088

> <r_i_glide_ligand_efficiency_ln>
-2.1085656355821

> <r_i_glide_gscore>
-8.3171084831209

> <r_i_glide_lipo>
-2.59491992805577

> <r_i_glide_hbond>
-0.45306974396527

> <r_i_glide_metal>
-2.28535591966869

> <r_i_glide_rewards>
-1.41871450658492

> <r_i_glide_evdw>
-27.1948928833008

> <r_i_glide_ecoul>
-17.6832675933838

> <r_i_glide_erotb>
2.57760533633935

> <r_i_glide_esite>
-0.130418938012991

> <r_i_glide_emodel>
-65.4411378055677

> <r_i_glide_energy>
-44.8781604766846

> <r_i_glide_einternal>
6.153404712677

> <i_i_glide_confnum>
65

> <i_i_glide_posenum>
141

> <r_i_glide_eff_state_penalty>
0

> <s_user_duplicate_titles>
CHEMBL1795101_lig16,121341

> <s_m_subgroup_title>
dock_pv

> <s_m_subgroupid>
dock_pv

> <b_m_subgroup_collapsed>
1

$$$$
CHEMBL1795101_lig136
                    3D
 Schrodinger Suite 2021-1.
 61 63  0  0  1  0            999 V2000
  -32.5541   28.5474   65.2104 C   0  0  0  0  0  0
  -33.4674   27.6505   65.6482 N   0  0  0  0  0  0
  -32.7851   29.4644   64.4170 O   0  0  0  0  0  0
  -33.2377   26.5056   66.5394 C   0  0  0  0  0  0
  -34.4951   25.9270   67.2889 C   0  0  2  0  0  0
  -35.2357   27.0261   68.0818 C   0  0  0  0  0  0
  -34.0396   24.7945   68.2473 C   0  0  0  0  0  0
  -33.9741   23.3632   67.6740 C   0  0  0  0  0  0
  -35.2996   22.6238   67.7811 C   0  0  0  0  0  0
  -35.0552   21.3590   66.9817 C   0  0  0  0  0  0
  -34.1875   21.8041   65.7928 C   0  0  0  0  0  0
  -33.5849   23.1602   66.1954 C   0  0  0  0  0  0
  -34.5494   27.9849   68.4150 O   0  0  0  0  0  0
  -37.9578   25.1101   67.5032 C   0  0  0  0  0  0
  -38.3370   24.6646   66.4150 O   0  0  0  0  0  0
  -36.5441   26.9082   68.4626 N   0  0  0  0  0  0
  -37.5248   26.4018   67.5713 N   0  0  0  0  0  0
  -38.0265   27.4555   66.6484 C   0  0  0  0  0  0
  -38.6323   28.6079   67.4776 C   0  0  0  0  0  0
  -37.6711   29.0802   68.5713 C   0  0  0  0  0  0
  -37.1848   27.8694   69.3987 C   0  0  0  0  0  0
  -38.1962   24.2522   68.7444 C   0  0  0  0  0  0
  -37.6800   24.5369   70.0201 C   0  0  0  0  0  0
  -38.0185   23.7519   71.1188 C   0  0  0  0  0  0
  -38.8668   22.6574   70.9798 C   0  0  0  0  0  0
  -39.3451   22.3280   69.7072 C   0  0  0  0  0  0
  -39.0090   23.1129   68.6101 C   0  0  0  0  0  0
  -39.1850   21.9686   72.1329 O   0  0  0  0  0  0
  -40.0225   20.8206   72.0497 C   0  0  0  0  0  0
  -34.7791   27.8308   65.2150 O   0  0  0  0  0  0
  -31.5534   28.3323   65.6175 H   0  0  0  0  0  0
  -32.4888   26.8078   67.2767 H   0  0  0  0  0  0
  -32.7510   25.7091   65.9910 H   0  0  0  0  0  0
  -35.2071   25.5490   66.5557 H   0  0  0  0  0  0
  -34.6870   24.7461   69.1262 H   0  0  0  0  0  0
  -33.0670   25.0471   68.6756 H   0  0  0  0  0  0
  -33.2511   22.8234   68.2852 H   0  0  0  0  0  0
  -36.0938   23.1933   67.3072 H   0  0  0  0  0  0
  -35.5846   22.4368   68.8148 H   0  0  0  0  0  0
  -35.9852   20.8975   66.6587 H   0  0  0  0  0  0
  -34.5244   20.6413   67.6150 H   0  0  0  0  0  0
  -34.7849   21.9137   64.8868 H   0  0  0  0  0  0
  -33.4216   21.0652   65.5648 H   0  0  0  0  0  0
  -32.5052   23.1958   66.0493 H   0  0  0  0  0  0
  -34.0150   23.9252   65.5513 H   0  0  0  0  0  0
  -37.2152   27.8117   66.0150 H   0  0  0  0  0  0
  -38.8177   27.0692   66.0148 H   0  0  0  0  0  0
  -38.8955   29.4403   66.8231 H   0  0  0  0  0  0
  -39.5697   28.2785   67.9296 H   0  0  0  0  0  0
  -38.1656   29.8076   69.2156 H   0  0  0  0  0  0
  -36.8274   29.6068   68.1200 H   0  0  0  0  0  0
  -38.0381   27.3932   69.8856 H   0  0  0  0  0  0
  -36.5137   28.1589   70.2078 H   0  0  0  0  0  0
  -37.0139   25.3536   70.2227 H   0  0  0  0  0  0
  -37.6270   24.0009   72.0942 H   0  0  0  0  0  0
  -39.9937   21.4802   69.5514 H   0  0  0  0  0  0
  -39.4237   22.8338   67.6505 H   0  0  0  0  0  0
  -40.1507   20.3965   73.0454 H   0  0  0  0  0  0
  -41.0130   21.0748   71.6695 H   0  0  0  0  0  0
  -39.5820   20.0481   71.4174 H   0  0  0  0  0  0
  -34.9957   27.0253   64.7344 H   0  0  0  0  0  0
  1  2  1  0  0  0
  1  3  2  0  0  0
  1 31  1  0  0  0
  2  4  1  0  0  0
  2 30  1  0  0  0
  4  5  1  0  0  0
  4 32  1  0  0  0
  4 33  1  0  0  0
  5  6  1  0  0  0
  5  7  1  0  0  0
  5 34  1  0  0  0
  6 13  2  0  0  0
  6 16  1  0  0  0
  7  8  1  0  0  0
  7 35  1  0  0  0
  7 36  1  0  0  0
  8  9  1  0  0  0
  8 12  1  0  0  0
  8 37  1  0  0  0
  9 10  1  0  0  0
  9 38  1  0  0  0
  9 39  1  0  0  0
 10 11  1  0  0  0
 10 40  1  0  0  0
 10 41  1  0  0  0
 11 12  1  0  0  0
 11 42  1  0  0  0
 11 43  1  0  0  0
 12 44  1  0  0  0
 12 45  1  0  0  0
 14 17  1  0  0  0
 14 15  2  0  0  0
 14 22  1  0  0  0
 16 17  1  0  0  0
 16 21  1  0  0  0
 17 18  1  0  0  0
 18 19  1  0  0  0
 18 46  1  0  0  0
 18 47  1  0  0  0
 19 20  1  0  0  0
 19 48  1  0  0  0
 19 49  1  0  0  0
 20 21  1  0  0  0
 20 50  1  0  0  0
 20 51  1  0  0  0
 21 52  1  0  0  0
 21 53  1  0  0  0
 22 23  2  0  0  0
 22 27  1  0  0  0
 23 24  1  0  0  0
 23 54  1  0  0  0
 24 25  2  0  0  0
 24 55  1  0  0  0
 25 26  1  0  0  0
 25 28  1  0  0  0
 26 27  2  0  0  0
 26 56  1  0  0  0
 27 57  1  0  0  0
 28 29  1  0  0  0
 29 58  1  0  0  0
 29 59  1  0  0  0
 29 60  1  0  0  0
 30 61  1  0  0  0
M  END
> <s_m_entry_id>
39995

> <s_m_entry_name>
dock_pv.19

> <s_m_Source_Path>
/home/csk/Desktop/cluster/DUD-E-result/def

> <s_m_Source_File>
dock_pv.maegz

> <i_m_Source_File_Index>
19

> <chembl_id>
CHEMBL1796088

> <chembl_pref_name>
None

> <i_lp_mmshare_version>
53161

> <i_f3d_flags>
0

> <r_lp_tautomer_probability>
1

> <s_lp_Force_Field>
OPLS_2005

> <r_lp_Energy>
57.244241

> <b_lp_Chiralities_Consistent>
1

> <s_lp_Variant>
CHEMBL1795101_lig136-1

> <s_i_glide_gridfile>
glide-grid_1lru

> <i_i_glide_lignum>
181

> <i_i_glide_rotatable_bonds>
11

> <r_i_docking_score>
-8.27053277693756

> <r_i_glide_ligand_efficiency>
-0.275684425897919

> <r_i_glide_ligand_efficiency_sa>
-0.856615608564068

> <r_i_glide_ligand_efficiency_ln>
-1.87915516159244

> <r_i_glide_gscore>
-8.27053277693756

> <r_i_glide_lipo>
-2.91200193761647

> <r_i_glide_hbond>
-1.18060830138183

> <r_i_glide_metal>
0

> <r_i_glide_rewards>
-0.56244135684352

> <r_i_glide_evdw>
-36.3552322387695

> <r_i_glide_ecoul>
-16.8210735321045

> <r_i_glide_erotb>
0.793779441087536

> <r_i_glide_esite>
-0.0683379804291288

> <r_i_glide_emodel>
-63.7838367739158

> <r_i_glide_energy>
-53.176305770874

> <r_i_glide_einternal>
29.3488578796387

> <i_i_glide_confnum>
240

> <i_i_glide_posenum>
254

> <r_i_glide_eff_state_penalty>
0

> <s_user_duplicate_titles>
CHEMBL1795101_lig136

> <s_m_subgroup_title>
dock_pv

> <s_m_subgroupid>
dock_pv

> <b_m_subgroup_collapsed>
1

$$$$
CHEMBL1795101_lig158
                    3D
 Schrodinger Suite 2021-1.
 54 56  0  0  1  0            999 V2000
  -32.7850   29.2945   66.0150 N   0  0  0  0  0  0
  -33.7492   28.5429   65.4783 C   0  0  0  0  0  0
  -31.5850   29.3908   65.3018 O   0  0  0  0  0  0
  -35.1163   28.4727   66.1855 C   0  0  0  0  0  0
  -33.5850   27.9593   64.4150 O   0  0  0  0  0  0
  -35.7017   27.0583   66.5771 C   0  0  2  0  0  0
  -35.9402   27.0283   68.1009 C   0  0  0  0  0  0
  -34.8958   25.8083   66.0940 C   0  0  0  0  0  0
  -35.5396   24.4057   66.2884 C   0  0  0  0  0  0
  -34.8869   23.3590   65.3754 C   0  0  0  0  0  0
  -33.6966   22.7926   66.1457 C   0  0  0  0  0  0
  -33.9850   23.0577   67.6274 C   0  0  0  0  0  0
  -35.3510   23.7465   67.6703 C   0  0  0  0  0  0
  -34.9394   26.9590   68.8150 O   0  0  0  0  0  0
  -39.1048   27.6074   67.1404 C   0  0  0  0  0  0
  -39.9850   27.1485   66.4150 O   0  0  0  0  0  0
  -37.1857   27.1906   68.6313 N   0  0  0  0  0  0
  -38.3769   26.8017   67.9634 N   0  0  0  0  0  0
  -38.6978   25.3725   68.2163 C   0  0  0  0  0  0
  -38.9340   25.2163   69.7349 C   0  0  0  0  0  0
  -37.7652   25.7984   70.5490 C   0  0  0  0  0  0
  -37.4343   27.2411   70.0867 C   0  0  0  0  0  0
  -38.9488   29.0473   67.1947 C   0  0  0  0  0  0
  -38.3252   29.6551   68.2421 O   0  0  0  0  0  0
  -38.4386   30.9960   68.0617 C   0  0  0  0  0  0
  -39.1548   31.2642   66.9087 C   0  0  0  0  0  0
  -39.4794   30.0258   66.3572 C   0  0  0  0  0  0
  -32.7515   29.7551   66.9145 H   0  0  0  0  0  0
  -30.9831   28.8125   65.7865 H   0  0  0  0  0  0
  -35.8216   28.9535   65.5063 H   0  0  0  0  0  0
  -35.0864   29.1569   67.0376 H   0  0  0  0  0  0
  -36.6562   26.9812   66.0613 H   0  0  0  0  0  0
  -33.8831   25.8153   66.5030 H   0  0  0  0  0  0
  -34.7847   25.9213   65.0178 H   0  0  0  0  0  0
  -36.5979   24.4663   66.0313 H   0  0  0  0  0  0
  -34.5847   23.7623   64.4150 H   0  0  0  0  0  0
  -35.5850   22.5590   65.1581 H   0  0  0  0  0  0
  -32.7747   23.2956   65.8541 H   0  0  0  0  0  0
  -33.5850   21.7284   65.9333 H   0  0  0  0  0  0
  -33.2196   23.7152   68.0439 H   0  0  0  0  0  0
  -33.9850   22.1403   68.2172 H   0  0  0  0  0  0
  -36.1343   23.0036   67.8316 H   0  0  0  0  0  0
  -35.4055   24.4338   68.5102 H   0  0  0  0  0  0
  -39.5725   25.0246   67.6632 H   0  0  0  0  0  0
  -37.8621   24.7535   67.9011 H   0  0  0  0  0  0
  -39.8643   25.7151   70.0130 H   0  0  0  0  0  0
  -39.0774   24.1638   69.9832 H   0  0  0  0  0  0
  -36.8848   25.1622   70.4410 H   0  0  0  0  0  0
  -38.0085   25.7809   71.6120 H   0  0  0  0  0  0
  -36.5764   27.6661   70.6079 H   0  0  0  0  0  0
  -38.2719   27.9133   70.2861 H   0  0  0  0  0  0
  -37.9850   31.6244   68.8150 H   0  0  0  0  0  0
  -39.4074   32.2394   66.5160 H   0  0  0  0  0  0
  -40.0474   29.8595   65.4531 H   0  0  0  0  0  0
  1  3  1  0  0  0
  1  2  1  0  0  0
  1 28  1  0  0  0
  2  4  1  0  0  0
  2  5  2  0  0  0
  3 29  1  0  0  0
  4  6  1  0  0  0
  4 30  1  0  0  0
  4 31  1  0  0  0
  6  7  1  0  0  0
  6  8  1  0  0  0
  6 32  1  0  0  0
  7 14  2  0  0  0
  7 17  1  0  0  0
  8  9  1  0  0  0
  8 33  1  0  0  0
  8 34  1  0  0  0
  9 10  1  0  0  0
  9 13  1  0  0  0
  9 35  1  0  0  0
 10 11  1  0  0  0
 10 36  1  0  0  0
 10 37  1  0  0  0
 11 12  1  0  0  0
 11 38  1  0  0  0
 11 39  1  0  0  0
 12 13  1  0  0  0
 12 40  1  0  0  0
 12 41  1  0  0  0
 13 42  1  0  0  0
 13 43  1  0  0  0
 15 18  1  0  0  0
 15 16  2  0  0  0
 15 23  1  0  0  0
 17 18  1  0  0  0
 17 22  1  0  0  0
 18 19  1  0  0  0
 19 20  1  0  0  0
 19 44  1  0  0  0
 19 45  1  0  0  0
 20 21  1  0  0  0
 20 46  1  0  0  0
 20 47  1  0  0  0
 21 22  1  0  0  0
 21 48  1  0  0  0
 21 49  1  0  0  0
 22 50  1  0  0  0
 22 51  1  0  0  0
 23 24  1  0  0  0
 23 27  2  0  0  0
 24 25  1  0  0  0
 25 26  2  0  0  0
 25 52  1  0  0  0
 26 27  1  0  0  0
 26 53  1  0  0  0
 27 54  1  0  0  0
M  END
> <s_m_entry_id>
39996

> <s_m_entry_name>
dock_pv.20

> <s_m_Source_Path>
/home/csk/Desktop/cluster/DUD-E-result/def

> <s_m_Source_File>
dock_pv.maegz

> <i_m_Source_File_Index>
20

> <chembl_id>
CHEMBL1796230

> <chembl_pref_name>
None

> <i_lp_mmshare_version>
53161

> <i_f3d_flags>
0

> <r_lp_tautomer_probability>
1

> <s_lp_Force_Field>
OPLS_2005

> <r_lp_Energy>
49.464782

> <b_lp_Chiralities_Consistent>
1

> <s_lp_Variant>
CHEMBL1795101_lig158-1

> <s_i_glide_gridfile>
glide-grid_1lru

> <i_i_glide_lignum>
203

> <i_i_glide_rotatable_bonds>
10

> <r_i_docking_score>
-8.27001387045907

> <r_i_glide_ligand_efficiency>
-0.306296810017002

> <r_i_glide_ligand_efficiency_sa>
-0.918890429041503

> <r_i_glide_ligand_efficiency_ln>
-1.92512288720852

> <r_i_glide_gscore>
-8.27001387045907

> <r_i_glide_lipo>
-1.98488967480344

> <r_i_glide_hbond>
-0.488043113170872

> <r_i_glide_metal>
-2.15679571430335

> <r_i_glide_rewards>
-0.835671937930428

> <r_i_glide_evdw>
-29.616548538208

> <r_i_glide_ecoul>
-15.6824197769165

> <r_i_glide_erotb>
1.08767739058425

> <r_i_glide_esite>
-0.0591004273873443

> <r_i_glide_emodel>
-67.5222140506982

> <r_i_glide_energy>
-45.2989683151245

> <r_i_glide_einternal>
3.69214415550232

> <i_i_glide_confnum>
325

> <i_i_glide_posenum>
116

> <r_i_glide_eff_state_penalty>
0

> <s_user_duplicate_titles>
CHEMBL1795101_lig158

> <s_m_subgroup_title>
dock_pv

> <s_m_subgroupid>
dock_pv

> <b_m_subgroup_collapsed>
1

$$$$
CHEMBL1795101_lig18
                    3D
 Schrodinger Suite 2021-1.
 38 38  0  0  1  0            999 V2000
  -36.2319   26.3725   67.9285 S   0  0  2  0  0  0
  -33.9204   27.4840   66.7033 C   0  0  2  0  0  0
  -35.4823   27.3861   66.5599 C   0  0  2  0  0  0
  -33.3372   28.3737   65.6027 C   0  0  0  0  0  0
  -35.5874   26.9117   69.2081 O   0  0  0  0  0  0
  -35.5514   24.7162   67.5715 C   0  0  0  0  0  0
  -33.5850   28.1595   64.4155 O   0  0  0  0  0  0
  -32.5539   29.3585   66.0150 N   0  0  0  0  0  0
  -33.2491   26.2292   66.5952 O   0  0  0  0  0  0
  -36.2149   28.7757   66.5332 C   0  0  0  0  0  0
  -31.9850   30.1590   65.0715 O   0  0  0  0  0  0
  -35.6478   24.1772   66.2857 C   0  0  0  0  0  0
  -34.9646   23.9876   68.6016 C   0  0  0  0  0  0
  -37.7602   28.7357   66.7206 C   0  0  0  0  0  0
  -38.4771   30.0938   66.6208 C   0  0  0  0  0  0
  -38.5784   30.6455   65.1970 C   0  0  0  0  0  0
  -35.1175   22.9167   66.0249 C   0  0  0  0  0  0
  -34.4517   22.7233   68.3451 C   0  0  0  0  0  0
  -34.5305   22.1932   67.0600 C   0  0  0  0  0  0
  -33.6809   27.8989   67.6837 H   0  0  0  0  0  0
  -35.6823   26.8895   65.6150 H   0  0  0  0  0  0
  -32.1597   29.4820   66.9426 H   0  0  0  0  0  0
  -32.2908   26.3434   66.7101 H   0  0  0  0  0  0
  -36.0049   29.2616   65.5804 H   0  0  0  0  0  0
  -35.7849   29.4262   67.3010 H   0  0  0  0  0  0
  -31.0689   29.8505   65.0345 H   0  0  0  0  0  0
  -36.1073   24.7262   65.4798 H   0  0  0  0  0  0
  -34.9093   24.4032   69.5967 H   0  0  0  0  0  0
  -37.9934   28.3517   67.7128 H   0  0  0  0  0  0
  -38.1981   28.0306   66.0141 H   0  0  0  0  0  0
  -37.9880   30.8221   67.2719 H   0  0  0  0  0  0
  -39.4903   29.9808   67.0118 H   0  0  0  0  0  0
  -39.1573   31.5693   65.1743 H   0  0  0  0  0  0
  -39.0463   29.9370   64.5160 H   0  0  0  0  0  0
  -37.5860   30.8797   64.8154 H   0  0  0  0  0  0
  -35.1728   22.5037   65.0267 H   0  0  0  0  0  0
  -33.9854   22.1599   69.1383 H   0  0  0  0  0  0
  -34.1246   21.2132   66.8645 H   0  0  0  0  0  0
  1  3  1  0  0  0
  1  5  2  0  0  0
  1  6  1  0  0  0
  2  3  1  0  0  0
  2  4  1  0  0  0
  2  9  1  0  0  0
  2 20  1  0  0  0
  3 10  1  0  0  0
  3 21  1  0  0  0
  4  7  2  0  0  0
  4  8  1  0  0  0
  6 12  2  0  0  0
  6 13  1  0  0  0
  8 11  1  0  0  0
  8 22  1  0  0  0
  9 23  1  0  0  0
 10 14  1  0  0  0
 10 24  1  0  0  0
 10 25  1  0  0  0
 11 26  1  0  0  0
 12 17  1  0  0  0
 12 27  1  0  0  0
 13 18  2  0  0  0
 13 28  1  0  0  0
 14 15  1  0  0  0
 14 29  1  0  0  0
 14 30  1  0  0  0
 15 16  1  0  0  0
 15 31  1  0  0  0
 15 32  1  0  0  0
 16 33  1  0  0  0
 16 34  1  0  0  0
 16 35  1  0  0  0
 17 19  2  0  0  0
 17 36  1  0  0  0
 18 19  1  0  0  0
 18 37  1  0  0  0
 19 38  1  0  0  0
M  END
> <s_m_entry_id>
39997

> <s_m_entry_name>
dock_pv.21

> <s_m_Source_Path>
/home/csk/Desktop/cluster/DUD-E-result/def

> <s_m_Source_File>
dock_pv.maegz

> <i_m_Source_File_Index>
21

> <chembl_id>
CHEMBL74616

> <chembl_pref_name>
None

> <i_lp_mmshare_version>
53161

> <i_f3d_flags>
0

> <r_lp_tautomer_probability>
1

> <s_lp_Force_Field>
OPLS_2005

> <r_lp_Energy>
16.209693

> <b_lp_Chiralities_Consistent>
1

> <s_lp_Variant>
CHEMBL1795101_lig18-2

> <s_i_glide_gridfile>
glide-grid_1lru

> <i_i_glide_lignum>
39

> <i_i_glide_rotatable_bonds>
10

> <r_i_docking_score>
-8.19980448798264

> <r_i_glide_ligand_efficiency>
-0.431568657262244

> <r_i_glide_ligand_efficiency_sa>
-1.15159851544502

> <r_i_glide_ligand_efficiency_ln>
-2.07882655335575

> <r_i_glide_gscore>
-8.19980448798264

> <r_i_glide_lipo>
-2.59357338274216

> <r_i_glide_hbond>
-0.774002141080232

> <r_i_glide_metal>
-1.98266178572977

> <r_i_glide_rewards>
-1.46345253457772

> <r_i_glide_evdw>
-22.9055614471436

> <r_i_glide_ecoul>
-18.8790016174316

> <r_i_glide_erotb>
2.67354139069512

> <r_i_glide_esite>
-0.0825277195759515

> <r_i_glide_emodel>
-61.6534191776526

> <r_i_glide_energy>
-41.7845630645752

> <r_i_glide_einternal>
5.1069540977478

> <i_i_glide_confnum>
30

> <i_i_glide_posenum>
30

> <r_i_glide_eff_state_penalty>
0

> <s_user_duplicate_titles>
CHEMBL1795101_lig18

> <s_m_subgroup_title>
dock_pv

> <s_m_subgroupid>
dock_pv

> <b_m_subgroup_collapsed>
1

$$$$
CHEMBL1795101_lig102
                    3D
 Schrodinger Suite 2021-1.
 38 40  0  0  1  0            999 V2000
  -34.6906   26.2727   67.2086 S   0  0  0  0  0  0
  -36.3352   25.7367   66.7658 N   0  0  0  0  0  0
  -34.8785   27.9312   66.6247 N   0  0  1  0  0  0
  -37.3288   27.9186   67.3487 C   0  0  0  0  0  0
  -37.4666   26.5333   67.0987 C   0  0  0  0  0  0
  -35.9643   28.5766   67.3732 C   0  0  0  0  0  0
  -33.6202   28.7237   66.6845 C   0  0  0  0  0  0
  -32.9221   28.6908   65.3255 C   0  0  0  0  0  0
  -33.6747   25.5744   66.4152 O   0  0  0  0  0  0
  -34.5234   26.2890   68.6652 O   0  0  0  0  0  0
  -36.4416   24.3062   66.5014 C   0  0  0  0  0  0
  -36.5795   23.5022   67.7981 C   0  0  0  0  0  0
  -38.4721   28.6719   67.6642 C   0  0  0  0  0  0
  -36.4576   22.0140   67.7682 C   0  0  0  0  0  0
  -35.3648   22.8633   68.4128 C   0  0  0  0  0  0
  -33.1850   29.4934   64.4277 O   0  0  0  0  0  0
  -31.9850   27.7591   65.2149 N   0  0  0  0  0  0
  -38.3750   30.3649   68.0144 Cl  0  0  0  0  0  0
  -38.7462   25.9537   67.1733 C   0  0  0  0  0  0
  -31.1849   27.7590   64.0692 O   0  0  0  0  0  0
  -39.8634   26.7137   67.4899 C   0  0  0  0  0  0
  -39.7217   28.0723   67.7340 C   0  0  0  0  0  0
  -35.6624   28.5591   68.4150 H   0  0  0  0  0  0
  -36.0394   29.6086   67.0270 H   0  0  0  0  0  0
  -32.9811   28.3023   67.4574 H   0  0  0  0  0  0
  -33.7993   29.7590   66.9551 H   0  0  0  0  0  0
  -37.2813   24.1047   65.8376 H   0  0  0  0  0  0
  -35.5757   23.9668   65.9307 H   0  0  0  0  0  0
  -37.3321   23.9084   68.4756 H   0  0  0  0  0  0
  -37.1839   21.4773   68.3817 H   0  0  0  0  0  0
  -36.2566   21.5166   66.8179 H   0  0  0  0  0  0
  -34.4041   22.9748   67.9076 H   0  0  0  0  0  0
  -35.2659   22.9313   69.4969 H   0  0  0  0  0  0
  -31.6467   27.1009   65.9211 H   0  0  0  0  0  0
  -38.9043   24.9008   67.0003 H   0  0  0  0  0  0
  -30.2951   27.9519   64.3999 H   0  0  0  0  0  0
  -40.8335   26.2439   67.5543 H   0  0  0  0  0  0
  -40.5767   28.6715   68.0022 H   0  0  0  0  0  0
  1  2  1  0  0  0
  1  3  1  0  0  0
  1  9  2  0  0  0
  1 10  2  0  0  0
  2  5  1  0  0  0
  2 11  1  0  0  0
  3  6  1  0  0  0
  3  7  1  0  0  0
  4  6  1  0  0  0
  4 13  2  0  0  0
  4  5  1  0  0  0
  5 19  2  0  0  0
  6 23  1  0  0  0
  6 24  1  0  0  0
  7  8  1  0  0  0
  7 25  1  0  0  0
  7 26  1  0  0  0
  8 16  2  0  0  0
  8 17  1  0  0  0
 11 12  1  0  0  0
 11 27  1  0  0  0
 11 28  1  0  0  0
 12 14  1  0  0  0
 12 15  1  0  0  0
 12 29  1  0  0  0
 13 18  1  0  0  0
 13 22  1  0  0  0
 14 15  1  0  0  0
 14 30  1  0  0  0
 14 31  1  0  0  0
 15 32  1  0  0  0
 15 33  1  0  0  0
 17 20  1  0  0  0
 17 34  1  0  0  0
 19 21  1  0  0  0
 19 35  1  0  0  0
 20 36  1  0  0  0
 21 22  2  0  0  0
 21 37  1  0  0  0
 22 38  1  0  0  0
M  END
> <s_m_entry_id>
39998

> <s_m_entry_name>
dock_pv.22

> <s_m_Source_Path>
/home/csk/Desktop/cluster/DUD-E-result/def

> <s_m_Source_File>
dock_pv.maegz

> <i_m_Source_File_Index>
22

> <chembl_id>
CHEMBL53276

> <chembl_pref_name>
None

> <i_lp_mmshare_version>
53161

> <i_f3d_flags>
0

> <r_lp_tautomer_probability>
1

> <s_lp_Force_Field>
OPLS_2005

> <r_lp_Energy>
28.683285

> <b_lp_Chiralities_Consistent>
1

> <s_lp_Variant>
CHEMBL1795101_lig102-1

> <s_i_glide_gridfile>
glide-grid_1lru

> <i_i_glide_lignum>
145

> <i_i_glide_rotatable_bonds>
6

> <r_i_docking_score>
-8.19935977176983

> <r_i_glide_ligand_efficiency>
-0.372698171444083

> <r_i_glide_ligand_efficiency_sa>
-1.04431493377366

> <r_i_glide_ligand_efficiency_ln>
-2.00422260713501

> <r_i_glide_gscore>
-8.19935977176983

> <r_i_glide_lipo>
-1.59717832645339

> <r_i_glide_hbond>
-0.775314187036259

> <r_i_glide_metal>
-2.3

> <r_i_glide_rewards>
-1.05095660200574

> <r_i_glide_evdw>
-23.5297069549561

> <r_i_glide_ecoul>
-13.155219078064

> <r_i_glide_erotb>
0.794630757576567

> <r_i_glide_esite>
-0.120773204393616

> <r_i_glide_emodel>
-54.034084946865

> <r_i_glide_energy>
-36.68492603302

> <r_i_glide_einternal>
7.0168571472168

> <i_i_glide_confnum>
54

> <i_i_glide_posenum>
315

> <r_i_glide_eff_state_penalty>
0

> <s_user_duplicate_titles>
CHEMBL1795101_lig102,83119

> <s_m_subgroup_title>
dock_pv

> <s_m_subgroupid>
dock_pv

> <b_m_subgroup_collapsed>
1

$$$$
CHEMBL1795101_lig42
                    3D
 Schrodinger Suite 2021-1.
 76 78  0  0  1  0            999 V2000
  -36.7483   27.4004   66.8148 N   0  0  0  0  0  0
  -35.5201   27.2676   67.3416 C   0  0  0  0  0  0
  -37.9325   27.9026   67.5411 C   0  0  2  0  0  0
  -34.5614   26.2740   66.6718 C   0  0  1  0  0  0
  -39.2347   22.5220   71.2633 N   0  0  0  0  0  0
  -38.9287   26.7440   67.4070 C   0  0  0  0  0  0
  -39.0896   23.4840   70.2522 C   0  0  0  0  0  0
  -38.4135   29.3496   67.1324 C   0  0  0  0  0  0
  -38.9335   25.5953   68.3872 C   0  0  0  0  0  0
  -33.0911   26.7792   66.4999 C   0  0  0  0  0  0
  -34.6644   25.0400   67.6129 C   0  0  0  0  0  0
  -33.4784   28.9583   65.2570 C   0  0  0  0  0  0
  -35.1917   27.7590   68.4149 O   0  0  0  0  0  0
  -39.7332   26.7556   66.4730 O   0  0  0  0  0  0
  -32.8101   27.8286   65.4991 N   0  0  0  0  0  0
  -40.0650   22.8498   72.4412 C   0  0  2  0  0  0
  -33.1848   29.7589   64.3709 O   0  0  0  0  0  0
  -38.1789   24.5243   70.4333 C   0  0  0  0  0  0
  -39.9149   23.4973   69.1222 C   0  0  0  0  0  0
  -38.0846   25.5568   69.5057 C   0  0  0  0  0  0
  -39.8371   24.5377   68.2007 C   0  0  0  0  0  0
  -39.6152   21.1400   70.9639 C   0  0  0  0  0  0
  -31.5851   27.7589   64.8160 O   0  0  0  0  0  0
  -33.9710   23.7361   67.2205 C   0  0  0  0  0  0
  -38.7787   24.5852   73.6074 O   0  0  0  0  0  0
  -41.0555   20.9470   71.4112 C   0  0  0  0  0  0
  -38.3005   29.6443   65.6153 C   0  0  0  0  0  0
  -37.4929   30.3521   67.8632 C   0  0  0  0  0  0
  -39.8565   29.6755   67.6070 C   0  0  0  0  0  0
  -39.2981   23.2750   73.7143 C   0  0  0  0  0  0
  -41.0268   21.6822   72.7309 C   0  0  0  0  0  0
  -34.3289   22.6540   68.2622 C   0  0  0  0  0  0
  -34.4265   23.1724   65.8574 C   0  0  0  0  0  0
  -35.1932   21.8994   66.1877 C   0  0  0  0  0  0
  -34.5340   21.3840   67.4591 C   0  0  0  0  0  0
  -36.9266   27.0126   65.8948 H   0  0  0  0  0  0
  -37.7161   27.9915   68.6038 H   0  0  0  0  0  0
  -34.9566   26.0255   65.6866 H   0  0  0  0  0  0
  -32.6696   27.0842   67.4585 H   0  0  0  0  0  0
  -32.5007   25.9107   66.2149 H   0  0  0  0  0  0
  -35.7218   24.7867   67.7442 H   0  0  0  0  0  0
  -34.2977   25.3040   68.6099 H   0  0  0  0  0  0
  -34.3382   29.0747   65.9298 H   0  0  0  0  0  0
  -40.6970   23.7123   72.2145 H   0  0  0  0  0  0
  -37.5370   24.5337   71.3015 H   0  0  0  0  0  0
  -40.6472   22.7183   68.9675 H   0  0  0  0  0  0
  -37.3456   26.3149   69.7080 H   0  0  0  0  0  0
  -40.5081   24.5183   67.3525 H   0  0  0  0  0  0
  -39.4409   20.9037   69.9145 H   0  0  0  0  0  0
  -38.9490   20.4837   71.5255 H   0  0  0  0  0  0
  -30.9512   27.4551   65.4880 H   0  0  0  0  0  0
  -32.8907   23.8827   67.2148 H   0  0  0  0  0  0
  -38.3248   24.8070   74.4241 H   0  0  0  0  0  0
  -41.7512   21.3827   70.6934 H   0  0  0  0  0  0
  -41.3167   19.8933   71.5191 H   0  0  0  0  0  0
  -38.9007   28.9591   65.0211 H   0  0  0  0  0  0
  -38.6560   30.6491   65.3757 H   0  0  0  0  0  0
  -37.2694   29.5890   65.2607 H   0  0  0  0  0  0
  -37.5822   30.2690   68.9480 H   0  0  0  0  0  0
  -36.4451   30.1875   67.6029 H   0  0  0  0  0  0
  -37.7498   31.3788   67.6162 H   0  0  0  0  0  0
  -39.9542   29.5958   68.6911 H   0  0  0  0  0  0
  -40.1409   30.6940   67.3376 H   0  0  0  0  0  0
  -40.6014   29.0241   67.1533 H   0  0  0  0  0  0
  -39.9726   23.2763   74.5713 H   0  0  0  0  0  0
  -38.5094   22.5615   73.9544 H   0  0  0  0  0  0
  -42.0333   22.0325   72.9620 H   0  0  0  0  0  0
  -40.6782   21.0419   73.5433 H   0  0  0  0  0  0
  -35.2576   22.8823   68.7901 H   0  0  0  0  0  0
  -33.5845   22.5580   69.0430 H   0  0  0  0  0  0
  -33.5629   22.9367   65.2358 H   0  0  0  0  0  0
  -35.0538   23.8513   65.2792 H   0  0  0  0  0  0
  -36.2357   22.1389   66.4133 H   0  0  0  0  0  0
  -35.1843   21.1968   65.3565 H   0  0  0  0  0  0
  -35.1606   20.6685   67.9803 H   0  0  0  0  0  0
  -33.5852   20.8928   67.2547 H   0  0  0  0  0  0
  1  2  1  0  0  0
  1  3  1  0  0  0
  1 36  1  0  0  0
  2  4  1  0  0  0
  2 13  2  0  0  0
  3  6  1  0  0  0
  3  8  1  0  0  0
  3 37  1  0  0  0
  4 10  1  0  0  0
  4 11  1  0  0  0
  4 38  1  0  0  0
  5  7  1  0  0  0
  5 16  1  0  0  0
  5 22  1  0  0  0
  6  9  1  0  0  0
  6 14  2  0  0  0
  7 19  1  0  0  0
  7 18  2  0  0  0
  8 27  1  0  0  0
  8 28  1  0  0  0
  8 29  1  0  0  0
  9 20  2  0  0  0
  9 21  1  0  0  0
 10 15  1  0  0  0
 10 39  1  0  0  0
 10 40  1  0  0  0
 11 24  1  0  0  0
 11 41  1  0  0  0
 11 42  1  0  0  0
 12 15  1  0  0  0
 12 17  2  0  0  0
 12 43  1  0  0  0
 15 23  1  0  0  0
 16 30  1  0  0  0
 16 31  1  0  0  0
 16 44  1  0  0  0
 18 20  1  0  0  0
 18 45  1  0  0  0
 19 21  2  0  0  0
 19 46  1  0  0  0
 20 47  1  0  0  0
 21 48  1  0  0  0
 22 26  1  0  0  0
 22 49  1  0  0  0
 22 50  1  0  0  0
 23 51  1  0  0  0
 24 32  1  0  0  0
 24 33  1  0  0  0
 24 52  1  0  0  0
 25 30  1  0  0  0
 25 53  1  0  0  0
 26 31  1  0  0  0
 26 54  1  0  0  0
 26 55  1  0  0  0
 27 56  1  0  0  0
 27 57  1  0  0  0
 27 58  1  0  0  0
 28 59  1  0  0  0
 28 60  1  0  0  0
 28 61  1  0  0  0
 29 62  1  0  0  0
 29 63  1  0  0  0
 29 64  1  0  0  0
 30 65  1  0  0  0
 30 66  1  0  0  0
 31 67  1  0  0  0
 31 68  1  0  0  0
 32 35  1  0  0  0
 32 69  1  0  0  0
 32 70  1  0  0  0
 33 34  1  0  0  0
 33 71  1  0  0  0
 33 72  1  0  0  0
 34 35  1  0  0  0
 34 73  1  0  0  0
 34 74  1  0  0  0
 35 75  1  0  0  0
 35 76  1  0  0  0
M  END
> <s_m_entry_id>
39999

> <s_m_entry_name>
dock_pv.23

> <s_m_Source_Path>
/home/csk/Desktop/cluster/DUD-E-result/def

> <s_m_Source_File>
dock_pv.maegz

> <i_m_Source_File_Index>
23

> <chembl_id>
CHEMBL160513

> <chembl_pref_name>
None

> <i_lp_mmshare_version>
53161

> <i_f3d_flags>
0

> <r_lp_tautomer_probability>
0.99990000499975

> <s_lp_Force_Field>
OPLS_2005

> <r_lp_Energy>
73.7866

> <b_lp_Chiralities_Consistent>
1

> <s_lp_Variant>
CHEMBL1795101_lig42-1

> <s_i_glide_gridfile>
glide-grid_1lru

> <i_i_glide_lignum>
78

> <i_i_glide_rotatable_bonds>
15

> <r_i_docking_score>
-8.09434935500824

> <r_i_glide_ligand_efficiency>
-0.231267124428807

> <r_i_glide_ligand_efficiency_sa>
-0.756490098476735

> <r_i_glide_ligand_efficiency_ln>
-1.77688932782926

> <r_i_glide_gscore>
-8.09434935500824

> <r_i_glide_lipo>
-3.20550363601074

> <r_i_glide_hbond>
-1.25521706535295

> <r_i_glide_metal>
-0.203481681903354

> <r_i_glide_rewards>
-0.0644685447549691

> <r_i_glide_evdw>
-31.69508934021

> <r_i_glide_ecoul>
-16.9324111938477

> <r_i_glide_erotb>
0.855006071428231

> <r_i_glide_esite>
-0.0960683523268216

> <r_i_glide_emodel>
-59.212496075047

> <r_i_glide_energy>
-48.6275005340576

> <r_i_glide_einternal>
21.1667976379395

> <i_i_glide_confnum>
446

> <i_i_glide_posenum>
4

> <r_i_glide_eff_state_penalty>
0

> <s_user_duplicate_titles>
CHEMBL1795101_lig42,260981

> <s_m_subgroup_title>
dock_pv

> <s_m_subgroupid>
dock_pv

> <b_m_subgroup_collapsed>
1

$$$$
CHEMBL1795101_lig134
                    3D
 Schrodinger Suite 2021-1.
 57 59  0  0  1  0            999 V2000
  -33.9722   28.1590   65.3191 C   0  0  0  0  0  0
  -33.7790   28.7607   66.4904 N   0  0  0  0  0  0
  -33.1573   28.1604   64.4150 O   0  0  0  0  0  0
  -34.7142   28.8502   67.6009 C   0  0  0  0  0  0
  -35.8259   27.7611   67.7393 C   0  0  2  0  0  0
  -35.2567   26.3166   67.7464 C   0  0  0  0  0  0
  -37.0577   28.0451   66.8117 C   0  0  0  0  0  0
  -38.3022   28.5674   67.5687 C   0  0  0  0  0  0
  -38.0989   29.9543   68.2058 C   0  0  0  0  0  0
  -39.4801   30.6043   68.1972 C   0  0  0  0  0  0
  -40.0807   30.1446   66.8714 C   0  0  0  0  0  0
  -39.5454   28.7207   66.6649 C   0  0  0  0  0  0
  -34.2483   26.0935   68.4160 O   0  0  0  0  0  0
  -37.9356   24.2840   67.6867 C   0  0  0  0  0  0
  -38.5746   24.8828   66.8150 O   0  0  0  0  0  0
  -35.8782   25.3399   67.0454 N   0  0  0  0  0  0
  -36.5749   24.3484   67.7789 N   0  0  0  0  0  0
  -35.6806   23.2579   68.2470 C   0  0  0  0  0  0
  -35.0385   22.5827   67.0195 C   0  0  0  0  0  0
  -34.3471   23.6197   66.1306 C   0  0  0  0  0  0
  -35.3088   24.7795   65.7919 C   0  0  0  0  0  0
  -38.6951   23.4266   68.6757 C   0  0  0  0  0  0
  -38.3233   23.3713   70.0280 C   0  0  0  0  0  0
  -39.0443   22.5858   70.9235 C   0  0  0  0  0  0
  -40.1488   21.8655   70.4764 C   0  0  0  0  0  0
  -40.5453   21.9319   69.1434 C   0  0  0  0  0  0
  -39.8235   22.7152   68.2475 C   0  0  0  0  0  0
  -32.7850   29.7393   66.4702 O   0  0  0  0  0  0
  -34.9409   27.6472   65.2712 H   0  0  0  0  0  0
  -35.1541   29.8486   67.6150 H   0  0  0  0  0  0
  -34.0479   28.7936   68.4537 H   0  0  0  0  0  0
  -36.1906   27.8398   68.7645 H   0  0  0  0  0  0
  -37.3598   27.1688   66.2410 H   0  0  0  0  0  0
  -36.7912   28.7690   66.0397 H   0  0  0  0  0  0
  -38.5428   27.8506   68.3570 H   0  0  0  0  0  0
  -37.4039   30.5588   67.6215 H   0  0  0  0  0  0
  -37.6964   29.8856   69.2150 H   0  0  0  0  0  0
  -39.4272   31.6914   68.2789 H   0  0  0  0  0  0
  -40.0752   30.2381   69.0357 H   0  0  0  0  0  0
  -39.7305   30.7935   66.0659 H   0  0  0  0  0  0
  -41.1700   30.1899   66.8721 H   0  0  0  0  0  0
  -40.2994   27.9816   66.9396 H   0  0  0  0  0  0
  -39.3102   28.5589   65.6149 H   0  0  0  0  0  0
  -34.9168   23.6653   68.9117 H   0  0  0  0  0  0
  -36.2238   22.5225   68.8150 H   0  0  0  0  0  0
  -34.3221   21.8257   67.3421 H   0  0  0  0  0  0
  -35.8000   22.0471   66.4492 H   0  0  0  0  0  0
  -33.9927   23.1479   65.2137 H   0  0  0  0  0  0
  -33.4555   24.0087   66.6275 H   0  0  0  0  0  0
  -36.1366   24.4191   65.1781 H   0  0  0  0  0  0
  -34.7849   25.5244   65.1996 H   0  0  0  0  0  0
  -37.4773   23.9354   70.3960 H   0  0  0  0  0  0
  -38.7498   22.5386   71.9617 H   0  0  0  0  0  0
  -40.7077   21.2565   71.1718 H   0  0  0  0  0  0
  -41.4074   21.3773   68.8024 H   0  0  0  0  0  0
  -40.1424   22.7570   67.2150 H   0  0  0  0  0  0
  -32.0814   29.3591   67.0230 H   0  0  0  0  0  0
  1  2  1  0  0  0
  1  3  2  0  0  0
  1 29  1  0  0  0
  2  4  1  0  0  0
  2 28  1  0  0  0
  4  5  1  0  0  0
  4 30  1  0  0  0
  4 31  1  0  0  0
  5  6  1  0  0  0
  5  7  1  0  0  0
  5 32  1  0  0  0
  6 13  2  0  0  0
  6 16  1  0  0  0
  7  8  1  0  0  0
  7 33  1  0  0  0
  7 34  1  0  0  0
  8  9  1  0  0  0
  8 12  1  0  0  0
  8 35  1  0  0  0
  9 10  1  0  0  0
  9 36  1  0  0  0
  9 37  1  0  0  0
 10 11  1  0  0  0
 10 38  1  0  0  0
 10 39  1  0  0  0
 11 12  1  0  0  0
 11 40  1  0  0  0
 11 41  1  0  0  0
 12 42  1  0  0  0
 12 43  1  0  0  0
 14 17  1  0  0  0
 14 15  2  0  0  0
 14 22  1  0  0  0
 16 17  1  0  0  0
 16 21  1  0  0  0
 17 18  1  0  0  0
 18 19  1  0  0  0
 18 44  1  0  0  0
 18 45  1  0  0  0
 19 20  1  0  0  0
 19 46  1  0  0  0
 19 47  1  0  0  0
 20 21  1  0  0  0
 20 48  1  0  0  0
 20 49  1  0  0  0
 21 50  1  0  0  0
 21 51  1  0  0  0
 22 23  2  0  0  0
 22 27  1  0  0  0
 23 24  1  0  0  0
 23 52  1  0  0  0
 24 25  2  0  0  0
 24 53  1  0  0  0
 25 26  1  0  0  0
 25 54  1  0  0  0
 26 27  2  0  0  0
 26 55  1  0  0  0
 27 56  1  0  0  0
 28 57  1  0  0  0
M  END
> <s_m_entry_id>
40000

> <s_m_entry_name>
dock_pv.24

> <s_m_Source_Path>
/home/csk/Desktop/cluster/DUD-E-result/def

> <s_m_Source_File>
dock_pv.maegz

> <i_m_Source_File_Index>
24

> <chembl_id>
CHEMBL1796086

> <chembl_pref_name>
None

> <i_lp_mmshare_version>
53161

> <i_f3d_flags>
0

> <r_lp_tautomer_probability>
1

> <s_lp_Force_Field>
OPLS_2005

> <r_lp_Energy>
56.151082

> <b_lp_Chiralities_Consistent>
1

> <s_lp_Variant>
CHEMBL1795101_lig134-1

> <s_i_glide_gridfile>
glide-grid_1lru

> <i_i_glide_lignum>
179

> <i_i_glide_rotatable_bonds>
10

> <r_i_docking_score>
-8.08680684185094

> <r_i_glide_ligand_efficiency>
-0.288814530066105

> <r_i_glide_ligand_efficiency_sa>
-0.87701101594206

> <r_i_glide_ligand_efficiency_ln>
-1.86667245806544

> <r_i_glide_gscore>
-8.08680684185094

> <r_i_glide_lipo>
-2.09965181680986

> <r_i_glide_hbond>
-0.501237668144641

> <r_i_glide_metal>
-2.3

> <r_i_glide_rewards>
-0.705843232955433

> <r_i_glide_evdw>
-30.3165836334229

> <r_i_glide_ecoul>
-12.4814510345459

> <r_i_glide_erotb>
0.907972712912024

> <r_i_glide_esite>
0

> <r_i_glide_emodel>
-49.8527196691486

> <r_i_glide_energy>
-42.7980346679688

> <r_i_glide_einternal>
21.9971351623535

> <i_i_glide_confnum>
211

> <i_i_glide_posenum>
293

> <r_i_glide_eff_state_penalty>
0

> <s_user_duplicate_titles>
CHEMBL1795101_lig134

> <s_m_subgroup_title>
dock_pv

> <s_m_subgroupid>
dock_pv

> <b_m_subgroup_collapsed>
1

$$$$
CHEMBL1795101_lig12
                    3D
 Schrodinger Suite 2021-1.
 38 38  0  0  1  0            999 V2000
  -36.1785   26.6793   67.5040 S   0  0  0  0  0  0
  -35.5192   27.9484   66.2272 C   0  0  2  0  0  0
  -34.0166   28.2281   66.5247 C   0  0  0  0  0  0
  -33.1709   28.5590   65.2849 C   0  0  0  0  0  0
  -35.7788   27.1463   68.8341 O   0  0  0  0  0  0
  -37.5824   26.3634   67.2150 O   0  0  0  0  0  0
  -35.3298   25.1316   67.2021 C   0  0  0  0  0  0
  -33.5842   29.3273   64.4150 O   0  0  0  0  0  0
  -31.9850   27.9466   65.2150 N   0  0  0  0  0  0
  -31.1850   28.1590   64.0922 O   0  0  0  0  0  0
  -36.3820   29.2553   66.1936 C   0  0  0  0  0  0
  -35.5287   24.4860   65.9828 C   0  0  0  0  0  0
  -34.6038   24.5046   68.2161 C   0  0  0  0  0  0
  -37.9144   29.0999   66.3396 C   0  0  0  0  0  0
  -38.7495   30.3901   66.2349 C   0  0  0  0  0  0
  -38.9139   30.9434   64.8150 C   0  0  0  0  0  0
  -35.0249   23.2079   65.7716 C   0  0  0  0  0  0
  -34.1200   23.2149   68.0150 C   0  0  0  0  0  0
  -34.3453   22.5674   66.8011 C   0  0  0  0  0  0
  -35.5850   27.4234   65.2781 H   0  0  0  0  0  0
  -33.9074   29.0463   67.2374 H   0  0  0  0  0  0
  -33.5728   27.3639   67.0226 H   0  0  0  0  0  0
  -31.5341   27.3246   65.8906 H   0  0  0  0  0  0
  -30.4138   28.6428   64.4175 H   0  0  0  0  0  0
  -36.1752   29.7688   65.2560 H   0  0  0  0  0  0
  -36.0471   29.9264   66.9858 H   0  0  0  0  0  0
  -36.1127   24.9590   65.2150 H   0  0  0  0  0  0
  -34.4580   24.9840   69.1731 H   0  0  0  0  0  0
  -38.1242   28.7068   67.3338 H   0  0  0  0  0  0
  -38.2860   28.3648   65.6254 H   0  0  0  0  0  0
  -38.3448   31.1600   66.8929 H   0  0  0  0  0  0
  -39.7469   30.1799   66.6234 H   0  0  0  0  0  0
  -39.6364   31.7590   64.8150 H   0  0  0  0  0  0
  -39.2770   30.1831   64.1230 H   0  0  0  0  0  0
  -37.9850   31.3428   64.4151 H   0  0  0  0  0  0
  -35.1850   22.7040   64.8287 H   0  0  0  0  0  0
  -33.5850   22.7137   68.8074 H   0  0  0  0  0  0
  -33.9850   21.5602   66.6532 H   0  0  0  0  0  0
  1  2  1  0  0  0
  1  5  2  0  0  0
  1  6  2  0  0  0
  1  7  1  0  0  0
  2  3  1  0  0  0
  2 11  1  0  0  0
  2 20  1  0  0  0
  3  4  1  0  0  0
  3 21  1  0  0  0
  3 22  1  0  0  0
  4  8  2  0  0  0
  4  9  1  0  0  0
  7 12  2  0  0  0
  7 13  1  0  0  0
  9 10  1  0  0  0
  9 23  1  0  0  0
 10 24  1  0  0  0
 11 14  1  0  0  0
 11 25  1  0  0  0
 11 26  1  0  0  0
 12 17  1  0  0  0
 12 27  1  0  0  0
 13 18  2  0  0  0
 13 28  1  0  0  0
 14 15  1  0  0  0
 14 29  1  0  0  0
 14 30  1  0  0  0
 15 16  1  0  0  0
 15 31  1  0  0  0
 15 32  1  0  0  0
 16 33  1  0  0  0
 16 34  1  0  0  0
 16 35  1  0  0  0
 17 19  2  0  0  0
 17 36  1  0  0  0
 18 19  1  0  0  0
 18 37  1  0  0  0
 19 38  1  0  0  0
M  END
> <s_m_entry_id>
40001

> <s_m_entry_name>
dock_pv.25

> <s_m_Source_Path>
/home/csk/Desktop/cluster/DUD-E-result/def

> <s_m_Source_File>
dock_pv.maegz

> <i_m_Source_File_Index>
25

> <chembl_id>
CHEMBL263501

> <chembl_pref_name>
None

> <i_lp_mmshare_version>
53161

> <i_f3d_flags>
0

> <r_lp_tautomer_probability>
1

> <s_lp_Force_Field>
OPLS_2005

> <r_lp_Energy>
9.554449

> <b_lp_Chiralities_Consistent>
1

> <s_lp_Variant>
CHEMBL1795101_lig12-1

> <s_i_glide_gridfile>
glide-grid_1lru

> <i_i_glide_lignum>
28

> <i_i_glide_rotatable_bonds>
9

> <r_i_docking_score>
-8.07198932973848

> <r_i_glide_ligand_efficiency>
-0.424841543670446

> <r_i_glide_ligand_efficiency_sa>
-1.13364787446314

> <r_i_glide_ligand_efficiency_ln>
-2.04642266552297

> <r_i_glide_gscore>
-8.07198932973848

> <r_i_glide_lipo>
-2.43246062083421

> <r_i_glide_hbond>
-0.453856839770787

> <r_i_glide_metal>
-2.3

> <r_i_glide_rewards>
-1.46345039851607

> <r_i_glide_evdw>
-26.7077159881592

> <r_i_glide_ecoul>
-17.6118278503418

> <r_i_glide_erotb>
2.67354139069512

> <r_i_glide_esite>
-0.1186028843533

> <r_i_glide_emodel>
-66.9455244506464

> <r_i_glide_energy>
-44.319543838501

> <r_i_glide_einternal>
4.74978303909302

> <i_i_glide_confnum>
1

> <i_i_glide_posenum>
76

> <r_i_glide_eff_state_penalty>
0

> <s_user_duplicate_titles>
CHEMBL1795101_lig12,CHEMBL1795101_lig15,121680

> <s_m_subgroup_title>
dock_pv

> <s_m_subgroupid>
dock_pv

> <b_m_subgroup_collapsed>
1

$$$$
CHEMBL1795101_lig150
                    3D
 Schrodinger Suite 2021-1.
 60 62  0  0  1  0            999 V2000
  -32.6140   28.7521   65.3788 C   0  0  0  0  0  0
  -33.4888   27.8131   65.7893 N   0  0  0  0  0  0
  -32.7850   29.5002   64.4150 O   0  0  0  0  0  0
  -33.3123   26.8564   66.8723 C   0  0  0  0  0  0
  -34.6430   26.1507   67.2434 C   0  0  2  0  0  0
  -35.7428   27.1106   67.7135 C   0  0  0  0  0  0
  -34.4422   24.9653   68.2124 C   0  0  0  0  0  0
  -34.9095   23.6834   67.5139 C   0  0  0  0  0  0
  -33.9509   23.2086   66.4175 C   0  0  0  0  0  0
  -34.3573   21.7590   66.2243 C   0  0  0  0  0  0
  -34.7798   21.2579   67.6147 C   0  0  0  0  0  0
  -35.0820   22.5069   68.4538 C   0  0  0  0  0  0
  -35.6418   27.6124   68.8150 O   0  0  0  0  0  0
  -36.8073   27.3564   66.9182 N   0  0  0  0  0  0
  -38.0862   27.0054   67.3969 N   0  0  0  0  0  0
  -39.0402   28.0951   67.1674 C   0  0  0  0  0  0
  -38.1225   29.2847   66.9492 C   0  0  0  0  0  0
  -36.8997   28.6804   66.2802 C   0  0  0  0  0  0
  -38.4932   25.7168   67.4010 C   0  0  0  0  0  0
  -38.4092   24.9821   66.4150 O   0  0  0  0  0  0
  -39.3925   24.0697   69.0198 C   0  0  0  0  0  0
  -40.0353   23.1892   68.1346 C   0  0  0  0  0  0
  -40.5109   21.9615   68.5847 C   0  0  0  0  0  0
  -40.3443   21.5960   69.9175 C   0  0  0  0  0  0
  -39.7080   22.4627   70.8040 C   0  0  0  0  0  0
  -39.2334   23.7141   70.3717 C   0  0  0  0  0  0
  -38.6090   24.6239   71.2104 O   0  0  0  0  0  0
  -38.4442   24.3106   72.5893 C   0  0  0  0  0  0
  -34.3644   27.3597   64.8150 O   0  0  0  0  0  0
  -38.9236   25.3349   68.6195 N   0  0  0  0  0  0
  -31.7217   28.7775   66.0150 H   0  0  0  0  0  0
  -32.8481   27.3185   67.7444 H   0  0  0  0  0  0
  -32.6190   26.0898   66.5289 H   0  0  0  0  0  0
  -35.0446   25.7316   66.3206 H   0  0  0  0  0  0
  -34.9999   25.0866   69.1435 H   0  0  0  0  0  0
  -33.3993   24.8699   68.5224 H   0  0  0  0  0  0
  -35.8917   23.8646   67.0671 H   0  0  0  0  0  0
  -32.9111   23.3014   66.7362 H   0  0  0  0  0  0
  -34.0615   23.7745   65.4916 H   0  0  0  0  0  0
  -33.5849   21.1489   65.7681 H   0  0  0  0  0  0
  -35.1851   21.7175   65.5265 H   0  0  0  0  0  0
  -33.9850   20.6705   68.0718 H   0  0  0  0  0  0
  -35.6455   20.6035   67.5442 H   0  0  0  0  0  0
  -36.1099   22.5502   68.8150 H   0  0  0  0  0  0
  -34.4183   22.5683   69.3185 H   0  0  0  0  0  0
  -39.7012   28.2403   68.0236 H   0  0  0  0  0  0
  -39.6440   27.8998   66.2790 H   0  0  0  0  0  0
  -37.8369   29.7144   67.9129 H   0  0  0  0  0  0
  -38.5791   30.0942   66.3775 H   0  0  0  0  0  0
  -36.0185   29.3169   66.4052 H   0  0  0  0  0  0
  -37.0752   28.5589   65.2150 H   0  0  0  0  0  0
  -40.1935   23.4467   67.0980 H   0  0  0  0  0  0
  -41.0074   21.2965   67.8929 H   0  0  0  0  0  0
  -40.7088   20.6400   70.2642 H   0  0  0  0  0  0
  -39.5974   22.1455   71.8294 H   0  0  0  0  0  0
  -37.9850   25.1576   73.0970 H   0  0  0  0  0  0
  -39.4017   24.1216   73.0771 H   0  0  0  0  0  0
  -37.7931   23.4461   72.7270 H   0  0  0  0  0  0
  -35.2319   27.6169   65.1387 H   0  0  0  0  0  0
  -38.8184   25.9993   69.3730 H   0  0  0  0  0  0
  1  2  1  0  0  0
  1  3  2  0  0  0
  1 31  1  0  0  0
  2  4  1  0  0  0
  2 29  1  0  0  0
  4  5  1  0  0  0
  4 32  1  0  0  0
  4 33  1  0  0  0
  5  6  1  0  0  0
  5  7  1  0  0  0
  5 34  1  0  0  0
  6 13  2  0  0  0
  6 14  1  0  0  0
  7  8  1  0  0  0
  7 35  1  0  0  0
  7 36  1  0  0  0
  8  9  1  0  0  0
  8 12  1  0  0  0
  8 37  1  0  0  0
  9 10  1  0  0  0
  9 38  1  0  0  0
  9 39  1  0  0  0
 10 11  1  0  0  0
 10 40  1  0  0  0
 10 41  1  0  0  0
 11 12  1  0  0  0
 11 42  1  0  0  0
 11 43  1  0  0  0
 12 44  1  0  0  0
 12 45  1  0  0  0
 14 15  1  0  0  0
 14 18  1  0  0  0
 15 16  1  0  0  0
 15 19  1  0  0  0
 16 17  1  0  0  0
 16 46  1  0  0  0
 16 47  1  0  0  0
 17 18  1  0  0  0
 17 48  1  0  0  0
 17 49  1  0  0  0
 18 50  1  0  0  0
 18 51  1  0  0  0
 19 20  2  0  0  0
 19 30  1  0  0  0
 21 22  2  0  0  0
 21 26  1  0  0  0
 21 30  1  0  0  0
 22 23  1  0  0  0
 22 52  1  0  0  0
 23 24  2  0  0  0
 23 53  1  0  0  0
 24 25  1  0  0  0
 24 54  1  0  0  0
 25 26  2  0  0  0
 25 55  1  0  0  0
 26 27  1  0  0  0
 27 28  1  0  0  0
 28 56  1  0  0  0
 28 57  1  0  0  0
 28 58  1  0  0  0
 29 59  1  0  0  0
 30 60  1  0  0  0
M  END
> <s_m_entry_id>
40003

> <s_m_entry_name>
dock_pv.27

> <s_m_Source_Path>
/home/csk/Desktop/cluster/DUD-E-result/def

> <s_m_Source_File>
dock_pv.maegz

> <i_m_Source_File_Index>
27

> <chembl_id>
CHEMBL1796103

> <chembl_pref_name>
None

> <i_lp_mmshare_version>
53161

> <i_f3d_flags>
0

> <r_lp_tautomer_probability>
1

> <s_lp_Force_Field>
OPLS_2005

> <r_lp_Energy>
72.427059

> <b_lp_Chiralities_Consistent>
1

> <s_lp_Variant>
CHEMBL1795101_lig150-1

> <s_i_glide_gridfile>
glide-grid_1lru

> <i_i_glide_lignum>
195

> <i_i_glide_rotatable_bonds>
12

> <r_i_docking_score>
-8.03683882648262

> <r_i_glide_ligand_efficiency>
-0.267894627549421

> <r_i_glide_ligand_efficiency_sa>
-0.832410893948231

> <r_i_glide_ligand_efficiency_ln>
-1.82605734974954

> <r_i_glide_gscore>
-8.03683882648262

> <r_i_glide_lipo>
-2.87604155404012

> <r_i_glide_hbond>
-1.19397988153687

> <r_i_glide_metal>
0

> <r_i_glide_rewards>
-0.428357700600048

> <r_i_glide_evdw>
-34.2446670532227

> <r_i_glide_ecoul>
-17.7982616424561

> <r_i_glide_erotb>
0.903309943000517

> <r_i_glide_esite>
-0.0597970342765629

> <r_i_glide_emodel>
-63.8868308920417

> <r_i_glide_energy>
-52.0429286956787

> <r_i_glide_einternal>
28.3174152374268

> <i_i_glide_confnum>
484

> <i_i_glide_posenum>
118

> <r_i_glide_eff_state_penalty>
0

> <s_user_duplicate_titles>
CHEMBL1795101_lig150

> <s_m_subgroup_title>
dock_pv

> <s_m_subgroupid>
dock_pv

> <b_m_subgroup_collapsed>
1

$$$$
CHEMBL1795101_lig52
                    3D
 Schrodinger Suite 2021-1.
 73 75  0  0  1  0            999 V2000
  -37.1422   27.3680   67.3126 N   0  0  0  0  0  0
  -36.0345   27.0344   67.9906 C   0  0  0  0  0  0
  -38.3954   27.8658   67.8845 C   0  0  2  0  0  0
  -34.7650   26.8634   67.1480 C   0  0  1  0  0  0
  -39.3930   26.7715   67.4936 C   0  0  0  0  0  0
  -40.1202   23.2700   69.9802 C   0  0  0  0  0  0
  -39.6424   25.5762   68.3784 C   0  0  0  0  0  0
  -40.3713   22.1574   70.7889 N   0  0  0  0  0  0
  -40.8563   23.5019   68.8016 C   0  0  0  0  0  0
  -40.6071   24.6257   68.0118 C   0  0  0  0  0  0
  -39.1665   24.2316   70.3484 C   0  0  0  0  0  0
  -38.7082   29.3512   67.4351 C   0  0  0  0  0  0
  -33.9023   28.1507   67.3069 C   0  0  0  0  0  0
  -33.9807   25.5466   67.3844 C   0  0  0  0  0  0
  -38.9280   25.3571   69.5649 C   0  0  0  0  0  0
  -33.5338   28.5618   64.8499 C   0  0  0  0  0  0
  -35.9851   26.9592   69.2147 O   0  0  0  0  0  0
  -39.9858   26.8692   66.4193 O   0  0  0  0  0  0
  -33.1848   28.6531   66.1394 N   0  0  0  0  0  0
  -33.1850   29.3590   63.9884 O   0  0  0  0  0  0
  -40.3531   19.7083   72.3403 O   0  0  0  0  0  0
  -41.8506   22.6647   68.4167 F   0  0  0  0  0  0
  -32.3855   29.7590   66.4141 O   0  0  0  0  0  0
  -39.8812   22.0857   72.1799 C   0  0  0  0  0  0
  -40.2783   20.8165   70.1831 C   0  0  0  0  0  0
  -34.6346   24.2944   66.7464 C   0  0  0  0  0  0
  -40.1311   29.8022   67.8355 C   0  0  0  0  0  0
  -38.5273   29.5838   65.9058 C   0  0  0  0  0  0
  -37.7004   30.3034   68.1305 C   0  0  0  0  0  0
  -40.9299   19.7130   71.0428 C   0  0  0  0  0  0
  -40.5367   20.9533   72.9997 C   0  0  0  0  0  0
  -33.7233   23.0644   66.7998 C   0  0  0  0  0  0
  -35.9215   23.8148   67.4394 C   0  0  0  0  0  0
  -36.0285   22.3116   67.1576 C   0  0  0  0  0  0
  -34.6527   21.8570   66.6532 C   0  0  0  0  0  0
  -37.0835   27.4355   66.3062 H   0  0  0  0  0  0
  -38.3434   27.9095   68.9727 H   0  0  0  0  0  0
  -35.1461   26.8095   66.1319 H   0  0  0  0  0  0
  -41.1913   24.7497   67.1099 H   0  0  0  0  0  0
  -38.5784   24.1118   71.2453 H   0  0  0  0  0  0
  -34.5177   29.0002   67.6163 H   0  0  0  0  0  0
  -33.1965   28.0228   68.1289 H   0  0  0  0  0  0
  -33.7961   25.3895   68.4492 H   0  0  0  0  0  0
  -32.9879   25.6593   66.9424 H   0  0  0  0  0  0
  -38.1682   26.0359   69.9170 H   0  0  0  0  0  0
  -34.2076   27.7214   64.6505 H   0  0  0  0  0  0
  -31.6869   29.3875   66.9919 H   0  0  0  0  0  0
  -38.7958   21.9735   72.1830 H   0  0  0  0  0  0
  -40.1002   23.0301   72.6803 H   0  0  0  0  0  0
  -40.7558   20.7964   69.2050 H   0  0  0  0  0  0
  -39.2264   20.5820   70.0148 H   0  0  0  0  0  0
  -34.8521   24.5094   65.6977 H   0  0  0  0  0  0
  -40.3049   29.6883   68.9055 H   0  0  0  0  0  0
  -40.3005   30.8530   67.5941 H   0  0  0  0  0  0
  -40.8876   29.2395   67.2948 H   0  0  0  0  0  0
  -37.5019   29.4093   65.5774 H   0  0  0  0  0  0
  -39.1820   28.9605   65.3004 H   0  0  0  0  0  0
  -38.7588   30.6155   65.6362 H   0  0  0  0  0  0
  -36.6846   30.1602   67.7611 H   0  0  0  0  0  0
  -37.9492   31.3522   67.9572 H   0  0  0  0  0  0
  -37.6741   30.1596   69.2109 H   0  0  0  0  0  0
  -42.0105   19.8504   71.1011 H   0  0  0  0  0  0
  -40.7621   18.7378   70.5845 H   0  0  0  0  0  0
  -41.5989   21.1481   73.1605 H   0  0  0  0  0  0
  -40.0770   20.8975   73.9870 H   0  0  0  0  0  0
  -33.1964   23.0172   67.7542 H   0  0  0  0  0  0
  -32.9678   23.0875   66.0140 H   0  0  0  0  0  0
  -36.8004   24.3403   67.0666 H   0  0  0  0  0  0
  -35.8740   23.9927   68.5146 H   0  0  0  0  0  0
  -36.3254   21.7605   68.0455 H   0  0  0  0  0  0
  -36.8007   22.1208   66.4150 H   0  0  0  0  0  0
  -34.2820   20.9976   67.2143 H   0  0  0  0  0  0
  -34.7177   21.5629   65.6029 H   0  0  0  0  0  0
  1  2  1  0  0  0
  1  3  1  0  0  0
  1 36  1  0  0  0
  2  4  1  0  0  0
  2 17  2  0  0  0
  3  5  1  0  0  0
  3 12  1  0  0  0
  3 37  1  0  0  0
  4 13  1  0  0  0
  4 14  1  0  0  0
  4 38  1  0  0  0
  5  7  1  0  0  0
  5 18  2  0  0  0
  6 11  1  0  0  0
  6  8  1  0  0  0
  6  9  2  0  0  0
  7 10  2  0  0  0
  7 15  1  0  0  0
  8 24  1  0  0  0
  8 25  1  0  0  0
  9 10  1  0  0  0
  9 22  1  0  0  0
 10 39  1  0  0  0
 11 15  2  0  0  0
 11 40  1  0  0  0
 12 27  1  0  0  0
 12 28  1  0  0  0
 12 29  1  0  0  0
 13 19  1  0  0  0
 13 41  1  0  0  0
 13 42  1  0  0  0
 14 26  1  0  0  0
 14 43  1  0  0  0
 14 44  1  0  0  0
 15 45  1  0  0  0
 16 19  1  0  0  0
 16 20  2  0  0  0
 16 46  1  0  0  0
 19 23  1  0  0  0
 21 30  1  0  0  0
 21 31  1  0  0  0
 23 47  1  0  0  0
 24 31  1  0  0  0
 24 48  1  0  0  0
 24 49  1  0  0  0
 25 30  1  0  0  0
 25 50  1  0  0  0
 25 51  1  0  0  0
 26 32  1  0  0  0
 26 33  1  0  0  0
 26 52  1  0  0  0
 27 53  1  0  0  0
 27 54  1  0  0  0
 27 55  1  0  0  0
 28 56  1  0  0  0
 28 57  1  0  0  0
 28 58  1  0  0  0
 29 59  1  0  0  0
 29 60  1  0  0  0
 29 61  1  0  0  0
 30 62  1  0  0  0
 30 63  1  0  0  0
 31 64  1  0  0  0
 31 65  1  0  0  0
 32 35  1  0  0  0
 32 66  1  0  0  0
 32 67  1  0  0  0
 33 34  1  0  0  0
 33 68  1  0  0  0
 33 69  1  0  0  0
 34 35  1  0  0  0
 34 70  1  0  0  0
 34 71  1  0  0  0
 35 72  1  0  0  0
 35 73  1  0  0  0
M  END
> <s_m_entry_id>
40004

> <s_m_entry_name>
dock_pv.28

> <s_m_Source_Path>
/home/csk/Desktop/cluster/DUD-E-result/def

> <s_m_Source_File>
dock_pv.maegz

> <i_m_Source_File_Index>
28

> <chembl_id>
CHEMBL156414

> <chembl_pref_name>
None

> <i_lp_mmshare_version>
53161

> <i_f3d_flags>
0

> <r_lp_tautomer_probability>
0.99990000499975

> <s_lp_Force_Field>
OPLS_2005

> <r_lp_Energy>
59.363094

> <b_lp_Chiralities_Consistent>
1

> <s_lp_Variant>
CHEMBL1795101_lig52-1

> <s_i_glide_gridfile>
glide-grid_1lru

> <i_i_glide_lignum>
88

> <i_i_glide_rotatable_bonds>
13

> <r_i_docking_score>
-8.00863722270165

> <r_i_glide_ligand_efficiency>
-0.228818206362904

> <r_i_glide_ligand_efficiency_sa>
-0.748479525104441

> <r_i_glide_ligand_efficiency_ln>
-1.75807361250968

> <r_i_glide_gscore>
-8.00863722270165

> <r_i_glide_lipo>
-2.56252346101827

> <r_i_glide_hbond>
-0.815052456868992

> <r_i_glide_metal>
-1.56608285412747

> <r_i_glide_rewards>
-0.0545648848195857

> <r_i_glide_evdw>
-29.1721267700195

> <r_i_glide_ecoul>
-15.2450046539307

> <r_i_glide_erotb>
0.758186343708941

> <r_i_glide_esite>
-0.0232428729857027

> <r_i_glide_emodel>
-56.0134910636999

> <r_i_glide_energy>
-44.4171314239502

> <r_i_glide_einternal>
17.3197631835938

> <i_i_glide_confnum>
422

> <i_i_glide_posenum>
117

> <r_i_glide_eff_state_penalty>
0

> <s_user_duplicate_titles>
CHEMBL1795101_lig52,261401

> <s_m_subgroup_title>
dock_pv

> <s_m_subgroupid>
dock_pv

> <b_m_subgroup_collapsed>
1

$$$$
CHEMBL1795101_lig109
                    3D
 Schrodinger Suite 2021-1.
 28 29  0  0  1  0            999 V2000
  -36.3888   27.3198   68.1252 S   0  0  0  0  0  0
  -34.6272   27.4360   68.0150 N   0  0  2  0  0  0
  -36.5225   26.1531   66.8150 N   0  0  0  0  0  0
  -33.9843   28.5887   67.3018 C   0  0  0  0  0  0
  -33.4064   28.1607   65.9394 C   0  0  0  0  0  0
  -33.9066   26.1519   68.1857 C   0  0  0  0  0  0
  -35.6196   25.0991   66.6017 C   0  0  0  0  0  0
  -34.3730   25.0401   67.2608 C   0  0  0  0  0  0
  -36.7644   26.6845   69.3913 O   0  0  0  0  0  0
  -37.0271   28.5854   67.7512 O   0  0  0  0  0  0
  -34.0360   27.3941   65.2148 O   0  0  0  0  0  0
  -32.2016   28.6557   65.6150 N   0  0  0  0  0  0
  -31.5594   28.1591   64.4753 O   0  0  0  0  0  0
  -33.5273   23.9645   66.9788 C   0  0  0  0  0  0
  -35.9468   24.1549   65.6281 C   0  0  0  0  0  0
  -33.8656   23.0185   66.0154 C   0  0  0  0  0  0
  -35.0548   23.1358   65.3166 C   0  0  0  0  0  0
  -37.1851   26.3881   66.0936 H   0  0  0  0  0  0
  -33.2272   29.0298   67.9494 H   0  0  0  0  0  0
  -34.7309   29.3587   67.1157 H   0  0  0  0  0  0
  -32.8435   26.3328   68.0145 H   0  0  0  0  0  0
  -33.9943   25.8282   69.2175 H   0  0  0  0  0  0
  -31.5873   29.1940   66.2168 H   0  0  0  0  0  0
  -30.8345   27.6259   64.8360 H   0  0  0  0  0  0
  -32.5645   23.9019   67.4637 H   0  0  0  0  0  0
  -36.8714   24.2309   65.0770 H   0  0  0  0  0  0
  -33.1900   22.2228   65.7504 H   0  0  0  0  0  0
  -35.2514   22.4467   64.5128 H   0  0  0  0  0  0
  1  2  1  0  0  0
  1  3  1  0  0  0
  1  9  2  0  0  0
  1 10  2  0  0  0
  2  4  1  0  0  0
  2  6  1  0  0  0
  3  7  1  0  0  0
  3 18  1  0  0  0
  4  5  1  0  0  0
  4 19  1  0  0  0
  4 20  1  0  0  0
  5 11  2  0  0  0
  5 12  1  0  0  0
  6  8  1  0  0  0
  6 21  1  0  0  0
  6 22  1  0  0  0
  7  8  1  0  0  0
  7 15  2  0  0  0
  8 14  2  0  0  0
 12 13  1  0  0  0
 12 23  1  0  0  0
 13 24  1  0  0  0
 14 16  1  0  0  0
 14 25  1  0  0  0
 15 17  1  0  0  0
 15 26  1  0  0  0
 16 17  2  0  0  0
 16 27  1  0  0  0
 17 28  1  0  0  0
M  END
> <s_m_entry_id>
40005

> <s_m_entry_name>
dock_pv.29

> <s_m_Source_Path>
/home/csk/Desktop/cluster/DUD-E-result/def

> <s_m_Source_File>
dock_pv.maegz

> <i_m_Source_File_Index>
29

> <chembl_id>
CHEMBL296155

> <chembl_pref_name>
None

> <i_lp_mmshare_version>
53161

> <i_f3d_flags>
0

> <r_lp_tautomer_probability>
1

> <s_lp_Force_Field>
OPLS_2005

> <r_lp_Energy>
8.93428

> <b_lp_Chiralities_Consistent>
1

> <s_lp_Variant>
CHEMBL1795101_lig109-1

> <s_i_glide_gridfile>
glide-grid_1lru

> <i_i_glide_lignum>
152

> <i_i_glide_rotatable_bonds>
4

> <r_i_docking_score>
-7.89833519488675

> <r_i_glide_ligand_efficiency>
-0.464607952640397

> <r_i_glide_ligand_efficiency_sa>
-1.19463787436945

> <r_i_glide_ligand_efficiency_ln>
-2.06049976506889

> <r_i_glide_gscore>
-7.89833519488675

> <r_i_glide_lipo>
-1.61568720623278

> <r_i_glide_hbond>
-0.410024855637715

> <r_i_glide_metal>
-1.68920611579683

> <r_i_glide_rewards>
-1.65340193174985

> <r_i_glide_evdw>
-31.4387073516846

> <r_i_glide_ecoul>
-9.13846015930176

> <r_i_glide_erotb>
0.533111569187189

> <r_i_glide_esite>
-0.120422263177271

> <r_i_glide_emodel>
-58.6298579569705

> <r_i_glide_energy>
-40.5771675109863

> <r_i_glide_einternal>
5.42612028121948

> <i_i_glide_confnum>
7

> <i_i_glide_posenum>
3

> <r_i_glide_eff_state_penalty>
0

> <s_user_duplicate_titles>
CHEMBL1795101_lig109,81951

> <s_m_subgroup_title>
dock_pv

> <s_m_subgroupid>
dock_pv

> <b_m_subgroup_collapsed>
1

$$$$
CHEMBL1795101_lig21
                    3D
 Schrodinger Suite 2021-1.
 36 37  0  0  1  0            999 V2000
  -36.6052   27.3490   67.8471 S   0  0  0  0  0  0
  -35.1714   26.9265   66.6746 C   0  0  1  0  0  0
  -34.0094   27.9270   66.9631 C   0  0  0  0  0  0
  -33.2935   28.4020   65.6988 C   0  0  0  0  0  0
  -36.0865   27.2784   69.2150 O   0  0  0  0  0  0
  -37.2385   28.5825   67.3683 O   0  0  0  0  0  0
  -37.8081   26.0268   67.6869 C   0  0  0  0  0  0
  -34.7950   25.4405   66.7610 C   0  0  0  0  0  0
  -33.9343   28.9590   64.8150 O   0  0  0  0  0  0
  -31.9850   28.1590   65.6150 N   0  0  0  0  0  0
  -31.3486   28.3899   64.4150 O   0  0  0  0  0  0
  -37.6047   24.8204   68.3629 C   0  0  0  0  0  0
  -38.9590   26.2181   66.9209 C   0  0  0  0  0  0
  -34.1991   24.9163   67.9132 C   0  0  0  0  0  0
  -35.1380   24.5755   65.7153 C   0  0  0  0  0  0
  -39.8965   25.1933   66.8152 C   0  0  0  0  0  0
  -34.0061   23.5419   68.0318 C   0  0  0  0  0  0
  -34.9194   23.2068   65.8218 C   0  0  0  0  0  0
  -38.5345   23.7919   68.2436 C   0  0  0  0  0  0
  -39.6754   23.9828   67.4683 C   0  0  0  0  0  0
  -34.3749   22.6919   66.9922 C   0  0  0  0  0  0
  -35.5884   27.1202   65.6851 H   0  0  0  0  0  0
  -34.3984   28.8364   67.4236 H   0  0  0  0  0  0
  -33.2984   27.5237   67.6843 H   0  0  0  0  0  0
  -31.4130   27.6049   66.2520 H   0  0  0  0  0  0
  -30.5175   28.8230   64.6499 H   0  0  0  0  0  0
  -36.7275   24.6766   68.9767 H   0  0  0  0  0  0
  -39.1276   27.1577   66.4150 H   0  0  0  0  0  0
  -33.9365   25.5582   68.7413 H   0  0  0  0  0  0
  -35.5850   24.9589   64.8150 H   0  0  0  0  0  0
  -40.7861   25.3301   66.2191 H   0  0  0  0  0  0
  -33.5850   23.1322   68.9371 H   0  0  0  0  0  0
  -35.1850   22.5498   65.0060 H   0  0  0  0  0  0
  -38.3733   22.8529   68.7531 H   0  0  0  0  0  0
  -40.3966   23.1838   67.3715 H   0  0  0  0  0  0
  -34.2225   21.6268   67.0896 H   0  0  0  0  0  0
  1  2  1  0  0  0
  1  5  2  0  0  0
  1  6  2  0  0  0
  1  7  1  0  0  0
  2  3  1  0  0  0
  2  8  1  0  0  0
  2 22  1  0  0  0
  3  4  1  0  0  0
  3 23  1  0  0  0
  3 24  1  0  0  0
  4  9  2  0  0  0
  4 10  1  0  0  0
  7 12  2  0  0  0
  7 13  1  0  0  0
  8 14  2  0  0  0
  8 15  1  0  0  0
 10 11  1  0  0  0
 10 25  1  0  0  0
 11 26  1  0  0  0
 12 19  1  0  0  0
 12 27  1  0  0  0
 13 16  2  0  0  0
 13 28  1  0  0  0
 14 17  1  0  0  0
 14 29  1  0  0  0
 15 18  2  0  0  0
 15 30  1  0  0  0
 16 20  1  0  0  0
 16 31  1  0  0  0
 17 21  2  0  0  0
 17 32  1  0  0  0
 18 21  1  0  0  0
 18 33  1  0  0  0
 19 20  2  0  0  0
 19 34  1  0  0  0
 20 35  1  0  0  0
 21 36  1  0  0  0
M  END
> <s_m_entry_id>
40006

> <s_m_entry_name>
dock_pv.30

> <s_m_Source_Path>
/home/csk/Desktop/cluster/DUD-E-result/def

> <s_m_Source_File>
dock_pv.maegz

> <i_m_Source_File_Index>
30

> <chembl_id>
CHEMBL78130

> <chembl_pref_name>
None

> <i_lp_mmshare_version>
53161

> <i_f3d_flags>
0

> <r_lp_tautomer_probability>
1

> <s_lp_Force_Field>
OPLS_2005

> <r_lp_Energy>
14.164037

> <b_lp_Chiralities_Consistent>
1

> <s_lp_Variant>
CHEMBL1795101_lig21-2

> <s_i_glide_gridfile>
glide-grid_1lru

> <i_i_glide_lignum>
51

> <i_i_glide_rotatable_bonds>
7

> <r_i_docking_score>
-7.81462648756574

> <r_i_glide_ligand_efficiency>
-0.372125070836464

> <r_i_glide_ligand_efficiency_sa>
-1.02666485352636

> <r_i_glide_ligand_efficiency_ln>
-1.93215060811096

> <r_i_glide_gscore>
-7.81462648756574

> <r_i_glide_lipo>
-2.32923163146825

> <r_i_glide_hbond>
-0.406302273089429

> <r_i_glide_metal>
-1.09930440133806

> <r_i_glide_rewards>
-1.32490492162655

> <r_i_glide_evdw>
-29.5730724334717

> <r_i_glide_ecoul>
-15.0925493240356

> <r_i_glide_erotb>
1.18765276023548

> <r_i_glide_esite>
-0.1

> <r_i_glide_emodel>
-64.7867410391988

> <r_i_glide_energy>
-44.6656217575073

> <r_i_glide_einternal>
7.79565382003784

> <i_i_glide_confnum>
61

> <i_i_glide_posenum>
211

> <r_i_glide_eff_state_penalty>
0

> <s_user_duplicate_titles>
CHEMBL1795101_lig21,121711

> <s_m_subgroup_title>
dock_pv

> <s_m_subgroupid>
dock_pv

> <b_m_subgroup_collapsed>
1

$$$$
CHEMBL1795101_lig92
                    3D
 Schrodinger Suite 2021-1.
 52 51  0  0  1  0            999 V2000
  -39.1895   26.8832   67.2150 C   0  0  0  0  0  0
  -36.7676   27.0601   66.8150 N   0  0  0  0  0  0
  -35.5105   26.9279   67.2531 C   0  0  0  0  0  0
  -37.8772   27.6409   67.5749 C   0  0  1  0  0  0
  -34.5657   26.1390   66.3237 C   0  0  1  0  0  0
  -39.2830   25.5389   67.4176 N   0  0  0  0  0  0
  -33.0978   26.6472   66.3683 C   0  0  0  0  0  0
  -40.1078   27.5290   66.7088 O   0  0  0  0  0  0
  -33.4915   28.9171   65.2648 C   0  0  0  0  0  0
  -37.9144   29.2072   67.4580 C   0  0  2  0  0  0
  -35.1244   27.3591   68.3414 O   0  0  0  0  0  0
  -32.7849   27.8100   65.5162 N   0  0  0  0  0  0
  -33.1850   29.7590   64.4150 O   0  0  0  0  0  0
  -31.5850   27.7590   64.8150 O   0  0  0  0  0  0
  -34.6970   24.6159   66.6106 C   0  0  0  0  0  0
  -39.1054   29.3778   69.6154 O   0  0  0  0  0  0
  -39.0140   29.9044   68.3055 C   0  0  0  0  0  0
  -38.3200   24.7208   68.1600 C   0  0  0  0  0  0
  -40.4670   24.7756   67.0109 C   0  0  0  0  0  0
  -37.9354   29.7131   65.9938 C   0  0  0  0  0  0
  -34.2697   24.1005   68.0066 C   0  0  0  0  0  0
  -34.9328   22.7605   68.3871 C   0  0  0  0  0  0
  -34.6052   21.5888   67.4474 C   0  0  0  0  0  0
  -37.0028   26.7003   65.8975 H   0  0  0  0  0  0
  -37.7150   27.4310   68.6334 H   0  0  0  0  0  0
  -34.9032   26.2577   65.2924 H   0  0  0  0  0  0
  -32.7440   26.8173   67.3871 H   0  0  0  0  0  0
  -32.4752   25.8263   66.0151 H   0  0  0  0  0  0
  -34.4016   28.9593   65.8809 H   0  0  0  0  0  0
  -36.9708   29.5581   67.8810 H   0  0  0  0  0  0
  -30.9342   27.4716   65.4777 H   0  0  0  0  0  0
  -34.1317   24.0716   65.8520 H   0  0  0  0  0  0
  -35.7337   24.3252   66.4256 H   0  0  0  0  0  0
  -38.4529   29.8136   70.1820 H   0  0  0  0  0  0
  -38.8200   30.9759   68.3728 H   0  0  0  0  0  0
  -39.9919   29.8039   67.8352 H   0  0  0  0  0  0
  -37.9476   23.9166   67.5243 H   0  0  0  0  0  0
  -37.4591   25.2679   68.5395 H   0  0  0  0  0  0
  -38.8071   24.2633   69.0213 H   0  0  0  0  0  0
  -40.9999   24.4087   67.8890 H   0  0  0  0  0  0
  -41.1711   25.3578   66.4155 H   0  0  0  0  0  0
  -40.1731   23.9110   66.4150 H   0  0  0  0  0  0
  -38.7974   29.3406   65.4413 H   0  0  0  0  0  0
  -37.9855   30.7989   65.9491 H   0  0  0  0  0  0
  -37.0413   29.4103   65.4479 H   0  0  0  0  0  0
  -34.5279   24.8242   68.7793 H   0  0  0  0  0  0
  -33.1845   24.0076   68.0464 H   0  0  0  0  0  0
  -36.0137   22.8953   68.4188 H   0  0  0  0  0  0
  -34.6409   22.4943   69.4039 H   0  0  0  0  0  0
  -35.2721   20.7442   67.6152 H   0  0  0  0  0  0
  -33.5908   21.2359   67.6151 H   0  0  0  0  0  0
  -34.7046   21.8563   66.3956 H   0  0  0  0  0  0
  1  4  1  0  0  0
  1  6  1  0  0  0
  1  8  2  0  0  0
  2  4  1  0  0  0
  2  3  1  0  0  0
  2 24  1  0  0  0
  3  5  1  0  0  0
  3 11  2  0  0  0
  4 10  1  0  0  0
  4 25  1  0  0  0
  5  7  1  0  0  0
  5 15  1  0  0  0
  5 26  1  0  0  0
  6 18  1  0  0  0
  6 19  1  0  0  0
  7 12  1  0  0  0
  7 27  1  0  0  0
  7 28  1  0  0  0
  9 12  1  0  0  0
  9 13  2  0  0  0
  9 29  1  0  0  0
 10 17  1  0  0  0
 10 20  1  0  0  0
 10 30  1  0  0  0
 12 14  1  0  0  0
 14 31  1  0  0  0
 15 21  1  0  0  0
 15 32  1  0  0  0
 15 33  1  0  0  0
 16 17  1  0  0  0
 16 34  1  0  0  0
 17 35  1  0  0  0
 17 36  1  0  0  0
 18 37  1  0  0  0
 18 38  1  0  0  0
 18 39  1  0  0  0
 19 40  1  0  0  0
 19 41  1  0  0  0
 19 42  1  0  0  0
 20 43  1  0  0  0
 20 44  1  0  0  0
 20 45  1  0  0  0
 21 22  1  0  0  0
 21 46  1  0  0  0
 21 47  1  0  0  0
 22 23  1  0  0  0
 22 48  1  0  0  0
 22 49  1  0  0  0
 23 50  1  0  0  0
 23 51  1  0  0  0
 23 52  1  0  0  0
M  END
> <s_m_entry_id>
40007

> <s_m_entry_name>
dock_pv.31

> <s_m_Source_Path>
/home/csk/Desktop/cluster/DUD-E-result/def

> <s_m_Source_File>
dock_pv.maegz

> <i_m_Source_File_Index>
31

> <chembl_id>
CHEMBL90401

> <chembl_pref_name>
None

> <i_lp_mmshare_version>
53161

> <i_f3d_flags>
0

> <r_lp_tautomer_probability>
1

> <s_lp_Force_Field>
OPLS_2005

> <r_lp_Energy>
25.174616

> <b_lp_Chiralities_Consistent>
1

> <s_lp_Variant>
CHEMBL1795101_lig92-1

> <s_i_glide_gridfile>
glide-grid_1lru

> <i_i_glide_lignum>
132

> <i_i_glide_rotatable_bonds>
15

> <r_i_docking_score>
-7.81296360411124

> <r_i_glide_ligand_efficiency>
-0.339694069743967

> <r_i_glide_ligand_efficiency_sa>
-0.966044747186586

> <r_i_glide_ligand_efficiency_ln>
-1.88924544351124

> <r_i_glide_gscore>
-7.81296360411124

> <r_i_glide_lipo>
-2.04530544052515

> <r_i_glide_hbond>
-1.6

> <r_i_glide_metal>
-0.208756696834636

> <r_i_glide_rewards>
-1.14743993043712

> <r_i_glide_evdw>
-26.6556911468506

> <r_i_glide_ecoul>
-20.5851726531982

> <r_i_glide_erotb>
1.71362277904258

> <r_i_glide_esite>
-0.104523860034635

> <r_i_glide_emodel>
-63.2588038244038

> <r_i_glide_energy>
-47.2408638000488

> <r_i_glide_einternal>
14.3016567230225

> <i_i_glide_confnum>
191

> <i_i_glide_posenum>
393

> <r_i_glide_eff_state_penalty>
0

> <s_user_duplicate_titles>
CHEMBL1795101_lig92,148642

> <s_m_subgroup_title>
dock_pv

> <s_m_subgroupid>
dock_pv

> <b_m_subgroup_collapsed>
1

$$$$
CHEMBL1795101_lig154
                    3D
 Schrodinger Suite 2021-1.
 56 58  0  0  1  0            999 V2000
  -32.3849   28.2570   65.5580 C   0  0  0  0  0  0
  -33.5968   28.4667   66.0850 N   0  0  0  0  0  0
  -32.0386   28.5590   64.4151 O   0  0  0  0  0  0
  -34.0639   28.1978   67.4379 C   0  0  0  0  0  0
  -35.0320   26.9844   67.4870 C   0  0  2  0  0  0
  -36.3465   27.3275   68.2271 C   0  0  0  0  0  0
  -34.3045   25.7049   67.9809 C   0  0  0  0  0  0
  -35.0902   24.3872   67.7946 C   0  0  0  0  0  0
  -35.3991   24.0760   66.3217 C   0  0  0  0  0  0
  -35.5605   22.5587   66.2481 C   0  0  0  0  0  0
  -34.8001   21.9716   67.4352 C   0  0  0  0  0  0
  -34.2916   23.1581   68.2601 C   0  0  0  0  0  0
  -36.3850   27.2949   69.4565 O   0  0  0  0  0  0
  -37.4260   27.6549   67.4733 N   0  0  0  0  0  0
  -38.7339   27.3189   67.8761 N   0  0  0  0  0  0
  -39.6371   28.4495   67.6125 C   0  0  0  0  0  0
  -38.6808   29.5897   67.3054 C   0  0  0  0  0  0
  -37.4725   28.9010   66.6983 C   0  0  0  0  0  0
  -39.1964   26.0536   67.7765 C   0  0  0  0  0  0
  -38.9496   25.3229   66.8150 O   0  0  0  0  0  0
  -40.6519   24.5234   69.0891 C   0  0  0  0  0  0
  -41.0065   23.6061   68.0882 C   0  0  0  0  0  0
  -41.7326   22.4641   68.4156 C   0  0  0  0  0  0
  -42.1147   22.2420   69.7348 C   0  0  0  0  0  0
  -41.7784   23.1519   70.7325 C   0  0  0  0  0  0
  -41.0508   24.2939   70.4082 C   0  0  0  0  0  0
  -42.8223   21.1343   70.0482 F   0  0  0  0  0  0
  -39.9312   25.7075   68.8534 N   0  0  0  0  0  0
  -34.5551   28.9590   65.2199 O   0  0  0  0  0  0
  -31.7405   27.7590   66.2841 H   0  0  0  0  0  0
  -34.5388   29.1212   67.7712 H   0  0  0  0  0  0
  -33.2273   28.0697   68.1285 H   0  0  0  0  0  0
  -35.3593   26.7760   66.4662 H   0  0  0  0  0  0
  -34.0265   25.8154   69.0303 H   0  0  0  0  0  0
  -33.3570   25.6164   67.4442 H   0  0  0  0  0  0
  -36.0233   24.4407   68.3589 H   0  0  0  0  0  0
  -34.5811   24.3977   65.6744 H   0  0  0  0  0  0
  -36.3020   24.5844   65.9770 H   0  0  0  0  0  0
  -35.1866   22.1622   65.3019 H   0  0  0  0  0  0
  -36.6171   22.3056   66.3536 H   0  0  0  0  0  0
  -33.9848   21.3268   67.1100 H   0  0  0  0  0  0
  -35.4769   21.3486   68.0161 H   0  0  0  0  0  0
  -34.4098   22.9769   69.3294 H   0  0  0  0  0  0
  -33.2250   23.3014   68.0740 H   0  0  0  0  0  0
  -40.2672   28.6708   68.4763 H   0  0  0  0  0  0
  -40.2780   28.2477   66.7496 H   0  0  0  0  0  0
  -38.3849   30.0843   68.2346 H   0  0  0  0  0  0
  -39.1099   30.3664   66.6690 H   0  0  0  0  0  0
  -36.5840   29.5289   66.7773 H   0  0  0  0  0  0
  -37.6396   28.6592   65.6463 H   0  0  0  0  0  0
  -40.7399   23.7578   67.0541 H   0  0  0  0  0  0
  -42.0012   21.7575   67.6441 H   0  0  0  0  0  0
  -42.0792   22.9691   71.7530 H   0  0  0  0  0  0
  -40.7902   24.9916   71.1907 H   0  0  0  0  0  0
  -39.9533   26.3761   69.6077 H   0  0  0  0  0  0
  -35.1206   28.1993   65.0545 H   0  0  0  0  0  0
  1  2  1  0  0  0
  1  3  2  0  0  0
  1 30  1  0  0  0
  2  4  1  0  0  0
  2 29  1  0  0  0
  4  5  1  0  0  0
  4 31  1  0  0  0
  4 32  1  0  0  0
  5  6  1  0  0  0
  5  7  1  0  0  0
  5 33  1  0  0  0
  6 13  2  0  0  0
  6 14  1  0  0  0
  7  8  1  0  0  0
  7 34  1  0  0  0
  7 35  1  0  0  0
  8  9  1  0  0  0
  8 12  1  0  0  0
  8 36  1  0  0  0
  9 10  1  0  0  0
  9 37  1  0  0  0
  9 38  1  0  0  0
 10 11  1  0  0  0
 10 39  1  0  0  0
 10 40  1  0  0  0
 11 12  1  0  0  0
 11 41  1  0  0  0
 11 42  1  0  0  0
 12 43  1  0  0  0
 12 44  1  0  0  0
 14 15  1  0  0  0
 14 18  1  0  0  0
 15 16  1  0  0  0
 15 19  1  0  0  0
 16 17  1  0  0  0
 16 45  1  0  0  0
 16 46  1  0  0  0
 17 18  1  0  0  0
 17 47  1  0  0  0
 17 48  1  0  0  0
 18 49  1  0  0  0
 18 50  1  0  0  0
 19 20  2  0  0  0
 19 28  1  0  0  0
 21 22  2  0  0  0
 21 26  1  0  0  0
 21 28  1  0  0  0
 22 23  1  0  0  0
 22 51  1  0  0  0
 23 24  2  0  0  0
 23 52  1  0  0  0
 24 25  1  0  0  0
 24 27  1  0  0  0
 25 26  2  0  0  0
 25 53  1  0  0  0
 26 54  1  0  0  0
 28 55  1  0  0  0
 29 56  1  0  0  0
M  END
> <s_m_entry_id>
40008

> <s_m_entry_name>
dock_pv.32

> <s_m_Source_Path>
/home/csk/Desktop/cluster/DUD-E-result/def

> <s_m_Source_File>
dock_pv.maegz

> <i_m_Source_File_Index>
32

> <chembl_id>
CHEMBL1796225

> <chembl_pref_name>
None

> <i_lp_mmshare_version>
53161

> <i_f3d_flags>
0

> <r_lp_tautomer_probability>
1

> <s_lp_Force_Field>
OPLS_2005

> <r_lp_Energy>
67.86357

> <b_lp_Chiralities_Consistent>
1

> <s_lp_Variant>
CHEMBL1795101_lig154-1

> <s_i_glide_gridfile>
glide-grid_1lru

> <i_i_glide_lignum>
199

> <i_i_glide_rotatable_bonds>
11

> <r_i_docking_score>
-7.78897918838397

> <r_i_glide_ligand_efficiency>
-0.26858548925462

> <r_i_glide_ligand_efficiency_sa>
-0.825179716845825

> <r_i_glide_ligand_efficiency_ln>
-1.78347872266947

> <r_i_glide_gscore>
-7.78897918838397

> <r_i_glide_lipo>
-2.08694398525102

> <r_i_glide_hbond>
-0.725374346757698

> <r_i_glide_metal>
-2.29240568381979

> <r_i_glide_rewards>
-0.636133752775663

> <r_i_glide_evdw>
-30.2851581573486

> <r_i_glide_ecoul>
-9.240159034729

> <r_i_glide_erotb>
0.952160343296978

> <r_i_glide_esite>
-0.1

> <r_i_glide_emodel>
-49.1322145981325

> <r_i_glide_energy>
-39.5253171920776

> <r_i_glide_einternal>
22.186502456665

> <i_i_glide_confnum>
471

> <i_i_glide_posenum>
358

> <r_i_glide_eff_state_penalty>
0

> <s_user_duplicate_titles>
CHEMBL1795101_lig154

> <s_m_subgroup_title>
dock_pv

> <s_m_subgroupid>
dock_pv

> <b_m_subgroup_collapsed>
1

$$$$
CHEMBL1795101_lig3
                    3D
 Schrodinger Suite 2021-1.
 38 38  0  0  1  0            999 V2000
  -36.4673   27.2164   67.7641 S   0  0  0  0  0  0
  -34.9562   27.1806   66.5943 C   0  0  1  0  0  0
  -34.1208   28.4907   66.6995 C   0  0  0  0  0  0
  -37.4131   28.6929   67.3978 C   0  0  0  0  0  0
  -33.1973   28.6985   65.4833 C   0  0  0  0  0  0
  -37.3518   26.1014   67.4098 O   0  0  0  0  0  0
  -35.9850   27.3590   69.1413 O   0  0  0  0  0  0
  -33.5850   29.3022   64.4837 O   0  0  0  0  0  0
  -37.5458   29.1487   66.0864 C   0  0  0  0  0  0
  -38.0811   29.3427   68.4382 C   0  0  0  0  0  0
  -31.9843   28.1590   65.5614 N   0  0  0  0  0  0
  -39.0523   30.8667   66.8483 C   0  0  0  0  0  0
  -38.3850   30.2221   65.8088 C   0  0  0  0  0  0
  -38.8924   30.4403   68.1650 C   0  0  0  0  0  0
  -40.1813   32.3488   66.4634 Br  0  0  0  0  0  0
  -31.1850   28.1590   64.4150 O   0  0  0  0  0  0
  -34.1316   25.8916   66.8737 C   0  0  0  0  0  0
  -34.6933   24.6256   66.1975 C   0  0  0  0  0  0
  -33.7789   23.3981   66.3606 C   0  0  0  0  0  0
  -34.2990   22.1750   65.5926 C   0  0  0  0  0  0
  -35.4017   27.1205   65.6061 H   0  0  0  0  0  0
  -34.7727   29.3590   66.7774 H   0  0  0  0  0  0
  -33.5333   28.4922   67.6187 H   0  0  0  0  0  0
  -37.0084   28.6784   65.2820 H   0  0  0  0  0  0
  -37.9850   28.9895   69.4559 H   0  0  0  0  0  0
  -31.5582   27.6375   66.3246 H   0  0  0  0  0  0
  -38.5009   30.5760   64.7951 H   0  0  0  0  0  0
  -39.4006   30.9516   68.9701 H   0  0  0  0  0  0
  -30.4033   28.6744   64.6517 H   0  0  0  0  0  0
  -34.0443   25.7307   67.9497 H   0  0  0  0  0  0
  -33.1074   26.0142   66.5243 H   0  0  0  0  0  0
  -34.8385   24.8227   65.1342 H   0  0  0  0  0  0
  -35.6791   24.3901   66.5979 H   0  0  0  0  0  0
  -33.6788   23.1483   67.4182 H   0  0  0  0  0  0
  -32.7728   23.6379   66.0150 H   0  0  0  0  0  0
  -33.5850   21.3541   65.6262 H   0  0  0  0  0  0
  -34.4710   22.4079   64.5410 H   0  0  0  0  0  0
  -35.2377   21.8154   66.0147 H   0  0  0  0  0  0
  1  2  1  0  0  0
  1  4  1  0  0  0
  1  6  2  0  0  0
  1  7  2  0  0  0
  2  3  1  0  0  0
  2 17  1  0  0  0
  2 21  1  0  0  0
  3  5  1  0  0  0
  3 22  1  0  0  0
  3 23  1  0  0  0
  4  9  1  0  0  0
  4 10  2  0  0  0
  5  8  2  0  0  0
  5 11  1  0  0  0
  9 13  2  0  0  0
  9 24  1  0  0  0
 10 14  1  0  0  0
 10 25  1  0  0  0
 11 16  1  0  0  0
 11 26  1  0  0  0
 12 14  2  0  0  0
 12 15  1  0  0  0
 12 13  1  0  0  0
 13 27  1  0  0  0
 14 28  1  0  0  0
 16 29  1  0  0  0
 17 18  1  0  0  0
 17 30  1  0  0  0
 17 31  1  0  0  0
 18 19  1  0  0  0
 18 32  1  0  0  0
 18 33  1  0  0  0
 19 20  1  0  0  0
 19 34  1  0  0  0
 19 35  1  0  0  0
 20 36  1  0  0  0
 20 37  1  0  0  0
 20 38  1  0  0  0
M  END
> <s_m_entry_id>
40009

> <s_m_entry_name>
dock_pv.33

> <s_m_Source_Path>
/home/csk/Desktop/cluster/DUD-E-result/def

> <s_m_Source_File>
dock_pv.maegz

> <i_m_Source_File_Index>
33

> <chembl_id>
CHEMBL76782

> <chembl_pref_name>
None

> <i_lp_mmshare_version>
53161

> <i_f3d_flags>
0

> <r_lp_tautomer_probability>
1

> <s_lp_Force_Field>
OPLS_2005

> <r_lp_Energy>
11.634143

> <b_lp_Chiralities_Consistent>
1

> <s_lp_Variant>
CHEMBL1795101_lig3-2

> <s_i_glide_gridfile>
glide-grid_1lru

> <i_i_glide_lignum>
6

> <i_i_glide_rotatable_bonds>
9

> <r_i_docking_score>
-7.71320908102505

> <r_i_glide_ligand_efficiency>
-0.385660454051252

> <r_i_glide_ligand_efficiency_sa>
-1.04684352945536

> <r_i_glide_ligand_efficiency_ln>
-1.93036183431893

> <r_i_glide_gscore>
-7.71320908102505

> <r_i_glide_lipo>
-2.16405504752211

> <r_i_glide_hbond>
-0.438892503854203

> <r_i_glide_metal>
-0.89442838790664

> <r_i_glide_rewards>
-0.924468685966002

> <r_i_glide_evdw>
-30.3056354522705

> <r_i_glide_ecoul>
-16.947301864624

> <r_i_glide_erotb>
0.869265442115293

> <r_i_glide_esite>
-0.103252845584255

> <r_i_glide_emodel>
-67.2093049616309

> <r_i_glide_energy>
-47.2529373168945

> <r_i_glide_einternal>
5.51819324493408

> <i_i_glide_confnum>
3

> <i_i_glide_posenum>
126

> <r_i_glide_eff_state_penalty>
0

> <s_user_duplicate_titles>
CHEMBL1795101_lig3,121578

> <s_m_subgroup_title>
dock_pv

> <s_m_subgroupid>
dock_pv

> <b_m_subgroup_collapsed>
1

$$$$
CHEMBL1795101_lig16
                    3D
 Schrodinger Suite 2021-1.
 44 44  0  0  1  0            999 V2000
  -36.0192   26.6832   67.6063 S   0  0  0  0  0  0
  -34.4818   26.7715   66.4698 C   0  0  1  0  0  0
  -33.8442   28.2022   66.5643 C   0  0  0  0  0  0
  -33.0533   28.5954   65.3160 C   0  0  0  0  0  0
  -36.4987   25.2995   67.6699 O   0  0  0  0  0  0
  -35.6447   27.3590   68.8470 O   0  0  0  0  0  0
  -37.4589   27.6497   66.7973 C   0  0  0  0  0  0
  -33.5850   29.2383   64.4150 O   0  0  0  0  0  0
  -31.7974   28.1590   65.2533 N   0  0  0  0  0  0
  -31.1850   28.1590   64.0150 O   0  0  0  0  0  0
  -33.3953   25.7089   66.8430 C   0  0  0  0  0  0
  -38.5990   27.7875   67.8325 C   0  0  0  0  0  0
  -37.0629   29.0088   66.1766 C   0  0  0  0  0  0
  -33.7799   24.2571   67.1882 C   0  0  0  0  0  0
  -34.4369   23.4686   66.0451 C   0  0  0  0  0  0
  -34.8307   22.0475   66.4689 C   0  0  0  0  0  0
  -39.8017   28.5814   67.2884 C   0  0  0  0  0  0
  -38.2862   29.7590   65.6150 C   0  0  0  0  0  0
  -39.3847   29.9334   66.6782 C   0  0  0  0  0  0
  -34.8885   26.5790   65.4761 H   0  0  0  0  0  0
  -34.5721   28.9817   66.7449 H   0  0  0  0  0  0
  -33.1907   28.2762   67.4353 H   0  0  0  0  0  0
  -37.7501   26.9526   66.0150 H   0  0  0  0  0  0
  -31.2887   27.5934   65.9347 H   0  0  0  0  0  0
  -30.4083   28.7271   64.1239 H   0  0  0  0  0  0
  -32.8140   26.0744   67.6916 H   0  0  0  0  0  0
  -32.6923   25.6591   66.0151 H   0  0  0  0  0  0
  -38.9302   26.8010   68.1611 H   0  0  0  0  0  0
  -38.2191   28.2943   68.7220 H   0  0  0  0  0  0
  -36.6045   29.6424   66.9372 H   0  0  0  0  0  0
  -36.3411   28.8685   65.3717 H   0  0  0  0  0  0
  -34.3865   24.2233   68.0921 H   0  0  0  0  0  0
  -32.8622   23.7365   67.4660 H   0  0  0  0  0  0
  -33.7373   23.4042   65.2150 H   0  0  0  0  0  0
  -35.3156   23.9942   65.6693 H   0  0  0  0  0  0
  -35.1850   21.4726   65.6150 H   0  0  0  0  0  0
  -35.6254   22.0636   67.2158 H   0  0  0  0  0  0
  -33.9850   21.5068   66.8941 H   0  0  0  0  0  0
  -40.3182   27.9846   66.5352 H   0  0  0  0  0  0
  -40.5130   28.7503   68.0963 H   0  0  0  0  0  0
  -38.6958   29.2136   64.7664 H   0  0  0  0  0  0
  -37.9850   30.7298   65.2208 H   0  0  0  0  0  0
  -40.2500   30.4319   66.2394 H   0  0  0  0  0  0
  -39.0225   30.5949   67.4676 H   0  0  0  0  0  0
  1  2  1  0  0  0
  1  5  2  0  0  0
  1  6  2  0  0  0
  1  7  1  0  0  0
  2  3  1  0  0  0
  2 11  1  0  0  0
  2 20  1  0  0  0
  3  4  1  0  0  0
  3 21  1  0  0  0
  3 22  1  0  0  0
  4  8  2  0  0  0
  4  9  1  0  0  0
  7 12  1  0  0  0
  7 13  1  0  0  0
  7 23  1  0  0  0
  9 10  1  0  0  0
  9 24  1  0  0  0
 10 25  1  0  0  0
 11 14  1  0  0  0
 11 26  1  0  0  0
 11 27  1  0  0  0
 12 17  1  0  0  0
 12 28  1  0  0  0
 12 29  1  0  0  0
 13 18  1  0  0  0
 13 30  1  0  0  0
 13 31  1  0  0  0
 14 15  1  0  0  0
 14 32  1  0  0  0
 14 33  1  0  0  0
 15 16  1  0  0  0
 15 34  1  0  0  0
 15 35  1  0  0  0
 16 36  1  0  0  0
 16 37  1  0  0  0
 16 38  1  0  0  0
 17 19  1  0  0  0
 17 39  1  0  0  0
 17 40  1  0  0  0
 18 19  1  0  0  0
 18 41  1  0  0  0
 18 42  1  0  0  0
 19 43  1  0  0  0
 19 44  1  0  0  0
M  END
> <s_m_entry_id>
40010

> <s_m_entry_name>
dock_pv.34

> <s_m_Source_Path>
/home/csk/Desktop/cluster/DUD-E-result/def

> <s_m_Source_File>
dock_pv.maegz

> <i_m_Source_File_Index>
34

> <chembl_id>
CHEMBL77258

> <chembl_pref_name>
None

> <i_lp_mmshare_version>
53161

> <i_f3d_flags>
0

> <r_lp_tautomer_probability>
1

> <s_lp_Force_Field>
OPLS_2005

> <r_lp_Energy>
10.573332

> <b_lp_Chiralities_Consistent>
1

> <s_lp_Variant>
CHEMBL1795101_lig16-2

> <s_i_glide_gridfile>
glide-grid_1lru

> <i_i_glide_lignum>
36

> <i_i_glide_rotatable_bonds>
9

> <r_i_docking_score>
-7.71058212550017

> <r_i_glide_ligand_efficiency>
-0.40582011186843

> <r_i_glide_ligand_efficiency_sa>
-1.08289105453141

> <r_i_glide_ligand_efficiency_ln>
-1.95479817693354

> <r_i_glide_gscore>
-7.71058212550017

> <r_i_glide_lipo>
-2.1477202428778

> <r_i_glide_hbond>
-0.430167008952007

> <r_i_glide_metal>
-2.3

> <r_i_glide_rewards>
-1.39753034828557

> <r_i_glide_evdw>
-25.0079822540283

> <r_i_glide_ecoul>
-17.4908962249756

> <r_i_glide_erotb>
2.57760533633935

> <r_i_glide_esite>
-0.138736315276387

> <r_i_glide_emodel>
-60.2728830439497

> <r_i_glide_energy>
-42.4988784790039

> <r_i_glide_einternal>
5.87402677536011

> <i_i_glide_confnum>
87

> <i_i_glide_posenum>
290

> <r_i_glide_eff_state_penalty>
0

> <s_user_duplicate_titles>
CHEMBL1795101_lig16

> <s_m_subgroup_title>
dock_pv

> <s_m_subgroupid>
dock_pv

> <b_m_subgroup_collapsed>
1

$$$$
CHEMBL1795101_lig139
                    3D
 Schrodinger Suite 2021-1.
 53 55  0  0  1  0            999 V2000
  -33.4671   28.9590   65.2222 C   0  0  0  0  0  0
  -32.7891   27.8515   65.4995 N   0  0  0  0  0  0
  -33.1850   29.7590   64.3353 O   0  0  0  0  0  0
  -33.2449   26.7066   66.3061 C   0  0  0  0  0  0
  -34.7809   26.4147   66.1582 C   0  0  2  0  0  0
  -35.6381   27.0215   67.2969 C   0  0  0  0  0  0
  -35.1113   24.9246   65.8627 C   0  0  0  0  0  0
  -35.4558   23.9706   67.0197 C   0  0  0  0  0  0
  -35.9214   22.6209   66.4649 C   0  0  0  0  0  0
  -35.7069   21.6615   67.6154 C   0  0  0  0  0  0
  -34.4125   22.1398   68.2754 C   0  0  0  0  0  0
  -34.2943   23.6404   67.9716 C   0  0  0  0  0  0
  -35.2021   27.0444   68.4502 O   0  0  0  0  0  0
  -36.8521   27.5247   66.9644 N   0  0  0  0  0  0
  -37.9749   27.3158   67.7995 N   0  0  0  0  0  0
  -38.6304   28.6151   68.0065 C   0  0  0  0  0  0
  -38.3582   29.2980   66.6790 C   0  0  0  0  0  0
  -36.9496   28.8499   66.3332 C   0  0  0  0  0  0
  -38.6838   26.1518   67.7531 C   0  0  0  0  0  0
  -38.5821   25.3584   66.8131 O   0  0  0  0  0  0
  -39.6715   25.8528   68.8655 C   0  0  0  0  0  0
  -40.6580   24.8697   68.6797 C   0  0  0  0  0  0
  -41.5501   24.5911   69.7162 C   0  0  0  0  0  0
  -41.5148   25.2306   70.9114 N   0  0  0  0  0  0
  -40.5526   26.1678   71.0955 C   0  0  0  0  0  0
  -39.6185   26.5020   70.1127 C   0  0  0  0  0  0
  -31.5850   27.7590   64.8150 O   0  0  0  0  0  0
  -34.3514   29.0416   65.8621 H   0  0  0  0  0  0
  -32.9416   26.8751   67.3404 H   0  0  0  0  0  0
  -32.6781   25.8261   66.0147 H   0  0  0  0  0  0
  -35.1044   26.8842   65.2288 H   0  0  0  0  0  0
  -34.3291   24.4849   65.2426 H   0  0  0  0  0  0
  -35.9869   24.9100   65.2150 H   0  0  0  0  0  0
  -36.2748   24.3879   67.6059 H   0  0  0  0  0  0
  -35.3211   22.3155   65.6062 H   0  0  0  0  0  0
  -36.9681   22.6507   66.1586 H   0  0  0  0  0  0
  -35.6417   20.6228   67.2937 H   0  0  0  0  0  0
  -36.5541   21.7585   68.2945 H   0  0  0  0  0  0
  -33.5849   21.6068   67.8203 H   0  0  0  0  0  0
  -34.3852   21.9285   69.3453 H   0  0  0  0  0  0
  -34.3752   24.2283   68.8870 H   0  0  0  0  0  0
  -33.3229   23.8710   67.5314 H   0  0  0  0  0  0
  -38.1333   29.1338   68.8290 H   0  0  0  0  0  0
  -39.6998   28.5631   68.2208 H   0  0  0  0  0  0
  -38.4732   30.3828   66.7111 H   0  0  0  0  0  0
  -39.0612   28.9371   65.9253 H   0  0  0  0  0  0
  -36.2359   29.5530   66.7688 H   0  0  0  0  0  0
  -36.7867   28.8044   65.2554 H   0  0  0  0  0  0
  -40.7353   24.3236   67.7489 H   0  0  0  0  0  0
  -42.3120   23.8349   69.5974 H   0  0  0  0  0  0
  -40.5309   26.6500   72.0626 H   0  0  0  0  0  0
  -38.8645   27.2427   70.3382 H   0  0  0  0  0  0
  -30.9475   27.4739   65.4905 H   0  0  0  0  0  0
  1  2  1  0  0  0
  1  3  2  0  0  0
  1 28  1  0  0  0
  2  4  1  0  0  0
  2 27  1  0  0  0
  4  5  1  0  0  0
  4 29  1  0  0  0
  4 30  1  0  0  0
  5  6  1  0  0  0
  5  7  1  0  0  0
  5 31  1  0  0  0
  6 13  2  0  0  0
  6 14  1  0  0  0
  7  8  1  0  0  0
  7 32  1  0  0  0
  7 33  1  0  0  0
  8  9  1  0  0  0
  8 12  1  0  0  0
  8 34  1  0  0  0
  9 10  1  0  0  0
  9 35  1  0  0  0
  9 36  1  0  0  0
 10 11  1  0  0  0
 10 37  1  0  0  0
 10 38  1  0  0  0
 11 12  1  0  0  0
 11 39  1  0  0  0
 11 40  1  0  0  0
 12 41  1  0  0  0
 12 42  1  0  0  0
 14 15  1  0  0  0
 14 18  1  0  0  0
 15 16  1  0  0  0
 15 19  1  0  0  0
 16 17  1  0  0  0
 16 43  1  0  0  0
 16 44  1  0  0  0
 17 18  1  0  0  0
 17 45  1  0  0  0
 17 46  1  0  0  0
 18 47  1  0  0  0
 18 48  1  0  0  0
 19 20  2  0  0  0
 19 21  1  0  0  0
 21 22  2  0  0  0
 21 26  1  0  0  0
 22 23  1  0  0  0
 22 49  1  0  0  0
 23 24  2  0  0  0
 23 50  1  0  0  0
 24 25  1  0  0  0
 25 26  2  0  0  0
 25 51  1  0  0  0
 26 52  1  0  0  0
 27 53  1  0  0  0
M  END
> <s_m_entry_id>
40011

> <s_m_entry_name>
dock_pv.35

> <s_m_Source_Path>
/home/csk/Desktop/cluster/DUD-E-result/def

> <s_m_Source_File>
dock_pv.maegz

> <i_m_Source_File_Index>
35

> <chembl_id>
CHEMBL1796091

> <chembl_pref_name>
None

> <i_lp_mmshare_version>
53161

> <i_f3d_flags>
0

> <r_lp_tautomer_probability>
1

> <s_lp_Force_Field>
OPLS_2005

> <r_lp_Energy>
57.544766

> <b_lp_Chiralities_Consistent>
1

> <s_lp_Variant>
CHEMBL1795101_lig139-1

> <s_i_glide_gridfile>
glide-grid_1lru

> <i_i_glide_lignum>
184

> <i_i_glide_rotatable_bonds>
10

> <r_i_docking_score>
-7.6459772144609

> <r_i_glide_ligand_efficiency>
-0.28318434127633

> <r_i_glide_ligand_efficiency_sa>
-0.84955302289566

> <r_i_glide_ligand_efficiency_ln>
-1.77985744174048

> <r_i_glide_gscore>
-7.6459772144609

> <r_i_glide_lipo>
-2.12626674294196

> <r_i_glide_hbond>
-1.27614394169571

> <r_i_glide_metal>
-0.208495923611693

> <r_i_glide_rewards>
-0.853095148619105

> <r_i_glide_evdw>
-29.2071094512939

> <r_i_glide_ecoul>
-17.2590408325195

> <r_i_glide_erotb>
0.965412130635318

> <r_i_glide_esite>
-0.0981759907851226

> <r_i_glide_emodel>
-55.6158119482863

> <r_i_glide_energy>
-46.4661502838135

> <r_i_glide_einternal>
20.7755489349365

> <i_i_glide_confnum>
445

> <i_i_glide_posenum>
245

> <r_i_glide_eff_state_penalty>
0

> <s_user_duplicate_titles>
CHEMBL1795101_lig139

> <s_m_subgroup_title>
dock_pv

> <s_m_subgroupid>
dock_pv

> <b_m_subgroup_collapsed>
1

$$$$
CHEMBL1795101_lig62
                    3D
 Schrodinger Suite 2021-1.
 58 58  0  0  1  0            999 V2000
  -36.6640   26.0651   67.1511 N   0  0  0  0  0  0
  -35.3875   26.1342   67.5880 C   0  0  0  0  0  0
  -37.9361   26.3805   67.8551 C   0  0  2  0  0  0
  -37.8641   27.7829   68.4958 C   0  0  0  0  0  0
  -34.2836   25.7208   66.5913 C   0  0  1  0  0  0
  -38.5129   25.2213   68.7680 C   0  0  0  0  0  0
  -38.3088   28.9886   67.7189 C   0  0  0  0  0  0
  -33.1944   26.8151   66.4683 C   0  0  0  0  0  0
  -32.5637   28.7779   65.1182 C   0  0  0  0  0  0
  -35.0720   26.5297   68.7095 O   0  0  0  0  0  0
  -37.5674   27.8881   69.6875 O   0  0  0  0  0  0
  -33.5123   27.9925   65.6665 N   0  0  0  0  0  0
  -32.7853   29.7590   64.4151 O   0  0  0  0  0  0
  -38.2811   29.0062   66.3170 C   0  0  0  0  0  0
  -38.7404   30.1333   68.4054 C   0  0  0  0  0  0
  -39.1854   31.2386   66.3107 C   0  0  0  0  0  0
  -39.6378   32.3574   65.6169 N   0  0  0  0  0  0
  -38.7292   30.1232   65.6149 C   0  0  0  0  0  0
  -39.1812   31.2515   67.7027 C   0  0  0  0  0  0
  -34.7851   28.5585   65.8210 O   0  0  0  0  0  0
  -33.6144   24.3661   66.9847 C   0  0  0  0  0  0
  -38.8348   23.9948   67.8749 C   0  0  0  0  0  0
  -39.8495   25.6223   69.4496 C   0  0  0  0  0  0
  -37.5192   24.7386   69.8581 C   0  0  0  0  0  0
  -33.9928   23.1943   66.0525 C   0  0  0  0  0  0
  -35.2919   22.4631   66.4030 C   0  0  0  0  0  0
  -35.3290   21.8470   67.8086 C   0  0  0  0  0  0
  -36.7892   25.6539   66.2370 H   0  0  0  0  0  0
  -38.6668   26.4625   67.0503 H   0  0  0  0  0  0
  -34.7290   25.6146   65.6001 H   0  0  0  0  0  0
  -32.7859   27.0970   67.4418 H   0  0  0  0  0  0
  -32.3851   26.3411   65.9307 H   0  0  0  0  0  0
  -31.5492   28.3988   65.3347 H   0  0  0  0  0  0
  -37.9129   28.1634   65.7521 H   0  0  0  0  0  0
  -38.7483   30.1652   69.4876 H   0  0  0  0  0  0
  -39.5853   32.4063   64.6023 H   0  0  0  0  0  0
  -39.8701   33.1886   66.1399 H   0  0  0  0  0  0
  -38.7093   30.1265   64.5345 H   0  0  0  0  0  0
  -39.5128   32.1250   68.2457 H   0  0  0  0  0  0
  -35.3301   28.0504   65.2147 H   0  0  0  0  0  0
  -32.5267   24.4489   66.9265 H   0  0  0  0  0  0
  -33.7631   24.1210   68.0371 H   0  0  0  0  0  0
  -37.9510   23.6169   67.3684 H   0  0  0  0  0  0
  -39.2333   23.1654   68.4611 H   0  0  0  0  0  0
  -39.5815   24.2275   67.1142 H   0  0  0  0  0  0
  -39.7348   26.4704   70.1246 H   0  0  0  0  0  0
  -40.6160   25.8794   68.7172 H   0  0  0  0  0  0
  -40.2489   24.8067   70.0541 H   0  0  0  0  0  0
  -37.1884   25.5463   70.5096 H   0  0  0  0  0  0
  -37.9704   23.9840   70.5035 H   0  0  0  0  0  0
  -36.6301   24.2807   69.4264 H   0  0  0  0  0  0
  -34.0619   23.5477   65.0238 H   0  0  0  0  0  0
  -33.1850   22.4719   66.0169 H   0  0  0  0  0  0
  -36.1347   23.1345   66.2550 H   0  0  0  0  0  0
  -35.4091   21.6559   65.6834 H   0  0  0  0  0  0
  -36.2862   21.3591   67.9848 H   0  0  0  0  0  0
  -34.5418   21.1031   67.9378 H   0  0  0  0  0  0
  -35.2157   22.5926   68.5931 H   0  0  0  0  0  0
  1  2  1  0  0  0
  1  3  1  0  0  0
  1 28  1  0  0  0
  2  5  1  0  0  0
  2 10  2  0  0  0
  3  4  1  0  0  0
  3  6  1  0  0  0
  3 29  1  0  0  0
  4  7  1  0  0  0
  4 11  2  0  0  0
  5  8  1  0  0  0
  5 21  1  0  0  0
  5 30  1  0  0  0
  6 22  1  0  0  0
  6 23  1  0  0  0
  6 24  1  0  0  0
  7 14  2  0  0  0
  7 15  1  0  0  0
  8 12  1  0  0  0
  8 31  1  0  0  0
  8 32  1  0  0  0
  9 12  1  0  0  0
  9 13  2  0  0  0
  9 33  1  0  0  0
 12 20  1  0  0  0
 14 18  1  0  0  0
 14 34  1  0  0  0
 15 19  2  0  0  0
 15 35  1  0  0  0
 16 19  1  0  0  0
 16 17  1  0  0  0
 16 18  2  0  0  0
 17 36  1  0  0  0
 17 37  1  0  0  0
 18 38  1  0  0  0
 19 39  1  0  0  0
 20 40  1  0  0  0
 21 25  1  0  0  0
 21 41  1  0  0  0
 21 42  1  0  0  0
 22 43  1  0  0  0
 22 44  1  0  0  0
 22 45  1  0  0  0
 23 46  1  0  0  0
 23 47  1  0  0  0
 23 48  1  0  0  0
 24 49  1  0  0  0
 24 50  1  0  0  0
 24 51  1  0  0  0
 25 26  1  0  0  0
 25 52  1  0  0  0
 25 53  1  0  0  0
 26 27  1  0  0  0
 26 54  1  0  0  0
 26 55  1  0  0  0
 27 56  1  0  0  0
 27 57  1  0  0  0
 27 58  1  0  0  0
M  END
> <s_m_entry_id>
40012

> <s_m_entry_name>
dock_pv.36

> <s_m_Source_Path>
/home/csk/Desktop/cluster/DUD-E-result/def

> <s_m_Source_File>
dock_pv.maegz

> <i_m_Source_File_Index>
36

> <chembl_id>
CHEMBL346544

> <chembl_pref_name>
None

> <i_lp_mmshare_version>
53161

> <i_f3d_flags>
0

> <r_lp_tautomer_probability>
0.99990000499975

> <s_lp_Force_Field>
OPLS_2005

> <r_lp_Energy>
25.782034

> <b_lp_Chiralities_Consistent>
1

> <s_lp_Variant>
CHEMBL1795101_lig62-1

> <s_i_glide_gridfile>
glide-grid_1lru

> <i_i_glide_lignum>
98

> <i_i_glide_rotatable_bonds>
13

> <r_i_docking_score>
-7.61149954605638

> <r_i_glide_ligand_efficiency>
-0.281907390594681

> <r_i_glide_ligand_efficiency_sa>
-0.845722170854921

> <r_i_glide_ligand_efficiency_ln>
-1.77183160894469

> <r_i_glide_gscore>
-7.61149954605638

> <r_i_glide_lipo>
-2.22282451513568

> <r_i_glide_hbond>
-1.2794071536504

> <r_i_glide_metal>
0

> <r_i_glide_rewards>
-0.738905459454851

> <r_i_glide_evdw>
-40.9657287597656

> <r_i_glide_ecoul>
-16.4636058807373

> <r_i_glide_erotb>
1.22338714286331

> <r_i_glide_esite>
-0.0759222405798844

> <r_i_glide_emodel>
-72.2075282909746

> <r_i_glide_energy>
-57.4293346405029

> <r_i_glide_einternal>
16.9242877960205

> <i_i_glide_confnum>
284

> <i_i_glide_posenum>
106

> <r_i_glide_eff_state_penalty>
0

> <s_user_duplicate_titles>
CHEMBL1795101_lig62,261291

> <s_m_subgroup_title>
dock_pv

> <s_m_subgroupid>
dock_pv

> <b_m_subgroup_collapsed>
1

$$$$
CHEMBL1795101_lig22
                    3D
 Schrodinger Suite 2021-1.
 38 38  0  0  1  0            999 V2000
  -36.5022   27.1520   67.7876 S   0  0  1  0  0  0
  -34.2345   28.4993   66.6479 C   0  0  2  0  0  0
  -35.0593   27.1754   66.5933 C   0  0  1  0  0  0
  -33.2245   28.6606   65.4654 C   0  0  0  0  0  0
  -35.9850   27.3432   69.2149 O   0  0  0  0  0  0
  -37.4179   28.6811   67.3520 C   0  0  0  0  0  0
  -33.5850   29.2305   64.4350 O   0  0  0  0  0  0
  -31.9850   28.1590   65.5697 N   0  0  0  0  0  0
  -33.5850   28.5590   67.9029 O   0  0  0  0  0  0
  -34.2104   25.8895   66.8279 C   0  0  0  0  0  0
  -31.1850   28.1590   64.4150 O   0  0  0  0  0  0
  -37.9616   29.4466   68.3862 C   0  0  0  0  0  0
  -37.6338   29.0436   66.0215 C   0  0  0  0  0  0
  -34.8013   24.6038   66.2182 C   0  0  0  0  0  0
  -33.8543   23.3960   66.3658 C   0  0  0  0  0  0
  -34.3325   22.1590   65.5935 C   0  0  0  0  0  0
  -38.7222   30.5741   68.0889 C   0  0  0  0  0  0
  -38.4097   30.1590   65.7231 C   0  0  0  0  0  0
  -38.9511   30.9197   66.7583 C   0  0  0  0  0  0
  -34.9027   29.3590   66.6113 H   0  0  0  0  0  0
  -35.5111   27.0998   65.6136 H   0  0  0  0  0  0
  -31.5855   27.5925   66.3152 H   0  0  0  0  0  0
  -32.7047   28.9590   67.8009 H   0  0  0  0  0  0
  -34.0512   25.7461   67.8986 H   0  0  0  0  0  0
  -33.2110   26.0142   66.4150 H   0  0  0  0  0  0
  -30.3089   28.4320   64.7168 H   0  0  0  0  0  0
  -37.7952   29.1711   69.4186 H   0  0  0  0  0  0
  -37.2044   28.4767   65.2150 H   0  0  0  0  0  0
  -35.0038   24.7737   65.1594 H   0  0  0  0  0  0
  -35.7637   24.3778   66.6795 H   0  0  0  0  0  0
  -33.7381   23.1447   67.4214 H   0  0  0  0  0  0
  -32.8571   23.6645   66.0150 H   0  0  0  0  0  0
  -33.5874   21.3628   65.6211 H   0  0  0  0  0  0
  -34.5144   22.3925   64.5438 H   0  0  0  0  0  0
  -35.2572   21.7643   66.0150 H   0  0  0  0  0  0
  -39.1299   31.1769   68.8880 H   0  0  0  0  0  0
  -38.5753   30.4477   64.6944 H   0  0  0  0  0  0
  -39.5378   31.7972   66.5267 H   0  0  0  0  0  0
  1  3  1  0  0  0
  1  5  2  0  0  0
  1  6  1  0  0  0
  2  3  1  0  0  0
  2  4  1  0  0  0
  2  9  1  0  0  0
  2 20  1  0  0  0
  3 10  1  0  0  0
  3 21  1  0  0  0
  4  7  2  0  0  0
  4  8  1  0  0  0
  6 12  2  0  0  0
  6 13  1  0  0  0
  8 11  1  0  0  0
  8 22  1  0  0  0
  9 23  1  0  0  0
 10 14  1  0  0  0
 10 24  1  0  0  0
 10 25  1  0  0  0
 11 26  1  0  0  0
 12 17  1  0  0  0
 12 27  1  0  0  0
 13 18  2  0  0  0
 13 28  1  0  0  0
 14 15  1  0  0  0
 14 29  1  0  0  0
 14 30  1  0  0  0
 15 16  1  0  0  0
 15 31  1  0  0  0
 15 32  1  0  0  0
 16 33  1  0  0  0
 16 34  1  0  0  0
 16 35  1  0  0  0
 17 19  2  0  0  0
 17 36  1  0  0  0
 18 19  1  0  0  0
 18 37  1  0  0  0
 19 38  1  0  0  0
M  END
> <s_m_entry_id>
40013

> <s_m_entry_name>
dock_pv.37

> <s_m_Source_Path>
/home/csk/Desktop/cluster/DUD-E-result/def

> <s_m_Source_File>
dock_pv.maegz

> <i_m_Source_File_Index>
37

> <chembl_id>
CHEMBL73849

> <chembl_pref_name>
None

> <i_lp_mmshare_version>
53161

> <i_f3d_flags>
0

> <r_lp_tautomer_probability>
1

> <s_lp_Force_Field>
OPLS_2005

> <r_lp_Energy>
15.469941

> <b_lp_Chiralities_Consistent>
1

> <s_lp_Variant>
CHEMBL1795101_lig22-1

> <s_i_glide_gridfile>
glide-grid_1lru

> <i_i_glide_lignum>
52

> <i_i_glide_rotatable_bonds>
10

> <r_i_docking_score>
-7.60919947655006

> <r_i_glide_ligand_efficiency>
-0.400484182976319

> <r_i_glide_ligand_efficiency_sa>
-1.06865265309221

> <r_i_glide_ligand_efficiency_ln>
-1.92909549792505

> <r_i_glide_gscore>
-7.60919947655006

> <r_i_glide_lipo>
-2.19027511598262

> <r_i_glide_hbond>
-0.743279367101371

> <r_i_glide_metal>
-0.894378340389413

> <r_i_glide_rewards>
-1.46176977091411

> <r_i_glide_evdw>
-28.5835723876953

> <r_i_glide_ecoul>
-23.0923976898193

> <r_i_glide_erotb>
2.67354139069512

> <r_i_glide_esite>
-0.1

> <r_i_glide_emodel>
-68.9594614584101

> <r_i_glide_energy>
-51.6759700775146

> <r_i_glide_einternal>
10.2670078277588

> <i_i_glide_confnum>
87

> <i_i_glide_posenum>
302

> <r_i_glide_eff_state_penalty>
0

> <s_user_duplicate_titles>
CHEMBL1795101_lig22,120741

> <s_m_subgroup_title>
dock_pv

> <s_m_subgroupid>
dock_pv

> <b_m_subgroup_collapsed>
1

$$$$
CHEMBL1795101_lig101
                    3D
 Schrodinger Suite 2021-1.
 38 40  0  0  1  0            999 V2000
  -34.5857   25.5092   67.4347 S   0  0  0  0  0  0
  -36.0883   24.7125   68.0365 N   0  0  0  0  0  0
  -35.1016   27.1785   67.6133 N   0  0  2  0  0  0
  -37.5364   26.6272   67.3490 C   0  0  0  0  0  0
  -37.3697   25.3336   67.9112 C   0  0  0  0  0  0
  -36.3461   27.4425   66.8827 C   0  0  0  0  0  0
  -34.0177   28.1938   67.4705 C   0  0  0  0  0  0
  -33.5536   28.3344   66.0115 C   0  0  0  0  0  0
  -34.3850   25.2040   66.0147 O   0  0  0  0  0  0
  -33.4661   25.2841   68.3543 O   0  0  0  0  0  0
  -35.9887   23.2784   68.3735 C   0  0  0  0  0  0
  -34.7095   22.5329   67.9465 C   0  0  0  0  0  0
  -38.8351   27.1514   67.2156 C   0  0  0  0  0  0
  -34.7912   21.0684   67.6150 C   0  0  0  0  0  0
  -34.5587   22.0850   66.5132 C   0  0  0  0  0  0
  -34.2433   28.9588   65.2150 O   0  0  0  0  0  0
  -32.3850   27.7775   65.6786 N   0  0  0  0  0  0
  -39.1482   28.8707   66.4424 Br  0  0  0  0  0  0
  -38.5140   24.6496   68.3666 C   0  0  0  0  0  0
  -31.7799   28.1590   64.4682 O   0  0  0  0  0  0
  -39.7867   25.1847   68.2268 C   0  0  0  0  0  0
  -39.9431   26.4303   67.6430 C   0  0  0  0  0  0
  -36.5562   28.5048   67.0073 H   0  0  0  0  0  0
  -36.1645   27.2806   65.8218 H   0  0  0  0  0  0
  -33.1848   27.9168   68.1114 H   0  0  0  0  0  0
  -34.3766   29.1603   67.8210 H   0  0  0  0  0  0
  -36.1331   23.1608   69.4478 H   0  0  0  0  0  0
  -36.8163   22.7587   67.8897 H   0  0  0  0  0  0
  -33.8191   22.8543   68.4882 H   0  0  0  0  0  0
  -33.9852   20.4204   67.9529 H   0  0  0  0  0  0
  -35.7508   20.5597   67.6150 H   0  0  0  0  0  0
  -35.3633   22.3174   65.8152 H   0  0  0  0  0  0
  -33.5848   22.1652   66.0374 H   0  0  0  0  0  0
  -31.7577   27.2186   66.2602 H   0  0  0  0  0  0
  -38.4495   23.6837   68.8427 H   0  0  0  0  0  0
  -30.9705   28.6086   64.7395 H   0  0  0  0  0  0
  -40.6489   24.6338   68.5732 H   0  0  0  0  0  0
  -40.9287   26.8458   67.5318 H   0  0  0  0  0  0
  1  2  1  0  0  0
  1  3  1  0  0  0
  1  9  2  0  0  0
  1 10  2  0  0  0
  2  5  1  0  0  0
  2 11  1  0  0  0
  3  6  1  0  0  0
  3  7  1  0  0  0
  4  6  1  0  0  0
  4 13  2  0  0  0
  4  5  1  0  0  0
  5 19  2  0  0  0
  6 23  1  0  0  0
  6 24  1  0  0  0
  7  8  1  0  0  0
  7 25  1  0  0  0
  7 26  1  0  0  0
  8 16  2  0  0  0
  8 17  1  0  0  0
 11 12  1  0  0  0
 11 27  1  0  0  0
 11 28  1  0  0  0
 12 14  1  0  0  0
 12 15  1  0  0  0
 12 29  1  0  0  0
 13 18  1  0  0  0
 13 22  1  0  0  0
 14 15  1  0  0  0
 14 30  1  0  0  0
 14 31  1  0  0  0
 15 32  1  0  0  0
 15 33  1  0  0  0
 17 20  1  0  0  0
 17 34  1  0  0  0
 19 21  1  0  0  0
 19 35  1  0  0  0
 20 36  1  0  0  0
 21 22  2  0  0  0
 21 37  1  0  0  0
 22 38  1  0  0  0
M  END
> <s_m_entry_id>
40014

> <s_m_entry_name>
dock_pv.38

> <s_m_Source_Path>
/home/csk/Desktop/cluster/DUD-E-result/def

> <s_m_Source_File>
dock_pv.maegz

> <i_m_Source_File_Index>
38

> <chembl_id>
CHEMBL54449

> <chembl_pref_name>
None

> <i_lp_mmshare_version>
53161

> <i_f3d_flags>
0

> <r_lp_tautomer_probability>
1

> <s_lp_Force_Field>
OPLS_2005

> <r_lp_Energy>
29.908249

> <b_lp_Chiralities_Consistent>
1

> <s_lp_Variant>
CHEMBL1795101_lig101-1

> <s_i_glide_gridfile>
glide-grid_1lru

> <i_i_glide_lignum>
144

> <i_i_glide_rotatable_bonds>
6

> <r_i_docking_score>
-7.55608453205216

> <r_i_glide_ligand_efficiency>
-0.343458387820553

> <r_i_glide_ligand_efficiency_sa>
-0.962383910125091

> <r_i_glide_ligand_efficiency_ln>
-1.84698267451354

> <r_i_glide_gscore>
-7.55608453205216

> <r_i_glide_lipo>
-1.82623896310951

> <r_i_glide_hbond>
-0.27260548062572

> <r_i_glide_metal>
-2.23130195158165

> <r_i_glide_rewards>
-0.730064821593016

> <r_i_glide_evdw>
-33.2918930053711

> <r_i_glide_ecoul>
-9.14370441436768

> <r_i_glide_erotb>
0.640276997281441

> <r_i_glide_esite>
-0.1

> <r_i_glide_emodel>
-56.3787734395682

> <r_i_glide_energy>
-42.4355974197388

> <r_i_glide_einternal>
12.8514642715454

> <i_i_glide_confnum>
292

> <i_i_glide_posenum>
56

> <r_i_glide_eff_state_penalty>
0

> <s_user_duplicate_titles>
CHEMBL1795101_lig101,82927

> <s_m_subgroup_title>
dock_pv

> <s_m_subgroupid>
dock_pv

> <b_m_subgroup_collapsed>
1

$$$$
CHEMBL1795101_lig112
                    3D
 Schrodinger Suite 2021-1.
 40 41  0  0  1  0            999 V2000
  -34.5569   26.0694   67.3340 S   0  0  0  0  0  0
  -35.0207   27.7702   67.3493 N   0  0  2  0  0  0
  -36.1806   25.3117   67.5717 N   0  0  0  0  0  0
  -37.4427   27.3509   66.9156 C   0  0  0  0  0  0
  -37.4054   26.0192   67.3955 C   0  0  0  0  0  0
  -36.1726   28.0453   66.4846 C   0  0  0  0  0  0
  -33.8707   28.7085   67.1952 C   0  0  0  0  0  0
  -33.2337   28.6188   65.7834 C   0  0  0  0  0  0
  -34.0041   25.7555   66.0158 O   0  0  0  0  0  0
  -33.7009   25.7968   68.4902 O   0  0  0  0  0  0
  -38.6806   28.0071   66.8150 C   0  0  0  0  0  0
  -33.8938   28.9590   64.8150 O   0  0  0  0  0  0
  -31.9850   28.1590   65.6595 N   0  0  0  0  0  0
  -36.1521   23.8699   67.8572 C   0  0  0  0  0  0
  -38.8137   29.6203   66.1987 Cl  0  0  0  0  0  0
  -38.6183   25.3915   67.7359 C   0  0  0  0  0  0
  -31.3741   28.1590   64.4150 O   0  0  0  0  0  0
  -39.8324   26.0553   67.6306 C   0  0  0  0  0  0
  -39.8545   27.3649   67.1792 C   0  0  0  0  0  0
  -36.3937   22.9690   66.6208 C   0  0  0  0  0  0
  -35.3216   23.0941   65.5202 C   0  0  0  0  0  0
  -33.9442   22.6023   65.9913 C   0  0  0  0  0  0
  -36.3095   29.1264   66.4827 H   0  0  0  0  0  0
  -35.9286   27.7590   65.4640 H   0  0  0  0  0  0
  -33.1850   28.4834   67.9991 H   0  0  0  0  0  0
  -34.2124   29.7280   67.3740 H   0  0  0  0  0  0
  -31.3741   27.8060   66.3919 H   0  0  0  0  0  0
  -35.1552   23.6616   68.2439 H   0  0  0  0  0  0
  -36.8038   23.5948   68.6859 H   0  0  0  0  0  0
  -38.6521   24.3774   68.1005 H   0  0  0  0  0  0
  -30.5929   28.7169   64.5230 H   0  0  0  0  0  0
  -40.7511   25.5565   67.9031 H   0  0  0  0  0  0
  -40.7850   27.8932   67.0931 H   0  0  0  0  0  0
  -36.4674   21.9293   66.9428 H   0  0  0  0  0  0
  -37.3683   23.2032   66.1932 H   0  0  0  0  0  0
  -35.5850   22.5590   64.6188 H   0  0  0  0  0  0
  -35.3029   24.1077   65.1400 H   0  0  0  0  0  0
  -33.1958   22.7117   65.2150 H   0  0  0  0  0  0
  -33.5734   23.1597   66.8505 H   0  0  0  0  0  0
  -33.9850   21.5485   66.2677 H   0  0  0  0  0  0
  1  2  1  0  0  0
  1  3  1  0  0  0
  1  9  2  0  0  0
  1 10  2  0  0  0
  2  6  1  0  0  0
  2  7  1  0  0  0
  3  5  1  0  0  0
  3 14  1  0  0  0
  4  5  1  0  0  0
  4 11  2  0  0  0
  4  6  1  0  0  0
  5 16  2  0  0  0
  6 23  1  0  0  0
  6 24  1  0  0  0
  7  8  1  0  0  0
  7 25  1  0  0  0
  7 26  1  0  0  0
  8 12  2  0  0  0
  8 13  1  0  0  0
 11 15  1  0  0  0
 11 19  1  0  0  0
 13 17  1  0  0  0
 13 27  1  0  0  0
 14 20  1  0  0  0
 14 28  1  0  0  0
 14 29  1  0  0  0
 16 18  1  0  0  0
 16 30  1  0  0  0
 17 31  1  0  0  0
 18 19  2  0  0  0
 18 32  1  0  0  0
 19 33  1  0  0  0
 20 21  1  0  0  0
 20 34  1  0  0  0
 20 35  1  0  0  0
 21 22  1  0  0  0
 21 36  1  0  0  0
 21 37  1  0  0  0
 22 38  1  0  0  0
 22 39  1  0  0  0
 22 40  1  0  0  0
M  END
> <s_m_entry_id>
40015

> <s_m_entry_name>
dock_pv.39

> <s_m_Source_Path>
/home/csk/Desktop/cluster/DUD-E-result/def

> <s_m_Source_File>
dock_pv.maegz

> <i_m_Source_File_Index>
39

> <chembl_id>
CHEMBL52075

> <chembl_pref_name>
None

> <i_lp_mmshare_version>
53161

> <i_f3d_flags>
0

> <r_lp_tautomer_probability>
1

> <s_lp_Force_Field>
OPLS_2005

> <r_lp_Energy>
21.021182

> <b_lp_Chiralities_Consistent>
1

> <s_lp_Variant>
CHEMBL1795101_lig112-1

> <s_i_glide_gridfile>
glide-grid_1lru

> <i_i_glide_lignum>
155

> <i_i_glide_rotatable_bonds>
7

> <r_i_docking_score>
-7.51375670940921

> <r_i_glide_ligand_efficiency>
-0.341534395882237

> <r_i_glide_ligand_efficiency_sa>
-0.95699280904762

> <r_i_glide_ligand_efficiency_ln>
-1.83663621071475

> <r_i_glide_gscore>
-7.51375670940921

> <r_i_glide_lipo>
-1.97896984412792

> <r_i_glide_hbond>
-0.463417132615536

> <r_i_glide_metal>
-1.48102741321141

> <r_i_glide_rewards>
-1.03730771176758

> <r_i_glide_evdw>
-32.3642082214355

> <r_i_glide_ecoul>
-10.7317228317261

> <r_i_glide_erotb>
0.786468906893313

> <r_i_glide_esite>
-0.11153467874939

> <r_i_glide_emodel>
-60.5250869174285

> <r_i_glide_energy>
-43.0959310531616

> <r_i_glide_einternal>
5.934654712677

> <i_i_glide_confnum>
146

> <i_i_glide_posenum>
13

> <r_i_glide_eff_state_penalty>
0

> <s_user_duplicate_titles>
CHEMBL1795101_lig112,82884

> <s_m_subgroup_title>
dock_pv

> <s_m_subgroupid>
dock_pv

> <b_m_subgroup_collapsed>
1

$$$$
CHEMBL1795101_lig161
                    3D
 Schrodinger Suite 2021-1.
 61 61  0  0  1  0            999 V2000
  -37.1352   28.2395   67.3964 N   0  0  0  0  0  0
  -36.2584   27.5329   68.1339 C   0  0  0  0  0  0
  -38.4978   28.6122   67.8159 C   0  0  2  0  0  0
  -34.8894   27.1991   67.4947 C   0  0  1  0  0  0
  -39.4324   27.4128   67.5453 C   0  0  0  0  0  0
  -39.5846   26.5534   68.5621 N   0  0  0  0  0  0
  -38.9679   29.9995   67.2223 C   0  0  0  0  0  0
  -33.9791   28.4403   67.2636 C   0  0  0  0  0  0
  -36.5166   27.1577   69.2763 O   0  0  0  0  0  0
  -32.7850   29.3590   65.2649 C   0  0  0  0  0  0
  -39.9848   27.2826   66.4544 O   0  0  0  0  0  0
  -33.1850   28.3450   66.0343 N   0  0  0  0  0  0
  -32.7850   29.3590   64.0371 O   0  0  0  0  0  0
  -32.7850   27.0857   65.6150 O   0  0  0  0  0  0
  -34.0763   26.0735   68.1972 C   0  0  0  0  0  0
  -40.3978   25.3408   68.5110 C   0  0  0  0  0  0
  -40.4886   30.2588   67.4040 C   0  0  0  0  0  0
  -38.6183   30.1571   65.7167 C   0  0  0  0  0  0
  -38.2564   31.1228   68.0150 C   0  0  0  0  0  0
  -34.7031   24.6797   68.2069 C   0  0  0  0  0  0
  -39.7772   24.1989   67.6793 C   0  0  0  0  0  0
  -35.3067   22.6133   66.8130 C   0  0  0  0  0  0
  -35.0094   24.1190   66.8028 C   0  0  0  0  0  0
  -38.3158   23.8763   68.0504 C   0  0  0  0  0  0
  -36.3769   22.1678   67.8282 C   0  0  0  0  0  0
  -37.8369   22.5275   67.4888 C   0  0  0  0  0  0
  -36.8872   28.5050   66.4549 H   0  0  0  0  0  0
  -38.4886   28.7345   68.9023 H   0  0  0  0  0  0
  -35.1873   26.8377   66.5086 H   0  0  0  0  0  0
  -39.0524   26.7157   69.4069 H   0  0  0  0  0  0
  -33.3152   28.5917   68.1155 H   0  0  0  0  0  0
  -34.5763   29.3552   67.2218 H   0  0  0  0  0  0
  -32.6174   30.2488   65.8814 H   0  0  0  0  0  0
  -31.9056   26.9667   66.0150 H   0  0  0  0  0  0
  -33.0823   25.9731   67.7630 H   0  0  0  0  0  0
  -33.8820   26.3692   69.2185 H   0  0  0  0  0  0
  -40.5049   25.0052   69.5435 H   0  0  0  0  0  0
  -41.4033   25.5710   68.1529 H   0  0  0  0  0  0
  -40.7894   30.1771   68.4495 H   0  0  0  0  0  0
  -40.7599   31.2625   67.0716 H   0  0  0  0  0  0
  -41.0990   29.5762   66.8150 H   0  0  0  0  0  0
  -37.5421   30.1590   65.5418 H   0  0  0  0  0  0
  -39.0480   29.3591   65.1119 H   0  0  0  0  0  0
  -38.9984   31.0972   65.3131 H   0  0  0  0  0  0
  -37.1850   30.9590   68.0576 H   0  0  0  0  0  0
  -38.4216   32.1074   67.5746 H   0  0  0  0  0  0
  -38.6051   31.1788   69.0478 H   0  0  0  0  0  0
  -35.6059   24.7046   68.8156 H   0  0  0  0  0  0
  -34.0171   24.0053   68.7228 H   0  0  0  0  0  0
  -40.3983   23.3108   67.8057 H   0  0  0  0  0  0
  -39.8408   24.4408   66.6175 H   0  0  0  0  0  0
  -34.3791   22.0851   67.0405 H   0  0  0  0  0  0
  -35.5838   22.2895   65.8100 H   0  0  0  0  0  0
  -34.1588   24.2993   66.1430 H   0  0  0  0  0  0
  -35.8471   24.6522   66.3532 H   0  0  0  0  0  0
  -37.6783   24.6846   67.6953 H   0  0  0  0  0  0
  -38.2095   23.8625   69.1364 H   0  0  0  0  0  0
  -36.1330   22.5590   68.8150 H   0  0  0  0  0  0
  -36.2904   21.0884   67.9202 H   0  0  0  0  0  0
  -38.4881   21.7590   67.9026 H   0  0  0  0  0  0
  -37.9852   22.4851   66.4150 H   0  0  0  0  0  0
  1  2  1  0  0  0
  1  3  1  0  0  0
  1 27  1  0  0  0
  2  4  1  0  0  0
  2  9  2  0  0  0
  3  5  1  0  0  0
  3  7  1  0  0  0
  3 28  1  0  0  0
  4  8  1  0  0  0
  4 15  1  0  0  0
  4 29  1  0  0  0
  5  6  1  0  0  0
  5 11  2  0  0  0
  6 16  1  0  0  0
  6 30  1  0  0  0
  7 17  1  0  0  0
  7 18  1  0  0  0
  7 19  1  0  0  0
  8 12  1  0  0  0
  8 31  1  0  0  0
  8 32  1  0  0  0
 10 12  1  0  0  0
 10 13  2  0  0  0
 10 33  1  0  0  0
 12 14  1  0  0  0
 14 34  1  0  0  0
 15 20  1  0  0  0
 15 35  1  0  0  0
 15 36  1  0  0  0
 16 21  1  0  0  0
 16 37  1  0  0  0
 16 38  1  0  0  0
 17 39  1  0  0  0
 17 40  1  0  0  0
 17 41  1  0  0  0
 18 42  1  0  0  0
 18 43  1  0  0  0
 18 44  1  0  0  0
 19 45  1  0  0  0
 19 46  1  0  0  0
 19 47  1  0  0  0
 20 23  1  0  0  0
 20 48  1  0  0  0
 20 49  1  0  0  0
 21 24  1  0  0  0
 21 50  1  0  0  0
 21 51  1  0  0  0
 22 23  1  0  0  0
 22 25  1  0  0  0
 22 52  1  0  0  0
 22 53  1  0  0  0
 23 54  1  0  0  0
 23 55  1  0  0  0
 24 26  1  0  0  0
 24 56  1  0  0  0
 24 57  1  0  0  0
 25 26  1  0  0  0
 25 58  1  0  0  0
 25 59  1  0  0  0
 26 60  1  0  0  0
 26 61  1  0  0  0
M  END
> <s_m_entry_id>
40016

> <s_m_entry_name>
dock_pv.40

> <s_m_Source_Path>
/home/csk/Desktop/cluster/DUD-E-result/def

> <s_m_Source_File>
dock_pv.maegz

> <i_m_Source_File_Index>
40

> <chembl_id>
CHEMBL421252

> <chembl_pref_name>
None

> <i_lp_mmshare_version>
53161

> <i_f3d_flags>
0

> <r_lp_tautomer_probability>
1

> <s_lp_Force_Field>
OPLS_2005

> <r_lp_Energy>
16.066851

> <b_lp_Chiralities_Consistent>
1

> <s_lp_Variant>
CHEMBL1795101_lig161-2

> <s_i_glide_gridfile>
glide-grid_1lru

> <i_i_glide_lignum>
208

> <i_i_glide_rotatable_bonds>
5

> <r_i_docking_score>
-7.5108361534828

> <r_i_glide_ligand_efficiency>
-0.288878313595492

> <r_i_glide_ligand_efficiency_sa>
-0.85580086734537

> <r_i_glide_ligand_efficiency_ln>
-1.76389522558187

> <r_i_glide_gscore>
-7.5108361534828

> <r_i_glide_lipo>
-2.10286663262427

> <r_i_glide_hbond>
-0.58175265903299

> <r_i_glide_metal>
-1.78885929838635

> <r_i_glide_rewards>
0.114413685765064

> <r_i_glide_evdw>
-29.6589126586914

> <r_i_glide_ecoul>
-12.246955871582

> <r_i_glide_erotb>
0.197718083031236

> <r_i_glide_esite>
-0.0295003185636169

> <r_i_glide_emodel>
-51.1042230801828

> <r_i_glide_energy>
-41.9058685302734

> <r_i_glide_einternal>
13.5834159851074

> <i_i_glide_confnum>
10

> <i_i_glide_posenum>
170

> <r_i_glide_eff_state_penalty>
0

> <s_user_duplicate_titles>
CHEMBL1795101_lig161

> <s_m_subgroup_title>
dock_pv

> <s_m_subgroupid>
dock_pv

> <b_m_subgroup_collapsed>
1

$$$$
CHEMBL1795101_lig142
                    3D
 Schrodinger Suite 2021-1.
 51 53  0  0  1  0            999 V2000
  -32.7549   29.1995   65.2662 C   0  0  0  0  0  0
  -33.5782   28.3804   65.9416 N   0  0  0  0  0  0
  -32.7852   29.3589   64.0501 O   0  0  0  0  0  0
  -33.7180   28.2809   67.3873 C   0  0  0  0  0  0
  -35.1604   27.9195   67.8391 C   0  0  2  0  0  0
  -35.5403   26.4364   68.0335 C   0  0  0  0  0  0
  -36.2490   28.8310   67.1601 C   0  0  0  0  0  0
  -37.7599   28.5188   67.3351 C   0  0  0  0  0  0
  -38.3081   28.7823   68.7577 C   0  0  0  0  0  0
  -39.5281   29.7015   68.6063 C   0  0  0  0  0  0
  -39.9567   29.5568   67.1491 C   0  0  0  0  0  0
  -38.6367   29.3751   66.4045 C   0  0  0  0  0  0
  -36.4549   26.2380   68.8312 O   0  0  0  0  0  0
  -34.8942   25.4018   67.4204 N   0  0  0  0  0  0
  -35.5287   24.2272   66.9312 N   0  0  0  0  0  0
  -34.5339   23.3518   66.3245 C   0  0  0  0  0  0
  -33.3571   23.6261   67.2401 C   0  0  0  0  0  0
  -33.4577   25.1115   67.5611 C   0  0  0  0  0  0
  -36.8472   23.9262   66.9711 C   0  0  0  0  0  0
  -37.5831   24.1591   66.0194 O   0  0  0  0  0  0
  -37.4103   23.5188   68.2343 C   0  0  0  0  0  0
  -36.6647   23.5817   69.3727 O   0  0  0  0  0  0
  -37.5080   23.3591   70.4110 C   0  0  0  0  0  0
  -38.7724   23.0358   69.9440 C   0  0  0  0  0  0
  -38.7143   23.1510   68.5541 C   0  0  0  0  0  0
  -34.1227   27.3278   65.2143 O   0  0  0  0  0  0
  -32.0970   29.7618   65.9462 H   0  0  0  0  0  0
  -33.4719   29.2579   67.8149 H   0  0  0  0  0  0
  -32.9619   27.6068   67.7767 H   0  0  0  0  0  0
  -35.1529   28.1590   68.8786 H   0  0  0  0  0  0
  -36.0890   28.8322   66.0819 H   0  0  0  0  0  0
  -36.0703   29.8637   67.4659 H   0  0  0  0  0  0
  -37.9365   27.4749   67.0700 H   0  0  0  0  0  0
  -37.5772   29.2460   69.4173 H   0  0  0  0  0  0
  -38.6014   27.8404   69.2272 H   0  0  0  0  0  0
  -39.2395   30.7347   68.8110 H   0  0  0  0  0  0
  -40.3241   29.4462   69.3056 H   0  0  0  0  0  0
  -40.5169   30.4227   66.7920 H   0  0  0  0  0  0
  -40.5828   28.6727   67.0194 H   0  0  0  0  0  0
  -38.7868   28.9034   65.4343 H   0  0  0  0  0  0
  -38.1820   30.3493   66.2099 H   0  0  0  0  0  0
  -34.3405   23.6827   65.3015 H   0  0  0  0  0  0
  -34.8268   22.2993   66.3131 H   0  0  0  0  0  0
  -32.3971   23.3591   66.8041 H   0  0  0  0  0  0
  -33.4729   23.0391   68.1541 H   0  0  0  0  0  0
  -32.8755   25.6644   66.8210 H   0  0  0  0  0  0
  -33.0671   25.3348   68.5587 H   0  0  0  0  0  0
  -37.0713   23.4030   71.3962 H   0  0  0  0  0  0
  -39.6392   22.7806   70.5360 H   0  0  0  0  0  0
  -39.5309   23.0247   67.8583 H   0  0  0  0  0  0
  -35.0633   27.5254   65.1835 H   0  0  0  0  0  0
  1  2  1  0  0  0
  1  3  2  0  0  0
  1 27  1  0  0  0
  2  4  1  0  0  0
  2 26  1  0  0  0
  4  5  1  0  0  0
  4 28  1  0  0  0
  4 29  1  0  0  0
  5  6  1  0  0  0
  5  7  1  0  0  0
  5 30  1  0  0  0
  6 13  2  0  0  0
  6 14  1  0  0  0
  7  8  1  0  0  0
  7 31  1  0  0  0
  7 32  1  0  0  0
  8  9  1  0  0  0
  8 12  1  0  0  0
  8 33  1  0  0  0
  9 10  1  0  0  0
  9 34  1  0  0  0
  9 35  1  0  0  0
 10 11  1  0  0  0
 10 36  1  0  0  0
 10 37  1  0  0  0
 11 12  1  0  0  0
 11 38  1  0  0  0
 11 39  1  0  0  0
 12 40  1  0  0  0
 12 41  1  0  0  0
 14 15  1  0  0  0
 14 18  1  0  0  0
 15 16  1  0  0  0
 15 19  1  0  0  0
 16 17  1  0  0  0
 16 42  1  0  0  0
 16 43  1  0  0  0
 17 18  1  0  0  0
 17 44  1  0  0  0
 17 45  1  0  0  0
 18 46  1  0  0  0
 18 47  1  0  0  0
 19 20  2  0  0  0
 19 21  1  0  0  0
 21 22  1  0  0  0
 21 25  2  0  0  0
 22 23  1  0  0  0
 23 24  2  0  0  0
 23 48  1  0  0  0
 24 25  1  0  0  0
 24 49  1  0  0  0
 25 50  1  0  0  0
 26 51  1  0  0  0
M  END
> <s_m_entry_id>
40017

> <s_m_entry_name>
dock_pv.41

> <s_m_Source_Path>
/home/csk/Desktop/cluster/DUD-E-result/def

> <s_m_Source_File>
dock_pv.maegz

> <i_m_Source_File_Index>
41

> <chembl_id>
CHEMBL1796095

> <chembl_pref_name>
None

> <i_lp_mmshare_version>
53161

> <i_f3d_flags>
0

> <r_lp_tautomer_probability>
1

> <s_lp_Force_Field>
OPLS_2005

> <r_lp_Energy>
57.748839

> <b_lp_Chiralities_Consistent>
1

> <s_lp_Variant>
CHEMBL1795101_lig142-1

> <s_i_glide_gridfile>
glide-grid_1lru

> <i_i_glide_lignum>
187

> <i_i_glide_rotatable_bonds>
10

> <r_i_docking_score>
-7.50285648935249

> <r_i_glide_ligand_efficiency>
-0.288571403436634

> <r_i_glide_ligand_efficiency_sa>
-0.854891647207386

> <r_i_glide_ligand_efficiency_ln>
-1.76202122764428

> <r_i_glide_gscore>
-7.50285648935249

> <r_i_glide_lipo>
-1.91268785035587

> <r_i_glide_hbond>
-0.81115693507537

> <r_i_glide_metal>
-1.73724682394504

> <r_i_glide_rewards>
-0.785346774956155

> <r_i_glide_evdw>
-36.5487976074219

> <r_i_glide_ecoul>
-9.51040554046631

> <r_i_glide_erotb>
1.01837021204744

> <r_i_glide_esite>
-0.0207876056264582

> <r_i_glide_emodel>
-59.0187515890461

> <r_i_glide_energy>
-46.0592031478882

> <r_i_glide_einternal>
15.98215675354

> <i_i_glide_confnum>
804

> <i_i_glide_posenum>
34

> <r_i_glide_eff_state_penalty>
0

> <s_user_duplicate_titles>
CHEMBL1795101_lig142

> <s_m_subgroup_title>
dock_pv

> <s_m_subgroupid>
dock_pv

> <b_m_subgroup_collapsed>
1

$$$$
CHEMBL1795101_lig146
                    3D
 Schrodinger Suite 2021-1.
 57 59  0  0  1  0            999 V2000
  -33.4900   28.9195   64.8510 C   0  0  0  0  0  0
  -32.6519   28.0493   65.4118 N   0  0  0  0  0  0
  -33.1850   29.7590   64.0153 O   0  0  0  0  0  0
  -32.9729   26.8744   66.2318 C   0  0  0  0  0  0
  -34.4628   26.5507   66.5862 C   0  0  2  0  0  0
  -35.0832   27.5841   67.5544 C   0  0  0  0  0  0
  -34.5327   25.1155   67.1933 C   0  0  0  0  0  0
  -34.8856   24.0302   66.1467 C   0  0  0  0  0  0
  -34.5120   22.5981   66.5794 C   0  0  0  0  0  0
  -35.8103   21.9024   67.0132 C   0  0  0  0  0  0
  -36.9396   22.9226   66.8320 C   0  0  0  0  0  0
  -36.3924   23.9567   65.8456 C   0  0  0  0  0  0
  -34.3639   28.0999   68.4052 O   0  0  0  0  0  0
  -36.3937   27.9119   67.4051 N   0  0  0  0  0  0
  -37.2570   28.0654   68.5222 N   0  0  0  0  0  0
  -37.8933   29.3861   68.4253 C   0  0  0  0  0  0
  -38.0802   29.4852   66.9250 C   0  0  0  0  0  0
  -36.7761   28.9126   66.3917 C   0  0  0  0  0  0
  -37.7657   26.9800   69.1684 C   0  0  0  0  0  0
  -37.0790   25.9809   69.3845 O   0  0  0  0  0  0
  -39.2281   26.9688   69.6642 C   0  0  0  0  0  0
  -39.9041   25.6316   69.3762 C   0  0  0  0  0  0
  -39.9924   24.6573   70.3752 C   0  0  0  0  0  0
  -40.5601   23.4184   70.0908 C   0  0  0  0  0  0
  -41.0343   23.1569   68.8080 C   0  0  0  0  0  0
  -40.9478   24.1230   67.8072 C   0  0  0  0  0  0
  -40.3754   25.3583   68.0888 C   0  0  0  0  0  0
  -31.3291   28.1589   64.9715 O   0  0  0  0  0  0
  -34.5092   28.7706   65.2152 H   0  0  0  0  0  0
  -32.3847   26.9320   67.1496 H   0  0  0  0  0  0
  -32.5728   26.0144   65.7030 H   0  0  0  0  0  0
  -35.0570   26.5703   65.6700 H   0  0  0  0  0  0
  -35.2560   25.0417   68.0035 H   0  0  0  0  0  0
  -33.5863   24.8734   67.6809 H   0  0  0  0  0  0
  -34.3485   24.2487   65.2233 H   0  0  0  0  0  0
  -33.7842   22.5917   67.3917 H   0  0  0  0  0  0
  -34.0527   22.0562   65.7500 H   0  0  0  0  0  0
  -35.7489   21.5623   68.0430 H   0  0  0  0  0  0
  -35.9854   21.0094   66.4173 H   0  0  0  0  0  0
  -37.1629   23.4042   67.7861 H   0  0  0  0  0  0
  -37.8603   22.4571   66.4782 H   0  0  0  0  0  0
  -36.5578   23.6407   64.8151 H   0  0  0  0  0  0
  -36.8917   24.9194   65.9710 H   0  0  0  0  0  0
  -37.1850   30.1391   68.7748 H   0  0  0  0  0  0
  -38.8117   29.5400   68.9896 H   0  0  0  0  0  0
  -38.2809   30.4998   66.5766 H   0  0  0  0  0  0
  -38.9279   28.8740   66.6078 H   0  0  0  0  0  0
  -36.0455   29.7244   66.3407 H   0  0  0  0  0  0
  -36.8920   28.4774   65.4000 H   0  0  0  0  0  0
  -39.2196   27.1623   70.7372 H   0  0  0  0  0  0
  -39.8396   27.7394   69.2006 H   0  0  0  0  0  0
  -39.6080   24.8537   71.3653 H   0  0  0  0  0  0
  -40.6225   22.6613   70.8588 H   0  0  0  0  0  0
  -41.4688   22.1936   68.5819 H   0  0  0  0  0  0
  -41.3124   23.9074   66.8153 H   0  0  0  0  0  0
  -40.2925   26.0986   67.3070 H   0  0  0  0  0  0
  -30.8233   27.6109   65.5941 H   0  0  0  0  0  0
  1  2  1  0  0  0
  1  3  2  0  0  0
  1 29  1  0  0  0
  2  4  1  0  0  0
  2 28  1  0  0  0
  4  5  1  0  0  0
  4 30  1  0  0  0
  4 31  1  0  0  0
  5  6  1  0  0  0
  5  7  1  0  0  0
  5 32  1  0  0  0
  6 13  2  0  0  0
  6 14  1  0  0  0
  7  8  1  0  0  0
  7 33  1  0  0  0
  7 34  1  0  0  0
  8  9  1  0  0  0
  8 12  1  0  0  0
  8 35  1  0  0  0
  9 10  1  0  0  0
  9 36  1  0  0  0
  9 37  1  0  0  0
 10 11  1  0  0  0
 10 38  1  0  0  0
 10 39  1  0  0  0
 11 12  1  0  0  0
 11 40  1  0  0  0
 11 41  1  0  0  0
 12 42  1  0  0  0
 12 43  1  0  0  0
 14 15  1  0  0  0
 14 18  1  0  0  0
 15 16  1  0  0  0
 15 19  1  0  0  0
 16 17  1  0  0  0
 16 44  1  0  0  0
 16 45  1  0  0  0
 17 18  1  0  0  0
 17 46  1  0  0  0
 17 47  1  0  0  0
 18 48  1  0  0  0
 18 49  1  0  0  0
 19 20  2  0  0  0
 19 21  1  0  0  0
 21 22  1  0  0  0
 21 50  1  0  0  0
 21 51  1  0  0  0
 22 23  2  0  0  0
 22 27  1  0  0  0
 23 24  1  0  0  0
 23 52  1  0  0  0
 24 25  2  0  0  0
 24 53  1  0  0  0
 25 26  1  0  0  0
 25 54  1  0  0  0
 26 27  2  0  0  0
 26 55  1  0  0  0
 27 56  1  0  0  0
 28 57  1  0  0  0
M  END
> <s_m_entry_id>
40018

> <s_m_entry_name>
dock_pv.42

> <s_m_Source_Path>
/home/csk/Desktop/cluster/DUD-E-result/def

> <s_m_Source_File>
dock_pv.maegz

> <i_m_Source_File_Index>
42

> <chembl_id>
CHEMBL1796099

> <chembl_pref_name>
None

> <i_lp_mmshare_version>
53161

> <i_f3d_flags>
0

> <r_lp_tautomer_probability>
1

> <s_lp_Force_Field>
OPLS_2005

> <r_lp_Energy>
51.811314

> <b_lp_Chiralities_Consistent>
1

> <s_lp_Variant>
CHEMBL1795101_lig146-1

> <s_i_glide_gridfile>
glide-grid_1lru

> <i_i_glide_lignum>
191

> <i_i_glide_rotatable_bonds>
11

> <r_i_docking_score>
-7.44559770066328

> <r_i_glide_ligand_efficiency>
-0.265914203595117

> <r_i_glide_ligand_efficiency_sa>
-0.807472137205145

> <r_i_glide_ligand_efficiency_ln>
-1.71866256156087

> <r_i_glide_gscore>
-7.44559770066328

> <r_i_glide_lipo>
-2.67263283630002

> <r_i_glide_hbond>
-1.00855234534601

> <r_i_glide_metal>
0

> <r_i_glide_rewards>
-0.767231861400974

> <r_i_glide_evdw>
-28.3286228179932

> <r_i_glide_ecoul>
-16.78955078125

> <r_i_glide_erotb>
1.03768310047088

> <r_i_glide_esite>
-0.1

> <r_i_glide_emodel>
-58.3629236703036

> <r_i_glide_energy>
-45.1181735992432

> <r_i_glide_einternal>
16.6725692749023

> <i_i_glide_confnum>
620

> <i_i_glide_posenum>
275

> <r_i_glide_eff_state_penalty>
0

> <s_user_duplicate_titles>
CHEMBL1795101_lig146

> <s_m_subgroup_title>
dock_pv

> <s_m_subgroupid>
dock_pv

> <b_m_subgroup_collapsed>
1

$$$$
CHEMBL1795101_lig107
                    3D
 Schrodinger Suite 2021-1.
 27 28  0  0  1  0            999 V2000
  -36.0632   27.4947   67.2254 C   0  0  0  0  0  0
  -34.9803   26.6477   67.1826 N   0  0  0  0  0  0
  -36.5066   24.6132   67.2218 C   0  0  0  0  0  0
  -37.2668   26.8899   67.2276 N   0  0  0  0  0  0
  -35.0812   25.1638   67.2365 C   0  0  0  0  0  0
  -37.5593   25.5319   67.2175 C   0  0  0  0  0  0
  -33.2428   27.7590   65.7592 C   0  0  0  0  0  0
  -33.6140   27.2098   67.1495 C   0  0  0  0  0  0
  -36.8087   23.2430   67.2163 C   0  0  0  0  0  0
  -36.0020   28.7223   67.2680 O   0  0  0  0  0  0
  -34.0287   27.7590   64.8209 O   0  0  0  0  0  0
  -31.9850   28.1602   65.6150 N   0  0  0  0  0  0
  -35.5496   22.0566   67.2148 Cl  0  0  0  0  0  0
  -31.5833   28.5590   64.3618 O   0  0  0  0  0  0
  -38.8888   25.1065   67.2150 C   0  0  0  0  0  0
  -39.1767   23.7434   67.2150 C   0  0  0  0  0  0
  -38.1373   22.8145   67.2150 C   0  0  0  0  0  0
  -38.0303   27.5475   67.2470 H   0  0  0  0  0  0
  -34.5386   24.7561   66.3823 H   0  0  0  0  0  0
  -34.5697   24.8112   68.1331 H   0  0  0  0  0  0
  -32.8879   26.4392   67.4142 H   0  0  0  0  0  0
  -33.5024   27.9951   67.8980 H   0  0  0  0  0  0
  -31.2284   27.7134   66.1332 H   0  0  0  0  0  0
  -30.7133   28.9586   64.4998 H   0  0  0  0  0  0
  -39.6974   25.8231   67.2172 H   0  0  0  0  0  0
  -40.2028   23.4028   67.2122 H   0  0  0  0  0  0
  -38.3654   21.7590   67.2088 H   0  0  0  0  0  0
  1  2  1  0  0  0
  1  4  1  0  0  0
  1 10  2  0  0  0
  2  5  1  0  0  0
  2  8  1  0  0  0
  3  6  1  0  0  0
  3  9  2  0  0  0
  3  5  1  0  0  0
  4  6  1  0  0  0
  4 18  1  0  0  0
  5 19  1  0  0  0
  5 20  1  0  0  0
  6 15  2  0  0  0
  7  8  1  0  0  0
  7 11  2  0  0  0
  7 12  1  0  0  0
  8 21  1  0  0  0
  8 22  1  0  0  0
  9 13  1  0  0  0
  9 17  1  0  0  0
 12 14  1  0  0  0
 12 23  1  0  0  0
 14 24  1  0  0  0
 15 16  1  0  0  0
 15 25  1  0  0  0
 16 17  2  0  0  0
 16 26  1  0  0  0
 17 27  1  0  0  0
M  END
> <s_m_entry_id>
40019

> <s_m_entry_name>
dock_pv.43

> <s_m_Source_Path>
/home/csk/Desktop/cluster/DUD-E-result/def

> <s_m_Source_File>
dock_pv.maegz

> <i_m_Source_File_Index>
43

> <chembl_id>
CHEMBL298647

> <chembl_pref_name>
None

> <i_lp_mmshare_version>
53161

> <i_f3d_flags>
0

> <r_lp_tautomer_probability>
1

> <s_lp_Force_Field>
OPLS_2005

> <r_lp_Energy>
25.264751

> <b_lp_Chiralities_Consistent>
1

> <s_lp_Variant>
CHEMBL1795101_lig107-1

> <s_i_glide_gridfile>
glide-grid_1lru

> <i_i_glide_lignum>
150

> <i_i_glide_rotatable_bonds>
4

> <r_i_docking_score>
-7.42568946247492

> <r_i_glide_ligand_efficiency>
-0.436805262498525

> <r_i_glide_ligand_efficiency_sa>
-1.12314932910439

> <r_i_glide_ligand_efficiency_ln>
-1.93719701878561

> <r_i_glide_gscore>
-7.42568946247492

> <r_i_glide_lipo>
-1.27093243034592

> <r_i_glide_hbond>
-0.276022957807847

> <r_i_glide_metal>
-1.67416315768287

> <r_i_glide_rewards>
-1.66597174785906

> <r_i_glide_evdw>
-24.9149322509766

> <r_i_glide_ecoul>
-11.430962562561

> <r_i_glide_erotb>
0.538897120270403

> <r_i_glide_esite>
-0.117105292116637

> <r_i_glide_emodel>
-54.624407742407

> <r_i_glide_energy>
-36.3458948135376

> <r_i_glide_einternal>
1.76600086688995

> <i_i_glide_confnum>
2

> <i_i_glide_posenum>
281

> <r_i_glide_eff_state_penalty>
0

> <s_user_duplicate_titles>
CHEMBL1795101_lig107,82677

> <s_m_subgroup_title>
dock_pv

> <s_m_subgroupid>
dock_pv

> <b_m_subgroup_collapsed>
1

$$$$
CHEMBL1795101_lig169
                    3D
 Schrodinger Suite 2021-1.
 63 63  0  0  1  0            999 V2000
  -35.4473   26.8948   67.5259 C   0  0  0  0  0  0
  -36.3908   27.5278   66.8151 N   0  0  0  0  0  0
  -34.4077   26.0978   66.7081 C   0  0  1  0  0  0
  -38.6391   27.4862   67.7735 C   0  0  0  0  0  0
  -37.4516   28.3674   67.3573 C   0  0  2  0  0  0
  -39.1283   27.7170   69.0027 N   0  0  0  0  0  0
  -33.0445   26.8475   66.6329 C   0  0  0  0  0  0
  -35.3706   26.9602   68.7557 O   0  0  0  0  0  0
  -32.6080   28.6420   64.9134 C   0  0  0  0  0  0
  -33.0752   28.2146   66.1044 N   0  0  0  0  0  0
  -39.0901   26.6569   66.9792 O   0  0  0  0  0  0
  -32.7879   29.7582   64.4210 O   0  0  0  0  0  0
  -33.5850   29.1935   66.9624 O   0  0  0  0  0  0
  -41.9921   29.7589   64.5782 N   0  0  0  0  0  0
  -34.2130   24.6426   67.2252 C   0  0  0  0  0  0
  -40.2376   26.9918   69.6209 C   0  0  0  0  0  0
  -37.8056   29.4321   66.2936 C   0  0  0  0  0  0
  -40.6027   30.0845   64.8313 C   0  0  0  0  0  0
  -38.8839   30.4619   66.6972 C   0  0  0  0  0  0
  -40.3317   30.0757   66.3431 C   0  0  0  0  0  0
  -35.4040   23.6741   67.0168 C   0  0  0  0  0  0
  -39.7763   26.0486   70.7504 C   0  0  0  0  0  0
  -36.5398   23.7999   68.0514 C   0  0  0  0  0  0
  -39.4780   23.8797   69.3613 C   0  0  0  0  0  0
  -37.6345   22.7321   67.8938 C   0  0  0  0  0  0
  -38.8336   24.9027   70.3251 C   0  0  0  0  0  0
  -38.6196   22.6269   69.0791 C   0  0  0  0  0  0
  -36.4036   27.4028   65.8127 H   0  0  0  0  0  0
  -34.7769   26.0319   65.6817 H   0  0  0  0  0  0
  -37.0645   28.8901   68.2363 H   0  0  0  0  0  0
  -38.6928   28.4341   69.5655 H   0  0  0  0  0  0
  -32.3850   26.2438   66.0149 H   0  0  0  0  0  0
  -32.5662   26.8523   67.6130 H   0  0  0  0  0  0
  -32.0193   27.8542   64.4160 H   0  0  0  0  0  0
  -32.8425   29.3586   67.5525 H   0  0  0  0  0  0
  -42.5590   30.5423   64.8790 H   0  0  0  0  0  0
  -42.1235   29.7083   63.5742 H   0  0  0  0  0  0
  -33.3646   24.2078   66.6955 H   0  0  0  0  0  0
  -33.9102   24.6413   68.2737 H   0  0  0  0  0  0
  -40.9395   27.7233   70.0225 H   0  0  0  0  0  0
  -40.7948   26.4221   68.8727 H   0  0  0  0  0  0
  -36.8914   29.9882   66.0829 H   0  0  0  0  0  0
  -38.0685   28.9542   65.3518 H   0  0  0  0  0  0
  -40.3785   31.0639   64.4077 H   0  0  0  0  0  0
  -39.9757   29.3594   64.3138 H   0  0  0  0  0  0
  -38.8046   30.6728   67.7651 H   0  0  0  0  0  0
  -38.6651   31.4056   66.2019 H   0  0  0  0  0  0
  -40.5855   29.1043   66.7610 H   0  0  0  0  0  0
  -40.9964   30.7940   66.8251 H   0  0  0  0  0  0
  -35.0187   22.6543   67.0641 H   0  0  0  0  0  0
  -35.8022   23.7890   66.0082 H   0  0  0  0  0  0
  -39.2930   26.6411   71.5309 H   0  0  0  0  0  0
  -40.6570   25.6156   71.2252 H   0  0  0  0  0  0
  -37.0155   24.7714   67.9613 H   0  0  0  0  0  0
  -36.1192   23.7456   69.0560 H   0  0  0  0  0  0
  -40.4204   23.5501   69.8044 H   0  0  0  0  0  0
  -39.7515   24.3578   68.4190 H   0  0  0  0  0  0
  -37.1630   21.7598   67.7652 H   0  0  0  0  0  0
  -38.1933   22.9124   66.9758 H   0  0  0  0  0  0
  -37.9282   25.3275   69.8966 H   0  0  0  0  0  0
  -38.5082   24.3804   71.2260 H   0  0  0  0  0  0
  -38.0864   22.3335   69.9856 H   0  0  0  0  0  0
  -39.2963   21.7955   68.8693 H   0  0  0  0  0  0
  1  2  1  0  0  0
  1  3  1  0  0  0
  1  8  2  0  0  0
  2  5  1  0  0  0
  2 28  1  0  0  0
  3  7  1  0  0  0
  3 15  1  0  0  0
  3 29  1  0  0  0
  4  5  1  0  0  0
  4  6  1  0  0  0
  4 11  2  0  0  0
  5 17  1  0  0  0
  5 30  1  0  0  0
  6 16  1  0  0  0
  6 31  1  0  0  0
  7 10  1  0  0  0
  7 32  1  0  0  0
  7 33  1  0  0  0
  9 10  1  0  0  0
  9 12  2  0  0  0
  9 34  1  0  0  0
 10 13  1  0  0  0
 13 35  1  0  0  0
 14 18  1  0  0  0
 14 36  1  0  0  0
 14 37  1  0  0  0
 15 21  1  0  0  0
 15 38  1  0  0  0
 15 39  1  0  0  0
 16 22  1  0  0  0
 16 40  1  0  0  0
 16 41  1  0  0  0
 17 19  1  0  0  0
 17 42  1  0  0  0
 17 43  1  0  0  0
 18 20  1  0  0  0
 18 44  1  0  0  0
 18 45  1  0  0  0
 19 20  1  0  0  0
 19 46  1  0  0  0
 19 47  1  0  0  0
 20 48  1  0  0  0
 20 49  1  0  0  0
 21 23  1  0  0  0
 21 50  1  0  0  0
 21 51  1  0  0  0
 22 26  1  0  0  0
 22 52  1  0  0  0
 22 53  1  0  0  0
 23 25  1  0  0  0
 23 54  1  0  0  0
 23 55  1  0  0  0
 24 27  1  0  0  0
 24 26  1  0  0  0
 24 56  1  0  0  0
 24 57  1  0  0  0
 25 27  1  0  0  0
 25 58  1  0  0  0
 25 59  1  0  0  0
 26 60  1  0  0  0
 26 61  1  0  0  0
 27 62  1  0  0  0
 27 63  1  0  0  0
M  END
> <s_m_entry_id>
40020

> <s_m_entry_name>
dock_pv.44

> <s_m_Source_Path>
/home/csk/Desktop/cluster/DUD-E-result/def

> <s_m_Source_File>
dock_pv.maegz

> <i_m_Source_File_Index>
44

> <chembl_id>
CHEMBL188671

> <chembl_pref_name>
None

> <i_lp_mmshare_version>
53161

> <i_f3d_flags>
0

> <r_lp_tautomer_probability>
1

> <s_lp_Force_Field>
OPLS_2005

> <r_lp_Energy>
28.385826

> <b_lp_Chiralities_Consistent>
1

> <s_lp_Variant>
CHEMBL1795101_lig169-1

> <s_i_glide_gridfile>
glide-grid_1lru

> <i_i_glide_lignum>
216

> <i_i_glide_rotatable_bonds>
8

> <r_i_docking_score>
-7.42401660236331

> <r_i_glide_ligand_efficiency>
-0.274963577865308

> <r_i_glide_ligand_efficiency_sa>
-0.824890732689688

> <r_i_glide_ligand_efficiency_ln>
-1.72818867055084

> <r_i_glide_gscore>
-7.42401660236331

> <r_i_glide_lipo>
-1.76996304885416

> <r_i_glide_hbond>
-1.24089191808478

> <r_i_glide_metal>
0

> <r_i_glide_rewards>
-0.774873863475266

> <r_i_glide_evdw>
-36.2493858337402

> <r_i_glide_ecoul>
-16.2366142272949

> <r_i_glide_erotb>
0.657534482656881

> <r_i_glide_esite>
-0.0478608288247384

> <r_i_glide_emodel>
-74.4621831112767

> <r_i_glide_energy>
-52.4860000610352

> <r_i_glide_einternal>
5.6922664642334

> <i_i_glide_confnum>
167

> <i_i_glide_posenum>
128

> <r_i_glide_eff_state_penalty>
0

> <s_user_duplicate_titles>
CHEMBL1795101_lig169,313245

> <s_m_subgroup_title>
dock_pv

> <s_m_subgroupid>
dock_pv

> <b_m_subgroup_collapsed>
1

$$$$
CHEMBL1795101_lig6
                    3D
 Schrodinger Suite 2021-1.
 35 35  0  0  1  0            999 V2000
  -36.5340   27.2649   67.6665 S   0  0  0  0  0  0
  -35.0653   27.2251   66.4437 C   0  0  1  0  0  0
  -34.1447   28.4598   66.6569 C   0  0  0  0  0  0
  -33.2010   28.6945   65.4642 C   0  0  0  0  0  0
  -37.4612   26.1818   67.3225 O   0  0  0  0  0  0
  -35.9850   27.3590   69.0236 O   0  0  0  0  0  0
  -37.4530   28.7742   67.3491 C   0  0  0  0  0  0
  -33.5850   29.3061   64.4668 O   0  0  0  0  0  0
  -31.9850   28.1590   65.5568 N   0  0  0  0  0  0
  -31.1850   28.1590   64.4150 O   0  0  0  0  0  0
  -34.3187   25.8659   66.5912 C   0  0  0  0  0  0
  -37.9368   29.5369   68.4150 C   0  0  0  0  0  0
  -37.7547   29.1397   66.0376 C   0  0  0  0  0  0
  -34.9874   24.6752   65.8734 C   0  0  0  0  0  0
  -34.1954   23.3661   66.0150 C   0  0  0  0  0  0
  -38.5551   30.2494   65.7860 C   0  0  0  0  0  0
  -38.7202   30.6611   68.1666 C   0  0  0  0  0  0
  -39.0342   31.0068   66.8535 C   0  0  0  0  0  0
  -35.5216   27.3021   65.4611 H   0  0  0  0  0  0
  -33.5699   28.3510   67.5783 H   0  0  0  0  0  0
  -34.7427   29.3590   66.7954 H   0  0  0  0  0  0
  -31.5860   27.6008   66.3081 H   0  0  0  0  0  0
  -30.3322   28.5045   64.7069 H   0  0  0  0  0  0
  -33.3057   25.9462   66.1985 H   0  0  0  0  0  0
  -34.1930   25.6330   67.6501 H   0  0  0  0  0  0
  -37.7143   29.2609   69.4367 H   0  0  0  0  0  0
  -37.3803   28.5590   65.2150 H   0  0  0  0  0  0
  -35.9921   24.5102   66.2584 H   0  0  0  0  0  0
  -35.1086   24.9069   64.8150 H   0  0  0  0  0  0
  -34.6849   22.5546   65.4747 H   0  0  0  0  0  0
  -33.1850   23.4616   65.6185 H   0  0  0  0  0  0
  -34.1137   23.0652   67.0602 H   0  0  0  0  0  0
  -38.7871   30.5349   64.7691 H   0  0  0  0  0  0
  -39.0822   31.2601   68.9905 H   0  0  0  0  0  0
  -39.6397   31.8808   66.6600 H   0  0  0  0  0  0
  1  2  1  0  0  0
  1  5  2  0  0  0
  1  6  2  0  0  0
  1  7  1  0  0  0
  2  3  1  0  0  0
  2 11  1  0  0  0
  2 19  1  0  0  0
  3  4  1  0  0  0
  3 20  1  0  0  0
  3 21  1  0  0  0
  4  8  2  0  0  0
  4  9  1  0  0  0
  7 12  2  0  0  0
  7 13  1  0  0  0
  9 10  1  0  0  0
  9 22  1  0  0  0
 10 23  1  0  0  0
 11 14  1  0  0  0
 11 24  1  0  0  0
 11 25  1  0  0  0
 12 17  1  0  0  0
 12 26  1  0  0  0
 13 16  2  0  0  0
 13 27  1  0  0  0
 14 15  1  0  0  0
 14 28  1  0  0  0
 14 29  1  0  0  0
 15 30  1  0  0  0
 15 31  1  0  0  0
 15 32  1  0  0  0
 16 18  1  0  0  0
 16 33  1  0  0  0
 17 18  2  0  0  0
 17 34  1  0  0  0
 18 35  1  0  0  0
M  END
> <s_m_entry_id>
40021

> <s_m_entry_name>
dock_pv.45

> <s_m_Source_Path>
/home/csk/Desktop/cluster/DUD-E-result/def

> <s_m_Source_File>
dock_pv.maegz

> <i_m_Source_File_Index>
45

> <chembl_id>
CHEMBL76930

> <chembl_pref_name>
None

> <i_lp_mmshare_version>
53161

> <i_f3d_flags>
0

> <r_lp_tautomer_probability>
1

> <s_lp_Force_Field>
OPLS_2005

> <r_lp_Energy>
11.673576

> <b_lp_Chiralities_Consistent>
1

> <s_lp_Variant>
CHEMBL1795101_lig6-2

> <s_i_glide_gridfile>
glide-grid_1lru

> <i_i_glide_lignum>
14

> <i_i_glide_rotatable_bonds>
8

> <r_i_docking_score>
-7.38894088683441

> <r_i_glide_ligand_efficiency>
-0.410496715935245

> <r_i_glide_ligand_efficiency_sa>
-1.07580573460182

> <r_i_glide_ligand_efficiency_ln>
-1.89928915452291

> <r_i_glide_gscore>
-7.38894088683441

> <r_i_glide_lipo>
-1.73225260842645

> <r_i_glide_hbond>
-0.432099941538913

> <r_i_glide_metal>
-0.894413629671915

> <r_i_glide_rewards>
-1.55737711734612

> <r_i_glide_evdw>
-25.9478340148926

> <r_i_glide_ecoul>
-17.2475032806396

> <r_i_glide_erotb>
1.21581652559192

> <r_i_glide_esite>
-0.104096922602366

> <r_i_glide_emodel>
-60.692947988602

> <r_i_glide_energy>
-43.1953372955322

> <r_i_glide_einternal>
5.18269491195679

> <i_i_glide_confnum>
7

> <i_i_glide_posenum>
281

> <r_i_glide_eff_state_penalty>
0

> <s_user_duplicate_titles>
CHEMBL1795101_lig6

> <s_m_subgroup_title>
dock_pv

> <s_m_subgroupid>
dock_pv

> <b_m_subgroup_collapsed>
1

$$$$
CHEMBL1795101_lig32
                    3D
 Schrodinger Suite 2021-1.
 76 78  0  0  1  0            999 V2000
  -36.3687   26.5125   67.1665 N   0  0  0  0  0  0
  -35.1329   26.6257   67.6597 C   0  0  0  0  0  0
  -37.6000   26.6853   67.9621 C   0  0  2  0  0  0
  -33.9363   26.3332   66.7523 C   0  0  1  0  0  0
  -38.3987   25.4115   67.6571 C   0  0  0  0  0  0
  -40.6727   22.2123   71.8167 N   0  0  0  0  0  0
  -38.3605   28.0427   67.6923 C   0  0  0  0  0  0
  -40.1287   22.9957   70.7924 C   0  0  0  0  0  0
  -39.0037   24.6083   68.7655 C   0  0  0  0  0  0
  -32.9208   27.4929   66.8313 C   0  0  0  0  0  0
  -33.2088   25.0079   67.1015 C   0  0  0  0  0  0
  -33.5071   28.9591   64.9507 C   0  0  0  0  0  0
  -39.7762   21.2883   72.5373 C   0  0  0  0  0  0
  -42.0195   21.6210   71.6958 C   0  0  0  0  0  0
  -34.9312   26.9584   68.8149 O   0  0  0  0  0  0
  -38.6298   25.1028   66.4829 O   0  0  0  0  0  0
  -32.6653   28.1587   65.5756 N   0  0  0  0  0  0
  -33.1850   29.6859   64.0146 O   0  0  0  0  0  0
  -38.9489   23.7163   71.0154 C   0  0  0  0  0  0
  -40.7352   23.0976   69.5307 C   0  0  0  0  0  0
  -38.3828   24.5012   70.0167 C   0  0  0  0  0  0
  -40.1779   23.8842   68.5272 C   0  0  0  0  0  0
  -42.6316   21.1830   73.0399 C   0  0  0  0  0  0
  -40.3100   20.8350   73.9081 C   0  0  0  0  0  0
  -41.7185   20.2399   73.8289 C   0  0  0  0  0  0
  -31.5846   27.7593   64.8149 O   0  0  0  0  0  0
  -33.9640   23.6767   66.9981 C   0  0  0  0  0  0
  -42.2256   19.9988   75.1236 O   0  0  0  0  0  0
  -39.8140   28.0650   68.2298 C   0  0  0  0  0  0
  -38.3269   28.4266   66.1967 C   0  0  0  0  0  0
  -37.5862   29.1664   68.4278 C   0  0  0  0  0  0
  -34.7509   23.2847   68.2603 C   0  0  0  0  0  0
  -34.9570   23.6068   65.8320 C   0  0  0  0  0  0
  -35.9475   22.5512   66.2547 C   0  0  0  0  0  0
  -35.9268   22.4399   67.7713 C   0  0  0  0  0  0
  -36.5052   26.2939   66.1876 H   0  0  0  0  0  0
  -37.3637   26.6884   69.0253 H   0  0  0  0  0  0
  -34.2994   26.2722   65.7252 H   0  0  0  0  0  0
  -33.1993   28.2781   67.5393 H   0  0  0  0  0  0
  -31.9850   27.1263   67.2226 H   0  0  0  0  0  0
  -32.7446   25.0767   68.0898 H   0  0  0  0  0  0
  -32.3852   24.9177   66.4042 H   0  0  0  0  0  0
  -34.4949   28.9626   65.4376 H   0  0  0  0  0  0
  -39.5839   20.4269   71.8981 H   0  0  0  0  0  0
  -38.8081   21.7553   72.7171 H   0  0  0  0  0  0
  -42.6875   22.3695   71.2708 H   0  0  0  0  0  0
  -41.9915   20.7875   70.9936 H   0  0  0  0  0  0
  -38.4573   23.6835   71.9765 H   0  0  0  0  0  0
  -41.6382   22.5531   69.3033 H   0  0  0  0  0  0
  -37.4515   24.9992   70.2454 H   0  0  0  0  0  0
  -40.6733   23.9196   67.5642 H   0  0  0  0  0  0
  -42.8946   22.0639   73.6250 H   0  0  0  0  0  0
  -43.5781   20.6779   72.8422 H   0  0  0  0  0  0
  -39.6314   20.0847   74.3112 H   0  0  0  0  0  0
  -40.2673   21.6627   74.6155 H   0  0  0  0  0  0
  -41.6592   19.2691   73.3325 H   0  0  0  0  0  0
  -30.8279   27.8255   65.4138 H   0  0  0  0  0  0
  -33.1959   22.9191   66.8441 H   0  0  0  0  0  0
  -43.1772   19.8915   75.0735 H   0  0  0  0  0  0
  -39.8329   27.9134   69.3090 H   0  0  0  0  0  0
  -40.2991   29.0221   68.0345 H   0  0  0  0  0  0
  -40.4294   27.2907   67.7686 H   0  0  0  0  0  0
  -37.3915   28.9035   65.8961 H   0  0  0  0  0  0
  -38.3919   27.5223   65.6146 H   0  0  0  0  0  0
  -39.1379   29.0982   65.9098 H   0  0  0  0  0  0
  -36.5852   29.2997   68.0154 H   0  0  0  0  0  0
  -38.0905   30.1301   68.3431 H   0  0  0  0  0  0
  -37.4910   28.9567   69.4945 H   0  0  0  0  0  0
  -35.1085   24.1521   68.8162 H   0  0  0  0  0  0
  -34.1264   22.7148   68.9494 H   0  0  0  0  0  0
  -34.4665   23.3361   64.8971 H   0  0  0  0  0  0
  -35.5019   24.5255   65.6458 H   0  0  0  0  0  0
  -36.9510   22.7650   65.8869 H   0  0  0  0  0  0
  -35.5817   21.6037   65.8518 H   0  0  0  0  0  0
  -36.8668   22.7689   68.2139 H   0  0  0  0  0  0
  -35.7974   21.3877   68.0148 H   0  0  0  0  0  0
  1  2  1  0  0  0
  1  3  1  0  0  0
  1 36  1  0  0  0
  2  4  1  0  0  0
  2 15  2  0  0  0
  3  5  1  0  0  0
  3  7  1  0  0  0
  3 37  1  0  0  0
  4 10  1  0  0  0
  4 11  1  0  0  0
  4 38  1  0  0  0
  5  9  1  0  0  0
  5 16  2  0  0  0
  6  8  1  0  0  0
  6 13  1  0  0  0
  6 14  1  0  0  0
  7 29  1  0  0  0
  7 30  1  0  0  0
  7 31  1  0  0  0
  8 20  1  0  0  0
  8 19  2  0  0  0
  9 21  2  0  0  0
  9 22  1  0  0  0
 10 17  1  0  0  0
 10 39  1  0  0  0
 10 40  1  0  0  0
 11 27  1  0  0  0
 11 41  1  0  0  0
 11 42  1  0  0  0
 12 17  1  0  0  0
 12 18  2  0  0  0
 12 43  1  0  0  0
 13 24  1  0  0  0
 13 44  1  0  0  0
 13 45  1  0  0  0
 14 23  1  0  0  0
 14 46  1  0  0  0
 14 47  1  0  0  0
 17 26  1  0  0  0
 19 21  1  0  0  0
 19 48  1  0  0  0
 20 22  2  0  0  0
 20 49  1  0  0  0
 21 50  1  0  0  0
 22 51  1  0  0  0
 23 25  1  0  0  0
 23 52  1  0  0  0
 23 53  1  0  0  0
 24 25  1  0  0  0
 24 54  1  0  0  0
 24 55  1  0  0  0
 25 28  1  0  0  0
 25 56  1  0  0  0
 26 57  1  0  0  0
 27 32  1  0  0  0
 27 33  1  0  0  0
 27 58  1  0  0  0
 28 59  1  0  0  0
 29 60  1  0  0  0
 29 61  1  0  0  0
 29 62  1  0  0  0
 30 63  1  0  0  0
 30 64  1  0  0  0
 30 65  1  0  0  0
 31 66  1  0  0  0
 31 67  1  0  0  0
 31 68  1  0  0  0
 32 35  1  0  0  0
 32 69  1  0  0  0
 32 70  1  0  0  0
 33 34  1  0  0  0
 33 71  1  0  0  0
 33 72  1  0  0  0
 34 35  1  0  0  0
 34 73  1  0  0  0
 34 74  1  0  0  0
 35 75  1  0  0  0
 35 76  1  0  0  0
M  END
> <s_m_entry_id>
40022

> <s_m_entry_name>
dock_pv.46

> <s_m_Source_Path>
/home/csk/Desktop/cluster/DUD-E-result/def

> <s_m_Source_File>
dock_pv.maegz

> <i_m_Source_File_Index>
46

> <chembl_id>
CHEMBL157738

> <chembl_pref_name>
None

> <i_lp_mmshare_version>
53161

> <i_f3d_flags>
0

> <r_lp_tautomer_probability>
0.99990000499975

> <s_lp_Force_Field>
OPLS_2005

> <r_lp_Energy>
65.667641

> <b_lp_Chiralities_Consistent>
1

> <s_lp_Variant>
CHEMBL1795101_lig32-1

> <s_i_glide_gridfile>
glide-grid_1lru

> <i_i_glide_lignum>
68

> <i_i_glide_rotatable_bonds>
14

> <r_i_docking_score>
-7.36274630480066

> <r_i_glide_ligand_efficiency>
-0.210364180137162

> <r_i_glide_ligand_efficiency_sa>
-0.688115181701617

> <r_i_glide_ligand_efficiency_ln>
-1.61628622125382

> <r_i_glide_gscore>
-7.36274630480066

> <r_i_glide_lipo>
-2.11213473444839

> <r_i_glide_hbond>
-1.40106404356887

> <r_i_glide_metal>
-0.208445827617953

> <r_i_glide_rewards>
0.093772585847248

> <r_i_glide_evdw>
-25.2319049835205

> <r_i_glide_ecoul>
-20.9518966674805

> <r_i_glide_erotb>
0.769505464285407

> <r_i_glide_esite>
-0.1

> <r_i_glide_emodel>
-50.1587826193595

> <r_i_glide_energy>
-46.183801651001

> <r_i_glide_einternal>
23.2789211273193

> <i_i_glide_confnum>
477

> <i_i_glide_posenum>
256

> <r_i_glide_eff_state_penalty>
0

> <s_user_duplicate_titles>
CHEMBL1795101_lig32,261472

> <s_m_subgroup_title>
dock_pv

> <s_m_subgroupid>
dock_pv

> <b_m_subgroup_collapsed>
1

$$$$
CHEMBL1795101_lig100
                    3D
 Schrodinger Suite 2021-1.
 27 28  0  0  1  0            999 V2000
  -35.4530   26.6514   68.0597 C   0  0  0  0  0  0
  -34.2914   26.2994   67.4187 N   0  0  0  0  0  0
  -35.1223   23.9273   67.1597 C   0  0  0  0  0  0
  -36.3563   25.6751   68.2215 N   0  0  0  0  0  0
  -33.9523   24.9004   67.0439 C   0  0  0  0  0  0
  -36.3010   24.3797   67.7555 C   0  0  0  0  0  0
  -33.5865   28.1590   65.9248 C   0  0  0  0  0  0
  -33.2605   27.3263   67.1754 C   0  0  0  0  0  0
  -35.0825   22.6183   66.6791 C   0  0  0  0  0  0
  -35.7131   27.7590   68.5033 O   0  0  0  0  0  0
  -34.7549   28.3996   65.6150 O   0  0  0  0  0  0
  -32.5303   28.5876   65.2150 N   0  0  0  0  0  0
  -33.9850   22.1590   66.0425 F   0  0  0  0  0  0
  -32.7850   29.3590   64.0721 O   0  0  0  0  0  0
  -37.4245   23.5661   67.8662 C   0  0  0  0  0  0
  -37.3693   22.2658   67.3844 C   0  0  0  0  0  0
  -36.1892   21.7867   66.8150 C   0  0  0  0  0  0
  -37.1973   25.9890   68.6799 H   0  0  0  0  0  0
  -33.5914   24.8971   66.0150 H   0  0  0  0  0  0
  -33.1252   24.5585   67.6682 H   0  0  0  0  0  0
  -32.2884   26.8546   67.0740 H   0  0  0  0  0  0
  -33.1850   27.9980   68.0294 H   0  0  0  0  0  0
  -31.5441   28.4324   65.3984 H   0  0  0  0  0  0
  -32.6473   28.7520   63.3342 H   0  0  0  0  0  0
  -38.3371   23.9351   68.3121 H   0  0  0  0  0  0
  -38.2510   21.6469   67.4455 H   0  0  0  0  0  0
  -36.1469   20.7860   66.4153 H   0  0  0  0  0  0
  1  2  1  0  0  0
  1  4  1  0  0  0
  1 10  2  0  0  0
  2  5  1  0  0  0
  2  8  1  0  0  0
  3  6  1  0  0  0
  3  9  2  0  0  0
  3  5  1  0  0  0
  4  6  1  0  0  0
  4 18  1  0  0  0
  5 19  1  0  0  0
  5 20  1  0  0  0
  6 15  2  0  0  0
  7  8  1  0  0  0
  7 11  2  0  0  0
  7 12  1  0  0  0
  8 21  1  0  0  0
  8 22  1  0  0  0
  9 13  1  0  0  0
  9 17  1  0  0  0
 12 14  1  0  0  0
 12 23  1  0  0  0
 14 24  1  0  0  0
 15 16  1  0  0  0
 15 25  1  0  0  0
 16 17  2  0  0  0
 16 26  1  0  0  0
 17 27  1  0  0  0
M  END
> <s_m_entry_id>
40023

> <s_m_entry_name>
dock_pv.47

> <s_m_Source_Path>
/home/csk/Desktop/cluster/DUD-E-result/def

> <s_m_Source_File>
dock_pv.maegz

> <i_m_Source_File_Index>
47

> <chembl_id>
CHEMBL52142

> <chembl_pref_name>
None

> <i_lp_mmshare_version>
53161

> <i_f3d_flags>
0

> <r_lp_tautomer_probability>
1

> <s_lp_Force_Field>
OPLS_2005

> <r_lp_Energy>
25.324947

> <b_lp_Chiralities_Consistent>
1

> <s_lp_Variant>
CHEMBL1795101_lig100-1

> <s_i_glide_gridfile>
glide-grid_1lru

> <i_i_glide_lignum>
143

> <i_i_glide_rotatable_bonds>
4

> <r_i_docking_score>
-7.34905382326765

> <r_i_glide_ligand_efficiency>
-0.432297283721627

> <r_i_glide_ligand_efficiency_sa>
-1.11155804627522

> <r_i_glide_ligand_efficiency_ln>
-1.91720448710821

> <r_i_glide_gscore>
-7.34905382326765

> <r_i_glide_lipo>
-1.57548581190959

> <r_i_glide_hbond>
-0.264036720782316

> <r_i_glide_metal>
-1.64844752546184

> <r_i_glide_rewards>
-1.77816057620353

> <r_i_glide_evdw>
-25.7534484863281

> <r_i_glide_ecoul>
-8.89234638214111

> <r_i_glide_erotb>
0.60390615286015

> <r_i_glide_esite>
-0.0653049601329613

> <r_i_glide_emodel>
-52.8308364453709

> <r_i_glide_energy>
-34.6457948684692

> <r_i_glide_einternal>
1.17968797683716

> <i_i_glide_confnum>
3

> <i_i_glide_posenum>
213

> <r_i_glide_eff_state_penalty>
0

> <s_user_duplicate_titles>
CHEMBL1795101_lig100,82678

> <s_m_subgroup_title>
dock_pv

> <s_m_subgroupid>
dock_pv

> <b_m_subgroup_collapsed>
1

$$$$
CHEMBL1795101_lig115
                    3D
 Schrodinger Suite 2021-1.
 43 43  0  0  1  0            999 V2000
  -34.6934   27.3208   66.9265 C   0  0  1  0  0  0
  -33.5979   28.4293   66.8330 C   0  0  0  0  0  0
  -36.0227   27.6857   66.4150 N   0  0  0  0  0  0
  -36.7690   28.7738   66.8398 C   0  0  0  0  0  0
  -38.0089   28.7047   66.2878 O   0  0  0  0  0  0
  -36.3850   29.6420   67.6150 O   0  0  0  0  0  0
  -39.0175   29.7376   66.3096 C   0  0  0  0  0  0
  -38.9878   30.7477   67.4880 C   0  0  0  0  0  0
  -40.3419   28.9589   66.4185 C   0  0  0  0  0  0
  -38.9479   30.4720   64.9560 C   0  0  0  0  0  0
  -32.9706   28.6523   65.4454 C   0  0  0  0  0  0
  -33.5850   29.2242   64.5493 O   0  0  0  0  0  0
  -31.7407   28.1590   65.2819 N   0  0  0  0  0  0
  -31.1850   28.1590   64.0150 O   0  0  0  0  0  0
  -34.2044   25.9931   66.2894 C   0  0  0  0  0  0
  -34.8424   24.7200   66.8183 C   0  0  0  0  0  0
  -34.2578   24.0510   67.8965 C   0  0  0  0  0  0
  -34.7850   22.8365   68.3237 C   0  0  0  0  0  0
  -35.8972   22.3036   67.6758 C   0  0  0  0  0  0
  -36.5036   22.9814   66.6256 C   0  0  0  0  0  0
  -35.9668   24.1847   66.1851 C   0  0  0  0  0  0
  -34.8449   27.1275   67.9914 H   0  0  0  0  0  0
  -33.9491   29.3923   67.1989 H   0  0  0  0  0  0
  -32.8135   28.1374   67.5271 H   0  0  0  0  0  0
  -36.4520   27.0603   65.7468 H   0  0  0  0  0  0
  -39.8777   31.3777   67.5010 H   0  0  0  0  0  0
  -38.1341   31.4225   67.4271 H   0  0  0  0  0  0
  -38.9323   30.2399   68.4519 H   0  0  0  0  0  0
  -40.4546   28.2357   65.6150 H   0  0  0  0  0  0
  -40.3850   28.4000   67.3545 H   0  0  0  0  0  0
  -41.2003   29.6300   66.3806 H   0  0  0  0  0  0
  -39.0801   29.7870   64.1180 H   0  0  0  0  0  0
  -39.7147   31.2435   64.8729 H   0  0  0  0  0  0
  -37.9842   30.9590   64.8151 H   0  0  0  0  0  0
  -31.1810   27.6247   65.9489 H   0  0  0  0  0  0
  -30.4003   28.7219   64.0912 H   0  0  0  0  0  0
  -34.3613   26.0296   65.2135 H   0  0  0  0  0  0
  -33.1258   25.8804   66.4197 H   0  0  0  0  0  0
  -33.3816   24.4546   68.3850 H   0  0  0  0  0  0
  -34.3300   22.3071   69.1480 H   0  0  0  0  0  0
  -36.3036   21.3593   68.0056 H   0  0  0  0  0  0
  -37.3748   22.5650   66.1439 H   0  0  0  0  0  0
  -36.4153   24.6831   65.3408 H   0  0  0  0  0  0
  1  2  1  0  0  0
  1 15  1  0  0  0
  1  3  1  0  0  0
  1 22  1  0  0  0
  2 11  1  0  0  0
  2 23  1  0  0  0
  2 24  1  0  0  0
  3  4  1  0  0  0
  3 25  1  0  0  0
  4  6  2  0  0  0
  4  5  1  0  0  0
  5  7  1  0  0  0
  7  8  1  0  0  0
  7  9  1  0  0  0
  7 10  1  0  0  0
  8 26  1  0  0  0
  8 27  1  0  0  0
  8 28  1  0  0  0
  9 29  1  0  0  0
  9 30  1  0  0  0
  9 31  1  0  0  0
 10 32  1  0  0  0
 10 33  1  0  0  0
 10 34  1  0  0  0
 11 12  2  0  0  0
 11 13  1  0  0  0
 13 14  1  0  0  0
 13 35  1  0  0  0
 14 36  1  0  0  0
 15 16  1  0  0  0
 15 37  1  0  0  0
 15 38  1  0  0  0
 16 17  2  0  0  0
 16 21  1  0  0  0
 17 18  1  0  0  0
 17 39  1  0  0  0
 18 19  2  0  0  0
 18 40  1  0  0  0
 19 20  1  0  0  0
 19 41  1  0  0  0
 20 21  2  0  0  0
 20 42  1  0  0  0
 21 43  1  0  0  0
M  END
> <s_m_entry_id>
40024

> <s_m_entry_name>
dock_pv.48

> <s_m_Source_Path>
/home/csk/Desktop/cluster/DUD-E-result/def

> <s_m_Source_File>
dock_pv.maegz

> <i_m_Source_File_Index>
48

> <chembl_id>
CHEMBL218819

> <chembl_pref_name>
None

> <i_lp_mmshare_version>
53161

> <i_f3d_flags>
0

> <r_lp_tautomer_probability>
1

> <s_lp_Force_Field>
OPLS_2005

> <r_lp_Energy>
11.578836

> <b_lp_Chiralities_Consistent>
1

> <s_lp_Variant>
CHEMBL1795101_lig115-1

> <s_i_glide_gridfile>
glide-grid_1lru

> <i_i_glide_lignum>
159

> <i_i_glide_rotatable_bonds>
10

> <r_i_docking_score>
-7.34440319742873

> <r_i_glide_ligand_efficiency>
-0.349733485591844

> <r_i_glide_ligand_efficiency_sa>
-0.964888167710169

> <r_i_glide_ligand_efficiency_ln>
-1.81588884980021

> <r_i_glide_gscore>
-7.34440319742873

> <r_i_glide_lipo>
-2.1257212426802

> <r_i_glide_hbond>
-0.794183460572206

> <r_i_glide_metal>
-2.3

> <r_i_glide_rewards>
-1.39455325028614

> <r_i_glide_evdw>
-27.2036285400391

> <r_i_glide_ecoul>
-14.6707143783569

> <r_i_glide_erotb>
2.95500403262292

> <r_i_glide_esite>
-0.124160692757602

> <r_i_glide_emodel>
-58.3961653887454

> <r_i_glide_energy>
-41.874342918396

> <r_i_glide_einternal>
8.96207046508789

> <i_i_glide_confnum>
35

> <i_i_glide_posenum>
181

> <r_i_glide_eff_state_penalty>
0

> <s_user_duplicate_titles>
CHEMBL1795101_lig115

> <s_m_subgroup_title>
dock_pv

> <s_m_subgroupid>
dock_pv

> <b_m_subgroup_collapsed>
1

$$$$
CHEMBL1795101_lig39
                    3D
 Schrodinger Suite 2021-1.
 76 78  0  0  1  0            999 V2000
  -36.8689   28.0391   67.1058 N   0  0  0  0  0  0
  -35.9365   27.3746   67.8233 C   0  0  0  0  0  0
  -37.9513   28.9210   67.6376 C   0  0  2  0  0  0
  -34.7938   26.6358   67.0831 C   0  0  1  0  0  0
  -38.7876   28.2859   68.7755 C   0  0  0  0  0  0
  -40.1640   22.7430   69.3464 N   0  0  0  0  0  0
  -39.7921   24.0736   69.1585 C   0  0  0  0  0  0
  -39.0741   26.8093   68.8913 C   0  0  0  0  0  0
  -39.3877   24.5981   67.9176 C   0  0  0  0  0  0
  -39.0487   25.9459   67.7883 C   0  0  0  0  0  0
  -39.7756   24.9284   70.2656 C   0  0  0  0  0  0
  -38.8306   29.6593   66.5384 C   0  0  0  0  0  0
  -33.4618   27.4432   67.1277 C   0  0  0  0  0  0
  -34.5569   25.2240   67.6955 C   0  0  0  0  0  0
  -39.4457   21.8839   70.2975 C   0  0  0  0  0  0
  -40.7820   21.9153   68.2990 C   0  0  0  0  0  0
  -39.4391   26.2750   70.1348 C   0  0  0  0  0  0
  -33.4843   28.5592   64.9003 C   0  0  0  0  0  0
  -35.9632   27.3562   69.0510 O   0  0  0  0  0  0
  -39.2288   29.0479   69.6369 O   0  0  0  0  0  0
  -33.3727   28.6018   66.2384 N   0  0  0  0  0  0
  -33.1850   29.4630   64.1213 O   0  0  0  0  0  0
  -41.8137   20.9282   68.8844 C   0  0  0  0  0  0
  -40.3979   20.8938   71.0013 C   0  0  0  0  0  0
  -39.3014   23.8179   66.8185 F   0  0  0  0  0  0
  -41.2578   20.0648   70.0302 C   0  0  0  0  0  0
  -32.7854   29.7587   66.7687 O   0  0  0  0  0  0
  -35.5705   24.1574   67.2255 C   0  0  0  0  0  0
  -42.3112   19.4286   70.7205 O   0  0  0  0  0  0
  -39.2217   31.0651   67.0770 C   0  0  0  0  0  0
  -40.1643   28.9409   66.2001 C   0  0  0  0  0  0
  -38.0652   29.8921   65.2169 C   0  0  0  0  0  0
  -35.3045   23.6669   65.7842 C   0  0  0  0  0  0
  -35.5503   22.8906   68.1045 C   0  0  0  0  0  0
  -35.3862   21.7088   67.1490 C   0  0  0  0  0  0
  -34.6593   22.2890   65.9376 C   0  0  0  0  0  0
  -36.7172   28.1124   66.1102 H   0  0  0  0  0  0
  -37.3619   29.7145   68.1054 H   0  0  0  0  0  0
  -35.0867   26.4960   66.0430 H   0  0  0  0  0  0
  -38.7567   26.2972   66.8107 H   0  0  0  0  0  0
  -40.0600   24.5559   71.2383 H   0  0  0  0  0  0
  -33.2492   27.7416   68.1542 H   0  0  0  0  0  0
  -32.6155   26.8064   66.8644 H   0  0  0  0  0  0
  -34.5338   25.2779   68.7859 H   0  0  0  0  0  0
  -33.5627   24.8569   67.4325 H   0  0  0  0  0  0
  -38.6438   21.3596   69.7750 H   0  0  0  0  0  0
  -38.9652   22.4923   71.0651 H   0  0  0  0  0  0
  -41.3211   22.5725   67.6154 H   0  0  0  0  0  0
  -40.0210   21.3920   67.7154 H   0  0  0  0  0  0
  -39.4652   26.9026   71.0165 H   0  0  0  0  0  0
  -33.8994   27.5964   64.5728 H   0  0  0  0  0  0
  -42.7094   21.4741   69.1821 H   0  0  0  0  0  0
  -42.1463   20.2705   68.0798 H   0  0  0  0  0  0
  -39.7964   20.2138   71.6050 H   0  0  0  0  0  0
  -41.0118   21.4366   71.7222 H   0  0  0  0  0  0
  -40.6653   19.2505   69.6154 H   0  0  0  0  0  0
  -32.0235   29.4152   67.2722 H   0  0  0  0  0  0
  -36.5720   24.5833   67.2768 H   0  0  0  0  0  0
  -42.8639   20.1035   71.1195 H   0  0  0  0  0  0
  -38.3495   31.6776   67.3043 H   0  0  0  0  0  0
  -39.8079   31.6231   66.3457 H   0  0  0  0  0  0
  -39.8239   31.0105   67.9838 H   0  0  0  0  0  0
  -40.0211   27.8806   66.0153 H   0  0  0  0  0  0
  -40.8805   29.0318   67.0146 H   0  0  0  0  0  0
  -40.6484   29.3672   65.3197 H   0  0  0  0  0  0
  -37.6860   28.9604   64.8155 H   0  0  0  0  0  0
  -38.6976   30.3379   64.4471 H   0  0  0  0  0  0
  -37.2143   30.5577   65.3371 H   0  0  0  0  0  0
  -34.6583   24.3358   65.2147 H   0  0  0  0  0  0
  -36.2436   23.5890   65.2324 H   0  0  0  0  0  0
  -36.4685   22.7999   68.6867 H   0  0  0  0  0  0
  -34.7230   22.9081   68.8167 H   0  0  0  0  0  0
  -34.8535   20.8775   67.6122 H   0  0  0  0  0  0
  -36.3724   21.3542   66.8459 H   0  0  0  0  0  0
  -33.5851   22.3820   66.1313 H   0  0  0  0  0  0
  -34.7828   21.6753   65.0444 H   0  0  0  0  0  0
  1  2  1  0  0  0
  1  3  1  0  0  0
  1 37  1  0  0  0
  2  4  1  0  0  0
  2 19  2  0  0  0
  3  5  1  0  0  0
  3 12  1  0  0  0
  3 38  1  0  0  0
  4 13  1  0  0  0
  4 14  1  0  0  0
  4 39  1  0  0  0
  5  8  1  0  0  0
  5 20  2  0  0  0
  6  7  1  0  0  0
  6 15  1  0  0  0
  6 16  1  0  0  0
  7 11  1  0  0  0
  7  9  2  0  0  0
  8 10  2  0  0  0
  8 17  1  0  0  0
  9 10  1  0  0  0
  9 25  1  0  0  0
 10 40  1  0  0  0
 11 17  2  0  0  0
 11 41  1  0  0  0
 12 30  1  0  0  0
 12 31  1  0  0  0
 12 32  1  0  0  0
 13 21  1  0  0  0
 13 42  1  0  0  0
 13 43  1  0  0  0
 14 28  1  0  0  0
 14 44  1  0  0  0
 14 45  1  0  0  0
 15 24  1  0  0  0
 15 46  1  0  0  0
 15 47  1  0  0  0
 16 23  1  0  0  0
 16 48  1  0  0  0
 16 49  1  0  0  0
 17 50  1  0  0  0
 18 21  1  0  0  0
 18 22  2  0  0  0
 18 51  1  0  0  0
 21 27  1  0  0  0
 23 26  1  0  0  0
 23 52  1  0  0  0
 23 53  1  0  0  0
 24 26  1  0  0  0
 24 54  1  0  0  0
 24 55  1  0  0  0
 26 29  1  0  0  0
 26 56  1  0  0  0
 27 57  1  0  0  0
 28 33  1  0  0  0
 28 34  1  0  0  0
 28 58  1  0  0  0
 29 59  1  0  0  0
 30 60  1  0  0  0
 30 61  1  0  0  0
 30 62  1  0  0  0
 31 63  1  0  0  0
 31 64  1  0  0  0
 31 65  1  0  0  0
 32 66  1  0  0  0
 32 67  1  0  0  0
 32 68  1  0  0  0
 33 36  1  0  0  0
 33 69  1  0  0  0
 33 70  1  0  0  0
 34 35  1  0  0  0
 34 71  1  0  0  0
 34 72  1  0  0  0
 35 36  1  0  0  0
 35 73  1  0  0  0
 35 74  1  0  0  0
 36 75  1  0  0  0
 36 76  1  0  0  0
M  END
> <s_m_entry_id>
40025

> <s_m_entry_name>
dock_pv.49

> <s_m_Source_Path>
/home/csk/Desktop/cluster/DUD-E-result/def

> <s_m_Source_File>
dock_pv.maegz

> <i_m_Source_File_Index>
49

> <chembl_id>
CHEMBL160164

> <chembl_pref_name>
None

> <i_lp_mmshare_version>
53161

> <i_f3d_flags>
0

> <r_lp_tautomer_probability>
0.99990000499975

> <s_lp_Force_Field>
OPLS_2005

> <r_lp_Energy>
59.260815

> <b_lp_Chiralities_Consistent>
1

> <s_lp_Variant>
CHEMBL1795101_lig39-1

> <s_i_glide_gridfile>
glide-grid_1lru

> <i_i_glide_lignum>
75

> <i_i_glide_rotatable_bonds>
14

> <r_i_docking_score>
-7.3346704738956

> <r_i_glide_ligand_efficiency>
-0.2037408464971

> <r_i_glide_ligand_efficiency_sa>
-0.672737451958043

> <r_i_glide_ligand_efficiency_ln>
-1.60022693750801

> <r_i_glide_gscore>
-7.3346704738956

> <r_i_glide_lipo>
-2.80743722709062

> <r_i_glide_hbond>
-0.948265173654124

> <r_i_glide_metal>
-0.637658093443839

> <r_i_glide_rewards>
0.000703774389388295

> <r_i_glide_evdw>
-32.7256240844727

> <r_i_glide_ecoul>
-13.2336349487305

> <r_i_glide_erotb>
0.720080389850593

> <r_i_glide_esite>
-0.0407676974137936

> <r_i_glide_emodel>
-53.7695505498488

> <r_i_glide_energy>
-45.9592590332031

> <r_i_glide_einternal>
18.6263065338135

> <i_i_glide_confnum>
328

> <i_i_glide_posenum>
44

> <r_i_glide_eff_state_penalty>
0

> <s_user_duplicate_titles>
CHEMBL1795101_lig39,262046

> <s_m_subgroup_title>
dock_pv

> <s_m_subgroupid>
dock_pv

> <b_m_subgroup_collapsed>
1

$$$$
CHEMBL1795101_lig30
                    3D
 Schrodinger Suite 2021-1.
 64 65  0  0  1  0            999 V2000
  -36.9039   26.9149   67.0607 N   0  0  0  0  0  0
  -35.7178   26.7947   67.6836 C   0  0  0  0  0  0
  -38.1108   27.5146   67.6673 C   0  0  2  0  0  0
  -34.5402   26.1232   66.9377 C   0  0  1  0  0  0
  -39.2075   26.5080   67.3272 C   0  0  0  0  0  0
  -38.3714   29.0331   67.2957 C   0  0  0  0  0  0
  -39.3361   25.1952   68.0478 C   0  0  0  0  0  0
  -33.3189   27.0700   66.7849 C   0  0  0  0  0  0
  -34.0881   24.8399   67.6667 C   0  0  0  0  0  0
  -32.5396   28.8597   65.2151 C   0  0  0  0  0  0
  -35.5407   27.2176   68.8174 O   0  0  0  0  0  0
  -39.9852   26.7719   66.4151 O   0  0  0  0  0  0
  -33.5022   28.1838   65.8617 N   0  0  0  0  0  0
  -32.7850   29.7593   64.4148 O   0  0  0  0  0  0
  -38.6317   24.9187   69.2284 C   0  0  0  0  0  0
  -40.2191   24.2278   67.5466 C   0  0  0  0  0  0
  -39.7329   22.7658   69.4040 C   0  0  0  0  0  0
  -40.4064   23.0262   68.2162 C   0  0  0  0  0  0
  -38.8323   23.7181   69.9029 C   0  0  0  0  0  0
  -34.8099   28.6028   65.6151 O   0  0  0  0  0  0
  -35.1550   23.7334   67.7584 C   0  0  0  0  0  0
  -40.0236   21.5630   70.0141 O   0  0  0  0  0  0
  -38.3433   29.3435   65.7735 C   0  0  0  0  0  0
  -37.2952   29.9130   67.9646 C   0  0  0  0  0  0
  -39.7294   29.5280   67.8670 C   0  0  0  0  0  0
  -39.4695   21.2946   71.2929 C   0  0  0  0  0  0
  -35.5528   23.1348   66.3905 C   0  0  0  0  0  0
  -34.6566   22.5575   68.6095 C   0  0  0  0  0  0
  -34.9600   21.3024   67.7944 C   0  0  0  0  0  0
  -34.8949   21.7601   66.3452 C   0  0  0  0  0  0
  -36.9678   26.6565   66.0847 H   0  0  0  0  0  0
  -38.0245   27.5167   68.7539 H   0  0  0  0  0  0
  -34.8722   25.8619   65.9321 H   0  0  0  0  0  0
  -33.0110   27.4546   67.7576 H   0  0  0  0  0  0
  -32.4672   26.4901   66.4333 H   0  0  0  0  0  0
  -33.2153   24.4251   67.1566 H   0  0  0  0  0  0
  -33.7398   25.0930   68.6719 H   0  0  0  0  0  0
  -31.5296   28.5057   65.4843 H   0  0  0  0  0  0
  -37.9312   25.6182   69.6593 H   0  0  0  0  0  0
  -40.7782   24.3942   66.6356 H   0  0  0  0  0  0
  -41.0932   22.2950   67.8152 H   0  0  0  0  0  0
  -38.2857   23.5542   70.8178 H   0  0  0  0  0  0
  -34.7466   28.9595   64.7248 H   0  0  0  0  0  0
  -36.0481   24.1325   68.2416 H   0  0  0  0  0  0
  -39.2138   28.9579   65.2481 H   0  0  0  0  0  0
  -38.3596   30.4194   65.5894 H   0  0  0  0  0  0
  -37.4471   28.9603   65.2873 H   0  0  0  0  0  0
  -37.3181   29.8155   69.0490 H   0  0  0  0  0  0
  -36.2900   29.6807   67.6154 H   0  0  0  0  0  0
  -37.4726   30.9624   67.7493 H   0  0  0  0  0  0
  -39.7732   29.4254   68.9525 H   0  0  0  0  0  0
  -39.8883   30.5845   67.6447 H   0  0  0  0  0  0
  -40.5832   29.0012   67.4463 H   0  0  0  0  0  0
  -39.7371   20.2843   71.6017 H   0  0  0  0  0  0
  -39.8474   21.9889   72.0456 H   0  0  0  0  0  0
  -38.3849   21.3585   71.2648 H   0  0  0  0  0  0
  -36.6387   23.0403   66.3274 H   0  0  0  0  0  0
  -35.2393   23.7309   65.5338 H   0  0  0  0  0  0
  -33.5851   22.6244   68.7924 H   0  0  0  0  0  0
  -35.1338   22.5591   69.5887 H   0  0  0  0  0  0
  -35.9703   20.9591   68.0131 H   0  0  0  0  0  0
  -34.2717   20.4855   68.0120 H   0  0  0  0  0  0
  -35.4194   21.0921   65.6681 H   0  0  0  0  0  0
  -33.8610   21.8389   66.0061 H   0  0  0  0  0  0
  1  2  1  0  0  0
  1  3  1  0  0  0
  1 31  1  0  0  0
  2  4  1  0  0  0
  2 11  2  0  0  0
  3  5  1  0  0  0
  3  6  1  0  0  0
  3 32  1  0  0  0
  4  8  1  0  0  0
  4  9  1  0  0  0
  4 33  1  0  0  0
  5  7  1  0  0  0
  5 12  2  0  0  0
  6 23  1  0  0  0
  6 24  1  0  0  0
  6 25  1  0  0  0
  7 15  2  0  0  0
  7 16  1  0  0  0
  8 13  1  0  0  0
  8 34  1  0  0  0
  8 35  1  0  0  0
  9 21  1  0  0  0
  9 36  1  0  0  0
  9 37  1  0  0  0
 10 13  1  0  0  0
 10 14  2  0  0  0
 10 38  1  0  0  0
 13 20  1  0  0  0
 15 19  1  0  0  0
 15 39  1  0  0  0
 16 18  2  0  0  0
 16 40  1  0  0  0
 17 18  1  0  0  0
 17 22  1  0  0  0
 17 19  2  0  0  0
 18 41  1  0  0  0
 19 42  1  0  0  0
 20 43  1  0  0  0
 21 27  1  0  0  0
 21 28  1  0  0  0
 21 44  1  0  0  0
 22 26  1  0  0  0
 23 45  1  0  0  0
 23 46  1  0  0  0
 23 47  1  0  0  0
 24 48  1  0  0  0
 24 49  1  0  0  0
 24 50  1  0  0  0
 25 51  1  0  0  0
 25 52  1  0  0  0
 25 53  1  0  0  0
 26 54  1  0  0  0
 26 55  1  0  0  0
 26 56  1  0  0  0
 27 30  1  0  0  0
 27 57  1  0  0  0
 27 58  1  0  0  0
 28 29  1  0  0  0
 28 59  1  0  0  0
 28 60  1  0  0  0
 29 30  1  0  0  0
 29 61  1  0  0  0
 29 62  1  0  0  0
 30 63  1  0  0  0
 30 64  1  0  0  0
M  END
> <s_m_entry_id>
40026

> <s_m_entry_name>
dock_pv.50

> <s_m_Source_Path>
/home/csk/Desktop/cluster/DUD-E-result/def

> <s_m_Source_File>
dock_pv.maegz

> <i_m_Source_File_Index>
50

> <chembl_id>
CHEMBL157091

> <chembl_pref_name>
None

> <i_lp_mmshare_version>
53161

> <i_f3d_flags>
0

> <r_lp_tautomer_probability>
0.99990000499975

> <s_lp_Force_Field>
OPLS_2005

> <r_lp_Energy>
49.445463

> <b_lp_Chiralities_Consistent>
1

> <s_lp_Variant>
CHEMBL1795101_lig30-1

> <s_i_glide_gridfile>
glide-grid_1lru

> <i_i_glide_lignum>
66

> <i_i_glide_rotatable_bonds>
13

> <r_i_docking_score>
-7.27924626841424

> <r_i_glide_ligand_efficiency>
-0.242641542280475

> <r_i_glide_ligand_efficiency_sa>
-0.753943686613898

> <r_i_glide_ligand_efficiency_ln>
-1.65392406592434

> <r_i_glide_gscore>
-7.27924626841424

> <r_i_glide_lipo>
-2.8665772848513

> <r_i_glide_hbond>
-1.15644136218566

> <r_i_glide_metal>
0

> <r_i_glide_rewards>
-0.555251158291877

> <r_i_glide_evdw>
-39.0243186950684

> <r_i_glide_ecoul>
-10.8210515975952

> <r_i_glide_erotb>
0.903154870420059

> <r_i_glide_esite>
-0.0297576591127717

> <r_i_glide_emodel>
-64.9587750423654

> <r_i_glide_energy>
-49.8453702926636

> <r_i_glide_einternal>
12.7165288925171

> <i_i_glide_confnum>
484

> <i_i_glide_posenum>
110

> <r_i_glide_eff_state_penalty>
0

> <s_user_duplicate_titles>
CHEMBL1795101_lig30,261328

> <s_m_subgroup_title>
dock_pv

> <s_m_subgroupid>
dock_pv

> <b_m_subgroup_collapsed>
1

$$$$
CHEMBL1795101_lig137
                    3D
 Schrodinger Suite 2021-1.
 54 56  0  0  1  0            999 V2000
  -33.4450   28.9590   64.9043 C   0  0  0  0  0  0
  -32.6069   28.0243   65.3358 N   0  0  0  0  0  0
  -33.1850   29.7590   64.0151 O   0  0  0  0  0  0
  -32.8744   26.8884   66.2318 C   0  0  0  0  0  0
  -34.3414   26.4153   66.4904 C   0  0  2  0  0  0
  -35.1094   27.3374   67.4602 C   0  0  0  0  0  0
  -34.3198   24.9895   67.1199 C   0  0  0  0  0  0
  -35.5344   24.1227   66.7167 C   0  0  0  0  0  0
  -35.3696   23.4948   65.3281 C   0  0  0  0  0  0
  -34.6472   22.1726   65.6029 C   0  0  0  0  0  0
  -35.1915   21.6875   66.9481 C   0  0  0  0  0  0
  -35.7607   22.9221   67.6563 C   0  0  0  0  0  0
  -34.4980   27.7980   68.4149 O   0  0  0  0  0  0
  -36.4284   27.5763   67.2556 N   0  0  0  0  0  0
  -37.3800   27.6540   68.3229 N   0  0  0  0  0  0
  -38.4299   28.6124   67.9312 C   0  0  0  0  0  0
  -38.3147   28.6153   66.4220 C   0  0  0  0  0  0
  -36.8210   28.5175   66.2065 C   0  0  0  0  0  0
  -37.6063   26.6241   69.1971 C   0  0  0  0  0  0
  -37.0507   25.5301   69.0774 O   0  0  0  0  0  0
  -38.5791   26.8046   70.3508 C   0  0  0  0  0  0
  -39.1799   25.6739   70.9266 C   0  0  0  0  0  0
  -40.0580   25.8038   71.9993 C   0  0  0  0  0  0
  -40.3347   27.0650   72.5164 C   0  0  0  0  0  0
  -39.7350   28.1958   71.9727 C   0  0  0  0  0  0
  -38.8597   28.0658   70.8983 C   0  0  0  0  0  0
  -41.1883   27.1906   73.5568 F   0  0  0  0  0  0
  -31.3017   28.1588   64.8361 O   0  0  0  0  0  0
  -34.4134   28.8989   65.4079 H   0  0  0  0  0  0
  -32.3619   27.0395   67.1822 H   0  0  0  0  0  0
  -32.3850   26.0450   65.7634 H   0  0  0  0  0  0
  -34.8543   26.3739   65.5285 H   0  0  0  0  0  0
  -34.2324   25.0450   68.2083 H   0  0  0  0  0  0
  -33.4170   24.4480   66.8323 H   0  0  0  0  0  0
  -36.4357   24.7369   66.7207 H   0  0  0  0  0  0
  -34.7899   24.1215   64.6510 H   0  0  0  0  0  0
  -36.3470   23.3580   64.8657 H   0  0  0  0  0  0
  -33.5759   22.3501   65.6803 H   0  0  0  0  0  0
  -34.7849   21.4353   64.8150 H   0  0  0  0  0  0
  -34.4162   21.1990   67.5401 H   0  0  0  0  0  0
  -35.9848   20.9586   66.7903 H   0  0  0  0  0  0
  -36.8264   22.7910   67.8529 H   0  0  0  0  0  0
  -35.2872   23.0621   68.6293 H   0  0  0  0  0  0
  -38.1815   29.5954   68.3373 H   0  0  0  0  0  0
  -39.4390   28.3398   68.2461 H   0  0  0  0  0  0
  -38.7666   29.4886   65.9485 H   0  0  0  0  0  0
  -38.8185   27.7373   66.0151 H   0  0  0  0  0  0
  -36.3551   29.4928   66.3737 H   0  0  0  0  0  0
  -36.5575   28.1601   65.2151 H   0  0  0  0  0  0
  -38.9721   24.6838   70.5443 H   0  0  0  0  0  0
  -40.5199   24.9300   72.4341 H   0  0  0  0  0  0
  -39.9373   29.1714   72.3900 H   0  0  0  0  0  0
  -38.3852   28.9586   70.5224 H   0  0  0  0  0  0
  -30.7515   27.6922   65.4845 H   0  0  0  0  0  0
  1  2  1  0  0  0
  1  3  2  0  0  0
  1 29  1  0  0  0
  2  4  1  0  0  0
  2 28  1  0  0  0
  4  5  1  0  0  0
  4 30  1  0  0  0
  4 31  1  0  0  0
  5  6  1  0  0  0
  5  7  1  0  0  0
  5 32  1  0  0  0
  6 13  2  0  0  0
  6 14  1  0  0  0
  7  8  1  0  0  0
  7 33  1  0  0  0
  7 34  1  0  0  0
  8  9  1  0  0  0
  8 12  1  0  0  0
  8 35  1  0  0  0
  9 10  1  0  0  0
  9 36  1  0  0  0
  9 37  1  0  0  0
 10 11  1  0  0  0
 10 38  1  0  0  0
 10 39  1  0  0  0
 11 12  1  0  0  0
 11 40  1  0  0  0
 11 41  1  0  0  0
 12 42  1  0  0  0
 12 43  1  0  0  0
 14 15  1  0  0  0
 14 18  1  0  0  0
 15 16  1  0  0  0
 15 19  1  0  0  0
 16 17  1  0  0  0
 16 44  1  0  0  0
 16 45  1  0  0  0
 17 18  1  0  0  0
 17 46  1  0  0  0
 17 47  1  0  0  0
 18 48  1  0  0  0
 18 49  1  0  0  0
 19 20  2  0  0  0
 19 21  1  0  0  0
 21 22  2  0  0  0
 21 26  1  0  0  0
 22 23  1  0  0  0
 22 50  1  0  0  0
 23 24  2  0  0  0
 23 51  1  0  0  0
 24 25  1  0  0  0
 24 27  1  0  0  0
 25 26  2  0  0  0
 25 52  1  0  0  0
 26 53  1  0  0  0
 28 54  1  0  0  0
M  END
> <s_m_entry_id>
40027

> <s_m_entry_name>
dock_pv.51

> <s_m_Source_Path>
/home/csk/Desktop/cluster/DUD-E-result/def

> <s_m_Source_File>
dock_pv.maegz

> <i_m_Source_File_Index>
51

> <chembl_id>
CHEMBL1796089

> <chembl_pref_name>
None

> <i_lp_mmshare_version>
53161

> <i_f3d_flags>
0

> <r_lp_tautomer_probability>
1

> <s_lp_Force_Field>
OPLS_2005

> <r_lp_Energy>
60.577384

> <b_lp_Chiralities_Consistent>
1

> <s_lp_Variant>
CHEMBL1795101_lig137-1

> <s_i_glide_gridfile>
glide-grid_1lru

> <i_i_glide_lignum>
182

> <i_i_glide_rotatable_bonds>
10

> <r_i_docking_score>
-7.25171112751421

> <r_i_glide_ligand_efficiency>
-0.258989683125508

> <r_i_glide_ligand_efficiency_sa>
-0.786445214734957

> <r_i_glide_ligand_efficiency_ln>
-1.67390784772091

> <r_i_glide_gscore>
-7.25171112751421

> <r_i_glide_lipo>
-2.30786190167407

> <r_i_glide_hbond>
-0.98456276385362

> <r_i_glide_metal>
0

> <r_i_glide_rewards>
-0.736127013301548

> <r_i_glide_evdw>
-28.8754692077637

> <r_i_glide_ecoul>
-17.1394309997559

> <r_i_glide_erotb>
0.891528661666582

> <r_i_glide_esite>
-0.1

> <r_i_glide_emodel>
-57.2762479335417

> <r_i_glide_energy>
-46.0149002075195

> <r_i_glide_einternal>
15.5806674957275

> <i_i_glide_confnum>
225

> <i_i_glide_posenum>
395

> <r_i_glide_eff_state_penalty>
0

> <s_user_duplicate_titles>
CHEMBL1795101_lig137

> <s_m_subgroup_title>
dock_pv

> <s_m_subgroupid>
dock_pv

> <b_m_subgroup_collapsed>
1

$$$$
CHEMBL1795101_lig26
                    3D
 Schrodinger Suite 2021-1.
 60 60  0  0  1  0            999 V2000
  -36.7531   26.3580   67.0214 N   0  0  0  0  0  0
  -35.7040   26.5341   67.8476 C   0  0  0  0  0  0
  -38.2089   26.3427   67.3240 C   0  0  2  0  0  0
  -38.6478   27.5402   68.2028 C   0  0  0  0  0  0
  -34.3023   26.1623   67.3074 C   0  0  1  0  0  0
  -38.7567   24.9065   67.7166 C   0  0  0  0  0  0
  -38.7782   28.9292   67.6337 C   0  0  0  0  0  0
  -33.3867   27.4008   67.1685 C   0  0  0  0  0  0
  -32.6025   28.7272   65.2155 C   0  0  0  0  0  0
  -35.8173   26.9599   68.9928 O   0  0  0  0  0  0
  -38.9422   27.3486   69.3836 O   0  0  0  0  0  0
  -33.5869   28.1434   65.9269 N   0  0  0  0  0  0
  -32.7858   29.4181   64.2185 O   0  0  0  0  0  0
  -39.1643   29.9825   68.4777 C   0  0  0  0  0  0
  -38.5621   29.2052   66.2772 C   0  0  0  0  0  0
  -39.1848   31.5205   66.6093 C   0  0  0  0  0  0
  -38.7854   30.4825   65.7704 C   0  0  0  0  0  0
  -39.3605   31.2646   67.9751 C   0  0  0  0  0  0
  -34.8963   28.5590   65.6483 O   0  0  0  0  0  0
  -33.6162   25.0938   68.2019 C   0  0  0  0  0  0
  -39.3493   32.7575   66.0203 O   0  0  0  0  0  0
  -38.1145   23.8205   66.8163 C   0  0  0  0  0  0
  -40.2958   24.8466   67.5345 C   0  0  0  0  0  0
  -38.4236   24.4909   69.1794 C   0  0  0  0  0  0
  -39.6063   33.8903   66.8431 C   0  0  0  0  0  0
  -34.2870   23.7073   68.2252 C   0  0  0  0  0  0
  -34.3859   23.0704   66.8285 C   0  0  0  0  0  0
  -34.9760   21.6662   66.8517 C   0  0  0  0  0  0
  -36.5320   25.9352   66.1308 H   0  0  0  0  0  0
  -38.6591   26.5111   66.3480 H   0  0  0  0  0  0
  -34.3889   25.7336   66.3097 H   0  0  0  0  0  0
  -33.4653   28.0726   68.0249 H   0  0  0  0  0  0
  -32.3557   27.0507   67.1801 H   0  0  0  0  0  0
  -31.6057   28.4916   65.6261 H   0  0  0  0  0  0
  -39.3160   29.8233   69.5376 H   0  0  0  0  0  0
  -38.2235   28.4482   65.5908 H   0  0  0  0  0  0
  -38.6235   30.6827   64.7204 H   0  0  0  0  0  0
  -39.6474   32.0474   68.6608 H   0  0  0  0  0  0
  -35.2853   27.8029   65.2010 H   0  0  0  0  0  0
  -32.5872   24.9453   67.8670 H   0  0  0  0  0  0
  -33.5282   25.4749   69.2151 H   0  0  0  0  0  0
  -37.1191   23.5673   67.1705 H   0  0  0  0  0  0
  -38.6834   22.8891   66.8151 H   0  0  0  0  0  0
  -37.9854   24.1597   65.7900 H   0  0  0  0  0  0
  -40.8090   25.5978   68.1362 H   0  0  0  0  0  0
  -40.5853   24.9958   66.4930 H   0  0  0  0  0  0
  -40.6951   23.8760   67.8335 H   0  0  0  0  0  0
  -39.0590   24.9799   69.9167 H   0  0  0  0  0  0
  -38.5811   23.4229   69.3362 H   0  0  0  0  0  0
  -37.3878   24.7041   69.4419 H   0  0  0  0  0  0
  -39.6620   34.7816   66.2180 H   0  0  0  0  0  0
  -38.8067   34.0471   67.5697 H   0  0  0  0  0  0
  -40.5566   33.7979   67.3707 H   0  0  0  0  0  0
  -33.7098   23.0510   68.8782 H   0  0  0  0  0  0
  -35.2754   23.7786   68.6797 H   0  0  0  0  0  0
  -35.0113   23.6769   66.1754 H   0  0  0  0  0  0
  -33.4003   23.0412   66.3605 H   0  0  0  0  0  0
  -35.1811   21.3588   65.8278 H   0  0  0  0  0  0
  -34.2820   20.9584   67.3033 H   0  0  0  0  0  0
  -35.9129   21.6179   67.4070 H   0  0  0  0  0  0
  1  2  1  0  0  0
  1  3  1  0  0  0
  1 29  1  0  0  0
  2  5  1  0  0  0
  2 10  2  0  0  0
  3  4  1  0  0  0
  3  6  1  0  0  0
  3 30  1  0  0  0
  4  7  1  0  0  0
  4 11  2  0  0  0
  5  8  1  0  0  0
  5 20  1  0  0  0
  5 31  1  0  0  0
  6 22  1  0  0  0
  6 23  1  0  0  0
  6 24  1  0  0  0
  7 14  2  0  0  0
  7 15  1  0  0  0
  8 12  1  0  0  0
  8 32  1  0  0  0
  8 33  1  0  0  0
  9 12  1  0  0  0
  9 13  2  0  0  0
  9 34  1  0  0  0
 12 19  1  0  0  0
 14 18  1  0  0  0
 14 35  1  0  0  0
 15 17  2  0  0  0
 15 36  1  0  0  0
 16 17  1  0  0  0
 16 21  1  0  0  0
 16 18  2  0  0  0
 17 37  1  0  0  0
 18 38  1  0  0  0
 19 39  1  0  0  0
 20 26  1  0  0  0
 20 40  1  0  0  0
 20 41  1  0  0  0
 21 25  1  0  0  0
 22 42  1  0  0  0
 22 43  1  0  0  0
 22 44  1  0  0  0
 23 45  1  0  0  0
 23 46  1  0  0  0
 23 47  1  0  0  0
 24 48  1  0  0  0
 24 49  1  0  0  0
 24 50  1  0  0  0
 25 51  1  0  0  0
 25 52  1  0  0  0
 25 53  1  0  0  0
 26 27  1  0  0  0
 26 54  1  0  0  0
 26 55  1  0  0  0
 27 28  1  0  0  0
 27 56  1  0  0  0
 27 57  1  0  0  0
 28 58  1  0  0  0
 28 59  1  0  0  0
 28 60  1  0  0  0
M  END
> <s_m_entry_id>
40028

> <s_m_entry_name>
dock_pv.52

> <s_m_Source_Path>
/home/csk/Desktop/cluster/DUD-E-result/def

> <s_m_Source_File>
dock_pv.maegz

> <i_m_Source_File_Index>
52

> <chembl_id>
CHEMBL156033

> <chembl_pref_name>
None

> <i_lp_mmshare_version>
53161

> <i_f3d_flags>
0

> <r_lp_tautomer_probability>
0.99990000499975

> <s_lp_Force_Field>
OPLS_2005

> <r_lp_Energy>
25.782454

> <b_lp_Chiralities_Consistent>
1

> <s_lp_Variant>
CHEMBL1795101_lig26-1

> <s_i_glide_gridfile>
glide-grid_1lru

> <i_i_glide_lignum>
62

> <i_i_glide_rotatable_bonds>
14

> <r_i_docking_score>
-7.23642139880071

> <r_i_glide_ligand_efficiency>
-0.25844362138574

> <r_i_glide_ligand_efficiency_sa>
-0.784787049679856

> <r_i_glide_ligand_efficiency_ln>
-1.67037852940789

> <r_i_glide_gscore>
-7.23642139880071

> <r_i_glide_lipo>
-2.04413137460147

> <r_i_glide_hbond>
-0.890368485036605

> <r_i_glide_metal>
-0.812478134687351

> <r_i_glide_rewards>
-0.706662237092701

> <r_i_glide_evdw>
-43.4588775634766

> <r_i_glide_ecoul>
-11.3854026794434

> <r_i_glide_erotb>
1.14073354166576

> <r_i_glide_esite>
-0.0427604289580014

> <r_i_glide_emodel>
-74.3429588008757

> <r_i_glide_energy>
-54.8442802429199

> <r_i_glide_einternal>
9.8105640411377

> <i_i_glide_confnum>
77

> <i_i_glide_posenum>
108

> <r_i_glide_eff_state_penalty>
0

> <s_user_duplicate_titles>
CHEMBL1795101_lig26,261330

> <s_m_subgroup_title>
dock_pv

> <s_m_subgroupid>
dock_pv

> <b_m_subgroup_collapsed>
1

$$$$
CHEMBL1795101_lig41
                    3D
 Schrodinger Suite 2021-1.
 57 57  0  0  1  0            999 V2000
  -36.9441   26.8542   67.0463 N   0  0  0  0  0  0
  -35.7624   26.6339   67.6507 C   0  0  0  0  0  0
  -38.1425   27.4317   67.6868 C   0  0  2  0  0  0
  -39.2170   26.3953   67.3500 C   0  0  0  0  0  0
  -34.6364   25.9645   66.8283 C   0  0  1  0  0  0
  -39.9852   20.5170   70.9250 N   0  0  0  0  0  0
  -39.8339   21.4890   70.3156 C   0  0  0  0  0  0
  -38.4378   28.9508   67.3339 C   0  0  0  0  0  0
  -39.3306   25.1031   68.1185 C   0  0  0  0  0  0
  -33.4081   26.9088   66.6510 C   0  0  0  0  0  0
  -32.6024   28.7724   65.1853 C   0  0  0  0  0  0
  -35.5495   26.9594   68.8150 O   0  0  0  0  0  0
  -39.9850   26.6201   66.4152 O   0  0  0  0  0  0
  -33.5901   28.0139   65.7032 N   0  0  0  0  0  0
  -32.7849   29.7205   64.4161 O   0  0  0  0  0  0
  -38.5216   24.8231   69.2321 C   0  0  0  0  0  0
  -40.2799   24.1495   67.7192 C   0  0  0  0  0  0
  -39.6440   22.7113   69.5479 C   0  0  0  0  0  0
  -40.4351   22.9603   68.4261 C   0  0  0  0  0  0
  -38.6785   23.6367   69.9429 C   0  0  0  0  0  0
  -34.8724   28.5595   65.6150 O   0  0  0  0  0  0
  -34.2215   24.6115   67.4676 C   0  0  0  0  0  0
  -37.3894   29.8595   68.0121 C   0  0  0  0  0  0
  -39.8121   29.3913   67.9085 C   0  0  0  0  0  0
  -38.4265   29.2809   65.8166 C   0  0  0  0  0  0
  -35.2789   23.4886   67.3028 C   0  0  0  0  0  0
  -34.6885   22.0970   66.9993 C   0  0  0  0  0  0
  -34.0081   22.0067   65.6195 C   0  0  0  0  0  0
  -37.0316   26.6404   66.0621 H   0  0  0  0  0  0
  -38.0309   27.4300   68.7715 H   0  0  0  0  0  0
  -35.0066   25.7402   65.8254 H   0  0  0  0  0  0
  -33.0750   27.2948   67.6166 H   0  0  0  0  0  0
  -32.5743   26.3158   66.2784 H   0  0  0  0  0  0
  -31.6076   28.4179   65.5088 H   0  0  0  0  0  0
  -37.7613   25.5058   69.5803 H   0  0  0  0  0  0
  -40.9142   24.3152   66.8585 H   0  0  0  0  0  0
  -41.1781   22.2465   68.0961 H   0  0  0  0  0  0
  -38.0505   23.4528   70.8046 H   0  0  0  0  0  0
  -35.3225   27.9733   65.0003 H   0  0  0  0  0  0
  -33.2826   24.2942   67.0153 H   0  0  0  0  0  0
  -33.9701   24.7366   68.5231 H   0  0  0  0  0  0
  -36.3789   29.6429   67.6653 H   0  0  0  0  0  0
  -37.5831   30.9139   67.8078 H   0  0  0  0  0  0
  -37.4185   29.7467   69.0958 H   0  0  0  0  0  0
  -40.6440   28.8439   67.4695 H   0  0  0  0  0  0
  -39.8566   29.2630   68.9915 H   0  0  0  0  0  0
  -40.0052   30.4467   67.7070 H   0  0  0  0  0  0
  -39.3236   28.9407   65.3050 H   0  0  0  0  0  0
  -38.4037   30.3585   65.6468 H   0  0  0  0  0  0
  -37.5563   28.8703   65.3077 H   0  0  0  0  0  0
  -35.8830   23.4363   68.2105 H   0  0  0  0  0  0
  -35.9835   23.7361   66.5066 H   0  0  0  0  0  0
  -33.9847   21.8180   67.7836 H   0  0  0  0  0  0
  -35.4893   21.3580   67.0430 H   0  0  0  0  0  0
  -33.5859   21.0193   65.4418 H   0  0  0  0  0  0
  -34.7156   22.2099   64.8143 H   0  0  0  0  0  0
  -33.1886   22.7156   65.5274 H   0  0  0  0  0  0
  1  2  1  0  0  0
  1  3  1  0  0  0
  1 29  1  0  0  0
  2  5  1  0  0  0
  2 12  2  0  0  0
  3  4  1  0  0  0
  3  8  1  0  0  0
  3 30  1  0  0  0
  4  9  1  0  0  0
  4 13  2  0  0  0
  5 10  1  0  0  0
  5 22  1  0  0  0
  5 31  1  0  0  0
  6  7  3  0  0  0
  7 18  1  0  0  0
  8 23  1  0  0  0
  8 24  1  0  0  0
  8 25  1  0  0  0
  9 16  2  0  0  0
  9 17  1  0  0  0
 10 14  1  0  0  0
 10 32  1  0  0  0
 10 33  1  0  0  0
 11 14  1  0  0  0
 11 15  2  0  0  0
 11 34  1  0  0  0
 14 21  1  0  0  0
 16 20  1  0  0  0
 16 35  1  0  0  0
 17 19  2  0  0  0
 17 36  1  0  0  0
 18 19  1  0  0  0
 18 20  2  0  0  0
 19 37  1  0  0  0
 20 38  1  0  0  0
 21 39  1  0  0  0
 22 26  1  0  0  0
 22 40  1  0  0  0
 22 41  1  0  0  0
 23 42  1  0  0  0
 23 43  1  0  0  0
 23 44  1  0  0  0
 24 45  1  0  0  0
 24 46  1  0  0  0
 24 47  1  0  0  0
 25 48  1  0  0  0
 25 49  1  0  0  0
 25 50  1  0  0  0
 26 27  1  0  0  0
 26 51  1  0  0  0
 26 52  1  0  0  0
 27 28  1  0  0  0
 27 53  1  0  0  0
 27 54  1  0  0  0
 28 55  1  0  0  0
 28 56  1  0  0  0
 28 57  1  0  0  0
M  END
> <s_m_entry_id>
40029

> <s_m_entry_name>
dock_pv.53

> <s_m_Source_Path>
/home/csk/Desktop/cluster/DUD-E-result/def

> <s_m_Source_File>
dock_pv.maegz

> <i_m_Source_File_Index>
53

> <chembl_id>
CHEMBL422175

> <chembl_pref_name>
None

> <i_lp_mmshare_version>
53161

> <i_f3d_flags>
0

> <r_lp_tautomer_probability>
0.99990000499975

> <s_lp_Force_Field>
OPLS_2005

> <r_lp_Energy>
26.426261

> <b_lp_Chiralities_Consistent>
1

> <s_lp_Variant>
CHEMBL1795101_lig41-1

> <s_i_glide_gridfile>
glide-grid_1lru

> <i_i_glide_lignum>
77

> <i_i_glide_rotatable_bonds>
13

> <r_i_docking_score>
-7.19264592129638

> <r_i_glide_ligand_efficiency>
-0.256880211474871

> <r_i_glide_ligand_efficiency_sa>
-0.780039616391263

> <r_i_glide_ligand_efficiency_ln>
-1.66027386389603

> <r_i_glide_gscore>
-7.19264592129638

> <r_i_glide_lipo>
-2.13335255826874

> <r_i_glide_hbond>
-1.15968724839082

> <r_i_glide_metal>
0

> <r_i_glide_rewards>
-0.735916947426147

> <r_i_glide_evdw>
-41.9535827636719

> <r_i_glide_ecoul>
-14.6863031387329

> <r_i_glide_erotb>
1.16739348802975

> <r_i_glide_esite>
-0.0304580462468923

> <r_i_glide_emodel>
-73.8555281147351

> <r_i_glide_energy>
-56.6398859024048

> <r_i_glide_einternal>
14.1362495422363

> <i_i_glide_confnum>
146

> <i_i_glide_posenum>
400

> <r_i_glide_eff_state_penalty>
0

> <s_user_duplicate_titles>
CHEMBL1795101_lig41,261464

> <s_m_subgroup_title>
dock_pv

> <s_m_subgroupid>
dock_pv

> <b_m_subgroup_collapsed>
1

$$$$
CHEMBL1795101_lig81
                    3D
 Schrodinger Suite 2021-1.
 54 53  0  0  1  0            999 V2000
  -35.4961   26.4385   67.3908 C   0  0  0  0  0  0
  -38.6793   25.5385   67.7863 C   0  0  0  0  0  0
  -37.9188   26.8910   67.6840 C   0  0  1  0  0  0
  -36.7165   26.6562   66.8793 N   0  0  0  0  0  0
  -34.4005   25.9872   66.4065 C   0  0  1  0  0  0
  -38.5666   24.7536   68.8936 N   0  0  0  0  0  0
  -33.0918   26.7991   66.5549 C   0  0  0  0  0  0
  -32.6978   29.0088   65.4246 C   0  0  0  0  0  0
  -39.3710   25.2117   66.8150 O   0  0  0  0  0  0
  -35.2362   26.5582   68.5898 O   0  0  0  0  0  0
  -38.7763   28.0019   67.0150 C   0  0  0  0  0  0
  -33.1847   28.2517   66.4155 N   0  0  0  0  0  0
  -32.1767   28.5592   64.4151 O   0  0  0  0  0  0
  -33.5850   28.9574   67.5490 O   0  0  0  0  0  0
  -34.0699   24.4809   66.5732 C   0  0  0  0  0  0
  -38.1146   29.3991   66.9155 C   0  0  0  0  0  0
  -37.7025   24.9930   70.0552 C   0  0  0  0  0  0
  -39.2655   23.4662   68.9824 C   0  0  0  0  0  0
  -35.2014   23.4957   66.2139 C   0  0  0  0  0  0
  -34.7704   22.0222   66.3397 C   0  0  0  0  0  0
  -38.0359   30.1027   68.2870 C   0  0  0  0  0  0
  -38.7975   30.2827   65.8498 C   0  0  0  0  0  0
  -34.4235   21.5989   67.7701 C   0  0  0  0  0  0
  -37.6634   27.2620   68.6720 H   0  0  0  0  0  0
  -36.8571   26.5581   65.8803 H   0  0  0  0  0  0
  -34.7781   26.1560   65.3950 H   0  0  0  0  0  0
  -32.6153   26.5783   67.5130 H   0  0  0  0  0  0
  -32.3851   26.4233   65.8173 H   0  0  0  0  0  0
  -32.7850   30.0856   65.6378 H   0  0  0  0  0  0
  -39.0401   27.6693   66.0150 H   0  0  0  0  0  0
  -39.7281   28.1040   67.5394 H   0  0  0  0  0  0
  -32.7337   29.0848   67.9968 H   0  0  0  0  0  0
  -33.7478   24.3129   67.6024 H   0  0  0  0  0  0
  -33.2016   24.2286   65.9642 H   0  0  0  0  0  0
  -37.0882   29.2549   66.5766 H   0  0  0  0  0  0
  -37.1908   25.9507   70.0750 H   0  0  0  0  0  0
  -38.2904   24.9361   70.9724 H   0  0  0  0  0  0
  -36.9312   24.2229   70.1078 H   0  0  0  0  0  0
  -39.9762   23.3061   68.1713 H   0  0  0  0  0  0
  -38.5495   22.6442   68.9656 H   0  0  0  0  0  0
  -39.8267   23.4049   69.9162 H   0  0  0  0  0  0
  -35.5296   23.6817   65.1900 H   0  0  0  0  0  0
  -36.0729   23.6717   66.8469 H   0  0  0  0  0  0
  -33.9318   21.8166   65.6725 H   0  0  0  0  0  0
  -35.5852   21.3816   66.0114 H   0  0  0  0  0  0
  -38.1693   29.4160   69.1201 H   0  0  0  0  0  0
  -37.0626   30.5719   68.4200 H   0  0  0  0  0  0
  -38.7848   30.8848   68.3997 H   0  0  0  0  0  0
  -39.0442   31.2755   66.2236 H   0  0  0  0  0  0
  -38.1380   30.4296   64.9932 H   0  0  0  0  0  0
  -39.7197   29.8432   65.4739 H   0  0  0  0  0  0
  -34.1633   20.5423   67.8233 H   0  0  0  0  0  0
  -35.2812   21.7642   68.4148 H   0  0  0  0  0  0
  -33.5869   22.1662   68.1716 H   0  0  0  0  0  0
  1  4  1  0  0  0
  1  5  1  0  0  0
  1 10  2  0  0  0
  2  3  1  0  0  0
  2  6  1  0  0  0
  2  9  2  0  0  0
  3  4  1  0  0  0
  3 11  1  0  0  0
  3 24  1  0  0  0
  4 25  1  0  0  0
  5  7  1  0  0  0
  5 15  1  0  0  0
  5 26  1  0  0  0
  6 17  1  0  0  0
  6 18  1  0  0  0
  7 12  1  0  0  0
  7 27  1  0  0  0
  7 28  1  0  0  0
  8 12  1  0  0  0
  8 13  2  0  0  0
  8 29  1  0  0  0
 11 16  1  0  0  0
 11 30  1  0  0  0
 11 31  1  0  0  0
 12 14  1  0  0  0
 14 32  1  0  0  0
 15 19  1  0  0  0
 15 33  1  0  0  0
 15 34  1  0  0  0
 16 21  1  0  0  0
 16 22  1  0  0  0
 16 35  1  0  0  0
 17 36  1  0  0  0
 17 37  1  0  0  0
 17 38  1  0  0  0
 18 39  1  0  0  0
 18 40  1  0  0  0
 18 41  1  0  0  0
 19 20  1  0  0  0
 19 42  1  0  0  0
 19 43  1  0  0  0
 20 23  1  0  0  0
 20 44  1  0  0  0
 20 45  1  0  0  0
 21 46  1  0  0  0
 21 47  1  0  0  0
 21 48  1  0  0  0
 22 49  1  0  0  0
 22 50  1  0  0  0
 22 51  1  0  0  0
 23 52  1  0  0  0
 23 53  1  0  0  0
 23 54  1  0  0  0
M  END
> <s_m_entry_id>
40030

> <s_m_entry_name>
dock_pv.54

> <s_m_Source_Path>
/home/csk/Desktop/cluster/DUD-E-result/def

> <s_m_Source_File>
dock_pv.maegz

> <i_m_Source_File_Index>
54

> <chembl_id>
CHEMBL88281

> <chembl_pref_name>
None

> <i_lp_mmshare_version>
53161

> <i_f3d_flags>
0

> <r_lp_tautomer_probability>
1

> <s_lp_Force_Field>
OPLS_2005

> <r_lp_Energy>
20.647116

> <b_lp_Chiralities_Consistent>
1

> <s_lp_Variant>
CHEMBL1795101_lig81-1

> <s_i_glide_gridfile>
glide-grid_1lru

> <i_i_glide_lignum>
120

> <i_i_glide_rotatable_bonds>
14

> <r_i_docking_score>
-7.19084838089086

> <r_i_glide_ligand_efficiency>
-0.312645581777863

> <r_i_glide_ligand_efficiency_sa>
-0.889122445485268

> <r_i_glide_ligand_efficiency_ln>
-1.73881234150759

> <r_i_glide_gscore>
-7.19084838089086

> <r_i_glide_lipo>
-2.06672506870083

> <r_i_glide_hbond>
-1.19921208688115

> <r_i_glide_metal>
-2.3

> <r_i_glide_rewards>
0.308049856712316

> <r_i_glide_evdw>
-35.421142578125

> <r_i_glide_ecoul>
-11.1035213470459

> <r_i_glide_erotb>
1.5586238775871

> <r_i_glide_esite>
-0.0549996286451593

> <r_i_glide_emodel>
-59.3843408900827

> <r_i_glide_energy>
-46.5246639251709

> <r_i_glide_einternal>
9.24912357330322

> <i_i_glide_confnum>
126

> <i_i_glide_posenum>
356

> <r_i_glide_eff_state_penalty>
0

> <s_user_duplicate_titles>
CHEMBL1795101_lig81,147934

> <s_m_subgroup_title>
dock_pv

> <s_m_subgroupid>
dock_pv

> <b_m_subgroup_collapsed>
1

$$$$
CHEMBL1795101_lig79
                    3D
 Schrodinger Suite 2021-1.
 56 55  0  0  1  0            999 V2000
  -35.6104   26.5037   67.6838 C   0  0  0  0  0  0
  -38.6380   25.1290   68.0382 C   0  0  0  0  0  0
  -36.8159   26.4323   67.0989 N   0  0  0  0  0  0
  -34.4065   25.9497   66.8899 C   0  0  1  0  0  0
  -38.0902   26.5647   67.8110 C   0  0  1  0  0  0
  -38.5780   24.5486   69.2678 N   0  0  0  0  0  0
  -33.2563   26.9911   66.7466 C   0  0  0  0  0  0
  -32.5542   28.8460   65.2116 C   0  0  0  0  0  0
  -39.1258   24.5588   67.0549 O   0  0  0  0  0  0
  -35.4392   26.9592   68.8149 O   0  0  0  0  0  0
  -33.5014   28.1298   65.8501 N   0  0  0  0  0  0
  -32.7850   29.7590   64.4150 O   0  0  0  0  0  0
  -34.8244   28.5590   65.6800 O   0  0  0  0  0  0
  -40.7607   31.7290   65.2152 N   0  0  0  0  0  0
  -33.9140   24.6241   67.5567 C   0  0  0  0  0  0
  -39.0876   27.4103   66.9773 C   0  0  0  0  0  0
  -39.1578   23.2237   69.5120 C   0  0  0  0  0  0
  -37.8806   25.0788   70.4439 C   0  0  0  0  0  0
  -39.7192   31.1370   66.0335 C   0  0  0  0  0  0
  -33.9593   23.3821   66.6394 C   0  0  0  0  0  0
  -38.7063   28.8869   66.7566 C   0  0  0  0  0  0
  -39.7309   29.6127   65.8637 C   0  0  0  0  0  0
  -35.3414   22.9719   66.0953 C   0  0  0  0  0  0
  -36.2862   22.4209   67.1738 C   0  0  0  0  0  0
  -36.8765   26.1049   66.1440 H   0  0  0  0  0  0
  -34.7378   25.7295   65.8737 H   0  0  0  0  0  0
  -37.9643   27.1015   68.7489 H   0  0  0  0  0  0
  -32.9440   27.3566   67.7253 H   0  0  0  0  0  0
  -32.3860   26.4649   66.3565 H   0  0  0  0  0  0
  -31.5404   28.4958   65.4740 H   0  0  0  0  0  0
  -35.0599   28.8991   66.5472 H   0  0  0  0  0  0
  -40.9896   32.6400   65.5890 H   0  0  0  0  0  0
  -40.3852   31.9448   64.2922 H   0  0  0  0  0  0
  -34.4582   24.3878   68.4744 H   0  0  0  0  0  0
  -32.8855   24.7451   67.9039 H   0  0  0  0  0  0
  -39.2418   26.9329   66.0151 H   0  0  0  0  0  0
  -40.0619   27.3869   67.4690 H   0  0  0  0  0  0
  -39.8446   23.2636   70.3584 H   0  0  0  0  0  0
  -39.7145   22.8321   68.6587 H   0  0  0  0  0  0
  -38.3730   22.5052   69.7509 H   0  0  0  0  0  0
  -37.3091   25.9875   70.2741 H   0  0  0  0  0  0
  -38.5930   25.2790   71.2448 H   0  0  0  0  0  0
  -37.1693   24.3400   70.8146 H   0  0  0  0  0  0
  -39.9012   31.3996   67.0763 H   0  0  0  0  0  0
  -38.7555   31.5603   65.7534 H   0  0  0  0  0  0
  -33.5774   22.5336   67.2024 H   0  0  0  0  0  0
  -33.2726   23.5301   65.8054 H   0  0  0  0  0  0
  -38.6456   29.3803   67.7277 H   0  0  0  0  0  0
  -37.7147   28.9677   66.3094 H   0  0  0  0  0  0
  -39.5493   29.3591   64.8183 H   0  0  0  0  0  0
  -40.7331   29.2531   66.0982 H   0  0  0  0  0  0
  -35.1850   22.2015   65.3383 H   0  0  0  0  0  0
  -35.8211   23.8002   65.5739 H   0  0  0  0  0  0
  -37.2671   22.1901   66.7572 H   0  0  0  0  0  0
  -36.4338   23.1395   67.9785 H   0  0  0  0  0  0
  -35.8902   21.5057   67.6149 H   0  0  0  0  0  0
  1  3  1  0  0  0
  1  4  1  0  0  0
  1 10  2  0  0  0
  2  5  1  0  0  0
  2  6  1  0  0  0
  2  9  2  0  0  0
  3  5  1  0  0  0
  3 25  1  0  0  0
  4  7  1  0  0  0
  4 15  1  0  0  0
  4 26  1  0  0  0
  5 16  1  0  0  0
  5 27  1  0  0  0
  6 17  1  0  0  0
  6 18  1  0  0  0
  7 11  1  0  0  0
  7 28  1  0  0  0
  7 29  1  0  0  0
  8 11  1  0  0  0
  8 12  2  0  0  0
  8 30  1  0  0  0
 11 13  1  0  0  0
 13 31  1  0  0  0
 14 19  1  0  0  0
 14 32  1  0  0  0
 14 33  1  0  0  0
 15 20  1  0  0  0
 15 34  1  0  0  0
 15 35  1  0  0  0
 16 21  1  0  0  0
 16 36  1  0  0  0
 16 37  1  0  0  0
 17 38  1  0  0  0
 17 39  1  0  0  0
 17 40  1  0  0  0
 18 41  1  0  0  0
 18 42  1  0  0  0
 18 43  1  0  0  0
 19 22  1  0  0  0
 19 44  1  0  0  0
 19 45  1  0  0  0
 20 23  1  0  0  0
 20 46  1  0  0  0
 20 47  1  0  0  0
 21 22  1  0  0  0
 21 48  1  0  0  0
 21 49  1  0  0  0
 22 50  1  0  0  0
 22 51  1  0  0  0
 23 24  1  0  0  0
 23 52  1  0  0  0
 23 53  1  0  0  0
 24 54  1  0  0  0
 24 55  1  0  0  0
 24 56  1  0  0  0
M  END
> <s_m_entry_id>
40031

> <s_m_entry_name>
dock_pv.55

> <s_m_Source_Path>
/home/csk/Desktop/cluster/DUD-E-result/def

> <s_m_Source_File>
dock_pv.maegz

> <i_m_Source_File_Index>
55

> <chembl_id>
CHEMBL88543

> <chembl_pref_name>
None

> <i_lp_mmshare_version>
53161

> <i_f3d_flags>
0

> <r_lp_tautomer_probability>
1

> <s_lp_Force_Field>
OPLS_2005

> <r_lp_Energy>
12.713689

> <b_lp_Chiralities_Consistent>
1

> <s_lp_Variant>
CHEMBL1795101_lig79-1

> <s_i_glide_gridfile>
glide-grid_1lru

> <i_i_glide_lignum>
118

> <i_i_glide_rotatable_bonds>
16

> <r_i_docking_score>
-7.17400138293222

> <r_i_glide_ligand_efficiency>
-0.298916724288843

> <r_i_glide_ligand_efficiency_sa>
-0.862225033413163

> <r_i_glide_ligand_efficiency_ln>
-1.71706772440861

> <r_i_glide_gscore>
-7.17400138293222

> <r_i_glide_lipo>
-1.86167026689656

> <r_i_glide_hbond>
-1.54591350104766

> <r_i_glide_metal>
0

> <r_i_glide_rewards>
-1.03267268260095

> <r_i_glide_evdw>
-35.7541618347168

> <r_i_glide_ecoul>
-17.8465023040771

> <r_i_glide_erotb>
1.76039605258639

> <r_i_glide_esite>
-0.0294575476260244

> <r_i_glide_emodel>
-67.9892884353569

> <r_i_glide_energy>
-53.6006641387939

> <r_i_glide_einternal>
15.3352670669556

> <i_i_glide_confnum>
491

> <i_i_glide_posenum>
288

> <r_i_glide_eff_state_penalty>
0

> <s_user_duplicate_titles>
CHEMBL1795101_lig79,148017

> <s_m_subgroup_title>
dock_pv

> <s_m_subgroupid>
dock_pv

> <b_m_subgroup_collapsed>
1

$$$$
CHEMBL1795101_lig87
                    3D
 Schrodinger Suite 2021-1.
 58 57  0  0  1  0            999 V2000
  -35.4796   26.4013   67.7369 C   0  0  0  0  0  0
  -38.9741   25.3585   67.7269 C   0  0  0  0  0  0
  -36.7025   26.2211   67.2231 N   0  0  0  0  0  0
  -34.2971   25.8436   66.9229 C   0  0  1  0  0  0
  -40.3048   31.4606   69.1587 C   0  0  0  0  0  0
  -37.9636   26.5274   67.9057 C   0  0  1  0  0  0
  -40.0337   25.2499   68.5721 N   0  0  0  0  0  0
  -41.1804   31.4106   70.2557 N   0  0  0  0  0  0
  -33.2222   26.9274   66.6459 C   0  0  0  0  0  0
  -32.5737   28.8011   65.1620 C   0  0  0  0  0  0
  -38.7844   24.5626   66.8020 O   0  0  0  0  0  0
  -35.2753   26.9611   68.8133 O   0  0  0  0  0  0
  -33.5250   27.9951   65.6831 N   0  0  0  0  0  0
  -32.7851   29.7592   64.4159 O   0  0  0  0  0  0
  -39.8950   30.4056   68.5788 N   0  0  0  0  0  0
  -39.9876   32.7924   68.8151 N   0  0  0  0  0  0
  -34.8346   28.4959   65.6524 O   0  0  0  0  0  0
  -33.6516   24.6297   67.6593 C   0  0  0  0  0  0
  -38.5562   27.8791   67.4279 C   0  0  0  0  0  0
  -40.2775   26.1043   69.7402 C   0  0  0  0  0  0
  -41.0030   24.1558   68.4469 C   0  0  0  0  0  0
  -38.6553   30.4342   67.8114 C   0  0  0  0  0  0
  -34.5709   23.4125   67.9314 C   0  0  0  0  0  0
  -37.8689   29.1245   68.0339 C   0  0  0  0  0  0
  -35.2463   22.7966   66.6877 C   0  0  0  0  0  0
  -34.2608   22.3025   65.6187 C   0  0  0  0  0  0
  -36.8051   25.7403   66.3396 H   0  0  0  0  0  0
  -34.6592   25.4965   65.9531 H   0  0  0  0  0  0
  -37.7485   26.5681   68.9739 H   0  0  0  0  0  0
  -41.2660   30.5184   70.7149 H   0  0  0  0  0  0
  -41.0792   32.1377   70.9521 H   0  0  0  0  0  0
  -32.8611   27.3582   67.5833 H   0  0  0  0  0  0
  -32.3852   26.3898   66.2221 H   0  0  0  0  0  0
  -31.5631   28.4760   65.4679 H   0  0  0  0  0  0
  -39.2146   32.9280   68.1815 H   0  0  0  0  0  0
  -39.9162   33.4544   69.5748 H   0  0  0  0  0  0
  -35.2977   27.8845   65.0725 H   0  0  0  0  0  0
  -33.2329   24.9641   68.6115 H   0  0  0  0  0  0
  -32.7883   24.2817   67.0905 H   0  0  0  0  0  0
  -38.4813   27.9380   66.3409 H   0  0  0  0  0  0
  -39.6217   27.9272   67.6587 H   0  0  0  0  0  0
  -40.1046   25.5400   70.6583 H   0  0  0  0  0  0
  -39.6564   26.9984   69.7817 H   0  0  0  0  0  0
  -41.3140   26.4406   69.7496 H   0  0  0  0  0  0
  -42.0133   24.5555   68.3843 H   0  0  0  0  0  0
  -40.8432   23.5352   67.5624 H   0  0  0  0  0  0
  -40.9520   23.5067   69.3219 H   0  0  0  0  0  0
  -38.0066   31.2742   68.0781 H   0  0  0  0  0  0
  -38.8816   30.5426   66.7495 H   0  0  0  0  0  0
  -35.3433   23.6940   68.6485 H   0  0  0  0  0  0
  -33.9847   22.6406   68.4339 H   0  0  0  0  0  0
  -37.7067   28.9854   69.1051 H   0  0  0  0  0  0
  -36.8733   29.2286   67.5984 H   0  0  0  0  0  0
  -35.9375   23.5129   66.2420 H   0  0  0  0  0  0
  -35.8681   21.9579   67.0061 H   0  0  0  0  0  0
  -34.7854   21.8400   64.7869 H   0  0  0  0  0  0
  -33.5850   21.5512   66.0168 H   0  0  0  0  0  0
  -33.6640   23.1178   65.2118 H   0  0  0  0  0  0
  1  3  1  0  0  0
  1  4  1  0  0  0
  1 12  2  0  0  0
  2  6  1  0  0  0
  2  7  1  0  0  0
  2 11  2  0  0  0
  3  6  1  0  0  0
  3 27  1  0  0  0
  4  9  1  0  0  0
  4 18  1  0  0  0
  4 28  1  0  0  0
  5 15  2  0  0  0
  5  8  1  0  0  0
  5 16  1  0  0  0
  6 19  1  0  0  0
  6 29  1  0  0  0
  7 20  1  0  0  0
  7 21  1  0  0  0
  8 30  1  0  0  0
  8 31  1  0  0  0
  9 13  1  0  0  0
  9 32  1  0  0  0
  9 33  1  0  0  0
 10 13  1  0  0  0
 10 14  2  0  0  0
 10 34  1  0  0  0
 13 17  1  0  0  0
 15 22  1  0  0  0
 16 35  1  0  0  0
 16 36  1  0  0  0
 17 37  1  0  0  0
 18 23  1  0  0  0
 18 38  1  0  0  0
 18 39  1  0  0  0
 19 24  1  0  0  0
 19 40  1  0  0  0
 19 41  1  0  0  0
 20 42  1  0  0  0
 20 43  1  0  0  0
 20 44  1  0  0  0
 21 45  1  0  0  0
 21 46  1  0  0  0
 21 47  1  0  0  0
 22 24  1  0  0  0
 22 48  1  0  0  0
 22 49  1  0  0  0
 23 25  1  0  0  0
 23 50  1  0  0  0
 23 51  1  0  0  0
 24 52  1  0  0  0
 24 53  1  0  0  0
 25 26  1  0  0  0
 25 54  1  0  0  0
 25 55  1  0  0  0
 26 56  1  0  0  0
 26 57  1  0  0  0
 26 58  1  0  0  0
M  END
> <s_m_entry_id>
40032

> <s_m_entry_name>
dock_pv.56

> <s_m_Source_Path>
/home/csk/Desktop/cluster/DUD-E-result/def

> <s_m_Source_File>
dock_pv.maegz

> <i_m_Source_File_Index>
56

> <chembl_id>
CHEMBL92844

> <chembl_pref_name>
None

> <i_lp_mmshare_version>
53161

> <i_f3d_flags>
0

> <r_lp_tautomer_probability>
1

> <s_lp_Force_Field>
OPLS_2005

> <r_lp_Energy>
15.511284

> <b_lp_Chiralities_Consistent>
1

> <s_lp_Variant>
CHEMBL1795101_lig87-1

> <s_i_glide_gridfile>
glide-grid_1lru

> <i_i_glide_lignum>
127

> <i_i_glide_rotatable_bonds>
16

> <r_i_docking_score>
-7.14309274459657

> <r_i_glide_ligand_efficiency>
-0.274734336330637

> <r_i_glide_ligand_efficiency_sa>
-0.8138993903521

> <r_i_glide_ligand_efficiency_ln>
-1.67753189266949

> <r_i_glide_gscore>
-7.14309274459657

> <r_i_glide_lipo>
-1.61457343057087

> <r_i_glide_hbond>
-1.27468566794431

> <r_i_glide_metal>
0

> <r_i_glide_rewards>
-0.829986021685118

> <r_i_glide_evdw>
-39.9392127990723

> <r_i_glide_ecoul>
-19.9368743896484

> <r_i_glide_erotb>
1.6706913473183

> <r_i_glide_esite>
-0.107047173313691

> <r_i_glide_emodel>
-78.3144183123255

> <r_i_glide_energy>
-59.8760871887207

> <r_i_glide_einternal>
14.3290042877197

> <i_i_glide_confnum>
428

> <i_i_glide_posenum>
133

> <r_i_glide_eff_state_penalty>
0

> <s_user_duplicate_titles>
CHEMBL1795101_lig87,148786

> <s_m_subgroup_title>
dock_pv

> <s_m_subgroupid>
dock_pv

> <b_m_subgroup_collapsed>
1

$$$$
CHEMBL1795101_lig88
                    3D
 Schrodinger Suite 2021-1.
 56 56  0  0  1  0            999 V2000
  -35.8970   27.1531   67.4529 C   0  0  0  0  0  0
  -38.0441   29.7579   67.6126 C   0  0  0  0  0  0
  -38.2083   28.2343   67.3595 C   0  0  1  0  0  0
  -37.0130   27.5565   66.8151 N   0  0  0  0  0  0
  -34.8952   26.3289   66.6126 C   0  0  1  0  0  0
  -39.0968   30.6002   67.4241 N   0  0  0  0  0  0
  -33.4246   26.8220   66.7488 C   0  0  0  0  0  0
  -38.7597   27.5109   68.6202 C   0  0  0  0  0  0
  -32.5076   28.5996   65.2148 C   0  0  0  0  0  0
  -36.9562   30.1589   68.0126 O   0  0  0  0  0  0
  -35.6736   27.3546   68.6469 O   0  0  0  0  0  0
  -33.1859   28.2017   66.3138 N   0  0  0  0  0  0
  -32.3850   29.7586   64.8207 O   0  0  0  0  0  0
  -39.0941   26.0463   68.4051 C   0  0  0  0  0  0
  -39.7002   23.3450   67.8969 C   0  0  0  0  0  0
  -33.5850   29.2044   67.2057 O   0  0  0  0  0  0
  -40.2213   25.7093   67.6346 C   0  0  0  0  0  0
  -38.2753   25.0272   68.9368 C   0  0  0  0  0  0
  -38.5763   23.6748   68.6789 C   0  0  0  0  0  0
  -40.5283   24.3619   67.3869 C   0  0  0  0  0  0
  -39.9845   22.0433   67.6151 O   0  0  0  0  0  0
  -35.0615   24.8193   66.9420 C   0  0  0  0  0  0
  -40.4310   30.2190   66.9538 C   0  0  0  0  0  0
  -38.9648   32.0477   67.6287 C   0  0  0  0  0  0
  -34.2373   23.8698   66.0436 C   0  0  0  0  0  0
  -34.5861   22.3774   66.1932 C   0  0  0  0  0  0
  -34.5128   21.8534   67.6329 C   0  0  0  0  0  0
  -38.9145   28.1101   66.5413 H   0  0  0  0  0  0
  -37.0661   27.3434   65.8289 H   0  0  0  0  0  0
  -35.1719   26.4672   65.5682 H   0  0  0  0  0  0
  -33.0733   26.7009   67.7747 H   0  0  0  0  0  0
  -32.7847   26.1601   66.1693 H   0  0  0  0  0  0
  -38.0641   27.6035   69.4564 H   0  0  0  0  0  0
  -39.6700   28.0035   68.9650 H   0  0  0  0  0  0
  -32.0506   27.7483   64.6958 H   0  0  0  0  0  0
  -32.7434   29.4486   67.6156 H   0  0  0  0  0  0
  -40.8455   26.4868   67.2247 H   0  0  0  0  0  0
  -37.4042   25.2801   69.5241 H   0  0  0  0  0  0
  -37.9403   22.8947   69.0701 H   0  0  0  0  0  0
  -41.4012   24.1133   66.8039 H   0  0  0  0  0  0
  -40.6451   21.9641   66.9138 H   0  0  0  0  0  0
  -36.1139   24.5422   66.8426 H   0  0  0  0  0  0
  -34.8014   24.6440   67.9881 H   0  0  0  0  0  0
  -40.6266   29.1502   66.9831 H   0  0  0  0  0  0
  -41.1891   30.6930   67.5772 H   0  0  0  0  0  0
  -40.5796   30.5689   65.9310 H   0  0  0  0  0  0
  -37.9855   32.3435   68.0091 H   0  0  0  0  0  0
  -39.1240   32.5774   66.6893 H   0  0  0  0  0  0
  -39.7067   32.4018   68.3452 H   0  0  0  0  0  0
  -33.1746   23.9926   66.2515 H   0  0  0  0  0  0
  -34.3839   24.1509   65.0001 H   0  0  0  0  0  0
  -33.9143   21.7922   65.5631 H   0  0  0  0  0  0
  -35.5850   22.1987   65.8042 H   0  0  0  0  0  0
  -34.5620   20.7654   67.6567 H   0  0  0  0  0  0
  -35.3362   22.2374   68.2368 H   0  0  0  0  0  0
  -33.5852   22.1587   68.1121 H   0  0  0  0  0  0
  1  4  1  0  0  0
  1  5  1  0  0  0
  1 11  2  0  0  0
  2  3  1  0  0  0
  2  6  1  0  0  0
  2 10  2  0  0  0
  3  4  1  0  0  0
  3  8  1  0  0  0
  3 28  1  0  0  0
  4 29  1  0  0  0
  5  7  1  0  0  0
  5 22  1  0  0  0
  5 30  1  0  0  0
  6 23  1  0  0  0
  6 24  1  0  0  0
  7 12  1  0  0  0
  7 31  1  0  0  0
  7 32  1  0  0  0
  8 14  1  0  0  0
  8 33  1  0  0  0
  8 34  1  0  0  0
  9 12  1  0  0  0
  9 13  2  0  0  0
  9 35  1  0  0  0
 12 16  1  0  0  0
 14 17  2  0  0  0
 14 18  1  0  0  0
 15 19  1  0  0  0
 15 21  1  0  0  0
 15 20  2  0  0  0
 16 36  1  0  0  0
 17 20  1  0  0  0
 17 37  1  0  0  0
 18 19  2  0  0  0
 18 38  1  0  0  0
 19 39  1  0  0  0
 20 40  1  0  0  0
 21 41  1  0  0  0
 22 25  1  0  0  0
 22 42  1  0  0  0
 22 43  1  0  0  0
 23 44  1  0  0  0
 23 45  1  0  0  0
 23 46  1  0  0  0
 24 47  1  0  0  0
 24 48  1  0  0  0
 24 49  1  0  0  0
 25 26  1  0  0  0
 25 50  1  0  0  0
 25 51  1  0  0  0
 26 27  1  0  0  0
 26 52  1  0  0  0
 26 53  1  0  0  0
 27 54  1  0  0  0
 27 55  1  0  0  0
 27 56  1  0  0  0
M  END
> <s_m_entry_id>
40033

> <s_m_entry_name>
dock_pv.57

> <s_m_Source_Path>
/home/csk/Desktop/cluster/DUD-E-result/def

> <s_m_Source_File>
dock_pv.maegz

> <i_m_Source_File_Index>
57

> <chembl_id>
CHEMBL327892

> <chembl_pref_name>
None

> <i_lp_mmshare_version>
53161

> <i_f3d_flags>
0

> <r_lp_tautomer_probability>
0.999999999997365

> <s_lp_Force_Field>
OPLS_2005

> <r_lp_Energy>
19.659016

> <b_lp_Chiralities_Consistent>
1

> <s_lp_Variant>
CHEMBL1795101_lig88-1

> <s_i_glide_gridfile>
glide-grid_1lru

> <i_i_glide_lignum>
128

> <i_i_glide_rotatable_bonds>
15

> <r_i_docking_score>
-7.12352015778063

> <r_i_glide_ligand_efficiency>
-0.263834079917801

> <r_i_glide_ligand_efficiency_sa>
-0.79150223888385

> <r_i_glide_ligand_efficiency_ln>
-1.65823805232306

> <r_i_glide_gscore>
-7.12352015778063

> <r_i_glide_lipo>
-1.96273744746079

> <r_i_glide_hbond>
-1.19823304035582

> <r_i_glide_metal>
0

> <r_i_glide_rewards>
-0.813132911166128

> <r_i_glide_evdw>
-39.4848442077637

> <r_i_glide_ecoul>
-16.2351093292236

> <r_i_glide_erotb>
1.34668756822382

> <r_i_glide_esite>
-0.0865957172499861

> <r_i_glide_emodel>
-72.9853734304786

> <r_i_glide_energy>
-55.7199535369873

> <r_i_glide_einternal>
13.9290580749512

> <i_i_glide_confnum>
58

> <i_i_glide_posenum>
340

> <r_i_glide_eff_state_penalty>
0

> <s_user_duplicate_titles>
CHEMBL1795101_lig88,148707

> <s_m_subgroup_title>
dock_pv

> <s_m_subgroupid>
dock_pv

> <b_m_subgroup_collapsed>
1

$$$$
CHEMBL1795101_lig92
                    3D
 Schrodinger Suite 2021-1.
 52 51  0  0  1  0            999 V2000
  -38.6597   26.2270   67.7694 C   0  0  0  0  0  0
  -36.5394   26.9074   66.8352 N   0  0  0  0  0  0
  -35.4007   26.6865   67.5138 C   0  0  0  0  0  0
  -37.7617   27.4556   67.4370 C   0  0  1  0  0  0
  -34.3357   25.7991   66.8402 C   0  0  1  0  0  0
  -38.8686   25.8505   69.0598 N   0  0  0  0  0  0
  -32.9699   26.5014   66.5783 C   0  0  0  0  0  0
  -39.1863   25.6459   66.8151 O   0  0  0  0  0  0
  -33.7422   28.5618   65.3335 C   0  0  0  0  0  0
  -38.4753   28.4887   66.5028 C   0  0  1  0  0  0
  -35.1931   27.1448   68.6358 O   0  0  0  0  0  0
  -32.8616   27.6108   65.6149 N   0  0  0  0  0  0
  -33.5850   29.3590   64.4150 O   0  0  0  0  0  0
  -31.6471   27.7590   64.9028 O   0  0  0  0  0  0
  -34.0962   24.5155   67.6955 C   0  0  0  0  0  0
  -40.6465   29.5857   66.1696 O   0  0  0  0  0  0
  -39.7499   29.0994   67.1509 C   0  0  0  0  0  0
  -38.2925   26.5010   70.2402 C   0  0  0  0  0  0
  -39.7982   24.7682   69.3982 C   0  0  0  0  0  0
  -37.5242   29.5995   65.9999 C   0  0  0  0  0  0
  -35.2623   23.5023   67.7477 C   0  0  0  0  0  0
  -35.6240   22.8511   66.3965 C   0  0  0  0  0  0
  -34.4514   22.1310   65.7072 C   0  0  0  0  0  0
  -36.6422   26.5539   65.8902 H   0  0  0  0  0  0
  -37.5082   28.0187   68.3334 H   0  0  0  0  0  0
  -34.7140   25.4987   65.8621 H   0  0  0  0  0  0
  -32.4745   26.7808   67.5109 H   0  0  0  0  0  0
  -32.3850   25.6954   66.1522 H   0  0  0  0  0  0
  -34.6183   28.5469   65.9902 H   0  0  0  0  0  0
  -38.7855   27.9470   65.6153 H   0  0  0  0  0  0
  -30.9684   27.4797   65.5404 H   0  0  0  0  0  0
  -33.8321   24.8003   68.7166 H   0  0  0  0  0  0
  -33.2121   23.9863   67.3372 H   0  0  0  0  0  0
  -40.2631   30.3717   65.7660 H   0  0  0  0  0  0
  -40.3040   28.3568   67.7269 H   0  0  0  0  0  0
  -39.4909   29.8975   67.8504 H   0  0  0  0  0  0
  -37.3091   26.9341   70.0590 H   0  0  0  0  0  0
  -38.9578   27.2858   70.6041 H   0  0  0  0  0  0
  -38.1591   25.7798   71.0483 H   0  0  0  0  0  0
  -40.6202   25.1535   70.0027 H   0  0  0  0  0  0
  -40.2310   24.2784   68.5238 H   0  0  0  0  0  0
  -39.2855   24.0009   69.9788 H   0  0  0  0  0  0
  -37.0704   30.1355   66.8340 H   0  0  0  0  0  0
  -36.7189   29.1946   65.3875 H   0  0  0  0  0  0
  -38.0460   30.3283   65.3792 H   0  0  0  0  0  0
  -36.1500   23.9792   68.1662 H   0  0  0  0  0  0
  -35.0014   22.7126   68.4540 H   0  0  0  0  0  0
  -36.0406   23.5965   65.7183 H   0  0  0  0  0  0
  -36.4266   22.1322   66.5673 H   0  0  0  0  0  0
  -34.7842   21.6040   64.8137 H   0  0  0  0  0  0
  -33.9875   21.3974   66.3669 H   0  0  0  0  0  0
  -33.6800   22.8329   65.3921 H   0  0  0  0  0  0
  1  4  1  0  0  0
  1  6  1  0  0  0
  1  8  2  0  0  0
  2  4  1  0  0  0
  2  3  1  0  0  0
  2 24  1  0  0  0
  3  5  1  0  0  0
  3 11  2  0  0  0
  4 10  1  0  0  0
  4 25  1  0  0  0
  5  7  1  0  0  0
  5 15  1  0  0  0
  5 26  1  0  0  0
  6 18  1  0  0  0
  6 19  1  0  0  0
  7 12  1  0  0  0
  7 27  1  0  0  0
  7 28  1  0  0  0
  9 12  1  0  0  0
  9 13  2  0  0  0
  9 29  1  0  0  0
 10 17  1  0  0  0
 10 20  1  0  0  0
 10 30  1  0  0  0
 12 14  1  0  0  0
 14 31  1  0  0  0
 15 21  1  0  0  0
 15 32  1  0  0  0
 15 33  1  0  0  0
 16 17  1  0  0  0
 16 34  1  0  0  0
 17 35  1  0  0  0
 17 36  1  0  0  0
 18 37  1  0  0  0
 18 38  1  0  0  0
 18 39  1  0  0  0
 19 40  1  0  0  0
 19 41  1  0  0  0
 19 42  1  0  0  0
 20 43  1  0  0  0
 20 44  1  0  0  0
 20 45  1  0  0  0
 21 22  1  0  0  0
 21 46  1  0  0  0
 21 47  1  0  0  0
 22 23  1  0  0  0
 22 48  1  0  0  0
 22 49  1  0  0  0
 23 50  1  0  0  0
 23 51  1  0  0  0
 23 52  1  0  0  0
M  END
> <s_m_entry_id>
40034

> <s_m_entry_name>
dock_pv.58

> <s_m_Source_Path>
/home/csk/Desktop/cluster/DUD-E-result/def

> <s_m_Source_File>
dock_pv.maegz

> <i_m_Source_File_Index>
58

> <chembl_id>
CHEMBL90401

> <chembl_pref_name>
None

> <i_lp_mmshare_version>
53161

> <i_f3d_flags>
0

> <r_lp_tautomer_probability>
1

> <s_lp_Force_Field>
OPLS_2005

> <r_lp_Energy>
16.374406

> <b_lp_Chiralities_Consistent>
1

> <s_lp_Variant>
CHEMBL1795101_lig92-2

> <s_i_glide_gridfile>
glide-grid_1lru

> <i_i_glide_lignum>
133

> <i_i_glide_rotatable_bonds>
15

> <r_i_docking_score>
-7.11465343108343

> <r_i_glide_ligand_efficiency>
-0.309332757873193

> <r_i_glide_ligand_efficiency_sa>
-0.879701214982559

> <r_i_glide_ligand_efficiency_ln>
-1.72038771174655

> <r_i_glide_gscore>
-7.11465343108343

> <r_i_glide_lipo>
-1.94041448818852

> <r_i_glide_hbond>
-1.23982964002133

> <r_i_glide_metal>
0

> <r_i_glide_rewards>
-1.1293526031161

> <r_i_glide_evdw>
-24.9831295013428

> <r_i_glide_ecoul>
-21.0145263671875

> <r_i_glide_erotb>
1.71362277904258

> <r_i_glide_esite>
-0.117344048654796

> <r_i_glide_emodel>
-59.6676934463732

> <r_i_glide_energy>
-45.9976558685303

> <r_i_glide_einternal>
13.5148220062256

> <i_i_glide_confnum>
273

> <i_i_glide_posenum>
163

> <r_i_glide_eff_state_penalty>
0

> <s_user_duplicate_titles>
CHEMBL1795101_lig92

> <s_m_subgroup_title>
dock_pv

> <s_m_subgroupid>
dock_pv

> <b_m_subgroup_collapsed>
1

$$$$
CHEMBL1795101_lig5
                    3D
 Schrodinger Suite 2021-1.
 37 37  0  0  1  0            999 V2000
  -36.0666   26.8608   67.5360 S   0  0  2  0  0  0
  -34.0819   28.6428   66.6372 C   0  0  0  0  0  0
  -35.5395   28.1698   66.3192 C   0  0  2  0  0  0
  -33.1808   28.7496   65.4051 C   0  0  0  0  0  0
  -35.3623   27.2544   68.8284 O   0  0  0  0  0  0
  -35.1404   25.4326   66.8922 C   0  0  0  0  0  0
  -33.5741   29.3590   64.4150 O   0  0  0  0  0  0
  -31.9850   28.1590   65.4721 N   0  0  0  0  0  0
  -31.1850   28.1590   64.3317 O   0  0  0  0  0  0
  -36.5399   29.3594   66.3307 C   0  0  0  0  0  0
  -35.7818   24.5590   66.0150 C   0  0  0  0  0  0
  -33.8465   25.1690   67.3424 C   0  0  0  0  0  0
  -38.0430   28.9981   66.3746 C   0  0  0  0  0  0
  -38.9891   30.2059   66.2374 C   0  0  0  0  0  0
  -39.0263   30.8386   64.8383 C   0  0  0  0  0  0
  -33.1850   24.0350   66.8862 C   0  0  0  0  0  0
  -35.1175   23.4232   65.5669 C   0  0  0  0  0  0
  -33.8285   23.1602   66.0150 C   0  0  0  0  0  0
  -34.0691   29.5929   67.1728 H   0  0  0  0  0  0
  -33.5911   27.9498   67.3175 H   0  0  0  0  0  0
  -35.5850   27.7286   65.3229 H   0  0  0  0  0  0
  -31.5593   27.6439   66.2398 H   0  0  0  0  0  0
  -30.4066   28.6799   64.5686 H   0  0  0  0  0  0
  -36.3612   29.9545   65.4362 H   0  0  0  0  0  0
  -36.3261   30.0147   67.1767 H   0  0  0  0  0  0
  -36.7851   24.7639   65.6730 H   0  0  0  0  0  0
  -33.3544   25.8249   68.0450 H   0  0  0  0  0  0
  -38.2680   28.5229   67.3299 H   0  0  0  0  0  0
  -38.2757   28.2543   65.6150 H   0  0  0  0  0  0
  -38.7217   30.9669   66.9727 H   0  0  0  0  0  0
  -40.0001   29.8895   66.4963 H   0  0  0  0  0  0
  -39.7520   31.6520   64.8150 H   0  0  0  0  0  0
  -39.3125   30.1148   64.0747 H   0  0  0  0  0  0
  -38.0646   31.2622   64.5513 H   0  0  0  0  0  0
  -32.1759   23.8370   67.2148 H   0  0  0  0  0  0
  -35.5850   22.7535   64.8637 H   0  0  0  0  0  0
  -33.3161   22.2830   65.6486 H   0  0  0  0  0  0
  1  3  1  0  0  0
  1  5  2  0  0  0
  1  6  1  0  0  0
  2  3  1  0  0  0
  2  4  1  0  0  0
  2 19  1  0  0  0
  2 20  1  0  0  0
  3 10  1  0  0  0
  3 21  1  0  0  0
  4  7  2  0  0  0
  4  8  1  0  0  0
  6 11  2  0  0  0
  6 12  1  0  0  0
  8  9  1  0  0  0
  8 22  1  0  0  0
  9 23  1  0  0  0
 10 13  1  0  0  0
 10 24  1  0  0  0
 10 25  1  0  0  0
 11 17  1  0  0  0
 11 26  1  0  0  0
 12 16  2  0  0  0
 12 27  1  0  0  0
 13 14  1  0  0  0
 13 28  1  0  0  0
 13 29  1  0  0  0
 14 15  1  0  0  0
 14 30  1  0  0  0
 14 31  1  0  0  0
 15 32  1  0  0  0
 15 33  1  0  0  0
 15 34  1  0  0  0
 16 18  1  0  0  0
 16 35  1  0  0  0
 17 18  2  0  0  0
 17 36  1  0  0  0
 18 37  1  0  0  0
M  END
> <s_m_entry_id>
40035

> <s_m_entry_name>
dock_pv.59

> <s_m_Source_Path>
/home/csk/Desktop/cluster/DUD-E-result/def

> <s_m_Source_File>
dock_pv.maegz

> <i_m_Source_File_Index>
59

> <chembl_id>
CHEMBL75433

> <chembl_pref_name>
None

> <i_lp_mmshare_version>
53161

> <i_f3d_flags>
0

> <r_lp_tautomer_probability>
1

> <s_lp_Force_Field>
OPLS_2005

> <r_lp_Energy>
8.59217

> <b_lp_Chiralities_Consistent>
1

> <s_lp_Variant>
CHEMBL1795101_lig5-4

> <s_i_glide_gridfile>
glide-grid_1lru

> <i_i_glide_lignum>
12

> <i_i_glide_rotatable_bonds>
9

> <r_i_docking_score>
-7.10725722009989

> <r_i_glide_ligand_efficiency>
-0.394847623338883

> <r_i_glide_ligand_efficiency_sa>
-1.03479350989223

> <r_i_glide_ligand_efficiency_ln>
-1.82688382046639

> <r_i_glide_gscore>
-7.10725722009989

> <r_i_glide_lipo>
-2.2187053670549

> <r_i_glide_hbond>
-0.82789913376175

> <r_i_glide_metal>
-1.27664278222911

> <r_i_glide_rewards>
-1.57236057753324

> <r_i_glide_evdw>
-29.3105697631836

> <r_i_glide_ecoul>
-17.3410091400146

> <r_i_glide_erotb>
2.95503049964049

> <r_i_glide_esite>
-0.1

> <r_i_glide_emodel>
-63.6152165981599

> <r_i_glide_energy>
-46.6515789031982

> <r_i_glide_einternal>
7.5584568977356

> <i_i_glide_confnum>
30

> <i_i_glide_posenum>
360

> <r_i_glide_eff_state_penalty>
0

> <s_user_duplicate_titles>
CHEMBL1795101_lig5,121471

> <s_m_subgroup_title>
dock_pv

> <s_m_subgroupid>
dock_pv

> <b_m_subgroup_collapsed>
1

$$$$
CHEMBL1795101_lig35
                    3D
 Schrodinger Suite 2021-1.
 56 56  0  0  1  0            999 V2000
  -36.8465   26.9289   67.0825 N   0  0  0  0  0  0
  -35.6573   26.6658   67.6495 C   0  0  0  0  0  0
  -38.0414   27.4778   67.7569 C   0  0  2  0  0  0
  -39.0870   26.3878   67.4852 C   0  0  0  0  0  0
  -34.5791   26.0050   66.7503 C   0  0  1  0  0  0
  -38.4074   28.9677   67.3516 C   0  0  0  0  0  0
  -33.3160   26.8989   66.5916 C   0  0  0  0  0  0
  -32.5497   28.8358   65.1957 C   0  0  0  0  0  0
  -35.3951   26.9564   68.8149 O   0  0  0  0  0  0
  -39.9850   26.5996   66.6685 O   0  0  0  0  0  0
  -33.5051   28.1388   65.8347 N   0  0  0  0  0  0
  -38.9867   25.0365   68.1454 C   0  0  0  0  0  0
  -32.7849   29.7589   64.4154 O   0  0  0  0  0  0
  -34.8141   28.5635   65.6152 O   0  0  0  0  0  0
  -34.1919   24.6013   67.2651 C   0  0  0  0  0  0
  -38.3273   29.2440   65.8270 C   0  0  0  0  0  0
  -37.3836   29.9163   68.0145 C   0  0  0  0  0  0
  -39.7964   29.4193   67.8794 C   0  0  0  0  0  0
  -38.2161   24.8311   69.3011 C   0  0  0  0  0  0
  -39.7110   23.9568   67.6149 C   0  0  0  0  0  0
  -35.3164   23.5525   67.1292 C   0  0  0  0  0  0
  -34.9249   22.1574   67.6377 C   0  0  0  0  0  0
  -34.4778   22.1653   69.1030 C   0  0  0  0  0  0
  -39.6292   22.6948   68.1958 C   0  0  0  0  0  0
  -38.1392   23.5682   69.8845 C   0  0  0  0  0  0
  -38.8417   22.5053   69.3266 C   0  0  0  0  0  0
  -36.9361   26.7766   66.0857 H   0  0  0  0  0  0
  -37.8895   27.5070   68.8363 H   0  0  0  0  0  0
  -34.9950   25.8715   65.7489 H   0  0  0  0  0  0
  -32.8694   27.1206   67.5636 H   0  0  0  0  0  0
  -32.5659   26.3146   66.0592 H   0  0  0  0  0  0
  -31.5403   28.4580   65.4342 H   0  0  0  0  0  0
  -35.0559   28.9688   66.4523 H   0  0  0  0  0  0
  -33.3278   24.2352   66.7077 H   0  0  0  0  0  0
  -33.8548   24.6834   68.3001 H   0  0  0  0  0  0
  -38.9378   28.5594   65.2531 H   0  0  0  0  0  0
  -38.6727   30.2504   65.5838 H   0  0  0  0  0  0
  -37.3107   29.1733   65.4436 H   0  0  0  0  0  0
  -37.4321   29.8493   69.1011 H   0  0  0  0  0  0
  -36.3635   29.7035   67.6972 H   0  0  0  0  0  0
  -37.5849   30.9593   67.7648 H   0  0  0  0  0  0
  -39.8638   29.3246   68.9638 H   0  0  0  0  0  0
  -39.9883   30.4672   67.6443 H   0  0  0  0  0  0
  -40.6163   28.8591   67.4382 H   0  0  0  0  0  0
  -37.6483   25.6245   69.7636 H   0  0  0  0  0  0
  -40.3324   24.0736   66.7368 H   0  0  0  0  0  0
  -36.2027   23.8826   67.6693 H   0  0  0  0  0  0
  -35.6201   23.4773   66.0845 H   0  0  0  0  0  0
  -35.7796   21.4890   67.5280 H   0  0  0  0  0  0
  -34.1324   21.7391   67.0173 H   0  0  0  0  0  0
  -34.3848   21.1533   69.4865 H   0  0  0  0  0  0
  -33.5299   22.6717   69.2308 H   0  0  0  0  0  0
  -35.1850   22.6977   69.7365 H   0  0  0  0  0  0
  -40.1779   21.8675   67.7672 H   0  0  0  0  0  0
  -37.5318   23.4141   70.7663 H   0  0  0  0  0  0
  -38.7816   21.5266   69.7805 H   0  0  0  0  0  0
  1  2  1  0  0  0
  1  3  1  0  0  0
  1 27  1  0  0  0
  2  5  1  0  0  0
  2  9  2  0  0  0
  3  4  1  0  0  0
  3  6  1  0  0  0
  3 28  1  0  0  0
  4 10  2  0  0  0
  4 12  1  0  0  0
  5  7  1  0  0  0
  5 15  1  0  0  0
  5 29  1  0  0  0
  6 16  1  0  0  0
  6 17  1  0  0  0
  6 18  1  0  0  0
  7 11  1  0  0  0
  7 30  1  0  0  0
  7 31  1  0  0  0
  8 11  1  0  0  0
  8 13  2  0  0  0
  8 32  1  0  0  0
 11 14  1  0  0  0
 12 19  2  0  0  0
 12 20  1  0  0  0
 14 33  1  0  0  0
 15 21  1  0  0  0
 15 34  1  0  0  0
 15 35  1  0  0  0
 16 36  1  0  0  0
 16 37  1  0  0  0
 16 38  1  0  0  0
 17 39  1  0  0  0
 17 40  1  0  0  0
 17 41  1  0  0  0
 18 42  1  0  0  0
 18 43  1  0  0  0
 18 44  1  0  0  0
 19 25  1  0  0  0
 19 45  1  0  0  0
 20 24  2  0  0  0
 20 46  1  0  0  0
 21 22  1  0  0  0
 21 47  1  0  0  0
 21 48  1  0  0  0
 22 23  1  0  0  0
 22 49  1  0  0  0
 22 50  1  0  0  0
 23 51  1  0  0  0
 23 52  1  0  0  0
 23 53  1  0  0  0
 24 26  1  0  0  0
 24 54  1  0  0  0
 25 26  2  0  0  0
 25 55  1  0  0  0
 26 56  1  0  0  0
M  END
> <s_m_entry_id>
40036

> <s_m_entry_name>
dock_pv.60

> <s_m_Source_Path>
/home/csk/Desktop/cluster/DUD-E-result/def

> <s_m_Source_File>
dock_pv.maegz

> <i_m_Source_File_Index>
60

> <chembl_id>
CHEMBL154703

> <chembl_pref_name>
None

> <i_lp_mmshare_version>
53161

> <i_f3d_flags>
0

> <r_lp_tautomer_probability>
0.99990000499975

> <s_lp_Force_Field>
OPLS_2005

> <r_lp_Energy>
26.119022

> <b_lp_Chiralities_Consistent>
1

> <s_lp_Variant>
CHEMBL1795101_lig35-1

> <s_i_glide_gridfile>
glide-grid_1lru

> <i_i_glide_lignum>
71

> <i_i_glide_rotatable_bonds>
13

> <r_i_docking_score>
-7.10560748275863

> <r_i_glide_ligand_efficiency>
-0.273292595490716

> <r_i_glide_ligand_efficiency_sa>
-0.809628238786811

> <r_i_glide_ligand_efficiency_ln>
-1.66872860192602

> <r_i_glide_gscore>
-7.10560748275863

> <r_i_glide_lipo>
-2.3072692289957

> <r_i_glide_hbond>
-1.14367164035239

> <r_i_glide_metal>
0

> <r_i_glide_rewards>
-0.937232742969139

> <r_i_glide_evdw>
-37.1177101135254

> <r_i_glide_ecoul>
-13.3477973937988

> <r_i_glide_erotb>
1.16927044155606

> <r_i_glide_esite>
-0.0286491972513633

> <r_i_glide_emodel>
-67.8891187823628

> <r_i_glide_energy>
-50.4655075073242

> <r_i_glide_einternal>
10.3270511627197

> <i_i_glide_confnum>
78

> <i_i_glide_posenum>
327

> <r_i_glide_eff_state_penalty>
0

> <s_user_duplicate_titles>
CHEMBL1795101_lig35,260527

> <s_m_subgroup_title>
dock_pv

> <s_m_subgroupid>
dock_pv

> <b_m_subgroup_collapsed>
1

$$$$
CHEMBL1795101_lig111
                    3D
 Schrodinger Suite 2021-1.
 27 28  0  0  1  0            999 V2000
  -36.2685   28.1341   67.2181 C   0  0  0  0  0  0
  -35.0745   27.4615   67.3008 N   0  0  0  0  0  0
  -36.2737   25.2226   67.4013 C   0  0  0  0  0  0
  -37.3676   27.3541   67.2504 N   0  0  0  0  0  0
  -34.9554   25.9873   67.4882 C   0  0  0  0  0  0
  -37.4512   25.9664   67.2905 C   0  0  0  0  0  0
  -33.2658   28.1588   65.7530 C   0  0  0  0  0  0
  -33.8108   28.2172   67.1916 C   0  0  0  0  0  0
  -36.3590   23.8223   67.4141 C   0  0  0  0  0  0
  -36.3920   29.3558   67.1513 O   0  0  0  0  0  0
  -33.9604   27.7589   64.8205 O   0  0  0  0  0  0
  -31.9844   28.5136   65.6075 N   0  0  0  0  0  0
  -34.7871   22.7485   67.5430 Br  0  0  0  0  0  0
  -31.3264   28.1591   64.4157 O   0  0  0  0  0  0
  -38.6953   25.3376   67.2132 C   0  0  0  0  0  0
  -38.7680   23.9455   67.2255 C   0  0  0  0  0  0
  -37.6002   23.1904   67.3234 C   0  0  0  0  0  0
  -38.2207   27.8871   67.1923 H   0  0  0  0  0  0
  -34.2813   25.5988   66.7238 H   0  0  0  0  0  0
  -34.4837   25.7887   68.4510 H   0  0  0  0  0  0
  -33.0731   27.7647   67.8535 H   0  0  0  0  0  0
  -33.9175   29.2546   67.5128 H   0  0  0  0  0  0
  -31.3480   28.8109   66.3418 H   0  0  0  0  0  0
  -30.6566   27.5193   64.7022 H   0  0  0  0  0  0
  -39.6030   25.9194   67.1360 H   0  0  0  0  0  0
  -39.7263   23.4496   67.1571 H   0  0  0  0  0  0
  -37.6566   22.1119   67.3292 H   0  0  0  0  0  0
  1  2  1  0  0  0
  1  4  1  0  0  0
  1 10  2  0  0  0
  2  5  1  0  0  0
  2  8  1  0  0  0
  3  6  1  0  0  0
  3  9  2  0  0  0
  3  5  1  0  0  0
  4  6  1  0  0  0
  4 18  1  0  0  0
  5 19  1  0  0  0
  5 20  1  0  0  0
  6 15  2  0  0  0
  7  8  1  0  0  0
  7 11  2  0  0  0
  7 12  1  0  0  0
  8 21  1  0  0  0
  8 22  1  0  0  0
  9 13  1  0  0  0
  9 17  1  0  0  0
 12 14  1  0  0  0
 12 23  1  0  0  0
 14 24  1  0  0  0
 15 16  1  0  0  0
 15 25  1  0  0  0
 16 17  2  0  0  0
 16 26  1  0  0  0
 17 27  1  0  0  0
M  END
> <s_m_entry_id>
40037

> <s_m_entry_name>
dock_pv.61

> <s_m_Source_Path>
/home/csk/Desktop/cluster/DUD-E-result/def

> <s_m_Source_File>
dock_pv.maegz

> <i_m_Source_File_Index>
61

> <chembl_id>
CHEMBL298588

> <chembl_pref_name>
None

> <i_lp_mmshare_version>
53161

> <i_f3d_flags>
0

> <r_lp_tautomer_probability>
1

> <s_lp_Force_Field>
OPLS_2005

> <r_lp_Energy>
25.02479

> <b_lp_Chiralities_Consistent>
1

> <s_lp_Variant>
CHEMBL1795101_lig111-1

> <s_i_glide_gridfile>
glide-grid_1lru

> <i_i_glide_lignum>
154

> <i_i_glide_rotatable_bonds>
4

> <r_i_docking_score>
-7.0547946699583

> <r_i_glide_ligand_efficiency>
-0.414987921762253

> <r_i_glide_ligand_efficiency_sa>
-1.06705080256507

> <r_i_glide_ligand_efficiency_ln>
-1.84043882683897

> <r_i_glide_gscore>
-7.0547946699583

> <r_i_glide_lipo>
-1.21870799943024

> <r_i_glide_hbond>
-0.430431258508209

> <r_i_glide_metal>
-1.33542552193734

> <r_i_glide_rewards>
-1.34838380428401

> <r_i_glide_evdw>
-30.9334125518799

> <r_i_glide_ecoul>
-9.88833332061768

> <r_i_glide_erotb>
0.408074539888147

> <r_i_glide_esite>
-0.1

> <r_i_glide_emodel>
-58.3746129156368

> <r_i_glide_energy>
-40.8217458724976

> <r_i_glide_einternal>
2.81649422645569

> <i_i_glide_confnum>
1

> <i_i_glide_posenum>
77

> <r_i_glide_eff_state_penalty>
0

> <s_user_duplicate_titles>
CHEMBL1795101_lig111,81950

> <s_m_subgroup_title>
dock_pv

> <s_m_subgroupid>
dock_pv

> <b_m_subgroup_collapsed>
1

$$$$
CHEMBL1795101_lig72
                    3D
 Schrodinger Suite 2021-1.
 71 72  0  0  1  0            999 V2000
  -39.6392   25.8243   69.0535 N   0  0  0  0  0  0
  -39.1405   26.4040   67.9162 C   0  0  0  0  0  0
  -37.9861   27.4522   67.9868 C   0  0  1  0  0  0
  -36.8737   26.8736   67.2115 N   0  0  0  0  0  0
  -35.6398   26.6285   67.6875 C   0  0  0  0  0  0
  -40.4079   24.5450   69.0652 C   0  0  2  0  0  0
  -34.6175   25.9342   66.7597 C   0  0  1  0  0  0
  -38.3833   28.9222   67.5428 C   0  0  0  0  0  0
  -39.5771   26.1600   66.7912 O   0  0  0  0  0  0
  -33.3703   26.8368   66.5078 C   0  0  0  0  0  0
  -32.5951   28.7705   65.1294 C   0  0  0  0  0  0
  -35.2855   26.9590   68.8149 O   0  0  0  0  0  0
  -33.5771   28.0020   65.6408 N   0  0  0  0  0  0
  -39.4437   23.3753   69.4704 C   0  0  1  0  0  0
  -32.7850   29.7586   64.4159 O   0  0  0  0  0  0
  -39.1088   26.1389   70.3929 C   0  0  0  0  0  0
  -34.8594   28.5590   65.6155 O   0  0  0  0  0  0
  -34.1906   24.5602   67.3461 C   0  0  0  0  0  0
  -41.2889   24.1526   67.8473 C   0  0  0  0  0  0
  -37.9737   25.1402   70.6774 C   0  0  0  0  0  0
  -37.3106   29.9308   68.0132 C   0  0  0  0  0  0
  -39.7075   29.3728   68.2186 C   0  0  0  0  0  0
  -38.5448   29.1044   66.0109 C   0  0  0  0  0  0
  -38.4865   23.6896   70.6493 C   0  0  0  0  0  0
  -40.1869   22.0296   69.6363 C   0  0  0  0  0  0
  -35.2694   23.4545   67.2220 C   0  0  0  0  0  0
  -34.7063   22.0550   66.9006 C   0  0  0  0  0  0
  -42.0483   22.8346   68.0918 C   0  0  0  0  0  0
  -34.0599   21.9648   65.5036 C   0  0  0  0  0  0
  -41.0823   21.6839   68.4320 C   0  0  0  0  0  0
  -37.6428   27.5471   69.0116 H   0  0  0  0  0  0
  -37.1146   26.5838   66.2733 H   0  0  0  0  0  0
  -41.1306   24.6607   69.8747 H   0  0  0  0  0  0
  -35.0793   25.7493   65.7874 H   0  0  0  0  0  0
  -32.9306   27.1519   67.4569 H   0  0  0  0  0  0
  -32.6043   26.2299   66.0271 H   0  0  0  0  0  0
  -31.5971   28.3876   65.4044 H   0  0  0  0  0  0
  -38.8057   23.2698   68.5904 H   0  0  0  0  0  0
  -38.8832   27.1923   70.5573 H   0  0  0  0  0  0
  -39.9225   25.9866   71.1044 H   0  0  0  0  0  0
  -35.3425   27.9826   65.0167 H   0  0  0  0  0  0
  -33.2855   24.2398   66.8329 H   0  0  0  0  0  0
  -33.8762   24.6551   68.3882 H   0  0  0  0  0  0
  -40.6751   24.0097   66.9574 H   0  0  0  0  0  0
  -41.9835   24.9580   67.6176 H   0  0  0  0  0  0
  -37.1591   25.2678   69.9631 H   0  0  0  0  0  0
  -37.5437   25.3542   71.6543 H   0  0  0  0  0  0
  -36.3225   29.6984   67.6167 H   0  0  0  0  0  0
  -37.5572   30.9454   67.6955 H   0  0  0  0  0  0
  -37.2451   29.9627   69.0985 H   0  0  0  0  0  0
  -40.5498   28.7518   67.9195 H   0  0  0  0  0  0
  -39.6370   29.3435   69.3075 H   0  0  0  0  0  0
  -39.9680   30.3962   67.9431 H   0  0  0  0  0  0
  -39.3999   28.5605   65.6182 H   0  0  0  0  0  0
  -38.7204   30.1509   65.7531 H   0  0  0  0  0  0
  -37.6515   28.7993   65.4660 H   0  0  0  0  0  0
  -39.0622   23.5700   71.5689 H   0  0  0  0  0  0
  -37.6790   22.9589   70.7204 H   0  0  0  0  0  0
  -40.7842   22.0564   70.5487 H   0  0  0  0  0  0
  -39.4647   21.2294   69.7991 H   0  0  0  0  0  0
  -35.8463   23.4130   68.1474 H   0  0  0  0  0  0
  -35.9933   23.7140   66.4479 H   0  0  0  0  0  0
  -33.9861   21.7614   67.6646 H   0  0  0  0  0  0
  -35.5181   21.3292   66.9608 H   0  0  0  0  0  0
  -42.6461   22.5769   67.2171 H   0  0  0  0  0  0
  -42.7588   22.9673   68.9094 H   0  0  0  0  0  0
  -33.7072   20.9596   65.2740 H   0  0  0  0  0  0
  -34.7676   22.2498   64.7239 H   0  0  0  0  0  0
  -33.1931   22.6159   65.4174 H   0  0  0  0  0  0
  -40.4547   21.4626   67.5675 H   0  0  0  0  0  0
  -41.6443   20.7717   68.6353 H   0  0  0  0  0  0
  1  2  1  0  0  0
  1  6  1  0  0  0
  1 16  1  0  0  0
  2  3  1  0  0  0
  2  9  2  0  0  0
  3  4  1  0  0  0
  3  8  1  0  0  0
  3 31  1  0  0  0
  4  5  1  0  0  0
  4 32  1  0  0  0
  5  7  1  0  0  0
  5 12  2  0  0  0
  6 14  1  0  0  0
  6 19  1  0  0  0
  6 33  1  0  0  0
  7 10  1  0  0  0
  7 18  1  0  0  0
  7 34  1  0  0  0
  8 21  1  0  0  0
  8 22  1  0  0  0
  8 23  1  0  0  0
 10 13  1  0  0  0
 10 35  1  0  0  0
 10 36  1  0  0  0
 11 13  1  0  0  0
 11 15  2  0  0  0
 11 37  1  0  0  0
 13 17  1  0  0  0
 14 25  1  0  0  0
 14 24  1  0  0  0
 14 38  1  0  0  0
 16 20  1  0  0  0
 16 39  1  0  0  0
 16 40  1  0  0  0
 17 41  1  0  0  0
 18 26  1  0  0  0
 18 42  1  0  0  0
 18 43  1  0  0  0
 19 28  1  0  0  0
 19 44  1  0  0  0
 19 45  1  0  0  0
 20 24  1  0  0  0
 20 46  1  0  0  0
 20 47  1  0  0  0
 21 48  1  0  0  0
 21 49  1  0  0  0
 21 50  1  0  0  0
 22 51  1  0  0  0
 22 52  1  0  0  0
 22 53  1  0  0  0
 23 54  1  0  0  0
 23 55  1  0  0  0
 23 56  1  0  0  0
 24 57  1  0  0  0
 24 58  1  0  0  0
 25 30  1  0  0  0
 25 59  1  0  0  0
 25 60  1  0  0  0
 26 27  1  0  0  0
 26 61  1  0  0  0
 26 62  1  0  0  0
 27 29  1  0  0  0
 27 63  1  0  0  0
 27 64  1  0  0  0
 28 30  1  0  0  0
 28 65  1  0  0  0
 28 66  1  0  0  0
 29 67  1  0  0  0
 29 68  1  0  0  0
 29 69  1  0  0  0
 30 70  1  0  0  0
 30 71  1  0  0  0
M  END
> <s_m_entry_id>
40038

> <s_m_entry_name>
dock_pv.62

> <s_m_Source_Path>
/home/csk/Desktop/cluster/DUD-E-result/def

> <s_m_Source_File>
dock_pv.maegz

> <i_m_Source_File_Index>
62

> <chembl_id>
CHEMBL90149

> <chembl_pref_name>
None

> <i_lp_mmshare_version>
53161

> <i_f3d_flags>
0

> <r_lp_tautomer_probability>
1

> <s_lp_Force_Field>
OPLS_2005

> <r_lp_Energy>
42.712072

> <b_lp_Chiralities_Consistent>
1

> <s_lp_Variant>
CHEMBL1795101_lig72-1

> <s_i_glide_gridfile>
glide-grid_1lru

> <i_i_glide_lignum>
108

> <i_i_glide_rotatable_bonds>
13

> <r_i_docking_score>
-6.98077824285057

> <r_i_glide_ligand_efficiency>
-0.232692608095019

> <r_i_glide_ligand_efficiency_sa>
-0.723030034948303

> <r_i_glide_ligand_efficiency_ln>
-1.58610887844667

> <r_i_glide_gscore>
-6.98077824285057

> <r_i_glide_lipo>
-2.22589175028461

> <r_i_glide_hbond>
-0.920784472882122

> <r_i_glide_metal>
0

> <r_i_glide_rewards>
-0.438664960040053

> <r_i_glide_evdw>
-40.7809715270996

> <r_i_glide_ecoul>
-14.7807569503784

> <r_i_glide_erotb>
0.883731332788198

> <r_i_glide_esite>
-0.0230062735202423

> <r_i_glide_emodel>
-72.3201072725611

> <r_i_glide_energy>
-55.561728477478

> <r_i_glide_einternal>
13.4983072280884

> <i_i_glide_confnum>
57

> <i_i_glide_posenum>
139

> <r_i_glide_eff_state_penalty>
0

> <s_user_duplicate_titles>
CHEMBL1795101_lig72,148185

> <s_m_subgroup_title>
dock_pv

> <s_m_subgroupid>
dock_pv

> <b_m_subgroup_collapsed>
1

$$$$
CHEMBL1795101_lig27
                    3D
 Schrodinger Suite 2021-1.
 64 64  0  0  1  0            999 V2000
  -39.7026   22.5787   74.3090 S   0  0  0  0  0  0
  -36.7120   26.4158   67.2463 N   0  0  0  0  0  0
  -35.4264   26.3131   67.6288 C   0  0  0  0  0  0
  -37.8461   26.6845   68.1528 C   0  0  2  0  0  0
  -38.7078   25.4176   68.0505 C   0  0  0  0  0  0
  -34.4059   25.8880   66.5500 C   0  0  1  0  0  0
  -39.5846   22.0932   72.6088 N   0  0  0  0  0  0
  -38.6018   28.0392   67.8719 C   0  0  0  0  0  0
  -40.5353   23.7836   74.3784 O   0  0  0  0  0  0
  -40.0688   21.3660   75.0469 O   0  0  0  0  0  0
  -38.9297   24.5693   69.2672 C   0  0  0  0  0  0
  -33.1845   26.8457   66.5203 C   0  0  0  0  0  0
  -32.5119   28.8359   65.1761 C   0  0  0  0  0  0
  -35.0489   26.5611   68.7762 O   0  0  0  0  0  0
  -39.1062   25.0393   66.9421 O   0  0  0  0  0  0
  -33.4313   28.1269   65.8533 N   0  0  0  0  0  0
  -32.7849   29.7627   64.4153 O   0  0  0  0  0  0
  -38.9605   25.1317   70.5510 C   0  0  0  0  0  0
  -39.1473   23.1926   69.1244 C   0  0  0  0  0  0
  -39.3713   22.9560   71.5229 C   0  0  0  0  0  0
  -37.9258   23.0198   74.7427 C   0  0  0  0  0  0
  -39.1698   24.3310   71.6685 C   0  0  0  0  0  0
  -39.3588   22.3947   70.2459 C   0  0  0  0  0  0
  -34.7615   28.5592   65.7401 O   0  0  0  0  0  0
  -33.9818   24.4120   66.7345 C   0  0  0  0  0  0
  -37.6281   29.2122   68.1473 C   0  0  0  0  0  0
  -39.8017   28.2288   68.8372 C   0  0  0  0  0  0
  -39.0995   28.1835   66.4146 C   0  0  0  0  0  0
  -35.0345   23.4184   66.1989 C   0  0  0  0  0  0
  -34.5554   21.9625   66.2344 C   0  0  0  0  0  0
  -34.5590   21.3626   67.6437 C   0  0  0  0  0  0
  -36.9386   26.3169   66.2643 H   0  0  0  0  0  0
  -37.4620   26.7650   69.1696 H   0  0  0  0  0  0
  -34.8724   25.9493   65.5641 H   0  0  0  0  0  0
  -39.6250   21.1033   72.4265 H   0  0  0  0  0  0
  -32.7676   27.0041   67.5171 H   0  0  0  0  0  0
  -32.3855   26.3538   65.9684 H   0  0  0  0  0  0
  -31.4912   28.4525   65.3508 H   0  0  0  0  0  0
  -38.8294   26.1905   70.7148 H   0  0  0  0  0  0
  -39.1445   22.7283   68.1472 H   0  0  0  0  0  0
  -37.8918   23.3376   75.7847 H   0  0  0  0  0  0
  -37.3009   22.1397   74.6055 H   0  0  0  0  0  0
  -37.5885   23.8267   74.0963 H   0  0  0  0  0  0
  -39.1752   24.8057   72.6366 H   0  0  0  0  0  0
  -39.5142   21.3347   70.1151 H   0  0  0  0  0  0
  -34.9413   28.9409   66.6017 H   0  0  0  0  0  0
  -33.7283   24.2056   67.7766 H   0  0  0  0  0  0
  -33.0630   24.2315   66.1725 H   0  0  0  0  0  0
  -36.7437   29.1709   67.5128 H   0  0  0  0  0  0
  -38.0985   30.1804   67.9664 H   0  0  0  0  0  0
  -37.2949   29.2133   69.1854 H   0  0  0  0  0  0
  -40.5072   27.3999   68.7891 H   0  0  0  0  0  0
  -39.4745   28.3291   69.8734 H   0  0  0  0  0  0
  -40.3616   29.1358   68.6038 H   0  0  0  0  0  0
  -39.8194   27.4084   66.1564 H   0  0  0  0  0  0
  -39.6031   29.1387   66.2576 H   0  0  0  0  0  0
  -38.2765   28.1479   65.7005 H   0  0  0  0  0  0
  -35.2693   23.6714   65.1628 H   0  0  0  0  0  0
  -35.9728   23.5163   66.7485 H   0  0  0  0  0  0
  -33.5699   21.8890   65.7856 H   0  0  0  0  0  0
  -35.1852   21.3601   65.5881 H   0  0  0  0  0  0
  -34.1351   20.3598   67.6493 H   0  0  0  0  0  0
  -35.5811   21.2993   68.0139 H   0  0  0  0  0  0
  -33.9841   21.9647   68.3467 H   0  0  0  0  0  0
  1  7  1  0  0  0
  1  9  2  0  0  0
  1 10  2  0  0  0
  1 21  1  0  0  0
  2  4  1  0  0  0
  2  3  1  0  0  0
  2 32  1  0  0  0
  3  6  1  0  0  0
  3 14  2  0  0  0
  4  5  1  0  0  0
  4  8  1  0  0  0
  4 33  1  0  0  0
  5 11  1  0  0  0
  5 15  2  0  0  0
  6 12  1  0  0  0
  6 25  1  0  0  0
  6 34  1  0  0  0
  7 20  1  0  0  0
  7 35  1  0  0  0
  8 26  1  0  0  0
  8 27  1  0  0  0
  8 28  1  0  0  0
 11 19  1  0  0  0
 11 18  2  0  0  0
 12 16  1  0  0  0
 12 36  1  0  0  0
 12 37  1  0  0  0
 13 16  1  0  0  0
 13 17  2  0  0  0
 13 38  1  0  0  0
 16 24  1  0  0  0
 18 22  1  0  0  0
 18 39  1  0  0  0
 19 23  2  0  0  0
 19 40  1  0  0  0
 20 22  2  0  0  0
 20 23  1  0  0  0
 21 41  1  0  0  0
 21 42  1  0  0  0
 21 43  1  0  0  0
 22 44  1  0  0  0
 23 45  1  0  0  0
 24 46  1  0  0  0
 25 29  1  0  0  0
 25 47  1  0  0  0
 25 48  1  0  0  0
 26 49  1  0  0  0
 26 50  1  0  0  0
 26 51  1  0  0  0
 27 52  1  0  0  0
 27 53  1  0  0  0
 27 54  1  0  0  0
 28 55  1  0  0  0
 28 56  1  0  0  0
 28 57  1  0  0  0
 29 30  1  0  0  0
 29 58  1  0  0  0
 29 59  1  0  0  0
 30 31  1  0  0  0
 30 60  1  0  0  0
 30 61  1  0  0  0
 31 62  1  0  0  0
 31 63  1  0  0  0
 31 64  1  0  0  0
M  END
> <s_m_entry_id>
40039

> <s_m_entry_name>
dock_pv.63

> <s_m_Source_Path>
/home/csk/Desktop/cluster/DUD-E-result/def

> <s_m_Source_File>
dock_pv.maegz

> <i_m_Source_File_Index>
63

> <chembl_id>
CHEMBL155998

> <chembl_pref_name>
None

> <i_lp_mmshare_version>
53161

> <i_f3d_flags>
0

> <r_lp_tautomer_probability>
0.99990000499975

> <s_lp_Force_Field>
OPLS_2005

> <r_lp_Energy>
25.820215

> <b_lp_Chiralities_Consistent>
1

> <s_lp_Variant>
CHEMBL1795101_lig27-1

> <s_i_glide_gridfile>
glide-grid_1lru

> <i_i_glide_lignum>
63

> <i_i_glide_rotatable_bonds>
15

> <r_i_docking_score>
-6.95465505005026

> <r_i_glide_ligand_efficiency>
-0.224343711291944

> <r_i_glide_ligand_efficiency_sa>
-0.704748993331493

> <r_i_glide_ligand_efficiency_ln>
-1.56848784836712

> <r_i_glide_gscore>
-6.95465505005026

> <r_i_glide_lipo>
-2.10613165878028

> <r_i_glide_hbond>
-1.28575205688569

> <r_i_glide_metal>
0

> <r_i_glide_rewards>
-0.301547228936052

> <r_i_glide_evdw>
-41.1814422607422

> <r_i_glide_ecoul>
-14.271222114563

> <r_i_glide_erotb>
0.967995935789476

> <r_i_glide_esite>
-0.0294646110161458

> <r_i_glide_emodel>
-68.8072539575045

> <r_i_glide_energy>
-55.4526643753052

> <r_i_glide_einternal>
16.0995769500732

> <i_i_glide_confnum>
280

> <i_i_glide_posenum>
52

> <r_i_glide_eff_state_penalty>
0

> <s_user_duplicate_titles>
CHEMBL1795101_lig27,261243

> <s_m_subgroup_title>
dock_pv

> <s_m_subgroupid>
dock_pv

> <b_m_subgroup_collapsed>
1

$$$$
CHEMBL1795101_lig18
                    3D
 Schrodinger Suite 2021-1.
 38 38  0  0  1  0            999 V2000
  -36.9569   26.4578   66.8201 S   0  0  1  0  0  0
  -34.5242   27.8912   67.2875 C   0  0  2  0  0  0
  -35.2836   26.5651   67.6527 C   0  0  2  0  0  0
  -33.8316   27.9345   65.8995 C   0  0  0  0  0  0
  -37.7540   25.3358   67.4889 O   0  0  0  0  0  0
  -37.6960   27.9998   67.4386 C   0  0  0  0  0  0
  -34.3778   27.3594   64.9613 O   0  0  0  0  0  0
  -32.6567   28.5914   65.7725 N   0  0  0  0  0  0
  -33.5850   28.1518   68.3121 O   0  0  0  0  0  0
  -34.4493   25.2909   67.3243 C   0  0  0  0  0  0
  -31.9842   28.5585   64.5467 O   0  0  0  0  0  0
  -37.7944   29.0972   66.5825 C   0  0  0  0  0  0
  -38.1958   28.0545   68.7401 C   0  0  0  0  0  0
  -34.9281   23.9659   67.9410 C   0  0  0  0  0  0
  -34.1092   22.7787   67.4097 C   0  0  0  0  0  0
  -34.5455   21.4418   68.0163 C   0  0  0  0  0  0
  -38.3865   30.2692   67.0453 C   0  0  0  0  0  0
  -38.7846   29.2293   69.1974 C   0  0  0  0  0  0
  -38.8692   30.3342   68.3513 C   0  0  0  0  0  0
  -35.1982   28.7433   67.3103 H   0  0  0  0  0  0
  -35.4980   26.5645   68.7225 H   0  0  0  0  0  0
  -32.0849   28.9949   66.5068 H   0  0  0  0  0  0
  -32.9506   28.8149   68.0153 H   0  0  0  0  0  0
  -33.4140   25.4534   67.6332 H   0  0  0  0  0  0
  -34.4147   25.1555   66.2423 H   0  0  0  0  0  0
  -31.1936   28.0322   64.7255 H   0  0  0  0  0  0
  -37.4160   29.0428   65.5713 H   0  0  0  0  0  0
  -38.1255   27.1949   69.3917 H   0  0  0  0  0  0
  -35.9757   23.7850   67.7089 H   0  0  0  0  0  0
  -34.8567   24.0185   69.0291 H   0  0  0  0  0  0
  -33.0552   22.9593   67.6149 H   0  0  0  0  0  0
  -34.2026   22.7214   66.3230 H   0  0  0  0  0  0
  -33.9850   20.6016   67.6115 H   0  0  0  0  0  0
  -35.6013   21.2490   67.8254 H   0  0  0  0  0  0
  -34.3853   21.4416   69.0953 H   0  0  0  0  0  0
  -38.4661   31.1296   66.3973 H   0  0  0  0  0  0
  -39.1589   29.2940   70.2095 H   0  0  0  0  0  0
  -39.3119   31.2518   68.7112 H   0  0  0  0  0  0
  1  3  1  0  0  0
  1  5  2  0  0  0
  1  6  1  0  0  0
  2  3  1  0  0  0
  2  4  1  0  0  0
  2  9  1  0  0  0
  2 20  1  0  0  0
  3 10  1  0  0  0
  3 21  1  0  0  0
  4  7  2  0  0  0
  4  8  1  0  0  0
  6 12  2  0  0  0
  6 13  1  0  0  0
  8 11  1  0  0  0
  8 22  1  0  0  0
  9 23  1  0  0  0
 10 14  1  0  0  0
 10 24  1  0  0  0
 10 25  1  0  0  0
 11 26  1  0  0  0
 12 17  1  0  0  0
 12 27  1  0  0  0
 13 18  2  0  0  0
 13 28  1  0  0  0
 14 15  1  0  0  0
 14 29  1  0  0  0
 14 30  1  0  0  0
 15 16  1  0  0  0
 15 31  1  0  0  0
 15 32  1  0  0  0
 16 33  1  0  0  0
 16 34  1  0  0  0
 16 35  1  0  0  0
 17 19  2  0  0  0
 17 36  1  0  0  0
 18 19  1  0  0  0
 18 37  1  0  0  0
 19 38  1  0  0  0
M  END
> <s_m_entry_id>
40040

> <s_m_entry_name>
dock_pv.64

> <s_m_Source_Path>
/home/csk/Desktop/cluster/DUD-E-result/def

> <s_m_Source_File>
dock_pv.maegz

> <i_m_Source_File_Index>
64

> <chembl_id>
CHEMBL74616

> <chembl_pref_name>
None

> <i_lp_mmshare_version>
53161

> <i_f3d_flags>
0

> <r_lp_tautomer_probability>
1

> <s_lp_Force_Field>
OPLS_2005

> <r_lp_Energy>
18.447958

> <b_lp_Chiralities_Consistent>
1

> <s_lp_Variant>
CHEMBL1795101_lig18-1

> <s_i_glide_gridfile>
glide-grid_1lru

> <i_i_glide_lignum>
38

> <i_i_glide_rotatable_bonds>
10

> <r_i_docking_score>
-6.95149998055364

> <r_i_glide_ligand_efficiency>
-0.365868420029139

> <r_i_glide_ligand_efficiency_sa>
-0.976283894262845

> <r_i_glide_ligand_efficiency_ln>
-1.76235454960002

> <r_i_glide_gscore>
-6.95149998055364

> <r_i_glide_lipo>
-1.92851617326955

> <r_i_glide_hbond>
-1.11885488138865

> <r_i_glide_metal>
-1.53807501465339

> <r_i_glide_rewards>
-1.46335587820131

> <r_i_glide_evdw>
-23.1140270233154

> <r_i_glide_ecoul>
-15.516037940979

> <r_i_glide_erotb>
2.67354139069512

> <r_i_glide_esite>
-0.093132381423235

> <r_i_glide_emodel>
-52.2583142588267

> <r_i_glide_energy>
-38.6300649642944

> <r_i_glide_einternal>
7.47556114196777

> <i_i_glide_confnum>
109

> <i_i_glide_posenum>
227

> <r_i_glide_eff_state_penalty>
0

> <s_user_duplicate_titles>
CHEMBL1795101_lig18

> <s_m_subgroup_title>
dock_pv

> <s_m_subgroupid>
dock_pv

> <b_m_subgroup_collapsed>
1

$$$$
CHEMBL1795101_lig125
                    3D
 Schrodinger Suite 2021-1.
 27 28  0  0  1  0            999 V2000
  -36.5129   23.3602   65.9956 N   0  0  0  0  0  0
  -37.9065   23.3036   69.8648 C   0  0  0  0  0  0
  -38.7588   22.7779   68.8970 C   0  0  0  0  0  0
  -38.3961   22.7232   67.5515 C   0  0  0  0  0  0
  -36.6513   23.8015   69.5209 C   0  0  0  0  0  0
  -35.0911   24.3011   67.4703 C   0  0  0  0  0  0
  -36.2572   23.8169   68.1738 C   0  0  0  0  0  0
  -37.1468   23.2551   67.2093 C   0  0  0  0  0  0
  -35.2958   23.9651   66.1453 C   0  0  0  0  0  0
  -33.9011   25.0263   68.0639 C   0  0  0  0  0  0
  -33.8089   26.4883   67.6147 C   0  0  0  0  0  0
  -33.2213   26.7673   66.2217 C   0  0  0  0  0  0
  -34.1988   27.3840   68.3627 O   0  0  0  0  0  0
  -32.7959   28.1515   66.0152 N   0  0  2  0  0  0
  -31.9852   28.1594   64.9052 O   0  0  0  0  0  0
  -38.4383   23.3034   71.6910 Br  0  0  0  0  0  0
  -36.8483   23.0454   65.0969 H   0  0  0  0  0  0
  -39.7182   22.3839   69.1984 H   0  0  0  0  0  0
  -39.0621   22.2918   66.8167 H   0  0  0  0  0  0
  -35.9875   24.1589   70.2889 H   0  0  0  0  0  0
  -34.6749   24.1256   65.2745 H   0  0  0  0  0  0
  -32.9659   24.5306   67.7995 H   0  0  0  0  0  0
  -33.9505   25.0138   69.1531 H   0  0  0  0  0  0
  -33.9829   26.5154   65.4850 H   0  0  0  0  0  0
  -32.3875   26.0807   66.0813 H   0  0  0  0  0  0
  -32.1982   28.5100   66.7615 H   0  0  0  0  0  0
  -31.1995   27.6861   65.2229 H   0  0  0  0  0  0
  1  8  1  0  0  0
  1  9  1  0  0  0
  1 17  1  0  0  0
  2  5  1  0  0  0
  2  3  2  0  0  0
  2 16  1  0  0  0
  3  4  1  0  0  0
  3 18  1  0  0  0
  4  8  2  0  0  0
  4 19  1  0  0  0
  5  7  2  0  0  0
  5 20  1  0  0  0
  6  7  1  0  0  0
  6  9  2  0  0  0
  6 10  1  0  0  0
  7  8  1  0  0  0
  9 21  1  0  0  0
 10 11  1  0  0  0
 10 22  1  0  0  0
 10 23  1  0  0  0
 11 12  1  0  0  0
 11 13  2  0  0  0
 12 14  1  0  0  0
 12 24  1  0  0  0
 12 25  1  0  0  0
 14 15  1  0  0  0
 14 26  1  0  0  0
 15 27  1  0  0  0
M  END
> <s_m_entry_id>
40041

> <s_m_entry_name>
dock_pv.65

> <s_m_Source_Path>
/home/csk/Desktop/cluster/DUD-E-result/def

> <s_m_Source_File>
dock_pv.maegz

> <i_m_Source_File_Index>
65

> <chembl_id>
CHEMBL216480

> <chembl_pref_name>
None

> <i_lp_mmshare_version>
53161

> <i_f3d_flags>
0

> <r_lp_tautomer_probability>
0.999999960000001

> <s_lp_Force_Field>
OPLS_2005

> <r_lp_Energy>
-0.656139

> <b_lp_Chiralities_Consistent>
1

> <s_lp_Variant>
CHEMBL1795101_lig125-1

> <s_i_glide_gridfile>
glide-grid_1lru

> <i_i_glide_lignum>
170

> <i_i_glide_rotatable_bonds>
5

> <r_i_docking_score>
-6.93694873615833

> <r_i_glide_ligand_efficiency>
-0.433559296009896

> <r_i_glide_ligand_efficiency_sa>
-1.09250096583125

> <r_i_glide_ligand_efficiency_ln>
-1.83877683121522

> <r_i_glide_gscore>
-6.93694873615833

> <r_i_glide_lipo>
-2.0117081469494

> <r_i_glide_hbond>
-0.816636362741695

> <r_i_glide_metal>
0

> <r_i_glide_rewards>
-1.47871881818182

> <r_i_glide_evdw>
-25.5005760192871

> <r_i_glide_ecoul>
-12.4092950820923

> <r_i_glide_erotb>
0.677608207436579

> <r_i_glide_esite>
-0.171070552443797

> <r_i_glide_emodel>
-53.6081558205719

> <r_i_glide_energy>
-37.9098711013794

> <r_i_glide_einternal>
3.9396288394928

> <i_i_glide_confnum>
35

> <i_i_glide_posenum>
174

> <r_i_glide_eff_state_penalty>
0

> <s_user_duplicate_titles>
CHEMBL1795101_lig125,365416

> <s_m_subgroup_title>
dock_pv

> <s_m_subgroupid>
dock_pv

> <b_m_subgroup_collapsed>
1

$$$$
CHEMBL1795101_lig95
                    3D
 Schrodinger Suite 2021-1.
 54 53  0  0  1  0            999 V2000
  -38.7714   26.6099   67.7577 C   0  0  0  0  0  0
  -36.5312   27.0597   66.8883 N   0  0  0  0  0  0
  -35.3788   26.8804   67.5568 C   0  0  0  0  0  0
  -37.7203   27.7175   67.4427 C   0  0  1  0  0  0
  -34.3153   25.9851   66.8990 C   0  0  1  0  0  0
  -38.9162   26.1378   69.0260 N   0  0  0  0  0  0
  -32.9214   26.6300   66.6250 C   0  0  0  0  0  0
  -39.4498   26.1842   66.8154 O   0  0  0  0  0  0
  -33.6352   28.6960   65.4106 C   0  0  0  0  0  0
  -35.1673   27.3590   68.6664 O   0  0  0  0  0  0
  -32.7979   27.6946   65.6153 N   0  0  0  0  0  0
  -33.5846   29.3953   64.4149 O   0  0  0  0  0  0
  -38.3222   28.7734   66.4519 C   0  0  1  0  0  0
  -31.6264   27.7590   64.8159 O   0  0  0  0  0  0
  -34.1879   24.6708   67.7349 C   0  0  0  0  0  0
  -39.9148   25.1132   69.3476 C   0  0  0  0  0  0
  -38.0900   26.4868   70.1871 C   0  0  0  0  0  0
  -39.4485   29.6236   67.0951 C   0  0  0  0  0  0
  -37.2413   29.6924   65.8501 C   0  0  0  0  0  0
  -33.6468   23.4325   66.9836 C   0  0  0  0  0  0
  -34.6761   22.6779   66.1173 C   0  0  0  0  0  0
  -40.2692   30.4389   66.0825 C   0  0  0  0  0  0
  -35.4229   23.5507   65.1016 C   0  0  0  0  0  0
  -36.6479   26.6568   65.9650 H   0  0  0  0  0  0
  -37.4647   28.2846   68.3357 H   0  0  0  0  0  0
  -34.7007   25.7732   65.9105 H   0  0  0  0  0  0
  -32.3998   26.9035   67.5441 H   0  0  0  0  0  0
  -32.3850   25.7960   66.2022 H   0  0  0  0  0  0
  -34.3948   28.7928   66.1963 H   0  0  0  0  0  0
  -38.7645   28.2472   65.6113 H   0  0  0  0  0  0
  -30.9237   27.4486   65.4120 H   0  0  0  0  0  0
  -35.1484   24.3821   68.1699 H   0  0  0  0  0  0
  -33.5465   24.8693   68.5966 H   0  0  0  0  0  0
  -40.5437   25.4446   70.1754 H   0  0  0  0  0  0
  -40.5749   24.8743   68.5119 H   0  0  0  0  0  0
  -39.4202   24.1893   69.6499 H   0  0  0  0  0  0
  -37.3007   27.2102   70.0025 H   0  0  0  0  0  0
  -38.7169   26.8916   70.9826 H   0  0  0  0  0  0
  -37.6038   25.5903   70.5755 H   0  0  0  0  0  0
  -40.1368   28.9884   67.6521 H   0  0  0  0  0  0
  -39.0134   30.3000   67.8328 H   0  0  0  0  0  0
  -36.6602   30.1668   66.6394 H   0  0  0  0  0  0
  -36.5501   29.1301   65.2255 H   0  0  0  0  0  0
  -37.6660   30.4696   65.2152 H   0  0  0  0  0  0
  -33.2782   22.7327   67.7335 H   0  0  0  0  0  0
  -32.7722   23.6838   66.3852 H   0  0  0  0  0  0
  -35.4058   22.1849   66.7618 H   0  0  0  0  0  0
  -34.1636   21.8750   65.5839 H   0  0  0  0  0  0
  -41.2696   30.6438   66.4645 H   0  0  0  0  0  0
  -39.7978   31.4012   65.8786 H   0  0  0  0  0  0
  -40.3788   29.9162   65.1315 H   0  0  0  0  0  0
  -35.9833   22.9590   64.4053 H   0  0  0  0  0  0
  -34.7462   24.1459   64.4943 H   0  0  0  0  0  0
  -36.1487   24.2042   65.5858 H   0  0  0  0  0  0
  1  4  1  0  0  0
  1  6  1  0  0  0
  1  8  2  0  0  0
  2  4  1  0  0  0
  2  3  1  0  0  0
  2 24  1  0  0  0
  3  5  1  0  0  0
  3 10  2  0  0  0
  4 13  1  0  0  0
  4 25  1  0  0  0
  5  7  1  0  0  0
  5 15  1  0  0  0
  5 26  1  0  0  0
  6 16  1  0  0  0
  6 17  1  0  0  0
  7 11  1  0  0  0
  7 27  1  0  0  0
  7 28  1  0  0  0
  9 11  1  0  0  0
  9 12  2  0  0  0
  9 29  1  0  0  0
 11 14  1  0  0  0
 13 18  1  0  0  0
 13 19  1  0  0  0
 13 30  1  0  0  0
 14 31  1  0  0  0
 15 20  1  0  0  0
 15 32  1  0  0  0
 15 33  1  0  0  0
 16 34  1  0  0  0
 16 35  1  0  0  0
 16 36  1  0  0  0
 17 37  1  0  0  0
 17 38  1  0  0  0
 17 39  1  0  0  0
 18 22  1  0  0  0
 18 40  1  0  0  0
 18 41  1  0  0  0
 19 42  1  0  0  0
 19 43  1  0  0  0
 19 44  1  0  0  0
 20 21  1  0  0  0
 20 45  1  0  0  0
 20 46  1  0  0  0
 21 23  1  0  0  0
 21 47  1  0  0  0
 21 48  1  0  0  0
 22 49  1  0  0  0
 22 50  1  0  0  0
 22 51  1  0  0  0
 23 52  1  0  0  0
 23 53  1  0  0  0
 23 54  1  0  0  0
M  END
> <s_m_entry_id>
40042

> <s_m_entry_name>
dock_pv.66

> <s_m_Source_Path>
/home/csk/Desktop/cluster/DUD-E-result/def

> <s_m_Source_File>
dock_pv.maegz

> <i_m_Source_File_Index>
66

> <chembl_id>
CHEMBL90925

> <chembl_pref_name>
None

> <i_lp_mmshare_version>
53161

> <i_f3d_flags>
0

> <r_lp_tautomer_probability>
1

> <s_lp_Force_Field>
OPLS_2005

> <r_lp_Energy>
24.457256

> <b_lp_Chiralities_Consistent>
1

> <s_lp_Variant>
CHEMBL1795101_lig95-2

> <s_i_glide_gridfile>
glide-grid_1lru

> <i_i_glide_lignum>
137

> <i_i_glide_rotatable_bonds>
14

> <r_i_docking_score>
-6.93533421928355

> <r_i_glide_ligand_efficiency>
-0.301536270403633

> <r_i_glide_ligand_efficiency_sa>
-0.857529041732225

> <r_i_glide_ligand_efficiency_ln>
-1.67702670035662

> <r_i_glide_gscore>
-6.93533421928355

> <r_i_glide_lipo>
-1.92836844681166

> <r_i_glide_hbond>
-1.03198459246064

> <r_i_glide_metal>
-0.293845366140148

> <r_i_glide_rewards>
-1.11669054560119

> <r_i_glide_evdw>
-24.1552391052246

> <r_i_glide_ecoul>
-18.7340755462646

> <r_i_glide_erotb>
1.5586238775871

> <r_i_glide_esite>
-0.105195858656088

> <r_i_glide_emodel>
-58.6478525976603

> <r_i_glide_energy>
-42.8893146514893

> <r_i_glide_einternal>
6.88370895385742

> <i_i_glide_confnum>
79

> <i_i_glide_posenum>
275

> <r_i_glide_eff_state_penalty>
0

> <s_user_duplicate_titles>
CHEMBL1795101_lig95,147820

> <s_m_subgroup_title>
dock_pv

> <s_m_subgroupid>
dock_pv

> <b_m_subgroup_collapsed>
1

$$$$
CHEMBL1795101_lig46
                    3D
 Schrodinger Suite 2021-1.
 61 62  0  0  1  0            999 V2000
  -38.4133   25.9233   68.2404 N   0  0  0  0  0  0
  -38.8856   24.8709   67.5582 C   0  0  0  0  0  0
  -38.0499   27.2527   67.7177 C   0  0  2  0  0  0
  -38.7919   23.5045   68.2740 C   0  0  1  0  0  0
  -36.6881   27.4498   68.3785 C   0  0  0  0  0  0
  -39.0907   28.4050   68.0155 C   0  0  0  0  0  0
  -35.4764   27.5269   67.5220 C   0  0  0  0  0  0
  -40.1535   22.7541   68.3552 C   0  0  0  0  0  0
  -37.6887   22.5697   67.6945 C   0  0  0  0  0  0
  -41.4374   24.2929   69.8932 C   0  0  0  0  0  0
  -39.3266   24.9519   66.4155 O   0  0  0  0  0  0
  -36.5792   27.3593   69.6063 O   0  0  0  0  0  0
  -41.3180   23.5418   68.7765 N   0  0  0  0  0  0
  -42.4397   24.9259   70.2306 O   0  0  0  0  0  0
  -35.4246   28.3846   66.4162 C   0  0  0  0  0  0
  -34.3578   26.7642   67.8647 C   0  0  0  0  0  0
  -33.1563   27.6905   65.9914 C   0  0  0  0  0  0
  -33.2118   26.8315   67.0861 C   0  0  0  0  0  0
  -34.2589   28.4666   65.6591 C   0  0  0  0  0  0
  -42.4756   23.3543   68.0115 O   0  0  0  0  0  0
  -36.2797   23.1755   67.4292 C   0  0  0  0  0  0
  -32.0232   27.7590   65.2194 O   0  0  0  0  0  0
  -39.8340   28.2098   69.3638 C   0  0  0  0  0  0
  -40.1431   28.3666   66.8829 C   0  0  0  0  0  0
  -38.4832   29.8374   67.9863 C   0  0  0  0  0  0
  -35.1739   22.0955   67.3359 C   0  0  0  0  0  0
  -36.1618   23.9777   66.1084 C   0  0  0  0  0  0
  -34.8115   23.6097   65.4974 C   0  0  0  0  0  0
  -34.6211   22.1573   65.9095 C   0  0  0  0  0  0
  -38.1207   25.7815   69.1975 H   0  0  0  0  0  0
  -37.8924   27.1835   66.6380 H   0  0  0  0  0  0
  -38.5044   23.7216   69.3043 H   0  0  0  0  0  0
  -40.3609   22.3303   67.3706 H   0  0  0  0  0  0
  -40.0689   21.8816   69.0060 H   0  0  0  0  0  0
  -37.5796   21.7563   68.4115 H   0  0  0  0  0  0
  -38.0428   22.0972   66.7761 H   0  0  0  0  0  0
  -40.5033   24.2798   70.4752 H   0  0  0  0  0  0
  -36.2692   28.9979   66.1379 H   0  0  0  0  0  0
  -34.3743   26.0919   68.7118 H   0  0  0  0  0  0
  -32.3831   26.1994   67.3468 H   0  0  0  0  0  0
  -34.2049   29.1340   64.8159 H   0  0  0  0  0  0
  -42.1842   23.5695   67.1193 H   0  0  0  0  0  0
  -36.0329   23.8344   68.2645 H   0  0  0  0  0  0
  -31.2924   27.2429   65.6141 H   0  0  0  0  0  0
  -39.1357   28.0898   70.1925 H   0  0  0  0  0  0
  -40.4656   29.0660   69.6045 H   0  0  0  0  0  0
  -40.4862   27.3354   69.3493 H   0  0  0  0  0  0
  -39.6880   28.5455   65.9077 H   0  0  0  0  0  0
  -40.6617   27.4080   66.8431 H   0  0  0  0  0  0
  -40.8903   29.1482   67.0134 H   0  0  0  0  0  0
  -38.0834   30.0945   67.0052 H   0  0  0  0  0  0
  -39.2342   30.5938   68.2189 H   0  0  0  0  0  0
  -37.6879   29.9714   68.7208 H   0  0  0  0  0  0
  -34.3793   22.3147   68.0515 H   0  0  0  0  0  0
  -35.5302   21.0903   67.5655 H   0  0  0  0  0  0
  -36.9608   23.7165   65.4136 H   0  0  0  0  0  0
  -36.2292   25.0532   66.2696 H   0  0  0  0  0  0
  -34.0190   24.2309   65.9175 H   0  0  0  0  0  0
  -34.7980   23.7387   64.4150 H   0  0  0  0  0  0
  -33.5849   21.8401   65.8473 H   0  0  0  0  0  0
  -35.1844   21.5007   65.2488 H   0  0  0  0  0  0
  1  2  1  0  0  0
  1  3  1  0  0  0
  1 30  1  0  0  0
  2  4  1  0  0  0
  2 11  2  0  0  0
  3  5  1  0  0  0
  3  6  1  0  0  0
  3 31  1  0  0  0
  4  8  1  0  0  0
  4  9  1  0  0  0
  4 32  1  0  0  0
  5  7  1  0  0  0
  5 12  2  0  0  0
  6 23  1  0  0  0
  6 24  1  0  0  0
  6 25  1  0  0  0
  7 15  2  0  0  0
  7 16  1  0  0  0
  8 13  1  0  0  0
  8 33  1  0  0  0
  8 34  1  0  0  0
  9 21  1  0  0  0
  9 35  1  0  0  0
  9 36  1  0  0  0
 10 13  1  0  0  0
 10 14  2  0  0  0
 10 37  1  0  0  0
 13 20  1  0  0  0
 15 19  1  0  0  0
 15 38  1  0  0  0
 16 18  2  0  0  0
 16 39  1  0  0  0
 17 18  1  0  0  0
 17 22  1  0  0  0
 17 19  2  0  0  0
 18 40  1  0  0  0
 19 41  1  0  0  0
 20 42  1  0  0  0
 21 26  1  0  0  0
 21 27  1  0  0  0
 21 43  1  0  0  0
 22 44  1  0  0  0
 23 45  1  0  0  0
 23 46  1  0  0  0
 23 47  1  0  0  0
 24 48  1  0  0  0
 24 49  1  0  0  0
 24 50  1  0  0  0
 25 51  1  0  0  0
 25 52  1  0  0  0
 25 53  1  0  0  0
 26 29  1  0  0  0
 26 54  1  0  0  0
 26 55  1  0  0  0
 27 28  1  0  0  0
 27 56  1  0  0  0
 27 57  1  0  0  0
 28 29  1  0  0  0
 28 58  1  0  0  0
 28 59  1  0  0  0
 29 60  1  0  0  0
 29 61  1  0  0  0
M  END
> <s_m_entry_id>
40043

> <s_m_entry_name>
dock_pv.67

> <s_m_Source_Path>
/home/csk/Desktop/cluster/DUD-E-result/def

> <s_m_Source_File>
dock_pv.maegz

> <i_m_Source_File_Index>
67

> <chembl_id>
CHEMBL156547

> <chembl_pref_name>
None

> <i_lp_mmshare_version>
53161

> <i_f3d_flags>
0

> <r_lp_tautomer_probability>
0.99990000499975

> <s_lp_Force_Field>
OPLS_2005

> <r_lp_Energy>
50.612227

> <b_lp_Chiralities_Consistent>
1

> <s_lp_Variant>
CHEMBL1795101_lig46-1

> <s_i_glide_gridfile>
glide-grid_1lru

> <i_i_glide_lignum>
82

> <i_i_glide_rotatable_bonds>
13

> <r_i_docking_score>
-6.92401382544211

> <r_i_glide_ligand_efficiency>
-0.238759097429038

> <r_i_glide_ligand_efficiency_sa>
-0.733543591493448

> <r_i_glide_ligand_efficiency_ln>
-1.5854235881849

> <r_i_glide_gscore>
-6.92401382544211

> <r_i_glide_lipo>
-2.74489186420197

> <r_i_glide_hbond>
-0.669810312927352

> <r_i_glide_metal>
0

> <r_i_glide_rewards>
-0.630325639179922

> <r_i_glide_evdw>
-35.2712631225586

> <r_i_glide_ecoul>
-11.9088754653931

> <r_i_glide_erotb>
0.672317857876991

> <r_i_glide_esite>
-0.0014093910729636

> <r_i_glide_emodel>
-59.4875255558873

> <r_i_glide_energy>
-47.1801385879517

> <r_i_glide_einternal>
17.9038562774658

> <i_i_glide_confnum>
393

> <i_i_glide_posenum>
117

> <r_i_glide_eff_state_penalty>
0

> <s_user_duplicate_titles>
CHEMBL1795101_lig46,261878

> <s_m_subgroup_title>
dock_pv

> <s_m_subgroupid>
dock_pv

> <b_m_subgroup_collapsed>
1

$$$$
CHEMBL1795101_lig20
                    3D
 Schrodinger Suite 2021-1.
 43 44  0  0  1  0            999 V2000
  -35.2046   25.8550   68.1512 S   0  0  1  0  0  0
  -36.7504   26.6620   67.6894 C   0  0  0  0  0  0
  -33.1850   26.4190   66.3160 C   0  0  0  0  0  0
  -34.5362   25.6500   66.4179 C   0  0  1  0  0  0
  -33.1851   27.8104   65.6655 C   0  0  0  0  0  0
  -36.6621   27.9244   67.1255 C   0  0  0  0  0  0
  -34.3850   26.9590   68.8150 O   0  0  0  0  0  0
  -37.8098   28.5590   66.6337 C   0  0  0  0  0  0
  -37.9815   26.0414   67.8783 C   0  0  0  0  0  0
  -34.2107   28.3093   65.2150 O   0  0  0  0  0  0
  -39.0820   27.9629   66.8551 C   0  0  0  0  0  0
  -39.1518   26.6953   67.4926 C   0  0  0  0  0  0
  -31.9850   28.3998   65.6150 N   0  0  0  0  0  0
  -31.8995   29.7362   65.2150 O   0  0  0  0  0  0
  -34.3333   24.1449   66.1408 C   0  0  0  0  0  0
  -37.7182   29.7590   65.9071 C   0  0  0  0  0  0
  -40.2279   28.6576   66.4150 C   0  0  0  0  0  0
  -35.5759   23.2406   66.2897 C   0  0  0  0  0  0
  -35.2079   21.7593   66.4864 C   0  0  0  0  0  0
  -34.5483   21.4787   67.8472 C   0  0  0  0  0  0
  -38.8667   30.3992   65.4507 C   0  0  0  0  0  0
  -40.1188   29.8593   65.7178 C   0  0  0  0  0  0
  -32.6306   26.4190   67.2556 H   0  0  0  0  0  0
  -32.5429   25.8557   65.6500 H   0  0  0  0  0  0
  -35.2536   26.0350   65.6916 H   0  0  0  0  0  0
  -35.7074   28.4132   67.0283 H   0  0  0  0  0  0
  -38.0335   25.0632   68.3341 H   0  0  0  0  0  0
  -40.1131   26.2291   67.6535 H   0  0  0  0  0  0
  -31.1568   28.0679   66.1023 H   0  0  0  0  0  0
  -31.0210   29.7832   64.8150 H   0  0  0  0  0  0
  -33.5201   23.7977   66.7775 H   0  0  0  0  0  0
  -33.9850   24.0163   65.1187 H   0  0  0  0  0  0
  -36.7384   30.1590   65.6947 H   0  0  0  0  0  0
  -41.1850   28.2206   66.6009 H   0  0  0  0  0  0
  -36.2027   23.3578   65.4039 H   0  0  0  0  0  0
  -36.2040   23.5446   67.1257 H   0  0  0  0  0  0
  -34.5563   21.4258   65.6769 H   0  0  0  0  0  0
  -36.1124   21.1552   66.4150 H   0  0  0  0  0  0
  -34.3850   20.4130   68.0095 H   0  0  0  0  0  0
  -35.1712   21.8533   68.6563 H   0  0  0  0  0  0
  -33.5850   21.9717   67.9475 H   0  0  0  0  0  0
  -38.7850   31.3199   64.8889 H   0  0  0  0  0  0
  -41.0029   30.3716   65.3668 H   0  0  0  0  0  0
  1  2  1  0  0  0
  1  4  1  0  0  0
  1  7  2  0  0  0
  2  6  2  0  0  0
  2  9  1  0  0  0
  3  4  1  0  0  0
  3  5  1  0  0  0
  3 23  1  0  0  0
  3 24  1  0  0  0
  4 15  1  0  0  0
  4 25  1  0  0  0
  5 10  2  0  0  0
  5 13  1  0  0  0
  6  8  1  0  0  0
  6 26  1  0  0  0
  8 16  2  0  0  0
  8 11  1  0  0  0
  9 12  2  0  0  0
  9 27  1  0  0  0
 11 12  1  0  0  0
 11 17  2  0  0  0
 12 28  1  0  0  0
 13 14  1  0  0  0
 13 29  1  0  0  0
 14 30  1  0  0  0
 15 18  1  0  0  0
 15 31  1  0  0  0
 15 32  1  0  0  0
 16 21  1  0  0  0
 16 33  1  0  0  0
 17 22  1  0  0  0
 17 34  1  0  0  0
 18 19  1  0  0  0
 18 35  1  0  0  0
 18 36  1  0  0  0
 19 20  1  0  0  0
 19 37  1  0  0  0
 19 38  1  0  0  0
 20 39  1  0  0  0
 20 40  1  0  0  0
 20 41  1  0  0  0
 21 22  2  0  0  0
 21 42  1  0  0  0
 22 43  1  0  0  0
M  END
> <s_m_entry_id>
40044

> <s_m_entry_name>
dock_pv.68

> <s_m_Source_Path>
/home/csk/Desktop/cluster/DUD-E-result/def

> <s_m_Source_File>
dock_pv.maegz

> <i_m_Source_File_Index>
68

> <chembl_id>
CHEMBL77577

> <chembl_pref_name>
None

> <i_lp_mmshare_version>
53161

> <i_f3d_flags>
0

> <r_lp_tautomer_probability>
1

> <s_lp_Force_Field>
OPLS_2005

> <r_lp_Energy>
19.76439

> <b_lp_Chiralities_Consistent>
1

> <s_lp_Variant>
CHEMBL1795101_lig20-1

> <s_i_glide_gridfile>
glide-grid_1lru

> <i_i_glide_lignum>
46

> <i_i_glide_rotatable_bonds>
9

> <r_i_docking_score>
-6.91761809276428

> <r_i_glide_ligand_efficiency>
-0.31443718603474

> <r_i_glide_ligand_efficiency_sa>
-0.881065361382143

> <r_i_glide_ligand_efficiency_ln>
-1.69091818812236

> <r_i_glide_gscore>
-6.91761809276428

> <r_i_glide_lipo>
-2.54562378777594

> <r_i_glide_hbond>
-0.516139004110526

> <r_i_glide_metal>
0

> <r_i_glide_rewards>
-1.22669149477899

> <r_i_glide_evdw>
-30.3074474334717

> <r_i_glide_ecoul>
-13.9317798614502

> <r_i_glide_erotb>
1.09725405687873

> <r_i_glide_esite>
-0.121278512086455

> <r_i_glide_emodel>
-59.3071892634103

> <r_i_glide_energy>
-44.2392272949219

> <r_i_glide_einternal>
11.9625988006592

> <i_i_glide_confnum>
17

> <i_i_glide_posenum>
99

> <r_i_glide_eff_state_penalty>
0

> <s_user_duplicate_titles>
CHEMBL1795101_lig20,121509

> <s_m_subgroup_title>
dock_pv

> <s_m_subgroupid>
dock_pv

> <b_m_subgroup_collapsed>
1

$$$$
CHEMBL1795101_lig8
                    3D
 Schrodinger Suite 2021-1.
 32 32  0  0  1  0            999 V2000
  -36.5335   27.5517   67.8499 S   0  0  0  0  0  0
  -35.1405   27.3327   66.5556 C   0  0  1  0  0  0
  -34.1305   28.5101   66.6834 C   0  0  0  0  0  0
  -33.2039   28.6837   65.4655 C   0  0  0  0  0  0
  -35.9850   27.3589   69.1950 O   0  0  0  0  0  0
  -37.2408   28.7964   67.5298 O   0  0  0  0  0  0
  -37.7000   26.2100   67.5968 C   0  0  0  0  0  0
  -33.5850   29.2705   64.4532 O   0  0  0  0  0  0
  -31.9850   28.1590   65.5601 N   0  0  0  0  0  0
  -31.1850   28.1590   64.4150 O   0  0  0  0  0  0
  -34.5056   25.9143   66.5860 C   0  0  0  0  0  0
  -38.9113   26.4505   66.9441 C   0  0  0  0  0  0
  -37.4241   24.9441   68.1215 C   0  0  0  0  0  0
  -33.6402   25.5734   67.8141 C   0  0  0  0  0  0
  -39.8440   25.4237   66.8150 C   0  0  0  0  0  0
  -38.3487   23.9137   67.9727 C   0  0  0  0  0  0
  -39.5559   24.1588   67.3219 C   0  0  0  0  0  0
  -35.6760   27.4409   65.6150 H   0  0  0  0  0  0
  -33.5388   28.4131   67.5942 H   0  0  0  0  0  0
  -34.6853   29.4356   66.8151 H   0  0  0  0  0  0
  -31.5571   27.6481   66.3291 H   0  0  0  0  0  0
  -30.4130   28.6907   64.6465 H   0  0  0  0  0  0
  -35.2846   25.1614   66.4742 H   0  0  0  0  0  0
  -33.8893   25.7922   65.6954 H   0  0  0  0  0  0
  -39.1372   27.4324   66.5534 H   0  0  0  0  0  0
  -36.5000   24.7601   68.6506 H   0  0  0  0  0  0
  -33.2404   24.5624   67.7315 H   0  0  0  0  0  0
  -32.7846   26.2413   67.9074 H   0  0  0  0  0  0
  -34.2034   25.6185   68.7446 H   0  0  0  0  0  0
  -40.7848   25.6036   66.3165 H   0  0  0  0  0  0
  -38.1368   22.9327   68.3727 H   0  0  0  0  0  0
  -40.2771   23.3606   67.2144 H   0  0  0  0  0  0
  1  2  1  0  0  0
  1  5  2  0  0  0
  1  6  2  0  0  0
  1  7  1  0  0  0
  2  3  1  0  0  0
  2 11  1  0  0  0
  2 18  1  0  0  0
  3  4  1  0  0  0
  3 19  1  0  0  0
  3 20  1  0  0  0
  4  8  2  0  0  0
  4  9  1  0  0  0
  7 12  2  0  0  0
  7 13  1  0  0  0
  9 10  1  0  0  0
  9 21  1  0  0  0
 10 22  1  0  0  0
 11 14  1  0  0  0
 11 23  1  0  0  0
 11 24  1  0  0  0
 12 15  1  0  0  0
 12 25  1  0  0  0
 13 16  2  0  0  0
 13 26  1  0  0  0
 14 27  1  0  0  0
 14 28  1  0  0  0
 14 29  1  0  0  0
 15 17  2  0  0  0
 15 30  1  0  0  0
 16 17  1  0  0  0
 16 31  1  0  0  0
 17 32  1  0  0  0
M  END
> <s_m_entry_id>
40045

> <s_m_entry_name>
dock_pv.69

> <s_m_Source_Path>
/home/csk/Desktop/cluster/DUD-E-result/def

> <s_m_Source_File>
dock_pv.maegz

> <i_m_Source_File_Index>
69

> <chembl_id>
CHEMBL77625

> <chembl_pref_name>
None

> <i_lp_mmshare_version>
53161

> <i_f3d_flags>
0

> <r_lp_tautomer_probability>
1

> <s_lp_Force_Field>
OPLS_2005

> <r_lp_Energy>
18.427529

> <b_lp_Chiralities_Consistent>
1

> <s_lp_Variant>
CHEMBL1795101_lig8-2

> <s_i_glide_gridfile>
glide-grid_1lru

> <i_i_glide_lignum>
20

> <i_i_glide_rotatable_bonds>
7

> <r_i_docking_score>
-6.8985989153748

> <r_i_glide_ligand_efficiency>
-0.405799936198518

> <r_i_glide_ligand_efficiency_sa>
-1.04342590445212

> <r_i_glide_ligand_efficiency_ln>
-1.79969083277657

> <r_i_glide_gscore>
-6.8985989153748

> <r_i_glide_lipo>
-1.35208773640586

> <r_i_glide_hbond>
-0.441278456837922

> <r_i_glide_metal>
-0.894436928641122

> <r_i_glide_rewards>
-1.6536341881419

> <r_i_glide_evdw>
-23.2604808807373

> <r_i_glide_ecoul>
-15.7147436141968

> <r_i_glide_erotb>
1.06593975422394

> <r_i_glide_esite>
-0.102865773405556

> <r_i_glide_emodel>
-56.3280980599274

> <r_i_glide_energy>
-38.9752244949341

> <r_i_glide_einternal>
3.89611196517944

> <i_i_glide_confnum>
15

> <i_i_glide_posenum>
302

> <r_i_glide_eff_state_penalty>
0

> <s_user_duplicate_titles>
CHEMBL1795101_lig8

> <s_m_subgroup_title>
dock_pv

> <s_m_subgroupid>
dock_pv

> <b_m_subgroup_collapsed>
1

$$$$
CHEMBL1795101_lig171
                    3D
 Schrodinger Suite 2021-1.
 68 68  0  0  1  0            999 V2000
  -35.4317   26.5877   67.6092 C   0  0  0  0  0  0
  -36.5233   27.0988   67.0118 N   0  0  0  0  0  0
  -34.3791   25.8731   66.7330 C   0  0  1  0  0  0
  -38.8138   26.8335   67.7917 C   0  0  0  0  0  0
  -37.6099   27.7784   67.7282 C   0  0  2  0  0  0
  -39.5023   26.8367   68.9412 N   0  0  0  0  0  0
  -33.0802   26.7176   66.6027 C   0  0  0  0  0  0
  -40.8180   30.6528   69.9985 C   0  0  0  0  0  0
  -35.2224   26.7057   68.8131 O   0  0  0  0  0  0
  -32.5509   28.5653   64.9806 C   0  0  0  0  0  0
  -33.2502   28.0442   66.0084 N   0  0  0  0  0  0
  -39.1002   26.1479   66.8115 O   0  0  0  0  0  0
  -40.7835   29.4832   69.6193 O   0  0  0  0  0  0
  -32.7849   29.6579   64.4571 O   0  0  0  0  0  0
  -40.5103   31.6976   69.2159 N   0  0  0  0  0  0
  -33.9478   28.9606   66.7928 O   0  0  0  0  0  0
  -34.0260   24.4528   67.2706 C   0  0  0  0  0  0
  -40.6290   25.9605   69.2495 C   0  0  0  0  0  0
  -38.0123   29.1282   67.0787 C   0  0  0  0  0  0
  -41.2531   30.9789   71.4201 C   0  0  0  0  0  0
  -40.1120   31.6276   67.8080 C   0  0  0  0  0  0
  -37.8478   30.3278   68.0393 C   0  0  0  0  0  0
  -38.5848   31.6094   67.5954 C   0  0  0  0  0  0
  -35.0173   23.3398   66.8836 C   0  0  0  0  0  0
  -40.2272   24.7676   70.1417 C   0  0  0  0  0  0
  -37.3335   22.3418   67.0244 C   0  0  0  0  0  0
  -36.3366   23.3020   67.6802 C   0  0  0  0  0  0
  -38.6125   21.9913   67.8179 C   0  0  0  0  0  0
  -39.5461   23.1318   68.2574 C   0  0  0  0  0  0
  -39.1382   23.8336   69.5692 C   0  0  0  0  0  0
  -36.6619   26.9616   66.0197 H   0  0  0  0  0  0
  -34.7907   25.7744   65.7261 H   0  0  0  0  0  0
  -37.2991   27.9726   68.7565 H   0  0  0  0  0  0
  -39.2475   27.5090   69.6523 H   0  0  0  0  0  0
  -32.5820   26.8188   67.5698 H   0  0  0  0  0  0
  -32.3855   26.1414   65.9938 H   0  0  0  0  0  0
  -31.7603   27.8782   64.6368 H   0  0  0  0  0  0
  -40.5536   32.6207   69.6242 H   0  0  0  0  0  0
  -33.3594   29.7206   66.8081 H   0  0  0  0  0  0
  -33.0626   24.1512   66.8545 H   0  0  0  0  0  0
  -33.8596   24.4620   68.3501 H   0  0  0  0  0  0
  -41.3850   26.5573   69.7602 H   0  0  0  0  0  0
  -41.0993   25.5982   68.3322 H   0  0  0  0  0  0
  -39.0474   29.0879   66.7357 H   0  0  0  0  0  0
  -37.4288   29.3011   66.1724 H   0  0  0  0  0  0
  -41.8982   31.8578   71.4420 H   0  0  0  0  0  0
  -40.3847   31.1829   72.0428 H   0  0  0  0  0  0
  -41.8012   30.1448   71.8575 H   0  0  0  0  0  0
  -40.5601   30.7486   67.3411 H   0  0  0  0  0  0
  -40.5407   32.4833   67.2841 H   0  0  0  0  0  0
  -36.7849   30.5524   68.1240 H   0  0  0  0  0  0
  -38.1638   30.0644   69.0491 H   0  0  0  0  0  0
  -38.3862   31.7753   66.5380 H   0  0  0  0  0  0
  -38.1531   32.4694   68.1082 H   0  0  0  0  0  0
  -34.5201   22.3765   67.0068 H   0  0  0  0  0  0
  -35.2297   23.4182   65.8157 H   0  0  0  0  0  0
  -39.8962   25.1486   71.1090 H   0  0  0  0  0  0
  -41.1185   24.1774   70.3579 H   0  0  0  0  0  0
  -36.8117   21.4090   66.8145 H   0  0  0  0  0  0
  -37.5850   22.7477   66.0459 H   0  0  0  0  0  0
  -36.7946   24.2869   67.7093 H   0  0  0  0  0  0
  -36.1406   23.0120   68.7133 H   0  0  0  0  0  0
  -38.3602   21.3696   68.6796 H   0  0  0  0  0  0
  -39.2076   21.3586   67.1611 H   0  0  0  0  0  0
  -40.5402   22.7051   68.4033 H   0  0  0  0  0  0
  -39.6610   23.8390   67.4403 H   0  0  0  0  0  0
  -38.2143   24.3940   69.4356 H   0  0  0  0  0  0
  -38.9118   23.0773   70.3221 H   0  0  0  0  0  0
  1  2  1  0  0  0
  1  3  1  0  0  0
  1  9  2  0  0  0
  2  5  1  0  0  0
  2 31  1  0  0  0
  3  7  1  0  0  0
  3 17  1  0  0  0
  3 32  1  0  0  0
  4  5  1  0  0  0
  4  6  1  0  0  0
  4 12  2  0  0  0
  5 19  1  0  0  0
  5 33  1  0  0  0
  6 18  1  0  0  0
  6 34  1  0  0  0
  7 11  1  0  0  0
  7 35  1  0  0  0
  7 36  1  0  0  0
  8 15  1  0  0  0
  8 13  2  0  0  0
  8 20  1  0  0  0
 10 11  1  0  0  0
 10 14  2  0  0  0
 10 37  1  0  0  0
 11 16  1  0  0  0
 15 21  1  0  0  0
 15 38  1  0  0  0
 16 39  1  0  0  0
 17 24  1  0  0  0
 17 40  1  0  0  0
 17 41  1  0  0  0
 18 25  1  0  0  0
 18 42  1  0  0  0
 18 43  1  0  0  0
 19 22  1  0  0  0
 19 44  1  0  0  0
 19 45  1  0  0  0
 20 46  1  0  0  0
 20 47  1  0  0  0
 20 48  1  0  0  0
 21 23  1  0  0  0
 21 49  1  0  0  0
 21 50  1  0  0  0
 22 23  1  0  0  0
 22 51  1  0  0  0
 22 52  1  0  0  0
 23 53  1  0  0  0
 23 54  1  0  0  0
 24 27  1  0  0  0
 24 55  1  0  0  0
 24 56  1  0  0  0
 25 30  1  0  0  0
 25 57  1  0  0  0
 25 58  1  0  0  0
 26 27  1  0  0  0
 26 28  1  0  0  0
 26 59  1  0  0  0
 26 60  1  0  0  0
 27 61  1  0  0  0
 27 62  1  0  0  0
 28 29  1  0  0  0
 28 63  1  0  0  0
 28 64  1  0  0  0
 29 30  1  0  0  0
 29 65  1  0  0  0
 29 66  1  0  0  0
 30 67  1  0  0  0
 30 68  1  0  0  0
M  END
> <s_m_entry_id>
40046

> <s_m_entry_name>
dock_pv.70

> <s_m_Source_Path>
/home/csk/Desktop/cluster/DUD-E-result/def

> <s_m_Source_File>
dock_pv.maegz

> <i_m_Source_File_Index>
70

> <chembl_id>
CHEMBL361449

> <chembl_pref_name>
None

> <i_lp_mmshare_version>
53161

> <i_f3d_flags>
0

> <r_lp_tautomer_probability>
1

> <s_lp_Force_Field>
OPLS_2005

> <r_lp_Energy>
24.881947

> <b_lp_Chiralities_Consistent>
1

> <s_lp_Variant>
CHEMBL1795101_lig171-1

> <s_i_glide_gridfile>
glide-grid_1lru

> <i_i_glide_lignum>
218

> <i_i_glide_rotatable_bonds>
10

> <r_i_docking_score>
-6.89248958034475

> <r_i_glide_ligand_efficiency>
-0.229749652678158

> <r_i_glide_ligand_efficiency_sa>
-0.713885588223828

> <r_i_glide_ligand_efficiency_ln>
-1.56604873234332

> <r_i_glide_gscore>
-6.89248958034475

> <r_i_glide_lipo>
-1.82821568360523

> <r_i_glide_hbond>
-1.21755198807347

> <r_i_glide_metal>
0

> <r_i_glide_rewards>
-0.394621233470292

> <r_i_glide_evdw>
-38.162239074707

> <r_i_glide_ecoul>
-14.5885438919067

> <r_i_glide_erotb>
0.763579315850882

> <r_i_glide_esite>
-0.119286453525275

> <r_i_glide_emodel>
-66.4299544233745

> <r_i_glide_energy>
-52.7507829666138

> <r_i_glide_einternal>
13.7346229553223

> <i_i_glide_confnum>
225

> <i_i_glide_posenum>
116

> <r_i_glide_eff_state_penalty>
0

> <s_user_duplicate_titles>
CHEMBL1795101_lig171,313116

> <s_m_subgroup_title>
dock_pv

> <s_m_subgroupid>
dock_pv

> <b_m_subgroup_collapsed>
1

$$$$
CHEMBL1795101_lig63
                    3D
 Schrodinger Suite 2021-1.
 73 75  0  0  1  0            999 V2000
  -36.0968   25.5262   66.9626 N   0  0  0  0  0  0
  -35.6466   26.5953   67.6635 C   0  0  0  0  0  0
  -36.1177   24.0668   67.2514 C   0  0  2  0  0  0
  -35.7575   27.9565   66.9528 C   0  0  1  0  0  0
  -36.6252   23.7762   68.6775 C   0  0  0  0  0  0
  -41.4777   21.0264   69.9087 N   0  0  0  0  0  0
  -34.7918   23.3097   66.8494 C   0  0  0  0  0  0
  -40.3857   21.8422   69.6006 C   0  0  0  0  0  0
  -37.9932   23.2144   68.9618 C   0  0  0  0  0  0
  -34.7981   28.1069   65.7240 C   0  0  0  0  0  0
  -37.2498   28.2378   66.5888 C   0  0  0  0  0  0
  -32.4616   28.9217   65.2732 C   0  0  0  0  0  0
  -35.1987   26.5581   68.8100 O   0  0  0  0  0  0
  -35.8456   23.9315   69.6151 O   0  0  0  0  0  0
  -33.3442   28.1787   65.9775 N   0  0  0  0  0  0
  -32.7851   29.7488   64.4158 O   0  0  0  0  0  0
  -39.5144   22.2736   70.6076 C   0  0  0  0  0  0
  -40.0656   22.1687   68.2758 C   0  0  0  0  0  0
  -38.3474   22.9585   70.2949 C   0  0  0  0  0  0
  -38.8940   22.8470   67.9550 C   0  0  0  0  0  0
  -43.8446   19.4816   70.5187 O   0  0  0  0  0  0
  -32.7854   27.1235   66.7160 O   0  0  0  0  0  0
  -37.6088   29.7393   66.5803 C   0  0  0  0  0  0
  -42.3388   20.4296   68.8692 C   0  0  0  0  0  0
  -42.2789   21.2372   71.1314 C   0  0  0  0  0  0
  -33.5448   23.7790   67.6347 C   0  0  0  0  0  0
  -34.5098   23.5187   65.3453 C   0  0  0  0  0  0
  -34.9268   21.7784   67.0587 C   0  0  0  0  0  0
  -43.0805   19.1699   69.3628 C   0  0  0  0  0  0
  -43.0271   19.9621   71.5758 C   0  0  0  0  0  0
  -38.7719   30.1063   65.6330 C   0  0  0  0  0  0
  -38.0223   30.2908   67.9608 C   0  0  0  0  0  0
  -38.9670   31.4500   67.6579 C   0  0  0  0  0  0
  -39.7454   30.9887   66.4260 C   0  0  0  0  0  0
  -36.2938   25.7308   65.9909 H   0  0  0  0  0  0
  -36.8435   23.7005   66.5359 H   0  0  0  0  0  0
  -35.4563   28.7027   67.6897 H   0  0  0  0  0  0
  -34.9802   27.3192   64.9947 H   0  0  0  0  0  0
  -35.0910   29.0246   65.2155 H   0  0  0  0  0  0
  -37.9409   27.7290   67.2656 H   0  0  0  0  0  0
  -37.4592   27.8002   65.6154 H   0  0  0  0  0  0
  -31.4174   28.7166   65.5660 H   0  0  0  0  0  0
  -39.6912   22.0358   71.6442 H   0  0  0  0  0  0
  -40.7093   21.8717   67.4645 H   0  0  0  0  0  0
  -37.6879   23.2270   71.1091 H   0  0  0  0  0  0
  -38.7145   23.0212   66.9077 H   0  0  0  0  0  0
  -31.8663   27.0228   66.4144 H   0  0  0  0  0  0
  -36.7176   30.2499   66.2349 H   0  0  0  0  0  0
  -43.0364   21.1768   68.4876 H   0  0  0  0  0  0
  -41.7258   20.1158   68.0254 H   0  0  0  0  0  0
  -41.6525   21.5360   71.9678 H   0  0  0  0  0  0
  -42.9799   22.0568   70.9704 H   0  0  0  0  0  0
  -33.5826   23.4697   68.6784 H   0  0  0  0  0  0
  -32.6296   23.3601   67.2151 H   0  0  0  0  0  0
  -33.4199   24.8571   67.6163 H   0  0  0  0  0  0
  -35.3074   23.1254   64.7145 H   0  0  0  0  0  0
  -34.3838   24.5750   65.1062 H   0  0  0  0  0  0
  -33.5960   23.0001   65.0575 H   0  0  0  0  0  0
  -35.7087   21.3559   66.4273 H   0  0  0  0  0  0
  -33.9929   21.2681   66.8106 H   0  0  0  0  0  0
  -35.1477   21.5119   68.0924 H   0  0  0  0  0  0
  -42.3763   18.3613   69.5722 H   0  0  0  0  0  0
  -43.7486   18.7991   68.5867 H   0  0  0  0  0  0
  -42.3279   19.1906   71.9054 H   0  0  0  0  0  0
  -43.6612   20.1885   72.4342 H   0  0  0  0  0  0
  -39.2853   29.2340   65.2300 H   0  0  0  0  0  0
  -38.3898   30.6625   64.7769 H   0  0  0  0  0  0
  -37.1769   30.6355   68.5518 H   0  0  0  0  0  0
  -38.5382   29.5353   68.5562 H   0  0  0  0  0  0
  -39.6204   31.6887   68.4972 H   0  0  0  0  0  0
  -38.3924   32.3520   67.4269 H   0  0  0  0  0  0
  -40.6237   30.4102   66.7256 H   0  0  0  0  0  0
  -40.1022   31.8395   65.8375 H   0  0  0  0  0  0
  1  2  1  0  0  0
  1  3  1  0  0  0
  1 35  1  0  0  0
  2  4  1  0  0  0
  2 13  2  0  0  0
  3  5  1  0  0  0
  3  7  1  0  0  0
  3 36  1  0  0  0
  4 10  1  0  0  0
  4 11  1  0  0  0
  4 37  1  0  0  0
  5  9  1  0  0  0
  5 14  2  0  0  0
  6  8  1  0  0  0
  6 24  1  0  0  0
  6 25  1  0  0  0
  7 26  1  0  0  0
  7 27  1  0  0  0
  7 28  1  0  0  0
  8 18  2  0  0  0
  8 17  1  0  0  0
  9 19  1  0  0  0
  9 20  2  0  0  0
 10 15  1  0  0  0
 10 38  1  0  0  0
 10 39  1  0  0  0
 11 23  1  0  0  0
 11 40  1  0  0  0
 11 41  1  0  0  0
 12 15  1  0  0  0
 12 16  2  0  0  0
 12 42  1  0  0  0
 15 22  1  0  0  0
 17 19  2  0  0  0
 17 43  1  0  0  0
 18 20  1  0  0  0
 18 44  1  0  0  0
 19 45  1  0  0  0
 20 46  1  0  0  0
 21 30  1  0  0  0
 21 29  1  0  0  0
 22 47  1  0  0  0
 23 31  1  0  0  0
 23 32  1  0  0  0
 23 48  1  0  0  0
 24 29  1  0  0  0
 24 49  1  0  0  0
 24 50  1  0  0  0
 25 30  1  0  0  0
 25 51  1  0  0  0
 25 52  1  0  0  0
 26 53  1  0  0  0
 26 54  1  0  0  0
 26 55  1  0  0  0
 27 56  1  0  0  0
 27 57  1  0  0  0
 27 58  1  0  0  0
 28 59  1  0  0  0
 28 60  1  0  0  0
 28 61  1  0  0  0
 29 62  1  0  0  0
 29 63  1  0  0  0
 30 64  1  0  0  0
 30 65  1  0  0  0
 31 34  1  0  0  0
 31 66  1  0  0  0
 31 67  1  0  0  0
 32 33  1  0  0  0
 32 68  1  0  0  0
 32 69  1  0  0  0
 33 34  1  0  0  0
 33 70  1  0  0  0
 33 71  1  0  0  0
 34 72  1  0  0  0
 34 73  1  0  0  0
M  END
> <s_m_entry_id>
40047

> <s_m_entry_name>
dock_pv.71

> <s_m_Source_Path>
/home/csk/Desktop/cluster/DUD-E-result/def

> <s_m_Source_File>
dock_pv.maegz

> <i_m_Source_File_Index>
71

> <chembl_id>
CHEMBL348888

> <chembl_pref_name>
None

> <i_lp_mmshare_version>
53161

> <i_f3d_flags>
0

> <r_lp_tautomer_probability>
0.99990000499975

> <s_lp_Force_Field>
OPLS_2005

> <r_lp_Energy>
60.035919

> <b_lp_Chiralities_Consistent>
1

> <s_lp_Variant>
CHEMBL1795101_lig63-1

> <s_i_glide_gridfile>
glide-grid_1lru

> <i_i_glide_lignum>
99

> <i_i_glide_rotatable_bonds>
13

> <r_i_docking_score>
-6.85424119112084

> <r_i_glide_ligand_efficiency>
-0.201595329150613

> <r_i_glide_ligand_efficiency_sa>
-0.653090606631067

> <r_i_glide_ligand_efficiency_ln>
-1.5142941340719

> <r_i_glide_gscore>
-6.85424119112084

> <r_i_glide_lipo>
-3.345105417477

> <r_i_glide_hbond>
-1.12070404166088

> <r_i_glide_metal>
0

> <r_i_glide_rewards>
1.37931134541915

> <r_i_glide_evdw>
-42.0910263061523

> <r_i_glide_ecoul>
-16.2338161468506

> <r_i_glide_erotb>
0.811669923993625

> <r_i_glide_esite>
-0.0397892640605324

> <r_i_glide_emodel>
-69.8703900995983

> <r_i_glide_energy>
-58.3248424530029

> <r_i_glide_einternal>
15.7640409469604

> <i_i_glide_confnum>
403

> <i_i_glide_posenum>
247

> <r_i_glide_eff_state_penalty>
0

> <s_user_duplicate_titles>
CHEMBL1795101_lig63

> <s_m_subgroup_title>
dock_pv

> <s_m_subgroupid>
dock_pv

> <b_m_subgroup_collapsed>
1

$$$$
CHEMBL1795101_lig147
                    3D
 Schrodinger Suite 2021-1.
 60 62  0  0  1  0            999 V2000
  -33.0630   28.8358   65.6140 C   0  0  0  0  0  0
  -34.0064   28.5190   66.5248 N   0  0  0  0  0  0
  -33.1851   28.6326   64.4151 O   0  0  0  0  0  0
  -35.2293   27.7437   66.2794 C   0  0  0  0  0  0
  -36.5500   28.3780   66.8232 C   0  0  2  0  0  0
  -37.5667   27.2910   67.2763 C   0  0  0  0  0  0
  -37.1414   29.3984   65.8071 C   0  0  0  0  0  0
  -38.5146   30.0356   66.1618 C   0  0  0  0  0  0
  -38.5482   30.7806   67.5062 C   0  0  0  0  0  0
  -39.6229   31.8524   67.3438 C   0  0  0  0  0  0
  -39.4968   32.2972   65.8878 C   0  0  0  0  0  0
  -38.9968   31.0677   65.1164 C   0  0  0  0  0  0
  -38.2300   26.7117   66.4150 O   0  0  0  0  0  0
  -37.2872   24.6323   69.1826 C   0  0  0  0  0  0
  -37.6601   23.5661   69.6748 O   0  0  0  0  0  0
  -37.7114   26.9710   68.5906 N   0  0  0  0  0  0
  -38.1449   25.6684   68.9665 N   0  0  0  0  0  0
  -39.5379   25.7042   69.4668 C   0  0  0  0  0  0
  -39.5212   26.5572   70.7565 C   0  0  0  0  0  0
  -38.8877   27.9378   70.5062 C   0  0  0  0  0  0
  -37.5224   27.8378   69.7787 C   0  0  0  0  0  0
  -35.8047   24.7584   68.7882 C   0  0  0  0  0  0
  -35.4079   23.8309   67.6517 C   0  0  0  0  0  0
  -35.6400   24.1775   66.3161 C   0  0  0  0  0  0
  -35.1850   23.3496   65.2964 C   0  0  0  0  0  0
  -34.5569   22.1497   65.6163 C   0  0  0  0  0  0
  -34.4019   21.7625   66.9462 C   0  0  0  0  0  0
  -34.8076   22.6101   67.9625 C   0  0  0  0  0  0
  -33.5851   28.5599   67.8568 O   0  0  0  0  0  0
  -32.1753   29.3268   66.0328 H   0  0  0  0  0  0
  -35.0314   26.7710   66.7168 H   0  0  0  0  0  0
  -35.3489   27.5347   65.2153 H   0  0  0  0  0  0
  -36.2671   28.9419   67.7049 H   0  0  0  0  0  0
  -37.2391   28.9589   64.8157 H   0  0  0  0  0  0
  -36.3852   30.1609   65.6661 H   0  0  0  0  0  0
  -39.2598   29.2389   66.1990 H   0  0  0  0  0  0
  -37.5854   31.2371   67.7315 H   0  0  0  0  0  0
  -38.7911   30.1169   68.3335 H   0  0  0  0  0  0
  -39.4907   32.6804   68.0431 H   0  0  0  0  0  0
  -40.6101   31.4227   67.5181 H   0  0  0  0  0  0
  -38.7765   33.1118   65.8065 H   0  0  0  0  0  0
  -40.4418   32.6721   65.4926 H   0  0  0  0  0  0
  -39.8037   30.6494   64.5141 H   0  0  0  0  0  0
  -38.2123   31.3546   64.4158 H   0  0  0  0  0  0
  -40.1749   26.1560   68.7043 H   0  0  0  0  0  0
  -39.9374   24.7073   69.6646 H   0  0  0  0  0  0
  -40.5364   26.6774   71.1357 H   0  0  0  0  0  0
  -38.9725   26.0296   71.5401 H   0  0  0  0  0  0
  -38.7661   28.4757   71.4481 H   0  0  0  0  0  0
  -39.5731   28.5478   69.9153 H   0  0  0  0  0  0
  -36.7660   27.3808   70.4145 H   0  0  0  0  0  0
  -37.1862   28.8455   69.5497 H   0  0  0  0  0  0
  -35.4956   25.7761   68.5746 H   0  0  0  0  0  0
  -35.2165   24.4766   69.6525 H   0  0  0  0  0  0
  -36.1619   25.0823   66.0521 H   0  0  0  0  0  0
  -35.3427   23.6211   64.2632 H   0  0  0  0  0  0
  -34.2330   21.4916   64.8225 H   0  0  0  0  0  0
  -33.9787   20.8082   67.2145 H   0  0  0  0  0  0
  -34.6601   22.3126   68.9907 H   0  0  0  0  0  0
  -32.6160   28.5596   67.7973 H   0  0  0  0  0  0
  1  2  1  0  0  0
  1  3  2  0  0  0
  1 30  1  0  0  0
  2  4  1  0  0  0
  2 29  1  0  0  0
  4  5  1  0  0  0
  4 31  1  0  0  0
  4 32  1  0  0  0
  5  6  1  0  0  0
  5  7  1  0  0  0
  5 33  1  0  0  0
  6 13  2  0  0  0
  6 16  1  0  0  0
  7  8  1  0  0  0
  7 34  1  0  0  0
  7 35  1  0  0  0
  8  9  1  0  0  0
  8 12  1  0  0  0
  8 36  1  0  0  0
  9 10  1  0  0  0
  9 37  1  0  0  0
  9 38  1  0  0  0
 10 11  1  0  0  0
 10 39  1  0  0  0
 10 40  1  0  0  0
 11 12  1  0  0  0
 11 41  1  0  0  0
 11 42  1  0  0  0
 12 43  1  0  0  0
 12 44  1  0  0  0
 14 17  1  0  0  0
 14 15  2  0  0  0
 14 22  1  0  0  0
 16 17  1  0  0  0
 16 21  1  0  0  0
 17 18  1  0  0  0
 18 19  1  0  0  0
 18 45  1  0  0  0
 18 46  1  0  0  0
 19 20  1  0  0  0
 19 47  1  0  0  0
 19 48  1  0  0  0
 20 21  1  0  0  0
 20 49  1  0  0  0
 20 50  1  0  0  0
 21 51  1  0  0  0
 21 52  1  0  0  0
 22 23  1  0  0  0
 22 53  1  0  0  0
 22 54  1  0  0  0
 23 24  2  0  0  0
 23 28  1  0  0  0
 24 25  1  0  0  0
 24 55  1  0  0  0
 25 26  2  0  0  0
 25 56  1  0  0  0
 26 27  1  0  0  0
 26 57  1  0  0  0
 27 28  2  0  0  0
 27 58  1  0  0  0
 28 59  1  0  0  0
 29 60  1  0  0  0
M  END
> <s_m_entry_id>
40048

> <s_m_entry_name>
dock_pv.72

> <s_m_Source_Path>
/home/csk/Desktop/cluster/DUD-E-result/def

> <s_m_Source_File>
dock_pv.maegz

> <i_m_Source_File_Index>
72

> <chembl_id>
CHEMBL1796100

> <chembl_pref_name>
None

> <i_lp_mmshare_version>
53161

> <i_f3d_flags>
0

> <r_lp_tautomer_probability>
1

> <s_lp_Force_Field>
OPLS_2005

> <r_lp_Energy>
51.98908

> <b_lp_Chiralities_Consistent>
1

> <s_lp_Variant>
CHEMBL1795101_lig147-1

> <s_i_glide_gridfile>
glide-grid_1lru

> <i_i_glide_lignum>
192

> <i_i_glide_rotatable_bonds>
11

> <r_i_docking_score>
-6.84673408612658

> <r_i_glide_ligand_efficiency>
-0.236094278831951

> <r_i_glide_ligand_efficiency_sa>
-0.725356424489406

> <r_i_glide_ligand_efficiency_ln>
-1.56772848752675

> <r_i_glide_gscore>
-6.84673408612658

> <r_i_glide_lipo>
-2.79106717372602

> <r_i_glide_hbond>
-0.153969664967401

> <r_i_glide_metal>
-2.00529007186185

> <r_i_glide_rewards>
0.929221392297244

> <r_i_glide_evdw>
-40.7941627502441

> <r_i_glide_ecoul>
-11.6182432174683

> <r_i_glide_erotb>
0.973421792104856

> <r_i_glide_esite>
-0.0166057398409681

> <r_i_glide_emodel>
-61.7388527231505

> <r_i_glide_energy>
-52.4124059677124

> <r_i_glide_einternal>
15.3689708709717

> <i_i_glide_confnum>
325

> <i_i_glide_posenum>
64

> <r_i_glide_eff_state_penalty>
0

> <s_user_duplicate_titles>
CHEMBL1795101_lig147

> <s_m_subgroup_title>
dock_pv

> <s_m_subgroupid>
dock_pv

> <b_m_subgroup_collapsed>
1

$$$$
CHEMBL1795101_lig80
                    3D
 Schrodinger Suite 2021-1.
 58 58  0  0  1  0            999 V2000
  -39.2291   26.1898   67.6150 C   0  0  0  0  0  0
  -36.8431   26.8679   67.0803 N   0  0  0  0  0  0
  -38.1095   27.2853   67.7059 C   0  0  1  0  0  0
  -35.6629   26.8351   67.7252 C   0  0  0  0  0  0
  -38.9867   24.8542   67.4820 N   0  0  0  0  0  0
  -34.4685   26.1178   67.0674 C   0  0  1  0  0  0
  -38.5378   28.7957   67.3963 C   0  0  0  0  0  0
  -33.2764   27.0803   66.8025 C   0  0  0  0  0  0
  -40.3850   26.5885   67.6757 O   0  0  0  0  0  0
  -32.5427   28.8532   65.2137 C   0  0  0  0  0  0
  -35.4994   27.3590   68.8150 O   0  0  0  0  0  0
  -33.4936   28.0681   65.7471 N   0  0  0  0  0  0
  -32.7850   29.7590   64.4150 O   0  0  0  0  0  0
  -34.7898   28.5590   65.6150 O   0  0  0  0  0  0
  -40.0967   23.8898   67.4483 C   0  0  0  0  0  0
  -37.6906   24.1725   67.5356 C   0  0  0  0  0  0
  -34.0235   24.9292   67.9646 C   0  0  0  0  0  0
  -37.3320   29.7627   67.2563 C   0  0  0  0  0  0
  -39.4422   29.3816   68.5156 C   0  0  0  0  0  0
  -39.2793   28.9174   66.0371 C   0  0  0  0  0  0
  -33.4137   23.7515   67.1880 C   0  0  0  0  0  0
  -34.3697   23.1829   66.1251 C   0  0  0  0  0  0
  -38.0312   22.6848   67.4517 C   0  0  0  0  0  0
  -39.4562   22.6002   67.9524 C   0  0  0  0  0  0
  -34.0991   21.7340   65.7752 C   0  0  0  0  0  0
  -36.9173   26.4890   66.1469 H   0  0  0  0  0  0
  -37.9250   27.2826   68.7817 H   0  0  0  0  0  0
  -34.8188   25.7439   66.1070 H   0  0  0  0  0  0
  -33.0037   27.5936   67.7257 H   0  0  0  0  0  0
  -32.3988   26.4937   66.5355 H   0  0  0  0  0  0
  -31.5330   28.5715   65.5601 H   0  0  0  0  0  0
  -35.2085   27.9349   65.0160 H   0  0  0  0  0  0
  -40.4100   23.7590   66.4150 H   0  0  0  0  0  0
  -40.9323   24.1616   68.0958 H   0  0  0  0  0  0
  -37.1911   24.3760   68.4839 H   0  0  0  0  0  0
  -37.0669   24.4411   66.6857 H   0  0  0  0  0  0
  -33.3218   25.2728   68.7277 H   0  0  0  0  0  0
  -34.8646   24.5254   68.5329 H   0  0  0  0  0  0
  -36.8494   29.6758   66.2862 H   0  0  0  0  0  0
  -37.6368   30.8074   67.3305 H   0  0  0  0  0  0
  -36.5735   29.6017   68.0150 H   0  0  0  0  0  0
  -40.3807   28.8447   68.6371 H   0  0  0  0  0  0
  -38.9303   29.3772   69.4795 H   0  0  0  0  0  0
  -39.7136   30.4187   68.3121 H   0  0  0  0  0  0
  -40.2270   28.3836   66.0149 H   0  0  0  0  0  0
  -39.5213   29.9574   65.8104 H   0  0  0  0  0  0
  -38.6588   28.5593   65.2162 H   0  0  0  0  0  0
  -32.4619   24.0343   66.7350 H   0  0  0  0  0  0
  -33.1850   22.9729   67.9162 H   0  0  0  0  0  0
  -35.3866   23.2189   66.5010 H   0  0  0  0  0  0
  -34.3499   23.7833   65.2150 H   0  0  0  0  0  0
  -37.3336   22.0652   68.0161 H   0  0  0  0  0  0
  -37.9850   22.3487   66.4150 H   0  0  0  0  0  0
  -39.9873   21.7120   67.6082 H   0  0  0  0  0  0
  -39.4679   22.5814   69.0438 H   0  0  0  0  0  0
  -34.9021   21.3491   65.1536 H   0  0  0  0  0  0
  -33.1850   21.6072   65.2150 H   0  0  0  0  0  0
  -34.0293   21.1247   66.6778 H   0  0  0  0  0  0
  1  3  1  0  0  0
  1  5  1  0  0  0
  1  9  2  0  0  0
  2  3  1  0  0  0
  2  4  1  0  0  0
  2 26  1  0  0  0
  3  7  1  0  0  0
  3 27  1  0  0  0
  4  6  1  0  0  0
  4 11  2  0  0  0
  5 15  1  0  0  0
  5 16  1  0  0  0
  6  8  1  0  0  0
  6 17  1  0  0  0
  6 28  1  0  0  0
  7 18  1  0  0  0
  7 19  1  0  0  0
  7 20  1  0  0  0
  8 12  1  0  0  0
  8 29  1  0  0  0
  8 30  1  0  0  0
 10 12  1  0  0  0
 10 13  2  0  0  0
 10 31  1  0  0  0
 12 14  1  0  0  0
 14 32  1  0  0  0
 15 24  1  0  0  0
 15 33  1  0  0  0
 15 34  1  0  0  0
 16 23  1  0  0  0
 16 35  1  0  0  0
 16 36  1  0  0  0
 17 21  1  0  0  0
 17 37  1  0  0  0
 17 38  1  0  0  0
 18 39  1  0  0  0
 18 40  1  0  0  0
 18 41  1  0  0  0
 19 42  1  0  0  0
 19 43  1  0  0  0
 19 44  1  0  0  0
 20 45  1  0  0  0
 20 46  1  0  0  0
 20 47  1  0  0  0
 21 22  1  0  0  0
 21 48  1  0  0  0
 21 49  1  0  0  0
 22 25  1  0  0  0
 22 50  1  0  0  0
 22 51  1  0  0  0
 23 24  1  0  0  0
 23 52  1  0  0  0
 23 53  1  0  0  0
 24 54  1  0  0  0
 24 55  1  0  0  0
 25 56  1  0  0  0
 25 57  1  0  0  0
 25 58  1  0  0  0
M  END
> <s_m_entry_id>
40049

> <s_m_entry_name>
dock_pv.73

> <s_m_Source_Path>
/home/csk/Desktop/cluster/DUD-E-result/def

> <s_m_Source_File>
dock_pv.maegz

> <i_m_Source_File_Index>
73

> <chembl_id>
CHEMBL419878

> <chembl_pref_name>
None

> <i_lp_mmshare_version>
53161

> <i_f3d_flags>
0

> <r_lp_tautomer_probability>
1

> <s_lp_Force_Field>
OPLS_2005

> <r_lp_Energy>
36.7585

> <b_lp_Chiralities_Consistent>
1

> <s_lp_Variant>
CHEMBL1795101_lig80-1

> <s_i_glide_gridfile>
glide-grid_1lru

> <i_i_glide_lignum>
119

> <i_i_glide_rotatable_bonds>
13

> <r_i_docking_score>
-6.81797310871196

> <r_i_glide_ligand_efficiency>
-0.272718924348478

> <r_i_glide_ligand_efficiency_sa>
-0.797434971485669

> <r_i_glide_ligand_efficiency_ln>
-1.61606394493134

> <r_i_glide_gscore>
-6.81797310871196

> <r_i_glide_lipo>
-2.1167504616714

> <r_i_glide_hbond>
-1.11979811837211

> <r_i_glide_metal>
0

> <r_i_glide_rewards>
-0.944863517152982

> <r_i_glide_evdw>
-37.7055854797363

> <r_i_glide_ecoul>
-12.8786735534668

> <r_i_glide_erotb>
1.21056550229468

> <r_i_glide_esite>
-0.0300462068033082

> <r_i_glide_emodel>
-68.857577905516

> <r_i_glide_energy>
-50.5842590332031

> <r_i_glide_einternal>
7.97715377807617

> <i_i_glide_confnum>
307

> <i_i_glide_posenum>
234

> <r_i_glide_eff_state_penalty>
0

> <s_user_duplicate_titles>
CHEMBL1795101_lig80,148179

> <s_m_subgroup_title>
dock_pv

> <s_m_subgroupid>
dock_pv

> <b_m_subgroup_collapsed>
1

$$$$
CHEMBL1795101_lig103
                    3D
 Schrodinger Suite 2021-1.
 41 43  0  0  1  0            999 V2000
  -35.0232   25.3481   67.1234 S   0  0  0  0  0  0
  -36.6473   25.0353   67.8205 N   0  0  0  0  0  0
  -35.0217   27.1002   67.3849 N   0  0  2  0  0  0
  -37.5616   27.2124   67.0693 C   0  0  0  0  0  0
  -37.7502   25.8617   67.4535 C   0  0  0  0  0  0
  -36.1882   27.7989   66.8202 C   0  0  0  0  0  0
  -33.6988   27.7952   67.2415 C   0  0  0  0  0  0
  -33.2713   28.0420   65.7739 C   0  0  0  0  0  0
  -35.0109   25.0313   65.6923 O   0  0  0  0  0  0
  -33.9767   24.7500   67.9614 O   0  0  0  0  0  0
  -36.8150   23.6738   68.3591 C   0  0  0  0  0  0
  -38.6853   28.0130   66.8140 C   0  0  0  0  0  0
  -33.9845   27.7587   64.8151 O   0  0  0  0  0  0
  -32.0523   28.5595   65.6152 N   0  0  0  0  0  0
  -38.5298   29.6643   66.3131 Cl  0  0  0  0  0  0
  -37.6934   23.5900   69.6095 C   0  0  0  0  0  0
  -39.0626   25.3490   67.4767 C   0  0  0  0  0  0
  -31.4970   28.5589   64.3646 O   0  0  0  0  0  0
  -40.1648   26.1556   67.2184 C   0  0  0  0  0  0
  -39.9647   27.4922   66.9031 C   0  0  0  0  0  0
  -38.6314   22.5592   69.7187 C   0  0  0  0  0  0
  -37.5385   24.5025   70.6565 C   0  0  0  0  0  0
  -38.3396   24.4057   71.7913 C   0  0  0  0  0  0
  -39.4292   22.4572   70.8558 C   0  0  0  0  0  0
  -39.2797   23.3817   71.8870 C   0  0  0  0  0  0
  -36.1463   28.8261   67.1851 H   0  0  0  0  0  0
  -36.0887   27.8447   65.7366 H   0  0  0  0  0  0
  -32.9308   27.1779   67.7095 H   0  0  0  0  0  0
  -33.7373   28.7479   67.7686 H   0  0  0  0  0  0
  -37.2051   23.0308   67.5683 H   0  0  0  0  0  0
  -35.8447   23.2588   68.6348 H   0  0  0  0  0  0
  -31.3883   28.7861   66.3508 H   0  0  0  0  0  0
  -39.2608   24.3152   67.7079 H   0  0  0  0  0  0
  -30.7628   27.9337   64.4370 H   0  0  0  0  0  0
  -41.1741   25.7545   67.2603 H   0  0  0  0  0  0
  -40.7940   28.1393   66.6883 H   0  0  0  0  0  0
  -38.7445   21.8345   68.9245 H   0  0  0  0  0  0
  -36.7956   25.2837   70.5866 H   0  0  0  0  0  0
  -38.2222   25.1150   72.5969 H   0  0  0  0  0  0
  -40.1588   21.6642   70.9371 H   0  0  0  0  0  0
  -39.8943   23.2995   72.7719 H   0  0  0  0  0  0
  1  2  1  0  0  0
  1  3  1  0  0  0
  1  9  2  0  0  0
  1 10  2  0  0  0
  2  5  1  0  0  0
  2 11  1  0  0  0
  3  6  1  0  0  0
  3  7  1  0  0  0
  4  6  1  0  0  0
  4 12  2  0  0  0
  4  5  1  0  0  0
  5 17  2  0  0  0
  6 26  1  0  0  0
  6 27  1  0  0  0
  7  8  1  0  0  0
  7 28  1  0  0  0
  7 29  1  0  0  0
  8 13  2  0  0  0
  8 14  1  0  0  0
 11 16  1  0  0  0
 11 30  1  0  0  0
 11 31  1  0  0  0
 12 15  1  0  0  0
 12 20  1  0  0  0
 14 18  1  0  0  0
 14 32  1  0  0  0
 16 21  1  0  0  0
 16 22  2  0  0  0
 17 19  1  0  0  0
 17 33  1  0  0  0
 18 34  1  0  0  0
 19 20  2  0  0  0
 19 35  1  0  0  0
 20 36  1  0  0  0
 21 24  2  0  0  0
 21 37  1  0  0  0
 22 23  1  0  0  0
 22 38  1  0  0  0
 23 25  2  0  0  0
 23 39  1  0  0  0
 24 25  1  0  0  0
 24 40  1  0  0  0
 25 41  1  0  0  0
M  END
> <s_m_entry_id>
40050

> <s_m_entry_name>
dock_pv.74

> <s_m_Source_Path>
/home/csk/Desktop/cluster/DUD-E-result/def

> <s_m_Source_File>
dock_pv.maegz

> <i_m_Source_File_Index>
74

> <chembl_id>
CHEMBL300110

> <chembl_pref_name>
None

> <i_lp_mmshare_version>
53161

> <i_f3d_flags>
0

> <r_lp_tautomer_probability>
1

> <s_lp_Force_Field>
OPLS_2005

> <r_lp_Energy>
25.175796

> <b_lp_Chiralities_Consistent>
1

> <s_lp_Variant>
CHEMBL1795101_lig103-1

> <s_i_glide_gridfile>
glide-grid_1lru

> <i_i_glide_lignum>
146

> <i_i_glide_rotatable_bonds>
6

> <r_i_docking_score>
-6.80533680904859

> <r_i_glide_ligand_efficiency>
-0.272213472361944

> <r_i_glide_ligand_efficiency_sa>
-0.795957020912812

> <r_i_glide_ligand_efficiency_ln>
-1.61306876323178

> <r_i_glide_gscore>
-6.80533680904859

> <r_i_glide_lipo>
-1.64642731818434

> <r_i_glide_hbond>
-0.463358965888155

> <r_i_glide_metal>
-1.44127745969563

> <r_i_glide_rewards>
-0.798088792866543

> <r_i_glide_evdw>
-32.6143379211426

> <r_i_glide_ecoul>
-9.27530956268311

> <r_i_glide_erotb>
0.665829058045677

> <r_i_glide_esite>
-0.1

> <r_i_glide_emodel>
-59.391891080017

> <r_i_glide_energy>
-41.8896474838257

> <r_i_glide_einternal>
4.15691184997559

> <i_i_glide_confnum>
212

> <i_i_glide_posenum>
188

> <r_i_glide_eff_state_penalty>
0

> <s_user_duplicate_titles>
CHEMBL1795101_lig103

> <s_m_subgroup_title>
dock_pv

> <s_m_subgroupid>
dock_pv

> <b_m_subgroup_collapsed>
1

$$$$
CHEMBL1795101_lig95
                    3D
 Schrodinger Suite 2021-1.
 54 53  0  0  1  0            999 V2000
  -39.2204   26.7016   67.3037 C   0  0  0  0  0  0
  -36.7295   26.6776   67.1047 N   0  0  0  0  0  0
  -35.5245   26.5535   67.6798 C   0  0  0  0  0  0
  -37.8702   27.3630   67.7234 C   0  0  1  0  0  0
  -34.4026   25.9158   66.8363 C   0  0  1  0  0  0
  -39.3879   25.3580   67.4536 N   0  0  0  0  0  0
  -33.2285   26.9127   66.6193 C   0  0  0  0  0  0
  -40.1024   27.4100   66.8154 O   0  0  0  0  0  0
  -32.5400   28.8050   65.1522 C   0  0  0  0  0  0
  -35.2816   26.9590   68.8149 O   0  0  0  0  0  0
  -33.4898   28.0208   65.6898 N   0  0  0  0  0  0
  -32.7850   29.7590   64.4151 O   0  0  0  0  0  0
  -37.7940   28.9155   67.4654 C   0  0  2  0  0  0
  -34.7829   28.5585   65.6564 O   0  0  0  0  0  0
  -33.9251   24.5852   67.4739 C   0  0  0  0  0  0
  -40.5834   24.6686   66.9604 C   0  0  0  0  0  0
  -38.5224   24.4764   68.2440 C   0  0  0  0  0  0
  -38.7010   29.7387   68.4124 C   0  0  0  0  0  0
  -37.9661   29.3539   65.9894 C   0  0  0  0  0  0
  -34.9986   23.4653   67.4544 C   0  0  0  0  0  0
  -34.4595   22.0680   67.1071 C   0  0  0  0  0  0
  -38.2982   31.2167   68.5299 C   0  0  0  0  0  0
  -33.9849   21.9493   65.6461 C   0  0  0  0  0  0
  -36.8695   26.3496   66.1591 H   0  0  0  0  0  0
  -37.8220   27.2312   68.8057 H   0  0  0  0  0  0
  -34.7923   25.6687   65.8460 H   0  0  0  0  0  0
  -32.8731   27.3035   67.5759 H   0  0  0  0  0  0
  -32.3855   26.3575   66.2123 H   0  0  0  0  0  0
  -31.5244   28.4692   65.4244 H   0  0  0  0  0  0
  -36.7737   29.2017   67.7292 H   0  0  0  0  0  0
  -35.2534   27.9746   65.0555 H   0  0  0  0  0  0
  -33.5789   24.7495   68.4974 H   0  0  0  0  0  0
  -33.0332   24.2528   66.9435 H   0  0  0  0  0  0
  -41.2181   24.3606   67.7921 H   0  0  0  0  0  0
  -41.1844   25.2803   66.2871 H   0  0  0  0  0  0
  -40.2918   23.7712   66.4151 H   0  0  0  0  0  0
  -37.7047   24.9882   68.7496 H   0  0  0  0  0  0
  -39.1051   23.9770   69.0201 H   0  0  0  0  0  0
  -38.0917   23.7038   67.6051 H   0  0  0  0  0  0
  -39.7411   29.6799   68.0918 H   0  0  0  0  0  0
  -38.6728   29.3091   69.4144 H   0  0  0  0  0  0
  -39.0014   29.3093   65.6554 H   0  0  0  0  0  0
  -37.6357   30.3803   65.8416 H   0  0  0  0  0  0
  -37.3782   28.7331   65.3166 H   0  0  0  0  0  0
  -35.7905   23.7011   66.7412 H   0  0  0  0  0  0
  -35.4876   23.4326   68.4289 H   0  0  0  0  0  0
  -35.2417   21.3274   67.2835 H   0  0  0  0  0  0
  -33.6523   21.8165   67.7942 H   0  0  0  0  0  0
  -38.8901   31.7203   69.2950 H   0  0  0  0  0  0
  -37.2509   31.3202   68.8152 H   0  0  0  0  0  0
  -38.4510   31.7568   67.5948 H   0  0  0  0  0  0
  -33.5854   20.9591   65.4309 H   0  0  0  0  0  0
  -33.1854   22.6560   65.4315 H   0  0  0  0  0  0
  -34.7923   22.1417   64.9404 H   0  0  0  0  0  0
  1  4  1  0  0  0
  1  6  1  0  0  0
  1  8  2  0  0  0
  2  4  1  0  0  0
  2  3  1  0  0  0
  2 24  1  0  0  0
  3  5  1  0  0  0
  3 10  2  0  0  0
  4 13  1  0  0  0
  4 25  1  0  0  0
  5  7  1  0  0  0
  5 15  1  0  0  0
  5 26  1  0  0  0
  6 16  1  0  0  0
  6 17  1  0  0  0
  7 11  1  0  0  0
  7 27  1  0  0  0
  7 28  1  0  0  0
  9 11  1  0  0  0
  9 12  2  0  0  0
  9 29  1  0  0  0
 11 14  1  0  0  0
 13 18  1  0  0  0
 13 19  1  0  0  0
 13 30  1  0  0  0
 14 31  1  0  0  0
 15 20  1  0  0  0
 15 32  1  0  0  0
 15 33  1  0  0  0
 16 34  1  0  0  0
 16 35  1  0  0  0
 16 36  1  0  0  0
 17 37  1  0  0  0
 17 38  1  0  0  0
 17 39  1  0  0  0
 18 22  1  0  0  0
 18 40  1  0  0  0
 18 41  1  0  0  0
 19 42  1  0  0  0
 19 43  1  0  0  0
 19 44  1  0  0  0
 20 21  1  0  0  0
 20 45  1  0  0  0
 20 46  1  0  0  0
 21 23  1  0  0  0
 21 47  1  0  0  0
 21 48  1  0  0  0
 22 49  1  0  0  0
 22 50  1  0  0  0
 22 51  1  0  0  0
 23 52  1  0  0  0
 23 53  1  0  0  0
 23 54  1  0  0  0
M  END
> <s_m_entry_id>
40051

> <s_m_entry_name>
dock_pv.75

> <s_m_Source_Path>
/home/csk/Desktop/cluster/DUD-E-result/def

> <s_m_Source_File>
dock_pv.maegz

> <i_m_Source_File_Index>
75

> <chembl_id>
CHEMBL90925

> <chembl_pref_name>
None

> <i_lp_mmshare_version>
53161

> <i_f3d_flags>
0

> <r_lp_tautomer_probability>
1

> <s_lp_Force_Field>
OPLS_2005

> <r_lp_Energy>
22.559209

> <b_lp_Chiralities_Consistent>
1

> <s_lp_Variant>
CHEMBL1795101_lig95-1

> <s_i_glide_gridfile>
glide-grid_1lru

> <i_i_glide_lignum>
136

> <i_i_glide_rotatable_bonds>
14

> <r_i_docking_score>
-6.80067062109521

> <r_i_glide_ligand_efficiency>
-0.295681331351966

> <r_i_glide_ligand_efficiency_sa>
-0.840878373911548

> <r_i_glide_ligand_efficiency_ln>
-1.64446382125268

> <r_i_glide_gscore>
-6.80067062109521

> <r_i_glide_lipo>
-2.04998774023019

> <r_i_glide_hbond>
-0.974897131503233

> <r_i_glide_metal>
0

> <r_i_glide_rewards>
-1.12504643219278

> <r_i_glide_evdw>
-37.6945190429688

> <r_i_glide_ecoul>
-15.3170289993286

> <r_i_glide_erotb>
1.5586238775871

> <r_i_glide_esite>
-0.027082892708377

> <r_i_glide_emodel>
-72.0933847626846

> <r_i_glide_energy>
-53.0115480422974

> <r_i_glide_einternal>
8.12190818786621

> <i_i_glide_confnum>
17

> <i_i_glide_posenum>
397

> <r_i_glide_eff_state_penalty>
0

> <s_user_duplicate_titles>
CHEMBL1795101_lig95

> <s_m_subgroup_title>
dock_pv

> <s_m_subgroupid>
dock_pv

> <b_m_subgroup_collapsed>
1

$$$$
50935
                    3D
 Schrodinger Suite 2021-1.
 39 41  0  0  1  0            999 V2000
  -34.4916   22.1392   65.8061 C   0  0  0  0  0  0
  -35.1668   23.2160   65.2417 C   0  0  0  0  0  0
  -35.8222   24.1187   66.0672 C   0  0  0  0  0  0
  -35.7773   23.9604   67.4600 C   0  0  0  0  0  0
  -35.1161   22.8645   68.0150 C   0  0  0  0  0  0
  -34.4865   21.9439   67.1857 C   0  0  0  0  0  0
  -36.3457   25.0276   68.3970 C   0  0  0  0  0  0
  -36.3243   26.3950   67.8184 N   0  0  0  0  0  0
  -37.5442   26.9442   67.3120 C   0  0  0  0  0  0
  -38.7143   26.1745   67.1811 C   0  0  0  0  0  0
  -39.9212   26.7625   66.8150 C   0  0  0  0  0  0
  -39.9850   28.1286   66.5464 C   0  0  0  0  0  0
  -38.8400   28.9048   66.6372 C   0  0  0  0  0  0
  -37.6355   28.3206   67.0159 C   0  0  0  0  0  0
  -36.2399   29.3590   67.2150 S   0  0  0  0  0  0
  -35.0082   28.1321   66.7245 C   0  0  2  0  0  0
  -35.0796   26.9652   67.7505 C   0  0  0  0  0  0
  -34.1016   26.5590   68.3875 O   0  0  0  0  0  0
  -33.5959   28.7950   66.6821 C   0  0  0  0  0  0
  -32.9080   28.7215   65.3215 C   0  0  0  0  0  0
  -33.1850   29.5081   64.4150 O   0  0  0  0  0  0
  -31.9850   27.7693   65.2150 N   0  0  0  0  0  0
  -31.1850   27.7590   64.0686 O   0  0  0  0  0  0
  -33.9913   21.4295   65.1624 H   0  0  0  0  0  0
  -35.1850   23.3431   64.1690 H   0  0  0  0  0  0
  -36.3284   24.9590   65.6151 H   0  0  0  0  0  0
  -35.0688   22.7357   69.0867 H   0  0  0  0  0  0
  -33.9850   21.0890   67.6138 H   0  0  0  0  0  0
  -35.7565   25.0170   69.3145 H   0  0  0  0  0  0
  -37.3336   24.7246   68.7359 H   0  0  0  0  0  0
  -38.7254   25.1110   67.3585 H   0  0  0  0  0  0
  -40.7995   26.1437   66.7297 H   0  0  0  0  0  0
  -40.9099   28.5948   66.2508 H   0  0  0  0  0  0
  -38.8896   29.9650   66.4306 H   0  0  0  0  0  0
  -35.3382   27.7503   65.7543 H   0  0  0  0  0  0
  -33.6028   29.8311   67.0060 H   0  0  0  0  0  0
  -32.9198   28.3438   67.4019 H   0  0  0  0  0  0
  -31.6293   27.1375   65.9363 H   0  0  0  0  0  0
  -30.2971   27.9664   64.3946 H   0  0  0  0  0  0
  1  6  1  0  0  0
  1  2  2  0  0  0
  1 24  1  0  0  0
  2  3  1  0  0  0
  2 25  1  0  0  0
  3  4  2  0  0  0
  3 26  1  0  0  0
  4  5  1  0  0  0
  4  7  1  0  0  0
  5  6  2  0  0  0
  5 27  1  0  0  0
  6 28  1  0  0  0
  7  8  1  0  0  0
  7 29  1  0  0  0
  7 30  1  0  0  0
  8 17  1  0  0  0
  8  9  1  0  0  0
  9 14  2  0  0  0
  9 10  1  0  0  0
 10 11  2  0  0  0
 10 31  1  0  0  0
 11 12  1  0  0  0
 11 32  1  0  0  0
 12 13  2  0  0  0
 12 33  1  0  0  0
 13 14  1  0  0  0
 13 34  1  0  0  0
 14 15  1  0  0  0
 15 16  1  0  0  0
 16 17  1  0  0  0
 16 19  1  0  0  0
 16 35  1  0  0  0
 17 18  2  0  0  0
 19 20  1  0  0  0
 19 36  1  0  0  0
 19 37  1  0  0  0
 20 21  2  0  0  0
 20 22  1  0  0  0
 22 23  1  0  0  0
 22 38  1  0  0  0
 23 39  1  0  0  0
M  END
> <s_m_entry_id>
40192

> <s_m_entry_name>
ligand_docking-pose.1

> <s_m_Source_Path>
/home/csk/Desktop/cluster/DUD-E-result/def

> <s_m_Source_File>
ligand_docking-pose.sdf

> <i_m_Source_File_Index>
1

> <i_lp_mmshare_version>
53161

> <r_lp_tautomer_probability>
1

> <s_lp_Force_Field>
OPLS_2005

> <r_lp_Energy>
39.185998

> <b_lp_Chiralities_Consistent>
1

> <s_lp_Variant>
50935-2

> <s_i_glide_gridfile>
glide-grid_1lru

> <i_i_glide_lignum>
70

> <i_i_glide_rotatable_bonds>
6

> <r_i_docking_score>
-10.5812171829903

> <r_i_glide_ligand_efficiency>
-0.460052920999579

> <r_i_glide_ligand_efficiency_sa>
-1.30832930964754

> <r_i_glide_ligand_efficiency_ln>
-2.55863426001987

> <r_i_glide_gscore>
-10.5812171829903

> <r_i_glide_lipo>
-2.90305672034082

> <r_i_glide_hbond>
-1.07141890347216

> <r_i_glide_metal>
-2.3

> <r_i_glide_rewards>
-1.16870370045821

> <r_i_glide_evdw>
-29.3126754760742

> <r_i_glide_ecoul>
-16.165922164917

> <r_i_glide_erotb>
0.870792989745497

> <r_i_glide_esite>
-0.118308749923352

> <r_i_glide_emodel>
-72.0772388627736

> <r_i_glide_energy>
-45.4785976409912

> <r_i_glide_einternal>
6.42058229446411

> <i_i_glide_confnum>
32

> <i_i_glide_posenum>
87

> <r_i_glide_eff_state_penalty>
0

> <i_f3d_flags>
0

> <s_user_duplicate_titles>
50935

> <s_m_subgroup_title>
dock_pv

> <s_m_subgroupid>
dock_pv1

> <b_m_subgroup_collapsed>
0

$$$$
50757
                    3D
 Schrodinger Suite 2021-1.
 43 45  0  0  1  0            999 V2000
  -39.9843   27.0133   66.8150 C   0  0  0  0  0  0
  -39.9862   28.3598   66.4578 C   0  0  0  0  0  0
  -38.8106   29.0905   66.5197 C   0  0  0  0  0  0
  -37.6321   28.4686   66.9193 C   0  0  0  0  0  0
  -37.5819   27.0914   67.2175 C   0  0  0  0  0  0
  -38.8002   26.3897   67.1884 C   0  0  0  0  0  0
  -36.3597   26.4844   67.6541 N   0  0  0  0  0  0
  -35.1266   27.0840   67.6854 C   0  0  0  0  0  0
  -34.1989   26.7186   68.4149 O   0  0  0  0  0  0
  -35.0061   28.2654   66.6810 C   0  0  1  0  0  0
  -36.2332   29.4701   67.2149 S   0  0  0  0  0  0
  -33.5840   28.9259   66.6872 C   0  0  0  0  0  0
  -32.8513   28.9590   65.3357 C   0  0  0  0  0  0
  -33.1850   29.7088   64.4150 O   0  0  0  0  0  0
  -31.7999   28.1590   65.2355 N   0  0  0  0  0  0
  -31.1767   28.0963   64.0150 O   0  0  0  0  0  0
  -36.4313   25.1241   68.2376 C   0  0  0  0  0  0
  -36.5358   23.9541   67.2143 C   0  0  2  0  0  0
  -36.1595   22.6109   67.8555 C   0  0  0  0  0  0
  -34.6357   22.4661   68.0325 C   0  0  0  0  0  0
  -33.8937   22.8090   66.7300 C   0  0  0  0  0  0
  -34.3948   24.0998   66.0768 C   0  0  0  0  0  0
  -35.8161   24.1183   65.9890 O   0  0  0  0  0  0
  -40.8894   26.4304   66.8149 H   0  0  0  0  0  0
  -40.8964   28.8539   66.1582 H   0  0  0  0  0  0
  -38.8211   30.1484   66.2962 H   0  0  0  0  0  0
  -38.8818   25.3588   67.4826 H   0  0  0  0  0  0
  -35.3111   27.9118   65.6921 H   0  0  0  0  0  0
  -33.5850   29.9281   67.1130 H   0  0  0  0  0  0
  -32.9247   28.3983   67.3690 H   0  0  0  0  0  0
  -31.3715   27.5457   65.9304 H   0  0  0  0  0  0
  -30.3073   28.4926   64.1659 H   0  0  0  0  0  0
  -35.5594   24.9250   68.8601 H   0  0  0  0  0  0
  -37.2515   25.0760   68.9543 H   0  0  0  0  0  0
  -37.5698   23.8848   66.8859 H   0  0  0  0  0  0
  -36.6701   22.5566   68.8150 H   0  0  0  0  0  0
  -36.5481   21.7911   67.2493 H   0  0  0  0  0  0
  -34.2870   23.1236   68.8302 H   0  0  0  0  0  0
  -34.3851   21.4533   68.3518 H   0  0  0  0  0  0
  -32.8353   22.9590   66.9391 H   0  0  0  0  0  0
  -33.9850   21.9819   66.0239 H   0  0  0  0  0  0
  -34.0016   24.9623   66.6017 H   0  0  0  0  0  0
  -33.9927   24.1590   65.0685 H   0  0  0  0  0  0
  1  6  1  0  0  0
  1  2  2  0  0  0
  1 24  1  0  0  0
  2  3  1  0  0  0
  2 25  1  0  0  0
  3  4  2  0  0  0
  3 26  1  0  0  0
  4 11  1  0  0  0
  4  5  1  0  0  0
  5  6  2  0  0  0
  5  7  1  0  0  0
  6 27  1  0  0  0
  7  8  1  0  0  0
  7 17  1  0  0  0
  8  9  2  0  0  0
  8 10  1  0  0  0
 10 11  1  0  0  0
 10 12  1  0  0  0
 10 28  1  0  0  0
 12 13  1  0  0  0
 12 29  1  0  0  0
 12 30  1  0  0  0
 13 14  2  0  0  0
 13 15  1  0  0  0
 15 16  1  0  0  0
 15 31  1  0  0  0
 16 32  1  0  0  0
 17 18  1  0  0  0
 17 33  1  0  0  0
 17 34  1  0  0  0
 18 23  1  0  0  0
 18 19  1  0  0  0
 18 35  1  0  0  0
 19 20  1  0  0  0
 19 36  1  0  0  0
 19 37  1  0  0  0
 20 21  1  0  0  0
 20 38  1  0  0  0
 20 39  1  0  0  0
 21 22  1  0  0  0
 21 40  1  0  0  0
 21 41  1  0  0  0
 22 23  1  0  0  0
 22 42  1  0  0  0
 22 43  1  0  0  0
M  END
> <s_m_entry_id>
40193

> <s_m_entry_name>
ligand_docking-pose.2

> <s_m_Source_Path>
/home/csk/Desktop/cluster/DUD-E-result/def

> <s_m_Source_File>
ligand_docking-pose.sdf

> <i_m_Source_File_Index>
2

> <i_lp_mmshare_version>
53161

> <r_lp_tautomer_probability>
1

> <s_lp_Force_Field>
OPLS_2005

> <r_lp_Energy>
36.886009

> <b_lp_Chiralities_Consistent>
1

> <s_lp_Variant>
50757-1

> <s_i_glide_gridfile>
glide-grid_1lru

> <i_i_glide_lignum>
35

> <i_i_glide_rotatable_bonds>
6

> <r_i_docking_score>
-10.2445360019651

> <r_i_glide_ligand_efficiency>
-0.44541460878109

> <r_i_glide_ligand_efficiency_sa>
-1.26669989693214

> <r_i_glide_ligand_efficiency_ln>
-2.4772216975918

> <r_i_glide_gscore>
-10.2445360019651

> <r_i_glide_lipo>
-2.65885293856761

> <r_i_glide_hbond>
-1.1662821548557

> <r_i_glide_metal>
-2.3

> <r_i_glide_rewards>
-1.11458384817386

> <r_i_glide_evdw>
-25.8879413604736

> <r_i_glide_ecoul>
-16.2604103088379

> <r_i_glide_erotb>
0.83440972386949

> <r_i_glide_esite>
-0.105768169888034

> <r_i_glide_emodel>
-68.9196093990722

> <r_i_glide_energy>
-42.1483516693115

> <r_i_glide_einternal>
7.49698400497437

> <i_i_glide_confnum>
114

> <i_i_glide_posenum>
285

> <r_i_glide_eff_state_penalty>
0

> <i_f3d_flags>
0

> <s_user_duplicate_titles>
50757

> <s_m_subgroup_title>
dock_pv

> <s_m_subgroupid>
dock_pv1

> <b_m_subgroup_collapsed>
0

$$$$
50758
                    3D
 Schrodinger Suite 2021-1.
 45 47  0  0  1  0            999 V2000
  -39.8935   26.8024   66.8150 C   0  0  0  0  0  0
  -39.9688   28.1590   66.5054 C   0  0  0  0  0  0
  -38.8310   28.9499   66.5832 C   0  0  0  0  0  0
  -37.6194   28.3871   66.9755 C   0  0  0  0  0  0
  -37.5061   27.0175   67.2803 C   0  0  0  0  0  0
  -38.6768   26.2386   67.1956 C   0  0  0  0  0  0
  -36.2674   26.4935   67.7719 N   0  0  0  0  0  0
  -35.0307   27.0838   67.7054 C   0  0  0  0  0  0
  -34.0415   26.6788   68.3263 O   0  0  0  0  0  0
  -34.9731   28.2674   66.6996 C   0  0  1  0  0  0
  -36.2458   29.4427   67.2150 S   0  0  0  0  0  0
  -33.5673   28.9590   66.6879 C   0  0  0  0  0  0
  -32.8434   28.9672   65.3353 C   0  0  0  0  0  0
  -33.1850   29.7117   64.4150 O   0  0  0  0  0  0
  -31.7978   28.1590   65.2343 N   0  0  0  0  0  0
  -31.1713   28.0936   64.0150 O   0  0  0  0  0  0
  -36.2723   25.1377   68.3581 C   0  0  0  0  0  0
  -36.0991   24.0054   67.3115 C   0  0  0  0  0  0
  -35.0377   24.2617   66.2098 C   0  0  0  0  0  0
  -35.0350   23.1214   65.1857 C   0  0  0  0  0  0
  -34.7847   21.7607   65.8579 C   0  0  0  0  0  0
  -35.7305   21.5111   67.0585 C   0  0  0  0  0  0
  -35.7418   22.7017   68.0349 C   0  0  0  0  0  0
  -40.7768   26.1822   66.7637 H   0  0  0  0  0  0
  -40.8993   28.6100   66.2039 H   0  0  0  0  0  0
  -38.8936   30.0069   66.3641 H   0  0  0  0  0  0
  -38.6820   25.1889   67.4395 H   0  0  0  0  0  0
  -35.2826   27.8953   65.7194 H   0  0  0  0  0  0
  -33.5850   29.9695   67.0920 H   0  0  0  0  0  0
  -32.8893   28.4693   67.3767 H   0  0  0  0  0  0
  -31.3707   27.5477   65.9320 H   0  0  0  0  0  0
  -30.3003   28.4853   64.1686 H   0  0  0  0  0  0
  -35.4897   25.0354   69.1127 H   0  0  0  0  0  0
  -37.1839   24.9827   68.9354 H   0  0  0  0  0  0
  -37.0536   23.8528   66.8064 H   0  0  0  0  0  0
  -35.2456   25.1923   65.6816 H   0  0  0  0  0  0
  -34.0494   24.4008   66.6521 H   0  0  0  0  0  0
  -35.9851   23.1123   64.6605 H   0  0  0  0  0  0
  -34.2949   23.3003   64.4153 H   0  0  0  0  0  0
  -34.8827   20.9804   65.1043 H   0  0  0  0  0  0
  -33.7513   21.7201   66.1968 H   0  0  0  0  0  0
  -36.7457   21.3590   66.6941 H   0  0  0  0  0  0
  -35.4447   20.6016   67.5885 H   0  0  0  0  0  0
  -34.7907   22.7952   68.5630 H   0  0  0  0  0  0
  -36.4885   22.5590   68.8150 H   0  0  0  0  0  0
  1  6  1  0  0  0
  1  2  2  0  0  0
  1 24  1  0  0  0
  2  3  1  0  0  0
  2 25  1  0  0  0
  3  4  2  0  0  0
  3 26  1  0  0  0
  4 11  1  0  0  0
  4  5  1  0  0  0
  5  6  2  0  0  0
  5  7  1  0  0  0
  6 27  1  0  0  0
  7  8  1  0  0  0
  7 17  1  0  0  0
  8  9  2  0  0  0
  8 10  1  0  0  0
 10 11  1  0  0  0
 10 12  1  0  0  0
 10 28  1  0  0  0
 12 13  1  0  0  0
 12 29  1  0  0  0
 12 30  1  0  0  0
 13 14  2  0  0  0
 13 15  1  0  0  0
 15 16  1  0  0  0
 15 31  1  0  0  0
 16 32  1  0  0  0
 17 18  1  0  0  0
 17 33  1  0  0  0
 17 34  1  0  0  0
 18 23  1  0  0  0
 18 19  1  0  0  0
 18 35  1  0  0  0
 19 20  1  0  0  0
 19 36  1  0  0  0
 19 37  1  0  0  0
 20 21  1  0  0  0
 20 38  1  0  0  0
 20 39  1  0  0  0
 21 22  1  0  0  0
 21 40  1  0  0  0
 21 41  1  0  0  0
 22 23  1  0  0  0
 22 42  1  0  0  0
 22 43  1  0  0  0
 23 44  1  0  0  0
 23 45  1  0  0  0
M  END
> <s_m_entry_id>
40194

> <s_m_entry_name>
ligand_docking-pose.3

> <s_m_Source_Path>
/home/csk/Desktop/cluster/DUD-E-result/def

> <s_m_Source_File>
ligand_docking-pose.sdf

> <i_m_Source_File_Index>
3

> <i_lp_mmshare_version>
53161

> <r_lp_tautomer_probability>
1

> <s_lp_Force_Field>
OPLS_2005

> <r_lp_Energy>
39.27434

> <b_lp_Chiralities_Consistent>
1

> <s_lp_Variant>
50758-1

> <s_i_glide_gridfile>
glide-grid_1lru

> <i_i_glide_lignum>
33

> <i_i_glide_rotatable_bonds>
6

> <r_i_docking_score>
-10.135728167856

> <r_i_glide_ligand_efficiency>
-0.440683833385042

> <r_i_glide_ligand_efficiency_sa>
-1.25324620100828

> <r_i_glide_ligand_efficiency_ln>
-2.45091097668933

> <r_i_glide_gscore>
-10.135728167856

> <r_i_glide_lipo>
-2.71919225780294

> <r_i_glide_hbond>
-1.1250146932206

> <r_i_glide_metal>
-2.3

> <r_i_glide_rewards>
-1.12841401725725

> <r_i_glide_evdw>
-24.2128372192383

> <r_i_glide_ecoul>
-15.923716545105

> <r_i_glide_erotb>
0.843143399983737

> <r_i_glide_esite>
-0.107051256831262

> <r_i_glide_emodel>
-67.3142315679015

> <r_i_glide_energy>
-40.1365537643433

> <r_i_glide_einternal>
6.56250047683716

> <i_i_glide_confnum>
11

> <i_i_glide_posenum>
130

> <r_i_glide_eff_state_penalty>
0

> <i_f3d_flags>
0

> <s_user_duplicate_titles>
50758

> <s_m_subgroup_title>
dock_pv

> <s_m_subgroupid>
dock_pv1

> <b_m_subgroup_collapsed>
0

$$$$
51521
                    3D
 Schrodinger Suite 2021-1.
 42 44  0  0  1  0            999 V2000
  -34.4676   22.8056   65.8954 C   0  0  0  0  0  0
  -35.5117   23.5943   65.4165 C   0  0  0  0  0  0
  -36.4912   24.0451   66.2958 C   0  0  0  0  0  0
  -36.4107   23.7238   67.6530 C   0  0  0  0  0  0
  -35.3478   22.9591   68.1313 C   0  0  0  0  0  0
  -34.3858   22.4876   67.2486 C   0  0  0  0  0  0
  -37.4647   24.2288   68.6224 C   0  0  0  0  0  0
  -37.1880   25.6376   69.2101 C   0  0  0  0  0  0
  -36.7313   26.6817   68.2529 N   0  0  0  0  0  0
  -37.7338   27.4087   67.5407 C   0  0  0  0  0  0
  -39.0518   26.9546   67.4508 C   0  0  0  0  0  0
  -40.0189   27.7156   66.8164 C   0  0  0  0  0  0
  -39.7244   28.9590   66.2656 C   0  0  0  0  0  0
  -38.4272   29.4403   66.3558 C   0  0  0  0  0  0
  -37.4520   28.6778   66.9962 C   0  0  0  0  0  0
  -35.8675   29.3590   67.2147 S   0  0  0  0  0  0
  -34.9969   27.8011   66.9498 C   0  0  2  0  0  0
  -35.3752   26.8393   68.1105 C   0  0  0  0  0  0
  -34.5281   26.2737   68.8076 O   0  0  0  0  0  0
  -33.4776   28.1023   66.9053 C   0  0  0  0  0  0
  -32.9339   28.5297   65.5373 C   0  0  0  0  0  0
  -33.4966   29.3503   64.8141 O   0  0  0  0  0  0
  -31.8062   27.9069   65.2150 N   0  0  0  0  0  0
  -31.1850   28.1590   64.0150 O   0  0  0  0  0  0
  -33.7165   22.4359   65.2145 H   0  0  0  0  0  0
  -35.5704   23.8454   64.3680 H   0  0  0  0  0  0
  -37.2964   24.6606   65.9236 H   0  0  0  0  0  0
  -35.2641   22.7271   69.1831 H   0  0  0  0  0  0
  -33.5850   21.8747   67.6235 H   0  0  0  0  0  0
  -37.5891   23.5187   69.4413 H   0  0  0  0  0  0
  -38.4297   24.1829   68.1228 H   0  0  0  0  0  0
  -36.4602   25.5058   70.0104 H   0  0  0  0  0  0
  -38.0603   25.9868   69.7645 H   0  0  0  0  0  0
  -39.3734   26.0253   67.8850 H   0  0  0  0  0  0
  -41.0169   27.3263   66.8151 H   0  0  0  0  0  0
  -40.4887   29.5535   65.7863 H   0  0  0  0  0  0
  -38.1846   30.4145   65.9542 H   0  0  0  0  0  0
  -35.3712   27.3572   66.0230 H   0  0  0  0  0  0
  -33.2050   28.8769   67.6220 H   0  0  0  0  0  0
  -32.9135   27.2197   67.2202 H   0  0  0  0  0  0
  -31.2739   27.2373   65.7850 H   0  0  0  0  0  0
  -30.3689   28.6228   64.2507 H   0  0  0  0  0  0
  1  6  1  0  0  0
  1  2  2  0  0  0
  1 25  1  0  0  0
  2  3  1  0  0  0
  2 26  1  0  0  0
  3  4  2  0  0  0
  3 27  1  0  0  0
  4  5  1  0  0  0
  4  7  1  0  0  0
  5  6  2  0  0  0
  5 28  1  0  0  0
  6 29  1  0  0  0
  7  8  1  0  0  0
  7 30  1  0  0  0
  7 31  1  0  0  0
  8  9  1  0  0  0
  8 32  1  0  0  0
  8 33  1  0  0  0
  9 18  1  0  0  0
  9 10  1  0  0  0
 10 15  2  0  0  0
 10 11  1  0  0  0
 11 12  2  0  0  0
 11 34  1  0  0  0
 12 13  1  0  0  0
 12 35  1  0  0  0
 13 14  2  0  0  0
 13 36  1  0  0  0
 14 15  1  0  0  0
 14 37  1  0  0  0
 15 16  1  0  0  0
 16 17  1  0  0  0
 17 18  1  0  0  0
 17 20  1  0  0  0
 17 38  1  0  0  0
 18 19  2  0  0  0
 20 21  1  0  0  0
 20 39  1  0  0  0
 20 40  1  0  0  0
 21 22  2  0  0  0
 21 23  1  0  0  0
 23 24  1  0  0  0
 23 41  1  0  0  0
 24 42  1  0  0  0
M  END
> <s_m_entry_id>
40195

> <s_m_entry_name>
ligand_docking-pose.4

> <s_m_Source_Path>
/home/csk/Desktop/cluster/DUD-E-result/def

> <s_m_Source_File>
ligand_docking-pose.sdf

> <i_m_Source_File_Index>
4

> <i_lp_mmshare_version>
53161

> <r_lp_tautomer_probability>
1

> <s_lp_Force_Field>
OPLS_2005

> <r_lp_Energy>
32.517884

> <b_lp_Chiralities_Consistent>
1

> <s_lp_Variant>
51521-2

> <s_i_glide_gridfile>
glide-grid_1lru

> <i_i_glide_lignum>
64

> <i_i_glide_rotatable_bonds>
7

> <r_i_docking_score>
-9.90335107478141

> <r_i_glide_ligand_efficiency>
-0.412639628115892

> <r_i_glide_ligand_efficiency_sa>
-1.19025865142301

> <r_i_glide_ligand_efficiency_ln>
-2.37032634736462

> <r_i_glide_gscore>
-9.90335107478141

> <r_i_glide_lipo>
-2.92452423913364

> <r_i_glide_hbond>
-0.780270176602098

> <r_i_glide_metal>
-2.3

> <r_i_glide_rewards>
-1.07445599935628

> <r_i_glide_evdw>
-23.8520526885986

> <r_i_glide_ecoul>
-16.4117813110352

> <r_i_glide_erotb>
0.97037352749467

> <r_i_glide_esite>
-0.140104356098863

> <r_i_glide_emodel>
-68.4437378339295

> <r_i_glide_energy>
-40.2638339996338

> <r_i_glide_einternal>
4.09976530075073

> <i_i_glide_confnum>
51

> <i_i_glide_posenum>
163

> <r_i_glide_eff_state_penalty>
0

> <i_f3d_flags>
0

> <s_user_duplicate_titles>
51521

> <s_m_subgroup_title>
dock_pv

> <s_m_subgroupid>
dock_pv1

> <b_m_subgroup_collapsed>
0

$$$$
51102
                    3D
 Schrodinger Suite 2021-1.
 43 44  0  0  1  0            999 V2000
  -35.4243   23.8891   65.2877 C   0  0  0  0  0  0
  -34.7924   23.2277   66.5302 C   0  0  0  0  0  0
  -34.4969   21.7590   66.2064 C   0  0  0  0  0  0
  -35.6924   23.3184   67.7904 C   0  0  0  0  0  0
  -35.6363   24.6175   68.6412 C   0  0  0  0  0  0
  -35.8489   25.8999   67.9217 N   0  0  0  0  0  0
  -37.1885   26.2767   67.6015 C   0  0  0  0  0  0
  -38.2880   25.4163   67.7845 C   0  0  0  0  0  0
  -39.5788   25.8199   67.4553 C   0  0  0  0  0  0
  -39.7941   27.1013   66.9641 C   0  0  0  0  0  0
  -38.7315   27.9816   66.8150 C   0  0  0  0  0  0
  -37.4357   27.5839   67.1412 C   0  0  0  0  0  0
  -36.2675   28.5362   67.0418 C   0  0  0  0  0  0
  -34.9943   27.7875   66.5854 C   0  0  2  0  0  0
  -34.7151   26.5294   67.4721 C   0  0  0  0  0  0
  -33.5690   26.1246   67.6812 O   0  0  0  0  0  0
  -33.7630   28.7460   66.6040 C   0  0  0  0  0  0
  -32.9470   28.7636   65.3053 C   0  0  0  0  0  0
  -33.1850   29.5809   64.4150 O   0  0  0  0  0  0
  -31.9850   27.8467   65.2150 N   0  0  0  0  0  0
  -31.1850   27.8479   64.0740 O   0  0  0  0  0  0
  -36.3899   23.4446   65.0470 H   0  0  0  0  0  0
  -35.5850   24.9564   65.4082 H   0  0  0  0  0  0
  -34.7850   23.7647   64.4150 H   0  0  0  0  0  0
  -33.8360   23.7096   66.7378 H   0  0  0  0  0  0
  -35.4376   21.2403   66.0223 H   0  0  0  0  0  0
  -33.8711   21.6528   65.3189 H   0  0  0  0  0  0
  -33.9853   21.2616   67.0315 H   0  0  0  0  0  0
  -35.4180   22.5146   68.4744 H   0  0  0  0  0  0
  -36.7142   23.0744   67.5061 H   0  0  0  0  0  0
  -34.6654   24.6339   69.1407 H   0  0  0  0  0  0
  -36.3493   24.5539   69.4641 H   0  0  0  0  0  0
  -38.1784   24.4243   68.1874 H   0  0  0  0  0  0
  -40.4096   25.1424   67.5897 H   0  0  0  0  0  0
  -40.7850   27.4257   66.7099 H   0  0  0  0  0  0
  -38.9148   28.9841   66.4553 H   0  0  0  0  0  0
  -36.4937   29.3487   66.3483 H   0  0  0  0  0  0
  -36.1132   28.9959   68.0150 H   0  0  0  0  0  0
  -35.1624   27.4024   65.5768 H   0  0  0  0  0  0
  -34.0748   29.7590   66.8150 H   0  0  0  0  0  0
  -33.1111   28.5437   67.4481 H   0  0  0  0  0  0
  -31.6631   27.1789   65.9192 H   0  0  0  0  0  0
  -30.2972   28.0451   64.4047 H   0  0  0  0  0  0
  1  2  1  0  0  0
  1 22  1  0  0  0
  1 23  1  0  0  0
  1 24  1  0  0  0
  2  3  1  0  0  0
  2  4  1  0  0  0
  2 25  1  0  0  0
  3 26  1  0  0  0
  3 27  1  0  0  0
  3 28  1  0  0  0
  4  5  1  0  0  0
  4 29  1  0  0  0
  4 30  1  0  0  0
  5  6  1  0  0  0
  5 31  1  0  0  0
  5 32  1  0  0  0
  6 15  1  0  0  0
  6  7  1  0  0  0
  7 12  2  0  0  0
  7  8  1  0  0  0
  8  9  2  0  0  0
  8 33  1  0  0  0
  9 10  1  0  0  0
  9 34  1  0  0  0
 10 11  2  0  0  0
 10 35  1  0  0  0
 11 12  1  0  0  0
 11 36  1  0  0  0
 12 13  1  0  0  0
 13 14  1  0  0  0
 13 37  1  0  0  0
 13 38  1  0  0  0
 14 15  1  0  0  0
 14 17  1  0  0  0
 14 39  1  0  0  0
 15 16  2  0  0  0
 17 18  1  0  0  0
 17 40  1  0  0  0
 17 41  1  0  0  0
 18 19  2  0  0  0
 18 20  1  0  0  0
 20 21  1  0  0  0
 20 42  1  0  0  0
 21 43  1  0  0  0
M  END
> <s_m_entry_id>
40197

> <s_m_entry_name>
ligand_docking-pose.6

> <s_m_Source_Path>
/home/csk/Desktop/cluster/DUD-E-result/def

> <s_m_Source_File>
ligand_docking-pose.sdf

> <i_m_Source_File_Index>
6

> <i_lp_mmshare_version>
53161

> <r_lp_tautomer_probability>
1

> <s_lp_Force_Field>
OPLS_2005

> <r_lp_Energy>
35.11285

> <b_lp_Chiralities_Consistent>
1

> <s_lp_Variant>
51102-2

> <s_i_glide_gridfile>
glide-grid_1lru

> <i_i_glide_lignum>
229

> <i_i_glide_rotatable_bonds>
7

> <r_i_docking_score>
-9.60504112890971

> <r_i_glide_ligand_efficiency>
-0.457382910900462

> <r_i_glide_ligand_efficiency_sa>
-1.26188476946625

> <r_i_glide_ligand_efficiency_ln>
-2.37482701030982

> <r_i_glide_gscore>
-9.60504112890971

> <r_i_glide_lipo>
-2.77415341548483

> <r_i_glide_hbond>
-0.779965757752765

> <r_i_glide_metal>
-2.3

> <r_i_glide_rewards>
-1.42937010567806

> <r_i_glide_evdw>
-25.7889347076416

> <r_i_glide_ecoul>
-13.3638639450073

> <r_i_glide_erotb>
1.08078812545886

> <r_i_glide_esite>
-0.108313648319736

> <r_i_glide_emodel>
-62.2631922740881

> <r_i_glide_energy>
-39.1527986526489

> <r_i_glide_einternal>
5.51915550231934

> <i_i_glide_confnum>
28

> <i_i_glide_posenum>
99

> <r_i_glide_eff_state_penalty>
0

> <i_f3d_flags>
0

> <s_user_duplicate_titles>
51102

> <s_m_subgroup_title>
dock_pv

> <s_m_subgroupid>
dock_pv1

> <b_m_subgroup_collapsed>
0

$$$$
50360
                    3D
 Schrodinger Suite 2021-1.
 61 61  0  0  1  0            999 V2000
  -34.3850   22.1188   68.7824 C   0  0  0  0  0  0
  -35.5391   22.9507   68.2252 C   0  0  0  0  0  0
  -35.5923   22.9873   66.6865 C   0  0  0  0  0  0
  -34.3119   23.4914   65.9865 C   0  0  0  0  0  0
  -33.6308   24.7593   66.5618 C   0  0  0  0  0  0
  -34.3314   26.1212   66.3163 C   0  0  1  0  0  0
  -35.4768   26.3968   67.3169 C   0  0  0  0  0  0
  -35.2127   26.8784   68.4213 O   0  0  0  0  0  0
  -36.7152   26.0692   66.8980 N   0  0  0  0  0  0
  -37.9980   26.1825   67.6263 C   0  0  2  0  0  0
  -38.3403   27.6804   67.9650 C   0  0  0  0  0  0
  -39.6612   27.8822   68.7392 C   0  0  0  0  0  0
  -38.3539   28.5764   66.7099 C   0  0  0  0  0  0
  -38.0558   25.3178   68.9309 C   0  0  0  0  0  0
  -37.3882   25.7016   69.8942 O   0  0  0  0  0  0
  -38.8340   24.1986   69.0152 N   0  0  0  0  0  0
  -38.7392   23.3403   70.2096 C   0  0  0  0  0  0
  -39.1346   21.9655   69.6820 C   0  0  0  0  0  0
  -40.1862   22.2762   68.6476 C   0  0  0  0  0  0
  -39.7815   23.6305   68.0240 C   0  0  1  0  0  0
  -41.0160   24.5188   67.6987 C   0  0  0  0  0  0
  -42.1107   23.7590   67.2151 O   0  0  0  0  0  0
  -33.3381   27.1922   66.4343 N   0  0  0  0  0  0
  -33.1340   28.1590   65.5401 C   0  0  0  0  0  0
  -33.5850   28.1590   64.4150 O   0  0  0  0  0  0
  -32.3850   29.1335   66.0150 N   0  0  0  0  0  0
  -31.9850   30.1590   65.1951 O   0  0  0  0  0  0
  -34.7400   26.1051   65.3031 H   0  0  0  0  0  0
  -39.2312   23.4555   67.0985 H   0  0  0  0  0  0
  -34.3851   22.0966   69.8724 H   0  0  0  0  0  0
  -34.4063   21.0920   68.4149 H   0  0  0  0  0  0
  -33.4387   22.5590   68.4791 H   0  0  0  0  0  0
  -35.4670   23.9562   68.6352 H   0  0  0  0  0  0
  -36.4815   22.5590   68.5931 H   0  0  0  0  0  0
  -36.4512   23.5711   66.3623 H   0  0  0  0  0  0
  -35.7995   21.9771   66.3324 H   0  0  0  0  0  0
  -34.5166   23.6365   64.9245 H   0  0  0  0  0  0
  -33.5837   22.6801   66.0197 H   0  0  0  0  0  0
  -32.6429   24.8021   66.1038 H   0  0  0  0  0  0
  -33.4010   24.6394   67.6212 H   0  0  0  0  0  0
  -36.7901   25.7500   65.9407 H   0  0  0  0  0  0
  -38.7316   25.8228   66.9143 H   0  0  0  0  0  0
  -37.5505   28.0780   68.6061 H   0  0  0  0  0  0
  -40.4977   27.4417   68.2001 H   0  0  0  0  0  0
  -39.6278   27.4346   69.7327 H   0  0  0  0  0  0
  -39.8752   28.9417   68.8832 H   0  0  0  0  0  0
  -39.1297   28.2595   66.0149 H   0  0  0  0  0  0
  -38.5481   29.6174   66.9705 H   0  0  0  0  0  0
  -37.4001   28.5563   66.1817 H   0  0  0  0  0  0
  -39.4662   23.6763   70.9507 H   0  0  0  0  0  0
  -37.7367   23.3085   70.6418 H   0  0  0  0  0  0
  -39.4833   21.3012   70.4735 H   0  0  0  0  0  0
  -38.2940   21.4691   69.2033 H   0  0  0  0  0  0
  -41.1379   22.3671   69.1754 H   0  0  0  0  0  0
  -40.3205   21.4933   67.8996 H   0  0  0  0  0  0
  -40.7863   25.2933   66.9699 H   0  0  0  0  0  0
  -41.3566   25.0303   68.6001 H   0  0  0  0  0  0
  -41.8036   23.1702   66.5042 H   0  0  0  0  0  0
  -32.7257   27.1406   67.2341 H   0  0  0  0  0  0
  -31.8479   29.0954   66.8881 H   0  0  0  0  0  0
  -31.0575   29.9521   65.0186 H   0  0  0  0  0  0
  1  2  1  0  0  0
  1 30  1  0  0  0
  1 31  1  0  0  0
  1 32  1  0  0  0
  2  3  1  0  0  0
  2 33  1  0  0  0
  2 34  1  0  0  0
  3  4  1  0  0  0
  3 35  1  0  0  0
  3 36  1  0  0  0
  4  5  1  0  0  0
  4 37  1  0  0  0
  4 38  1  0  0  0
  5  6  1  0  0  0
  5 39  1  0  0  0
  5 40  1  0  0  0
  6 28  1  0  0  0
  6  7  1  0  0  0
  6 23  1  0  0  0
  7  8  2  0  0  0
  7  9  1  0  0  0
  9 10  1  0  0  0
  9 41  1  0  0  0
 10 11  1  0  0  0
 10 14  1  0  0  0
 10 42  1  0  0  0
 11 12  1  0  0  0
 11 13  1  0  0  0
 11 43  1  0  0  0
 12 44  1  0  0  0
 12 45  1  0  0  0
 12 46  1  0  0  0
 13 47  1  0  0  0
 13 48  1  0  0  0
 13 49  1  0  0  0
 14 15  2  0  0  0
 14 16  1  0  0  0
 16 20  1  0  0  0
 16 17  1  0  0  0
 17 18  1  0  0  0
 17 50  1  0  0  0
 17 51  1  0  0  0
 18 19  1  0  0  0
 18 52  1  0  0  0
 18 53  1  0  0  0
 19 20  1  0  0  0
 19 54  1  0  0  0
 19 55  1  0  0  0
 20 29  1  0  0  0
 20 21  1  0  0  0
 21 22  1  0  0  0
 21 56  1  0  0  0
 21 57  1  0  0  0
 22 58  1  0  0  0
 23 24  1  0  0  0
 23 59  1  0  0  0
 24 25  2  0  0  0
 24 26  1  0  0  0
 26 27  1  0  0  0
 26 60  1  0  0  0
 27 61  1  0  0  0
M  END
> <s_m_entry_id>
40198

> <s_m_entry_name>
ligand_docking-pose.7

> <s_m_Source_Path>
/home/csk/Desktop/cluster/DUD-E-result/def

> <s_m_Source_File>
ligand_docking-pose.sdf

> <i_m_Source_File_Index>
7

> <i_lp_mmshare_version>
53161

> <r_lp_tautomer_probability>
1

> <s_lp_Force_Field>
OPLS_2005

> <r_lp_Energy>
34.207825

> <b_lp_Chiralities_Consistent>
1

> <s_lp_Variant>
50360-1

> <s_i_glide_gridfile>
glide-grid_1lru

> <i_i_glide_lignum>
120

> <i_i_glide_rotatable_bonds>
16

> <r_i_docking_score>
-9.5528254717114

> <r_i_glide_ligand_efficiency>
-0.353808350804126

> <r_i_glide_ligand_efficiency_sa>
-1.06142505124628

> <r_i_glide_ligand_efficiency_ln>
-2.22374027917795

> <r_i_glide_gscore>
-9.5528254717114

> <r_i_glide_lipo>
-2.20539204748742

> <r_i_glide_hbond>
-1.24805261035281

> <r_i_glide_metal>
-1.98560711949751

> <r_i_glide_rewards>
-0.764416796726675

> <r_i_glide_evdw>
-26.7891616821289

> <r_i_glide_ecoul>
-22.6706008911133

> <r_i_glide_erotb>
1.56366059195476

> <r_i_glide_esite>
-0.172969271828315

> <r_i_glide_emodel>
-68.4968289521928

> <r_i_glide_energy>
-49.4597625732422

> <r_i_glide_einternal>
17.2768611907959

> <i_i_glide_confnum>
83

> <i_i_glide_posenum>
336

> <r_i_glide_eff_state_penalty>
0

> <i_f3d_flags>
0

> <s_user_duplicate_titles>
50360

> <s_m_subgroup_title>
dock_pv

> <s_m_subgroupid>
dock_pv1

> <b_m_subgroup_collapsed>
0

$$$$
50306
                    3D
 Schrodinger Suite 2021-1.
 36 37  0  0  1  0            999 V2000
  -39.3830   26.9689   66.7222 C   0  0  0  0  0  0
  -38.4677   26.7992   67.9413 C   0  0  2  0  0  0
  -38.7342   27.9086   69.0116 C   0  0  0  0  0  0
  -39.7246   28.6347   68.9495 O   0  0  0  0  0  0
  -37.8671   28.0355   70.0150 N   0  0  0  0  0  0
  -37.0163   26.6169   67.5611 N   0  0  0  0  0  0
  -36.5604   25.2557   67.4799 C   0  0  0  0  0  0
  -37.4403   24.1758   67.2636 C   0  0  0  0  0  0
  -36.9777   22.8606   67.2150 C   0  0  0  0  0  0
  -35.6253   22.5879   67.3988 C   0  0  0  0  0  0
  -34.7367   23.6324   67.6366 C   0  0  0  0  0  0
  -35.1985   24.9492   67.6742 C   0  0  0  0  0  0
  -34.0678   26.2487   68.0148 S   0  0  0  0  0  0
  -34.7939   27.3850   66.7848 C   0  0  1  0  0  0
  -36.2647   27.7165   67.1869 C   0  0  0  0  0  0
  -36.7156   28.8616   67.1086 O   0  0  0  0  0  0
  -33.8855   28.6552   66.6931 C   0  0  0  0  0  0
  -33.1053   28.7573   65.3767 C   0  0  0  0  0  0
  -33.5811   29.3590   64.4150 O   0  0  0  0  0  0
  -31.9117   28.1590   65.3507 N   0  0  0  0  0  0
  -31.1850   28.1590   64.1609 O   0  0  0  0  0  0
  -40.4303   26.9499   67.0240 H   0  0  0  0  0  0
  -39.1749   27.9155   66.2199 H   0  0  0  0  0  0
  -39.2230   26.1592   66.0150 H   0  0  0  0  0  0
  -38.7751   25.9188   68.5051 H   0  0  0  0  0  0
  -37.9851   28.7918   70.6792 H   0  0  0  0  0  0
  -37.0715   27.4227   70.0875 H   0  0  0  0  0  0
  -38.4973   24.3266   67.1148 H   0  0  0  0  0  0
  -37.6714   22.0519   67.0355 H   0  0  0  0  0  0
  -35.2677   21.5689   67.3655 H   0  0  0  0  0  0
  -33.6884   23.4208   67.7944 H   0  0  0  0  0  0
  -34.8560   26.8270   65.8467 H   0  0  0  0  0  0
  -34.4472   29.5768   66.8150 H   0  0  0  0  0  0
  -33.1850   28.7031   67.5261 H   0  0  0  0  0  0
  -31.4427   27.6294   66.0844 H   0  0  0  0  0  0
  -30.3960   28.6860   64.3499 H   0  0  0  0  0  0
  1  2  1  0  0  0
  1 22  1  0  0  0
  1 23  1  0  0  0
  1 24  1  0  0  0
  2  3  1  0  0  0
  2  6  1  0  0  0
  2 25  1  0  0  0
  3  4  2  0  0  0
  3  5  1  0  0  0
  5 26  1  0  0  0
  5 27  1  0  0  0
  6 15  1  0  0  0
  6  7  1  0  0  0
  7 12  2  0  0  0
  7  8  1  0  0  0
  8  9  2  0  0  0
  8 28  1  0  0  0
  9 10  1  0  0  0
  9 29  1  0  0  0
 10 11  2  0  0  0
 10 30  1  0  0  0
 11 12  1  0  0  0
 11 31  1  0  0  0
 12 13  1  0  0  0
 13 14  1  0  0  0
 14 15  1  0  0  0
 14 17  1  0  0  0
 14 32  1  0  0  0
 15 16  2  0  0  0
 17 18  1  0  0  0
 17 33  1  0  0  0
 17 34  1  0  0  0
 18 19  2  0  0  0
 18 20  1  0  0  0
 20 21  1  0  0  0
 20 35  1  0  0  0
 21 36  1  0  0  0
M  END
> <s_m_entry_id>
40201

> <s_m_entry_name>
ligand_docking-pose.10

> <s_m_Source_Path>
/home/csk/Desktop/cluster/DUD-E-result/def

> <s_m_Source_File>
ligand_docking-pose.sdf

> <i_m_Source_File_Index>
10

> <i_lp_mmshare_version>
53161

> <r_lp_tautomer_probability>
1

> <s_lp_Force_Field>
OPLS_2005

> <r_lp_Energy>
40.269924

> <b_lp_Chiralities_Consistent>
1

> <s_lp_Variant>
50306-1

> <s_i_glide_gridfile>
glide-grid_1lru

> <i_i_glide_lignum>
243

> <i_i_glide_rotatable_bonds>
6

> <r_i_docking_score>
-9.24417028431452

> <r_i_glide_ligand_efficiency>
-0.440198584967358

> <r_i_glide_ligand_efficiency_sa>
-1.2144745172427

> <r_i_glide_ligand_efficiency_ln>
-2.28560242319186

> <r_i_glide_gscore>
-9.24417028431452

> <r_i_glide_lipo>
-2.03184341844925

> <r_i_glide_hbond>
-0.781729591068518

> <r_i_glide_metal>
-2.04027064105733

> <r_i_glide_rewards>
-1.29990712708473

> <r_i_glide_evdw>
-30.2540607452393

> <r_i_glide_ecoul>
-14.6912631988525

> <r_i_glide_erotb>
0.773929009797906

> <r_i_glide_esite>
-0.147955999362758

> <r_i_glide_emodel>
-71.0242750238186

> <r_i_glide_energy>
-44.9453239440918

> <r_i_glide_einternal>
6.45296049118042

> <i_i_glide_confnum>
24

> <i_i_glide_posenum>
162

> <r_i_glide_eff_state_penalty>
0

> <i_f3d_flags>
0

> <s_user_duplicate_titles>
50306

> <s_m_subgroup_title>
dock_pv

> <s_m_subgroupid>
dock_pv1

> <b_m_subgroup_collapsed>
0

$$$$
50173
                    3D
 Schrodinger Suite 2021-1.
 38 40  0  0  1  0            999 V2000
  -34.4348   22.2604   66.6132 C   0  0  0  0  0  0
  -35.6883   22.2209   67.2122 C   0  0  0  0  0  0
  -36.2678   23.3913   67.6960 C   0  0  0  0  0  0
  -35.6111   24.6303   67.5714 C   0  0  0  0  0  0
  -34.3177   24.6433   67.0207 C   0  0  0  0  0  0
  -33.7488   23.4661   66.5298 C   0  0  0  0  0  0
  -33.5833   25.9631   66.9914 C   0  0  0  0  0  0
  -34.5670   27.1151   66.6531 C   0  0  1  0  0  0
  -35.7787   27.1185   67.6412 C   0  0  0  0  0  0
  -36.3480   28.1590   67.9809 O   0  0  0  0  0  0
  -36.1799   25.8614   68.0247 N   0  0  0  0  0  0
  -37.4086   25.7944   68.8579 C   0  0  0  0  0  0
  -38.7783   25.7491   68.1200 C   0  0  0  0  0  0
  -39.1035   26.5567   66.8909 C   0  0  0  0  0  0
  -39.0070   25.0326   66.8150 C   0  0  0  0  0  0
  -33.8423   28.5007   66.6299 C   0  0  0  0  0  0
  -33.0478   28.7219   65.3352 C   0  0  0  0  0  0
  -33.5517   29.3590   64.4150 O   0  0  0  0  0  0
  -31.8374   28.1590   65.2570 N   0  0  0  0  0  0
  -31.1850   28.1590   64.0276 O   0  0  0  0  0  0
  -33.9850   21.3590   66.2272 H   0  0  0  0  0  0
  -36.2176   21.2860   67.2937 H   0  0  0  0  0  0
  -37.2484   23.3113   68.1384 H   0  0  0  0  0  0
  -32.7593   23.4844   66.0965 H   0  0  0  0  0  0
  -32.7850   25.9070   66.2550 H   0  0  0  0  0  0
  -33.1027   26.1324   67.9570 H   0  0  0  0  0  0
  -35.0257   26.9420   65.6755 H   0  0  0  0  0  0
  -37.3347   24.9342   69.5233 H   0  0  0  0  0  0
  -37.4308   26.6370   69.5524 H   0  0  0  0  0  0
  -39.5800   25.6594   68.8543 H   0  0  0  0  0  0
  -40.0827   27.0315   66.8315 H   0  0  0  0  0  0
  -38.3290   27.1578   66.4150 H   0  0  0  0  0  0
  -38.1653   24.5990   66.2770 H   0  0  0  0  0  0
  -39.9173   24.4412   66.7044 H   0  0  0  0  0  0
  -33.1850   28.6122   67.4921 H   0  0  0  0  0  0
  -34.5510   29.3273   66.7056 H   0  0  0  0  0  0
  -31.3412   27.6059   65.9565 H   0  0  0  0  0  0
  -30.4013   28.7110   64.1632 H   0  0  0  0  0  0
  1  6  1  0  0  0
  1  2  2  0  0  0
  1 21  1  0  0  0
  2  3  1  0  0  0
  2 22  1  0  0  0
  3  4  2  0  0  0
  3 23  1  0  0  0
  4 11  1  0  0  0
  4  5  1  0  0  0
  5  6  2  0  0  0
  5  7  1  0  0  0
  6 24  1  0  0  0
  7  8  1  0  0  0
  7 25  1  0  0  0
  7 26  1  0  0  0
  8  9  1  0  0  0
  8 16  1  0  0  0
  8 27  1  0  0  0
  9 10  2  0  0  0
  9 11  1  0  0  0
 11 12  1  0  0  0
 12 13  1  0  0  0
 12 28  1  0  0  0
 12 29  1  0  0  0
 13 15  1  0  0  0
 13 14  1  0  0  0
 13 30  1  0  0  0
 14 15  1  0  0  0
 14 31  1  0  0  0
 14 32  1  0  0  0
 15 33  1  0  0  0
 15 34  1  0  0  0
 16 17  1  0  0  0
 16 35  1  0  0  0
 16 36  1  0  0  0
 17 18  2  0  0  0
 17 19  1  0  0  0
 19 20  1  0  0  0
 19 37  1  0  0  0
 20 38  1  0  0  0
M  END
> <s_m_entry_id>
40202

> <s_m_entry_name>
ligand_docking-pose.11

> <s_m_Source_Path>
/home/csk/Desktop/cluster/DUD-E-result/def

> <s_m_Source_File>
ligand_docking-pose.sdf

> <i_m_Source_File_Index>
11

> <i_lp_mmshare_version>
53161

> <r_lp_tautomer_probability>
1

> <s_lp_Force_Field>
OPLS_2005

> <r_lp_Energy>
44.644956

> <b_lp_Chiralities_Consistent>
1

> <s_lp_Variant>
50173-1

> <s_i_glide_gridfile>
glide-grid_1lru

> <i_i_glide_lignum>
19

> <i_i_glide_rotatable_bonds>
6

> <r_i_docking_score>
-9.08541043176246

> <r_i_glide_ligand_efficiency>
-0.454270521588123

> <r_i_glide_ligand_efficiency_sa>
-1.23307990526723

> <r_i_glide_ligand_efficiency_ln>
-2.27377857417896

> <r_i_glide_gscore>
-9.08541043176246

> <r_i_glide_lipo>
-2.40187516148488

> <r_i_glide_hbond>
-0.467475876085886

> <r_i_glide_metal>
-2.3

> <r_i_glide_rewards>
-1.53708071071598

> <r_i_glide_evdw>
-28.1610488891602

> <r_i_glide_ecoul>
-13.7473678588867

> <r_i_glide_erotb>
1.19302418175543

> <r_i_glide_esite>
-0.101845241940134

> <r_i_glide_emodel>
-65.8934906139924

> <r_i_glide_energy>
-41.9084167480469

> <r_i_glide_einternal>
3.37191486358643

> <i_i_glide_confnum>
1

> <i_i_glide_posenum>
363

> <r_i_glide_eff_state_penalty>
0

> <i_f3d_flags>
0

> <s_user_duplicate_titles>
50173

> <s_m_subgroup_title>
dock_pv

> <s_m_subgroupid>
dock_pv1

> <b_m_subgroup_collapsed>
0

$$$$
51671
                    3D
 Schrodinger Suite 2021-1.
 41 42  0  0  1  0            999 V2000
  -35.2486   23.9538   65.3504 C   0  0  0  0  0  0
  -34.5259   23.1905   66.4817 C   0  0  0  0  0  0
  -34.2724   21.7590   65.9954 C   0  0  0  0  0  0
  -35.3171   23.1301   67.8122 C   0  0  0  0  0  0
  -35.4479   24.4145   68.6759 C   0  0  0  0  0  0
  -35.7761   25.6882   67.9821 N   0  0  0  0  0  0
  -37.1367   25.9072   67.6003 C   0  0  0  0  0  0
  -38.1024   24.8814   67.6152 C   0  0  0  0  0  0
  -39.4134   25.1131   67.2138 C   0  0  0  0  0  0
  -39.7908   26.3880   66.8150 C   0  0  0  0  0  0
  -38.8890   27.4405   66.8716 C   0  0  0  0  0  0
  -37.5804   27.2039   67.2762 C   0  0  0  0  0  0
  -36.4983   28.5682   67.4609 S   0  0  0  0  0  0
  -35.0468   27.7212   66.7766 C   0  0  2  0  0  0
  -34.7034   26.4932   67.6751 C   0  0  0  0  0  0
  -33.5455   26.2481   68.0150 O   0  0  0  0  0  0
  -33.8730   28.7500   66.7262 C   0  0  0  0  0  0
  -33.1101   28.7685   65.3979 C   0  0  0  0  0  0
  -33.5849   29.3379   64.4151 O   0  0  0  0  0  0
  -31.9245   28.1590   65.3883 N   0  0  0  0  0  0
  -31.1850   28.1590   64.2066 O   0  0  0  0  0  0
  -36.2957   23.6599   65.2680 H   0  0  0  0  0  0
  -34.7850   23.7485   64.3894 H   0  0  0  0  0  0
  -35.2159   25.0310   65.4686 H   0  0  0  0  0  0
  -33.5594   23.6621   66.6706 H   0  0  0  0  0  0
  -35.1850   21.3590   65.5656 H   0  0  0  0  0  0
  -33.5091   21.7158   65.2194 H   0  0  0  0  0  0
  -33.9850   21.0965   66.8119 H   0  0  0  0  0  0
  -36.2862   22.6850   67.6034 H   0  0  0  0  0  0
  -34.8488   22.3932   68.4669 H   0  0  0  0  0  0
  -36.1834   24.2539   69.4654 H   0  0  0  0  0  0
  -34.5057   24.5177   69.2150 H   0  0  0  0  0  0
  -37.8801   23.8824   67.9376 H   0  0  0  0  0  0
  -40.1301   24.3039   67.2033 H   0  0  0  0  0  0
  -40.7850   26.5704   66.4704 H   0  0  0  0  0  0
  -39.2037   28.4396   66.6064 H   0  0  0  0  0  0
  -35.3726   27.3683   65.7952 H   0  0  0  0  0  0
  -34.2375   29.7590   66.8791 H   0  0  0  0  0  0
  -33.1850   28.6405   67.5637 H   0  0  0  0  0  0
  -31.4559   27.6512   66.1376 H   0  0  0  0  0  0
  -30.3967   28.6824   64.4058 H   0  0  0  0  0  0
  1  2  1  0  0  0
  1 22  1  0  0  0
  1 23  1  0  0  0
  1 24  1  0  0  0
  2  3  1  0  0  0
  2  4  1  0  0  0
  2 25  1  0  0  0
  3 26  1  0  0  0
  3 27  1  0  0  0
  3 28  1  0  0  0
  4  5  1  0  0  0
  4 29  1  0  0  0
  4 30  1  0  0  0
  5  6  1  0  0  0
  5 31  1  0  0  0
  5 32  1  0  0  0
  6 15  1  0  0  0
  6  7  1  0  0  0
  7 12  2  0  0  0
  7  8  1  0  0  0
  8  9  2  0  0  0
  8 33  1  0  0  0
  9 10  1  0  0  0
  9 34  1  0  0  0
 10 11  2  0  0  0
 10 35  1  0  0  0
 11 12  1  0  0  0
 11 36  1  0  0  0
 12 13  1  0  0  0
 13 14  1  0  0  0
 14 15  1  0  0  0
 14 17  1  0  0  0
 14 37  1  0  0  0
 15 16  2  0  0  0
 17 18  1  0  0  0
 17 38  1  0  0  0
 17 39  1  0  0  0
 18 19  2  0  0  0
 18 20  1  0  0  0
 20 21  1  0  0  0
 20 40  1  0  0  0
 21 41  1  0  0  0
M  END
> <s_m_entry_id>
40203

> <s_m_entry_name>
ligand_docking-pose.12

> <s_m_Source_Path>
/home/csk/Desktop/cluster/DUD-E-result/def

> <s_m_Source_File>
ligand_docking-pose.sdf

> <i_m_Source_File_Index>
12

> <i_lp_mmshare_version>
53161

> <r_lp_tautomer_probability>
1

> <s_lp_Force_Field>
OPLS_2005

> <r_lp_Energy>
37.234904

> <b_lp_Chiralities_Consistent>
1

> <s_lp_Variant>
51671-2

> <s_i_glide_gridfile>
glide-grid_1lru

> <i_i_glide_lignum>
231

> <i_i_glide_rotatable_bonds>
7

> <r_i_docking_score>
-9.0245916246588

> <r_i_glide_ligand_efficiency>
-0.429742458317086

> <r_i_glide_ligand_efficiency_sa>
-1.18562685666524

> <r_i_glide_ligand_efficiency_ln>
-2.23131204329245

> <r_i_glide_gscore>
-9.0245916246588

> <r_i_glide_lipo>
-2.68059112156618

> <r_i_glide_hbond>
-0.462626955967856

> <r_i_glide_metal>
-1.83910034547817

> <r_i_glide_rewards>
-1.30638476927542

> <r_i_glide_evdw>
-30.5845279693604

> <r_i_glide_ecoul>
-13.8618869781494

> <r_i_glide_erotb>
0.972621012819262

> <r_i_glide_esite>
-0.1

> <r_i_glide_emodel>
-65.9902351243706

> <r_i_glide_energy>
-44.4464149475098

> <r_i_glide_einternal>
6.55795240402222

> <i_i_glide_confnum>
51

> <i_i_glide_posenum>
68

> <r_i_glide_eff_state_penalty>
0

> <i_f3d_flags>
0

> <s_user_duplicate_titles>
51671

> <s_m_subgroup_title>
dock_pv

> <s_m_subgroupid>
dock_pv1

> <b_m_subgroup_collapsed>
0

$$$$
50325
                    3D
 Schrodinger Suite 2021-1.
 29 30  0  0  1  0            999 V2000
  -35.7691   22.0004   67.2035 C   0  0  0  0  0  0
  -37.0712   22.4854   67.2150 C   0  0  0  0  0  0
  -37.3027   23.8334   67.4616 C   0  0  0  0  0  0
  -36.2487   24.7192   67.7079 C   0  0  0  0  0  0
  -34.9224   24.2250   67.6646 C   0  0  0  0  0  0
  -34.7033   22.8649   67.4239 C   0  0  0  0  0  0
  -33.7325   25.0585   67.8755 C   0  0  0  0  0  0
  -33.5990   26.3646   67.6150 C   0  0  0  0  0  0
  -34.6412   27.2346   66.9235 C   0  0  1  0  0  0
  -35.9870   27.2448   67.6956 C   0  0  0  0  0  0
  -36.5546   28.2842   68.0150 O   0  0  0  0  0  0
  -36.5686   26.0606   67.9571 N   0  0  0  0  0  0
  -34.1017   28.6707   66.6355 C   0  0  0  0  0  0
  -33.1773   28.7575   65.4160 C   0  0  0  0  0  0
  -33.5563   29.3590   64.4150 O   0  0  0  0  0  0
  -31.9850   28.1590   65.4951 N   0  0  0  0  0  0
  -31.1850   28.1590   64.3568 O   0  0  0  0  0  0
  -35.5850   20.9564   67.0130 H   0  0  0  0  0  0
  -37.9004   21.8172   67.0319 H   0  0  0  0  0  0
  -38.3225   24.1900   67.4713 H   0  0  0  0  0  0
  -33.6972   22.4718   67.4012 H   0  0  0  0  0  0
  -32.8902   24.5596   68.3360 H   0  0  0  0  0  0
  -32.6410   26.8087   67.8413 H   0  0  0  0  0  0
  -34.8801   26.7560   65.9701 H   0  0  0  0  0  0
  -37.4827   26.2021   68.3578 H   0  0  0  0  0  0
  -33.5850   29.0808   67.5047 H   0  0  0  0  0  0
  -34.9284   29.3588   66.4466 H   0  0  0  0  0  0
  -31.5613   27.6454   66.2640 H   0  0  0  0  0  0
  -30.4082   28.6818   64.5936 H   0  0  0  0  0  0
  1  6  1  0  0  0
  1  2  2  0  0  0
  1 18  1  0  0  0
  2  3  1  0  0  0
  2 19  1  0  0  0
  3  4  2  0  0  0
  3 20  1  0  0  0
  4 12  1  0  0  0
  4  5  1  0  0  0
  5  6  2  0  0  0
  5  7  1  0  0  0
  6 21  1  0  0  0
  7  8  2  0  0  0
  7 22  1  0  0  0
  8  9  1  0  0  0
  8 23  1  0  0  0
  9 10  1  0  0  0
  9 13  1  0  0  0
  9 24  1  0  0  0
 10 11  2  0  0  0
 10 12  1  0  0  0
 12 25  1  0  0  0
 13 14  1  0  0  0
 13 26  1  0  0  0
 13 27  1  0  0  0
 14 15  2  0  0  0
 14 16  1  0  0  0
 16 17  1  0  0  0
 16 28  1  0  0  0
 17 29  1  0  0  0
M  END
> <s_m_entry_id>
40210

> <s_m_entry_name>
ligand_docking-pose.19

> <s_m_Source_Path>
/home/csk/Desktop/cluster/DUD-E-result/def

> <s_m_Source_File>
ligand_docking-pose.sdf

> <i_m_Source_File_Index>
19

> <i_lp_mmshare_version>
53161

> <r_lp_tautomer_probability>
1

> <s_lp_Force_Field>
OPLS_2005

> <r_lp_Energy>
25.372608

> <b_lp_Chiralities_Consistent>
1

> <s_lp_Variant>
50325-1

> <s_i_glide_gridfile>
glide-grid_1lru

> <i_i_glide_lignum>
17

> <i_i_glide_rotatable_bonds>
4

> <r_i_docking_score>
-8.34037362438468

> <r_i_glide_ligand_efficiency>
-0.490610213199099

> <r_i_glide_ligand_efficiency_sa>
-1.26149700819639

> <r_i_glide_ligand_efficiency_ln>
-2.17581774761305

> <r_i_glide_gscore>
-8.34037362438468

> <r_i_glide_lipo>
-2.22579315090821

> <r_i_glide_hbond>
-0.475985408340101

> <r_i_glide_metal>
-1.16222646141582

> <r_i_glide_rewards>
-1.825557489599

> <r_i_glide_evdw>
-27.0408458709717

> <r_i_glide_ecoul>
-12.2255973815918

> <r_i_glide_erotb>
0.635070786665811

> <r_i_glide_esite>
-0.1

> <r_i_glide_emodel>
-59.1031869405484

> <r_i_glide_energy>
-39.2664432525635

> <r_i_glide_einternal>
2.90612864494324

> <i_i_glide_confnum>
1

> <i_i_glide_posenum>
202

> <r_i_glide_eff_state_penalty>
0

> <i_f3d_flags>
0

> <s_user_duplicate_titles>
50325

> <s_m_subgroup_title>
dock_pv

> <s_m_subgroupid>
dock_pv1

> <b_m_subgroup_collapsed>
0

$$$$
473549
                    3D
 Schrodinger Suite 2021-1.
 52 55  0  0  1  0            999 V2000
  -35.0860   21.9204   66.9142 C   0  0  0  0  0  0
  -34.9553   22.6531   65.7383 C   0  0  0  0  0  0
  -34.5184   23.9697   65.7862 C   0  0  0  0  0  0
  -34.1658   24.5365   67.0116 C   0  0  0  0  0  0
  -34.2834   23.7908   68.1871 C   0  0  0  0  0  0
  -34.7334   22.4769   68.1345 C   0  0  0  0  0  0
  -33.5828   25.9405   67.0640 C   0  0  0  0  0  0
  -34.5753   27.1177   66.8326 C   0  0  2  0  0  0
  -33.7883   28.4584   66.9313 C   0  0  0  0  0  0
  -32.9162   28.7548   65.7971 N   0  0  0  0  0  0
  -33.3500   28.7442   64.5412 C   0  0  0  0  0  0
  -33.1850   29.6484   63.7321 O   0  0  0  0  0  0
  -31.9933   29.7591   66.0150 O   0  0  0  0  0  0
  -35.8055   27.1618   67.7604 C   0  0  0  0  0  0
  -35.7386   26.5453   68.8151 O   0  0  0  0  0  0
  -36.9222   27.8555   67.4139 N   0  0  0  0  0  0
  -37.0502   28.7264   66.2383 C   0  0  0  0  0  0
  -37.8872   29.8716   66.7927 C   0  0  0  0  0  0
  -38.8592   29.1870   67.7333 C   0  0  0  0  0  0
  -38.0258   28.0681   68.3760 C   0  0  1  0  0  0
  -38.8302   26.8122   68.6741 C   0  0  0  0  0  0
  -38.8934   26.1862   69.8312 N   0  0  0  0  0  0
  -39.6580   25.0896   69.5553 C   0  0  0  0  0  0
  -40.0648   24.0227   70.3680 C   0  0  0  0  0  0
  -40.8462   23.0156   69.7852 C   0  0  0  0  0  0
  -41.2249   23.0704   68.4379 C   0  0  0  0  0  0
  -40.8369   24.1295   67.6147 C   0  0  0  0  0  0
  -40.0487   25.1179   68.2066 C   0  0  0  0  0  0
  -39.5174   26.2327   67.6409 O   0  0  0  0  0  0
  -35.0189   26.9773   65.8483 H   0  0  0  0  0  0
  -37.6343   28.4199   69.3340 H   0  0  0  0  0  0
  -35.4579   20.9082   66.8897 H   0  0  0  0  0  0
  -35.1852   22.1970   64.7884 H   0  0  0  0  0  0
  -34.4319   24.5317   64.8667 H   0  0  0  0  0  0
  -34.0084   24.2250   69.1347 H   0  0  0  0  0  0
  -34.7861   21.8725   69.0244 H   0  0  0  0  0  0
  -33.0567   26.0689   68.0115 H   0  0  0  0  0  0
  -32.7964   25.9747   66.3114 H   0  0  0  0  0  0
  -34.4380   29.3213   67.0884 H   0  0  0  0  0  0
  -33.1856   28.4469   67.8385 H   0  0  0  0  0  0
  -33.9845   27.8727   64.3380 H   0  0  0  0  0  0
  -31.3774   29.3559   66.6490 H   0  0  0  0  0  0
  -36.1272   29.1075   65.8059 H   0  0  0  0  0  0
  -37.6656   28.2155   65.5019 H   0  0  0  0  0  0
  -37.2428   30.5514   67.3549 H   0  0  0  0  0  0
  -38.3747   30.4565   66.0096 H   0  0  0  0  0  0
  -39.2539   29.8747   68.4835 H   0  0  0  0  0  0
  -39.7081   28.7908   67.1735 H   0  0  0  0  0  0
  -39.7714   23.9750   71.4060 H   0  0  0  0  0  0
  -41.1628   22.1752   70.3859 H   0  0  0  0  0  0
  -41.8174   22.2685   68.0193 H   0  0  0  0  0  0
  -41.1061   24.1586   66.5710 H   0  0  0  0  0  0
  1  6  1  0  0  0
  1  2  2  0  0  0
  1 32  1  0  0  0
  2  3  1  0  0  0
  2 33  1  0  0  0
  3  4  2  0  0  0
  3 34  1  0  0  0
  4  5  1  0  0  0
  4  7  1  0  0  0
  5  6  2  0  0  0
  5 35  1  0  0  0
  6 36  1  0  0  0
  7  8  1  0  0  0
  7 37  1  0  0  0
  7 38  1  0  0  0
  8 30  1  0  0  0
  8  9  1  0  0  0
  8 14  1  0  0  0
  9 10  1  0  0  0
  9 39  1  0  0  0
  9 40  1  0  0  0
 10 11  1  0  0  0
 10 13  1  0  0  0
 11 12  2  0  0  0
 11 41  1  0  0  0
 13 42  1  0  0  0
 14 15  2  0  0  0
 14 16  1  0  0  0
 16 20  1  0  0  0
 16 17  1  0  0  0
 17 18  1  0  0  0
 17 43  1  0  0  0
 17 44  1  0  0  0
 18 19  1  0  0  0
 18 45  1  0  0  0
 18 46  1  0  0  0
 19 20  1  0  0  0
 19 47  1  0  0  0
 19 48  1  0  0  0
 20 31  1  0  0  0
 20 21  1  0  0  0
 21 29  1  0  0  0
 21 22  2  0  0  0
 22 23  1  0  0  0
 23 28  2  0  0  0
 23 24  1  0  0  0
 24 25  2  0  0  0
 24 49  1  0  0  0
 25 26  1  0  0  0
 25 50  1  0  0  0
 26 27  2  0  0  0
 26 51  1  0  0  0
 27 28  1  0  0  0
 27 52  1  0  0  0
 28 29  1  0  0  0
M  END
> <s_m_entry_id>
40211

> <s_m_entry_name>
ligand_docking-pose.20

> <s_m_Source_Path>
/home/csk/Desktop/cluster/DUD-E-result/def

> <s_m_Source_File>
ligand_docking-pose.sdf

> <i_m_Source_File_Index>
20

> <i_lp_mmshare_version>
53161

> <r_lp_tautomer_probability>
1

> <s_lp_Force_Field>
OPLS_2005

> <r_lp_Energy>
44.131722

> <b_lp_Chiralities_Consistent>
1

> <s_lp_Variant>
473549-1

> <s_i_glide_gridfile>
glide-grid_1lru

> <i_i_glide_lignum>
61

> <i_i_glide_rotatable_bonds>
9

> <r_i_docking_score>
-8.28531054411504

> <r_i_glide_ligand_efficiency>
-0.285700363590174

> <r_i_glide_ligand_efficiency_sa>
-0.877762033177427

> <r_i_glide_ligand_efficiency_ln>
-1.89712601725464

> <r_i_glide_gscore>
-8.28531054411504

> <r_i_glide_lipo>
-2.81876410495486

> <r_i_glide_hbond>
-0.710083787584389

> <r_i_glide_metal>
-1.19354473202342

> <r_i_glide_rewards>
-0.707490590318459

> <r_i_glide_evdw>
-25.0366134643555

> <r_i_glide_ecoul>
-15.4548816680908

> <r_i_glide_erotb>
0.757204110325938

> <r_i_glide_esite>
-0.0425685161284458

> <r_i_glide_emodel>
-58.3755391938725

> <r_i_glide_energy>
-40.4914951324463

> <r_i_glide_einternal>
11.1973686218262

> <i_i_glide_confnum>
47

> <i_i_glide_posenum>
265

> <r_i_glide_eff_state_penalty>
0

> <i_f3d_flags>
0

> <s_user_duplicate_titles>
473549

> <s_m_subgroup_title>
dock_pv

> <s_m_subgroupid>
dock_pv1

> <b_m_subgroup_collapsed>
0

$$$$
50848
                    3D
 Schrodinger Suite 2021-1.
 39 41  0  0  1  0            999 V2000
  -39.2628   24.5182   67.2150 C   0  0  0  0  0  0
  -39.8173   25.7898   67.1263 C   0  0  0  0  0  0
  -38.9969   26.9105   67.2145 C   0  0  0  0  0  0
  -37.6196   26.7630   67.3847 C   0  0  0  0  0  0
  -37.0299   25.4839   67.4696 C   0  0  0  0  0  0
  -37.8888   24.3691   67.3929 C   0  0  0  0  0  0
  -35.6306   25.3507   67.7477 N   0  0  0  0  0  0
  -34.6693   26.3176   67.5799 C   0  0  0  0  0  0
  -33.5199   26.2238   68.0143 O   0  0  0  0  0  0
  -35.1514   27.5584   66.7724 C   0  0  1  0  0  0
  -36.6297   28.2043   67.6150 S   0  0  0  0  0  0
  -34.0690   28.6910   66.7433 C   0  0  0  0  0  0
  -33.1887   28.7245   65.4804 C   0  0  0  0  0  0
  -33.5850   29.2730   64.4524 O   0  0  0  0  0  0
  -31.9850   28.1590   65.5627 N   0  0  0  0  0  0
  -31.1850   28.1590   64.4149 O   0  0  0  0  0  0
  -35.1598   24.0781   68.3608 C   0  0  0  0  0  0
  -34.5456   23.0264   67.3962 C   0  0  0  0  0  0
  -35.3893   22.4259   66.2666 C   0  0  0  0  0  0
  -34.0777   22.2776   65.4832 C   0  0  0  0  0  0
  -33.5069   23.4272   66.3366 C   0  0  0  0  0  0
  -39.8985   23.6455   67.1562 H   0  0  0  0  0  0
  -40.8830   25.9035   67.0012 H   0  0  0  0  0  0
  -39.4314   27.8986   67.1693 H   0  0  0  0  0  0
  -37.5190   23.3612   67.4840 H   0  0  0  0  0  0
  -35.4943   27.2486   65.7825 H   0  0  0  0  0  0
  -34.5601   29.6583   66.8151 H   0  0  0  0  0  0
  -33.4377   28.6877   67.6333 H   0  0  0  0  0  0
  -31.5507   27.6696   66.3433 H   0  0  0  0  0  0
  -30.4078   28.6813   64.6497 H   0  0  0  0  0  0
  -34.4338   24.2966   69.1465 H   0  0  0  0  0  0
  -35.9800   23.6121   68.9060 H   0  0  0  0  0  0
  -34.1513   22.2407   68.0467 H   0  0  0  0  0  0
  -35.9219   21.5034   66.5010 H   0  0  0  0  0  0
  -36.0567   23.1313   65.7683 H   0  0  0  0  0  0
  -33.5850   21.3169   65.6323 H   0  0  0  0  0  0
  -34.1635   22.4699   64.4150 H   0  0  0  0  0  0
  -33.6847   24.3917   65.8594 H   0  0  0  0  0  0
  -32.4601   23.3590   66.6347 H   0  0  0  0  0  0
  1  6  1  0  0  0
  1  2  2  0  0  0
  1 22  1  0  0  0
  2  3  1  0  0  0
  2 23  1  0  0  0
  3  4  2  0  0  0
  3 24  1  0  0  0
  4 11  1  0  0  0
  4  5  1  0  0  0
  5  6  2  0  0  0
  5  7  1  0  0  0
  6 25  1  0  0  0
  7  8  1  0  0  0
  7 17  1  0  0  0
  8  9  2  0  0  0
  8 10  1  0  0  0
 10 11  1  0  0  0
 10 12  1  0  0  0
 10 26  1  0  0  0
 12 13  1  0  0  0
 12 27  1  0  0  0
 12 28  1  0  0  0
 13 14  2  0  0  0
 13 15  1  0  0  0
 15 16  1  0  0  0
 15 29  1  0  0  0
 16 30  1  0  0  0
 17 18  1  0  0  0
 17 31  1  0  0  0
 17 32  1  0  0  0
 18 21  1  0  0  0
 18 19  1  0  0  0
 18 33  1  0  0  0
 19 20  1  0  0  0
 19 34  1  0  0  0
 19 35  1  0  0  0
 20 21  1  0  0  0
 20 36  1  0  0  0
 20 37  1  0  0  0
 21 38  1  0  0  0
 21 39  1  0  0  0
M  END
> <s_m_entry_id>
40213

> <s_m_entry_name>
ligand_docking-pose.22

> <s_m_Source_Path>
/home/csk/Desktop/cluster/DUD-E-result/def

> <s_m_Source_File>
ligand_docking-pose.sdf

> <i_m_Source_File_Index>
22

> <i_lp_mmshare_version>
53161

> <r_lp_tautomer_probability>
1

> <s_lp_Force_Field>
OPLS_2005

> <r_lp_Energy>
47.154035

> <b_lp_Chiralities_Consistent>
1

> <s_lp_Variant>
50848-1

> <s_i_glide_gridfile>
glide-grid_1lru

> <i_i_glide_lignum>
31

> <i_i_glide_rotatable_bonds>
6

> <r_i_docking_score>
-8.17630507748646

> <r_i_glide_ligand_efficiency>
-0.389347860832689

> <r_i_glide_ligand_efficiency_sa>
-1.07418122518345

> <r_i_glide_ligand_efficiency_ln>
-2.02157490862845

> <r_i_glide_gscore>
-8.17630507748646

> <r_i_glide_lipo>
-2.69734071954755

> <r_i_glide_hbond>
-0.459407634723853

> <r_i_glide_metal>
-0.894746435003031

> <r_i_glide_rewards>
-1.32011465828866

> <r_i_glide_evdw>
-33.4868965148926

> <r_i_glide_ecoul>
-13.4281854629517

> <r_i_glide_erotb>
0.983877015264016

> <r_i_glide_esite>
-0.1

> <r_i_glide_emodel>
-64.9455701679294

> <r_i_glide_energy>
-46.9150819778442

> <r_i_glide_einternal>
11.2532615661621

> <i_i_glide_confnum>
17

> <i_i_glide_posenum>
13

> <r_i_glide_eff_state_penalty>
0

> <i_f3d_flags>
0

> <s_user_duplicate_titles>
50848

> <s_m_subgroup_title>
dock_pv

> <s_m_subgroupid>
dock_pv1

> <b_m_subgroup_collapsed>
0

$$$$
50377
                    3D
 Schrodinger Suite 2021-1.
 43 45  0  0  1  0            999 V2000
  -35.8781   22.3069   66.9216 C   0  0  0  0  0  0
  -34.4989   22.3314   66.7501 C   0  0  0  0  0  0
  -33.7986   23.5259   66.9073 C   0  0  0  0  0  0
  -34.4833   24.6986   67.2269 C   0  0  0  0  0  0
  -35.8849   24.6991   67.3850 C   0  0  0  0  0  0
  -36.5648   23.4776   67.2329 C   0  0  0  0  0  0
  -36.5496   25.9065   67.7707 N   0  0  0  0  0  0
  -36.1233   27.1805   67.4733 C   0  0  0  0  0  0
  -36.6452   28.2085   67.9092 O   0  0  0  0  0  0
  -34.8589   27.1925   66.5614 C   0  0  2  0  0  0
  -33.5938   26.2092   67.4506 S   0  0  0  0  0  0
  -34.4189   28.6485   66.1815 C   0  0  0  0  0  0
  -33.2271   28.8144   65.2108 C   0  0  0  0  0  0
  -33.1850   29.7581   64.4150 O   0  0  0  0  0  0
  -32.2436   27.9235   65.2716 N   0  0  0  0  0  0
  -31.1848   28.1589   64.4150 O   0  0  0  0  0  0
  -37.7761   25.7673   68.6062 C   0  0  0  0  0  0
  -39.0616   25.6396   67.7551 C   0  0  0  0  0  0
  -39.2389   26.4151   66.8149 O   0  0  0  0  0  0
  -39.9674   24.6831   68.0727 N   0  0  0  0  0  0
  -41.1796   24.4729   67.2721 C   0  0  0  0  0  0
  -41.9038   23.3517   68.0155 C   0  0  0  0  0  0
  -40.7839   22.5818   68.6861 C   0  0  0  0  0  0
  -39.8084   23.6710   69.1284 C   0  0  0  0  0  0
  -36.4165   21.3771   66.8124 H   0  0  0  0  0  0
  -33.9849   21.4158   66.5019 H   0  0  0  0  0  0
  -32.7239   23.5433   66.7906 H   0  0  0  0  0  0
  -37.6334   23.4070   67.3364 H   0  0  0  0  0  0
  -35.1088   26.6426   65.6505 H   0  0  0  0  0  0
  -35.2710   29.1559   65.7247 H   0  0  0  0  0  0
  -34.1777   29.2158   67.0820 H   0  0  0  0  0  0
  -31.9350   27.4934   66.1395 H   0  0  0  0  0  0
  -30.5530   27.4480   64.6020 H   0  0  0  0  0  0
  -37.6321   24.9514   69.3115 H   0  0  0  0  0  0
  -37.8852   26.6330   69.2610 H   0  0  0  0  0  0
  -41.8025   25.3599   67.2213 H   0  0  0  0  0  0
  -40.9054   24.1589   66.2650 H   0  0  0  0  0  0
  -42.5629   23.7747   68.7751 H   0  0  0  0  0  0
  -42.5230   22.7419   67.3566 H   0  0  0  0  0  0
  -40.3032   21.9221   67.9603 H   0  0  0  0  0  0
  -41.1188   21.9572   69.5148 H   0  0  0  0  0  0
  -38.8087   23.2415   69.1937 H   0  0  0  0  0  0
  -40.1410   24.0771   70.0850 H   0  0  0  0  0  0
  1  6  1  0  0  0
  1  2  2  0  0  0
  1 25  1  0  0  0
  2  3  1  0  0  0
  2 26  1  0  0  0
  3  4  2  0  0  0
  3 27  1  0  0  0
  4 11  1  0  0  0
  4  5  1  0  0  0
  5  6  2  0  0  0
  5  7  1  0  0  0
  6 28  1  0  0  0
  7  8  1  0  0  0
  7 17  1  0  0  0
  8  9  2  0  0  0
  8 10  1  0  0  0
 10 11  1  0  0  0
 10 12  1  0  0  0
 10 29  1  0  0  0
 12 13  1  0  0  0
 12 30  1  0  0  0
 12 31  1  0  0  0
 13 14  2  0  0  0
 13 15  1  0  0  0
 15 16  1  0  0  0
 15 32  1  0  0  0
 16 33  1  0  0  0
 17 18  1  0  0  0
 17 34  1  0  0  0
 17 35  1  0  0  0
 18 19  2  0  0  0
 18 20  1  0  0  0
 20 24  1  0  0  0
 20 21  1  0  0  0
 21 22  1  0  0  0
 21 36  1  0  0  0
 21 37  1  0  0  0
 22 23  1  0  0  0
 22 38  1  0  0  0
 22 39  1  0  0  0
 23 24  1  0  0  0
 23 40  1  0  0  0
 23 41  1  0  0  0
 24 42  1  0  0  0
 24 43  1  0  0  0
M  END
> <s_m_entry_id>
40219

> <s_m_entry_name>
ligand_docking-pose.28

> <s_m_Source_Path>
/home/csk/Desktop/cluster/DUD-E-result/def

> <s_m_Source_File>
ligand_docking-pose.sdf

> <i_m_Source_File_Index>
28

> <i_lp_mmshare_version>
53161

> <r_lp_tautomer_probability>
1

> <s_lp_Force_Field>
OPLS_2005

> <r_lp_Energy>
52.544787

> <b_lp_Chiralities_Consistent>
1

> <s_lp_Variant>
50377-2

> <s_i_glide_gridfile>
glide-grid_1lru

> <i_i_glide_lignum>
48

> <i_i_glide_rotatable_bonds>
7

> <r_i_docking_score>
-7.89096472560658

> <r_i_glide_ligand_efficiency>
-0.328790196900274

> <r_i_glide_ligand_efficiency_sa>
-0.948395039396733

> <r_i_glide_ligand_efficiency_ln>
-1.88866995161463

> <r_i_glide_gscore>
-7.89096472560658

> <r_i_glide_lipo>
-2.35161412297646

> <r_i_glide_hbond>
-0.697870902917306

> <r_i_glide_metal>
-0.893696707265916

> <r_i_glide_rewards>
-1.02670583834433

> <r_i_glide_evdw>
-36.9817733764648

> <r_i_glide_ecoul>
-12.7209692001343

> <r_i_glide_erotb>
0.936156894740822

> <r_i_glide_esite>
-0.1

> <r_i_glide_emodel>
-67.3293079821428

> <r_i_glide_energy>
-49.7027425765991

> <r_i_glide_einternal>
12.9687070846558

> <i_i_glide_confnum>
38

> <i_i_glide_posenum>
64

> <r_i_glide_eff_state_penalty>
0

> <i_f3d_flags>
0

> <s_user_duplicate_titles>
50377

> <s_m_subgroup_title>
dock_pv

> <s_m_subgroupid>
dock_pv1

> <b_m_subgroup_collapsed>
0

$$$$
50308
                    3D
 Schrodinger Suite 2021-1.
 33 34  0  0  1  0            999 V2000
  -35.2911   22.1928   66.4150 C   0  0  0  0  0  0
  -33.9850   22.5502   66.1156 C   0  0  0  0  0  0
  -33.4826   23.7590   66.5753 C   0  0  0  0  0  0
  -34.3060   24.6289   67.2840 C   0  0  0  0  0  0
  -35.6647   24.3421   67.5112 C   0  0  0  0  0  0
  -36.1279   23.0810   67.0849 C   0  0  0  0  0  0
  -36.4942   25.2583   68.2405 N   0  0  0  0  0  0
  -36.2854   26.6116   68.3949 C   0  0  0  0  0  0
  -37.0878   27.3817   68.9268 O   0  0  0  0  0  0
  -34.9803   27.1701   67.7648 C   0  0  1  0  0  0
  -33.5850   26.0363   68.0150 S   0  0  0  0  0  0
  -35.1753   27.5928   66.2855 C   0  0  0  0  0  0
  -33.9091   28.1590   65.6150 C   0  0  0  0  0  0
  -33.5850   27.7590   64.5062 O   0  0  0  0  0  0
  -33.1850   29.0774   66.2635 N   0  0  0  0  0  0
  -32.0343   29.5767   65.6150 O   0  0  0  0  0  0
  -37.8098   24.7456   68.7320 C   0  0  0  0  0  0
  -38.9061   24.7668   67.6443 C   0  0  0  0  0  0
  -38.9838   25.6671   66.8150 O   0  0  0  0  0  0
  -39.7598   23.7446   67.6313 N   0  0  0  0  0  0
  -35.6592   21.2294   66.1018 H   0  0  0  0  0  0
  -33.3538   21.8638   65.5728 H   0  0  0  0  0  0
  -32.4424   24.0089   66.4150 H   0  0  0  0  0  0
  -37.1380   22.7493   67.2595 H   0  0  0  0  0  0
  -34.7259   28.0544   68.3490 H   0  0  0  0  0  0
  -35.5025   26.7322   65.7012 H   0  0  0  0  0  0
  -35.9686   28.3359   66.1921 H   0  0  0  0  0  0
  -33.3056   29.4425   67.1973 H   0  0  0  0  0  0
  -31.3106   29.1899   66.1258 H   0  0  0  0  0  0
  -38.1562   25.3259   69.5887 H   0  0  0  0  0  0
  -37.6844   23.7513   69.1607 H   0  0  0  0  0  0
  -40.4682   23.6922   66.9123 H   0  0  0  0  0  0
  -39.7026   23.0114   68.3208 H   0  0  0  0  0  0
  1  6  1  0  0  0
  1  2  2  0  0  0
  1 21  1  0  0  0
  2  3  1  0  0  0
  2 22  1  0  0  0
  3  4  2  0  0  0
  3 23  1  0  0  0
  4 11  1  0  0  0
  4  5  1  0  0  0
  5  6  2  0  0  0
  5  7  1  0  0  0
  6 24  1  0  0  0
  7  8  1  0  0  0
  7 17  1  0  0  0
  8  9  2  0  0  0
  8 10  1  0  0  0
 10 11  1  0  0  0
 10 12  1  0  0  0
 10 25  1  0  0  0
 12 13  1  0  0  0
 12 26  1  0  0  0
 12 27  1  0  0  0
 13 14  2  0  0  0
 13 15  1  0  0  0
 15 16  1  0  0  0
 15 28  1  0  0  0
 16 29  1  0  0  0
 17 18  1  0  0  0
 17 30  1  0  0  0
 17 31  1  0  0  0
 18 19  2  0  0  0
 18 20  1  0  0  0
 20 32  1  0  0  0
 20 33  1  0  0  0
M  END
> <s_m_entry_id>
40220

> <s_m_entry_name>
ligand_docking-pose.29

> <s_m_Source_Path>
/home/csk/Desktop/cluster/DUD-E-result/def

> <s_m_Source_File>
ligand_docking-pose.sdf

> <i_m_Source_File_Index>
29

> <i_lp_mmshare_version>
53161

> <r_lp_tautomer_probability>
1

> <s_lp_Force_Field>
OPLS_2005

> <r_lp_Energy>
32.08538

> <b_lp_Chiralities_Consistent>
1

> <s_lp_Variant>
50308-1

> <s_i_glide_gridfile>
glide-grid_1lru

> <i_i_glide_lignum>
45

> <i_i_glide_rotatable_bonds>
6

> <r_i_docking_score>
-7.84933679361558

> <r_i_glide_ligand_efficiency>
-0.392466839680779

> <r_i_glide_ligand_efficiency_sa>
-1.06531890249503

> <r_i_glide_ligand_efficiency_ln>
-1.96443011098789

> <r_i_glide_gscore>
-7.84933679361558

> <r_i_glide_lipo>
-2.12233632026425

> <r_i_glide_hbond>
-0.465507757188498

> <r_i_glide_metal>
-1.75800735880801

> <r_i_glide_rewards>
-1.39557734767255

> <r_i_glide_evdw>
-28.7932872772217

> <r_i_glide_ecoul>
-10.0289154052734

> <r_i_glide_erotb>
0.839453130630762

> <r_i_glide_esite>
-0.00335946566094304

> <r_i_glide_emodel>
-57.0678333834764

> <r_i_glide_energy>
-38.8222026824951

> <r_i_glide_einternal>
4.09675407409668

> <i_i_glide_confnum>
5

> <i_i_glide_posenum>
364

> <r_i_glide_eff_state_penalty>
0

> <i_f3d_flags>
0

> <s_user_duplicate_titles>
50308

> <s_m_subgroup_title>
dock_pv

> <s_m_subgroupid>
dock_pv1

> <b_m_subgroup_collapsed>
0

$$$$
473614
                    3D
 Schrodinger Suite 2021-1.
 49 51  0  0  1  0            999 V2000
  -34.3876   22.4687   67.6885 C   0  0  0  0  0  0
  -34.6127   23.0136   66.2689 C   0  0  0  0  0  0
  -35.0670   24.4857   66.2276 C   0  0  0  0  0  0
  -33.9746   25.4995   66.6412 C   0  0  0  0  0  0
  -34.4127   26.9931   66.5501 C   0  0  2  0  0  0
  -33.1826   27.9462   66.6825 C   0  0  0  0  0  0
  -32.8162   28.7654   65.4366 C   0  0  0  0  0  0
  -33.4953   28.8095   64.4193 O   0  0  0  0  0  0
  -31.6664   29.4639   65.6150 O   0  0  0  0  0  0
  -35.4829   27.3150   67.6210 C   0  0  0  0  0  0
  -35.2716   26.9588   68.7829 O   0  0  0  0  0  0
  -36.6437   27.9079   67.2519 N   0  0  0  0  0  0
  -36.7397   28.8259   66.1075 C   0  0  0  0  0  0
  -37.8374   29.7821   66.5687 C   0  0  0  0  0  0
  -38.7619   28.9160   67.4030 C   0  0  0  0  0  0
  -37.7862   28.0267   68.1792 C   0  0  1  0  0  0
  -38.3591   26.6756   68.5900 C   0  0  0  0  0  0
  -38.9806   25.8067   67.8138 N   0  0  0  0  0  0
  -39.0860   24.6966   68.6041 C   0  0  0  0  0  0
  -39.6304   23.4293   68.3477 C   0  0  0  0  0  0
  -39.5791   22.4760   69.3732 C   0  0  0  0  0  0
  -38.9986   22.7621   70.6145 C   0  0  0  0  0  0
  -38.4498   24.0176   70.8914 C   0  0  0  0  0  0
  -38.5159   24.9600   69.8612 C   0  0  0  0  0  0
  -38.0603   26.2392   69.8510 O   0  0  0  0  0  0
  -34.8787   27.1029   65.5700 H   0  0  0  0  0  0
  -37.4827   28.5496   69.0887 H   0  0  0  0  0  0
  -34.1114   21.4143   67.6624 H   0  0  0  0  0  0
  -35.2906   22.5564   68.2944 H   0  0  0  0  0  0
  -33.5872   23.0031   68.2003 H   0  0  0  0  0  0
  -33.7026   22.8886   65.6804 H   0  0  0  0  0  0
  -35.3699   22.4027   65.7764 H   0  0  0  0  0  0
  -35.3947   24.7193   65.2145 H   0  0  0  0  0  0
  -35.9509   24.6047   66.8568 H   0  0  0  0  0  0
  -33.6254   25.2756   67.6507 H   0  0  0  0  0  0
  -33.0991   25.3397   66.0149 H   0  0  0  0  0  0
  -33.3128   28.6642   67.4947 H   0  0  0  0  0  0
  -32.3098   27.3581   66.9678 H   0  0  0  0  0  0
  -31.3379   29.3494   66.5244 H   0  0  0  0  0  0
  -35.8350   29.4056   65.9221 H   0  0  0  0  0  0
  -37.1245   28.3172   65.2265 H   0  0  0  0  0  0
  -37.4021   30.5591   67.2013 H   0  0  0  0  0  0
  -38.3334   30.2879   65.7389 H   0  0  0  0  0  0
  -39.3931   29.5090   68.0659 H   0  0  0  0  0  0
  -39.4087   28.3290   66.7483 H   0  0  0  0  0  0
  -40.0704   23.1961   67.3892 H   0  0  0  0  0  0
  -39.9972   21.4939   69.2057 H   0  0  0  0  0  0
  -38.9744   21.9941   71.3747 H   0  0  0  0  0  0
  -37.9964   24.2510   71.8435 H   0  0  0  0  0  0
  1  2  1  0  0  0
  1 28  1  0  0  0
  1 29  1  0  0  0
  1 30  1  0  0  0
  2  3  1  0  0  0
  2 31  1  0  0  0
  2 32  1  0  0  0
  3  4  1  0  0  0
  3 33  1  0  0  0
  3 34  1  0  0  0
  4  5  1  0  0  0
  4 35  1  0  0  0
  4 36  1  0  0  0
  5 26  1  0  0  0
  5  6  1  0  0  0
  5 10  1  0  0  0
  6  7  1  0  0  0
  6 37  1  0  0  0
  6 38  1  0  0  0
  7  8  2  0  0  0
  7  9  1  0  0  0
  9 39  1  0  0  0
 10 11  2  0  0  0
 10 12  1  0  0  0
 12 16  1  0  0  0
 12 13  1  0  0  0
 13 14  1  0  0  0
 13 40  1  0  0  0
 13 41  1  0  0  0
 14 15  1  0  0  0
 14 42  1  0  0  0
 14 43  1  0  0  0
 15 16  1  0  0  0
 15 44  1  0  0  0
 15 45  1  0  0  0
 16 27  1  0  0  0
 16 17  1  0  0  0
 17 25  1  0  0  0
 17 18  2  0  0  0
 18 19  1  0  0  0
 19 24  2  0  0  0
 19 20  1  0  0  0
 20 21  2  0  0  0
 20 46  1  0  0  0
 21 22  1  0  0  0
 21 47  1  0  0  0
 22 23  2  0  0  0
 22 48  1  0  0  0
 23 24  1  0  0  0
 23 49  1  0  0  0
 24 25  1  0  0  0
M  END
> <s_m_entry_id>
40221

> <s_m_entry_name>
ligand_docking-pose.30

> <s_m_Source_Path>
/home/csk/Desktop/cluster/DUD-E-result/def

> <s_m_Source_File>
ligand_docking-pose.sdf

> <i_m_Source_File_Index>
30

> <i_lp_mmshare_version>
53161

> <r_lp_tautomer_probability>
1

> <s_lp_Force_Field>
OPLS_2005

> <r_lp_Energy>
29.3465

> <b_lp_Chiralities_Consistent>
1

> <s_lp_Variant>
473614-1

> <s_i_glide_gridfile>
glide-grid_1lru

> <i_i_glide_lignum>
142

> <i_i_glide_rotatable_bonds>
9

> <r_i_docking_score>
-7.84357061696255

> <r_i_glide_ligand_efficiency>
-0.313742824678502

> <r_i_glide_ligand_efficiency_sa>
-0.917389583612628

> <r_i_glide_ligand_efficiency_ln>
-1.85916128906391

> <r_i_glide_gscore>
-7.84357061696255

> <r_i_glide_lipo>
-2.4192015288322

> <r_i_glide_hbond>
-0.550326473832

> <r_i_glide_metal>
-0.966385271565113

> <r_i_glide_rewards>
-0.93435485190956

> <r_i_glide_evdw>
-35.1252899169922

> <r_i_glide_ecoul>
-15.3254661560059

> <r_i_glide_erotb>
1.12051081688606

> <r_i_glide_esite>
-0.0387288884592533

> <r_i_glide_emodel>
-71.9512337050305

> <r_i_glide_energy>
-50.450756072998

> <r_i_glide_einternal>
6.32243633270264

> <i_i_glide_confnum>
60

> <i_i_glide_posenum>
126

> <r_i_glide_eff_state_penalty>
0

> <i_f3d_flags>
0

> <s_user_duplicate_titles>
473614

> <s_m_subgroup_title>
dock_pv

> <s_m_subgroupid>
dock_pv1

> <b_m_subgroup_collapsed>
0

$$$$
473613
                    3D
 Schrodinger Suite 2021-1.
 50 52  0  0  1  0            999 V2000
  -33.5932   22.8591   65.9718 C   0  0  0  0  0  0
  -34.0782   23.5521   67.2489 C   0  0  0  0  0  0
  -33.7939   25.0645   67.2619 C   0  0  0  0  0  0
  -34.5896   25.8588   66.1911 C   0  0  0  0  0  0
  -34.6928   27.4057   66.3621 C   0  0  2  0  0  0
  -33.3033   28.1170   66.5008 C   0  0  0  0  0  0
  -32.6779   28.5202   65.1561 C   0  0  0  0  0  0
  -33.1845   29.3591   64.4161 O   0  0  0  0  0  0
  -31.5851   27.7741   64.8151 O   0  0  0  0  0  0
  -35.6807   27.7471   67.5131 C   0  0  0  0  0  0
  -35.4022   27.3591   68.6495 O   0  0  0  0  0  0
  -36.8643   28.3629   67.2427 N   0  0  0  0  0  0
  -37.1087   29.1882   66.0501 C   0  0  0  0  0  0
  -38.3018   30.0511   66.4625 C   0  0  0  0  0  0
  -39.0719   29.1709   67.4263 C   0  0  0  0  0  0
  -37.9766   28.4398   68.2185 C   0  0  1  0  0  0
  -38.4230   27.0740   68.7466 C   0  0  0  0  0  0
  -38.0974   26.6326   70.0099 N   0  0  0  0  0  0
  -38.5229   25.3281   70.1120 C   0  0  0  0  0  0
  -38.4468   24.3609   71.1188 C   0  0  0  0  0  0
  -38.9881   23.1058   70.8210 C   0  0  0  0  0  0
  -39.5846   22.8304   69.5901 C   0  0  0  0  0  0
  -39.6713   23.8036   68.5917 C   0  0  0  0  0  0
  -39.1273   25.0699   68.8551 C   0  0  0  0  0  0
  -39.0692   26.1718   68.0425 N   0  0  0  0  0  0
  -35.1564   27.7534   65.4398 H   0  0  0  0  0  0
  -37.6794   29.0647   69.0633 H   0  0  0  0  0  0
  -37.5858   27.1895   70.6776 H   0  0  0  0  0  0
  -33.7675   21.7837   66.0129 H   0  0  0  0  0  0
  -32.5290   23.0287   65.8437 H   0  0  0  0  0  0
  -34.1116   23.2350   65.0909 H   0  0  0  0  0  0
  -35.1458   23.3731   67.3851 H   0  0  0  0  0  0
  -33.5882   23.0908   68.1077 H   0  0  0  0  0  0
  -34.0153   25.4241   68.2645 H   0  0  0  0  0  0
  -32.7247   25.2305   67.1308 H   0  0  0  0  0  0
  -34.1700   25.6400   65.2151 H   0  0  0  0  0  0
  -35.6020   25.4529   66.1318 H   0  0  0  0  0  0
  -33.3986   29.0441   67.0697 H   0  0  0  0  0  0
  -32.6090   27.5129   67.0838 H   0  0  0  0  0  0
  -31.1747   27.2321   65.5145 H   0  0  0  0  0  0
  -36.2677   29.8325   65.7926 H   0  0  0  0  0  0
  -37.4150   28.5588   65.2155 H   0  0  0  0  0  0
  -37.9771   30.9550   66.9823 H   0  0  0  0  0  0
  -38.8903   30.3797   65.6042 H   0  0  0  0  0  0
  -39.7264   29.7519   68.0760 H   0  0  0  0  0  0
  -39.6930   28.4745   66.8584 H   0  0  0  0  0  0
  -37.9855   24.5646   72.0729 H   0  0  0  0  0  0
  -38.9417   22.3247   71.5663 H   0  0  0  0  0  0
  -39.9872   21.8441   69.4068 H   0  0  0  0  0  0
  -40.1308   23.5813   67.6399 H   0  0  0  0  0  0
  1  2  1  0  0  0
  1 29  1  0  0  0
  1 30  1  0  0  0
  1 31  1  0  0  0
  2  3  1  0  0  0
  2 32  1  0  0  0
  2 33  1  0  0  0
  3  4  1  0  0  0
  3 34  1  0  0  0
  3 35  1  0  0  0
  4  5  1  0  0  0
  4 36  1  0  0  0
  4 37  1  0  0  0
  5 26  1  0  0  0
  5  6  1  0  0  0
  5 10  1  0  0  0
  6  7  1  0  0  0
  6 38  1  0  0  0
  6 39  1  0  0  0
  7  8  2  0  0  0
  7  9  1  0  0  0
  9 40  1  0  0  0
 10 11  2  0  0  0
 10 12  1  0  0  0
 12 16  1  0  0  0
 12 13  1  0  0  0
 13 14  1  0  0  0
 13 41  1  0  0  0
 13 42  1  0  0  0
 14 15  1  0  0  0
 14 43  1  0  0  0
 14 44  1  0  0  0
 15 16  1  0  0  0
 15 45  1  0  0  0
 15 46  1  0  0  0
 16 27  1  0  0  0
 16 17  1  0  0  0
 17 25  2  0  0  0
 17 18  1  0  0  0
 18 28  1  0  0  0
 18 19  1  0  0  0
 19 24  2  0  0  0
 19 20  1  0  0  0
 20 21  2  0  0  0
 20 47  1  0  0  0
 21 22  1  0  0  0
 21 48  1  0  0  0
 22 23  2  0  0  0
 22 49  1  0  0  0
 23 24  1  0  0  0
 23 50  1  0  0  0
 24 25  1  0  0  0
M  END
> <s_m_entry_id>
40226

> <s_m_entry_name>
ligand_docking-pose.35

> <s_m_Source_Path>
/home/csk/Desktop/cluster/DUD-E-result/def

> <s_m_Source_File>
ligand_docking-pose.sdf

> <i_m_Source_File_Index>
35

> <i_lp_mmshare_version>
53161

> <r_lp_tautomer_probability>
1

> <s_lp_Force_Field>
OPLS_2005

> <r_lp_Energy>
33.77201

> <b_lp_Chiralities_Consistent>
1

> <s_lp_Variant>
473613-1

> <s_i_glide_gridfile>
glide-grid_1lru

> <i_i_glide_lignum>
143

> <i_i_glide_rotatable_bonds>
9

> <r_i_docking_score>
-7.59875738278769

> <r_i_glide_ligand_efficiency>
-0.303950295311508

> <r_i_glide_ligand_efficiency_sa>
-0.888756054072289

> <r_i_glide_ligand_efficiency_ln>
-1.80113321610386

> <r_i_glide_gscore>
-7.59875738278769

> <r_i_glide_lipo>
-2.22904458767701

> <r_i_glide_hbond>
-0.909542930569908

> <r_i_glide_metal>
-0.20656374738195

> <r_i_glide_rewards>
-1.03231052086348

> <r_i_glide_evdw>
-34.6056785583496

> <r_i_glide_ecoul>
-14.830228805542

> <r_i_glide_erotb>
0.788353642335151

> <r_i_glide_esite>
-0.0548309898817181

> <r_i_glide_emodel>
-69.6611065396231

> <r_i_glide_energy>
-49.4359073638916

> <r_i_glide_einternal>
8.61157321929932

> <i_i_glide_confnum>
200

> <i_i_glide_posenum>
372

> <r_i_glide_eff_state_penalty>
0

> <i_f3d_flags>
0

> <s_user_duplicate_titles>
473613

> <s_m_subgroup_title>
dock_pv

> <s_m_subgroupid>
dock_pv1

> <b_m_subgroup_collapsed>
0

$$$$
50902
                    3D
 Schrodinger Suite 2021-1.
 36 38  0  0  1  0            999 V2000
  -35.8717   22.4090   67.3802 C   0  0  0  0  0  0
  -34.4995   22.4256   67.1560 C   0  0  0  0  0  0
  -33.7998   23.6287   67.2150 C   0  0  0  0  0  0
  -34.4789   24.8185   67.4738 C   0  0  0  0  0  0
  -35.8750   24.8288   67.6677 C   0  0  0  0  0  0
  -36.5513   23.5958   67.6500 C   0  0  0  0  0  0
  -36.5456   26.0617   67.9385 N   0  0  0  0  0  0
  -36.1156   27.3114   67.5605 C   0  0  0  0  0  0
  -36.6478   28.3657   67.9163 O   0  0  0  0  0  0
  -34.8521   27.2698   66.6486 C   0  0  2  0  0  0
  -33.5850   26.3363   67.5801 S   0  0  0  0  0  0
  -34.4057   28.7084   66.2134 C   0  0  0  0  0  0
  -33.2117   28.8449   65.2412 C   0  0  0  0  0  0
  -33.1850   29.7590   64.4150 O   0  0  0  0  0  0
  -32.2255   27.9581   65.3262 N   0  0  0  0  0  0
  -31.1850   28.0790   64.4150 O   0  0  0  0  0  0
  -37.7552   26.0053   68.7986 C   0  0  0  0  0  0
  -39.1402   26.0369   68.1007 C   0  0  0  0  0  0
  -39.4385   26.8497   66.8694 C   0  0  0  0  0  0
  -39.4310   25.3202   66.8150 C   0  0  0  0  0  0
  -36.4057   21.4714   67.3517 H   0  0  0  0  0  0
  -33.9850   21.4992   66.9515 H   0  0  0  0  0  0
  -32.7293   23.6400   67.0654 H   0  0  0  0  0  0
  -37.6124   23.5347   67.8329 H   0  0  0  0  0  0
  -35.1032   26.6735   65.7677 H   0  0  0  0  0  0
  -35.2562   29.1996   65.7361 H   0  0  0  0  0  0
  -34.1663   29.3090   67.0927 H   0  0  0  0  0  0
  -32.0733   27.2246   66.0150 H   0  0  0  0  0  0
  -30.4009   28.2434   64.9538 H   0  0  0  0  0  0
  -37.7112   25.1114   69.4217 H   0  0  0  0  0  0
  -37.7148   26.8158   69.5296 H   0  0  0  0  0  0
  -39.9293   26.0102   68.8536 H   0  0  0  0  0  0
  -40.3860   27.3837   66.8257 H   0  0  0  0  0  0
  -38.6409   27.3988   66.3708 H   0  0  0  0  0  0
  -38.6141   24.8157   66.3031 H   0  0  0  0  0  0
  -40.3759   24.7828   66.7207 H   0  0  0  0  0  0
  1  6  1  0  0  0
  1  2  2  0  0  0
  1 21  1  0  0  0
  2  3  1  0  0  0
  2 22  1  0  0  0
  3  4  2  0  0  0
  3 23  1  0  0  0
  4 11  1  0  0  0
  4  5  1  0  0  0
  5  6  2  0  0  0
  5  7  1  0  0  0
  6 24  1  0  0  0
  7  8  1  0  0  0
  7 17  1  0  0  0
  8  9  2  0  0  0
  8 10  1  0  0  0
 10 11  1  0  0  0
 10 12  1  0  0  0
 10 25  1  0  0  0
 12 13  1  0  0  0
 12 26  1  0  0  0
 12 27  1  0  0  0
 13 14  2  0  0  0
 13 15  1  0  0  0
 15 16  1  0  0  0
 15 28  1  0  0  0
 16 29  1  0  0  0
 17 18  1  0  0  0
 17 30  1  0  0  0
 17 31  1  0  0  0
 18 20  1  0  0  0
 18 19  1  0  0  0
 18 32  1  0  0  0
 19 20  1  0  0  0
 19 33  1  0  0  0
 19 34  1  0  0  0
 20 35  1  0  0  0
 20 36  1  0  0  0
M  END
> <s_m_entry_id>
40227

> <s_m_entry_name>
ligand_docking-pose.36

> <s_m_Source_Path>
/home/csk/Desktop/cluster/DUD-E-result/def

> <s_m_Source_File>
ligand_docking-pose.sdf

> <i_m_Source_File_Index>
36

> <i_lp_mmshare_version>
53161

> <r_lp_tautomer_probability>
1

> <s_lp_Force_Field>
OPLS_2005

> <r_lp_Energy>
46.950422

> <b_lp_Chiralities_Consistent>
1

> <s_lp_Variant>
50902-2

> <s_i_glide_gridfile>
glide-grid_1lru

> <i_i_glide_lignum>
30

> <i_i_glide_rotatable_bonds>
6

> <r_i_docking_score>
-7.57691626272686

> <r_i_glide_ligand_efficiency>
-0.378845813136343

> <r_i_glide_ligand_efficiency_sa>
-1.02834574812363

> <r_i_glide_ligand_efficiency_ln>
-1.8962522371369

> <r_i_glide_gscore>
-7.57691626272686

> <r_i_glide_lipo>
-2.35486406633636

> <r_i_glide_hbond>
-0.64801791239224

> <r_i_glide_metal>
-0.968685854686899

> <r_i_glide_rewards>
-1.41575659625829

> <r_i_glide_evdw>
-31.0949020385742

> <r_i_glide_ecoul>
-10.6852607727051

> <r_i_glide_erotb>
1.0679423847814

> <r_i_glide_esite>
-0.1

> <r_i_glide_emodel>
-60.7523265403473

> <r_i_glide_energy>
-41.7801628112793

> <r_i_glide_einternal>
5.27515459060669

> <i_i_glide_confnum>
59

> <i_i_glide_posenum>
293

> <r_i_glide_eff_state_penalty>
0

> <i_f3d_flags>
0

> <s_user_duplicate_titles>
50902

> <s_m_subgroup_title>
dock_pv

> <s_m_subgroupid>
dock_pv1

> <b_m_subgroup_collapsed>
0

$$$$
37842
                    3D
 Schrodinger Suite 2021-1.
 28 28  0  0  1  0            999 V2000
  -38.7509   30.2790   65.9332 C   0  0  0  0  0  0
  -38.9054   28.9455   66.4096 O   0  0  0  0  0  0
  -37.7911   28.2278   66.8143 C   0  0  0  0  0  0
  -36.4892   28.7577   66.8314 C   0  0  0  0  0  0
  -35.3907   27.9729   67.1970 C   0  0  0  0  0  0
  -35.6011   26.6401   67.5768 C   0  0  0  0  0  0
  -36.8915   26.1137   67.5838 C   0  0  0  0  0  0
  -37.9940   26.8915   67.1930 C   0  0  0  0  0  0
  -39.2902   26.4050   67.1319 O   0  0  0  0  0  0
  -39.5504   25.0464   67.4686 C   0  0  0  0  0  0
  -34.2838   25.6058   68.0148 Cl  0  0  0  0  0  0
  -33.9783   28.5608   67.0878 C   0  0  0  0  0  0
  -33.3165   28.2604   65.7288 C   0  0  0  0  0  0
  -33.9730   27.7590   64.8152 O   0  0  0  0  0  0
  -32.0121   28.5593   65.6118 N   0  0  0  0  0  0
  -31.3577   28.1591   64.4292 O   0  0  0  0  0  0
  -39.7187   30.6609   65.6076 H   0  0  0  0  0  0
  -38.3851   30.9425   66.7181 H   0  0  0  0  0  0
  -38.0773   30.3269   65.0756 H   0  0  0  0  0  0
  -36.3108   29.7758   66.5222 H   0  0  0  0  0  0
  -37.0147   25.0820   67.8743 H   0  0  0  0  0  0
  -40.6150   24.8441   67.3483 H   0  0  0  0  0  0
  -39.0101   24.3595   66.8150 H   0  0  0  0  0  0
  -39.2894   24.8343   68.5064 H   0  0  0  0  0  0
  -33.3499   28.2017   67.9025 H   0  0  0  0  0  0
  -34.0256   29.6428   67.2146 H   0  0  0  0  0  0
  -31.3762   28.7153   66.3891 H   0  0  0  0  0  0
  -30.5904   28.7428   64.3582 H   0  0  0  0  0  0
  1  2  1  0  0  0
  1 17  1  0  0  0
  1 18  1  0  0  0
  1 19  1  0  0  0
  2  3  1  0  0  0
  3  8  1  0  0  0
  3  4  2  0  0  0
  4  5  1  0  0  0
  4 20  1  0  0  0
  5  6  2  0  0  0
  5 12  1  0  0  0
  6  7  1  0  0  0
  6 11  1  0  0  0
  7  8  2  0  0  0
  7 21  1  0  0  0
  8  9  1  0  0  0
  9 10  1  0  0  0
 10 22  1  0  0  0
 10 23  1  0  0  0
 10 24  1  0  0  0
 12 13  1  0  0  0
 12 25  1  0  0  0
 12 26  1  0  0  0
 13 14  2  0  0  0
 13 15  1  0  0  0
 15 16  1  0  0  0
 15 27  1  0  0  0
 16 28  1  0  0  0
M  END
> <s_m_entry_id>
40233

> <s_m_entry_name>
ligand_docking-pose.42

> <s_m_Source_Path>
/home/csk/Desktop/cluster/DUD-E-result/def

> <s_m_Source_File>
ligand_docking-pose.sdf

> <i_m_Source_File_Index>
42

> <i_lp_mmshare_version>
53161

> <r_lp_tautomer_probability>
1

> <s_lp_Force_Field>
OPLS_2005

> <r_lp_Energy>
19.336776

> <b_lp_Chiralities_Consistent>
1

> <s_lp_Variant>
37842-1

> <s_i_glide_gridfile>
glide-grid_1lru

> <i_i_glide_lignum>
254

> <i_i_glide_rotatable_bonds>
6

> <r_i_docking_score>
-7.4013890448319

> <r_i_glide_ligand_efficiency>
-0.462586815301994

> <r_i_glide_ligand_efficiency_sa>
-1.16564573092834

> <r_i_glide_ligand_efficiency_ln>
-1.96188601243491

> <r_i_glide_gscore>
-7.4013890448319

> <r_i_glide_lipo>
-1.54987826895041

> <r_i_glide_hbond>
-0.44102631446895

> <r_i_glide_metal>
-1.36405758872094

> <r_i_glide_rewards>
-1.73353125104078

> <r_i_glide_evdw>
-27.5283870697021

> <r_i_glide_ecoul>
-11.3470249176025

> <r_i_glide_erotb>
0.865577469474665

> <r_i_glide_esite>
-0.1

> <r_i_glide_emodel>
-57.5023491739944

> <r_i_glide_energy>
-38.8754119873047

> <r_i_glide_einternal>
2.44889879226685

> <i_i_glide_confnum>
7

> <i_i_glide_posenum>
195

> <r_i_glide_eff_state_penalty>
0

> <i_f3d_flags>
0

> <s_user_duplicate_titles>
37842

> <s_m_subgroup_title>
dock_pv

> <s_m_subgroupid>
dock_pv1

> <b_m_subgroup_collapsed>
0

$$$$
51476
                    3D
 Schrodinger Suite 2021-1.
 36 37  0  0  1  0            999 V2000
  -35.1019   23.3702   65.0869 C   0  0  0  0  0  0
  -35.1715   22.6360   66.3040 O   0  0  0  0  0  0
  -34.3136   23.0971   67.3414 C   0  0  0  0  0  0
  -35.0586   24.0551   68.3008 C   0  0  0  0  0  0
  -35.5494   25.3172   67.6860 N   0  0  0  0  0  0
  -36.9475   25.4378   67.4012 C   0  0  0  0  0  0
  -37.7741   24.3130   67.2150 C   0  0  0  0  0  0
  -39.1517   24.4476   67.0481 C   0  0  0  0  0  0
  -39.7343   25.7109   67.0505 C   0  0  0  0  0  0
  -38.9379   26.8404   67.2157 C   0  0  0  0  0  0
  -37.5598   26.7084   67.3904 C   0  0  0  0  0  0
  -36.5869   28.1505   67.6843 S   0  0  0  0  0  0
  -35.1252   27.5552   66.7737 C   0  0  2  0  0  0
  -34.5981   26.2906   67.5164 C   0  0  0  0  0  0
  -33.4339   26.1886   67.9081 O   0  0  0  0  0  0
  -34.0616   28.6997   66.7399 C   0  0  0  0  0  0
  -33.1906   28.7060   65.4713 C   0  0  0  0  0  0
  -33.5850   29.2167   64.4250 O   0  0  0  0  0  0
  -31.9850   28.1590   65.5705 N   0  0  0  0  0  0
  -31.1850   28.1590   64.4250 O   0  0  0  0  0  0
  -36.0709   23.3590   64.5950 H   0  0  0  0  0  0
  -34.8251   24.4172   65.2151 H   0  0  0  0  0  0
  -34.3850   22.9029   64.4150 H   0  0  0  0  0  0
  -33.3993   23.5472   66.9477 H   0  0  0  0  0  0
  -33.9850   22.2287   67.9130 H   0  0  0  0  0  0
  -34.4739   24.2422   69.2031 H   0  0  0  0  0  0
  -35.9283   23.5148   68.6689 H   0  0  0  0  0  0
  -37.3705   23.3126   67.1984 H   0  0  0  0  0  0
  -39.7679   23.5692   66.9126 H   0  0  0  0  0  0
  -40.8012   25.8123   66.9228 H   0  0  0  0  0  0
  -39.3911   27.8210   67.2263 H   0  0  0  0  0  0
  -35.4980   27.2767   65.7850 H   0  0  0  0  0  0
  -34.5611   29.6625   66.8150 H   0  0  0  0  0  0
  -33.4262   28.6972   67.6272 H   0  0  0  0  0  0
  -31.4806   27.9124   66.4184 H   0  0  0  0  0  0
  -30.5129   27.4852   64.6107 H   0  0  0  0  0  0
  1  2  1  0  0  0
  1 21  1  0  0  0
  1 22  1  0  0  0
  1 23  1  0  0  0
  2  3  1  0  0  0
  3  4  1  0  0  0
  3 24  1  0  0  0
  3 25  1  0  0  0
  4  5  1  0  0  0
  4 26  1  0  0  0
  4 27  1  0  0  0
  5 14  1  0  0  0
  5  6  1  0  0  0
  6 11  2  0  0  0
  6  7  1  0  0  0
  7  8  2  0  0  0
  7 28  1  0  0  0
  8  9  1  0  0  0
  8 29  1  0  0  0
  9 10  2  0  0  0
  9 30  1  0  0  0
 10 11  1  0  0  0
 10 31  1  0  0  0
 11 12  1  0  0  0
 12 13  1  0  0  0
 13 14  1  0  0  0
 13 16  1  0  0  0
 13 32  1  0  0  0
 14 15  2  0  0  0
 16 17  1  0  0  0
 16 33  1  0  0  0
 16 34  1  0  0  0
 17 18  2  0  0  0
 17 19  1  0  0  0
 19 20  1  0  0  0
 19 35  1  0  0  0
 20 36  1  0  0  0
M  END
> <s_m_entry_id>
40234

> <s_m_entry_name>
ligand_docking-pose.43

> <s_m_Source_Path>
/home/csk/Desktop/cluster/DUD-E-result/def

> <s_m_Source_File>
ligand_docking-pose.sdf

> <i_m_Source_File_Index>
43

> <i_lp_mmshare_version>
53161

> <r_lp_tautomer_probability>
1

> <s_lp_Force_Field>
OPLS_2005

> <r_lp_Energy>
38.820511

> <b_lp_Chiralities_Consistent>
1

> <s_lp_Variant>
51476-2

> <s_i_glide_gridfile>
glide-grid_1lru

> <i_i_glide_lignum>
256

> <i_i_glide_rotatable_bonds>
7

> <r_i_docking_score>
-7.40111484628216

> <r_i_glide_ligand_efficiency>
-0.370055742314108

> <r_i_glide_ligand_efficiency_sa>
-1.00448582505646

> <r_i_glide_ligand_efficiency_ln>
-1.85225494091957

> <r_i_glide_gscore>
-7.40111484628216

> <r_i_glide_lipo>
-1.93693815123169

> <r_i_glide_hbond>
-0.512102008024238

> <r_i_glide_metal>
-0.847852419656388

> <r_i_glide_rewards>
-1.38856793768702

> <r_i_glide_evdw>
-31.7830581665039

> <r_i_glide_ecoul>
-13.7964448928833

> <r_i_glide_erotb>
1.04296531257487

> <r_i_glide_esite>
-0.1

> <r_i_glide_emodel>
-63.3964053348713

> <r_i_glide_energy>
-45.5795030593872

> <r_i_glide_einternal>
6.28040313720703

> <i_i_glide_confnum>
35

> <i_i_glide_posenum>
363

> <r_i_glide_eff_state_penalty>
0

> <i_f3d_flags>
0

> <s_user_duplicate_titles>
51476

> <s_m_subgroup_title>
dock_pv

> <s_m_subgroupid>
dock_pv1

> <b_m_subgroup_collapsed>
0

$$$$
37940
                    3D
 Schrodinger Suite 2021-1.
 38 39  0  0  1  0            999 V2000
  -34.6385   22.2211   66.9486 C   0  0  0  0  0  0
  -33.9847   23.3533   67.4232 C   0  0  0  0  0  0
  -34.6791   24.3025   68.1778 C   0  0  0  0  0  0
  -36.0221   24.0844   68.4974 C   0  0  0  0  0  0
  -36.7038   22.9745   67.9854 C   0  0  0  0  0  0
  -35.9933   22.0440   67.2147 C   0  0  0  0  0  0
  -38.2082   22.8215   68.2181 C   0  0  0  0  0  0
  -38.4265   22.1582   69.3507 F   0  0  0  0  0  0
  -38.8044   24.0087   68.3199 F   0  0  0  0  0  0
  -38.7867   22.1595   67.2157 F   0  0  0  0  0  0
  -34.0009   25.6022   68.5658 C   0  0  0  0  0  0
  -33.6682   26.3347   67.3493 N   0  0  1  0  0  0
  -34.2358   27.7023   67.1955 C   0  0  2  0  0  0
  -35.7390   27.9302   67.1128 C   0  0  0  0  0  0
  -36.2545   29.2314   67.2149 C   0  0  0  0  0  0
  -37.6266   29.4705   67.1456 C   0  0  0  0  0  0
  -38.5095   28.4106   66.9534 C   0  0  0  0  0  0
  -38.0130   27.1153   66.8156 C   0  0  0  0  0  0
  -36.6378   26.8838   66.8736 C   0  0  0  0  0  0
  -38.8605   26.0867   66.5912 F   0  0  0  0  0  0
  -39.8413   28.6426   66.8816 F   0  0  0  0  0  0
  -33.6023   28.2108   65.8918 C   0  0  0  0  0  0
  -33.9849   27.7589   64.8150 O   0  0  0  0  0  0
  -32.6338   29.1194   66.0150 N   0  0  0  0  0  0
  -31.9850   29.5071   64.8453 O   0  0  0  0  0  0
  -34.1042   21.5022   66.3453 H   0  0  0  0  0  0
  -32.9452   23.5148   67.1738 H   0  0  0  0  0  0
  -36.5590   24.8210   69.0782 H   0  0  0  0  0  0
  -36.4834   21.1836   66.7925 H   0  0  0  0  0  0
  -33.1068   25.3780   69.1501 H   0  0  0  0  0  0
  -34.6638   26.1983   69.1930 H   0  0  0  0  0  0
  -32.6594   26.3309   67.2140 H   0  0  0  0  0  0
  -33.8707   28.3052   68.0297 H   0  0  0  0  0  0
  -35.5886   30.0693   67.3667 H   0  0  0  0  0  0
  -38.0031   30.4793   67.2411 H   0  0  0  0  0  0
  -36.2705   25.8891   66.6873 H   0  0  0  0  0  0
  -32.1223   29.3609   66.8625 H   0  0  0  0  0  0
  -31.1434   29.0332   64.8775 H   0  0  0  0  0  0
  1  6  1  0  0  0
  1  2  2  0  0  0
  1 26  1  0  0  0
  2  3  1  0  0  0
  2 27  1  0  0  0
  3  4  2  0  0  0
  3 11  1  0  0  0
  4  5  1  0  0  0
  4 28  1  0  0  0
  5  6  2  0  0  0
  5  7  1  0  0  0
  6 29  1  0  0  0
  7  8  1  0  0  0
  7  9  1  0  0  0
  7 10  1  0  0  0
 11 12  1  0  0  0
 11 30  1  0  0  0
 11 31  1  0  0  0
 12 13  1  0  0  0
 12 32  1  0  0  0
 13 14  1  0  0  0
 13 22  1  0  0  0
 13 33  1  0  0  0
 14 19  1  0  0  0
 14 15  2  0  0  0
 15 16  1  0  0  0
 15 34  1  0  0  0
 16 17  2  0  0  0
 16 35  1  0  0  0
 17 18  1  0  0  0
 17 21  1  0  0  0
 18 19  2  0  0  0
 18 20  1  0  0  0
 19 36  1  0  0  0
 22 23  2  0  0  0
 22 24  1  0  0  0
 24 25  1  0  0  0
 24 37  1  0  0  0
 25 38  1  0  0  0
M  END
> <s_m_entry_id>
40245

> <s_m_entry_name>
ligand_docking-pose.54

> <s_m_Source_Path>
/home/csk/Desktop/cluster/DUD-E-result/def

> <s_m_Source_File>
ligand_docking-pose.sdf

> <i_m_Source_File_Index>
54

> <i_lp_mmshare_version>
53161

> <r_lp_tautomer_probability>
1

> <s_lp_Force_Field>
OPLS_2005

> <r_lp_Energy>
24.589854

> <b_lp_Chiralities_Consistent>
1

> <s_lp_Variant>
37940-1

> <s_i_glide_gridfile>
glide-grid_1lru

> <i_i_glide_lignum>
67

> <i_i_glide_rotatable_bonds>
8

> <r_i_docking_score>
-7.12811884144983

> <r_i_glide_ligand_efficiency>
-0.285124753657993

> <r_i_glide_ligand_efficiency_sa>
-0.83370983640501

> <r_i_glide_ligand_efficiency_ln>
-1.68957777790782

> <r_i_glide_gscore>
-7.12811884144983

> <r_i_glide_lipo>
-2.87973058947426

> <r_i_glide_hbond>
-0.435156289605498

> <r_i_glide_metal>
0

> <r_i_glide_rewards>
-0.952565893532767

> <r_i_glide_evdw>
-32.795108795166

> <r_i_glide_ecoul>
-12.1771841049194

> <r_i_glide_erotb>
0.738714737848175

> <r_i_glide_esite>
-0.133047751189263

> <r_i_glide_emodel>
-59.9240691643003

> <r_i_glide_energy>
-44.9722929000854

> <r_i_glide_einternal>
8.38578224182129

> <i_i_glide_confnum>
59

> <i_i_glide_posenum>
15

> <r_i_glide_eff_state_penalty>
0

> <i_f3d_flags>
0

> <s_user_duplicate_titles>
37940

> <s_m_subgroup_title>
dock_pv

> <s_m_subgroupid>
dock_pv1

> <b_m_subgroup_collapsed>
0

$$$$
313112
                    3D
 Schrodinger Suite 2021-1.
 58 58  0  0  1  0            999 V2000
  -37.3446   30.3083   67.9877 C   0  0  0  0  0  0
  -38.3561   29.3594   67.3126 C   0  0  0  0  0  0
  -39.7619   29.8039   67.7993 C   0  0  0  0  0  0
  -38.2692   29.6006   65.7800 C   0  0  0  0  0  0
  -37.9921   27.8787   67.7275 C   0  0  1  0  0  0
  -39.1413   26.8715   67.5455 C   0  0  0  0  0  0
  -39.5004   26.5567   66.4151 O   0  0  0  0  0  0
  -39.7065   26.3827   68.6592 N   0  0  0  0  0  0
  -40.7513   25.3573   68.6444 C   0  0  0  0  0  0
  -40.2445   23.9717   68.1904 C   0  0  0  0  0  0
  -39.1740   23.3631   69.1182 C   0  0  0  0  0  0
  -38.4028   22.1899   68.4811 C   0  0  0  0  0  0
  -36.9802   22.5592   67.9993 C   0  0  0  0  0  0
  -36.9541   23.5088   66.7853 C   0  0  0  0  0  0
  -35.5643   23.7035   66.1554 C   0  0  0  0  0  0
  -34.5753   24.5853   66.9496 C   0  0  0  0  0  0
  -34.6868   26.1194   66.6829 C   0  0  1  0  0  0
  -35.7442   26.7868   67.5950 C   0  0  0  0  0  0
  -35.5676   26.8075   68.8146 O   0  0  0  0  0  0
  -36.8293   27.3260   67.0102 N   0  0  0  0  0  0
  -33.2851   26.7795   66.8261 C   0  0  0  0  0  0
  -33.1851   28.1690   66.3722 N   0  0  0  0  0  0
  -32.5898   28.6022   65.2368 C   0  0  0  0  0  0
  -32.6003   29.7579   64.8152 O   0  0  0  0  0  0
  -33.7169   29.1462   67.2154 O   0  0  0  0  0  0
  -37.7817   27.8899   68.7985 H   0  0  0  0  0  0
  -34.9905   26.2672   65.6454 H   0  0  0  0  0  0
  -36.3290   30.1448   67.6261 H   0  0  0  0  0  0
  -37.5932   31.3515   67.7944 H   0  0  0  0  0  0
  -37.3500   30.1925   69.0716 H   0  0  0  0  0  0
  -40.5602   29.2149   67.3466 H   0  0  0  0  0  0
  -39.8556   29.7247   68.8842 H   0  0  0  0  0  0
  -39.9657   30.8426   67.5390 H   0  0  0  0  0  0
  -38.9472   28.9593   65.2216 H   0  0  0  0  0  0
  -38.5387   30.6263   65.5250 H   0  0  0  0  0  0
  -37.2612   29.4430   65.3942 H   0  0  0  0  0  0
  -39.3583   26.6832   69.5585 H   0  0  0  0  0  0
  -41.1433   25.2812   69.6591 H   0  0  0  0  0  0
  -41.5840   25.6787   68.0174 H   0  0  0  0  0  0
  -41.0884   23.2838   68.1344 H   0  0  0  0  0  0
  -39.8755   24.0362   67.1663 H   0  0  0  0  0  0
  -38.4667   24.1281   69.4440 H   0  0  0  0  0  0
  -39.6648   23.0216   70.0310 H   0  0  0  0  0  0
  -38.3400   21.3902   69.2175 H   0  0  0  0  0  0
  -38.9719   21.7597   67.6557 H   0  0  0  0  0  0
  -36.4127   22.9951   68.8228 H   0  0  0  0  0  0
  -36.4551   21.6406   67.7327 H   0  0  0  0  0  0
  -37.5849   23.0765   66.0157 H   0  0  0  0  0  0
  -37.3998   24.4698   67.0371 H   0  0  0  0  0  0
  -35.1172   22.7202   66.0021 H   0  0  0  0  0  0
  -35.6836   24.1107   65.1503 H   0  0  0  0  0  0
  -34.6088   24.3564   68.0155 H   0  0  0  0  0  0
  -33.5825   24.2481   66.6449 H   0  0  0  0  0  0
  -36.9240   27.2708   66.0058 H   0  0  0  0  0  0
  -32.9177   26.7009   67.8506 H   0  0  0  0  0  0
  -32.5794   26.1856   66.2479 H   0  0  0  0  0  0
  -32.0654   27.7842   64.7245 H   0  0  0  0  0  0
  -32.9230   29.5170   67.6154 H   0  0  0  0  0  0
  1  2  1  0  0  0
  1 28  1  0  0  0
  1 29  1  0  0  0
  1 30  1  0  0  0
  2  3  1  0  0  0
  2  4  1  0  0  0
  2  5  1  0  0  0
  3 31  1  0  0  0
  3 32  1  0  0  0
  3 33  1  0  0  0
  4 34  1  0  0  0
  4 35  1  0  0  0
  4 36  1  0  0  0
  5 26  1  0  0  0
  5 20  1  0  0  0
  5  6  1  0  0  0
  6  7  2  0  0  0
  6  8  1  0  0  0
  8  9  1  0  0  0
  8 37  1  0  0  0
  9 10  1  0  0  0
  9 38  1  0  0  0
  9 39  1  0  0  0
 10 11  1  0  0  0
 10 40  1  0  0  0
 10 41  1  0  0  0
 11 12  1  0  0  0
 11 42  1  0  0  0
 11 43  1  0  0  0
 12 13  1  0  0  0
 12 44  1  0  0  0
 12 45  1  0  0  0
 13 14  1  0  0  0
 13 46  1  0  0  0
 13 47  1  0  0  0
 14 15  1  0  0  0
 14 48  1  0  0  0
 14 49  1  0  0  0
 15 16  1  0  0  0
 15 50  1  0  0  0
 15 51  1  0  0  0
 16 17  1  0  0  0
 16 52  1  0  0  0
 16 53  1  0  0  0
 17 27  1  0  0  0
 17 18  1  0  0  0
 17 21  1  0  0  0
 18 19  2  0  0  0
 18 20  1  0  0  0
 20 54  1  0  0  0
 21 22  1  0  0  0
 21 55  1  0  0  0
 21 56  1  0  0  0
 22 23  1  0  0  0
 22 25  1  0  0  0
 23 24  2  0  0  0
 23 57  1  0  0  0
 25 58  1  0  0  0
M  END
> <s_m_entry_id>
40250

> <s_m_entry_name>
ligand_docking-pose.59

> <s_m_Source_Path>
/home/csk/Desktop/cluster/DUD-E-result/def

> <s_m_Source_File>
ligand_docking-pose.sdf

> <i_m_Source_File_Index>
59

> <i_lp_mmshare_version>
53161

> <r_lp_tautomer_probability>
1

> <s_lp_Force_Field>
OPLS_2005

> <r_lp_Energy>
16.883917

> <b_lp_Chiralities_Consistent>
1

> <s_lp_Variant>
313112-1

> <s_i_glide_gridfile>
glide-grid_1lru

> <i_i_glide_lignum>
137

> <i_i_glide_rotatable_bonds>
5

> <r_i_docking_score>
-7.013642775456

> <r_i_glide_ligand_efficiency>
-0.28054571101824

> <r_i_glide_ligand_efficiency_sa>
-0.820320634516705

> <r_i_glide_ligand_efficiency_ln>
-1.66244351969641

> <r_i_glide_gscore>
-7.013642775456

> <r_i_glide_lipo>
-2.01506880327223

> <r_i_glide_hbond>
-0.881280266679077

> <r_i_glide_metal>
0

> <r_i_glide_rewards>
-0.983383611104898

> <r_i_glide_evdw>
-35.1405830383301

> <r_i_glide_ecoul>
-10.770580291748

> <r_i_glide_erotb>
0.302641375573669

> <r_i_glide_esite>
-0.0639352742947558

> <r_i_glide_emodel>
-58.494191245679

> <r_i_glide_energy>
-45.9111633300781

> <r_i_glide_einternal>
8.78991317749023

> <i_i_glide_confnum>
9

> <i_i_glide_posenum>
190

> <r_i_glide_eff_state_penalty>
0

> <i_f3d_flags>
0

> <s_user_duplicate_titles>
313112

> <s_m_subgroup_title>
dock_pv

> <s_m_subgroupid>
dock_pv1

> <b_m_subgroup_collapsed>
0

$$$$
51434
                    3D
 Schrodinger Suite 2021-1.
 30 31  0  0  1  0            999 V2000
  -38.9286   23.8521   67.2150 C   0  0  0  0  0  0
  -39.5206   25.0648   67.5601 C   0  0  0  0  0  0
  -38.7264   26.1364   67.9632 C   0  0  0  0  0  0
  -37.3384   26.0006   68.0107 C   0  0  0  0  0  0
  -36.7212   24.7835   67.6507 C   0  0  0  0  0  0
  -37.5414   23.7096   67.2637 C   0  0  0  0  0  0
  -35.3052   24.6486   67.7576 N   0  0  0  0  0  0
  -34.3876   25.6629   67.6992 C   0  0  0  0  0  0
  -33.1850   25.5241   67.9211 O   0  0  0  0  0  0
  -35.0350   27.0245   67.3147 C   0  0  1  0  0  0
  -36.3324   27.3590   68.5474 S   0  0  0  0  0  0
  -33.9885   28.1850   67.1402 C   0  0  0  0  0  0
  -33.3156   28.1524   65.7546 C   0  0  0  0  0  0
  -33.9850   27.7588   64.8150 O   0  0  0  0  0  0
  -32.0288   28.5106   65.6150 N   0  0  0  0  0  0
  -31.3562   28.1591   64.4321 O   0  0  0  0  0  0
  -34.7620   23.2885   67.9298 C   0  0  0  0  0  0
  -34.4695   22.6546   66.6341 C   0  0  0  0  0  0
  -34.2437   22.1590   65.6150 N   0  0  0  0  0  0
  -39.5469   23.0198   66.9073 H   0  0  0  0  0  0
  -40.5951   25.1703   67.5230 H   0  0  0  0  0  0
  -39.1874   27.0727   68.2427 H   0  0  0  0  0  0
  -37.1213   22.7554   66.9828 H   0  0  0  0  0  0
  -35.6022   26.8825   66.3903 H   0  0  0  0  0  0
  -34.5032   29.1444   67.1993 H   0  0  0  0  0  0
  -33.2444   28.1909   67.9377 H   0  0  0  0  0  0
  -31.4003   28.8054   66.3570 H   0  0  0  0  0  0
  -30.6893   27.5196   64.7276 H   0  0  0  0  0  0
  -35.4559   22.6527   68.4798 H   0  0  0  0  0  0
  -33.8349   23.2808   68.5059 H   0  0  0  0  0  0
  1  6  1  0  0  0
  1  2  2  0  0  0
  1 20  1  0  0  0
  2  3  1  0  0  0
  2 21  1  0  0  0
  3  4  2  0  0  0
  3 22  1  0  0  0
  4 11  1  0  0  0
  4  5  1  0  0  0
  5  6  2  0  0  0
  5  7  1  0  0  0
  6 23  1  0  0  0
  7  8  1  0  0  0
  7 17  1  0  0  0
  8  9  2  0  0  0
  8 10  1  0  0  0
 10 11  1  0  0  0
 10 12  1  0  0  0
 10 24  1  0  0  0
 12 13  1  0  0  0
 12 25  1  0  0  0
 12 26  1  0  0  0
 13 14  2  0  0  0
 13 15  1  0  0  0
 15 16  1  0  0  0
 15 27  1  0  0  0
 16 28  1  0  0  0
 17 18  1  0  0  0
 17 29  1  0  0  0
 17 30  1  0  0  0
 18 19  3  0  0  0
M  END
> <s_m_entry_id>
40251

> <s_m_entry_name>
ligand_docking-pose.60

> <s_m_Source_Path>
/home/csk/Desktop/cluster/DUD-E-result/def

> <s_m_Source_File>
ligand_docking-pose.sdf

> <i_m_Source_File_Index>
60

> <i_lp_mmshare_version>
53161

> <r_lp_tautomer_probability>
1

> <s_lp_Force_Field>
OPLS_2005

> <r_lp_Energy>
32.943725

> <b_lp_Chiralities_Consistent>
1

> <s_lp_Variant>
51434-1

> <s_i_glide_gridfile>
glide-grid_1lru

> <i_i_glide_lignum>
43

> <i_i_glide_rotatable_bonds>
5

> <r_i_docking_score>
-6.99120718049493

> <r_i_glide_ligand_efficiency>
-0.367958272657628

> <r_i_glide_ligand_efficiency_sa>
-0.981860460456817

> <r_i_glide_ligand_efficiency_ln>
-1.7724211776176

> <r_i_glide_gscore>
-6.99120718049493

> <r_i_glide_lipo>
-1.31158729690366

> <r_i_glide_hbond>
-0.435997867920987

> <r_i_glide_metal>
-1.34539530108652

> <r_i_glide_rewards>
-1.50278012440166

> <r_i_glide_evdw>
-32.8510437011719

> <r_i_glide_ecoul>
-10.5971345901489

> <r_i_glide_erotb>
0.936675783398829

> <r_i_glide_esite>
-0.1

> <r_i_glide_emodel>
-60.7453971325245

> <r_i_glide_energy>
-43.4481782913208

> <r_i_glide_einternal>
4.51113319396973

> <i_i_glide_confnum>
12

> <i_i_glide_posenum>
280

> <r_i_glide_eff_state_penalty>
0

> <i_f3d_flags>
0

> <s_user_duplicate_titles>
51434

> <s_m_subgroup_title>
dock_pv

> <s_m_subgroupid>
dock_pv1

> <b_m_subgroup_collapsed>
0

$$$$
148184
                    3D
 Schrodinger Suite 2021-1.
 67 68  0  0  1  0            999 V2000
  -35.6462   21.7278   67.1964 C   0  0  0  0  0  0
  -34.2765   22.2683   66.7633 C   0  0  0  0  0  0
  -34.2790   23.7177   66.2375 C   0  0  0  0  0  0
  -34.8847   24.7371   67.2230 C   0  0  0  0  0  0
  -34.8197   26.2241   66.7744 C   0  0  2  0  0  0
  -33.3663   26.7861   66.7876 C   0  0  0  0  0  0
  -33.2076   28.1677   66.3189 N   0  0  0  0  0  0
  -32.7356   28.5832   65.1252 C   0  0  0  0  0  0
  -32.7850   29.7359   64.6907 O   0  0  0  0  0  0
  -33.5851   29.1673   67.2151 O   0  0  0  0  0  0
  -35.8204   27.0381   67.6276 C   0  0  0  0  0  0
  -35.5839   27.2712   68.8146 O   0  0  0  0  0  0
  -36.9723   27.3795   67.0311 N   0  0  0  0  0  0
  -38.1760   27.8959   67.6941 C   0  0  2  0  0  0
  -39.2796   26.8286   67.4206 C   0  0  0  0  0  0
  -39.9851   26.9998   66.4226 O   0  0  0  0  0  0
  -39.4330   25.7411   68.2368 N   0  0  0  0  0  0
  -40.5436   24.8017   67.9106 C   0  0  0  0  0  0
  -40.3092   23.4007   68.5202 C   0  0  0  0  0  0
  -38.8278   23.0247   68.6050 C   0  0  0  0  0  0
  -38.1295   24.0106   69.5616 C   0  0  1  0  0  0
  -38.6208   25.5167   69.4624 C   0  0  2  0  0  0
  -39.3190   26.0402   70.7206 C   0  0  0  0  0  0
  -39.2819   25.3957   71.8971 C   0  0  0  0  0  0
  -38.6011   24.1315   72.0475 C   0  0  0  0  0  0
  -38.0791   23.4774   70.9974 C   0  0  0  0  0  0
  -38.5249   29.3837   67.2835 C   0  0  0  0  0  0
  -38.3605   29.6540   65.7616 C   0  0  0  0  0  0
  -37.5302   30.3192   68.0109 C   0  0  0  0  0  0
  -39.9360   29.8378   67.7449 C   0  0  0  0  0  0
  -35.1705   26.2771   65.7417 H   0  0  0  0  0  0
  -38.0390   27.9455   68.7720 H   0  0  0  0  0  0
  -35.5851   20.6660   67.4328 H   0  0  0  0  0  0
  -36.0051   22.2308   68.0923 H   0  0  0  0  0  0
  -36.3968   21.8552   66.4182 H   0  0  0  0  0  0
  -33.5902   22.1897   67.6087 H   0  0  0  0  0  0
  -33.8786   21.6186   65.9822 H   0  0  0  0  0  0
  -33.2475   23.9862   66.0134 H   0  0  0  0  0  0
  -34.8195   23.7621   65.2905 H   0  0  0  0  0  0
  -35.9309   24.4553   67.3551 H   0  0  0  0  0  0
  -34.4187   24.6268   68.2049 H   0  0  0  0  0  0
  -32.9363   26.6999   67.7871 H   0  0  0  0  0  0
  -32.7547   26.1308   66.1737 H   0  0  0  0  0  0
  -32.2767   27.7590   64.5677 H   0  0  0  0  0  0
  -32.7353   29.3737   67.6308 H   0  0  0  0  0  0
  -37.0893   27.1664   66.0498 H   0  0  0  0  0  0
  -41.5061   25.2162   68.2147 H   0  0  0  0  0  0
  -40.5472   24.6316   66.8307 H   0  0  0  0  0  0
  -40.7353   23.3771   69.5247 H   0  0  0  0  0  0
  -40.8686   22.6546   67.9531 H   0  0  0  0  0  0
  -38.6954   21.9806   68.8959 H   0  0  0  0  0  0
  -38.4546   23.1678   67.5890 H   0  0  0  0  0  0
  -37.0747   23.9922   69.2899 H   0  0  0  0  0  0
  -37.6965   26.0856   69.4185 H   0  0  0  0  0  0
  -39.8694   26.9683   70.6687 H   0  0  0  0  0  0
  -39.8013   25.8156   72.7470 H   0  0  0  0  0  0
  -38.5098   23.7019   73.0348 H   0  0  0  0  0  0
  -37.5888   22.5359   71.1880 H   0  0  0  0  0  0
  -38.9433   28.9607   65.1575 H   0  0  0  0  0  0
  -38.6889   30.6601   65.4917 H   0  0  0  0  0  0
  -37.3189   29.5764   65.4404 H   0  0  0  0  0  0
  -37.5833   30.2025   69.0945 H   0  0  0  0  0  0
  -36.4983   30.1472   67.7025 H   0  0  0  0  0  0
  -37.7514   31.3672   67.8069 H   0  0  0  0  0  0
  -40.0349   29.7969   68.8326 H   0  0  0  0  0  0
  -40.1388   30.8700   67.4486 H   0  0  0  0  0  0
  -40.7333   29.2361   67.3111 H   0  0  0  0  0  0
  1  2  1  0  0  0
  1 33  1  0  0  0
  1 34  1  0  0  0
  1 35  1  0  0  0
  2  3  1  0  0  0
  2 36  1  0  0  0
  2 37  1  0  0  0
  3  4  1  0  0  0
  3 38  1  0  0  0
  3 39  1  0  0  0
  4  5  1  0  0  0
  4 40  1  0  0  0
  4 41  1  0  0  0
  5 31  1  0  0  0
  5  6  1  0  0  0
  5 11  1  0  0  0
  6  7  1  0  0  0
  6 42  1  0  0  0
  6 43  1  0  0  0
  7  8  1  0  0  0
  7 10  1  0  0  0
  8  9  2  0  0  0
  8 44  1  0  0  0
 10 45  1  0  0  0
 11 12  2  0  0  0
 11 13  1  0  0  0
 13 14  1  0  0  0
 13 46  1  0  0  0
 14 32  1  0  0  0
 14 15  1  0  0  0
 14 27  1  0  0  0
 15 16  2  0  0  0
 15 17  1  0  0  0
 17 22  1  0  0  0
 17 18  1  0  0  0
 18 19  1  0  0  0
 18 47  1  0  0  0
 18 48  1  0  0  0
 19 20  1  0  0  0
 19 49  1  0  0  0
 19 50  1  0  0  0
 20 21  1  0  0  0
 20 51  1  0  0  0
 20 52  1  0  0  0
 21 26  1  0  0  0
 21 22  1  0  0  0
 21 53  1  0  0  0
 22 23  1  0  0  0
 22 54  1  0  0  0
 23 24  2  0  0  0
 23 55  1  0  0  0
 24 25  1  0  0  0
 24 56  1  0  0  0
 25 26  2  0  0  0
 25 57  1  0  0  0
 26 58  1  0  0  0
 27 28  1  0  0  0
 27 29  1  0  0  0
 27 30  1  0  0  0
 28 59  1  0  0  0
 28 60  1  0  0  0
 28 61  1  0  0  0
 29 62  1  0  0  0
 29 63  1  0  0  0
 29 64  1  0  0  0
 30 65  1  0  0  0
 30 66  1  0  0  0
 30 67  1  0  0  0
M  END
> <s_m_entry_id>
40256

> <s_m_entry_name>
ligand_docking-pose.65

> <s_m_Source_Path>
/home/csk/Desktop/cluster/DUD-E-result/def

> <s_m_Source_File>
ligand_docking-pose.sdf

> <i_m_Source_File_Index>
65

> <i_lp_mmshare_version>
53161

> <r_lp_tautomer_probability>
1

> <s_lp_Force_Field>
OPLS_2005

> <r_lp_Energy>
47.593676

> <b_lp_Chiralities_Consistent>
1

> <s_lp_Variant>
148184-3

> <s_i_glide_gridfile>
glide-grid_1lru

> <i_i_glide_lignum>
188

> <i_i_glide_rotatable_bonds>
13

> <r_i_docking_score>
-6.89107779726229

> <r_i_glide_ligand_efficiency>
-0.229702593242076

> <r_i_glide_ligand_efficiency_sa>
-0.713739363614487

> <r_i_glide_ligand_efficiency_ln>
-1.56572795984437

> <r_i_glide_gscore>
-6.89107779726229

> <r_i_glide_lipo>
-2.48032326937106

> <r_i_glide_hbond>
-0.973145248601393

> <r_i_glide_metal>
0

> <r_i_glide_rewards>
-0.539360479740602

> <r_i_glide_evdw>
-41.1496162414551

> <r_i_glide_ecoul>
-11.3512401580811

> <r_i_glide_erotb>
0.899147237557668

> <r_i_glide_esite>
-0.0372292013219928

> <r_i_glide_emodel>
-67.1756169357147

> <r_i_glide_energy>
-52.5008563995361

> <r_i_glide_einternal>
15.00661277771

> <i_i_glide_confnum>
66

> <i_i_glide_posenum>
272

> <r_i_glide_eff_state_penalty>
0

> <i_f3d_flags>
0

> <s_user_duplicate_titles>
148184

> <s_m_subgroup_title>
dock_pv

> <s_m_subgroupid>
dock_pv1

> <b_m_subgroup_collapsed>
0

$$$$
37941
                    3D
 Schrodinger Suite 2021-1.
 38 39  0  0  1  0            999 V2000
  -38.3081   30.2379   67.6414 C   0  0  0  0  0  0
  -39.4935   29.6181   67.2589 C   0  0  0  0  0  0
  -39.4749   28.2870   66.8474 C   0  0  0  0  0  0
  -38.2762   27.5761   66.8158 C   0  0  0  0  0  0
  -37.0671   28.1898   67.1881 C   0  0  0  0  0  0
  -37.1086   29.5297   67.6072 C   0  0  0  0  0  0
  -35.7743   27.3941   67.1546 C   0  0  1  0  0  0
  -34.5803   28.1579   66.5194 C   0  0  0  0  0  0
  -33.9708   29.0017   67.1810 O   0  0  0  0  0  0
  -34.2386   27.7814   65.2772 N   0  0  0  0  0  0
  -32.9688   28.1608   64.8198 O   0  0  0  0  0  0
  -35.3082   26.8594   68.4613 N   0  0  2  0  0  0
  -34.3427   25.7550   68.3676 C   0  0  0  0  0  0
  -34.9307   24.4509   67.8328 C   0  0  0  0  0  0
  -34.1070   23.5616   67.1395 C   0  0  0  0  0  0
  -34.6305   22.3735   66.6305 C   0  0  0  0  0  0
  -35.9771   22.0661   66.8153 C   0  0  0  0  0  0
  -36.8199   22.9460   67.5044 C   0  0  0  0  0  0
  -36.2828   24.1294   68.0172 C   0  0  0  0  0  0
  -38.3068   22.6484   67.6989 C   0  0  0  0  0  0
  -39.0350   23.7578   67.5634 F   0  0  0  0  0  0
  -38.7574   21.7611   66.8157 F   0  0  0  0  0  0
  -38.4990   22.1590   68.9230 F   0  0  0  0  0  0
  -38.3044   26.2825   66.4199 F   0  0  0  0  0  0
  -38.3138   31.2707   67.9628 H   0  0  0  0  0  0
  -40.4185   30.1732   67.2830 H   0  0  0  0  0  0
  -40.3855   27.7903   66.5548 H   0  0  0  0  0  0
  -36.2077   30.0477   67.8999 H   0  0  0  0  0  0
  -35.9600   26.5449   66.4932 H   0  0  0  0  0  0
  -34.5916   26.9447   64.8306 H   0  0  0  0  0  0
  -32.5118   28.4337   65.6269 H   0  0  0  0  0  0
  -36.0955   26.5704   69.0260 H   0  0  0  0  0  0
  -33.4339   26.0309   67.8308 H   0  0  0  0  0  0
  -33.9852   25.5342   69.3701 H   0  0  0  0  0  0
  -33.0613   23.7914   66.9897 H   0  0  0  0  0  0
  -33.9919   21.6899   66.0914 H   0  0  0  0  0  0
  -36.3596   21.1390   66.4152 H   0  0  0  0  0  0
  -36.9325   24.8016   68.5554 H   0  0  0  0  0  0
  1  6  1  0  0  0
  1  2  2  0  0  0
  1 25  1  0  0  0
  2  3  1  0  0  0
  2 26  1  0  0  0
  3  4  2  0  0  0
  3 27  1  0  0  0
  4  5  1  0  0  0
  4 24  1  0  0  0
  5  6  2  0  0  0
  5  7  1  0  0  0
  6 28  1  0  0  0
  7  8  1  0  0  0
  7 12  1  0  0  0
  7 29  1  0  0  0
  8  9  2  0  0  0
  8 10  1  0  0  0
 10 11  1  0  0  0
 10 30  1  0  0  0
 11 31  1  0  0  0
 12 13  1  0  0  0
 12 32  1  0  0  0
 13 14  1  0  0  0
 13 33  1  0  0  0
 13 34  1  0  0  0
 14 19  1  0  0  0
 14 15  2  0  0  0
 15 16  1  0  0  0
 15 35  1  0  0  0
 16 17  2  0  0  0
 16 36  1  0  0  0
 17 18  1  0  0  0
 17 37  1  0  0  0
 18 19  2  0  0  0
 18 20  1  0  0  0
 19 38  1  0  0  0
 20 21  1  0  0  0
 20 22  1  0  0  0
 20 23  1  0  0  0
M  END
> <s_m_entry_id>
40257

> <s_m_entry_name>
ligand_docking-pose.66

> <s_m_Source_Path>
/home/csk/Desktop/cluster/DUD-E-result/def

> <s_m_Source_File>
ligand_docking-pose.sdf

> <i_m_Source_File_Index>
66

> <i_lp_mmshare_version>
53161

> <r_lp_tautomer_probability>
1

> <s_lp_Force_Field>
OPLS_2005

> <r_lp_Energy>
30.575781

> <b_lp_Chiralities_Consistent>
1

> <s_lp_Variant>
37941-2

> <s_i_glide_gridfile>
glide-grid_1lru

> <i_i_glide_lignum>
66

> <i_i_glide_rotatable_bonds>
8

> <r_i_docking_score>
-6.88783607559746

> <r_i_glide_ligand_efficiency>
-0.286993169816561

> <r_i_glide_ligand_efficiency_sa>
-0.827831550821228

> <r_i_glide_ligand_efficiency_ln>
-1.64857523509309

> <r_i_glide_gscore>
-6.88783607559746

> <r_i_glide_lipo>
-2.64953033963107

> <r_i_glide_hbond>
-0.29771885080516

> <r_i_glide_metal>
-0.899847584599277

> <r_i_glide_rewards>
-1.05972531638859

> <r_i_glide_evdw>
-34.760799407959

> <r_i_glide_ecoul>
-7.0142822265625

> <r_i_glide_erotb>
0.809168320208956

> <r_i_glide_esite>
0

> <r_i_glide_emodel>
-56.7111459718506

> <r_i_glide_energy>
-41.7750816345215

> <r_i_glide_einternal>
6.58684682846069

> <i_i_glide_confnum>
57

> <i_i_glide_posenum>
35

> <r_i_glide_eff_state_penalty>
0

> <i_f3d_flags>
0

> <s_user_duplicate_titles>
37941

> <s_m_subgroup_title>
dock_pv

> <s_m_subgroupid>
dock_pv1

> <b_m_subgroup_collapsed>
0

$$$$
51057
                    3D
 Schrodinger Suite 2021-1.
 28 29  0  0  1  0            999 V2000
  -39.1599   24.2395   68.3599 C   0  0  0  0  0  0
  -38.8031   23.0191   67.7873 C   0  0  0  0  0  0
  -37.5415   22.8625   67.2151 C   0  0  0  0  0  0
  -36.6440   23.9322   67.2030 C   0  0  0  0  0  0
  -36.9980   25.1670   67.7629 C   0  0  0  0  0  0
  -38.2594   25.3059   68.3511 C   0  0  0  0  0  0
  -35.9955   26.3067   67.6502 C   0  0  0  0  0  0
  -34.5124   25.7977   67.6977 C   0  0  1  0  0  0
  -34.2736   24.5092   66.8400 C   0  0  0  0  0  0
  -33.1850   24.1365   66.4150 O   0  0  0  0  0  0
  -35.3720   23.7511   66.6621 N   0  0  0  0  0  0
  -33.4428   26.9081   67.3934 C   0  0  0  0  0  0
  -33.4484   27.5590   65.9925 C   0  0  0  0  0  0
  -34.3797   27.3589   65.2152 O   0  0  0  0  0  0
  -32.3931   28.3289   65.6696 N   0  0  0  0  0  0
  -32.3766   28.9590   64.4160 O   0  0  0  0  0  0
  -40.1354   24.3591   68.8085 H   0  0  0  0  0  0
  -39.4997   22.1931   67.7908 H   0  0  0  0  0  0
  -37.2666   21.9072   66.7926 H   0  0  0  0  0  0
  -38.5502   26.2515   68.7856 H   0  0  0  0  0  0
  -36.1652   27.0351   68.4443 H   0  0  0  0  0  0
  -36.2100   26.8260   66.7172 H   0  0  0  0  0  0
  -34.3195   25.4567   68.7163 H   0  0  0  0  0  0
  -35.1806   22.8980   66.1607 H   0  0  0  0  0  0
  -32.4404   26.5132   67.5806 H   0  0  0  0  0  0
  -33.5759   27.7223   68.1047 H   0  0  0  0  0  0
  -31.5748   28.5222   66.2396 H   0  0  0  0  0  0
  -31.6343   28.5492   63.9575 H   0  0  0  0  0  0
  1  6  1  0  0  0
  1  2  2  0  0  0
  1 17  1  0  0  0
  2  3  1  0  0  0
  2 18  1  0  0  0
  3  4  2  0  0  0
  3 19  1  0  0  0
  4 11  1  0  0  0
  4  5  1  0  0  0
  5  6  2  0  0  0
  5  7  1  0  0  0
  6 20  1  0  0  0
  7  8  1  0  0  0
  7 21  1  0  0  0
  7 22  1  0  0  0
  8  9  1  0  0  0
  8 12  1  0  0  0
  8 23  1  0  0  0
  9 10  2  0  0  0
  9 11  1  0  0  0
 11 24  1  0  0  0
 12 13  1  0  0  0
 12 25  1  0  0  0
 12 26  1  0  0  0
 13 14  2  0  0  0
 13 15  1  0  0  0
 15 16  1  0  0  0
 15 27  1  0  0  0
 16 28  1  0  0  0
M  END
> <s_m_entry_id>
40259

> <s_m_entry_name>
ligand_docking-pose.68

> <s_m_Source_Path>
/home/csk/Desktop/cluster/DUD-E-result/def

> <s_m_Source_File>
ligand_docking-pose.sdf

> <i_m_Source_File_Index>
68

> <i_lp_mmshare_version>
53161

> <r_lp_tautomer_probability>
1

> <s_lp_Force_Field>
OPLS_2005

> <r_lp_Energy>
18.338834

> <b_lp_Chiralities_Consistent>
1

> <s_lp_Variant>
51057-1

> <s_i_glide_gridfile>
glide-grid_1lru

> <i_i_glide_lignum>
21

> <i_i_glide_rotatable_bonds>
4

> <r_i_docking_score>
-6.8792259670164

> <r_i_glide_ligand_efficiency>
-0.429951622938525

> <r_i_glide_ligand_efficiency_sa>
-1.08341019935214

> <r_i_glide_ligand_efficiency_ln>
-1.82347625821566

> <r_i_glide_gscore>
-6.8792259670164

> <r_i_glide_lipo>
-1.26446057749884

> <r_i_glide_hbond>
-0.337532133768403

> <r_i_glide_metal>
-1.54981344989316

> <r_i_glide_rewards>
-1.90755177088071

> <r_i_glide_evdw>
-28.5311374664307

> <r_i_glide_ecoul>
-6.53008937835693

> <r_i_glide_erotb>
0.694825302100027

> <r_i_glide_esite>
-0.108623057000236

> <r_i_glide_emodel>
-51.3808721021961

> <r_i_glide_energy>
-35.0612268447876

> <r_i_glide_einternal>
1.61490797996521

> <i_i_glide_confnum>
1

> <i_i_glide_posenum>
86

> <r_i_glide_eff_state_penalty>
0

> <i_f3d_flags>
0

> <s_user_duplicate_titles>
51057

> <s_m_subgroup_title>
dock_pv

> <s_m_subgroupid>
dock_pv1

> <b_m_subgroup_collapsed>
0

$$$$
473485
                    3D
 Schrodinger Suite 2021-1.
 53 56  0  0  1  0            999 V2000
  -39.6035   23.2123   67.7807 C   0  0  0  0  0  0
  -38.4809   22.5593   68.2805 C   0  0  0  0  0  0
  -37.2153   23.0883   68.0485 C   0  0  0  0  0  0
  -37.0694   24.2776   67.3303 C   0  0  0  0  0  0
  -38.2031   24.9146   66.8151 C   0  0  0  0  0  0
  -39.4717   24.3895   67.0498 C   0  0  0  0  0  0
  -35.6575   24.8321   67.1156 C   0  0  0  0  0  0
  -35.4736   26.3740   66.9502 C   0  0  2  0  0  0
  -33.9480   26.6780   66.8856 C   0  0  0  0  0  0
  -33.5571   28.0722   66.6654 N   0  0  0  0  0  0
  -33.1977   28.6884   65.5274 C   0  0  0  0  0  0
  -33.1901   28.1591   64.4229 O   0  0  0  0  0  0
  -33.5850   28.8995   67.7760 O   0  0  0  0  0  0
  -36.2364   27.1936   68.0328 C   0  0  0  0  0  0
  -35.9848   26.9595   69.2147 O   0  0  0  0  0  0
  -37.2017   28.0834   67.6735 N   0  0  0  0  0  0
  -37.3554   28.6249   66.3146 C   0  0  0  0  0  0
  -38.2143   29.8672   66.5397 C   0  0  0  0  0  0
  -39.0719   29.5167   67.7340 C   0  0  0  0  0  0
  -38.0957   28.7629   68.6406 C   0  0  1  0  0  0
  -38.8214   27.8759   69.6456 C   0  0  0  0  0  0
  -38.8260   28.1591   70.9899 N   0  0  0  0  0  0
  -39.5496   27.1712   71.6148 C   0  0  0  0  0  0
  -39.8902   26.9175   72.9458 C   0  0  0  0  0  0
  -40.6489   25.7677   73.1857 C   0  0  0  0  0  0
  -41.0503   24.9161   72.1542 C   0  0  0  0  0  0
  -40.7130   25.1777   70.8246 C   0  0  0  0  0  0
  -39.9504   26.3226   70.5512 C   0  0  0  0  0  0
  -39.4996   26.7931   69.3469 N   0  0  0  0  0  0
  -35.8788   26.6392   65.9833 H   0  0  0  0  0  0
  -37.5247   29.5067   69.1979 H   0  0  0  0  0  0
  -38.3556   28.9693   71.3835 H   0  0  0  0  0  0
  -40.5860   22.7977   67.9515 H   0  0  0  0  0  0
  -38.5914   21.6459   68.8456 H   0  0  0  0  0  0
  -36.3461   22.5741   68.4324 H   0  0  0  0  0  0
  -38.1073   25.8228   66.2442 H   0  0  0  0  0  0
  -40.3493   24.8850   66.6629 H   0  0  0  0  0  0
  -35.0420   24.5044   67.9567 H   0  0  0  0  0  0
  -35.2619   24.3279   66.2326 H   0  0  0  0  0  0
  -33.4698   26.3372   67.8067 H   0  0  0  0  0  0
  -33.4921   26.0620   66.1071 H   0  0  0  0  0  0
  -32.9049   29.7375   65.7001 H   0  0  0  0  0  0
  -32.6444   28.9587   68.0146 H   0  0  0  0  0  0
  -36.4072   28.9206   65.8618 H   0  0  0  0  0  0
  -37.9178   27.9343   65.6881 H   0  0  0  0  0  0
  -37.5854   30.7105   66.8152 H   0  0  0  0  0  0
  -38.7789   30.1613   65.6530 H   0  0  0  0  0  0
  -39.4837   30.4045   68.2162 H   0  0  0  0  0  0
  -39.8969   28.8765   67.4159 H   0  0  0  0  0  0
  -39.5799   27.5678   73.7498 H   0  0  0  0  0  0
  -40.9301   25.5269   74.2012 H   0  0  0  0  0  0
  -41.6294   24.0363   72.3944 H   0  0  0  0  0  0
  -41.0205   24.5142   70.0309 H   0  0  0  0  0  0
  1  6  1  0  0  0
  1  2  2  0  0  0
  1 33  1  0  0  0
  2  3  1  0  0  0
  2 34  1  0  0  0
  3  4  2  0  0  0
  3 35  1  0  0  0
  4  5  1  0  0  0
  4  7  1  0  0  0
  5  6  2  0  0  0
  5 36  1  0  0  0
  6 37  1  0  0  0
  7  8  1  0  0  0
  7 38  1  0  0  0
  7 39  1  0  0  0
  8 30  1  0  0  0
  8  9  1  0  0  0
  8 14  1  0  0  0
  9 10  1  0  0  0
  9 40  1  0  0  0
  9 41  1  0  0  0
 10 11  1  0  0  0
 10 13  1  0  0  0
 11 12  2  0  0  0
 11 42  1  0  0  0
 13 43  1  0  0  0
 14 15  2  0  0  0
 14 16  1  0  0  0
 16 20  1  0  0  0
 16 17  1  0  0  0
 17 18  1  0  0  0
 17 44  1  0  0  0
 17 45  1  0  0  0
 18 19  1  0  0  0
 18 46  1  0  0  0
 18 47  1  0  0  0
 19 20  1  0  0  0
 19 48  1  0  0  0
 19 49  1  0  0  0
 20 31  1  0  0  0
 20 21  1  0  0  0
 21 29  2  0  0  0
 21 22  1  0  0  0
 22 32  1  0  0  0
 22 23  1  0  0  0
 23 28  2  0  0  0
 23 24  1  0  0  0
 24 25  2  0  0  0
 24 50  1  0  0  0
 25 26  1  0  0  0
 25 51  1  0  0  0
 26 27  2  0  0  0
 26 52  1  0  0  0
 27 28  1  0  0  0
 27 53  1  0  0  0
 28 29  1  0  0  0
M  END
> <s_m_entry_id>
40260

> <s_m_entry_name>
ligand_docking-pose.69

> <s_m_Source_Path>
/home/csk/Desktop/cluster/DUD-E-result/def

> <s_m_Source_File>
ligand_docking-pose.sdf

> <i_m_Source_File_Index>
69

> <i_lp_mmshare_version>
53161

> <r_lp_tautomer_probability>
1

> <s_lp_Force_Field>
OPLS_2005

> <r_lp_Energy>
44.41037

> <b_lp_Chiralities_Consistent>
1

> <s_lp_Variant>
473485-1

> <s_i_glide_gridfile>
glide-grid_1lru

> <i_i_glide_lignum>
62

> <i_i_glide_rotatable_bonds>
9

> <r_i_docking_score>
-6.82371689160042

> <r_i_glide_ligand_efficiency>
-0.23530058246898

> <r_i_glide_ligand_efficiency_sa>
-0.722917937801701

> <r_i_glide_ligand_efficiency_ln>
-1.56245813364595

> <r_i_glide_gscore>
-6.82371689160042

> <r_i_glide_lipo>
-1.36562979994677

> <r_i_glide_hbond>
-0.694381673612815

> <r_i_glide_metal>
-2.3

> <r_i_glide_rewards>
0.703299772714264

> <r_i_glide_evdw>
-29.7466640472412

> <r_i_glide_ecoul>
-15.8760967254639

> <r_i_glide_erotb>
0.760622118917382

> <r_i_glide_esite>
-0.0588795984908398

> <r_i_glide_emodel>
-57.3457919421986

> <r_i_glide_energy>
-45.6227607727051

> <r_i_glide_einternal>
7.31385135650635

> <i_i_glide_confnum>
14

> <i_i_glide_posenum>
125

> <r_i_glide_eff_state_penalty>
0

> <i_f3d_flags>
0

> <s_user_duplicate_titles>
473485

> <s_m_subgroup_title>
dock_pv

> <s_m_subgroupid>
dock_pv1

> <b_m_subgroup_collapsed>
0

$$$$
