CHEMBL260_lig1633
                    3D
 Schrodinger Suite 2021-1.
 39 41  0  0  1  0            999 V2000
   -5.7828    0.8870   16.7377 C   0  0  0  0  0  0
   -6.2475    0.4960   17.9945 C   0  0  0  0  0  0
   -5.4058    0.5802   19.0974 C   0  0  0  0  0  0
   -4.0991    1.0516   18.9442 C   0  0  0  0  0  0
   -3.6347    1.4127   17.6733 C   0  0  0  0  0  0
   -4.4732    1.3176   16.5674 C   0  0  0  0  0  0
   -3.2352    1.2148   20.1469 C   0  0  0  0  0  0
   -2.8884    0.0070   20.9886 C   0  0  0  0  0  0
   -2.8338    2.3447   20.4333 O   0  0  0  0  0  0
   -2.8303   -1.2465   20.3620 C   0  0  0  0  0  0
   -2.5053   -2.3832   21.0979 C   0  0  0  0  0  0
   -2.2624   -2.2916   22.4165 N   0  3  0  0  0  0
   -2.2675   -1.1043   23.0807 C   0  0  0  0  0  0
   -2.5673    0.0760   22.3665 C   0  0  0  0  0  0
   -2.0347   -3.3749   23.0302 O   0  5  0  0  0  0
   -2.5560    1.2936   23.0561 N   0  0  0  0  0  0
   -1.9565   -1.1184   24.5457 C   0  0  0  0  0  0
   -2.9965   -1.3401   25.4550 C   0  0  0  0  0  0
   -2.7576   -1.3407   26.8271 C   0  0  0  0  0  0
   -1.4707   -1.1129   27.3103 C   0  0  0  0  0  0
   -0.4225   -0.9026   26.4166 C   0  0  0  0  0  0
   -0.6525   -0.9141   25.0362 C   0  0  0  0  0  0
    0.5234   -0.7102   24.0914 C   0  0  0  0  0  0
   -6.4349    0.8192   15.8802 H   0  0  0  0  0  0
   -7.2549    0.1244   18.1123 H   0  0  0  0  0  0
   -5.7857    0.3034   20.0687 H   0  0  0  0  0  0
   -2.6317    1.7803   17.5128 H   0  0  0  0  0  0
   -4.1169    1.5946   15.5841 H   0  0  0  0  0  0
   -3.0226   -1.3616   19.3041 H   0  0  0  0  0  0
   -2.4345   -3.3762   20.6753 H   0  0  0  0  0  0
   -2.1804    1.2994   23.9929 H   0  0  0  0  0  0
   -2.5607    2.1354   22.4941 H   0  0  0  0  0  0
   -4.0010   -1.5125   25.0942 H   0  0  0  0  0  0
   -3.5695   -1.5165   27.5199 H   0  0  0  0  0  0
   -1.2808   -1.1145   28.3744 H   0  0  0  0  0  0
    0.5749   -0.7425   26.8043 H   0  0  0  0  0  0
    1.4601   -0.5363   24.6255 H   0  0  0  0  0  0
    0.6495   -1.5952   23.4697 H   0  0  0  0  0  0
    0.3430    0.1380   23.4308 H   0  0  0  0  0  0
  1  6  1  0  0  0
  1  2  2  0  0  0
  1 24  1  0  0  0
  2  3  1  0  0  0
  2 25  1  0  0  0
  3  4  2  0  0  0
  3 26  1  0  0  0
  4  7  1  0  0  0
  4  5  1  0  0  0
  5  6  2  0  0  0
  5 27  1  0  0  0
  6 28  1  0  0  0
  7  8  1  0  0  0
  7  9  2  0  0  0
  8 14  1  0  0  0
  8 10  2  0  0  0
 10 11  1  0  0  0
 10 29  1  0  0  0
 11 12  2  0  0  0
 11 30  1  0  0  0
 12 13  1  0  0  0
 12 15  1  0  0  0
 13 14  2  0  0  0
 13 17  1  0  0  0
 14 16  1  0  0  0
 16 31  1  0  0  0
 16 32  1  0  0  0
 17 18  2  0  0  0
 17 22  1  0  0  0
 18 19  1  0  0  0
 18 33  1  0  0  0
 19 20  2  0  0  0
 19 34  1  0  0  0
 20 21  1  0  0  0
 20 35  1  0  0  0
 21 22  2  0  0  0
 21 36  1  0  0  0
 22 23  1  0  0  0
 23 37  1  0  0  0
 23 38  1  0  0  0
 23 39  1  0  0  0
M  CHG  2  12   1  15  -1
M  END
> <s_m_entry_id>
60725

> <s_m_entry_name>
dock_pv.2

> <s_m_Source_Path>
/home/csk/Desktop/cluster/DUD-E-result/mk14

> <s_m_Source_File>
dock_pv.maegz

> <i_m_Source_File_Index>
2

> <chembl_id>
CHEMBL551512

> <chembl_pref_name>
None

> <i_lp_mmshare_version>
53161

> <i_f3d_flags>
0

> <r_lp_tautomer_probability>
1

> <s_lp_Force_Field>
OPLS_2005

> <r_lp_Energy>
39.193054

> <b_lp_Chiralities_Consistent>
1

> <s_lp_Variant>
CHEMBL260_lig1633-1

> <s_i_glide_gridfile>
glide-grid_2qd9

> <i_i_glide_lignum>
1885

> <i_i_glide_rotatable_bonds>
3

> <r_i_docking_score>
-10.5748076473886

> <r_i_glide_ligand_efficiency>
-0.459774245538634

> <r_i_glide_ligand_efficiency_sa>
-1.3075367937069

> <r_i_glide_ligand_efficiency_ln>
-2.55708437619291

> <r_i_glide_gscore>
-10.5748076473886

> <r_i_glide_lipo>
-3.97210338709631

> <r_i_glide_hbond>
-0.24847735581225

> <r_i_glide_metal>
0

> <r_i_glide_rewards>
-2.19699818422285

> <r_i_glide_evdw>
-36.0946617126465

> <r_i_glide_ecoul>
-19.6651458740234

> <r_i_glide_erotb>
0.597276246478675

> <r_i_glide_esite>
0

> <r_i_glide_emodel>
-83.2556541063694

> <r_i_glide_energy>
-55.7598075866699

> <r_i_glide_einternal>
5.96788740158081

> <i_i_glide_confnum>
1

> <i_i_glide_posenum>
395

> <r_i_glide_eff_state_penalty>
0

> <s_user_duplicate_titles>
CHEMBL260_lig1633,563737

> <s_m_subgroup_title>
dock_pv

> <s_m_subgroupid>
dock_pv

> <b_m_subgroup_collapsed>
1

$$$$
CHEMBL260_lig1642
                    3D
 Schrodinger Suite 2021-1.
 39 41  0  0  1  0            999 V2000
   -2.9642    2.6058   20.2758 O   0  0  0  0  0  0
   -3.2350    1.4704   19.8761 C   0  0  0  0  0  0
   -4.0054    1.3108   18.6036 C   0  0  0  0  0  0
   -5.3375    0.8854   18.6341 C   0  0  0  0  0  0
   -5.9590    0.6253   19.8051 F   0  0  0  0  0  0
   -6.0350    0.6823   17.4457 C   0  0  0  0  0  0
   -3.4157    1.5858   17.3611 C   0  0  0  0  0  0
   -4.1047    1.3429   16.1727 C   0  0  0  0  0  0
   -5.4068    0.8571   16.2169 C   0  0  0  0  0  0
   -6.0349    0.4871   15.0790 F   0  0  0  0  0  0
   -2.8631    0.2299   20.6648 C   0  0  0  0  0  0
   -2.7262   -0.9785   19.9663 C   0  0  0  0  0  0
   -2.4343   -2.1562   20.6433 C   0  0  0  0  0  0
   -2.2594   -2.1463   21.9750 N   0  3  0  0  0  0
   -2.0340   -3.2609   22.5293 O   0  5  0  0  0  0
   -2.3159   -1.0033   22.7107 C   0  0  0  0  0  0
   -2.6080    0.2148   22.0598 C   0  0  0  0  0  0
   -2.6498    1.3872   22.8224 N   0  0  0  0  0  0
   -2.0651   -1.1144   24.1822 C   0  0  0  0  0  0
   -0.7742   -0.9882   24.7299 C   0  0  0  0  0  0
    0.4374   -0.7365   23.8446 C   0  0  0  0  0  0
   -0.5894   -1.1125   26.1111 C   0  0  0  0  0  0
   -1.6723   -1.3724   26.9480 C   0  0  0  0  0  0
   -2.9489   -1.5124   26.4095 C   0  0  0  0  0  0
   -3.1422   -1.3786   25.0360 C   0  0  0  0  0  0
   -7.0361    0.2849   17.4848 H   0  0  0  0  0  0
   -2.4183    1.9714   17.2922 H   0  0  0  0  0  0
   -3.6227    1.5048   15.2194 H   0  0  0  0  0  0
   -2.8354   -1.0238   18.8938 H   0  0  0  0  0  0
   -2.3419   -3.1146   20.1551 H   0  0  0  0  0  0
   -2.3203    1.3454   23.7771 H   0  0  0  0  0  0
   -2.6720    2.2629   22.3165 H   0  0  0  0  0  0
    1.3738   -0.7574   24.4039 H   0  0  0  0  0  0
    0.4939   -1.5061   23.0763 H   0  0  0  0  0  0
    0.3513    0.2279   23.3438 H   0  0  0  0  0  0
    0.3976   -1.0197   26.5412 H   0  0  0  0  0  0
   -1.5170   -1.4792   28.0119 H   0  0  0  0  0  0
   -3.7873   -1.7251   27.0564 H   0  0  0  0  0  0
   -4.1365   -1.4913   24.6281 H   0  0  0  0  0  0
  1  2  2  0  0  0
  2  3  1  0  0  0
  2 11  1  0  0  0
  3  4  2  0  0  0
  3  7  1  0  0  0
  4  5  1  0  0  0
  4  6  1  0  0  0
  6  9  2  0  0  0
  6 26  1  0  0  0
  7  8  2  0  0  0
  7 27  1  0  0  0
  8  9  1  0  0  0
  8 28  1  0  0  0
  9 10  1  0  0  0
 11 12  2  0  0  0
 11 17  1  0  0  0
 12 13  1  0  0  0
 12 29  1  0  0  0
 13 14  2  0  0  0
 13 30  1  0  0  0
 14 15  1  0  0  0
 14 16  1  0  0  0
 16 17  2  0  0  0
 16 19  1  0  0  0
 17 18  1  0  0  0
 18 31  1  0  0  0
 18 32  1  0  0  0
 19 20  2  0  0  0
 19 25  1  0  0  0
 20 21  1  0  0  0
 20 22  1  0  0  0
 21 33  1  0  0  0
 21 34  1  0  0  0
 21 35  1  0  0  0
 22 23  2  0  0  0
 22 36  1  0  0  0
 23 24  1  0  0  0
 23 37  1  0  0  0
 24 25  2  0  0  0
 24 38  1  0  0  0
 25 39  1  0  0  0
M  CHG  2  14   1  15  -1
M  END
> <s_m_entry_id>
60726

> <s_m_entry_name>
dock_pv.3

> <s_m_Source_Path>
/home/csk/Desktop/cluster/DUD-E-result/mk14

> <s_m_Source_File>
dock_pv.maegz

> <i_m_Source_File_Index>
3

> <chembl_id>
CHEMBL551717

> <chembl_pref_name>
None

> <i_lp_mmshare_version>
53161

> <i_f3d_flags>
0

> <r_lp_tautomer_probability>
1

> <s_lp_Force_Field>
OPLS_2005

> <r_lp_Energy>
39.078406

> <b_lp_Chiralities_Consistent>
1

> <s_lp_Variant>
CHEMBL260_lig1642-1

> <s_i_glide_gridfile>
glide-grid_2qd9

> <i_i_glide_lignum>
1894

> <i_i_glide_rotatable_bonds>
3

> <r_i_docking_score>
-10.5546986729061

> <r_i_glide_ligand_efficiency>
-0.422187946916243

> <r_i_glide_ligand_efficiency_sa>
-1.23448504431821

> <r_i_glide_ligand_efficiency_ln>
-2.50177988427422

> <r_i_glide_gscore>
-10.5546986729061

> <r_i_glide_lipo>
-4.034445733925

> <r_i_glide_hbond>
-0.16

> <r_i_glide_metal>
0

> <r_i_glide_rewards>
-2.60858772019967

> <r_i_glide_evdw>
-36.2835464477539

> <r_i_glide_ecoul>
-16.1864700317383

> <r_i_glide_erotb>
0.490482608367045

> <r_i_glide_esite>
0

> <r_i_glide_emodel>
-79.4554147281492

> <r_i_glide_energy>
-52.4700164794922

> <r_i_glide_einternal>
2.60430812835693

> <i_i_glide_confnum>
2

> <i_i_glide_posenum>
389

> <r_i_glide_eff_state_penalty>
0

> <s_user_duplicate_titles>
CHEMBL260_lig1642,563743

> <s_m_subgroup_title>
dock_pv

> <s_m_subgroupid>
dock_pv

> <b_m_subgroup_collapsed>
1

$$$$
CHEMBL260_lig1653
                    3D
 Schrodinger Suite 2021-1.
 40 42  0  0  1  0            999 V2000
   -5.4050    0.8534   16.2138 C   0  0  0  0  0  0
   -4.0994    1.3294   16.1689 C   0  0  0  0  0  0
   -3.4102    1.5715   17.3567 C   0  0  0  0  0  0
   -4.0039    1.3042   18.5994 C   0  0  0  0  0  0
   -5.3378    0.8870   18.6310 C   0  0  0  0  0  0
   -6.0350    0.6837   17.4428 C   0  0  0  0  0  0
   -3.2350    1.4623   19.8715 C   0  0  0  0  0  0
   -2.8500    0.2201   20.6502 C   0  0  0  0  0  0
   -2.9761    2.5983   20.2759 O   0  0  0  0  0  0
   -2.6998   -0.9842   19.9463 C   0  0  0  0  0  0
   -2.3662   -2.1567   20.6152 C   0  0  0  0  0  0
   -2.1858   -2.1471   21.9468 N   0  3  0  0  0  0
   -2.2868   -1.0121   22.6904 C   0  0  0  0  0  0
   -2.6028    0.2024   22.0453 C   0  0  0  0  0  0
   -1.9347   -3.2581   22.4974 O   0  5  0  0  0  0
   -2.6872    1.3669   22.8171 N   0  0  0  0  0  0
   -2.1349   -1.1355   24.1736 C   0  0  0  0  0  0
   -0.8848   -1.1424   24.8223 C   0  0  0  0  0  0
   -0.8269   -1.2645   26.2161 C   0  0  0  0  0  0
   -1.9978   -1.3923   26.9631 C   0  0  0  0  0  0
   -3.2307   -1.4030   26.3217 C   0  0  0  0  0  0
   -3.2955   -1.2692   24.9389 C   0  0  0  0  0  0
   -5.9607    0.6325   19.8022 F   0  0  0  0  0  0
   -6.0347    0.4872   15.0761 F   0  0  0  0  0  0
    0.4125   -1.0026   24.0405 C   0  0  0  0  0  0
   -1.9525   -1.5130   28.3250 O   0  0  0  0  0  0
   -3.6162    1.4858   15.2151 H   0  0  0  0  0  0
   -2.4101    1.9508   17.2859 H   0  0  0  0  0  0
   -7.0380    0.2918   17.4844 H   0  0  0  0  0  0
   -2.8349   -1.0290   18.8766 H   0  0  0  0  0  0
   -2.2564   -3.1129   20.1251 H   0  0  0  0  0  0
   -2.3627    1.3290   23.7731 H   0  0  0  0  0  0
   -2.7087    2.2420   22.3113 H   0  0  0  0  0  0
    0.1299   -1.2631   26.7180 H   0  0  0  0  0  0
   -4.1364   -1.5132   26.8973 H   0  0  0  0  0  0
   -4.2612   -1.2777   24.4537 H   0  0  0  0  0  0
    1.2670   -0.8057   24.6900 H   0  0  0  0  0  0
    0.6063   -1.9131   23.4761 H   0  0  0  0  0  0
    0.3458   -0.1760   23.3323 H   0  0  0  0  0  0
   -1.0737   -1.6886   28.6710 H   0  0  0  0  0  0
  1  2  2  0  0  0
  1 24  1  0  0  0
  1  6  1  0  0  0
  2  3  1  0  0  0
  2 27  1  0  0  0
  3  4  2  0  0  0
  3 28  1  0  0  0
  4  7  1  0  0  0
  4  5  1  0  0  0
  5 23  1  0  0  0
  5  6  2  0  0  0
  6 29  1  0  0  0
  7  8  1  0  0  0
  7  9  2  0  0  0
  8 14  1  0  0  0
  8 10  2  0  0  0
 10 11  1  0  0  0
 10 30  1  0  0  0
 11 12  2  0  0  0
 11 31  1  0  0  0
 12 13  1  0  0  0
 12 15  1  0  0  0
 13 14  2  0  0  0
 13 17  1  0  0  0
 14 16  1  0  0  0
 16 32  1  0  0  0
 16 33  1  0  0  0
 17 18  2  0  0  0
 17 22  1  0  0  0
 18 19  1  0  0  0
 18 25  1  0  0  0
 19 20  2  0  0  0
 19 34  1  0  0  0
 20 21  1  0  0  0
 20 26  1  0  0  0
 21 22  2  0  0  0
 21 35  1  0  0  0
 22 36  1  0  0  0
 25 37  1  0  0  0
 25 38  1  0  0  0
 25 39  1  0  0  0
 26 40  1  0  0  0
M  CHG  2  12   1  15  -1
M  END
> <s_m_entry_id>
60727

> <s_m_entry_name>
dock_pv.4

> <s_m_Source_Path>
/home/csk/Desktop/cluster/DUD-E-result/mk14

> <s_m_Source_File>
dock_pv.maegz

> <i_m_Source_File_Index>
4

> <chembl_id>
CHEMBL552164

> <chembl_pref_name>
None

> <i_lp_mmshare_version>
53161

> <i_f3d_flags>
0

> <r_lp_tautomer_probability>
0.999999999997365

> <s_lp_Force_Field>
OPLS_2005

> <r_lp_Energy>
38.602901

> <b_lp_Chiralities_Consistent>
1

> <s_lp_Variant>
CHEMBL260_lig1653-1

> <s_i_glide_gridfile>
glide-grid_2qd9

> <i_i_glide_lignum>
1905

> <i_i_glide_rotatable_bonds>
4

> <r_i_docking_score>
-10.5105499201222

> <r_i_glide_ligand_efficiency>
-0.404251920004701

> <r_i_glide_ligand_efficiency_sa>
-1.19759472235943

> <r_i_glide_ligand_efficiency_ln>
-2.46836816081346

> <r_i_glide_gscore>
-10.5105499201222

> <r_i_glide_lipo>
-3.95025681970265

> <r_i_glide_hbond>
-0.16

> <r_i_glide_metal>
0

> <r_i_glide_rewards>
-2.53844908070475

> <r_i_glide_evdw>
-37.0199127197266

> <r_i_glide_ecoul>
-16.4192180633545

> <r_i_glide_erotb>
0.452034325774669

> <r_i_glide_esite>
0

> <r_i_glide_emodel>
-73.1078240377247

> <r_i_glide_energy>
-53.4391307830811

> <r_i_glide_einternal>
15.8646564483643

> <i_i_glide_confnum>
14

> <i_i_glide_posenum>
300

> <r_i_glide_eff_state_penalty>
0

> <s_user_duplicate_titles>
CHEMBL260_lig1653,565454

> <s_m_subgroup_title>
dock_pv

> <s_m_subgroupid>
dock_pv

> <b_m_subgroup_collapsed>
1

$$$$
CHEMBL260_lig94
                    3D
 Schrodinger Suite 2021-1.
 48 51  0  0  1  0            999 V2000
   -1.6825   -1.2018   23.2367 N   0  0  0  0  0  0
   -1.9639    0.0223   22.5658 C   0  0  0  0  0  0
   -2.6055   -0.0084   21.3169 C   0  0  0  0  0  0
   -1.8166   -2.4528   22.6971 C   0  0  0  0  0  0
   -2.9134    1.1927   20.6430 C   0  0  0  0  0  0
   -1.3085   -1.1347   24.6078 C   0  0  0  0  0  0
   -4.0038    1.5617   15.6322 C   0  0  0  0  0  0
   -2.2612   -2.4862   21.4198 N   0  0  0  0  0  0
   -1.6103    1.2563   23.1226 C   0  0  0  0  0  0
   -1.8047    2.4438   22.4334 C   0  0  0  0  0  0
   -2.4351    2.4060   21.1753 C   0  0  0  0  0  0
   -2.9578   -1.3808   20.7449 C   0  0  0  0  0  0
   -3.8446    1.1511   19.4616 C   0  0  0  0  0  0
   -1.2771    3.6829   23.0760 C   0  0  0  0  0  0
   -4.3954    1.2870   17.0776 C   0  0  0  0  0  0
   -3.4816    1.4332   18.1332 C   0  0  0  0  0  0
   -2.2862   -1.2361   25.6150 C   0  0  0  0  0  0
    0.0296   -0.8831   24.9712 C   0  0  0  0  0  0
   -1.6350   -3.5130   23.2903 O   0  0  0  0  0  0
   -1.5354    4.0144   24.2353 O   0  0  0  0  0  0
   -4.8842    2.4061   15.0938 F   0  0  0  0  0  0
   -4.0351    0.4117   14.9605 F   0  0  0  0  0  0
   -2.7827    2.0875   15.5223 F   0  0  0  0  0  0
   -0.4011    4.3229   22.2761 O   0  0  0  0  0  0
   -3.9475   -1.5130   25.2307 Cl  0  0  0  0  0  0
    1.2816   -0.7132   23.7879 Cl  0  0  0  0  0  0
   -5.1595    0.7324   19.6839 C   0  0  0  0  0  0
   -5.7027    0.8870   17.3508 C   0  0  0  0  0  0
   -6.0743    0.5817   18.6516 C   0  0  0  0  0  0
   -0.6066   -0.8262   27.3053 C   0  0  0  0  0  0
   -1.9279   -1.0946   26.9559 C   0  0  0  0  0  0
    0.3648   -0.7129   26.3143 C   0  0  0  0  0  0
    0.3337    5.4489   22.7352 C   0  0  0  0  0  0
   -2.3218   -3.3998   20.9909 H   0  0  0  0  0  0
   -1.1219    1.3027   24.0857 H   0  0  0  0  0  0
   -2.6266    3.3247   20.6409 H   0  0  0  0  0  0
   -4.0314   -1.5386   20.8120 H   0  0  0  0  0  0
   -2.7013   -1.4189   19.6853 H   0  0  0  0  0  0
   -2.4858    1.7461   17.8760 H   0  0  0  0  0  0
   -5.4810    0.4870   20.6760 H   0  0  0  0  0  0
   -6.4278    0.7755   16.5552 H   0  0  0  0  0  0
   -7.0799    0.2463   18.8579 H   0  0  0  0  0  0
   -0.3322   -0.7090   28.3440 H   0  0  0  0  0  0
   -2.6778   -1.1802   27.7292 H   0  0  0  0  0  0
    1.3881   -0.5027   26.5928 H   0  0  0  0  0  0
    0.9664    5.8256   21.9310 H   0  0  0  0  0  0
   -0.3305    6.2544   23.0514 H   0  0  0  0  0  0
    0.9771    5.1789   23.5742 H   0  0  0  0  0  0
  1  2  1  0  0  0
  1  4  1  0  0  0
  1  6  1  0  0  0
  2  3  2  0  0  0
  2  9  1  0  0  0
  3  5  1  0  0  0
  3 12  1  0  0  0
  4  8  1  0  0  0
  4 19  2  0  0  0
  5 13  1  0  0  0
  5 11  2  0  0  0
  6 17  2  0  0  0
  6 18  1  0  0  0
  7 15  1  0  0  0
  7 21  1  0  0  0
  7 22  1  0  0  0
  7 23  1  0  0  0
  8 12  1  0  0  0
  8 34  1  0  0  0
  9 10  2  0  0  0
  9 35  1  0  0  0
 10 11  1  0  0  0
 10 14  1  0  0  0
 11 36  1  0  0  0
 12 37  1  0  0  0
 12 38  1  0  0  0
 13 16  1  0  0  0
 13 27  2  0  0  0
 14 20  2  0  0  0
 14 24  1  0  0  0
 15 16  2  0  0  0
 15 28  1  0  0  0
 16 39  1  0  0  0
 17 25  1  0  0  0
 17 31  1  0  0  0
 18 26  1  0  0  0
 18 32  2  0  0  0
 24 33  1  0  0  0
 27 29  1  0  0  0
 27 40  1  0  0  0
 28 29  2  0  0  0
 28 41  1  0  0  0
 29 42  1  0  0  0
 30 32  1  0  0  0
 30 31  2  0  0  0
 30 43  1  0  0  0
 31 44  1  0  0  0
 32 45  1  0  0  0
 33 46  1  0  0  0
 33 47  1  0  0  0
 33 48  1  0  0  0
M  END
> <s_m_entry_id>
60728

> <s_m_entry_name>
dock_pv.5

> <s_m_Source_Path>
/home/csk/Desktop/cluster/DUD-E-result/mk14

> <s_m_Source_File>
dock_pv.maegz

> <i_m_Source_File_Index>
5

> <chembl_id>
CHEMBL328752

> <chembl_pref_name>
None

> <i_lp_mmshare_version>
53161

> <i_f3d_flags>
0

> <r_lp_tautomer_probability>
1

> <s_lp_Force_Field>
OPLS_2005

> <r_lp_Energy>
49.882415

> <b_lp_Chiralities_Consistent>
1

> <s_lp_Variant>
CHEMBL260_lig94-1

> <s_i_glide_gridfile>
glide-grid_2qd9

> <i_i_glide_lignum>
110

> <i_i_glide_rotatable_bonds>
5

> <r_i_docking_score>
-10.4755330223348

> <r_i_glide_ligand_efficiency>
-0.317440394616207

> <r_i_glide_ligand_efficiency_sa>
-1.01820096227219

> <r_i_glide_ligand_efficiency_ln>
-2.3297043047601

> <r_i_glide_gscore>
-10.4755330223348

> <r_i_glide_lipo>
-4.14396292284649

> <r_i_glide_hbond>
-0.631804309005239

> <r_i_glide_metal>
0

> <r_i_glide_rewards>
-2.6461317181824

> <r_i_glide_evdw>
-38.6133193969727

> <r_i_glide_ecoul>
-8.40505218505859

> <r_i_glide_erotb>
0.17450885091382

> <r_i_glide_esite>
-0.0367191256070898

> <r_i_glide_emodel>
-46.2880714464178

> <r_i_glide_energy>
-47.0183715820312

> <r_i_glide_einternal>
9.33235836029053

> <i_i_glide_confnum>
3

> <i_i_glide_posenum>
75

> <r_i_glide_eff_state_penalty>
0

> <s_user_duplicate_titles>
CHEMBL260_lig94,154413

> <s_m_subgroup_title>
dock_pv

> <s_m_subgroupid>
dock_pv

> <b_m_subgroup_collapsed>
1

$$$$
CHEMBL260_lig1638
                    3D
 Schrodinger Suite 2021-1.
 36 38  0  0  1  0            999 V2000
   -5.4112    0.8752   16.2122 C   0  0  0  0  0  0
   -4.1177    1.3845   16.1658 C   0  0  0  0  0  0
   -3.4291    1.6313   17.3532 C   0  0  0  0  0  0
   -4.0128    1.3344   18.5930 C   0  0  0  0  0  0
   -5.3373    0.8870   18.6265 C   0  0  0  0  0  0
   -6.0352    0.6822   17.4400 C   0  0  0  0  0  0
   -3.2352    1.4711   19.8601 C   0  0  0  0  0  0
   -2.8833    0.2106   20.6192 C   0  0  0  0  0  0
   -2.9479    2.5966   20.2753 O   0  0  0  0  0  0
   -2.7246   -0.9754   19.8864 C   0  0  0  0  0  0
   -2.4247   -2.1675   20.5334 C   0  0  0  0  0  0
   -2.2658   -2.1916   21.8673 N   0  3  0  0  0  0
   -2.3633   -1.0728   22.6352 C   0  0  0  0  0  0
   -2.6690    0.1580   22.0178 C   0  0  0  0  0  0
   -2.0302   -3.3170   22.3953 O   0  5  0  0  0  0
   -2.7653    1.3057   22.8128 N   0  0  0  0  0  0
   -2.1337   -1.2191   24.1045 C   0  0  0  0  0  0
   -0.8389   -1.2506   24.6500 C   0  0  0  0  0  0
   -0.6628   -1.3903   26.0268 C   0  0  0  0  0  0
   -1.7670   -1.5122   26.8686 C   0  0  0  0  0  0
   -3.0533   -1.4963   26.3339 C   0  0  0  0  0  0
   -3.2334   -1.3435   24.9602 C   0  0  0  0  0  0
    0.5641   -1.1072   23.6481 Cl  0  0  0  0  0  0
   -5.9488    0.6024   19.7971 F   0  0  0  0  0  0
   -6.0348    0.4962   15.0768 F   0  0  0  0  0  0
   -3.6411    1.5582   15.2114 H   0  0  0  0  0  0
   -2.4342    2.0282   17.2886 H   0  0  0  0  0  0
   -7.0296    0.2678   17.4807 H   0  0  0  0  0  0
   -2.8253   -0.9884   18.8119 H   0  0  0  0  0  0
   -2.3131   -3.1109   20.0209 H   0  0  0  0  0  0
   -2.4263    1.2498   23.7627 H   0  0  0  0  0  0
   -2.7776    2.1915   22.3250 H   0  0  0  0  0  0
    0.3343   -1.4125   26.4429 H   0  0  0  0  0  0
   -1.6216   -1.6316   27.9330 H   0  0  0  0  0  0
   -3.9100   -1.5996   26.9836 H   0  0  0  0  0  0
   -4.2346   -1.3323   24.5541 H   0  0  0  0  0  0
  1  6  1  0  0  0
  1  2  2  0  0  0
  1 25  1  0  0  0
  2  3  1  0  0  0
  2 26  1  0  0  0
  3  4  2  0  0  0
  3 27  1  0  0  0
  4  7  1  0  0  0
  4  5  1  0  0  0
  5  6  2  0  0  0
  5 24  1  0  0  0
  6 28  1  0  0  0
  7  8  1  0  0  0
  7  9  2  0  0  0
  8 14  1  0  0  0
  8 10  2  0  0  0
 10 11  1  0  0  0
 10 29  1  0  0  0
 11 12  2  0  0  0
 11 30  1  0  0  0
 12 13  1  0  0  0
 12 15  1  0  0  0
 13 14  2  0  0  0
 13 17  1  0  0  0
 14 16  1  0  0  0
 16 31  1  0  0  0
 16 32  1  0  0  0
 17 18  2  0  0  0
 17 22  1  0  0  0
 18 19  1  0  0  0
 18 23  1  0  0  0
 19 20  2  0  0  0
 19 33  1  0  0  0
 20 21  1  0  0  0
 20 34  1  0  0  0
 21 22  2  0  0  0
 21 35  1  0  0  0
 22 36  1  0  0  0
M  CHG  2  12   1  15  -1
M  END
> <s_m_entry_id>
60729

> <s_m_entry_name>
dock_pv.6

> <s_m_Source_Path>
/home/csk/Desktop/cluster/DUD-E-result/mk14

> <s_m_Source_File>
dock_pv.maegz

> <i_m_Source_File_Index>
6

> <chembl_id>
CHEMBL559391

> <chembl_pref_name>
None

> <i_lp_mmshare_version>
53161

> <i_f3d_flags>
0

> <r_lp_tautomer_probability>
1

> <s_lp_Force_Field>
OPLS_2005

> <r_lp_Energy>
37.472469

> <b_lp_Chiralities_Consistent>
1

> <s_lp_Variant>
CHEMBL260_lig1638-1

> <s_i_glide_gridfile>
glide-grid_2qd9

> <i_i_glide_lignum>
1890

> <i_i_glide_rotatable_bonds>
3

> <r_i_docking_score>
-10.456653850936

> <r_i_glide_ligand_efficiency>
-0.418266154037439

> <r_i_glide_ligand_efficiency_sa>
-1.2230176523873

> <r_i_glide_ligand_efficiency_ln>
-2.47854032330109

> <r_i_glide_gscore>
-10.456653850936

> <r_i_glide_lipo>
-4.01545597568005

> <r_i_glide_hbond>
-0.16

> <r_i_glide_metal>
0

> <r_i_glide_rewards>
-2.47815761969242

> <r_i_glide_evdw>
-36.182544708252

> <r_i_glide_ecoul>
-16.2408542633057

> <r_i_glide_erotb>
0.442215119344938

> <r_i_glide_esite>
0

> <r_i_glide_emodel>
-79.2030815621127

> <r_i_glide_energy>
-52.4233989715576

> <r_i_glide_einternal>
2.37837982177734

> <i_i_glide_confnum>
11

> <i_i_glide_posenum>
32

> <r_i_glide_eff_state_penalty>
0

> <s_user_duplicate_titles>
CHEMBL260_lig1638,558460

> <s_m_subgroup_title>
dock_pv

> <s_m_subgroupid>
dock_pv

> <b_m_subgroup_collapsed>
1

$$$$
CHEMBL260_lig1632
                    3D
 Schrodinger Suite 2021-1.
 36 38  0  0  1  0            999 V2000
   -5.7709    0.8881   16.7032 C   0  0  0  0  0  0
   -4.4672    1.3416   16.5236 C   0  0  0  0  0  0
   -3.6341    1.4791   17.6287 C   0  0  0  0  0  0
   -4.1058    1.1434   18.9027 C   0  0  0  0  0  0
   -5.4061    0.6633   19.0731 C   0  0  0  0  0  0
   -6.2387    0.5366   17.9686 C   0  0  0  0  0  0
   -3.2358    1.2839   20.0938 C   0  0  0  0  0  0
   -2.8827    0.0405   20.8694 C   0  0  0  0  0  0
   -2.8351    2.4017   20.4245 O   0  0  0  0  0  0
   -2.7004   -1.1523   20.1538 C   0  0  0  0  0  0
   -2.3426   -2.3163   20.8232 C   0  0  0  0  0  0
   -2.1924   -2.3125   22.1584 N   0  3  0  0  0  0
   -2.3271   -1.1858   22.9078 C   0  0  0  0  0  0
   -2.6722    0.0224   22.2664 C   0  0  0  0  0  0
   -1.9381   -3.4239   22.7073 O   0  5  0  0  0  0
   -2.8167    1.1803   23.0406 N   0  0  0  0  0  0
   -2.1013   -1.2929   24.3803 C   0  0  0  0  0  0
   -3.2069   -1.4203   25.2281 C   0  0  0  0  0  0
   -3.0415   -1.5140   26.6083 C   0  0  0  0  0  0
   -1.7635   -1.4734   27.1603 C   0  0  0  0  0  0
   -0.6526   -1.3500   26.3271 C   0  0  0  0  0  0
   -0.8122   -1.2669   24.9433 C   0  0  0  0  0  0
    0.6024   -1.1272   23.9543 Cl  0  0  0  0  0  0
   -6.4251    0.7905   15.8501 H   0  0  0  0  0  0
   -4.1007    1.5904   15.5376 H   0  0  0  0  0  0
   -2.6283    1.8433   17.4749 H   0  0  0  0  0  0
   -5.7788    0.4012   20.0530 H   0  0  0  0  0  0
   -7.2364    0.1486   18.0904 H   0  0  0  0  0  0
   -2.8197   -1.1918   19.0781 H   0  0  0  0  0  0
   -2.1748   -3.2616   20.3276 H   0  0  0  0  0  0
   -2.5187    1.1394   24.0043 H   0  0  0  0  0  0
   -2.8473    2.0633   22.5482 H   0  0  0  0  0  0
   -4.2018   -1.4602   24.8082 H   0  0  0  0  0  0
   -3.9033   -1.6261   27.2493 H   0  0  0  0  0  0
   -1.6303   -1.5571   28.2298 H   0  0  0  0  0  0
    0.3378   -1.3326   26.7599 H   0  0  0  0  0  0
  1  6  1  0  0  0
  1  2  2  0  0  0
  1 24  1  0  0  0
  2  3  1  0  0  0
  2 25  1  0  0  0
  3  4  2  0  0  0
  3 26  1  0  0  0
  4  7  1  0  0  0
  4  5  1  0  0  0
  5  6  2  0  0  0
  5 27  1  0  0  0
  6 28  1  0  0  0
  7  8  1  0  0  0
  7  9  2  0  0  0
  8 14  1  0  0  0
  8 10  2  0  0  0
 10 11  1  0  0  0
 10 29  1  0  0  0
 11 12  2  0  0  0
 11 30  1  0  0  0
 12 13  1  0  0  0
 12 15  1  0  0  0
 13 14  2  0  0  0
 13 17  1  0  0  0
 14 16  1  0  0  0
 16 31  1  0  0  0
 16 32  1  0  0  0
 17 18  2  0  0  0
 17 22  1  0  0  0
 18 19  1  0  0  0
 18 33  1  0  0  0
 19 20  2  0  0  0
 19 34  1  0  0  0
 20 21  1  0  0  0
 20 35  1  0  0  0
 21 22  2  0  0  0
 21 36  1  0  0  0
 22 23  1  0  0  0
M  CHG  2  12   1  15  -1
M  END
> <s_m_entry_id>
60730

> <s_m_entry_name>
dock_pv.7

> <s_m_Source_Path>
/home/csk/Desktop/cluster/DUD-E-result/mk14

> <s_m_Source_File>
dock_pv.maegz

> <i_m_Source_File_Index>
7

> <chembl_id>
CHEMBL562178

> <chembl_pref_name>
None

> <i_lp_mmshare_version>
53161

> <i_f3d_flags>
0

> <r_lp_tautomer_probability>
1

> <s_lp_Force_Field>
OPLS_2005

> <r_lp_Energy>
37.899873

> <b_lp_Chiralities_Consistent>
1

> <s_lp_Variant>
CHEMBL260_lig1632-1

> <s_i_glide_gridfile>
glide-grid_2qd9

> <i_i_glide_lignum>
1884

> <i_i_glide_rotatable_bonds>
3

> <r_i_docking_score>
-10.4249351782093

> <r_i_glide_ligand_efficiency>
-0.45325805122649

> <r_i_glide_ligand_efficiency_sa>
-1.28900560388766

> <r_i_glide_ligand_efficiency_ln>
-2.52084385417694

> <r_i_glide_gscore>
-10.4249351782093

> <r_i_glide_lipo>
-4.05774572290626

> <r_i_glide_hbond>
-0.16

> <r_i_glide_metal>
0

> <r_i_glide_rewards>
-2.06215556963238

> <r_i_glide_evdw>
-36.0931091308594

> <r_i_glide_ecoul>
-19.1546478271484

> <r_i_glide_erotb>
0.532818744944608

> <r_i_glide_esite>
0

> <r_i_glide_emodel>
-82.1996137352583

> <r_i_glide_energy>
-55.2477569580078

> <r_i_glide_einternal>
6.17602491378784

> <i_i_glide_confnum>
47

> <i_i_glide_posenum>
23

> <r_i_glide_eff_state_penalty>
0

> <s_user_duplicate_titles>
CHEMBL260_lig1632,558444

> <s_m_subgroup_title>
dock_pv

> <s_m_subgroupid>
dock_pv

> <b_m_subgroup_collapsed>
1

$$$$
CHEMBL260_lig1651
                    3D
 Schrodinger Suite 2021-1.
 39 41  0  0  1  0            999 V2000
   -5.4012    0.8488   16.2122 C   0  0  0  0  0  0
   -4.0909    1.3089   16.1682 C   0  0  0  0  0  0
   -3.4023    1.5513   17.3559 C   0  0  0  0  0  0
   -4.0017    1.2977   18.5985 C   0  0  0  0  0  0
   -5.3377    0.8870   18.6286 C   0  0  0  0  0  0
   -6.0351    0.6871   17.4395 C   0  0  0  0  0  0
   -3.2351    1.4564   19.8736 C   0  0  0  0  0  0
   -2.8728    0.2143   20.6618 C   0  0  0  0  0  0
   -2.9669    2.5914   20.2757 O   0  0  0  0  0  0
   -2.7304   -0.9905   19.9589 C   0  0  0  0  0  0
   -2.4343   -2.1688   20.6315 C   0  0  0  0  0  0
   -2.2703   -2.1655   21.9658 N   0  3  0  0  0  0
   -2.3484   -1.0274   22.7059 C   0  0  0  0  0  0
   -2.6354    0.1937   22.0591 C   0  0  0  0  0  0
   -2.0340   -3.2795   22.5168 O   0  5  0  0  0  0
   -2.6897    1.3623   22.8261 N   0  0  0  0  0  0
   -2.1294   -1.1441   24.1814 C   0  0  0  0  0  0
   -3.2293   -1.3964   25.0090 C   0  0  0  0  0  0
   -3.0713   -1.5050   26.3896 C   0  0  0  0  0  0
   -1.8099   -1.3474   26.9597 C   0  0  0  0  0  0
   -0.7025   -1.1132   26.1463 C   0  0  0  0  0  0
   -0.8510   -1.0181   24.7589 C   0  0  0  0  0  0
   -5.9628    0.6353   19.7991 F   0  0  0  0  0  0
   -6.0346    0.4875   15.0764 F   0  0  0  0  0  0
    0.3840   -0.7892   23.8992 C   0  0  0  0  0  0
   -1.6205   -1.4470   28.6716 Cl  0  0  0  0  0  0
   -3.6045    1.4566   15.2150 H   0  0  0  0  0  0
   -2.3965    1.9185   17.2821 H   0  0  0  0  0  0
   -7.0414    0.3024   17.4769 H   0  0  0  0  0  0
   -2.8394   -1.0314   18.8860 H   0  0  0  0  0  0
   -2.3295   -3.1207   20.1369 H   0  0  0  0  0  0
   -2.3635    1.3197   23.7812 H   0  0  0  0  0  0
   -2.7078    2.2389   22.3221 H   0  0  0  0  0  0
   -4.2132   -1.5123   24.5789 H   0  0  0  0  0  0
   -3.9293   -1.6979   27.0175 H   0  0  0  0  0  0
    0.2749   -1.0112   26.5980 H   0  0  0  0  0  0
    1.3112   -0.9251   24.4594 H   0  0  0  0  0  0
    0.4016   -1.5066   23.0785 H   0  0  0  0  0  0
    0.3723    0.2110   23.4661 H   0  0  0  0  0  0
  1  2  2  0  0  0
  1 24  1  0  0  0
  1  6  1  0  0  0
  2  3  1  0  0  0
  2 27  1  0  0  0
  3  4  2  0  0  0
  3 28  1  0  0  0
  4  7  1  0  0  0
  4  5  1  0  0  0
  5 23  1  0  0  0
  5  6  2  0  0  0
  6 29  1  0  0  0
  7  8  1  0  0  0
  7  9  2  0  0  0
  8 14  1  0  0  0
  8 10  2  0  0  0
 10 11  1  0  0  0
 10 30  1  0  0  0
 11 12  2  0  0  0
 11 31  1  0  0  0
 12 13  1  0  0  0
 12 15  1  0  0  0
 13 14  2  0  0  0
 13 17  1  0  0  0
 14 16  1  0  0  0
 16 32  1  0  0  0
 16 33  1  0  0  0
 17 18  2  0  0  0
 17 22  1  0  0  0
 18 19  1  0  0  0
 18 34  1  0  0  0
 19 20  2  0  0  0
 19 35  1  0  0  0
 20 21  1  0  0  0
 20 26  1  0  0  0
 21 22  2  0  0  0
 21 36  1  0  0  0
 22 25  1  0  0  0
 25 37  1  0  0  0
 25 38  1  0  0  0
 25 39  1  0  0  0
M  CHG  2  12   1  15  -1
M  END
> <s_m_entry_id>
60731

> <s_m_entry_name>
dock_pv.8

> <s_m_Source_Path>
/home/csk/Desktop/cluster/DUD-E-result/mk14

> <s_m_Source_File>
dock_pv.maegz

> <i_m_Source_File_Index>
8

> <chembl_id>
CHEMBL549630

> <chembl_pref_name>
None

> <i_lp_mmshare_version>
53161

> <i_f3d_flags>
0

> <r_lp_tautomer_probability>
1

> <s_lp_Force_Field>
OPLS_2005

> <r_lp_Energy>
38.86383

> <b_lp_Chiralities_Consistent>
1

> <s_lp_Variant>
CHEMBL260_lig1651-1

> <s_i_glide_gridfile>
glide-grid_2qd9

> <i_i_glide_lignum>
1903

> <i_i_glide_rotatable_bonds>
3

> <r_i_docking_score>
-10.3294649054689

> <r_i_glide_ligand_efficiency>
-0.397287111748804

> <r_i_glide_ligand_efficiency_sa>
-1.17696150530653

> <r_i_glide_ligand_efficiency_ln>
-2.42584093931052

> <r_i_glide_gscore>
-10.3294649054689

> <r_i_glide_lipo>
-4.01298855658112

> <r_i_glide_hbond>
-0.16

> <r_i_glide_metal>
0

> <r_i_glide_rewards>
-2.3761080329989

> <r_i_glide_evdw>
-37.2880401611328

> <r_i_glide_ecoul>
-15.5270309448242

> <r_i_glide_erotb>
0.413088333891396

> <r_i_glide_esite>
0

> <r_i_glide_emodel>
-79.5091141485973

> <r_i_glide_energy>
-52.815071105957

> <r_i_glide_einternal>
2.58406352996826

> <i_i_glide_confnum>
12

> <i_i_glide_posenum>
354

> <r_i_glide_eff_state_penalty>
0

> <s_user_duplicate_titles>
CHEMBL260_lig1651,562096

> <s_m_subgroup_title>
dock_pv

> <s_m_subgroupid>
dock_pv

> <b_m_subgroup_collapsed>
1

$$$$
CHEMBL260_lig1643
                    3D
 Schrodinger Suite 2021-1.
 45 47  0  0  1  0            999 V2000
   -5.4101    0.8569   16.2797 C   0  0  0  0  0  0
   -4.1140    1.3560   16.2321 C   0  0  0  0  0  0
   -3.4261    1.6068   17.4189 C   0  0  0  0  0  0
   -4.0076    1.3190   18.6617 C   0  0  0  0  0  0
   -5.3363    0.8851   18.6966 C   0  0  0  0  0  0
   -6.0348    0.6754   17.5105 C   0  0  0  0  0  0
   -3.2350    1.4956   19.9286 C   0  0  0  0  0  0
   -2.9095    0.2767   20.7713 C   0  0  0  0  0  0
   -2.9045    2.6345   20.2713 O   0  0  0  0  0  0
   -2.8346   -0.9763   20.1385 C   0  0  0  0  0  0
   -2.5298   -2.1196   20.8709 C   0  0  0  0  0  0
   -2.3011   -2.0326   22.1926 N   0  3  0  0  0  0
   -2.3350   -0.8525   22.8720 C   0  0  0  0  0  0
   -2.6285    0.3303   22.1600 C   0  0  0  0  0  0
   -2.0351   -3.1134   22.7941 O   0  5  0  0  0  0
   -2.6538    1.5410   22.8632 N   0  0  0  0  0  0
   -2.0702   -0.8876   24.3491 C   0  0  0  0  0  0
   -0.8629   -0.4298   24.9258 C   0  0  0  0  0  0
   -0.6832   -0.5304   26.3135 C   0  0  0  0  0  0
   -1.6752   -1.0699   27.1278 C   0  0  0  0  0  0
   -2.8664   -1.5132   26.5636 C   0  0  0  0  0  0
   -3.0575   -1.4207   25.1871 C   0  0  0  0  0  0
   -5.9511    0.6221   19.8695 F   0  0  0  0  0  0
   -6.0347    0.4875   15.1417 F   0  0  0  0  0  0
    0.2932    0.1238   24.0790 C   0  0  0  0  0  0
    1.4904   -0.8366   24.0971 C   0  0  0  0  0  0
    0.7007    1.5551   24.4795 C   0  0  0  0  0  0
   -3.6369    1.5275   15.2770 H   0  0  0  0  0  0
   -2.4350    2.0073   17.3506 H   0  0  0  0  0  0
   -7.0356    0.2752   17.5542 H   0  0  0  0  0  0
   -3.0080   -1.0816   19.0768 H   0  0  0  0  0  0
   -2.4644   -3.1114   20.4401 H   0  0  0  0  0  0
   -2.6513    2.3839   22.3043 H   0  0  0  0  0  0
   -2.3015    1.5463   23.8093 H   0  0  0  0  0  0
    0.2415   -0.2056   26.7678 H   0  0  0  0  0  0
   -1.5166   -1.1510   28.1935 H   0  0  0  0  0  0
   -3.6393   -1.9314   27.1917 H   0  0  0  0  0  0
   -3.9858   -1.7749   24.7635 H   0  0  0  0  0  0
   -0.0194    0.1851   23.0394 H   0  0  0  0  0  0
    1.1657   -1.8515   23.8594 H   0  0  0  0  0  0
    2.2498   -0.5402   23.3729 H   0  0  0  0  0  0
    1.9653   -0.8709   25.0772 H   0  0  0  0  0  0
   -0.1522    2.2326   24.4559 H   0  0  0  0  0  0
    1.1282    1.5927   25.4822 H   0  0  0  0  0  0
    1.4519    1.9538   23.7959 H   0  0  0  0  0  0
  1 24  1  0  0  0
  1  6  1  0  0  0
  1  2  2  0  0  0
  2  3  1  0  0  0
  2 28  1  0  0  0
  3  4  2  0  0  0
  3 29  1  0  0  0
  4  7  1  0  0  0
  4  5  1  0  0  0
  5 23  1  0  0  0
  5  6  2  0  0  0
  6 30  1  0  0  0
  7  8  1  0  0  0
  7  9  2  0  0  0
  8 14  1  0  0  0
  8 10  2  0  0  0
 10 11  1  0  0  0
 10 31  1  0  0  0
 11 12  2  0  0  0
 11 32  1  0  0  0
 12 15  1  0  0  0
 12 13  1  0  0  0
 13 17  1  0  0  0
 13 14  2  0  0  0
 14 16  1  0  0  0
 16 33  1  0  0  0
 16 34  1  0  0  0
 17 18  2  0  0  0
 17 22  1  0  0  0
 18 19  1  0  0  0
 18 25  1  0  0  0
 19 20  2  0  0  0
 19 35  1  0  0  0
 20 21  1  0  0  0
 20 36  1  0  0  0
 21 22  2  0  0  0
 21 37  1  0  0  0
 22 38  1  0  0  0
 25 26  1  0  0  0
 25 27  1  0  0  0
 25 39  1  0  0  0
 26 40  1  0  0  0
 26 41  1  0  0  0
 26 42  1  0  0  0
 27 43  1  0  0  0
 27 44  1  0  0  0
 27 45  1  0  0  0
M  CHG  2  12   1  15  -1
M  END
> <s_m_entry_id>
60732

> <s_m_entry_name>
dock_pv.9

> <s_m_Source_Path>
/home/csk/Desktop/cluster/DUD-E-result/mk14

> <s_m_Source_File>
dock_pv.maegz

> <i_m_Source_File_Index>
9

> <chembl_id>
CHEMBL549424

> <chembl_pref_name>
None

> <i_lp_mmshare_version>
53161

> <i_f3d_flags>
0

> <r_lp_tautomer_probability>
1

> <s_lp_Force_Field>
OPLS_2005

> <r_lp_Energy>
39.818883

> <b_lp_Chiralities_Consistent>
1

> <s_lp_Variant>
CHEMBL260_lig1643-1

> <s_i_glide_gridfile>
glide-grid_2qd9

> <i_i_glide_lignum>
1895

> <i_i_glide_rotatable_bonds>
4

> <r_i_docking_score>
-10.3208246345613

> <r_i_glide_ligand_efficiency>
-0.382252764243011

> <r_i_glide_ligand_efficiency_sa>
-1.14675829146919

> <r_i_glide_ligand_efficiency_ln>
-2.40251782283366

> <r_i_glide_gscore>
-10.3208246345613

> <r_i_glide_lipo>
-4.00655891654277

> <r_i_glide_hbond>
-0.16

> <r_i_glide_metal>
0

> <r_i_glide_rewards>
-2.44176186911342

> <r_i_glide_evdw>
-39.003059387207

> <r_i_glide_ecoul>
-14.5889434814453

> <r_i_glide_erotb>
0.425990642672044

> <r_i_glide_esite>
0

> <r_i_glide_emodel>
-82.0130295284534

> <r_i_glide_energy>
-53.5920028686523

> <r_i_glide_einternal>
2.2817440032959

> <i_i_glide_confnum>
8

> <i_i_glide_posenum>
84

> <r_i_glide_eff_state_penalty>
0

> <s_user_duplicate_titles>
CHEMBL260_lig1643,562087

> <s_m_subgroup_title>
dock_pv

> <s_m_subgroupid>
dock_pv

> <b_m_subgroup_collapsed>
1

$$$$
CHEMBL260_lig1648
                    3D
 Schrodinger Suite 2021-1.
 44 46  0  0  1  0            999 V2000
   -5.4109    0.8628   16.2845 C   0  0  0  0  0  0
   -4.1138    1.3608   16.2371 C   0  0  0  0  0  0
   -3.4273    1.6106   17.4239 C   0  0  0  0  0  0
   -4.0085    1.3221   18.6656 C   0  0  0  0  0  0
   -5.3360    0.8868   18.7015 C   0  0  0  0  0  0
   -6.0350    0.6796   17.5153 C   0  0  0  0  0  0
   -3.2349    1.4982   19.9312 C   0  0  0  0  0  0
   -2.8698    0.2750   20.7563 C   0  0  0  0  0  0
   -2.9183    2.6406   20.2759 O   0  0  0  0  0  0
   -2.8427   -0.9747   20.1195 C   0  0  0  0  0  0
   -2.5306   -2.1289   20.8258 C   0  0  0  0  0  0
   -2.2628   -2.0619   22.1382 N   0  3  0  0  0  0
   -2.2386   -0.8852   22.8207 C   0  0  0  0  0  0
   -2.5118    0.3148   22.1279 C   0  0  0  0  0  0
   -2.0354   -3.1598   22.7266 O   0  5  0  0  0  0
   -2.4488    1.5241   22.8284 N   0  0  0  0  0  0
   -1.9579   -0.9479   24.2881 C   0  0  0  0  0  0
   -2.9694   -1.3879   25.1449 C   0  0  0  0  0  0
   -2.7544   -1.4689   26.5143 C   0  0  0  0  0  0
   -1.5211   -1.1064   27.0421 C   0  0  0  0  0  0
   -0.4805   -0.6619   26.2075 C   0  0  0  0  0  0
   -0.7063   -0.5835   24.8154 C   0  0  0  0  0  0
   -5.9489    0.6187   19.8749 F   0  0  0  0  0  0
   -6.0350    0.4875   15.1481 F   0  0  0  0  0  0
    0.2658   -0.1947   23.9103 O   0  0  0  0  0  0
    1.0250    0.9775   24.1961 C   0  0  0  0  0  0
    0.7638   -0.3121   26.6968 O   0  0  0  0  0  0
    0.9495   -0.1680   28.1016 C   0  0  0  0  0  0
   -3.6344    1.5275   15.2826 H   0  0  0  0  0  0
   -2.4350    2.0090   17.3566 H   0  0  0  0  0  0
   -7.0349    0.2767   17.5570 H   0  0  0  0  0  0
   -3.0771   -1.0767   19.0760 H   0  0  0  0  0  0
   -2.5056   -3.1129   20.3801 H   0  0  0  0  0  0
   -1.9890    1.5085   23.7271 H   0  0  0  0  0  0
   -2.4369    2.3602   22.2568 H   0  0  0  0  0  0
   -3.9315   -1.6709   24.7435 H   0  0  0  0  0  0
   -3.5421   -1.8165   27.1662 H   0  0  0  0  0  0
   -1.3895   -1.1927   28.1099 H   0  0  0  0  0  0
    1.3046    1.4616   23.2606 H   0  0  0  0  0  0
    0.4765    1.7090   24.7941 H   0  0  0  0  0  0
    1.9518    0.7210   24.7103 H   0  0  0  0  0  0
    1.9655    0.1658   28.2984 H   0  0  0  0  0  0
    0.2763    0.5806   28.5191 H   0  0  0  0  0  0
    0.8062   -1.1083   28.6314 H   0  0  0  0  0  0
  1 24  1  0  0  0
  1  6  1  0  0  0
  1  2  2  0  0  0
  2  3  1  0  0  0
  2 29  1  0  0  0
  3  4  2  0  0  0
  3 30  1  0  0  0
  4  7  1  0  0  0
  4  5  1  0  0  0
  5 23  1  0  0  0
  5  6  2  0  0  0
  6 31  1  0  0  0
  7  8  1  0  0  0
  7  9  2  0  0  0
  8 14  1  0  0  0
  8 10  2  0  0  0
 10 11  1  0  0  0
 10 32  1  0  0  0
 11 12  2  0  0  0
 11 33  1  0  0  0
 12 15  1  0  0  0
 12 13  1  0  0  0
 13 14  2  0  0  0
 13 17  1  0  0  0
 14 16  1  0  0  0
 16 34  1  0  0  0
 16 35  1  0  0  0
 17 18  2  0  0  0
 17 22  1  0  0  0
 18 19  1  0  0  0
 18 36  1  0  0  0
 19 20  2  0  0  0
 19 37  1  0  0  0
 20 21  1  0  0  0
 20 38  1  0  0  0
 21 22  2  0  0  0
 21 27  1  0  0  0
 22 25  1  0  0  0
 25 26  1  0  0  0
 26 39  1  0  0  0
 26 40  1  0  0  0
 26 41  1  0  0  0
 27 28  1  0  0  0
 28 42  1  0  0  0
 28 43  1  0  0  0
 28 44  1  0  0  0
M  CHG  2  12   1  15  -1
M  END
> <s_m_entry_id>
60733

> <s_m_entry_name>
dock_pv.10

> <s_m_Source_Path>
/home/csk/Desktop/cluster/DUD-E-result/mk14

> <s_m_Source_File>
dock_pv.maegz

> <i_m_Source_File_Index>
10

> <chembl_id>
CHEMBL557912

> <chembl_pref_name>
None

> <i_lp_mmshare_version>
53161

> <i_f3d_flags>
0

> <r_lp_tautomer_probability>
1

> <s_lp_Force_Field>
OPLS_2005

> <r_lp_Energy>
48.562556

> <b_lp_Chiralities_Consistent>
1

> <s_lp_Variant>
CHEMBL260_lig1648-1

> <s_i_glide_gridfile>
glide-grid_2qd9

> <i_i_glide_lignum>
1900

> <i_i_glide_rotatable_bonds>
5

> <r_i_docking_score>
-10.3170566599547

> <r_i_glide_ligand_efficiency>
-0.368466309284095

> <r_i_glide_ligand_efficiency_sa>
-1.11888073003703

> <r_i_glide_ligand_efficiency_ln>
-2.38147959906385

> <r_i_glide_gscore>
-10.3170566599547

> <r_i_glide_lipo>
-3.77582201051735

> <r_i_glide_hbond>
-0.16

> <r_i_glide_metal>
0

> <r_i_glide_rewards>
-2.32826851351673

> <r_i_glide_evdw>
-40.6376190185547

> <r_i_glide_ecoul>
-16.0816669464111

> <r_i_glide_erotb>
0.391164856968815

> <r_i_glide_esite>
0

> <r_i_glide_emodel>
-85.7798625444615

> <r_i_glide_energy>
-56.7192859649658

> <r_i_glide_einternal>
2.93165898323059

> <i_i_glide_confnum>
2

> <i_i_glide_posenum>
308

> <r_i_glide_eff_state_penalty>
0

> <s_user_duplicate_titles>
CHEMBL260_lig1648,567394

> <s_m_subgroup_title>
dock_pv

> <s_m_subgroupid>
dock_pv

> <b_m_subgroup_collapsed>
1

$$$$
CHEMBL260_lig878
                    3D
 Schrodinger Suite 2021-1.
 38 41  0  0  1  0            999 V2000
    0.2849   -0.7129   25.5909 C   0  0  0  0  0  0
   -0.0952   -0.7351   24.2487 C   0  0  0  0  0  0
   -1.4241   -1.0448   23.8937 C   0  0  0  0  0  0
   -2.3664   -1.2514   24.9200 C   0  0  0  0  0  0
   -1.9720   -1.2248   26.2578 C   0  0  0  0  0  0
   -0.6457   -0.9693   26.5935 C   0  0  0  0  0  0
   -4.0350   -1.5130   24.5675 Cl  0  0  0  0  0  0
    1.0985   -0.3130   23.0761 Cl  0  0  0  0  0  0
   -1.8298   -1.1334   22.5237 N   0  0  0  0  0  0
   -1.9309   -2.3973   21.9910 C   0  0  0  0  0  0
   -2.4420   -2.4755   20.7370 N   0  0  0  0  0  0
   -2.8350   -1.3570   19.8543 C   0  0  0  0  0  0
   -2.2417   -0.0024   21.8294 C   0  0  0  0  0  0
   -2.7600   -0.0231   20.5740 C   0  0  0  0  0  0
   -3.1657    1.2456   19.9384 C   0  0  0  0  0  0
   -2.8820    2.3445   20.5669 N   0  0  0  0  0  0
   -2.4349    2.3662   21.9074 C   0  0  0  0  0  0
   -2.0932    1.1916   22.4760 N   0  0  0  0  0  0
   -3.8685    1.2473   18.6235 C   0  0  0  0  0  0
   -3.2350    1.6870   17.4500 C   0  0  0  0  0  0
   -3.8567    1.6870   16.2054 C   0  0  0  0  0  0
   -5.1709    1.2683   16.1055 C   0  0  0  0  0  0
   -5.8390    0.8870   17.2601 C   0  0  0  0  0  0
   -5.2184    0.8870   18.5086 C   0  0  0  0  0  0
   -6.1833    0.4870   19.8760 Cl  0  0  0  0  0  0
   -1.6350   -3.4490   22.5609 O   0  0  0  0  0  0
   -2.3156    3.3095   22.6761 O   0  0  0  0  0  0
    1.3077   -0.4887   25.8595 H   0  0  0  0  0  0
   -2.6964   -1.3981   27.0406 H   0  0  0  0  0  0
   -0.3406   -0.9528   27.6303 H   0  0  0  0  0  0
   -2.5588   -3.4120   20.3684 H   0  0  0  0  0  0
   -3.8475   -1.5130   19.4877 H   0  0  0  0  0  0
   -2.1690   -1.3431   18.9905 H   0  0  0  0  0  0
   -2.2390    2.0666   17.4496 H   0  0  0  0  0  0
   -3.3220    2.0185   15.3260 H   0  0  0  0  0  0
   -5.6668    1.2450   15.1463 H   0  0  0  0  0  0
   -6.8376    0.5310   17.1808 H   0  0  0  0  0  0
   -1.7533    1.2489   23.4231 H   0  0  0  0  0  0
  1  6  1  0  0  0
  1  2  2  0  0  0
  1 28  1  0  0  0
  2  8  1  0  0  0
  2  3  1  0  0  0
  3  4  2  0  0  0
  3  9  1  0  0  0
  4  7  1  0  0  0
  4  5  1  0  0  0
  5  6  2  0  0  0
  5 29  1  0  0  0
  6 30  1  0  0  0
  9 10  1  0  0  0
  9 13  1  0  0  0
 10 11  1  0  0  0
 10 26  2  0  0  0
 11 12  1  0  0  0
 11 31  1  0  0  0
 12 32  1  0  0  0
 12 33  1  0  0  0
 12 14  1  0  0  0
 13 14  2  0  0  0
 13 18  1  0  0  0
 14 15  1  0  0  0
 15 16  2  0  0  0
 15 19  1  0  0  0
 16 17  1  0  0  0
 17 27  2  0  0  0
 17 18  1  0  0  0
 18 38  1  0  0  0
 19 20  2  0  0  0
 19 24  1  0  0  0
 20 21  1  0  0  0
 20 34  1  0  0  0
 21 22  2  0  0  0
 21 35  1  0  0  0
 22 23  1  0  0  0
 22 36  1  0  0  0
 23 24  2  0  0  0
 23 37  1  0  0  0
 24 25  1  0  0  0
M  END
> <s_m_entry_id>
60734

> <s_m_entry_name>
dock_pv.11

> <s_m_Source_Path>
/home/csk/Desktop/cluster/DUD-E-result/mk14

> <s_m_Source_File>
dock_pv.maegz

> <i_m_Source_File_Index>
11

> <chembl_id>
CHEMBL213846

> <chembl_pref_name>
None

> <i_lp_mmshare_version>
53161

> <i_f3d_flags>
0

> <r_lp_tautomer_probability>
0.51508763789669

> <s_lp_Force_Field>
OPLS_2005

> <r_lp_Energy>
61.472268

> <b_lp_Chiralities_Consistent>
1

> <s_lp_Variant>
CHEMBL260_lig878-1

> <s_i_glide_gridfile>
glide-grid_2qd9

> <i_i_glide_lignum>
977

> <i_i_glide_rotatable_bonds>
2

> <r_i_docking_score>
-10.2957374185932

> <r_i_glide_ligand_efficiency>
-0.381323608096045

> <r_i_glide_ligand_efficiency_sa>
-1.14397082303135

> <r_i_glide_ligand_efficiency_ln>
-2.39667793255137

> <r_i_glide_gscore>
-10.2957374185932

> <r_i_glide_lipo>
-4.06193478719828

> <r_i_glide_hbond>
-0.608

> <r_i_glide_metal>
0

> <r_i_glide_rewards>
-2.14256785609337

> <r_i_glide_evdw>
-38.0667915344238

> <r_i_glide_ecoul>
-11.5721864700317

> <r_i_glide_erotb>
0.155932771924396

> <r_i_glide_esite>
0

> <r_i_glide_emodel>
-68.6463495760143

> <r_i_glide_energy>
-49.6389780044556

> <r_i_glide_einternal>
0.739725232124329

> <i_i_glide_confnum>
1

> <i_i_glide_posenum>
339

> <r_i_glide_eff_state_penalty>
0

> <s_user_duplicate_titles>
CHEMBL260_lig878,CHEMBL260_lig878,355221

> <s_m_subgroup_title>
dock_pv

> <s_m_subgroupid>
dock_pv

> <b_m_subgroup_collapsed>
1

$$$$
CHEMBL260_lig1649
                    3D
 Schrodinger Suite 2021-1.
 39 42  0  0  1  0            999 V2000
   -5.4055    0.8653   16.2177 C   0  0  0  0  0  0
   -4.1106    1.3685   16.1764 C   0  0  0  0  0  0
   -3.4261    1.6170   17.3645 C   0  0  0  0  0  0
   -4.0121    1.3286   18.6058 C   0  0  0  0  0  0
   -5.3378    0.8866   18.6333 C   0  0  0  0  0  0
   -6.0341    0.6777   17.4450 C   0  0  0  0  0  0
   -3.2410    1.4933   19.8767 C   0  0  0  0  0  0
   -2.9367    0.2638   20.7079 C   0  0  0  0  0  0
   -2.9085    2.6248   20.2421 O   0  0  0  0  0  0
   -2.8567   -0.9745   20.0555 C   0  0  0  0  0  0
   -2.5890   -2.1382   20.7656 C   0  0  0  0  0  0
   -2.4007   -2.0857   22.0948 N   0  3  0  0  0  0
   -2.4326   -0.9187   22.7930 C   0  0  0  0  0  0
   -2.6772    0.2859   22.0997 C   0  0  0  0  0  0
   -2.1564   -3.1817   22.6767 O   0  5  0  0  0  0
   -2.6572    1.4897   22.8117 N   0  0  0  0  0  0
   -2.1437   -0.9787   24.2561 C   0  0  0  0  0  0
   -5.9609    0.6162   19.8027 F   0  0  0  0  0  0
   -6.0256    0.4876   15.0776 F   0  0  0  0  0  0
   -3.0526   -1.5090   25.1874 C   0  0  0  0  0  0
   -2.7372   -1.5625   26.5566 C   0  0  0  0  0  0
   -1.4962   -1.1051   27.0188 C   0  0  0  0  0  0
   -0.9234   -0.5342   24.7503 C   0  0  0  0  0  0
   -0.6064   -0.5995   26.0766 C   0  0  0  0  0  0
    0.6401   -0.0912   26.2605 O   0  0  0  0  0  0
    1.1629    0.1199   24.9735 C   0  0  0  0  0  0
    0.1071    0.0182   24.0606 O   0  0  0  0  0  0
   -3.6306    1.5390   15.2232 H   0  0  0  0  0  0
   -2.4321    2.0144   17.3015 H   0  0  0  0  0  0
   -7.0297    0.2657   17.4861 H   0  0  0  0  0  0
   -2.9889   -1.0537   18.9915 H   0  0  0  0  0  0
   -2.5143   -3.1126   20.3067 H   0  0  0  0  0  0
   -2.1660    1.4801   23.6949 H   0  0  0  0  0  0
   -2.6557    2.3304   22.2486 H   0  0  0  0  0  0
   -4.0082   -1.8780   24.8475 H   0  0  0  0  0  0
   -3.4547   -1.9668   27.2578 H   0  0  0  0  0  0
   -1.2475   -1.1458   28.0696 H   0  0  0  0  0  0
    1.6303    1.1041   24.9098 H   0  0  0  0  0  0
    1.8963   -0.6552   24.7415 H   0  0  0  0  0  0
  1  2  2  0  0  0
  1 19  1  0  0  0
  1  6  1  0  0  0
  2  3  1  0  0  0
  2 28  1  0  0  0
  3  4  2  0  0  0
  3 29  1  0  0  0
  4  7  1  0  0  0
  4  5  1  0  0  0
  5 18  1  0  0  0
  5  6  2  0  0  0
  6 30  1  0  0  0
  7  8  1  0  0  0
  7  9  2  0  0  0
  8 14  1  0  0  0
  8 10  2  0  0  0
 10 11  1  0  0  0
 10 31  1  0  0  0
 11 12  2  0  0  0
 11 32  1  0  0  0
 12 15  1  0  0  0
 12 13  1  0  0  0
 13 14  2  0  0  0
 13 17  1  0  0  0
 14 16  1  0  0  0
 16 33  1  0  0  0
 16 34  1  0  0  0
 17 20  2  0  0  0
 17 23  1  0  0  0
 20 21  1  0  0  0
 20 35  1  0  0  0
 21 22  2  0  0  0
 21 36  1  0  0  0
 22 24  1  0  0  0
 22 37  1  0  0  0
 23 24  2  0  0  0
 23 27  1  0  0  0
 24 25  1  0  0  0
 25 26  1  0  0  0
 26 27  1  0  0  0
 26 38  1  0  0  0
 26 39  1  0  0  0
M  CHG  2  12   1  15  -1
M  END
> <s_m_entry_id>
60735

> <s_m_entry_name>
dock_pv.12

> <s_m_Source_Path>
/home/csk/Desktop/cluster/DUD-E-result/mk14

> <s_m_Source_File>
dock_pv.maegz

> <i_m_Source_File_Index>
12

> <chembl_id>
CHEMBL552375

> <chembl_pref_name>
None

> <i_lp_mmshare_version>
53161

> <i_f3d_flags>
0

> <r_lp_tautomer_probability>
1

> <s_lp_Force_Field>
OPLS_2005

> <r_lp_Energy>
49.704239

> <b_lp_Chiralities_Consistent>
1

> <s_lp_Variant>
CHEMBL260_lig1649-1

> <s_i_glide_gridfile>
glide-grid_2qd9

> <i_i_glide_lignum>
1901

> <i_i_glide_rotatable_bonds>
3

> <r_i_docking_score>
-10.2759388053928

> <r_i_glide_ligand_efficiency>
-0.380590326125661

> <r_i_glide_ligand_efficiency_sa>
-1.14177097712262

> <r_i_glide_ligand_efficiency_ln>
-2.39206914180397

> <r_i_glide_gscore>
-10.2759388053928

> <r_i_glide_lipo>
-3.67524071120407

> <r_i_glide_hbond>
-0.16

> <r_i_glide_metal>
0

> <r_i_glide_rewards>
-2.61987638344482

> <r_i_glide_evdw>
-38.1556358337402

> <r_i_glide_ecoul>
-15.5671453475952

> <r_i_glide_erotb>
0.422031883082329

> <r_i_glide_esite>
0

> <r_i_glide_emodel>
-72.065506073372

> <r_i_glide_energy>
-53.7227811813354

> <r_i_glide_einternal>
14.3565397262573

> <i_i_glide_confnum>
14

> <i_i_glide_posenum>
154

> <r_i_glide_eff_state_penalty>
0

> <s_user_duplicate_titles>
CHEMBL260_lig1649,565592

> <s_m_subgroup_title>
dock_pv

> <s_m_subgroupid>
dock_pv

> <b_m_subgroup_collapsed>
1

$$$$
CHEMBL260_lig1647
                    3D
 Schrodinger Suite 2021-1.
 44 46  0  0  1  0            999 V2000
   -5.4019    0.8403   16.2132 C   0  0  0  0  0  0
   -4.0907    1.2959   16.1625 C   0  0  0  0  0  0
   -3.3999    1.5404   17.3464 C   0  0  0  0  0  0
   -4.0000    1.2979   18.5908 C   0  0  0  0  0  0
   -5.3356    0.8870   18.6286 C   0  0  0  0  0  0
   -6.0349    0.6815   17.4422 C   0  0  0  0  0  0
   -3.2350    1.5040   19.8550 C   0  0  0  0  0  0
   -2.7061    0.3029   20.6261 C   0  0  0  0  0  0
   -3.0416    2.6633   20.2306 O   0  0  0  0  0  0
   -2.8029   -0.9719   20.0452 C   0  0  0  0  0  0
   -2.3670   -2.1057   20.7208 C   0  0  0  0  0  0
   -1.8758   -1.9976   21.9648 N   0  3  0  0  0  0
   -1.7347   -0.7955   22.5903 C   0  0  0  0  0  0
   -2.1221    0.3845   21.9153 C   0  0  0  0  0  0
   -1.6059   -3.0815   22.5617 O   0  5  0  0  0  0
   -2.0234    1.6051   22.5940 N   0  0  0  0  0  0
   -1.3731   -0.8101   24.0416 C   0  0  0  0  0  0
   -0.0674   -0.4847   24.4540 C   0  0  0  0  0  0
    0.2513   -0.5291   25.8204 C   0  0  0  0  0  0
   -0.7041   -0.8974   26.7617 C   0  0  0  0  0  0
   -1.9926   -1.2198   26.3504 C   0  0  0  0  0  0
   -2.3439   -1.1686   25.0022 C   0  0  0  0  0  0
   -5.9575    0.6505   19.8039 F   0  0  0  0  0  0
   -6.0348    0.4870   15.0759 F   0  0  0  0  0  0
   -3.6348   -1.5524   24.6949 O   0  0  0  0  0  0
    0.8441   -0.1375   23.4739 O   0  0  0  0  0  0
   -4.4467   -0.7136   23.8798 C   0  0  0  0  0  0
    2.1944    0.1513   23.8239 C   0  0  0  0  0  0
   -3.6065    1.4407   15.2072 H   0  0  0  0  0  0
   -2.3969    1.9127   17.2685 H   0  0  0  0  0  0
   -7.0423    0.3020   17.4841 H   0  0  0  0  0  0
   -3.2403   -1.1135   19.0758 H   0  0  0  0  0  0
   -2.4397   -3.1094   20.3227 H   0  0  0  0  0  0
   -1.4247    1.6430   23.4075 H   0  0  0  0  0  0
   -2.1787    2.4351   22.0359 H   0  0  0  0  0  0
    1.2424   -0.2908   26.1735 H   0  0  0  0  0  0
   -0.4418   -0.9420   27.8093 H   0  0  0  0  0  0
   -2.7268   -1.5171   27.0842 H   0  0  0  0  0  0
   -5.4736   -1.0788   23.8763 H   0  0  0  0  0  0
   -4.4339    0.3088   24.2648 H   0  0  0  0  0  0
   -4.2047   -0.7339   22.8259 H   0  0  0  0  0  0
    2.7537    0.4031   22.9227 H   0  0  0  0  0  0
    2.2621    1.0071   24.4965 H   0  0  0  0  0  0
    2.6813   -0.7126   24.2785 H   0  0  0  0  0  0
  1 24  1  0  0  0
  1  6  1  0  0  0
  1  2  2  0  0  0
  2  3  1  0  0  0
  2 29  1  0  0  0
  3  4  2  0  0  0
  3 30  1  0  0  0
  4  7  1  0  0  0
  4  5  1  0  0  0
  5 23  1  0  0  0
  5  6  2  0  0  0
  6 31  1  0  0  0
  7  8  1  0  0  0
  7  9  2  0  0  0
  8 14  1  0  0  0
  8 10  2  0  0  0
 10 11  1  0  0  0
 10 32  1  0  0  0
 11 12  2  0  0  0
 11 33  1  0  0  0
 12 15  1  0  0  0
 12 13  1  0  0  0
 13 14  2  0  0  0
 13 17  1  0  0  0
 14 16  1  0  0  0
 16 34  1  0  0  0
 16 35  1  0  0  0
 17 18  2  0  0  0
 17 22  1  0  0  0
 18 19  1  0  0  0
 18 26  1  0  0  0
 19 20  2  0  0  0
 19 36  1  0  0  0
 20 21  1  0  0  0
 20 37  1  0  0  0
 21 22  2  0  0  0
 21 38  1  0  0  0
 22 25  1  0  0  0
 25 27  1  0  0  0
 26 28  1  0  0  0
 27 39  1  0  0  0
 27 40  1  0  0  0
 27 41  1  0  0  0
 28 42  1  0  0  0
 28 43  1  0  0  0
 28 44  1  0  0  0
M  CHG  2  12   1  15  -1
M  END
> <s_m_entry_id>
60736

> <s_m_entry_name>
dock_pv.13

> <s_m_Source_Path>
/home/csk/Desktop/cluster/DUD-E-result/mk14

> <s_m_Source_File>
dock_pv.maegz

> <i_m_Source_File_Index>
13

> <chembl_id>
CHEMBL552113

> <chembl_pref_name>
None

> <i_lp_mmshare_version>
53161

> <i_f3d_flags>
0

> <r_lp_tautomer_probability>
1

> <s_lp_Force_Field>
OPLS_2005

> <r_lp_Energy>
45.072545

> <b_lp_Chiralities_Consistent>
1

> <s_lp_Variant>
CHEMBL260_lig1647-1

> <s_i_glide_gridfile>
glide-grid_2qd9

> <i_i_glide_lignum>
1899

> <i_i_glide_rotatable_bonds>
5

> <r_i_docking_score>
-10.269758104465

> <r_i_glide_ligand_efficiency>
-0.366777075159465

> <r_i_glide_ligand_efficiency_sa>
-1.11375122032896

> <r_i_glide_ligand_efficiency_ln>
-2.37056170371091

> <r_i_glide_gscore>
-10.269758104465

> <r_i_glide_lipo>
-4.14939982152746

> <r_i_glide_hbond>
-0.126519474631229

> <r_i_glide_metal>
0

> <r_i_glide_rewards>
-2.27266588527638

> <r_i_glide_evdw>
-40.7376670837402

> <r_i_glide_ecoul>
-13.8363628387451

> <r_i_glide_erotb>
0.391164856968815

> <r_i_glide_esite>
0

> <r_i_glide_emodel>
-77.9648909972918

> <r_i_glide_energy>
-54.5740299224854

> <r_i_glide_einternal>
11.5934705734253

> <i_i_glide_confnum>
6

> <i_i_glide_posenum>
145

> <r_i_glide_eff_state_penalty>
0

> <s_user_duplicate_titles>
CHEMBL260_lig1647,563752

> <s_m_subgroup_title>
dock_pv

> <s_m_subgroupid>
dock_pv

> <b_m_subgroup_collapsed>
1

$$$$
CHEMBL260_lig1645
                    3D
 Schrodinger Suite 2021-1.
 36 38  0  0  1  0            999 V2000
   -5.4030    0.8550   16.2188 C   0  0  0  0  0  0
   -4.1004    1.3397   16.1759 C   0  0  0  0  0  0
   -3.4157    1.5883   17.3648 C   0  0  0  0  0  0
   -4.0070    1.3139   18.6070 C   0  0  0  0  0  0
   -5.3384    0.8870   18.6361 C   0  0  0  0  0  0
   -6.0348    0.6799   17.4459 C   0  0  0  0  0  0
   -3.2351    1.5029   19.8762 C   0  0  0  0  0  0
   -2.8264    0.2895   20.6990 C   0  0  0  0  0  0
   -2.9468    2.6518   20.2207 O   0  0  0  0  0  0
   -2.8950   -0.9770   20.0978 C   0  0  0  0  0  0
   -2.5424   -2.1185   20.8086 C   0  0  0  0  0  0
   -2.1209   -2.0251   22.0811 N   0  3  0  0  0  0
   -1.9848   -0.8292   22.7203 C   0  0  0  0  0  0
   -2.3360    0.3546   22.0310 C   0  0  0  0  0  0
   -1.8521   -3.1126   22.6721 O   0  5  0  0  0  0
   -2.2033    1.5775   22.6981 N   0  0  0  0  0  0
   -1.4848   -0.8517   24.1365 C   0  0  0  0  0  0
   -2.3438   -1.2070   25.1872 C   0  0  0  0  0  0
   -1.8854   -1.2482   26.5041 C   0  0  0  0  0  0
   -0.5589   -0.9351   26.7912 C   0  0  0  0  0  0
    0.3069   -0.5852   25.7586 C   0  0  0  0  0  0
   -0.1494   -0.5461   24.4414 C   0  0  0  0  0  0
   -5.9597    0.6280   19.8078 F   0  0  0  0  0  0
   -6.0272    0.4872   15.0782 F   0  0  0  0  0  0
    0.7204   -0.2124   23.4631 F   0  0  0  0  0  0
   -3.6356   -1.5092   24.9340 F   0  0  0  0  0  0
   -3.6173    1.5030   15.2230 H   0  0  0  0  0  0
   -2.4223    1.9838   17.2981 H   0  0  0  0  0  0
   -7.0356    0.2801   17.4775 H   0  0  0  0  0  0
   -3.2225   -1.1014   19.0762 H   0  0  0  0  0  0
   -2.5879   -3.1132   20.3937 H   0  0  0  0  0  0
   -1.6832    1.5927   23.5645 H   0  0  0  0  0  0
   -2.2819    2.4115   22.1295 H   0  0  0  0  0  0
   -2.5574   -1.5274   27.3023 H   0  0  0  0  0  0
   -0.1975   -0.9710   27.8092 H   0  0  0  0  0  0
    1.3386   -0.3522   25.9783 H   0  0  0  0  0  0
  1  2  2  0  0  0
  1 24  1  0  0  0
  1  6  1  0  0  0
  2  3  1  0  0  0
  2 27  1  0  0  0
  3  4  2  0  0  0
  3 28  1  0  0  0
  4  7  1  0  0  0
  4  5  1  0  0  0
  5 23  1  0  0  0
  5  6  2  0  0  0
  6 29  1  0  0  0
  7  8  1  0  0  0
  7  9  2  0  0  0
  8 14  1  0  0  0
  8 10  2  0  0  0
 10 11  1  0  0  0
 10 30  1  0  0  0
 11 12  2  0  0  0
 11 31  1  0  0  0
 12 13  1  0  0  0
 12 15  1  0  0  0
 13 14  2  0  0  0
 13 17  1  0  0  0
 14 16  1  0  0  0
 16 32  1  0  0  0
 16 33  1  0  0  0
 17 18  2  0  0  0
 17 22  1  0  0  0
 18 19  1  0  0  0
 18 26  1  0  0  0
 19 20  2  0  0  0
 19 34  1  0  0  0
 20 21  1  0  0  0
 20 35  1  0  0  0
 21 22  2  0  0  0
 21 36  1  0  0  0
 22 25  1  0  0  0
M  CHG  2  12   1  15  -1
M  END
> <s_m_entry_id>
60737

> <s_m_entry_name>
dock_pv.14

> <s_m_Source_Path>
/home/csk/Desktop/cluster/DUD-E-result/mk14

> <s_m_Source_File>
dock_pv.maegz

> <i_m_Source_File_Index>
14

> <chembl_id>
CHEMBL550566

> <chembl_pref_name>
None

> <i_lp_mmshare_version>
53161

> <i_f3d_flags>
0

> <r_lp_tautomer_probability>
1

> <s_lp_Force_Field>
OPLS_2005

> <r_lp_Energy>
36.222622

> <b_lp_Chiralities_Consistent>
1

> <s_lp_Variant>
CHEMBL260_lig1645-1

> <s_i_glide_gridfile>
glide-grid_2qd9

> <i_i_glide_lignum>
1897

> <i_i_glide_rotatable_bonds>
3

> <r_i_docking_score>
-10.218764286871

> <r_i_glide_ligand_efficiency>
-0.393029395648883

> <r_i_glide_ligand_efficiency_sa>
-1.16434803811382

> <r_i_glide_ligand_efficiency_ln>
-2.39984326227115

> <r_i_glide_gscore>
-10.218764286871

> <r_i_glide_lipo>
-3.67623458397981

> <r_i_glide_hbond>
-0.16

> <r_i_glide_metal>
0

> <r_i_glide_rewards>
-2.84270527003083

> <r_i_glide_evdw>
-35.8145484924316

> <r_i_glide_ecoul>
-14.5864915847778

> <r_i_glide_erotb>
0.438876729477931

> <r_i_glide_esite>
0

> <r_i_glide_emodel>
-76.0251556064879

> <r_i_glide_energy>
-50.4010400772095

> <r_i_glide_einternal>
3.55026197433472

> <i_i_glide_confnum>
18

> <i_i_glide_posenum>
234

> <r_i_glide_eff_state_penalty>
0

> <s_user_duplicate_titles>
CHEMBL260_lig1645,565585

> <s_m_subgroup_title>
dock_pv

> <s_m_subgroupid>
dock_pv

> <b_m_subgroup_collapsed>
1

$$$$
CHEMBL260_lig110
                    3D
 Schrodinger Suite 2021-1.
 43 46  0  0  1  0            999 V2000
   -1.6849   -1.2364   22.7464 N   0  0  0  0  0  0
   -2.0459   -0.0656   22.0318 C   0  0  0  0  0  0
   -2.6030   -0.1674   20.7418 C   0  0  0  0  0  0
   -1.7774   -2.5049   22.2552 C   0  0  0  0  0  0
   -3.0441    0.9911   20.0716 C   0  0  0  0  0  0
   -1.3765   -1.1219   24.1401 C   0  0  0  0  0  0
   -3.7752    0.9258   18.7625 C   0  0  0  0  0  0
   -2.1266   -2.6210   20.9532 N   0  0  0  0  0  0
   -5.1749    0.8890   18.7294 C   0  0  0  0  0  0
   -2.7169   -1.5565   20.1254 C   0  0  0  0  0  0
   -1.8887    1.1907   22.6155 C   0  0  0  0  0  0
   -5.8656    0.8870   17.5171 C   0  0  0  0  0  0
   -2.8350    2.2365   20.6796 C   0  0  0  0  0  0
   -3.1062    0.9124   17.5301 C   0  0  0  0  0  0
   -0.0624   -0.8597   24.5778 C   0  0  0  0  0  0
   -2.3988   -1.2309   25.1022 C   0  0  0  0  0  0
   -1.6350   -3.5130   22.9315 O   0  0  0  0  0  0
   -2.2799    2.3468   21.9592 C   0  0  0  0  0  0
   -5.1716    0.8870   16.3119 C   0  0  0  0  0  0
   -5.8811    0.8801   19.8760 F   0  0  0  0  0  0
   -3.7869    0.9080   16.3169 C   0  0  0  0  0  0
   -4.0350   -1.5130   24.6402 Cl  0  0  0  0  0  0
    1.2514   -0.6726   23.4760 Cl  0  0  0  0  0  0
   -5.8274    0.8020   15.1394 F   0  0  0  0  0  0
   -2.1631    3.5931   22.5392 O   0  0  0  0  0  0
   -0.8081   -0.8442   26.8797 C   0  0  0  0  0  0
    0.2088   -0.7130   25.9386 C   0  0  0  0  0  0
   -2.1099   -1.1028   26.4608 C   0  0  0  0  0  0
   -1.4618    3.7510   23.7721 C   0  0  0  0  0  0
   -2.1817   -3.5645   20.5918 H   0  0  0  0  0  0
   -3.7611   -1.7907   19.9321 H   0  0  0  0  0  0
   -2.2189   -1.5619   19.1550 H   0  0  0  0  0  0
   -1.4663    1.2742   23.6020 H   0  0  0  0  0  0
   -6.9401    0.8471   17.5173 H   0  0  0  0  0  0
   -3.1587    3.1337   20.1750 H   0  0  0  0  0  0
   -2.0350    0.8870   17.4760 H   0  0  0  0  0  0
   -3.2429    0.8884   15.3834 H   0  0  0  0  0  0
   -0.5851   -0.7450   27.9325 H   0  0  0  0  0  0
    1.2173   -0.5091   26.2696 H   0  0  0  0  0  0
   -2.8977   -1.1980   27.1940 H   0  0  0  0  0  0
   -1.3957    4.8107   24.0171 H   0  0  0  0  0  0
   -1.9805    3.2564   24.5948 H   0  0  0  0  0  0
   -0.4414    3.3688   23.7072 H   0  0  0  0  0  0
  1  2  1  0  0  0
  1  4  1  0  0  0
  1  6  1  0  0  0
  2  3  2  0  0  0
  2 11  1  0  0  0
  3  5  1  0  0  0
  3 10  1  0  0  0
  4  8  1  0  0  0
  4 17  2  0  0  0
  5  7  1  0  0  0
  5 13  2  0  0  0
  6 15  2  0  0  0
  6 16  1  0  0  0
  7  9  1  0  0  0
  7 14  2  0  0  0
  8 10  1  0  0  0
  8 30  1  0  0  0
  9 12  2  0  0  0
  9 20  1  0  0  0
 10 31  1  0  0  0
 10 32  1  0  0  0
 11 18  2  0  0  0
 11 33  1  0  0  0
 12 19  1  0  0  0
 12 34  1  0  0  0
 13 18  1  0  0  0
 13 35  1  0  0  0
 14 21  1  0  0  0
 14 36  1  0  0  0
 15 23  1  0  0  0
 15 27  1  0  0  0
 16 22  1  0  0  0
 16 28  2  0  0  0
 18 25  1  0  0  0
 19 21  2  0  0  0
 19 24  1  0  0  0
 21 37  1  0  0  0
 25 29  1  0  0  0
 26 28  1  0  0  0
 26 27  2  0  0  0
 26 38  1  0  0  0
 27 39  1  0  0  0
 28 40  1  0  0  0
 29 41  1  0  0  0
 29 42  1  0  0  0
 29 43  1  0  0  0
M  END
> <s_m_entry_id>
60738

> <s_m_entry_name>
dock_pv.15

> <s_m_Source_Path>
/home/csk/Desktop/cluster/DUD-E-result/mk14

> <s_m_Source_File>
dock_pv.maegz

> <i_m_Source_File_Index>
15

> <chembl_id>
CHEMBL96091

> <chembl_pref_name>
None

> <i_lp_mmshare_version>
53161

> <i_f3d_flags>
0

> <r_lp_tautomer_probability>
1

> <s_lp_Force_Field>
OPLS_2005

> <r_lp_Energy>
50.958275

> <b_lp_Chiralities_Consistent>
1

> <s_lp_Variant>
CHEMBL260_lig110-1

> <s_i_glide_gridfile>
glide-grid_2qd9

> <i_i_glide_lignum>
126

> <i_i_glide_rotatable_bonds>
3

> <r_i_docking_score>
-10.2120177277481

> <r_i_glide_ligand_efficiency>
-0.352138542336142

> <r_i_glide_ligand_efficiency_sa>
-1.08188116737748

> <r_i_glide_ligand_efficiency_ln>
-2.33829310522794

> <r_i_glide_gscore>
-10.2120177277481

> <r_i_glide_lipo>
-3.80490289022363

> <r_i_glide_hbond>
-0.671718045788214

> <r_i_glide_metal>
0

> <r_i_glide_rewards>
-2.69835537515194

> <r_i_glide_evdw>
-34.1241989135742

> <r_i_glide_ecoul>
-9.85374736785889

> <r_i_glide_erotb>
0.147230634273214

> <r_i_glide_esite>
0

> <r_i_glide_emodel>
-57.8592521943782

> <r_i_glide_energy>
-43.9779462814331

> <r_i_glide_einternal>
6.92553758621216

> <i_i_glide_confnum>
6

> <i_i_glide_posenum>
108

> <r_i_glide_eff_state_penalty>
0

> <s_user_duplicate_titles>
CHEMBL260_lig110,154344

> <s_m_subgroup_title>
dock_pv

> <s_m_subgroupid>
dock_pv

> <b_m_subgroup_collapsed>
1

$$$$
CHEMBL260_lig1650
                    3D
 Schrodinger Suite 2021-1.
 36 38  0  0  1  0            999 V2000
   -5.3996    0.8423   16.2134 C   0  0  0  0  0  0
   -4.0851    1.2925   16.1687 C   0  0  0  0  0  0
   -3.3961    1.5332   17.3554 C   0  0  0  0  0  0
   -3.9983    1.2885   18.5992 C   0  0  0  0  0  0
   -5.3374    0.8869   18.6309 C   0  0  0  0  0  0
   -6.0360    0.6892   17.4422 C   0  0  0  0  0  0
   -3.2350    1.4620   19.8738 C   0  0  0  0  0  0
   -2.8338    0.2331   20.6665 C   0  0  0  0  0  0
   -2.9982    2.6047   20.2752 O   0  0  0  0  0  0
   -2.7044   -0.9849   19.9835 C   0  0  0  0  0  0
   -2.3770   -2.1478   20.6710 C   0  0  0  0  0  0
   -2.1485   -2.1101   21.9948 N   0  3  0  0  0  0
   -2.1968   -0.9547   22.7111 C   0  0  0  0  0  0
   -2.5336    0.2460   22.0512 C   0  0  0  0  0  0
   -1.8942   -3.2110   22.5645 O   0  5  0  0  0  0
   -2.5577    1.4306   22.7950 N   0  0  0  0  0  0
   -1.8559   -1.0237   24.1641 C   0  0  0  0  0  0
   -2.8730   -1.0526   25.1251 C   0  0  0  0  0  0
   -2.5598   -1.1011   26.4846 C   0  0  0  0  0  0
   -1.2283   -1.1118   26.8937 C   0  0  0  0  0  0
   -0.2087   -1.0977   25.9448 C   0  0  0  0  0  0
   -0.5183   -1.0629   24.5861 C   0  0  0  0  0  0
   -5.9670    0.6495   19.8014 F   0  0  0  0  0  0
   -6.0326    0.4873   15.0764 F   0  0  0  0  0  0
    0.4873   -1.0430   23.6805 F   0  0  0  0  0  0
   -0.9268   -1.1225   28.2099 F   0  0  0  0  0  0
   -3.5940    1.4313   15.2150 H   0  0  0  0  0  0
   -2.3886    1.8942   17.2795 H   0  0  0  0  0  0
   -7.0438    0.3129   17.4769 H   0  0  0  0  0  0
   -2.8381   -1.0475   18.9176 H   0  0  0  0  0  0
   -2.2864   -3.1135   20.1988 H   0  0  0  0  0  0
   -2.1629    1.4142   23.7248 H   0  0  0  0  0  0
   -2.6110    2.2951   22.2724 H   0  0  0  0  0  0
   -3.9093   -1.0355   24.8163 H   0  0  0  0  0  0
   -3.3450   -1.1223   27.2245 H   0  0  0  0  0  0
    0.8231   -1.1074   26.2630 H   0  0  0  0  0  0
  1  2  2  0  0  0
  1 24  1  0  0  0
  1  6  1  0  0  0
  2  3  1  0  0  0
  2 27  1  0  0  0
  3  4  2  0  0  0
  3 28  1  0  0  0
  4  7  1  0  0  0
  4  5  1  0  0  0
  5 23  1  0  0  0
  5  6  2  0  0  0
  6 29  1  0  0  0
  7  8  1  0  0  0
  7  9  2  0  0  0
  8 14  1  0  0  0
  8 10  2  0  0  0
 10 11  1  0  0  0
 10 30  1  0  0  0
 11 12  2  0  0  0
 11 31  1  0  0  0
 12 13  1  0  0  0
 12 15  1  0  0  0
 13 14  2  0  0  0
 13 17  1  0  0  0
 14 16  1  0  0  0
 16 32  1  0  0  0
 16 33  1  0  0  0
 17 18  2  0  0  0
 17 22  1  0  0  0
 18 19  1  0  0  0
 18 34  1  0  0  0
 19 20  2  0  0  0
 19 35  1  0  0  0
 20 21  1  0  0  0
 20 26  1  0  0  0
 21 22  2  0  0  0
 21 36  1  0  0  0
 22 25  1  0  0  0
M  CHG  2  12   1  15  -1
M  END
> <s_m_entry_id>
60739

> <s_m_entry_name>
dock_pv.16

> <s_m_Source_Path>
/home/csk/Desktop/cluster/DUD-E-result/mk14

> <s_m_Source_File>
dock_pv.maegz

> <i_m_Source_File_Index>
16

> <chembl_id>
CHEMBL549629

> <chembl_pref_name>
None

> <i_lp_mmshare_version>
53161

> <i_f3d_flags>
0

> <r_lp_tautomer_probability>
1

> <s_lp_Force_Field>
OPLS_2005

> <r_lp_Energy>
37.438222

> <b_lp_Chiralities_Consistent>
1

> <s_lp_Variant>
CHEMBL260_lig1650-1

> <s_i_glide_gridfile>
glide-grid_2qd9

> <i_i_glide_lignum>
1902

> <i_i_glide_rotatable_bonds>
3

> <r_i_docking_score>
-10.1602938084068

> <r_i_glide_ligand_efficiency>
-0.390780531092568

> <r_i_glide_ligand_efficiency_sa>
-1.15768578571459

> <r_i_glide_ligand_efficiency_ln>
-2.38611166226112

> <r_i_glide_gscore>
-10.1602938084068

> <r_i_glide_lipo>
-3.80421253647288

> <r_i_glide_hbond>
-0.16

> <r_i_glide_metal>
0

> <r_i_glide_rewards>
-2.70458681229439

> <r_i_glide_evdw>
-35.9524154663086

> <r_i_glide_ecoul>
-14.2183361053467

> <r_i_glide_erotb>
0.438876729477931

> <r_i_glide_esite>
0

> <r_i_glide_emodel>
-75.3481981993278

> <r_i_glide_energy>
-50.1707515716553

> <r_i_glide_einternal>
3.00441145896912

> <i_i_glide_confnum>
13

> <i_i_glide_posenum>
162

> <r_i_glide_eff_state_penalty>
0

> <s_user_duplicate_titles>
CHEMBL260_lig1650,562095

> <s_m_subgroup_title>
dock_pv

> <s_m_subgroupid>
dock_pv

> <b_m_subgroup_collapsed>
1

$$$$
CHEMBL260_lig1636
                    3D
 Schrodinger Suite 2021-1.
 40 42  0  0  1  0            999 V2000
   -6.0350    0.7643   16.6726 C   0  0  0  0  0  0
   -6.3706    0.4870   17.9952 C   0  0  0  0  0  0
   -5.4434    0.7157   19.0056 C   0  0  0  0  0  0
   -4.1795    1.2396   18.7038 C   0  0  0  0  0  0
   -3.8471    1.5454   17.3632 C   0  0  0  0  0  0
   -4.7906    1.2869   16.3581 C   0  0  0  0  0  0
   -3.2350    1.4053   19.8513 C   0  0  0  0  0  0
   -2.8396    0.1614   20.6132 C   0  0  0  0  0  0
   -2.8536    2.5307   20.1896 O   0  0  0  0  0  0
   -2.6370   -1.0189   19.8823 C   0  0  0  0  0  0
   -2.3023   -2.2006   20.5347 C   0  0  0  0  0  0
   -2.1645   -2.2175   21.8723 N   0  3  0  0  0  0
   -2.3037   -1.0995   22.6370 C   0  0  0  0  0  0
   -2.6336    0.1212   22.0120 C   0  0  0  0  0  0
   -1.9167   -3.3362   22.4075 O   0  5  0  0  0  0
   -2.7707    1.2707   22.7977 N   0  0  0  0  0  0
   -2.1032   -1.2382   24.1110 C   0  0  0  0  0  0
   -0.8208   -1.2576   24.6861 C   0  0  0  0  0  0
   -0.6752   -1.3860   26.0672 C   0  0  0  0  0  0
   -1.7969   -1.5129   26.8846 C   0  0  0  0  0  0
   -3.0712   -1.5086   26.3223 C   0  0  0  0  0  0
   -3.2215   -1.3639   24.9441 C   0  0  0  0  0  0
    0.6050   -1.1115   23.7166 Cl  0  0  0  0  0  0
   -2.6324    2.1329   17.0759 O   0  0  0  0  0  0
   -2.1965    2.2623   15.7265 C   0  0  0  0  0  0
   -6.7431    0.5751   15.8815 H   0  0  0  0  0  0
   -7.3435    0.0871   18.2354 H   0  0  0  0  0  0
   -5.7228    0.4848   20.0239 H   0  0  0  0  0  0
   -4.5878    1.5015   15.3197 H   0  0  0  0  0  0
   -2.7318   -1.0300   18.8064 H   0  0  0  0  0  0
   -2.1515   -3.1418   20.0279 H   0  0  0  0  0  0
   -2.4376    1.2340   23.7510 H   0  0  0  0  0  0
   -2.7752    2.1507   22.2998 H   0  0  0  0  0  0
    0.3135   -1.3972   26.5037 H   0  0  0  0  0  0
   -1.6734   -1.6264   27.9523 H   0  0  0  0  0  0
   -3.9404   -1.6151   26.9544 H   0  0  0  0  0  0
   -4.2135   -1.3602   24.5163 H   0  0  0  0  0  0
   -1.2056    2.7137   15.7080 H   0  0  0  0  0  0
   -2.1296    1.2878   15.2427 H   0  0  0  0  0  0
   -2.8578    2.9001   15.1430 H   0  0  0  0  0  0
  1  6  1  0  0  0
  1  2  2  0  0  0
  1 26  1  0  0  0
  2  3  1  0  0  0
  2 27  1  0  0  0
  3  4  2  0  0  0
  3 28  1  0  0  0
  4  7  1  0  0  0
  4  5  1  0  0  0
  5  6  2  0  0  0
  5 24  1  0  0  0
  6 29  1  0  0  0
  7  8  1  0  0  0
  7  9  2  0  0  0
  8 14  1  0  0  0
  8 10  2  0  0  0
 10 11  1  0  0  0
 10 30  1  0  0  0
 11 12  2  0  0  0
 11 31  1  0  0  0
 12 13  1  0  0  0
 12 15  1  0  0  0
 13 14  2  0  0  0
 13 17  1  0  0  0
 14 16  1  0  0  0
 16 32  1  0  0  0
 16 33  1  0  0  0
 17 18  2  0  0  0
 17 22  1  0  0  0
 18 19  1  0  0  0
 18 23  1  0  0  0
 19 20  2  0  0  0
 19 34  1  0  0  0
 20 21  1  0  0  0
 20 35  1  0  0  0
 21 22  2  0  0  0
 21 36  1  0  0  0
 22 37  1  0  0  0
 24 25  1  0  0  0
 25 38  1  0  0  0
 25 39  1  0  0  0
 25 40  1  0  0  0
M  CHG  2  12   1  15  -1
M  END
> <s_m_entry_id>
60740

> <s_m_entry_name>
dock_pv.17

> <s_m_Source_Path>
/home/csk/Desktop/cluster/DUD-E-result/mk14

> <s_m_Source_File>
dock_pv.maegz

> <i_m_Source_File_Index>
17

> <chembl_id>
CHEMBL563249

> <chembl_pref_name>
None

> <i_lp_mmshare_version>
53161

> <i_f3d_flags>
0

> <r_lp_tautomer_probability>
1

> <s_lp_Force_Field>
OPLS_2005

> <r_lp_Energy>
43.607388

> <b_lp_Chiralities_Consistent>
1

> <s_lp_Variant>
CHEMBL260_lig1636-1

> <s_i_glide_gridfile>
glide-grid_2qd9

> <i_i_glide_lignum>
1888

> <i_i_glide_rotatable_bonds>
4

> <r_i_docking_score>
-10.126049204414

> <r_i_glide_ligand_efficiency>
-0.405041968176558

> <r_i_glide_ligand_efficiency_sa>
-1.18434989839815

> <r_i_glide_ligand_efficiency_ln>
-2.40017711465359

> <r_i_glide_gscore>
-10.126049204414

> <r_i_glide_lipo>
-4.35267949148316

> <r_i_glide_hbond>
-0.16

> <r_i_glide_metal>
0

> <r_i_glide_rewards>
-1.7342968768679

> <r_i_glide_evdw>
-36.1054382324219

> <r_i_glide_ecoul>
-16.8621730804443

> <r_i_glide_erotb>
0.455525037624844

> <r_i_glide_esite>
0

> <r_i_glide_emodel>
-72.9667867255146

> <r_i_glide_energy>
-52.9676113128662

> <r_i_glide_einternal>
13.4356594085693

> <i_i_glide_confnum>
25

> <i_i_glide_posenum>
307

> <r_i_glide_eff_state_penalty>
0

> <s_user_duplicate_titles>
CHEMBL260_lig1636,567363

> <s_m_subgroup_title>
dock_pv

> <s_m_subgroupid>
dock_pv

> <b_m_subgroup_collapsed>
1

$$$$
CHEMBL260_lig881
                    3D
 Schrodinger Suite 2021-1.
 52 55  0  0  1  0            999 V2000
   -2.6603   -1.2890   25.8965 C   0  0  0  0  0  0
   -2.8305   -1.2996   24.5117 C   0  0  0  0  0  0
   -1.7210   -1.1512   23.6592 C   0  0  0  0  0  0
   -0.4512   -0.9295   24.2252 C   0  0  0  0  0  0
   -0.2941   -0.9222   25.6117 C   0  0  0  0  0  0
   -1.3926   -1.1119   26.4465 C   0  0  0  0  0  0
    0.9397   -0.6218   23.2512 Cl  0  0  0  0  0  0
   -4.4257   -1.4863   23.8773 Cl  0  0  0  0  0  0
   -1.8970   -1.2159   22.2444 N   0  0  0  0  0  0
   -1.9234   -2.4717   21.7041 C   0  0  0  0  0  0
   -2.3722   -2.5458   20.4310 N   0  0  0  0  0  0
   -2.9413   -1.4456   19.6335 C   0  0  0  0  0  0
   -2.2359   -0.0292   21.5431 C   0  0  0  0  0  0
   -2.7913   -0.0882   20.2590 C   0  0  0  0  0  0
   -3.1802    1.1250   19.6462 C   0  0  0  0  0  0
   -2.9920    2.3144   20.2804 N   0  0  0  0  0  0
   -2.4350    2.2535   21.5247 C   0  0  0  0  0  0
   -2.0350    1.1441   22.1751 N   0  0  0  0  0  0
   -3.8381    1.2008   18.2957 C   0  0  0  0  0  0
   -3.1349    1.5434   17.1180 C   0  0  0  0  0  0
   -3.7531    1.5605   15.8721 C   0  0  0  0  0  0
   -5.0929    1.2246   15.7569 C   0  0  0  0  0  0
   -5.8051    0.8883   16.8985 C   0  0  0  0  0  0
   -5.1999    0.8872   18.1525 C   0  0  0  0  0  0
   -6.1909    0.4870   19.5036 Cl  0  0  0  0  0  0
   -1.6353   -3.5130   22.2902 O   0  0  0  0  0  0
   -2.3830    3.4354   22.2158 O   0  0  0  0  0  0
   -1.5820    3.5867   23.3962 C   0  0  0  0  0  0
   -0.1402    3.9579   22.9896 C   0  0  0  0  0  0
    0.5918    4.6406   24.0608 N   0  0  0  0  0  0
    1.8102    5.2344   23.5136 C   0  0  0  0  0  0
    0.9556    3.7118   25.1318 C   0  0  0  0  0  0
   -3.5139   -1.4161   26.5466 H   0  0  0  0  0  0
    0.6847   -0.7641   26.0431 H   0  0  0  0  0  0
   -1.2613   -1.1078   27.5188 H   0  0  0  0  0  0
   -2.4980   -3.4851   20.0719 H   0  0  0  0  0  0
   -4.0071   -1.5792   19.4773 H   0  0  0  0  0  0
   -2.4350   -1.4445   18.6751 H   0  0  0  0  0  0
   -2.0882    1.7938   17.0797 H   0  0  0  0  0  0
   -3.1828    1.8215   14.9932 H   0  0  0  0  0  0
   -5.5752    1.2186   14.7908 H   0  0  0  0  0  0
   -6.8348    0.6054   16.8119 H   0  0  0  0  0  0
   -2.0215    4.4056   23.9673 H   0  0  0  0  0  0
   -1.6110    2.7202   24.0600 H   0  0  0  0  0  0
    0.4030    3.0648   22.6779 H   0  0  0  0  0  0
   -0.1850    4.6063   22.1115 H   0  0  0  0  0  0
    1.5667    5.9887   22.7632 H   0  0  0  0  0  0
    2.3918    5.7293   24.2932 H   0  0  0  0  0  0
    2.4458    4.4872   23.0377 H   0  0  0  0  0  0
    0.0694    3.2878   25.6045 H   0  0  0  0  0  0
    1.5682    2.8873   24.7617 H   0  0  0  0  0  0
    1.5196    4.2229   25.9134 H   0  0  0  0  0  0
  1  6  1  0  0  0
  1  2  2  0  0  0
  1 33  1  0  0  0
  2  8  1  0  0  0
  2  3  1  0  0  0
  3  4  2  0  0  0
  3  9  1  0  0  0
  4  5  1  0  0  0
  4  7  1  0  0  0
  5  6  2  0  0  0
  5 34  1  0  0  0
  6 35  1  0  0  0
  9 10  1  0  0  0
  9 13  1  0  0  0
 10 11  1  0  0  0
 10 26  2  0  0  0
 11 12  1  0  0  0
 11 36  1  0  0  0
 12 14  1  0  0  0
 12 37  1  0  0  0
 12 38  1  0  0  0
 13 18  1  0  0  0
 13 14  2  0  0  0
 14 15  1  0  0  0
 15 16  2  0  0  0
 15 19  1  0  0  0
 16 17  1  0  0  0
 17 18  2  0  0  0
 17 27  1  0  0  0
 19 20  2  0  0  0
 19 24  1  0  0  0
 20 21  1  0  0  0
 20 39  1  0  0  0
 21 22  2  0  0  0
 21 40  1  0  0  0
 22 23  1  0  0  0
 22 41  1  0  0  0
 23 24  2  0  0  0
 23 42  1  0  0  0
 24 25  1  0  0  0
 27 28  1  0  0  0
 28 29  1  0  0  0
 28 43  1  0  0  0
 28 44  1  0  0  0
 29 30  1  0  0  0
 29 45  1  0  0  0
 29 46  1  0  0  0
 30 31  1  0  0  0
 30 32  1  0  0  0
 31 47  1  0  0  0
 31 48  1  0  0  0
 31 49  1  0  0  0
 32 50  1  0  0  0
 32 51  1  0  0  0
 32 52  1  0  0  0
M  END
> <s_m_entry_id>
60741

> <s_m_entry_name>
dock_pv.18

> <s_m_Source_Path>
/home/csk/Desktop/cluster/DUD-E-result/mk14

> <s_m_Source_File>
dock_pv.maegz

> <i_m_Source_File_Index>
18

> <chembl_id>
CHEMBL211426

> <chembl_pref_name>
None

> <i_lp_mmshare_version>
53161

> <i_f3d_flags>
0

> <r_lp_tautomer_probability>
1

> <s_lp_Force_Field>
OPLS_2005

> <r_lp_Energy>
43.099629

> <b_lp_Chiralities_Consistent>
1

> <s_lp_Variant>
CHEMBL260_lig881-1

> <s_i_glide_gridfile>
glide-grid_2qd9

> <i_i_glide_lignum>
981

> <i_i_glide_rotatable_bonds>
6

> <r_i_docking_score>
-10.1101657960972

> <r_i_glide_ligand_efficiency>
-0.315942681128036

> <r_i_glide_ligand_efficiency_sa>
-1.00305548760982

> <r_i_glide_ligand_efficiency_ln>
-2.26394171445713

> <r_i_glide_gscore>
-10.1101657960972

> <r_i_glide_lipo>
-4.21788202805444

> <r_i_glide_hbond>
-0.608

> <r_i_glide_metal>
0

> <r_i_glide_rewards>
-1.71534381545433

> <r_i_glide_evdw>
-42.1831321716309

> <r_i_glide_ecoul>
-11.6888799667358

> <r_i_glide_erotb>
0.293548651003537

> <r_i_glide_esite>
0

> <r_i_glide_emodel>
-70.8371106971509

> <r_i_glide_energy>
-53.8720121383667

> <r_i_glide_einternal>
5.8093523979187

> <i_i_glide_confnum>
199

> <i_i_glide_posenum>
143

> <r_i_glide_eff_state_penalty>
0

> <s_user_duplicate_titles>
CHEMBL260_lig881,355254

> <s_m_subgroup_title>
dock_pv

> <s_m_subgroupid>
dock_pv

> <b_m_subgroup_collapsed>
1

$$$$
CHEMBL260_lig1639
                    3D
 Schrodinger Suite 2021-1.
 36 38  0  0  1  0            999 V2000
   -5.4027    0.8465   16.2142 C   0  0  0  0  0  0
   -4.0902    1.3068   16.1706 C   0  0  0  0  0  0
   -3.4018    1.5463   17.3595 C   0  0  0  0  0  0
   -3.9987    1.2930   18.6030 C   0  0  0  0  0  0
   -5.3375    0.8870   18.6316 C   0  0  0  0  0  0
   -6.0350    0.6848   17.4438 C   0  0  0  0  0  0
   -3.2352    1.4695   19.8766 C   0  0  0  0  0  0
   -2.8742    0.2472   20.6939 C   0  0  0  0  0  0
   -2.9659    2.6112   20.2581 O   0  0  0  0  0  0
   -2.7329   -0.9816   20.0301 C   0  0  0  0  0  0
   -2.4375   -2.1382   20.7411 C   0  0  0  0  0  0
   -2.2773   -2.0887   22.0767 N   0  3  0  0  0  0
   -2.3575   -0.9262   22.7817 C   0  0  0  0  0  0
   -2.6430    0.2711   22.0940 C   0  0  0  0  0  0
   -2.0350   -3.1823   22.6644 O   0  5  0  0  0  0
   -2.7110    1.4605   22.8263 N   0  0  0  0  0  0
   -2.1576   -0.9990   24.2593 C   0  0  0  0  0  0
   -3.1978   -1.4276   25.0921 C   0  0  0  0  0  0
   -3.0169   -1.5125   26.4723 C   0  0  0  0  0  0
   -1.7905   -1.1627   27.0346 C   0  0  0  0  0  0
   -0.7465   -0.7340   26.2150 C   0  0  0  0  0  0
   -0.9302   -0.6512   24.8340 C   0  0  0  0  0  0
   -5.9648    0.6425   19.8038 F   0  0  0  0  0  0
   -6.0347    0.4876   15.0770 F   0  0  0  0  0  0
    0.7706   -0.3114   26.9134 Cl  0  0  0  0  0  0
   -3.6026    1.4566   15.2190 H   0  0  0  0  0  0
   -2.3972    1.9151   17.2878 H   0  0  0  0  0  0
   -7.0400    0.2994   17.4831 H   0  0  0  0  0  0
   -2.8382   -1.0560   18.9600 H   0  0  0  0  0  0
   -2.3359   -3.1128   20.2830 H   0  0  0  0  0  0
   -2.4041    1.4490   23.7885 H   0  0  0  0  0  0
   -2.7342    2.3235   22.2990 H   0  0  0  0  0  0
   -4.1523   -1.6946   24.6635 H   0  0  0  0  0  0
   -3.8246   -1.8501   27.1031 H   0  0  0  0  0  0
   -1.6462   -1.2325   28.1027 H   0  0  0  0  0  0
   -0.1118   -0.3264   24.2076 H   0  0  0  0  0  0
  1  6  1  0  0  0
  1  2  2  0  0  0
  1 24  1  0  0  0
  2  3  1  0  0  0
  2 26  1  0  0  0
  3  4  2  0  0  0
  3 27  1  0  0  0
  4  7  1  0  0  0
  4  5  1  0  0  0
  5 23  1  0  0  0
  5  6  2  0  0  0
  6 28  1  0  0  0
  7  8  1  0  0  0
  7  9  2  0  0  0
  8 14  1  0  0  0
  8 10  2  0  0  0
 10 11  1  0  0  0
 10 29  1  0  0  0
 11 12  2  0  0  0
 11 30  1  0  0  0
 12 13  1  0  0  0
 12 15  1  0  0  0
 13 14  2  0  0  0
 13 17  1  0  0  0
 14 16  1  0  0  0
 16 31  1  0  0  0
 16 32  1  0  0  0
 17 18  2  0  0  0
 17 22  1  0  0  0
 18 19  1  0  0  0
 18 33  1  0  0  0
 19 20  2  0  0  0
 19 34  1  0  0  0
 20 21  1  0  0  0
 20 35  1  0  0  0
 21 22  2  0  0  0
 21 25  1  0  0  0
 22 36  1  0  0  0
M  CHG  2  12   1  15  -1
M  END
> <s_m_entry_id>
60742

> <s_m_entry_name>
dock_pv.19

> <s_m_Source_Path>
/home/csk/Desktop/cluster/DUD-E-result/mk14

> <s_m_Source_File>
dock_pv.maegz

> <i_m_Source_File_Index>
19

> <chembl_id>
CHEMBL539988

> <chembl_pref_name>
None

> <i_lp_mmshare_version>
53161

> <i_f3d_flags>
0

> <r_lp_tautomer_probability>
1

> <s_lp_Force_Field>
OPLS_2005

> <r_lp_Energy>
38.209597

> <b_lp_Chiralities_Consistent>
1

> <s_lp_Variant>
CHEMBL260_lig1639-1

> <s_i_glide_gridfile>
glide-grid_2qd9

> <i_i_glide_lignum>
1891

> <i_i_glide_rotatable_bonds>
3

> <r_i_docking_score>
-10.1001510191068

> <r_i_glide_ligand_efficiency>
-0.404006040764274

> <r_i_glide_ligand_efficiency_sa>
-1.18132082827238

> <r_i_glide_ligand_efficiency_ln>
-2.39403846862982

> <r_i_glide_gscore>
-10.1001510191068

> <r_i_glide_lipo>
-3.8672513922486

> <r_i_glide_hbond>
-0.16

> <r_i_glide_metal>
0

> <r_i_glide_rewards>
-2.49855948459125

> <r_i_glide_evdw>
-35.9554061889648

> <r_i_glide_ecoul>
-14.7918996810913

> <r_i_glide_erotb>
0.442215119344938

> <r_i_glide_esite>
0

> <r_i_glide_emodel>
-76.2211139937993

> <r_i_glide_energy>
-50.7473058700562

> <r_i_glide_einternal>
3.19298601150513

> <i_i_glide_confnum>
16

> <i_i_glide_posenum>
9

> <r_i_glide_eff_state_penalty>
0

> <s_user_duplicate_titles>
CHEMBL260_lig1639,567378

> <s_m_subgroup_title>
dock_pv

> <s_m_subgroupid>
dock_pv

> <b_m_subgroup_collapsed>
1

$$$$
CHEMBL260_lig1233
                    3D
 Schrodinger Suite 2021-1.
 58 61  0  0  1  0            999 V2000
    1.1155    4.5438   22.9173 N   0  0  0  0  0  0
   -1.9346   -2.4570   22.3818 C   0  0  0  0  0  0
   -2.5474   -2.5177   21.0746 C   0  0  0  0  0  0
   -2.9823   -1.4507   20.3713 C   0  0  0  0  0  0
   -1.8156   -1.1805   22.8698 N   0  0  0  0  0  0
   -2.1832    0.0061   22.1331 C   0  0  0  0  0  0
   -2.7940   -0.0852   20.8557 C   0  0  0  0  0  0
   -3.1272    1.0629   20.0887 C   0  0  0  0  0  0
   -2.7853    2.3033   20.6571 C   0  0  0  0  0  0
   -2.1692    2.4191   21.9153 C   0  0  0  0  0  0
   -1.9032    1.2675   22.6445 C   0  0  0  0  0  0
   -1.6430   -3.4986   22.9792 O   0  0  0  0  0  0
   -1.4150   -1.0606   24.2341 C   0  0  0  0  0  0
   -0.0779   -0.7881   24.5879 C   0  0  0  0  0  0
    0.2800   -0.6479   25.9282 C   0  0  0  0  0  0
   -0.6740   -0.7860   26.9317 C   0  0  0  0  0  0
   -1.9973   -1.0563   26.5964 C   0  0  0  0  0  0
   -2.3722   -1.1881   25.2593 C   0  0  0  0  0  0
   -4.0297   -1.5125   24.9038 Cl  0  0  0  0  0  0
    1.1609   -0.5794   23.4076 Cl  0  0  0  0  0  0
   -3.8022    1.0340   18.7181 C   0  0  0  0  0  0
   -3.0955    1.2195   17.5114 C   0  0  0  0  0  0
   -3.6958    1.2862   16.2568 C   0  0  0  0  0  0
   -5.0635    1.1239   16.1506 C   0  0  0  0  0  0
   -5.7914    0.8871   17.3042 C   0  0  0  0  0  0
   -5.1857    0.8533   18.5604 C   0  0  0  0  0  0
   -6.2105    0.4869   19.8754 Cl  0  0  0  0  0  0
   -1.8245    3.6748   22.3785 O   0  0  0  0  0  0
   -1.2152    3.8616   23.6614 C   0  0  0  0  0  0
    0.3078    3.5884   23.6757 C   0  0  0  0  0  0
    1.3933    5.7827   23.3563 C   0  0  0  0  0  0
    3.5656    6.8878   23.4179 N   0  0  0  0  0  0
    2.4166    6.6035   22.5332 C   0  0  2  0  0  0
    1.8280    7.9191   21.9753 C   0  0  0  0  0  0
    0.7652    7.6876   21.0760 O   0  0  0  0  0  0
    0.9018    6.2678   24.3789 O   0  0  0  0  0  0
    1.5400    4.2210   22.0585 H   0  0  0  0  0  0
   -2.7091   -3.5067   20.6961 H   0  0  0  0  0  0
   -3.4958   -1.5994   19.4423 H   0  0  0  0  0  0
   -2.9911    3.2062   20.1029 H   0  0  0  0  0  0
   -1.4287    1.3473   23.6061 H   0  0  0  0  0  0
    1.3058   -0.4378   26.1949 H   0  0  0  0  0  0
   -0.3849   -0.6872   27.9686 H   0  0  0  0  0  0
   -2.7344   -1.1649   27.3778 H   0  0  0  0  0  0
   -2.0363    1.2853   17.4760 H   0  0  0  0  0  0
   -3.0968    1.4358   15.3699 H   0  0  0  0  0  0
   -5.5498    1.1465   15.1861 H   0  0  0  0  0  0
   -6.8362    0.6977   17.2201 H   0  0  0  0  0  0
   -1.3910    4.8937   23.9627 H   0  0  0  0  0  0
   -1.7242    3.2882   24.4371 H   0  0  0  0  0  0
    0.6736    3.4403   24.6943 H   0  0  0  0  0  0
    0.4907    2.6296   23.1900 H   0  0  0  0  0  0
    3.2298    7.2138   24.3163 H   0  0  0  0  0  0
    4.1168    6.0587   23.6169 H   0  0  0  0  0  0
    2.7616    6.0028   21.6879 H   0  0  0  0  0  0
    1.4720    8.5632   22.7806 H   0  0  0  0  0  0
    2.6000    8.4785   21.4458 H   0  0  0  0  0  0
    1.0720    7.0562   20.4017 H   0  0  0  0  0  0
  1 30  1  0  0  0
  1 31  1  0  0  0
  1 37  1  0  0  0
  2 12  2  0  0  0
  2  3  1  0  0  0
  2  5  1  0  0  0
  3  4  2  0  0  0
  3 38  1  0  0  0
  4  7  1  0  0  0
  4 39  1  0  0  0
  5  6  1  0  0  0
  5 13  1  0  0  0
  6 11  1  0  0  0
  6  7  2  0  0  0
  7  8  1  0  0  0
  8 21  1  0  0  0
  8  9  2  0  0  0
  9 10  1  0  0  0
  9 40  1  0  0  0
 10 11  2  0  0  0
 10 28  1  0  0  0
 11 41  1  0  0  0
 13 18  1  0  0  0
 13 14  2  0  0  0
 14 20  1  0  0  0
 14 15  1  0  0  0
 15 16  2  0  0  0
 15 42  1  0  0  0
 16 17  1  0  0  0
 16 43  1  0  0  0
 17 18  2  0  0  0
 17 44  1  0  0  0
 18 19  1  0  0  0
 21 22  2  0  0  0
 21 26  1  0  0  0
 22 23  1  0  0  0
 22 45  1  0  0  0
 23 24  2  0  0  0
 23 46  1  0  0  0
 24 25  1  0  0  0
 24 47  1  0  0  0
 25 26  2  0  0  0
 25 48  1  0  0  0
 26 27  1  0  0  0
 28 29  1  0  0  0
 29 30  1  0  0  0
 29 49  1  0  0  0
 29 50  1  0  0  0
 30 51  1  0  0  0
 30 52  1  0  0  0
 31 36  2  0  0  0
 31 33  1  0  0  0
 32 33  1  0  0  0
 32 53  1  0  0  0
 32 54  1  0  0  0
 33 34  1  0  0  0
 33 55  1  0  0  0
 34 35  1  0  0  0
 34 56  1  0  0  0
 34 57  1  0  0  0
 35 58  1  0  0  0
M  END
> <s_m_entry_id>
60743

> <s_m_entry_name>
dock_pv.20

> <s_m_Source_Path>
/home/csk/Desktop/cluster/DUD-E-result/mk14

> <s_m_Source_File>
dock_pv.maegz

> <i_m_Source_File_Index>
20

> <chembl_id>
CHEMBL257697

> <chembl_pref_name>
None

> <i_lp_mmshare_version>
53161

> <i_f3d_flags>
0

> <r_lp_tautomer_probability>
1

> <s_lp_Force_Field>
OPLS_2005

> <r_lp_Energy>
50.944648

> <b_lp_Chiralities_Consistent>
1

> <s_lp_Variant>
CHEMBL260_lig1233-1

> <s_i_glide_gridfile>
glide-grid_2qd9

> <i_i_glide_lignum>
1405

> <i_i_glide_rotatable_bonds>
10

> <r_i_docking_score>
-10.0663095355213

> <r_i_glide_ligand_efficiency>
-0.279619709320037

> <r_i_glide_ligand_efficiency_sa>
-0.923283936428958

> <r_i_glide_ligand_efficiency_ln>
-2.19619678039599

> <r_i_glide_gscore>
-10.0663095355213

> <r_i_glide_lipo>
-4.63754859844223

> <r_i_glide_hbond>
-0.693078758210335

> <r_i_glide_metal>
0

> <r_i_glide_rewards>
-0.901389731819072

> <r_i_glide_evdw>
-38.0060195922852

> <r_i_glide_ecoul>
-16.6891689300537

> <r_i_glide_erotb>
0.623401785001863

> <r_i_glide_esite>
-0.0540179129292633

> <r_i_glide_emodel>
-70.5247240785507

> <r_i_glide_energy>
-54.6951885223389

> <r_i_glide_einternal>
5.47971105575562

> <i_i_glide_confnum>
44

> <i_i_glide_posenum>
259

> <r_i_glide_eff_state_penalty>
0

> <s_user_duplicate_titles>
CHEMBL260_lig1233,434087

> <s_m_subgroup_title>
dock_pv

> <s_m_subgroupid>
dock_pv

> <b_m_subgroup_collapsed>
1

$$$$
CHEMBL260_lig1631
                    3D
 Schrodinger Suite 2021-1.
 36 38  0  0  1  0            999 V2000
   -5.7756    0.8869   16.7138 C   0  0  0  0  0  0
   -6.2530    0.5658   17.9829 C   0  0  0  0  0  0
   -5.4196    0.6819   19.0901 C   0  0  0  0  0  0
   -4.1011    1.1077   18.9192 C   0  0  0  0  0  0
   -3.6198    1.4038   17.6365 C   0  0  0  0  0  0
   -4.4566    1.2886   16.5325 C   0  0  0  0  0  0
   -3.2350    1.2825   20.1186 C   0  0  0  0  0  0
   -2.8820    0.0779   20.9612 C   0  0  0  0  0  0
   -2.8345    2.4156   20.3990 O   0  0  0  0  0  0
   -2.8342   -1.1793   20.3382 C   0  0  0  0  0  0
   -2.5118   -2.3135   21.0755 C   0  0  0  0  0  0
   -2.2628   -2.2195   22.3916 N   0  3  0  0  0  0
   -2.2425   -1.0293   23.0496 C   0  0  0  0  0  0
   -2.5372    0.1498   22.3346 C   0  0  0  0  0  0
   -2.0348   -3.3022   23.0044 O   0  5  0  0  0  0
   -2.5105    1.3732   23.0146 N   0  0  0  0  0  0
   -1.8808   -1.0416   24.4994 C   0  0  0  0  0  0
   -2.7997   -1.4862   25.4554 C   0  0  0  0  0  0
   -2.4518   -1.5128   26.8038 C   0  0  0  0  0  0
   -1.1778   -1.1109   27.1944 C   0  0  0  0  0  0
   -0.2524   -0.6669   26.2522 C   0  0  0  0  0  0
   -0.6084   -0.6279   24.9073 C   0  0  0  0  0  0
   -6.4332    0.7945   15.8601 H   0  0  0  0  0  0
   -7.2663    0.2172   18.1094 H   0  0  0  0  0  0
   -5.8123    0.4656   20.0729 H   0  0  0  0  0  0
   -2.6050    1.7390   17.4759 H   0  0  0  0  0  0
   -4.0930    1.5193   15.5411 H   0  0  0  0  0  0
   -3.0310   -1.2946   19.2816 H   0  0  0  0  0  0
   -2.4432   -3.3073   20.6589 H   0  0  0  0  0  0
   -2.1167    1.3895   23.9454 H   0  0  0  0  0  0
   -2.5274    2.2102   22.4447 H   0  0  0  0  0  0
   -3.7814   -1.8161   25.1521 H   0  0  0  0  0  0
   -3.1603   -1.8587   27.5427 H   0  0  0  0  0  0
   -0.9009   -1.1458   28.2388 H   0  0  0  0  0  0
    0.7346   -0.3569   26.5629 H   0  0  0  0  0  0
    0.1167   -0.2930   24.1759 H   0  0  0  0  0  0
  1  6  1  0  0  0
  1  2  2  0  0  0
  1 23  1  0  0  0
  2  3  1  0  0  0
  2 24  1  0  0  0
  3  4  2  0  0  0
  3 25  1  0  0  0
  4  7  1  0  0  0
  4  5  1  0  0  0
  5  6  2  0  0  0
  5 26  1  0  0  0
  6 27  1  0  0  0
  7  8  1  0  0  0
  7  9  2  0  0  0
  8 14  1  0  0  0
  8 10  2  0  0  0
 10 11  1  0  0  0
 10 28  1  0  0  0
 11 12  2  0  0  0
 11 29  1  0  0  0
 12 13  1  0  0  0
 12 15  1  0  0  0
 13 14  2  0  0  0
 13 17  1  0  0  0
 14 16  1  0  0  0
 16 30  1  0  0  0
 16 31  1  0  0  0
 17 18  2  0  0  0
 17 22  1  0  0  0
 18 19  1  0  0  0
 18 32  1  0  0  0
 19 20  2  0  0  0
 19 33  1  0  0  0
 20 21  1  0  0  0
 20 34  1  0  0  0
 21 22  2  0  0  0
 21 35  1  0  0  0
 22 36  1  0  0  0
M  CHG  2  12   1  15  -1
M  END
> <s_m_entry_id>
60744

> <s_m_entry_name>
dock_pv.21

> <s_m_Source_Path>
/home/csk/Desktop/cluster/DUD-E-result/mk14

> <s_m_Source_File>
dock_pv.maegz

> <i_m_Source_File_Index>
21

> <chembl_id>
CHEMBL561314

> <chembl_pref_name>
None

> <i_lp_mmshare_version>
53161

> <i_f3d_flags>
0

> <r_lp_tautomer_probability>
1

> <s_lp_Force_Field>
OPLS_2005

> <r_lp_Energy>
39.124453

> <b_lp_Chiralities_Consistent>
1

> <s_lp_Variant>
CHEMBL260_lig1631-1

> <s_i_glide_gridfile>
glide-grid_2qd9

> <i_i_glide_lignum>
1883

> <i_i_glide_rotatable_bonds>
3

> <r_i_docking_score>
-10.0469770028774

> <r_i_glide_ligand_efficiency>
-0.456680772858066

> <r_i_glide_ligand_efficiency_sa>
-1.27963748578393

> <r_i_glide_ligand_efficiency_ln>
-2.4558476518937

> <r_i_glide_gscore>
-10.0469770028774

> <r_i_glide_lipo>
-3.71450732456711

> <r_i_glide_hbond>
-0.223165469210549

> <r_i_glide_metal>
0

> <r_i_glide_rewards>
-2.27480883997738

> <r_i_glide_evdw>
-34.7765464782715

> <r_i_glide_ecoul>
-18.2953510284424

> <r_i_glide_erotb>
0.648634609057524

> <r_i_glide_esite>
0

> <r_i_glide_emodel>
-77.7717121227144

> <r_i_glide_energy>
-53.0718975067139

> <r_i_glide_einternal>
6.6650595664978

> <i_i_glide_confnum>
2

> <i_i_glide_posenum>
5

> <r_i_glide_eff_state_penalty>
0

> <s_user_duplicate_titles>
CHEMBL260_lig1631,556723

> <s_m_subgroup_title>
dock_pv

> <s_m_subgroupid>
dock_pv

> <b_m_subgroup_collapsed>
1

$$$$
CHEMBL260_lig90
                    3D
 Schrodinger Suite 2021-1.
 43 46  0  0  1  0            999 V2000
   -1.8442   -1.2181   22.6055 N   0  0  0  0  0  0
   -2.2104   -0.0166   21.9435 C   0  0  0  0  0  0
   -2.7701   -0.0626   20.6544 C   0  0  0  0  0  0
   -1.9236   -2.4722   22.0687 C   0  0  0  0  0  0
   -3.1243    1.1305   19.9895 C   0  0  0  0  0  0
   -1.4201   -1.1402   23.9660 C   0  0  0  0  0  0
   -3.8091    1.1156   18.6477 C   0  0  0  0  0  0
   -2.4005   -2.5415   20.8052 N   0  0  0  0  0  0
   -5.1866    0.8870   18.5195 C   0  0  0  0  0  0
   -2.9675   -1.4321   20.0229 C   0  0  0  0  0  0
   -2.0169    1.2189   22.5607 C   0  0  0  0  0  0
   -5.7964    0.8870   17.2668 C   0  0  0  0  0  0
   -2.8350    2.3520   20.6189 C   0  0  0  0  0  0
   -3.0964    1.2870   17.4519 C   0  0  0  0  0  0
   -2.3538   -1.3007   25.0067 C   0  0  0  0  0  0
   -0.0846   -0.8261   24.2912 C   0  0  0  0  0  0
   -1.6350   -3.5130   22.6519 O   0  0  0  0  0  0
   -2.3085    2.4074   21.9138 C   0  0  0  0  0  0
   -5.0537    1.0359   16.1073 C   0  0  0  0  0  0
   -6.1711    0.5211   19.8760 Cl  0  0  0  0  0  0
   -3.6940    1.2621   16.1977 C   0  0  0  0  0  0
    1.0808   -0.4214   23.0809 Cl  0  0  0  0  0  0
   -4.0350   -1.5130   24.6763 Cl  0  0  0  0  0  0
   -5.6350    0.8870   14.9028 F   0  0  0  0  0  0
   -2.1052    3.6335   22.5138 O   0  0  0  0  0  0
   -0.6080   -0.9798   26.6480 C   0  0  0  0  0  0
   -1.9406   -1.2393   26.3377 C   0  0  0  0  0  0
    0.3115   -0.7550   25.6267 C   0  0  0  0  0  0
   -1.3835    3.7262   23.7415 C   0  0  0  0  0  0
   -2.5028   -3.4730   20.4210 H   0  0  0  0  0  0
   -4.0326   -1.6001   19.8760 H   0  0  0  0  0  0
   -2.4973   -1.4467   19.0404 H   0  0  0  0  0  0
   -1.6141    1.2651   23.5573 H   0  0  0  0  0  0
   -6.8350    0.6570   17.1836 H   0  0  0  0  0  0
   -3.0751    3.2763   20.1164 H   0  0  0  0  0  0
   -2.0350    1.3709   17.4454 H   0  0  0  0  0  0
   -3.0997    1.3612   15.3007 H   0  0  0  0  0  0
   -0.2904   -0.9305   27.6800 H   0  0  0  0  0  0
   -2.6569   -1.3777   27.1348 H   0  0  0  0  0  0
    1.3372   -0.5213   25.8750 H   0  0  0  0  0  0
   -1.2301    4.7760   23.9909 H   0  0  0  0  0  0
   -1.9338    3.2703   24.5659 H   0  0  0  0  0  0
   -0.3975    3.2634   23.6661 H   0  0  0  0  0  0
  1  2  1  0  0  0
  1  4  1  0  0  0
  1  6  1  0  0  0
  2  3  2  0  0  0
  2 11  1  0  0  0
  3  5  1  0  0  0
  3 10  1  0  0  0
  4  8  1  0  0  0
  4 17  2  0  0  0
  5  7  1  0  0  0
  5 13  2  0  0  0
  6 15  2  0  0  0
  6 16  1  0  0  0
  7  9  1  0  0  0
  7 14  2  0  0  0
  8 10  1  0  0  0
  8 30  1  0  0  0
  9 12  2  0  0  0
  9 20  1  0  0  0
 10 31  1  0  0  0
 10 32  1  0  0  0
 11 18  2  0  0  0
 11 33  1  0  0  0
 12 19  1  0  0  0
 12 34  1  0  0  0
 13 18  1  0  0  0
 13 35  1  0  0  0
 14 21  1  0  0  0
 14 36  1  0  0  0
 15 23  1  0  0  0
 15 27  1  0  0  0
 16 22  1  0  0  0
 16 28  2  0  0  0
 18 25  1  0  0  0
 19 21  2  0  0  0
 19 24  1  0  0  0
 21 37  1  0  0  0
 25 29  1  0  0  0
 26 28  1  0  0  0
 26 27  2  0  0  0
 26 38  1  0  0  0
 27 39  1  0  0  0
 28 40  1  0  0  0
 29 41  1  0  0  0
 29 42  1  0  0  0
 29 43  1  0  0  0
M  END
> <s_m_entry_id>
60745

> <s_m_entry_name>
dock_pv.22

> <s_m_Source_Path>
/home/csk/Desktop/cluster/DUD-E-result/mk14

> <s_m_Source_File>
dock_pv.maegz

> <i_m_Source_File_Index>
22

> <chembl_id>
CHEMBL94770

> <chembl_pref_name>
None

> <i_lp_mmshare_version>
53161

> <i_f3d_flags>
0

> <r_lp_tautomer_probability>
1

> <s_lp_Force_Field>
OPLS_2005

> <r_lp_Energy>
50.703969

> <b_lp_Chiralities_Consistent>
1

> <s_lp_Variant>
CHEMBL260_lig90-1

> <s_i_glide_gridfile>
glide-grid_2qd9

> <i_i_glide_lignum>
106

> <i_i_glide_rotatable_bonds>
3

> <r_i_docking_score>
-10.0460298928539

> <r_i_glide_ligand_efficiency>
-0.346414823891514

> <r_i_glide_ligand_efficiency_sa>
-1.0642960909143

> <r_i_glide_ligand_efficiency_ln>
-2.30028610012549

> <r_i_glide_gscore>
-10.0460298928539

> <r_i_glide_lipo>
-4.21899987939294

> <r_i_glide_hbond>
-0.613340892988106

> <r_i_glide_metal>
0

> <r_i_glide_rewards>
-2.18206675506395

> <r_i_glide_evdw>
-32.2496566772461

> <r_i_glide_ecoul>
-10.3785057067871

> <r_i_glide_erotb>
0.137636324471471

> <r_i_glide_esite>
0

> <r_i_glide_emodel>
-53.6620891969712

> <r_i_glide_energy>
-42.6281623840332

> <r_i_glide_einternal>
5.4244384765625

> <i_i_glide_confnum>
1

> <i_i_glide_posenum>
84

> <r_i_glide_eff_state_penalty>
0

> <s_user_duplicate_titles>
CHEMBL260_lig90,154376

> <s_m_subgroup_title>
dock_pv

> <s_m_subgroupid>
dock_pv

> <b_m_subgroup_collapsed>
1

$$$$
CHEMBL260_lig869
                    3D
 Schrodinger Suite 2021-1.
 40 43  0  0  1  0            999 V2000
   -2.0407   -1.2896   26.2361 C   0  0  0  0  0  0
   -2.3840   -1.3223   24.8845 C   0  0  0  0  0  0
   -1.3984   -1.1526   23.8945 C   0  0  0  0  0  0
   -0.0799   -0.8545   24.2947 C   0  0  0  0  0  0
    0.2470   -0.8107   25.6500 C   0  0  0  0  0  0
   -0.7244   -1.0477   26.6191 C   0  0  0  0  0  0
    1.1525   -0.4427   23.1565 Cl  0  0  0  0  0  0
   -4.0458   -1.5126   24.4658 Cl  0  0  0  0  0  0
   -1.7526   -1.2138   22.5117 N   0  0  0  0  0  0
   -1.8114   -2.4607   21.9585 C   0  0  0  0  0  0
   -2.1502   -2.5017   20.6510 N   0  0  0  0  0  0
   -2.8225   -1.4193   19.9147 C   0  0  0  0  0  0
   -2.1182   -0.0117   21.8505 C   0  0  0  0  0  0
   -2.6526   -0.0474   20.5464 C   0  0  0  0  0  0
   -3.0400    1.1480   19.8919 C   0  0  0  0  0  0
   -2.8350    2.3626   20.5714 C   0  0  0  0  0  0
   -2.3448    2.3787   21.8815 C   0  0  0  0  0  0
   -1.9845    1.2105   22.5009 C   0  0  0  0  0  0
   -3.7442    1.1412   18.5506 C   0  0  0  0  0  0
   -3.0914    1.3709   17.3200 C   0  0  0  0  0  0
   -3.7632    1.3796   16.0996 C   0  0  0  0  0  0
   -5.1266    1.1408   16.0641 C   0  0  0  0  0  0
   -5.7932    0.8870   17.2536 C   0  0  0  0  0  0
   -5.1224    0.8870   18.4755 C   0  0  0  0  0  0
   -6.0436    0.5117   19.8757 Cl  0  0  0  0  0  0
   -1.6350   -3.5130   22.5631 O   0  0  0  0  0  0
   -2.2069    3.5081   22.6345 O   0  0  0  0  0  0
   -2.7985   -1.4357   26.9923 H   0  0  0  0  0  0
    1.2603   -0.5893   25.9543 H   0  0  0  0  0  0
   -0.4598   -1.0198   27.6667 H   0  0  0  0  0  0
   -2.2213   -3.4313   20.2580 H   0  0  0  0  0  0
   -3.8861   -1.6452   19.8739 H   0  0  0  0  0  0
   -2.4348   -1.4094   18.8955 H   0  0  0  0  0  0
   -3.1267    3.2911   20.1062 H   0  0  0  0  0  0
   -1.6015    1.2730   23.5078 H   0  0  0  0  0  0
   -2.0358    1.5306   17.2274 H   0  0  0  0  0  0
   -3.2222    1.5600   15.1813 H   0  0  0  0  0  0
   -5.6557    1.1288   15.1226 H   0  0  0  0  0  0
   -6.8359    0.6516   17.2285 H   0  0  0  0  0  0
   -1.7451    3.3284   23.4575 H   0  0  0  0  0  0
  1  6  1  0  0  0
  1  2  2  0  0  0
  1 28  1  0  0  0
  2  8  1  0  0  0
  2  3  1  0  0  0
  3  4  2  0  0  0
  3  9  1  0  0  0
  4  7  1  0  0  0
  4  5  1  0  0  0
  5  6  2  0  0  0
  5 29  1  0  0  0
  6 30  1  0  0  0
  9 10  1  0  0  0
  9 13  1  0  0  0
 10 11  1  0  0  0
 10 26  2  0  0  0
 11 12  1  0  0  0
 11 31  1  0  0  0
 12 14  1  0  0  0
 12 32  1  0  0  0
 12 33  1  0  0  0
 13 14  2  0  0  0
 13 18  1  0  0  0
 14 15  1  0  0  0
 15 16  2  0  0  0
 15 19  1  0  0  0
 16 17  1  0  0  0
 16 34  1  0  0  0
 17 18  2  0  0  0
 17 27  1  0  0  0
 18 35  1  0  0  0
 19 20  2  0  0  0
 19 24  1  0  0  0
 20 21  1  0  0  0
 20 36  1  0  0  0
 21 22  2  0  0  0
 21 37  1  0  0  0
 22 23  1  0  0  0
 22 38  1  0  0  0
 23 24  2  0  0  0
 23 39  1  0  0  0
 24 25  1  0  0  0
 27 40  1  0  0  0
M  END
> <s_m_entry_id>
60746

> <s_m_entry_name>
dock_pv.23

> <s_m_Source_Path>
/home/csk/Desktop/cluster/DUD-E-result/mk14

> <s_m_Source_File>
dock_pv.maegz

> <i_m_Source_File_Index>
23

> <chembl_id>
CHEMBL210110

> <chembl_pref_name>
None

> <i_lp_mmshare_version>
53161

> <i_f3d_flags>
0

> <r_lp_tautomer_probability>
0.999999999997365

> <s_lp_Force_Field>
OPLS_2005

> <r_lp_Energy>
47.838389

> <b_lp_Chiralities_Consistent>
1

> <s_lp_Variant>
CHEMBL260_lig869-1

> <s_i_glide_gridfile>
glide-grid_2qd9

> <i_i_glide_lignum>
967

> <i_i_glide_rotatable_bonds>
3

> <r_i_docking_score>
-10.0392750753874

> <r_i_glide_ligand_efficiency>
-0.371825002792124

> <r_i_glide_ligand_efficiency_sa>
-1.1154750071509

> <r_i_glide_ligand_efficiency_ln>
-2.33697772716522

> <r_i_glide_gscore>
-10.0392750753874

> <r_i_glide_lipo>
-4.28291293505424

> <r_i_glide_hbond>
-0.527338768090647

> <r_i_glide_metal>
0

> <r_i_glide_rewards>
-2.13918778740106

> <r_i_glide_evdw>
-34.1689720153809

> <r_i_glide_ecoul>
-10.257664680481

> <r_i_glide_erotb>
0.157262717999779

> <r_i_glide_esite>
0

> <r_i_glide_emodel>
-52.6364572070117

> <r_i_glide_energy>
-44.4266366958618

> <r_i_glide_einternal>
1.4102691411972

> <i_i_glide_confnum>
3

> <i_i_glide_posenum>
246

> <r_i_glide_eff_state_penalty>
0

> <s_user_duplicate_titles>
CHEMBL260_lig869,355512

> <s_m_subgroup_title>
dock_pv

> <s_m_subgroupid>
dock_pv

> <b_m_subgroup_collapsed>
1

$$$$
CHEMBL260_lig106
                    3D
 Schrodinger Suite 2021-1.
 48 51  0  0  1  0            999 V2000
   -1.7573   -1.2262   23.0939 N   0  0  0  0  0  0
   -2.0748   -0.0134   22.4330 C   0  0  0  0  0  0
   -2.6799   -0.0469   21.1668 C   0  0  0  0  0  0
   -1.8632   -2.4722   22.5492 C   0  0  0  0  0  0
   -3.0122    1.1552   20.5104 C   0  0  0  0  0  0
   -1.3490   -1.1549   24.4565 C   0  0  0  0  0  0
   -2.3104   -2.5233   21.2729 N   0  0  0  0  0  0
   -1.7956    1.2173   23.0271 C   0  0  0  0  0  0
   -2.0349    2.4035   22.3610 C   0  0  0  0  0  0
   -2.6010    2.3737   21.0760 C   0  0  0  0  0  0
   -2.9617   -1.4165   20.5550 C   0  0  0  0  0  0
   -3.8945    1.1171   19.3025 C   0  0  0  0  0  0
   -1.5896    3.6213   23.0760 C   0  0  0  0  0  0
   -0.0041   -0.8912   24.7831 C   0  0  0  0  0  0
   -2.3014   -1.2508   25.4877 C   0  0  0  0  0  0
   -1.6350   -3.5130   23.1502 O   0  0  0  0  0  0
   -3.4533    1.4038   18.0006 C   0  0  0  0  0  0
   -2.1724    4.0870   24.0579 O   0  0  0  0  0  0
   -0.4350    4.0871   22.5690 O   0  0  0  0  0  0
    1.2107   -0.7130   23.5636 Cl  0  0  0  0  0  0
   -3.9741   -1.5130   25.1438 Cl  0  0  0  0  0  0
   -4.3134    1.2870   16.9031 C   0  0  0  0  0  0
   -5.2266    0.7207   19.4699 C   0  0  0  0  0  0
   -6.0861    0.5915   18.3824 C   0  0  0  0  0  0
   -0.5800   -0.8295   27.1328 C   0  0  0  0  0  0
    0.3650   -0.7130   26.1164 C   0  0  0  0  0  0
   -1.9092   -1.1033   26.8184 C   0  0  0  0  0  0
   -5.6349    0.8870   17.0991 C   0  0  0  0  0  0
   -3.8257    1.6065   15.5026 C   0  0  0  0  0  0
    0.2286    5.2001   23.1497 C   0  0  0  0  0  0
   -2.3712   -3.4424   20.8551 H   0  0  0  0  0  0
   -1.3436    1.2655   24.0083 H   0  0  0  0  0  0
   -2.8126    3.2963   20.5560 H   0  0  0  0  0  0
   -4.0350   -1.5853   20.5227 H   0  0  0  0  0  0
   -2.6155   -1.4343   19.5203 H   0  0  0  0  0  0
   -2.4369    1.7057   17.8060 H   0  0  0  0  0  0
   -5.5966    0.4870   20.4551 H   0  0  0  0  0  0
   -7.1063    0.2686   18.5306 H   0  0  0  0  0  0
   -0.2797   -0.7068   28.1637 H   0  0  0  0  0  0
    1.3938   -0.4972   26.3678 H   0  0  0  0  0  0
   -2.6390   -1.1847   27.6108 H   0  0  0  0  0  0
   -6.3117    0.7927   16.2615 H   0  0  0  0  0  0
   -4.4356    2.4033   15.0760 H   0  0  0  0  0  0
   -3.9264    0.7326   14.8577 H   0  0  0  0  0  0
   -2.7837    1.9292   15.4849 H   0  0  0  0  0  0
    1.1316    5.4253   22.5814 H   0  0  0  0  0  0
   -0.4058    6.0874   23.1429 H   0  0  0  0  0  0
    0.5204    4.9884   24.1795 H   0  0  0  0  0  0
  1  2  1  0  0  0
  1  4  1  0  0  0
  1  6  1  0  0  0
  2  3  2  0  0  0
  2  8  1  0  0  0
  3  5  1  0  0  0
  3 11  1  0  0  0
  4  7  1  0  0  0
  4 16  2  0  0  0
  5 12  1  0  0  0
  5 10  2  0  0  0
  6 14  1  0  0  0
  6 15  2  0  0  0
  7 11  1  0  0  0
  7 31  1  0  0  0
  8  9  2  0  0  0
  8 32  1  0  0  0
  9 10  1  0  0  0
  9 13  1  0  0  0
 10 33  1  0  0  0
 11 34  1  0  0  0
 11 35  1  0  0  0
 12 17  1  0  0  0
 12 23  2  0  0  0
 13 18  2  0  0  0
 13 19  1  0  0  0
 14 20  1  0  0  0
 14 26  2  0  0  0
 15 21  1  0  0  0
 15 27  1  0  0  0
 17 22  2  0  0  0
 17 36  1  0  0  0
 19 30  1  0  0  0
 22 29  1  0  0  0
 22 28  1  0  0  0
 23 24  1  0  0  0
 23 37  1  0  0  0
 24 28  2  0  0  0
 24 38  1  0  0  0
 25 27  2  0  0  0
 25 26  1  0  0  0
 25 39  1  0  0  0
 26 40  1  0  0  0
 27 41  1  0  0  0
 28 42  1  0  0  0
 29 43  1  0  0  0
 29 44  1  0  0  0
 29 45  1  0  0  0
 30 46  1  0  0  0
 30 47  1  0  0  0
 30 48  1  0  0  0
M  END
> <s_m_entry_id>
60747

> <s_m_entry_name>
dock_pv.24

> <s_m_Source_Path>
/home/csk/Desktop/cluster/DUD-E-result/mk14

> <s_m_Source_File>
dock_pv.maegz

> <i_m_Source_File_Index>
24

> <chembl_id>
CHEMBL328274

> <chembl_pref_name>
None

> <i_lp_mmshare_version>
53161

> <i_f3d_flags>
0

> <r_lp_tautomer_probability>
1

> <s_lp_Force_Field>
OPLS_2005

> <r_lp_Energy>
50.080309

> <b_lp_Chiralities_Consistent>
1

> <s_lp_Variant>
CHEMBL260_lig106-1

> <s_i_glide_gridfile>
glide-grid_2qd9

> <i_i_glide_lignum>
122

> <i_i_glide_rotatable_bonds>
4

> <r_i_docking_score>
-9.97339569545987

> <r_i_glide_ligand_efficiency>
-0.332446523181996

> <r_i_glide_ligand_efficiency_sa>
-1.03298864215131

> <r_i_glide_ligand_efficiency_ln>
-2.26606417085828

> <r_i_glide_gscore>
-9.97339569545987

> <r_i_glide_lipo>
-4.26022936371152

> <r_i_glide_hbond>
-0.732107612869072

> <r_i_glide_metal>
0

> <r_i_glide_rewards>
-1.85874367748438

> <r_i_glide_evdw>
-37.9287033081055

> <r_i_glide_ecoul>
-9.33002948760986

> <r_i_glide_erotb>
0.215378659808984

> <r_i_glide_esite>
-0.0417541126571309

> <r_i_glide_emodel>
-49.5982071394652

> <r_i_glide_energy>
-47.2587327957153

> <r_i_glide_einternal>
9.64046382904053

> <i_i_glide_confnum>
12

> <i_i_glide_posenum>
36

> <r_i_glide_eff_state_penalty>
0

> <s_user_duplicate_titles>
CHEMBL260_lig106,154567

> <s_m_subgroup_title>
dock_pv

> <s_m_subgroupid>
dock_pv

> <b_m_subgroup_collapsed>
1

$$$$
CHEMBL260_lig872
                    3D
 Schrodinger Suite 2021-1.
 39 42  0  0  1  0            999 V2000
    0.2951   -0.6046   25.6406 C   0  0  0  0  0  0
   -0.1080   -0.7212   24.3104 C   0  0  0  0  0  0
   -1.4391   -1.0667   24.0047 C   0  0  0  0  0  0
   -2.3640   -1.2115   25.0555 C   0  0  0  0  0  0
   -1.9463   -1.0928   26.3819 C   0  0  0  0  0  0
   -0.6163   -0.8026   26.6751 C   0  0  0  0  0  0
   -4.0344   -1.5129   24.7429 Cl  0  0  0  0  0  0
    1.0552   -0.3782   23.0800 Cl  0  0  0  0  0  0
   -1.8559   -1.2548   22.6483 N   0  0  0  0  0  0
   -1.8798   -2.5400   22.1964 C   0  0  0  0  0  0
   -2.2417   -2.7129   20.9015 N   0  0  0  0  0  0
   -2.8346   -1.6914   20.0210 C   0  0  0  0  0  0
   -2.2557   -0.1393   21.8828 C   0  0  0  0  0  0
   -2.7337   -0.2900   20.5714 C   0  0  0  0  0  0
   -3.0972    0.8894   19.8840 C   0  0  0  0  0  0
   -2.9023    2.1146   20.4430 N   0  0  0  0  0  0
   -2.4342    2.1162   21.7125 C   0  0  0  0  0  0
   -2.1396    1.0656   22.4711 N   0  0  0  0  0  0
   -3.7913    0.9278   18.5566 C   0  0  0  0  0  0
   -3.1051    1.1181   17.3447 C   0  0  0  0  0  0
   -3.7652    1.2276   16.1221 C   0  0  0  0  0  0
   -5.1463    1.1119   16.0776 C   0  0  0  0  0  0
   -5.8408    0.8874   17.2586 C   0  0  0  0  0  0
   -5.1837    0.8108   18.4820 C   0  0  0  0  0  0
   -6.1358    0.4872   19.8756 Cl  0  0  0  0  0  0
   -1.6353   -3.5131   22.8952 O   0  0  0  0  0  0
   -2.0345    3.2872   22.2901 N   0  0  0  0  0  0
    1.3207   -0.3539   25.8734 H   0  0  0  0  0  0
   -2.6548   -1.2190   27.1872 H   0  0  0  0  0  0
   -0.2946   -0.7133   27.7028 H   0  0  0  0  0  0
   -2.3024   -3.6723   20.5825 H   0  0  0  0  0  0
   -3.8866   -1.9168   19.8767 H   0  0  0  0  0  0
   -2.3541   -1.7416   19.0473 H   0  0  0  0  0  0
   -2.0351    1.1647   17.2999 H   0  0  0  0  0  0
   -3.2031    1.3796   15.2121 H   0  0  0  0  0  0
   -5.6711    1.1718   15.1362 H   0  0  0  0  0  0
   -6.8988    0.7555   17.2401 H   0  0  0  0  0  0
   -1.4759    3.1606   23.1219 H   0  0  0  0  0  0
   -1.7522    3.9790   21.6172 H   0  0  0  0  0  0
  1  6  1  0  0  0
  1  2  2  0  0  0
  1 28  1  0  0  0
  2  8  1  0  0  0
  2  3  1  0  0  0
  3  4  2  0  0  0
  3  9  1  0  0  0
  4  7  1  0  0  0
  4  5  1  0  0  0
  5  6  2  0  0  0
  5 29  1  0  0  0
  6 30  1  0  0  0
  9 10  1  0  0  0
  9 13  1  0  0  0
 10 11  1  0  0  0
 10 26  2  0  0  0
 11 12  1  0  0  0
 11 31  1  0  0  0
 12 14  1  0  0  0
 12 32  1  0  0  0
 12 33  1  0  0  0
 13 14  2  0  0  0
 13 18  1  0  0  0
 14 15  1  0  0  0
 15 16  2  0  0  0
 15 19  1  0  0  0
 16 17  1  0  0  0
 17 18  2  0  0  0
 17 27  1  0  0  0
 19 20  2  0  0  0
 19 24  1  0  0  0
 20 21  1  0  0  0
 20 34  1  0  0  0
 21 22  2  0  0  0
 21 35  1  0  0  0
 22 23  1  0  0  0
 22 36  1  0  0  0
 23 24  2  0  0  0
 23 37  1  0  0  0
 24 25  1  0  0  0
 27 38  1  0  0  0
 27 39  1  0  0  0
M  END
> <s_m_entry_id>
60748

> <s_m_entry_name>
dock_pv.25

> <s_m_Source_Path>
/home/csk/Desktop/cluster/DUD-E-result/mk14

> <s_m_Source_File>
dock_pv.maegz

> <i_m_Source_File_Index>
25

> <chembl_id>
CHEMBL212821

> <chembl_pref_name>
None

> <i_lp_mmshare_version>
53161

> <i_f3d_flags>
0

> <r_lp_tautomer_probability>
0.999999987636

> <s_lp_Force_Field>
OPLS_2005

> <r_lp_Energy>
36.449772

> <b_lp_Chiralities_Consistent>
1

> <s_lp_Variant>
CHEMBL260_lig872-1

> <s_i_glide_gridfile>
glide-grid_2qd9

> <i_i_glide_lignum>
970

> <i_i_glide_rotatable_bonds>
2

> <r_i_docking_score>
-9.96004402810096

> <r_i_glide_ligand_efficiency>
-0.368890519559295

> <r_i_glide_ligand_efficiency_sa>
-1.10667155746208

> <r_i_glide_ligand_efficiency_ln>
-2.31853404558285

> <r_i_glide_gscore>
-9.96004402810096

> <r_i_glide_lipo>
-4.0097332208217

> <r_i_glide_hbond>
-0.721821176327686

> <r_i_glide_metal>
0

> <r_i_glide_rewards>
-2.12085916390877

> <r_i_glide_evdw>
-36.0832061767578

> <r_i_glide_ecoul>
-9.47943305969238

> <r_i_glide_erotb>
0.156593398309841

> <r_i_glide_esite>
-0.0381485975608958

> <r_i_glide_emodel>
-55.2144826478046

> <r_i_glide_energy>
-45.5626392364502

> <r_i_glide_einternal>
1.32230126857758

> <i_i_glide_confnum>
8

> <i_i_glide_posenum>
253

> <r_i_glide_eff_state_penalty>
0

> <s_user_duplicate_titles>
CHEMBL260_lig872,355350

> <s_m_subgroup_title>
dock_pv

> <s_m_subgroupid>
dock_pv

> <b_m_subgroup_collapsed>
1

$$$$
CHEMBL260_lig879
                    3D
 Schrodinger Suite 2021-1.
 49 52  0  0  1  0            999 V2000
    0.2929   -0.5929   25.6433 C   0  0  0  0  0  0
   -0.1147   -0.7278   24.3145 C   0  0  0  0  0  0
   -1.4423   -1.0969   24.0206 C   0  0  0  0  0  0
   -2.3588   -1.2298   25.0819 C   0  0  0  0  0  0
   -1.9379   -1.0963   26.4053 C   0  0  0  0  0  0
   -0.6081   -0.7939   26.6869 C   0  0  0  0  0  0
   -4.0352   -1.5129   24.7829 Cl  0  0  0  0  0  0
    1.0319   -0.3346   23.0773 Cl  0  0  0  0  0  0
   -1.8804   -1.2772   22.6646 N   0  0  0  0  0  0
   -1.9340   -2.5502   22.1985 C   0  0  0  0  0  0
   -2.3873   -2.7134   20.9276 N   0  0  0  0  0  0
   -2.9594   -1.6753   20.0504 C   0  0  0  0  0  0
   -2.3013   -0.1657   21.9201 C   0  0  0  0  0  0
   -2.8282   -0.2868   20.6260 C   0  0  0  0  0  0
   -3.1844    0.9138   19.9790 C   0  0  0  0  0  0
   -2.9369    2.1223   20.5491 N   0  0  0  0  0  0
   -2.4047    2.0944   21.7940 C   0  0  0  0  0  0
   -2.1208    1.0181   22.5121 N   0  0  0  0  0  0
   -3.8476    0.9822   18.6465 C   0  0  0  0  0  0
   -3.0924    1.0798   17.4751 C   0  0  0  0  0  0
   -3.6475    1.0557   16.2120 C   0  0  0  0  0  0
   -5.0076    0.8903   16.0985 C   0  0  0  0  0  0
   -5.8056    0.8866   17.2383 C   0  0  0  0  0  0
   -5.2310    0.8867   18.5097 C   0  0  0  0  0  0
   -6.2283    0.5156   19.8713 Cl  0  0  0  0  0  0
   -1.6352   -3.5130   22.8829 O   0  0  0  0  0  0
   -2.0284    3.2878   22.3541 N   0  0  0  0  0  0
   -1.0713    3.4170   23.4585 C   0  0  0  0  0  0
   -1.7138    3.3936   24.8525 C   0  0  0  0  0  0
   -5.6350    0.4862   14.5685 Cl  0  0  0  0  0  0
   -2.6232    4.4800   25.0013 O   0  0  0  0  0  0
   -3.1802    4.5545   26.3053 C   0  0  0  0  0  0
    1.3127   -0.3178   25.8688 H   0  0  0  0  0  0
   -2.6478   -1.2123   27.2146 H   0  0  0  0  0  0
   -0.2799   -0.6848   27.7109 H   0  0  0  0  0  0
   -2.5009   -3.6710   20.6147 H   0  0  0  0  0  0
   -4.0114   -1.8859   19.8764 H   0  0  0  0  0  0
   -2.4507   -1.7145   19.0873 H   0  0  0  0  0  0
   -2.0353    1.0750   17.4753 H   0  0  0  0  0  0
   -3.0128    1.0595   15.3371 H   0  0  0  0  0  0
   -6.8450    0.6930   17.1376 H   0  0  0  0  0  0
   -2.1149    4.0871   21.7438 H   0  0  0  0  0  0
   -0.3118    2.6343   23.3814 H   0  0  0  0  0  0
   -0.5175    4.3471   23.3282 H   0  0  0  0  0  0
   -2.2163    2.4414   25.0190 H   0  0  0  0  0  0
   -0.9222    3.4675   25.6007 H   0  0  0  0  0  0
   -3.9595    5.3165   26.3302 H   0  0  0  0  0  0
   -3.6310    3.6045   26.5987 H   0  0  0  0  0  0
   -2.4237    4.8182   27.0462 H   0  0  0  0  0  0
  1  6  1  0  0  0
  1  2  2  0  0  0
  1 33  1  0  0  0
  2  8  1  0  0  0
  2  3  1  0  0  0
  3  4  2  0  0  0
  3  9  1  0  0  0
  4  5  1  0  0  0
  4  7  1  0  0  0
  5  6  2  0  0  0
  5 34  1  0  0  0
  6 35  1  0  0  0
  9 10  1  0  0  0
  9 13  1  0  0  0
 10 11  1  0  0  0
 10 26  2  0  0  0
 11 12  1  0  0  0
 11 36  1  0  0  0
 12 14  1  0  0  0
 12 37  1  0  0  0
 12 38  1  0  0  0
 13 18  1  0  0  0
 13 14  2  0  0  0
 14 15  1  0  0  0
 15 16  2  0  0  0
 15 19  1  0  0  0
 16 17  1  0  0  0
 17 18  2  0  0  0
 17 27  1  0  0  0
 19 20  2  0  0  0
 19 24  1  0  0  0
 20 21  1  0  0  0
 20 39  1  0  0  0
 21 22  2  0  0  0
 21 40  1  0  0  0
 22 23  1  0  0  0
 22 30  1  0  0  0
 23 24  2  0  0  0
 23 41  1  0  0  0
 24 25  1  0  0  0
 27 28  1  0  0  0
 27 42  1  0  0  0
 28 29  1  0  0  0
 28 43  1  0  0  0
 28 44  1  0  0  0
 29 31  1  0  0  0
 29 45  1  0  0  0
 29 46  1  0  0  0
 31 32  1  0  0  0
 32 47  1  0  0  0
 32 48  1  0  0  0
 32 49  1  0  0  0
M  END
> <s_m_entry_id>
60749

> <s_m_entry_name>
dock_pv.26

> <s_m_Source_Path>
/home/csk/Desktop/cluster/DUD-E-result/mk14

> <s_m_Source_File>
dock_pv.maegz

> <i_m_Source_File_Index>
26

> <chembl_id>
CHEMBL213836

> <chembl_pref_name>
None

> <i_lp_mmshare_version>
53161

> <i_f3d_flags>
0

> <r_lp_tautomer_probability>
0.999999987636

> <s_lp_Force_Field>
OPLS_2005

> <r_lp_Energy>
35.672527

> <b_lp_Chiralities_Consistent>
1

> <s_lp_Variant>
CHEMBL260_lig879-1

> <s_i_glide_gridfile>
glide-grid_2qd9

> <i_i_glide_lignum>
979

> <i_i_glide_rotatable_bonds>
6

> <r_i_docking_score>
-9.95502405851469

> <r_i_glide_ligand_efficiency>
-0.311094501828584

> <r_i_glide_ligand_efficiency_sa>
-0.987663477787441

> <r_i_glide_ligand_efficiency_ln>
-2.22920125040837

> <r_i_glide_gscore>
-9.95502405851469

> <r_i_glide_lipo>
-4.13306392374696

> <r_i_glide_hbond>
-0.76598379073415

> <r_i_glide_metal>
0

> <r_i_glide_rewards>
-1.59764073865684

> <r_i_glide_evdw>
-39.6980743408203

> <r_i_glide_ecoul>
-11.3862066268921

> <r_i_glide_erotb>
0.27248400461242

> <r_i_glide_esite>
-0.0379848989143294

> <r_i_glide_emodel>
-64.7444283132213

> <r_i_glide_energy>
-51.0842809677124

> <r_i_glide_einternal>
6.23507404327393

> <i_i_glide_confnum>
168

> <i_i_glide_posenum>
134

> <r_i_glide_eff_state_penalty>
0

> <s_user_duplicate_titles>
CHEMBL260_lig879,355222

> <s_m_subgroup_title>
dock_pv

> <s_m_subgroupid>
dock_pv

> <b_m_subgroup_collapsed>
1

$$$$
CHEMBL260_lig1644
                    3D
 Schrodinger Suite 2021-1.
 36 38  0  0  1  0            999 V2000
   -5.3987    0.8425   16.2288 C   0  0  0  0  0  0
   -4.0872    1.2940   16.1843 C   0  0  0  0  0  0
   -3.3996    1.5349   17.3718 C   0  0  0  0  0  0
   -4.0017    1.2906   18.6151 C   0  0  0  0  0  0
   -5.3402    0.8865   18.6459 C   0  0  0  0  0  0
   -6.0352    0.6852   17.4545 C   0  0  0  0  0  0
   -3.2356    1.4843   19.8840 C   0  0  0  0  0  0
   -2.7955    0.2745   20.6961 C   0  0  0  0  0  0
   -2.9848    2.6387   20.2420 O   0  0  0  0  0  0
   -2.8367   -0.9876   20.0863 C   0  0  0  0  0  0
   -2.4285   -2.1237   20.7713 C   0  0  0  0  0  0
   -1.9987   -2.0311   22.0396 N   0  3  0  0  0  0
   -1.9125   -0.8431   22.6971 C   0  0  0  0  0  0
   -2.3019    0.3388   22.0272 C   0  0  0  0  0  0
   -1.6833   -3.1134   22.6137 O   0  5  0  0  0  0
   -2.2032    1.5552   22.7100 N   0  0  0  0  0  0
   -1.4435   -0.8825   24.1226 C   0  0  0  0  0  0
   -0.0961   -0.6535   24.4560 C   0  0  0  0  0  0
    0.3228   -0.7105   25.7846 C   0  0  0  0  0  0
   -0.5850   -1.0038   26.7980 C   0  0  0  0  0  0
   -1.9180   -1.2472   26.4813 C   0  0  0  0  0  0
   -2.3472   -1.1895   25.1554 C   0  0  0  0  0  0
   -5.9692    0.6510   19.8179 F   0  0  0  0  0  0
   -6.0347    0.4868   15.0940 F   0  0  0  0  0  0
   -4.0115   -1.5128   24.8189 Cl  0  0  0  0  0  0
    1.0899   -0.3129   23.2472 Cl  0  0  0  0  0  0
   -3.5988    1.4388   15.2314 H   0  0  0  0  0  0
   -2.3937    1.9005   17.2975 H   0  0  0  0  0  0
   -7.0425    0.3068   17.4770 H   0  0  0  0  0  0
   -3.1849   -1.1130   19.0760 H   0  0  0  0  0  0
   -2.4371   -3.1133   20.3415 H   0  0  0  0  0  0
   -1.6942    1.5741   23.5831 H   0  0  0  0  0  0
   -2.3100    2.3928   22.1512 H   0  0  0  0  0  0
    1.3610   -0.5380   26.0322 H   0  0  0  0  0  0
   -0.2541   -1.0559   27.8250 H   0  0  0  0  0  0
   -2.6196   -1.4875   27.2677 H   0  0  0  0  0  0
  1  2  2  0  0  0
  1 24  1  0  0  0
  1  6  1  0  0  0
  2  3  1  0  0  0
  2 27  1  0  0  0
  3  4  2  0  0  0
  3 28  1  0  0  0
  4  7  1  0  0  0
  4  5  1  0  0  0
  5 23  1  0  0  0
  5  6  2  0  0  0
  6 29  1  0  0  0
  7  8  1  0  0  0
  7  9  2  0  0  0
  8 14  1  0  0  0
  8 10  2  0  0  0
 10 11  1  0  0  0
 10 30  1  0  0  0
 11 12  2  0  0  0
 11 31  1  0  0  0
 12 13  1  0  0  0
 12 15  1  0  0  0
 13 14  2  0  0  0
 13 17  1  0  0  0
 14 16  1  0  0  0
 16 32  1  0  0  0
 16 33  1  0  0  0
 17 18  2  0  0  0
 17 22  1  0  0  0
 18 19  1  0  0  0
 18 26  1  0  0  0
 19 20  2  0  0  0
 19 34  1  0  0  0
 20 21  1  0  0  0
 20 35  1  0  0  0
 21 22  2  0  0  0
 21 36  1  0  0  0
 22 25  1  0  0  0
M  CHG  2  12   1  15  -1
M  END
> <s_m_entry_id>
60750

> <s_m_entry_name>
dock_pv.27

> <s_m_Source_Path>
/home/csk/Desktop/cluster/DUD-E-result/mk14

> <s_m_Source_File>
dock_pv.maegz

> <i_m_Source_File_Index>
27

> <chembl_id>
CHEMBL559783

> <chembl_pref_name>
None

> <i_lp_mmshare_version>
53161

> <i_f3d_flags>
0

> <r_lp_tautomer_probability>
1

> <s_lp_Force_Field>
OPLS_2005

> <r_lp_Energy>
35.981443

> <b_lp_Chiralities_Consistent>
1

> <s_lp_Variant>
CHEMBL260_lig1644-1

> <s_i_glide_gridfile>
glide-grid_2qd9

> <i_i_glide_lignum>
1896

> <i_i_glide_rotatable_bonds>
3

> <r_i_docking_score>
-9.95033641408016

> <r_i_glide_ligand_efficiency>
-0.382705246695391

> <r_i_glide_ligand_efficiency_sa>
-1.13376278746266

> <r_i_glide_ligand_efficiency_ln>
-2.33680385712992

> <r_i_glide_gscore>
-9.95033641408016

> <r_i_glide_lipo>
-4.01397901677036

> <r_i_glide_hbond>
-0.147612628073945

> <r_i_glide_metal>
0

> <r_i_glide_rewards>
-2.21976433725006

> <r_i_glide_evdw>
-36.6910820007324

> <r_i_glide_ecoul>
-14.0667905807495

> <r_i_glide_erotb>
0.375592255163262

> <r_i_glide_esite>
0

> <r_i_glide_emodel>
-75.8544609335142

> <r_i_glide_energy>
-50.7578725814819

> <r_i_glide_einternal>
3.70440649986267

> <i_i_glide_confnum>
11

> <i_i_glide_posenum>
127

> <r_i_glide_eff_state_penalty>
0

> <s_user_duplicate_titles>
CHEMBL260_lig1644,558466

> <s_m_subgroup_title>
dock_pv

> <s_m_subgroupid>
dock_pv

> <b_m_subgroup_collapsed>
1

$$$$
CHEMBL260_lig113
                    3D
 Schrodinger Suite 2021-1.
 43 46  0  0  1  0            999 V2000
   -2.0031   -1.2516   22.3842 N   0  0  0  0  0  0
   -2.2800   -0.0035   21.7756 C   0  0  0  0  0  0
   -2.7963    0.0342   20.4703 C   0  0  0  0  0  0
   -1.9428   -2.4481   21.7333 C   0  0  0  0  0  0
   -3.1452    1.2641   19.8776 C   0  0  0  0  0  0
   -1.9052   -1.3081   23.8025 C   0  0  0  0  0  0
   -2.2915   -2.4217   20.4286 N   0  0  0  0  0  0
   -3.8569    1.2998   18.5505 C   0  0  0  0  0  0
   -2.9249   -1.2912   19.7325 C   0  0  0  0  0  0
   -2.0330    1.1881   22.4535 C   0  0  0  0  0  0
   -2.8366    2.4448   20.5735 C   0  0  0  0  0  0
   -3.0639   -1.4342   24.5898 C   0  0  0  0  0  0
   -0.6483   -1.2330   24.4315 C   0  0  0  0  0  0
   -1.6454   -3.5132   22.2602 O   0  0  0  0  0  0
   -2.3010    2.4182   21.8685 C   0  0  0  0  0  0
   -5.1974    0.9042   18.4418 C   0  0  0  0  0  0
    0.8072   -1.0359   23.5203 Cl  0  0  0  0  0  0
   -4.6386   -1.5002   23.8743 Cl  0  0  0  0  0  0
   -6.1248    0.4870   19.8308 Cl  0  0  0  0  0  0
   -2.0710    3.6100   22.5279 O   0  0  0  0  0  0
   -3.2226    1.7003   17.3619 C   0  0  0  0  0  0
   -1.7099   -1.4432   26.5939 C   0  0  0  0  0  0
   -0.5584   -1.3030   25.8214 C   0  0  0  0  0  0
   -2.9589   -1.5057   25.9794 C   0  0  0  0  0  0
   -5.8336    0.8868   17.2018 C   0  0  0  0  0  0
   -1.3777    3.6238   23.7751 C   0  0  0  0  0  0
   -3.8598    1.6861   16.1236 C   0  0  0  0  0  0
   -5.1784    1.2692   16.0401 C   0  0  0  0  0  0
   -2.3275   -3.3240   19.9729 H   0  0  0  0  0  0
   -3.9736   -1.5128   19.5425 H   0  0  0  0  0  0
   -2.4345   -1.1978   18.7619 H   0  0  0  0  0  0
   -1.6205    1.1563   23.4478 H   0  0  0  0  0  0
   -3.0682    3.3981   20.1269 H   0  0  0  0  0  0
   -2.2068    2.0411   17.3460 H   0  0  0  0  0  0
   -1.6319   -1.5034   27.6702 H   0  0  0  0  0  0
    0.4079   -1.2534   26.3024 H   0  0  0  0  0  0
   -3.8471   -1.6060   26.5854 H   0  0  0  0  0  0
   -6.8348    0.5254   17.1380 H   0  0  0  0  0  0
   -1.2158    4.6566   24.0894 H   0  0  0  0  0  0
   -1.9551    3.1279   24.5582 H   0  0  0  0  0  0
   -0.3964    3.1505   23.6950 H   0  0  0  0  0  0
   -3.3292    1.9963   15.2342 H   0  0  0  0  0  0
   -5.6873    1.2377   15.0872 H   0  0  0  0  0  0
  1  2  1  0  0  0
  1  4  1  0  0  0
  1  6  1  0  0  0
  2  3  2  0  0  0
  2 10  1  0  0  0
  3  5  1  0  0  0
  3  9  1  0  0  0
  4  7  1  0  0  0
  4 14  2  0  0  0
  5  8  1  0  0  0
  5 11  2  0  0  0
  6 12  1  0  0  0
  6 13  2  0  0  0
  7  9  1  0  0  0
  7 29  1  0  0  0
  8 16  1  0  0  0
  8 21  2  0  0  0
  9 30  1  0  0  0
  9 31  1  0  0  0
 10 15  2  0  0  0
 10 32  1  0  0  0
 11 15  1  0  0  0
 11 33  1  0  0  0
 12 18  1  0  0  0
 12 24  2  0  0  0
 13 17  1  0  0  0
 13 23  1  0  0  0
 15 20  1  0  0  0
 16 19  1  0  0  0
 16 25  2  0  0  0
 20 26  1  0  0  0
 21 27  1  0  0  0
 21 34  1  0  0  0
 22 23  2  0  0  0
 22 24  1  0  0  0
 22 35  1  0  0  0
 23 36  1  0  0  0
 24 37  1  0  0  0
 25 28  1  0  0  0
 25 38  1  0  0  0
 26 39  1  0  0  0
 26 40  1  0  0  0
 26 41  1  0  0  0
 27 28  2  0  0  0
 27 42  1  0  0  0
 28 43  1  0  0  0
M  END
> <s_m_entry_id>
60751

> <s_m_entry_name>
dock_pv.28

> <s_m_Source_Path>
/home/csk/Desktop/cluster/DUD-E-result/mk14

> <s_m_Source_File>
dock_pv.maegz

> <i_m_Source_File_Index>
28

> <chembl_id>
CHEMBL96632

> <chembl_pref_name>
None

> <i_lp_mmshare_version>
53161

> <i_f3d_flags>
0

> <r_lp_tautomer_probability>
1

> <s_lp_Force_Field>
OPLS_2005

> <r_lp_Energy>
51.696168

> <b_lp_Chiralities_Consistent>
1

> <s_lp_Variant>
CHEMBL260_lig113-1

> <s_i_glide_gridfile>
glide-grid_2qd9

> <i_i_glide_lignum>
129

> <i_i_glide_rotatable_bonds>
3

> <r_i_docking_score>
-9.92817587738878

> <r_i_glide_ligand_efficiency>
-0.354577709906742

> <r_i_glide_ligand_efficiency_sa>
-1.07670676237981

> <r_i_glide_ligand_efficiency_ln>
-2.29171449641173

> <r_i_glide_gscore>
-9.92817587738878

> <r_i_glide_lipo>
-4.31337669189723

> <r_i_glide_hbond>
-0.528304011871799

> <r_i_glide_metal>
0

> <r_i_glide_rewards>
-2.09980677925579

> <r_i_glide_evdw>
-36.3841361999512

> <r_i_glide_ecoul>
-9.19442367553711

> <r_i_glide_erotb>
0.21168196696415

> <r_i_glide_esite>
0

> <r_i_glide_emodel>
-59.0948315572263

> <r_i_glide_energy>
-45.5785598754883

> <r_i_glide_einternal>
4.89389610290527

> <i_i_glide_confnum>
4

> <i_i_glide_posenum>
52

> <r_i_glide_eff_state_penalty>
0

> <s_user_duplicate_titles>
CHEMBL260_lig113,154255

> <s_m_subgroup_title>
dock_pv

> <s_m_subgroupid>
dock_pv

> <b_m_subgroup_collapsed>
1

$$$$
CHEMBL260_lig114
                    3D
 Schrodinger Suite 2021-1.
 56 60  0  0  1  0            999 V2000
   -1.7415   -1.2534   22.8123 N   0  0  0  0  0  0
   -2.0924   -0.0889   22.0886 C   0  0  0  0  0  0
   -2.6672   -0.1819   20.8064 C   0  0  0  0  0  0
   -1.8379   -2.5196   22.3265 C   0  0  0  0  0  0
   -3.0395    0.9871   20.1071 C   0  0  0  0  0  0
   -1.3955   -1.1310   24.1994 C   0  0  0  0  0  0
   -3.7700    0.9314   18.7880 C   0  0  0  0  0  0
   -2.2513   -2.6457   21.0437 N   0  0  0  0  0  0
   -5.1706    0.8919   18.7415 C   0  0  0  0  0  0
   -2.8349   -1.5745   20.2185 C   0  0  0  0  0  0
   -1.8349    1.1591   22.6349 C   0  0  0  0  0  0
   -2.0838    2.3170   21.9311 C   0  0  0  0  0  0
   -2.7081    2.2294   20.6763 C   0  0  0  0  0  0
   -5.8584    0.8870   17.5275 C   0  0  0  0  0  0
   -3.1032    0.9169   17.5511 C   0  0  0  0  0  0
   -1.6270    3.5467   22.4280 N   0  0  0  0  0  0
   -2.3942   -1.2233   25.1851 C   0  0  0  0  0  0
   -0.0696   -0.8763   24.6064 C   0  0  0  0  0  0
   -1.6350   -3.5130   23.0037 O   0  0  0  0  0  0
   -0.9412    5.4304   26.1253 N   0  0  2  0  0  0
   -5.1632    0.8870   16.3247 C   0  0  0  0  0  0
   -5.8893    0.8811   19.8760 F   0  0  0  0  0  0
   -3.7800    0.9096   16.3355 C   0  0  0  0  0  0
   -0.9925    3.7085   23.7428 C   0  0  0  0  0  0
   -4.0350   -1.5130   24.7578 Cl  0  0  0  0  0  0
    1.2216   -0.7129   23.4760 Cl  0  0  0  0  0  0
   -5.8157    0.8033   15.1502 F   0  0  0  0  0  0
   -0.2586    5.0639   23.7765 C   0  0  0  0  0  0
   -2.0762    3.6414   24.8457 C   0  0  0  0  0  0
   -1.5491    4.1031   26.2170 C   0  0  0  0  0  0
    0.1902    5.4509   25.1981 C   0  0  0  0  0  0
   -0.7656   -0.8195   26.9231 C   0  0  0  0  0  0
   -2.0772   -1.0764   26.5354 C   0  0  0  0  0  0
    0.2321   -0.7130   25.9588 C   0  0  0  0  0  0
   -2.3143   -3.5887   20.6809 H   0  0  0  0  0  0
   -3.8907   -1.7729   20.0519 H   0  0  0  0  0  0
   -2.3627   -1.6111   19.2360 H   0  0  0  0  0  0
   -1.3623    1.2245   23.5968 H   0  0  0  0  0  0
   -2.9282    3.1344   20.1307 H   0  0  0  0  0  0
   -6.9330    0.8455   17.5245 H   0  0  0  0  0  0
   -2.0350    0.8870   17.4760 H   0  0  0  0  0  0
   -1.0795    3.9965   21.7065 H   0  0  0  0  0  0
   -0.6226    5.7127   27.0437 H   0  0  0  0  0  0
   -3.2335    0.8887   15.4036 H   0  0  0  0  0  0
   -0.2492    2.9241   23.8973 H   0  0  0  0  0  0
    0.6326    4.9951   23.1502 H   0  0  0  0  0  0
   -0.8350    5.8807   23.3460 H   0  0  0  0  0  0
   -2.9640    4.2172   24.5848 H   0  0  0  0  0  0
   -2.4375    2.6196   24.9574 H   0  0  0  0  0  0
   -0.8150    3.3926   26.6029 H   0  0  0  0  0  0
   -2.3670    4.1438   26.9380 H   0  0  0  0  0  0
    0.9690    4.7723   25.5525 H   0  0  0  0  0  0
    0.6171    6.4548   25.1953 H   0  0  0  0  0  0
   -0.5199   -0.7050   27.9693 H   0  0  0  0  0  0
   -2.8497   -1.1575   27.2862 H   0  0  0  0  0  0
    1.2491   -0.5128   26.2652 H   0  0  0  0  0  0
  1  2  1  0  0  0
  1  4  1  0  0  0
  1  6  1  0  0  0
  2  3  2  0  0  0
  2 11  1  0  0  0
  3  5  1  0  0  0
  3 10  1  0  0  0
  4  8  1  0  0  0
  4 19  2  0  0  0
  5  7  1  0  0  0
  5 13  2  0  0  0
  6 17  2  0  0  0
  6 18  1  0  0  0
  7  9  1  0  0  0
  7 15  2  0  0  0
  8 10  1  0  0  0
  8 35  1  0  0  0
  9 14  2  0  0  0
  9 22  1  0  0  0
 10 36  1  0  0  0
 10 37  1  0  0  0
 11 12  2  0  0  0
 11 38  1  0  0  0
 12 13  1  0  0  0
 12 16  1  0  0  0
 13 39  1  0  0  0
 14 21  1  0  0  0
 14 40  1  0  0  0
 15 23  1  0  0  0
 15 41  1  0  0  0
 16 24  1  0  0  0
 16 42  1  0  0  0
 17 25  1  0  0  0
 17 33  1  0  0  0
 18 26  1  0  0  0
 18 34  2  0  0  0
 20 30  1  0  0  0
 20 31  1  0  0  0
 20 43  1  0  0  0
 21 23  2  0  0  0
 21 27  1  0  0  0
 23 44  1  0  0  0
 24 28  1  0  0  0
 24 29  1  0  0  0
 24 45  1  0  0  0
 28 31  1  0  0  0
 28 46  1  0  0  0
 28 47  1  0  0  0
 29 30  1  0  0  0
 29 48  1  0  0  0
 29 49  1  0  0  0
 30 50  1  0  0  0
 30 51  1  0  0  0
 31 52  1  0  0  0
 31 53  1  0  0  0
 32 34  1  0  0  0
 32 33  2  0  0  0
 32 54  1  0  0  0
 33 55  1  0  0  0
 34 56  1  0  0  0
M  END
> <s_m_entry_id>
60752

> <s_m_entry_name>
dock_pv.29

> <s_m_Source_Path>
/home/csk/Desktop/cluster/DUD-E-result/mk14

> <s_m_Source_File>
dock_pv.maegz

> <i_m_Source_File_Index>
29

> <chembl_id>
CHEMBL96432

> <chembl_pref_name>
None

> <i_lp_mmshare_version>
53161

> <i_f3d_flags>
0

> <r_lp_tautomer_probability>
1

> <s_lp_Force_Field>
OPLS_2005

> <r_lp_Energy>
57.643258

> <b_lp_Chiralities_Consistent>
1

> <s_lp_Variant>
CHEMBL260_lig114-1

> <s_i_glide_gridfile>
glide-grid_2qd9

> <i_i_glide_lignum>
130

> <i_i_glide_rotatable_bonds>
4

> <r_i_docking_score>
-9.91017791531143

> <r_i_glide_ligand_efficiency>
-0.291475821038571

> <r_i_glide_ligand_efficiency_sa>
-0.944268508513656

> <r_i_glide_ligand_efficiency_ln>
-2.18943627256731

> <r_i_glide_gscore>
-9.91017791531143

> <r_i_glide_lipo>
-3.73895984371801

> <r_i_glide_hbond>
-0.758032802890477

> <r_i_glide_metal>
0

> <r_i_glide_rewards>
-2.24717166741409

> <r_i_glide_evdw>
-35.9422340393066

> <r_i_glide_ecoul>
-10.3740844726562

> <r_i_glide_erotb>
0.22586666875971

> <r_i_glide_esite>
-0.038655897184793

> <r_i_glide_emodel>
-58.1057490463702

> <r_i_glide_energy>
-46.3163185119629

> <r_i_glide_einternal>
4.477942943573

> <i_i_glide_confnum>
17

> <i_i_glide_posenum>
226

> <r_i_glide_eff_state_penalty>
0

> <s_user_duplicate_titles>
CHEMBL260_lig114,154711

> <s_m_subgroup_title>
dock_pv

> <s_m_subgroupid>
dock_pv

> <b_m_subgroup_collapsed>
1

$$$$
CHEMBL260_lig871
                    3D
 Schrodinger Suite 2021-1.
 43 46  0  0  1  0            999 V2000
   -1.8576   -1.0913   26.5509 C   0  0  0  0  0  0
   -2.3509   -1.2428   25.2544 C   0  0  0  0  0  0
   -1.4934   -1.1544   24.1455 C   0  0  0  0  0  0
   -0.1322   -0.8762   24.3733 C   0  0  0  0  0  0
    0.3521   -0.7141   25.6717 C   0  0  0  0  0  0
   -0.5066   -0.8297   26.7606 C   0  0  0  0  0  0
    0.9780   -0.6775   23.0760 Cl  0  0  0  0  0  0
   -4.0347   -1.5125   25.0475 Cl  0  0  0  0  0  0
   -2.0129   -1.3127   22.8085 N   0  0  0  0  0  0
   -2.0117   -2.5649   22.2987 C   0  0  0  0  0  0
   -2.4358   -2.7130   21.0179 N   0  0  0  0  0  0
   -2.9166   -1.6408   20.1232 C   0  0  0  0  0  0
   -2.4370   -0.1887   22.0828 C   0  0  0  0  0  0
   -2.8418   -0.2623   20.7407 C   0  0  0  0  0  0
   -3.1341    0.9587   20.0837 C   0  0  0  0  0  0
   -2.8349    2.1574   20.7075 N   0  0  0  0  0  0
   -2.4352    2.0625   22.0246 C   0  0  0  0  0  0
   -2.3396    0.9617   22.7445 N   0  0  0  0  0  0
   -3.8042    1.0027   18.7143 C   0  0  0  0  0  0
   -3.0878    1.0308   17.5041 C   0  0  0  0  0  0
   -3.6823    1.0952   16.2455 C   0  0  0  0  0  0
   -5.0601    1.0352   16.1415 C   0  0  0  0  0  0
   -5.8028    0.8872   17.3016 C   0  0  0  0  0  0
   -5.1963    0.8865   18.5577 C   0  0  0  0  0  0
   -6.2300    0.5642   19.8759 Cl  0  0  0  0  0  0
   -1.6360    3.3569   22.9502 S   0  0  0  0  0  0
   -1.6350   -3.5131   22.9533 O   0  0  0  0  0  0
   -0.8148    4.0870   21.9926 O   0  0  0  0  0  0
   -2.6682    4.0240   23.7518 O   0  0  0  0  0  0
   -0.4281    2.5634   24.1653 C   0  0  0  0  0  0
   -2.5237   -1.1707   27.3978 H   0  0  0  0  0  0
    1.3996   -0.5058   25.8373 H   0  0  0  0  0  0
   -0.1243   -0.7143   27.7649 H   0  0  0  0  0  0
   -2.5185   -3.6635   20.6752 H   0  0  0  0  0  0
   -3.9555   -1.8389   19.8762 H   0  0  0  0  0  0
   -2.3554   -1.6679   19.1884 H   0  0  0  0  0  0
   -2.0352    0.9220   17.4763 H   0  0  0  0  0  0
   -3.0731    1.1333   15.3534 H   0  0  0  0  0  0
   -5.5423    1.0432   15.1747 H   0  0  0  0  0  0
   -6.8597    0.7530   17.2300 H   0  0  0  0  0  0
    0.0807    3.3571   24.7088 H   0  0  0  0  0  0
   -0.9755    1.9319   24.8627 H   0  0  0  0  0  0
    0.3028    1.9872   23.6028 H   0  0  0  0  0  0
  1  6  1  0  0  0
  1  2  2  0  0  0
  1 31  1  0  0  0
  2  8  1  0  0  0
  2  3  1  0  0  0
  3  4  2  0  0  0
  3  9  1  0  0  0
  4  7  1  0  0  0
  4  5  1  0  0  0
  5  6  2  0  0  0
  5 32  1  0  0  0
  6 33  1  0  0  0
  9 10  1  0  0  0
  9 13  1  0  0  0
 10 11  1  0  0  0
 10 27  2  0  0  0
 11 12  1  0  0  0
 11 34  1  0  0  0
 12 14  1  0  0  0
 12 35  1  0  0  0
 12 36  1  0  0  0
 13 18  1  0  0  0
 13 14  2  0  0  0
 14 15  1  0  0  0
 15 16  2  0  0  0
 15 19  1  0  0  0
 16 17  1  0  0  0
 17 18  2  0  0  0
 17 26  1  0  0  0
 19 20  2  0  0  0
 19 24  1  0  0  0
 20 21  1  0  0  0
 20 37  1  0  0  0
 21 22  2  0  0  0
 21 38  1  0  0  0
 22 23  1  0  0  0
 22 39  1  0  0  0
 23 24  2  0  0  0
 23 40  1  0  0  0
 24 25  1  0  0  0
 26 28  2  0  0  0
 26 29  2  0  0  0
 26 30  1  0  0  0
 30 41  1  0  0  0
 30 42  1  0  0  0
 30 43  1  0  0  0
M  END
> <s_m_entry_id>
60753

> <s_m_entry_name>
dock_pv.30

> <s_m_Source_Path>
/home/csk/Desktop/cluster/DUD-E-result/mk14

> <s_m_Source_File>
dock_pv.maegz

> <i_m_Source_File_Index>
30

> <chembl_id>
CHEMBL212937

> <chembl_pref_name>
None

> <i_lp_mmshare_version>
53161

> <i_f3d_flags>
0

> <r_lp_tautomer_probability>
1

> <s_lp_Force_Field>
OPLS_2005

> <r_lp_Energy>
34.901467

> <b_lp_Chiralities_Consistent>
1

> <s_lp_Variant>
CHEMBL260_lig871-1

> <s_i_glide_gridfile>
glide-grid_2qd9

> <i_i_glide_lignum>
969

> <i_i_glide_rotatable_bonds>
3

> <r_i_docking_score>
-9.90781577286429

> <r_i_glide_ligand_efficiency>
-0.330260525762143

> <r_i_glide_ligand_efficiency_sa>
-1.02619623991811

> <r_i_glide_ligand_efficiency_ln>
-2.25116369789407

> <r_i_glide_gscore>
-9.90781577286429

> <r_i_glide_lipo>
-3.90856069171614

> <r_i_glide_hbond>
-0.783246217789812

> <r_i_glide_metal>
0

> <r_i_glide_rewards>
-1.66587416639273

> <r_i_glide_evdw>
-31.0859756469727

> <r_i_glide_ecoul>
-13.3690385818481

> <r_i_glide_erotb>
0.121461047411597

> <r_i_glide_esite>
-0.111941174751358

> <r_i_glide_emodel>
-63.2997597542608

> <r_i_glide_energy>
-44.4550142288208

> <r_i_glide_einternal>
3.99164342880249

> <i_i_glide_confnum>
6

> <i_i_glide_posenum>
219

> <r_i_glide_eff_state_penalty>
0

> <s_user_duplicate_titles>
CHEMBL260_lig871,355319

> <s_m_subgroup_title>
dock_pv

> <s_m_subgroupid>
dock_pv

> <b_m_subgroup_collapsed>
1

$$$$
CHEMBL260_lig1654
                    3D
 Schrodinger Suite 2021-1.
 42 44  0  0  1  0            999 V2000
   -5.1138    0.8877   15.9478 C   0  0  0  0  0  0
   -3.8307    1.4157   16.0179 C   0  0  0  0  0  0
   -3.2515    1.6678   17.2595 C   0  0  0  0  0  0
   -3.9262    1.3363   18.4497 C   0  0  0  0  0  0
   -5.2510    0.8870   18.3633 C   0  0  0  0  0  0
   -5.8428    0.6898   17.1158 C   0  0  0  0  0  0
   -3.2724    1.5239   19.7867 C   0  0  0  0  0  0
   -2.9724    0.3178   20.6710 C   0  0  0  0  0  0
   -2.9713    2.6722   20.1257 O   0  0  0  0  0  0
   -3.0546   -0.9668   20.1117 C   0  0  0  0  0  0
   -2.7681   -2.0974   20.8725 C   0  0  0  0  0  0
   -2.3763   -1.9718   22.1527 N   0  3  0  0  0  0
   -2.2401   -0.7601   22.7577 C   0  0  0  0  0  0
   -2.5529    0.4089   22.0246 C   0  0  0  0  0  0
   -2.1063   -3.0431   22.7714 O   0  5  0  0  0  0
   -2.4351    1.6477   22.6655 N   0  0  0  0  0  0
   -1.6978   -0.7308   24.1570 C   0  0  0  0  0  0
   -0.3724   -0.3356   24.4177 C   0  0  0  0  0  0
    0.1093   -0.3035   25.7235 C   0  0  0  0  0  0
   -0.7035   -0.6620   26.8035 C   0  0  0  0  0  0
   -2.0198   -1.0684   26.5449 C   0  0  0  0  0  0
   -2.5073   -1.1055   25.2361 C   0  0  0  0  0  0
   -5.9676    0.6012   19.4762 F   0  0  0  0  0  0
   -5.6348    0.5384   14.7526 F   0  0  0  0  0  0
    0.5745    0.0531   23.3011 C   0  0  0  0  0  0
   -0.1640   -0.6189   28.2120 C   0  0  0  0  0  0
   -0.8560   -0.8626   29.1970 O   0  0  0  0  0  0
    1.1628   -0.3130   28.2976 O   0  0  0  0  0  0
   -3.2816    1.6199   15.1104 H   0  0  0  0  0  0
   -2.2728    2.1124   17.2512 H   0  0  0  0  0  0
   -6.8348    0.2777   17.0627 H   0  0  0  0  0  0
   -3.3315   -1.1117   19.0788 H   0  0  0  0  0  0
   -2.8206   -3.1100   20.4928 H   0  0  0  0  0  0
   -1.9935    1.6784   23.5739 H   0  0  0  0  0  0
   -2.4684    2.4690   22.0746 H   0  0  0  0  0  0
    1.1335    0.0041   25.8869 H   0  0  0  0  0  0
   -2.6725   -1.3635   27.3554 H   0  0  0  0  0  0
   -3.5243   -1.4247   25.0587 H   0  0  0  0  0  0
    1.5275    0.4407   23.6636 H   0  0  0  0  0  0
    0.7638   -0.8142   22.6760 H   0  0  0  0  0  0
    0.1190    0.8221   22.6813 H   0  0  0  0  0  0
    1.4902   -0.4034   29.1994 H   0  0  0  0  0  0
  1 24  1  0  0  0
  1  6  1  0  0  0
  1  2  2  0  0  0
  2  3  1  0  0  0
  2 29  1  0  0  0
  3  4  2  0  0  0
  3 30  1  0  0  0
  4  7  1  0  0  0
  4  5  1  0  0  0
  5 23  1  0  0  0
  5  6  2  0  0  0
  6 31  1  0  0  0
  7  8  1  0  0  0
  7  9  2  0  0  0
  8 14  1  0  0  0
  8 10  2  0  0  0
 10 11  1  0  0  0
 10 32  1  0  0  0
 11 12  2  0  0  0
 11 33  1  0  0  0
 12 15  1  0  0  0
 12 13  1  0  0  0
 13 14  2  0  0  0
 13 17  1  0  0  0
 14 16  1  0  0  0
 16 34  1  0  0  0
 16 35  1  0  0  0
 17 18  2  0  0  0
 17 22  1  0  0  0
 18 19  1  0  0  0
 18 25  1  0  0  0
 19 20  2  0  0  0
 19 36  1  0  0  0
 20 21  1  0  0  0
 20 26  1  0  0  0
 21 22  2  0  0  0
 21 37  1  0  0  0
 22 38  1  0  0  0
 25 39  1  0  0  0
 25 40  1  0  0  0
 25 41  1  0  0  0
 26 27  2  0  0  0
 26 28  1  0  0  0
 28 42  1  0  0  0
M  CHG  2  12   1  15  -1
M  END
> <s_m_entry_id>
60754

> <s_m_entry_name>
dock_pv.31

> <s_m_Source_Path>
/home/csk/Desktop/cluster/DUD-E-result/mk14

> <s_m_Source_File>
dock_pv.maegz

> <i_m_Source_File_Index>
31

> <chembl_id>
CHEMBL563235

> <chembl_pref_name>
None

> <i_lp_mmshare_version>
53161

> <i_f3d_flags>
0

> <r_lp_tautomer_probability>
1

> <s_lp_Force_Field>
OPLS_2005

> <r_lp_Energy>
41.196247

> <b_lp_Chiralities_Consistent>
1

> <s_lp_Variant>
CHEMBL260_lig1654-1

> <s_i_glide_gridfile>
glide-grid_2qd9

> <i_i_glide_lignum>
1906

> <i_i_glide_rotatable_bonds>
5

> <r_i_docking_score>
-9.87761209070164

> <r_i_glide_ligand_efficiency>
-0.352771860382201

> <r_i_glide_ligand_efficiency_sa>
-1.07122313963481

> <r_i_glide_ligand_efficiency_ln>
-2.28004288982705

> <r_i_glide_gscore>
-9.87761209070164

> <r_i_glide_lipo>
-3.57380815527622

> <r_i_glide_hbond>
-0.142250118971989

> <r_i_glide_metal>
0

> <r_i_glide_rewards>
-2.33121552655251

> <r_i_glide_evdw>
-37.8774032592773

> <r_i_glide_ecoul>
-16.4195938110352

> <r_i_glide_erotb>
0.52647094471822

> <r_i_glide_esite>
0

> <r_i_glide_emodel>
-74.5279921329859

> <r_i_glide_energy>
-54.2969970703125

> <r_i_glide_einternal>
13.2819938659668

> <i_i_glide_confnum>
14

> <i_i_glide_posenum>
262

> <r_i_glide_eff_state_penalty>
0

> <s_user_duplicate_titles>
CHEMBL260_lig1654,565455

> <s_m_subgroup_title>
dock_pv

> <s_m_subgroupid>
dock_pv

> <b_m_subgroup_collapsed>
1

$$$$
CHEMBL260_lig107
                    3D
 Schrodinger Suite 2021-1.
 54 58  0  0  1  0            999 V2000
   -1.5314   -1.2863   22.6068 N   0  0  0  0  0  0
   -1.8585   -0.1142   21.9114 C   0  0  0  0  0  0
   -2.4988   -0.1660   20.6625 C   0  0  0  0  0  0
   -3.0018    1.0159   20.0819 C   0  0  0  0  0  0
   -1.6885   -2.5323   22.1025 C   0  0  0  0  0  0
   -1.3149   -1.1942   24.0216 C   0  0  0  0  0  0
   -3.7585    0.9774   18.7767 C   0  0  0  0  0  0
   -2.0349   -2.6256   20.7974 N   0  0  0  0  0  0
   -1.6399    1.0960   22.5326 C   0  0  0  0  0  0
   -2.8350    2.2214   20.7949 C   0  0  0  0  0  0
   -2.2127    2.2398   22.0600 C   0  0  0  0  0  0
   -5.1586    0.9183   18.7392 C   0  0  0  0  0  0
   -2.6451   -1.5363   20.0164 C   0  0  0  0  0  0
   -5.8541    0.8870   17.5298 C   0  0  0  0  0  0
   -3.1024    0.9413   17.5372 C   0  0  0  0  0  0
   -2.4050   -1.2486   24.9144 C   0  0  0  0  0  0
   -0.0222   -0.9636   24.5308 C   0  0  0  0  0  0
   -1.6350   -3.5130   22.8114 O   0  0  0  0  0  0
   -1.3361    4.7350   25.5528 N   0  0  2  0  0  0
   -2.2062    3.4001   23.0458 C   0  0  0  0  0  0
   -5.1670    0.8870   16.3223 C   0  0  0  0  0  0
   -5.8704    0.8869   19.8760 F   0  0  0  0  0  0
   -3.7836    0.9213   16.3244 C   0  0  0  0  0  0
   -4.0346   -1.3811   24.3472 Cl  0  0  0  0  0  0
    1.3352   -0.7130   23.4877 Cl  0  0  0  0  0  0
   -5.8271    0.7794   15.1537 F   0  0  0  0  0  0
   -0.9010   -0.9625   26.7857 C   0  0  0  0  0  0
   -2.6982    4.2169   25.4359 C   0  0  0  0  0  0
   -0.7414    5.1279   24.2760 C   0  0  0  0  0  0
   -2.1883   -1.1519   26.2890 C   0  0  0  0  0  0
    0.1732   -0.8493   25.9068 C   0  0  0  0  0  0
   -2.7719    3.0360   24.4496 C   0  0  0  0  0  0
   -0.7845    3.9890   23.2377 C   0  0  0  0  0  0
   -2.1308   -3.5638   20.4300 H   0  0  0  0  0  0
   -1.1103    1.1536   23.4686 H   0  0  0  0  0  0
   -3.2533    3.1304   20.3918 H   0  0  0  0  0  0
   -3.7000   -1.7612   19.8760 H   0  0  0  0  0  0
   -2.1901   -1.5179   19.0266 H   0  0  0  0  0  0
   -6.9278    0.8248   17.5343 H   0  0  0  0  0  0
   -2.0362    0.8871   17.4759 H   0  0  0  0  0  0
   -0.7560    4.0070   25.9511 H   0  0  0  0  0  0
   -2.9043    4.0870   22.6113 H   0  0  0  0  0  0
   -3.2407    0.8872   15.3907 H   0  0  0  0  0  0
   -0.7364   -0.8834   27.8508 H   0  0  0  0  0  0
   -3.3674    5.0201   25.1293 H   0  0  0  0  0  0
   -3.0279    3.8956   26.4252 H   0  0  0  0  0  0
   -1.2350    6.0222   23.8978 H   0  0  0  0  0  0
    0.2964    5.4061   24.4658 H   0  0  0  0  0  0
   -3.0220   -1.2073   26.9737 H   0  0  0  0  0  0
    1.1653   -0.6700   26.2967 H   0  0  0  0  0  0
   -3.8243    2.7680   24.3516 H   0  0  0  0  0  0
   -2.2869    2.1796   24.9182 H   0  0  0  0  0  0
   -0.0503    3.2314   23.5169 H   0  0  0  0  0  0
   -0.4352    4.4109   22.2935 H   0  0  0  0  0  0
  1  2  1  0  0  0
  1  5  1  0  0  0
  1  6  1  0  0  0
  2  3  2  0  0  0
  2  9  1  0  0  0
  3  4  1  0  0  0
  3 13  1  0  0  0
  4  7  1  0  0  0
  4 10  2  0  0  0
  5  8  1  0  0  0
  5 18  2  0  0  0
  6 16  1  0  0  0
  6 17  2  0  0  0
  7 12  1  0  0  0
  7 15  2  0  0  0
  8 13  1  0  0  0
  8 34  1  0  0  0
  9 11  2  0  0  0
  9 35  1  0  0  0
 10 11  1  0  0  0
 10 36  1  0  0  0
 11 20  1  0  0  0
 12 14  2  0  0  0
 12 22  1  0  0  0
 13 37  1  0  0  0
 13 38  1  0  0  0
 14 21  1  0  0  0
 14 39  1  0  0  0
 15 23  1  0  0  0
 15 40  1  0  0  0
 16 24  1  0  0  0
 16 30  2  0  0  0
 17 25  1  0  0  0
 17 31  1  0  0  0
 19 29  1  0  0  0
 19 28  1  0  0  0
 19 41  1  0  0  0
 20 32  1  0  0  0
 20 33  1  0  0  0
 20 42  1  0  0  0
 21 23  2  0  0  0
 21 26  1  0  0  0
 23 43  1  0  0  0
 27 31  2  0  0  0
 27 30  1  0  0  0
 27 44  1  0  0  0
 28 32  1  0  0  0
 28 45  1  0  0  0
 28 46  1  0  0  0
 29 33  1  0  0  0
 29 47  1  0  0  0
 29 48  1  0  0  0
 30 49  1  0  0  0
 31 50  1  0  0  0
 32 51  1  0  0  0
 32 52  1  0  0  0
 33 53  1  0  0  0
 33 54  1  0  0  0
M  END
> <s_m_entry_id>
60755

> <s_m_entry_name>
dock_pv.32

> <s_m_Source_Path>
/home/csk/Desktop/cluster/DUD-E-result/mk14

> <s_m_Source_File>
dock_pv.maegz

> <i_m_Source_File_Index>
32

> <chembl_id>
CHEMBL319556

> <chembl_pref_name>
None

> <i_lp_mmshare_version>
53161

> <i_f3d_flags>
0

> <r_lp_tautomer_probability>
1

> <s_lp_Force_Field>
OPLS_2005

> <r_lp_Energy>
59.38499

> <b_lp_Chiralities_Consistent>
1

> <s_lp_Variant>
CHEMBL260_lig107-1

> <s_i_glide_gridfile>
glide-grid_2qd9

> <i_i_glide_lignum>
123

> <i_i_glide_rotatable_bonds>
3

> <r_i_docking_score>
-9.85377978464105

> <r_i_glide_ligand_efficiency>
-0.298599387413365

> <r_i_glide_ligand_efficiency_sa>
-0.957767784927812

> <r_i_glide_ligand_efficiency_ln>
-2.19142960396298

> <r_i_glide_gscore>
-9.85377978464105

> <r_i_glide_lipo>
-3.86569985743629

> <r_i_glide_hbond>
-0.619293944029404

> <r_i_glide_metal>
0

> <r_i_glide_rewards>
-2.37217206712338

> <r_i_glide_evdw>
-39.1636962890625

> <r_i_glide_ecoul>
-8.11662197113037

> <r_i_glide_erotb>
0.179064194070712

> <r_i_glide_esite>
0

> <r_i_glide_emodel>
-60.4624303166155

> <r_i_glide_energy>
-47.2803182601929

> <r_i_glide_einternal>
2.91671419143677

> <i_i_glide_confnum>
34

> <i_i_glide_posenum>
362

> <r_i_glide_eff_state_penalty>
0

> <s_user_duplicate_titles>
CHEMBL260_lig107,154225

> <s_m_subgroup_title>
dock_pv

> <s_m_subgroupid>
dock_pv

> <b_m_subgroup_collapsed>
1

$$$$
CHEMBL260_lig91
                    3D
 Schrodinger Suite 2021-1.
 45 48  0  0  1  0            999 V2000
   -1.8788   -1.2331   22.7057 N   0  0  0  0  0  0
   -2.1717   -0.0153   22.0468 C   0  0  0  0  0  0
   -2.7253   -0.0172   20.7536 C   0  0  0  0  0  0
   -3.0154    1.2001   20.0993 C   0  0  0  0  0  0
   -2.0450   -2.4707   22.1623 C   0  0  0  0  0  0
   -1.4324   -1.1895   24.0653 C   0  0  0  0  0  0
   -3.7549    1.1826   18.7776 C   0  0  0  0  0  0
   -2.4458   -2.5097   20.8708 N   0  0  0  0  0  0
   -1.8890    1.1919   22.6732 C   0  0  0  0  0  0
   -2.0471    2.3925   22.0194 C   0  0  0  0  0  0
   -2.6115    2.4036   20.7233 C   0  0  0  0  0  0
   -5.1426    0.9844   18.7373 C   0  0  0  0  0  0
   -2.9705   -1.3724   20.0972 C   0  0  0  0  0  0
   -1.5581    3.5565   22.8038 C   0  0  0  0  0  0
   -5.8331    0.8871   17.5285 C   0  0  0  0  0  0
   -3.1047    1.2473   17.5327 C   0  0  0  0  0  0
   -0.0821   -0.9342   24.3764 C   0  0  0  0  0  0
   -2.3531   -1.3240   25.1197 C   0  0  0  0  0  0
   -1.9040   -3.5130   22.7830 O   0  0  0  0  0  0
   -2.0574    3.9094   23.8757 O   0  0  0  0  0  0
   -5.1504    0.9483   16.3203 C   0  0  0  0  0  0
   -5.8464    0.8712   19.8754 F   0  0  0  0  0  0
   -3.7814    1.1528   16.3209 C   0  0  0  0  0  0
   -0.4346    4.0871   22.2761 O   0  0  0  0  0  0
    1.0883   -0.6050   23.1532 Cl  0  0  0  0  0  0
   -4.0351   -1.5130   24.8098 Cl  0  0  0  0  0  0
   -5.7962    0.7555   15.1537 F   0  0  0  0  0  0
   -0.5835   -1.0461   26.7405 C   0  0  0  0  0  0
    0.3303   -0.8637   25.7066 C   0  0  0  0  0  0
   -1.9254   -1.2684   26.4460 C   0  0  0  0  0  0
    0.2638    5.1357   22.9311 C   0  0  0  0  0  0
   -2.5673   -3.4330   20.4719 H   0  0  0  0  0  0
   -1.4729    1.2072   23.6714 H   0  0  0  0  0  0
   -2.7685    3.3420   20.2128 H   0  0  0  0  0  0
   -4.0349   -1.5128   19.9182 H   0  0  0  0  0  0
   -2.4920   -1.3878   19.1169 H   0  0  0  0  0  0
   -6.8932    0.7044   17.5332 H   0  0  0  0  0  0
   -2.0356    1.2890   17.4661 H   0  0  0  0  0  0
   -3.2390    1.1780   15.3867 H   0  0  0  0  0  0
   -0.2522   -0.9992   27.7681 H   0  0  0  0  0  0
    1.3673   -0.6677   25.9403 H   0  0  0  0  0  0
   -2.6364   -1.3839   27.2512 H   0  0  0  0  0  0
    1.1194    5.4401   22.3278 H   0  0  0  0  0  0
   -0.3772    6.0067   23.0759 H   0  0  0  0  0  0
    0.6346    4.8101   23.9044 H   0  0  0  0  0  0
  1  2  1  0  0  0
  1  5  1  0  0  0
  1  6  1  0  0  0
  2  3  2  0  0  0
  2  9  1  0  0  0
  3  4  1  0  0  0
  3 13  1  0  0  0
  4  7  1  0  0  0
  4 11  2  0  0  0
  5  8  1  0  0  0
  5 19  2  0  0  0
  6 17  2  0  0  0
  6 18  1  0  0  0
  7 12  1  0  0  0
  7 16  2  0  0  0
  8 13  1  0  0  0
  8 32  1  0  0  0
  9 10  2  0  0  0
  9 33  1  0  0  0
 10 11  1  0  0  0
 10 14  1  0  0  0
 11 34  1  0  0  0
 12 15  2  0  0  0
 12 22  1  0  0  0
 13 35  1  0  0  0
 13 36  1  0  0  0
 14 20  2  0  0  0
 14 24  1  0  0  0
 15 21  1  0  0  0
 15 37  1  0  0  0
 16 23  1  0  0  0
 16 38  1  0  0  0
 17 25  1  0  0  0
 17 29  1  0  0  0
 18 26  1  0  0  0
 18 30  2  0  0  0
 21 23  2  0  0  0
 21 27  1  0  0  0
 23 39  1  0  0  0
 24 31  1  0  0  0
 28 30  1  0  0  0
 28 29  2  0  0  0
 28 40  1  0  0  0
 29 41  1  0  0  0
 30 42  1  0  0  0
 31 43  1  0  0  0
 31 44  1  0  0  0
 31 45  1  0  0  0
M  END
> <s_m_entry_id>
60756

> <s_m_entry_name>
dock_pv.33

> <s_m_Source_Path>
/home/csk/Desktop/cluster/DUD-E-result/mk14

> <s_m_Source_File>
dock_pv.maegz

> <i_m_Source_File_Index>
33

> <chembl_id>
CHEMBL94547

> <chembl_pref_name>
None

> <i_lp_mmshare_version>
53161

> <i_f3d_flags>
0

> <r_lp_tautomer_probability>
1

> <s_lp_Force_Field>
OPLS_2005

> <r_lp_Energy>
48.702162

> <b_lp_Chiralities_Consistent>
1

> <s_lp_Variant>
CHEMBL260_lig91-1

> <s_i_glide_gridfile>
glide-grid_2qd9

> <i_i_glide_lignum>
107

> <i_i_glide_rotatable_bonds>
4

> <r_i_docking_score>
-9.84154067352904

> <r_i_glide_ligand_efficiency>
-0.317469053984808

> <r_i_glide_ligand_efficiency_sa>
-0.997291142779312

> <r_i_glide_ligand_efficiency_ln>
-2.21956902888081

> <r_i_glide_gscore>
-9.84154067352904

> <r_i_glide_lipo>
-3.78537269758618

> <r_i_glide_hbond>
-0.680611397839621

> <r_i_glide_metal>
0

> <r_i_glide_rewards>
-2.55197441549556

> <r_i_glide_evdw>
-29.5391540527344

> <r_i_glide_ecoul>
-10.0131006240845

> <r_i_glide_erotb>
0.197174632527227

> <r_i_glide_esite>
-0.0418339988855178

> <r_i_glide_emodel>
-40.0175172577306

> <r_i_glide_energy>
-39.5522546768188

> <r_i_glide_einternal>
9.94327163696289

> <i_i_glide_confnum>
16

> <i_i_glide_posenum>
379

> <r_i_glide_eff_state_penalty>
0

> <s_user_duplicate_titles>
CHEMBL260_lig91,154324

> <s_m_subgroup_title>
dock_pv

> <s_m_subgroupid>
dock_pv

> <b_m_subgroup_collapsed>
1

$$$$
CHEMBL260_lig899
                    3D
 Schrodinger Suite 2021-1.
 41 44  0  0  1  0            999 V2000
   -2.0362   -1.1966   26.2505 C   0  0  0  0  0  0
   -2.3730   -1.2932   24.9001 C   0  0  0  0  0  0
   -1.3828   -1.1553   23.9083 C   0  0  0  0  0  0
   -0.0711   -0.8196   24.3027 C   0  0  0  0  0  0
    0.2473   -0.7077   25.6565 C   0  0  0  0  0  0
   -0.7260   -0.9167   26.6296 C   0  0  0  0  0  0
    1.1635   -0.4425   23.1549 Cl  0  0  0  0  0  0
   -4.0350   -1.5119   24.4870 Cl  0  0  0  0  0  0
   -1.7333   -1.2499   22.5186 N   0  0  0  0  0  0
   -1.8121   -2.4944   21.9792 C   0  0  0  0  0  0
   -2.1767   -2.5626   20.6741 N   0  0  0  0  0  0
   -2.8351   -1.4803   19.9142 C   0  0  0  0  0  0
   -2.0981   -0.0785   21.8300 C   0  0  0  0  0  0
   -2.6601   -0.1117   20.5492 C   0  0  0  0  0  0
   -3.0462    1.1257   19.9798 C   0  0  0  0  0  0
   -2.8356    2.3056   20.6757 N   0  0  0  0  0  0
   -2.2912    2.1930   21.9383 C   0  0  0  0  0  0
   -1.9142    1.0585   22.5054 N   0  0  0  0  0  0
   -3.7624    1.1826   18.6358 C   0  0  0  0  0  0
   -3.0961    1.4087   17.4113 C   0  0  0  0  0  0
   -3.7463    1.4224   16.1784 C   0  0  0  0  0  0
   -5.1062    1.1694   16.1145 C   0  0  0  0  0  0
   -5.7893    0.8863   17.2871 C   0  0  0  0  0  0
   -5.1342    0.8877   18.5194 C   0  0  0  0  0  0
   -6.0908    0.4868   19.8762 Cl  0  0  0  0  0  0
   -2.0348    3.5335   23.0759 S   0  0  0  0  0  0
   -1.2281    2.9152   24.5881 C   0  0  0  0  0  0
   -1.6346   -3.5130   22.6239 O   0  0  0  0  0  0
   -2.7961   -1.3181   27.0087 H   0  0  0  0  0  0
    1.2549   -0.4563   25.9559 H   0  0  0  0  0  0
   -0.4682   -0.8373   27.6762 H   0  0  0  0  0  0
   -2.2402   -3.4946   20.2840 H   0  0  0  0  0  0
   -3.9009   -1.6962   19.8759 H   0  0  0  0  0  0
   -2.4360   -1.4744   18.8987 H   0  0  0  0  0  0
   -2.0350    1.5404   17.3339 H   0  0  0  0  0  0
   -3.1885    1.6074   15.2710 H   0  0  0  0  0  0
   -5.6202    1.1620   15.1642 H   0  0  0  0  0  0
   -6.8352    0.6429   17.2413 H   0  0  0  0  0  0
   -1.0571    3.7337   25.2870 H   0  0  0  0  0  0
   -1.8510    2.1675   25.0800 H   0  0  0  0  0  0
   -0.2650    2.4624   24.3494 H   0  0  0  0  0  0
  1  2  2  0  0  0
  1  6  1  0  0  0
  1 29  1  0  0  0
  2  8  1  0  0  0
  2  3  1  0  0  0
  3  4  2  0  0  0
  3  9  1  0  0  0
  4  7  1  0  0  0
  4  5  1  0  0  0
  5  6  2  0  0  0
  5 30  1  0  0  0
  6 31  1  0  0  0
  9 10  1  0  0  0
  9 13  1  0  0  0
 10 11  1  0  0  0
 10 28  2  0  0  0
 11 12  1  0  0  0
 11 32  1  0  0  0
 12 14  1  0  0  0
 12 33  1  0  0  0
 12 34  1  0  0  0
 13 14  2  0  0  0
 13 18  1  0  0  0
 14 15  1  0  0  0
 15 16  2  0  0  0
 15 19  1  0  0  0
 16 17  1  0  0  0
 17 18  2  0  0  0
 17 26  1  0  0  0
 19 20  2  0  0  0
 19 24  1  0  0  0
 20 21  1  0  0  0
 20 35  1  0  0  0
 21 22  2  0  0  0
 21 36  1  0  0  0
 22 23  1  0  0  0
 22 37  1  0  0  0
 23 24  2  0  0  0
 23 38  1  0  0  0
 24 25  1  0  0  0
 26 27  1  0  0  0
 27 39  1  0  0  0
 27 40  1  0  0  0
 27 41  1  0  0  0
M  END
> <s_m_entry_id>
60757

> <s_m_entry_name>
dock_pv.34

> <s_m_Source_Path>
/home/csk/Desktop/cluster/DUD-E-result/mk14

> <s_m_Source_File>
dock_pv.maegz

> <i_m_Source_File_Index>
34

> <chembl_id>
CHEMBL212753

> <chembl_pref_name>
None

> <i_lp_mmshare_version>
53161

> <i_f3d_flags>
0

> <r_lp_tautomer_probability>
1

> <s_lp_Force_Field>
OPLS_2005

> <r_lp_Energy>
36.627039

> <b_lp_Chiralities_Consistent>
1

> <s_lp_Variant>
CHEMBL260_lig899-1

> <s_i_glide_gridfile>
glide-grid_2qd9

> <i_i_glide_lignum>
1001

> <i_i_glide_rotatable_bonds>
3

> <r_i_docking_score>
-9.81314358563689

> <r_i_glide_ligand_efficiency>
-0.350469413772746

> <r_i_glide_ligand_efficiency_sa>
-1.06423155565997

> <r_i_glide_ligand_efficiency_ln>
-2.26516166598054

> <r_i_glide_gscore>
-9.81314358563689

> <r_i_glide_lipo>
-4.13813800359195

> <r_i_glide_hbond>
-0.557808691384413

> <r_i_glide_metal>
0

> <r_i_glide_rewards>
-1.95543316051279

> <r_i_glide_evdw>
-33.7867660522461

> <r_i_glide_ecoul>
-10.7335519790649

> <r_i_glide_erotb>
0.13760736932431

> <r_i_glide_esite>
0

> <r_i_glide_emodel>
-55.7850676912598

> <r_i_glide_energy>
-44.520318031311

> <r_i_glide_einternal>
1.23533022403717

> <i_i_glide_confnum>
6

> <i_i_glide_posenum>
210

> <r_i_glide_eff_state_penalty>
0

> <s_user_duplicate_titles>
CHEMBL260_lig899,355318

> <s_m_subgroup_title>
dock_pv

> <s_m_subgroupid>
dock_pv

> <b_m_subgroup_collapsed>
1

$$$$
CHEMBL260_lig1635
                    3D
 Schrodinger Suite 2021-1.
 36 38  0  0  1  0            999 V2000
   -5.1073    1.2223   15.7270 C   0  0  0  0  0  0
   -3.7891    1.6369   15.8492 C   0  0  0  0  0  0
   -3.1838    1.6864   17.0977 C   0  0  0  0  0  0
   -3.8817    1.3098   18.2618 C   0  0  0  0  0  0
   -5.2226    0.9024   18.1262 C   0  0  0  0  0  0
   -5.8166    0.8671   16.8664 C   0  0  0  0  0  0
   -3.2378    1.4634   19.6117 C   0  0  0  0  0  0
   -2.8431    0.2415   20.4259 C   0  0  0  0  0  0
   -3.0822    2.6090   20.0437 O   0  0  0  0  0  0
   -2.7047   -0.9818   19.7586 C   0  0  0  0  0  0
   -2.3856   -2.1414   20.4546 C   0  0  0  0  0  0
   -2.1836   -2.0972   21.7813 N   0  3  0  0  0  0
   -2.2439   -0.9394   22.4923 C   0  0  0  0  0  0
   -2.5655    0.2591   21.8187 C   0  0  0  0  0  0
   -1.9417   -3.1968   22.3585 O   0  5  0  0  0  0
   -2.6042    1.4463   22.5584 N   0  0  0  0  0  0
   -1.9765   -1.0222   23.9641 C   0  0  0  0  0  0
   -0.6744   -0.9548   24.4917 C   0  0  0  0  0  0
   -0.4644   -1.0832   25.8655 C   0  0  0  0  0  0
   -1.5422   -1.2789   26.7260 C   0  0  0  0  0  0
   -2.8356   -1.3486   26.2139 C   0  0  0  0  0  0
   -3.0498   -1.2155   24.8421 C   0  0  0  0  0  0
    0.7019   -0.7127   23.4743 Cl  0  0  0  0  0  0
   -6.2133    0.4870   19.4760 Cl  0  0  0  0  0  0
   -5.5797    1.1781   14.7563 H   0  0  0  0  0  0
   -3.2284    1.9224   14.9731 H   0  0  0  0  0  0
   -2.1620    2.0343   17.0918 H   0  0  0  0  0  0
   -6.8350    0.5356   16.7740 H   0  0  0  0  0  0
   -2.8347   -1.0491   18.6895 H   0  0  0  0  0  0
   -2.2943   -3.1130   19.9898 H   0  0  0  0  0  0
   -2.2189    1.4328   23.4919 H   0  0  0  0  0  0
   -2.6520    2.3095   22.0326 H   0  0  0  0  0  0
    0.5391   -1.0366   26.2656 H   0  0  0  0  0  0
   -1.3708   -1.3881   27.7872 H   0  0  0  0  0  0
   -3.6709   -1.5129   26.8795 H   0  0  0  0  0  0
   -4.0567   -1.2798   24.4536 H   0  0  0  0  0  0
  1  6  1  0  0  0
  1  2  2  0  0  0
  1 25  1  0  0  0
  2  3  1  0  0  0
  2 26  1  0  0  0
  3  4  2  0  0  0
  3 27  1  0  0  0
  4  7  1  0  0  0
  4  5  1  0  0  0
  5  6  2  0  0  0
  5 24  1  0  0  0
  6 28  1  0  0  0
  7  8  1  0  0  0
  7  9  2  0  0  0
  8 14  1  0  0  0
  8 10  2  0  0  0
 10 11  1  0  0  0
 10 29  1  0  0  0
 11 12  2  0  0  0
 11 30  1  0  0  0
 12 13  1  0  0  0
 12 15  1  0  0  0
 13 14  2  0  0  0
 13 17  1  0  0  0
 14 16  1  0  0  0
 16 31  1  0  0  0
 16 32  1  0  0  0
 17 18  2  0  0  0
 17 22  1  0  0  0
 18 19  1  0  0  0
 18 23  1  0  0  0
 19 20  2  0  0  0
 19 33  1  0  0  0
 20 21  1  0  0  0
 20 34  1  0  0  0
 21 22  2  0  0  0
 21 35  1  0  0  0
 22 36  1  0  0  0
M  CHG  2  12   1  15  -1
M  END
> <s_m_entry_id>
60758

> <s_m_entry_name>
dock_pv.35

> <s_m_Source_Path>
/home/csk/Desktop/cluster/DUD-E-result/mk14

> <s_m_Source_File>
dock_pv.maegz

> <i_m_Source_File_Index>
35

> <chembl_id>
CHEMBL569143

> <chembl_pref_name>
None

> <i_lp_mmshare_version>
53161

> <i_f3d_flags>
0

> <r_lp_tautomer_probability>
1

> <s_lp_Force_Field>
OPLS_2005

> <r_lp_Energy>
39.621304

> <b_lp_Chiralities_Consistent>
1

> <s_lp_Variant>
CHEMBL260_lig1635-1

> <s_i_glide_gridfile>
glide-grid_2qd9

> <i_i_glide_lignum>
1887

> <i_i_glide_rotatable_bonds>
3

> <r_i_docking_score>
-9.79557786206394

> <r_i_glide_ligand_efficiency>
-0.408149077585997

> <r_i_glide_ligand_efficiency_sa>
-1.17730566229236

> <r_i_glide_ligand_efficiency_ln>
-2.34453127217084

> <r_i_glide_gscore>
-9.79557786206394

> <r_i_glide_lipo>
-4.22455352473011

> <r_i_glide_hbond>
-0.16

> <r_i_glide_metal>
0

> <r_i_glide_rewards>
-1.80552679646905

> <r_i_glide_evdw>
-38.8576583862305

> <r_i_glide_ecoul>
-14.0547103881836

> <r_i_glide_erotb>
0.445591936674281

> <r_i_glide_esite>
0

> <r_i_glide_emodel>
-79.4005497426744

> <r_i_glide_energy>
-52.9123687744141

> <r_i_glide_einternal>
1.55906796455383

> <i_i_glide_confnum>
1

> <i_i_glide_posenum>
108

> <r_i_glide_eff_state_penalty>
0

> <s_user_duplicate_titles>
CHEMBL260_lig1635,563738

> <s_m_subgroup_title>
dock_pv

> <s_m_subgroupid>
dock_pv

> <b_m_subgroup_collapsed>
1

$$$$
CHEMBL260_lig1228
                    3D
 Schrodinger Suite 2021-1.
 61 65  0  0  1  0            999 V2000
    1.6109    7.2594   21.8761 N   0  0  1  0  0  0
    1.8628    6.0017   22.5897 C   0  0  1  0  0  0
    2.7133    8.1605   22.1754 C   0  0  0  0  0  0
    3.0757    6.2407   23.5152 C   0  0  0  0  0  0
    3.1955    7.7548   23.5636 C   0  0  0  0  0  0
    0.6278    5.5281   23.3980 C   0  0  0  0  0  0
   -0.1849    6.3206   23.8852 O   0  0  0  0  0  0
    0.5294    4.1974   23.5562 N   0  0  0  0  0  0
   -1.8169   -2.4593   22.1475 C   0  0  0  0  0  0
   -2.2025   -2.4679   20.7514 C   0  0  0  0  0  0
   -2.6628   -1.3866   20.0916 C   0  0  0  0  0  0
   -1.7649   -1.2080   22.7052 N   0  0  0  0  0  0
   -2.1788   -0.0107   22.0280 C   0  0  0  0  0  0
   -2.6665   -0.0550   20.7003 C   0  0  0  0  0  0
   -3.0686    1.1150   20.0101 C   0  0  0  0  0  0
   -2.8356    2.3360   20.6761 C   0  0  0  0  0  0
   -2.4046    2.3983   22.0132 C   0  0  0  0  0  0
   -2.1153    1.2167   22.6725 C   0  0  0  0  0  0
   -1.6352   -3.5129   22.7574 O   0  0  0  0  0  0
   -1.3954   -1.1267   24.0805 C   0  0  0  0  0  0
   -2.3734   -1.2776   25.0813 C   0  0  0  0  0  0
   -2.0215   -1.1921   26.4282 C   0  0  0  0  0  0
   -0.7064   -0.9198   26.7941 C   0  0  0  0  0  0
    0.2586   -0.7155   25.8123 C   0  0  0  0  0  0
   -0.0752   -0.8152   24.4617 C   0  0  0  0  0  0
    1.1569   -0.4717   23.3031 Cl  0  0  0  0  0  0
   -4.0351   -1.5129   24.6805 Cl  0  0  0  0  0  0
   -3.7625    1.0999   18.6508 C   0  0  0  0  0  0
   -3.0884    1.2879   17.4290 C   0  0  0  0  0  0
   -3.7212    1.3028   16.1881 C   0  0  0  0  0  0
   -5.0887    1.1105   16.1164 C   0  0  0  0  0  0
   -5.7882    0.8872   17.2907 C   0  0  0  0  0  0
   -5.1462    0.8864   18.5292 C   0  0  0  0  0  0
   -6.1218    0.4972   19.8759 Cl  0  0  0  0  0  0
   -2.3141    3.6221   22.6515 O   0  0  0  0  0  0
   -1.9488    3.7382   24.0355 C   0  0  0  0  0  0
   -0.4536    3.4843   24.3703 C   0  0  0  0  0  0
    1.5729    7.0378   20.8803 H   0  0  0  0  0  0
    2.1004    5.2276   21.8570 H   0  0  0  0  0  0
    3.5030    8.0634   21.4286 H   0  0  0  0  0  0
    2.3472    9.1869   22.1605 H   0  0  0  0  0  0
    3.9718    5.7947   23.0802 H   0  0  0  0  0  0
    2.9769    5.8118   24.5150 H   0  0  0  0  0  0
    4.2155    8.0837   23.7659 H   0  0  0  0  0  0
    2.5587    8.1934   24.3334 H   0  0  0  0  0  0
    1.2530    3.6286   23.1394 H   0  0  0  0  0  0
   -2.1647   -3.4197   20.2453 H   0  0  0  0  0  0
   -2.9727   -1.4942   19.0758 H   0  0  0  0  0  0
   -3.0917    3.2593   20.1807 H   0  0  0  0  0  0
   -1.8259    1.2482   23.7049 H   0  0  0  0  0  0
   -2.7721   -1.3213   27.1938 H   0  0  0  0  0  0
   -0.4354   -0.8512   27.8383 H   0  0  0  0  0  0
    1.2727   -0.4821   26.1030 H   0  0  0  0  0  0
   -2.0350    1.4031   17.3635 H   0  0  0  0  0  0
   -3.1471    1.4522   15.2843 H   0  0  0  0  0  0
   -5.5969    1.1040   15.1637 H   0  0  0  0  0  0
   -6.8357    0.6798   17.2377 H   0  0  0  0  0  0
   -2.5940    3.1106   24.6518 H   0  0  0  0  0  0
   -2.1965    4.7556   24.3343 H   0  0  0  0  0  0
   -0.2014    2.4289   24.2965 H   0  0  0  0  0  0
   -0.2756    3.7431   25.4156 H   0  0  0  0  0  0
  1  2  1  0  0  0
  1  3  1  0  0  0
  1 38  1  0  0  0
  2  4  1  0  0  0
  2  6  1  0  0  0
  2 39  1  0  0  0
  3  5  1  0  0  0
  3 40  1  0  0  0
  3 41  1  0  0  0
  4  5  1  0  0  0
  4 42  1  0  0  0
  4 43  1  0  0  0
  5 44  1  0  0  0
  5 45  1  0  0  0
  6  7  2  0  0  0
  6  8  1  0  0  0
  8 37  1  0  0  0
  8 46  1  0  0  0
  9 19  2  0  0  0
  9 12  1  0  0  0
  9 10  1  0  0  0
 10 11  2  0  0  0
 10 47  1  0  0  0
 11 14  1  0  0  0
 11 48  1  0  0  0
 12 20  1  0  0  0
 12 13  1  0  0  0
 13 18  1  0  0  0
 13 14  2  0  0  0
 14 15  1  0  0  0
 15 16  2  0  0  0
 15 28  1  0  0  0
 16 17  1  0  0  0
 16 49  1  0  0  0
 17 35  1  0  0  0
 17 18  2  0  0  0
 18 50  1  0  0  0
 20 21  2  0  0  0
 20 25  1  0  0  0
 21 22  1  0  0  0
 21 27  1  0  0  0
 22 23  2  0  0  0
 22 51  1  0  0  0
 23 24  1  0  0  0
 23 52  1  0  0  0
 24 25  2  0  0  0
 24 53  1  0  0  0
 25 26  1  0  0  0
 28 29  2  0  0  0
 28 33  1  0  0  0
 29 30  1  0  0  0
 29 54  1  0  0  0
 30 31  2  0  0  0
 30 55  1  0  0  0
 31 32  1  0  0  0
 31 56  1  0  0  0
 32 33  2  0  0  0
 32 57  1  0  0  0
 33 34  1  0  0  0
 35 36  1  0  0  0
 36 37  1  0  0  0
 36 58  1  0  0  0
 36 59  1  0  0  0
 37 60  1  0  0  0
 37 61  1  0  0  0
M  END
> <s_m_entry_id>
60759

> <s_m_entry_name>
dock_pv.36

> <s_m_Source_Path>
/home/csk/Desktop/cluster/DUD-E-result/mk14

> <s_m_Source_File>
dock_pv.maegz

> <i_m_Source_File_Index>
36

> <chembl_id>
CHEMBL409901

> <chembl_pref_name>
None

> <i_lp_mmshare_version>
53161

> <i_f3d_flags>
0

> <r_lp_tautomer_probability>
1

> <s_lp_Force_Field>
OPLS_2005

> <r_lp_Energy>
69.585965

> <b_lp_Chiralities_Consistent>
1

> <s_lp_Variant>
CHEMBL260_lig1228-1

> <s_i_glide_gridfile>
glide-grid_2qd9

> <i_i_glide_lignum>
1400

> <i_i_glide_rotatable_bonds>
8

> <r_i_docking_score>
-9.79072014464222

> <r_i_glide_ligand_efficiency>
-0.264614057963303

> <r_i_glide_ligand_efficiency_sa>
-0.881752745136716

> <r_i_glide_ligand_efficiency_ln>
-2.12337767232719

> <r_i_glide_gscore>
-9.79072014464222

> <r_i_glide_lipo>
-4.8032925054297

> <r_i_glide_hbond>
-0.52329702170689

> <r_i_glide_metal>
0

> <r_i_glide_rewards>
-0.43483796694823

> <r_i_glide_evdw>
-43.9018363952637

> <r_i_glide_ecoul>
-14.3727264404297

> <r_i_glide_erotb>
0.392674909442018

> <r_i_glide_esite>
-0.070966774171791

> <r_i_glide_emodel>
-74.015230043147

> <r_i_glide_energy>
-58.2745628356934

> <r_i_glide_einternal>
9.68708038330078

> <i_i_glide_confnum>
12

> <i_i_glide_posenum>
164

> <r_i_glide_eff_state_penalty>
0

> <s_user_duplicate_titles>
CHEMBL260_lig1228,434227

> <s_m_subgroup_title>
dock_pv

> <s_m_subgroupid>
dock_pv

> <b_m_subgroup_collapsed>
1

$$$$
CHEMBL260_lig868
                    3D
 Schrodinger Suite 2021-1.
 41 44  0  0  1  0            999 V2000
    0.3260   -0.7811   25.6370 C   0  0  0  0  0  0
   -0.0877   -0.8676   24.3079 C   0  0  0  0  0  0
   -1.4335   -1.1535   24.0017 C   0  0  0  0  0  0
   -2.3531   -1.2946   25.0559 C   0  0  0  0  0  0
   -1.9240   -1.2198   26.3815 C   0  0  0  0  0  0
   -0.5849   -0.9729   26.6727 C   0  0  0  0  0  0
   -4.0350   -1.5130   24.7478 Cl  0  0  0  0  0  0
    1.0734   -0.5299   23.0761 Cl  0  0  0  0  0  0
   -1.8764   -1.2329   22.6454 N   0  0  0  0  0  0
   -1.9490   -2.4831   22.1064 C   0  0  0  0  0  0
   -2.4322   -2.5567   20.8457 N   0  0  0  0  0  0
   -2.9749   -1.4432   20.0516 C   0  0  0  0  0  0
   -2.2337   -0.0351   21.9773 C   0  0  0  0  0  0
   -2.7936   -0.0756   20.6853 C   0  0  0  0  0  0
   -3.1287    1.1202   20.0078 C   0  0  0  0  0  0
   -2.7740    2.3388   20.6135 C   0  0  0  0  0  0
   -2.1682    2.3589   21.8758 C   0  0  0  0  0  0
   -1.9690    1.1949   22.5693 C   0  0  0  0  0  0
   -3.8111    1.1114   18.6593 C   0  0  0  0  0  0
   -3.0998    1.2872   17.4615 C   0  0  0  0  0  0
   -3.7043    1.3058   16.2074 C   0  0  0  0  0  0
   -5.0716    1.1150   16.1096 C   0  0  0  0  0  0
   -5.7966    0.8871   17.2697 C   0  0  0  0  0  0
   -5.1883    0.8869   18.5244 C   0  0  0  0  0  0
   -6.1760    0.5118   19.8760 Cl  0  0  0  0  0  0
   -1.6351   -3.5130   22.6902 O   0  0  0  0  0  0
   -1.6351    3.4943   22.4659 N   0  0  0  0  0  0
    1.3596   -0.5662   25.8690 H   0  0  0  0  0  0
   -2.6321   -1.3409   27.1884 H   0  0  0  0  0  0
   -0.2547   -0.9134   27.7001 H   0  0  0  0  0  0
   -2.5428   -3.4892   20.4659 H   0  0  0  0  0  0
   -4.0350   -1.6081   19.8760 H   0  0  0  0  0  0
   -2.4869   -1.4590   19.0762 H   0  0  0  0  0  0
   -2.9443    3.2655   20.0876 H   0  0  0  0  0  0
   -1.5118    1.2621   23.5449 H   0  0  0  0  0  0
   -2.0350    1.3536   17.4548 H   0  0  0  0  0  0
   -3.1093    1.4421   15.3152 H   0  0  0  0  0  0
   -5.5581    1.1032   15.1447 H   0  0  0  0  0  0
   -6.8352    0.6647   17.1902 H   0  0  0  0  0  0
   -1.1136    3.3207   23.3141 H   0  0  0  0  0  0
   -1.1944    4.1143   21.8016 H   0  0  0  0  0  0
  1  6  1  0  0  0
  1  2  2  0  0  0
  1 28  1  0  0  0
  2  8  1  0  0  0
  2  3  1  0  0  0
  3  4  2  0  0  0
  3  9  1  0  0  0
  4  7  1  0  0  0
  4  5  1  0  0  0
  5  6  2  0  0  0
  5 29  1  0  0  0
  6 30  1  0  0  0
  9 10  1  0  0  0
  9 13  1  0  0  0
 10 11  1  0  0  0
 10 26  2  0  0  0
 11 12  1  0  0  0
 11 31  1  0  0  0
 12 14  1  0  0  0
 12 32  1  0  0  0
 12 33  1  0  0  0
 13 14  2  0  0  0
 13 18  1  0  0  0
 14 15  1  0  0  0
 15 16  2  0  0  0
 15 19  1  0  0  0
 16 17  1  0  0  0
 16 34  1  0  0  0
 17 18  2  0  0  0
 17 27  1  0  0  0
 18 35  1  0  0  0
 19 20  2  0  0  0
 19 24  1  0  0  0
 20 21  1  0  0  0
 20 36  1  0  0  0
 21 22  2  0  0  0
 21 37  1  0  0  0
 22 23  1  0  0  0
 22 38  1  0  0  0
 23 24  2  0  0  0
 23 39  1  0  0  0
 24 25  1  0  0  0
 27 40  1  0  0  0
 27 41  1  0  0  0
M  END
> <s_m_entry_id>
60760

> <s_m_entry_name>
dock_pv.37

> <s_m_Source_Path>
/home/csk/Desktop/cluster/DUD-E-result/mk14

> <s_m_Source_File>
dock_pv.maegz

> <i_m_Source_File_Index>
37

> <chembl_id>
CHEMBL425422

> <chembl_pref_name>
None

> <i_lp_mmshare_version>
53161

> <i_f3d_flags>
0

> <r_lp_tautomer_probability>
1

> <s_lp_Force_Field>
OPLS_2005

> <r_lp_Energy>
50.001743

> <b_lp_Chiralities_Consistent>
1

> <s_lp_Variant>
CHEMBL260_lig868-1

> <s_i_glide_gridfile>
glide-grid_2qd9

> <i_i_glide_lignum>
966

> <i_i_glide_rotatable_bonds>
2

> <r_i_docking_score>
-9.78323239651369

> <r_i_glide_ligand_efficiency>
-0.362341940611618

> <r_i_glide_ligand_efficiency_sa>
-1.08702582064064

> <r_i_glide_ligand_efficiency_ln>
-2.2773752127169

> <r_i_glide_gscore>
-9.78323239651369

> <r_i_glide_lipo>
-4.20988992596223

> <r_i_glide_hbond>
-0.63603312203014

> <r_i_glide_metal>
0

> <r_i_glide_rewards>
-2.10732140695383

> <r_i_glide_evdw>
-30.210750579834

> <r_i_glide_ecoul>
-9.57314395904541

> <r_i_glide_erotb>
0.157931855385328

> <r_i_glide_esite>
-0.0414106741043103

> <r_i_glide_emodel>
-49.4000478052785

> <r_i_glide_energy>
-39.7838945388794

> <r_i_glide_einternal>
1.79852092266083

> <i_i_glide_confnum>
5

> <i_i_glide_posenum>
134

> <r_i_glide_eff_state_penalty>
0

> <s_user_duplicate_titles>
CHEMBL260_lig868,355640

> <s_m_subgroup_title>
dock_pv

> <s_m_subgroupid>
dock_pv

> <b_m_subgroup_collapsed>
1

$$$$
CHEMBL260_lig1043
                    3D
 Schrodinger Suite 2021-1.
 51 55  0  0  1  0            999 V2000
   -3.1553   -1.5537   21.5444 C   0  0  0  0  0  0
   -2.1907   -1.0763   22.5630 N   0  0  0  0  0  0
   -1.9725    0.3842   22.7288 C   0  0  0  0  0  0
   -2.9273   -0.8336   20.1992 C   0  0  0  0  0  0
   -3.3458    1.6319   19.5865 C   0  0  0  0  0  0
   -2.9917    0.6013   20.4335 N   0  0  0  0  0  0
   -2.4356    1.1952   21.5343 C   0  0  0  0  0  0
   -2.4350    2.5417   21.2209 C   0  0  0  0  0  0
   -2.9838    2.8052   20.0494 N   0  0  0  0  0  0
   -1.8008   -1.9685   23.5193 C   0  0  0  0  0  0
   -2.0345   -3.1787   23.4537 O   0  0  0  0  0  0
   -4.0293    1.4164   18.2828 C   0  0  0  0  0  0
   -5.3227    0.8867   18.2473 C   0  0  0  0  0  0
   -5.8909    0.5029   17.0310 C   0  0  0  0  0  0
   -5.1914    0.6975   15.8423 C   0  0  0  0  0  0
   -3.9488    1.3247   15.8668 C   0  0  0  0  0  0
   -3.3731    1.6871   17.0800 C   0  0  0  0  0  0
   -5.6901    0.2360   14.6761 F   0  0  0  0  0  0
   -5.9979    0.6449   19.3956 F   0  0  0  0  0  0
   -1.1961   -1.4461   24.7995 C   0  0  0  0  0  0
   -1.9599   -1.6052   25.9628 C   0  0  0  0  0  0
    0.5342   -0.2693   26.0431 C   0  0  0  0  0  0
    0.0599   -0.8127   24.8372 C   0  0  0  0  0  0
    0.7882   -0.7394   23.6595 O   0  0  0  0  0  0
    2.0854   -0.1470   23.6572 C   0  0  0  0  0  0
    0.0001   -0.0578   28.5105 N   0  0  0  0  0  0
   -0.2331   -0.4412   27.1994 C   0  0  0  0  0  0
   -1.4851   -1.1128   27.1797 C   0  0  0  0  0  0
   -1.9901   -1.1131   28.5178 C   0  0  0  0  0  0
   -1.0556   -0.4626   29.2943 C   0  0  0  0  0  0
    1.1650    0.6681   28.9839 C   0  0  0  0  0  0
   -3.1187   -2.6317   21.3744 H   0  0  0  0  0  0
   -4.1300   -1.2546   21.9179 H   0  0  0  0  0  0
   -2.4113    0.7484   23.6588 H   0  0  0  0  0  0
   -0.9147    0.6052   22.8516 H   0  0  0  0  0  0
   -1.9382   -1.0662   19.8035 H   0  0  0  0  0  0
   -3.6858   -1.1246   19.4765 H   0  0  0  0  0  0
   -2.0296    3.3097   21.8561 H   0  0  0  0  0  0
   -6.8346   -0.0114   17.0368 H   0  0  0  0  0  0
   -3.4034    1.4900   14.9530 H   0  0  0  0  0  0
   -2.4084    2.1582   17.0752 H   0  0  0  0  0  0
   -2.9190   -2.1024   25.9294 H   0  0  0  0  0  0
    1.4676    0.2595   26.0986 H   0  0  0  0  0  0
    2.4905   -0.1577   22.6469 H   0  0  0  0  0  0
    2.0613    0.8938   23.9838 H   0  0  0  0  0  0
    2.7766   -0.7091   24.2849 H   0  0  0  0  0  0
   -2.9127   -1.5442   28.8766 H   0  0  0  0  0  0
   -1.0454   -0.2566   30.3558 H   0  0  0  0  0  0
    1.1798    1.6653   28.5451 H   0  0  0  0  0  0
    1.1573    0.7446   30.0707 H   0  0  0  0  0  0
    2.0604    0.1309   28.6754 H   0  0  0  0  0  0
  1  2  1  0  0  0
  1  4  1  0  0  0
  1 32  1  0  0  0
  1 33  1  0  0  0
  2 10  1  0  0  0
  2  3  1  0  0  0
  3  7  1  0  0  0
  3 34  1  0  0  0
  3 35  1  0  0  0
  4  6  1  0  0  0
  4 36  1  0  0  0
  4 37  1  0  0  0
  5  6  1  0  0  0
  5  9  2  0  0  0
  5 12  1  0  0  0
  6  7  1  0  0  0
  7  8  2  0  0  0
  8  9  1  0  0  0
  8 38  1  0  0  0
 10 20  1  0  0  0
 10 11  2  0  0  0
 12 17  1  0  0  0
 12 13  2  0  0  0
 13 19  1  0  0  0
 13 14  1  0  0  0
 14 15  2  0  0  0
 14 39  1  0  0  0
 15 16  1  0  0  0
 15 18  1  0  0  0
 16 17  2  0  0  0
 16 40  1  0  0  0
 17 41  1  0  0  0
 20 21  2  0  0  0
 20 23  1  0  0  0
 21 28  1  0  0  0
 21 42  1  0  0  0
 22 27  1  0  0  0
 22 23  2  0  0  0
 22 43  1  0  0  0
 23 24  1  0  0  0
 24 25  1  0  0  0
 25 44  1  0  0  0
 25 45  1  0  0  0
 25 46  1  0  0  0
 26 27  1  0  0  0
 26 30  1  0  0  0
 26 31  1  0  0  0
 27 28  2  0  0  0
 28 29  1  0  0  0
 29 30  2  0  0  0
 29 47  1  0  0  0
 30 48  1  0  0  0
 31 49  1  0  0  0
 31 50  1  0  0  0
 31 51  1  0  0  0
M  END
> <s_m_entry_id>
60761

> <s_m_entry_name>
dock_pv.38

> <s_m_Source_Path>
/home/csk/Desktop/cluster/DUD-E-result/mk14

> <s_m_Source_File>
dock_pv.maegz

> <i_m_Source_File_Index>
38

> <chembl_id>
CHEMBL244164

> <chembl_pref_name>
None

> <i_lp_mmshare_version>
53161

> <i_f3d_flags>
0

> <r_lp_tautomer_probability>
1

> <s_lp_Force_Field>
OPLS_2005

> <r_lp_Energy>
42.571339

> <b_lp_Chiralities_Consistent>
1

> <s_lp_Variant>
CHEMBL260_lig1043-1

> <s_i_glide_gridfile>
glide-grid_2qd9

> <i_i_glide_lignum>
1170

> <i_i_glide_rotatable_bonds>
4

> <r_i_docking_score>
-9.7818402460526

> <r_i_glide_ligand_efficiency>
-0.315543233743632

> <r_i_glide_ligand_efficiency_sa>
-0.991241408340625

> <r_i_glide_ligand_efficiency_ln>
-2.2061047528865

> <r_i_glide_gscore>
-9.7818402460526

> <r_i_glide_lipo>
-3.74850570156077

> <r_i_glide_hbond>
-0.568196820664452

> <r_i_glide_metal>
0

> <r_i_glide_rewards>
-2.50975208783085

> <r_i_glide_evdw>
-44.7118034362793

> <r_i_glide_ecoul>
-7.01897001266479

> <r_i_glide_erotb>
0.333050037717152

> <r_i_glide_esite>
0

> <r_i_glide_emodel>
-68.903513174669

> <r_i_glide_energy>
-51.7307734489441

> <r_i_glide_einternal>
12.7284450531006

> <i_i_glide_confnum>
6

> <i_i_glide_posenum>
157

> <r_i_glide_eff_state_penalty>
0

> <s_user_duplicate_titles>
CHEMBL260_lig1043,386127

> <s_m_subgroup_title>
dock_pv

> <s_m_subgroupid>
dock_pv

> <b_m_subgroup_collapsed>
1

$$$$
CHEMBL260_lig126
                    3D
 Schrodinger Suite 2021-1.
 55 59  0  0  1  0            999 V2000
   -1.8611   -1.2195   22.6435 N   0  0  0  0  0  0
   -2.2315   -0.0277   21.9645 C   0  0  0  0  0  0
   -2.7775   -0.0845   20.6697 C   0  0  0  0  0  0
   -1.9341   -2.4793   22.1201 C   0  0  0  0  0  0
   -3.1339    1.1023   19.9900 C   0  0  0  0  0  0
   -1.4300   -1.1235   24.0027 C   0  0  0  0  0  0
   -3.8117    1.0829   18.6446 C   0  0  0  0  0  0
   -2.4091   -2.5636   20.8566 N   0  0  0  0  0  0
   -5.1921    0.8868   18.5145 C   0  0  0  0  0  0
   -2.9509   -1.4593   20.0486 C   0  0  0  0  0  0
   -2.0302    1.2134   22.5605 C   0  0  0  0  0  0
   -2.2619    2.3903   21.8741 C   0  0  0  0  0  0
   -2.8351    2.3300   20.6002 C   0  0  0  0  0  0
   -5.7961    0.8869   17.2596 C   0  0  0  0  0  0
   -3.0948    1.2344   17.4482 C   0  0  0  0  0  0
   -2.3584   -1.2724   25.0492 C   0  0  0  0  0  0
   -0.0933   -0.8089   24.3230 C   0  0  0  0  0  0
   -1.6374   -3.5129   22.7126 O   0  0  0  0  0  0
    1.0939    5.0623   25.0448 N   0  0  2  0  0  0
   -1.9314    3.6010   22.4392 O   0  0  0  0  0  0
   -5.0507    1.0188   16.1002 C   0  0  0  0  0  0
   -6.1886    0.5766   19.8751 Cl  0  0  0  0  0  0
   -3.6881    1.2173   16.1924 C   0  0  0  0  0  0
   -4.0346   -1.5125   24.7261 Cl  0  0  0  0  0  0
    1.0781   -0.4474   23.1082 Cl  0  0  0  0  0  0
   -0.7353    3.6925   23.2254 C   0  0  0  0  0  0
   -5.6342    0.8866   14.8952 F   0  0  0  0  0  0
    0.1016    4.8981   22.7752 C   0  0  0  0  0  0
   -1.0558    3.8576   24.7198 C   0  0  0  0  0  0
    0.2468    3.9727   25.5387 C   0  0  0  0  0  0
    1.3881    4.9784   23.6117 C   0  0  0  0  0  0
   -0.6133   -0.9147   26.6832 C   0  0  0  0  0  0
    0.3048   -0.7120   25.6565 C   0  0  0  0  0  0
   -1.9449   -1.1843   26.3788 C   0  0  0  0  0  0
   -2.5114   -3.4988   20.4821 H   0  0  0  0  0  0
   -4.0131   -1.6281   19.8760 H   0  0  0  0  0  0
   -2.4617   -1.4843   19.0746 H   0  0  0  0  0  0
   -1.6369    1.2839   23.5603 H   0  0  0  0  0  0
   -3.0499    3.2509   20.0811 H   0  0  0  0  0  0
   -6.8352    0.6785   17.1739 H   0  0  0  0  0  0
   -2.0351    1.2910   17.4398 H   0  0  0  0  0  0
    1.9615    5.0766   25.5665 H   0  0  0  0  0  0
   -3.0896    1.3018   15.2968 H   0  0  0  0  0  0
   -0.0981    2.8138   23.0912 H   0  0  0  0  0  0
    0.3743    4.7994   21.7233 H   0  0  0  0  0  0
   -0.4327    5.8398   22.8941 H   0  0  0  0  0  0
   -1.6544    4.7499   24.9051 H   0  0  0  0  0  0
   -1.6236    3.0030   25.0864 H   0  0  0  0  0  0
    0.8122    3.0399   25.4874 H   0  0  0  0  0  0
    0.0185    4.1512   26.5905 H   0  0  0  0  0  0
    1.9737    4.0774   23.4376 H   0  0  0  0  0  0
    1.9972    5.8310   23.3088 H   0  0  0  0  0  0
   -0.2944   -0.8459   27.7137 H   0  0  0  0  0  0
    1.3318   -0.4767   25.8981 H   0  0  0  0  0  0
   -2.6598   -1.3126   27.1788 H   0  0  0  0  0  0
  1  2  1  0  0  0
  1  4  1  0  0  0
  1  6  1  0  0  0
  2  3  2  0  0  0
  2 11  1  0  0  0
  3  5  1  0  0  0
  3 10  1  0  0  0
  4  8  1  0  0  0
  4 18  2  0  0  0
  5  7  1  0  0  0
  5 13  2  0  0  0
  6 16  1  0  0  0
  6 17  2  0  0  0
  7  9  1  0  0  0
  7 15  2  0  0  0
  8 10  1  0  0  0
  8 35  1  0  0  0
  9 14  2  0  0  0
  9 22  1  0  0  0
 10 36  1  0  0  0
 10 37  1  0  0  0
 11 12  2  0  0  0
 11 38  1  0  0  0
 12 13  1  0  0  0
 12 20  1  0  0  0
 13 39  1  0  0  0
 14 21  1  0  0  0
 14 40  1  0  0  0
 15 23  1  0  0  0
 15 41  1  0  0  0
 16 24  1  0  0  0
 16 34  2  0  0  0
 17 25  1  0  0  0
 17 33  1  0  0  0
 19 30  1  0  0  0
 19 31  1  0  0  0
 19 42  1  0  0  0
 20 26  1  0  0  0
 21 23  2  0  0  0
 21 27  1  0  0  0
 23 43  1  0  0  0
 26 28  1  0  0  0
 26 29  1  0  0  0
 26 44  1  0  0  0
 28 31  1  0  0  0
 28 45  1  0  0  0
 28 46  1  0  0  0
 29 30  1  0  0  0
 29 47  1  0  0  0
 29 48  1  0  0  0
 30 49  1  0  0  0
 30 50  1  0  0  0
 31 51  1  0  0  0
 31 52  1  0  0  0
 32 33  2  0  0  0
 32 34  1  0  0  0
 32 53  1  0  0  0
 33 54  1  0  0  0
 34 55  1  0  0  0
M  END
> <s_m_entry_id>
60762

> <s_m_entry_name>
dock_pv.39

> <s_m_Source_Path>
/home/csk/Desktop/cluster/DUD-E-result/mk14

> <s_m_Source_File>
dock_pv.maegz

> <i_m_Source_File_Index>
39

> <chembl_id>
CHEMBL327959

> <chembl_pref_name>
None

> <i_lp_mmshare_version>
53161

> <i_f3d_flags>
0

> <r_lp_tautomer_probability>
1

> <s_lp_Force_Field>
OPLS_2005

> <r_lp_Energy>
63.660012

> <b_lp_Chiralities_Consistent>
1

> <s_lp_Variant>
CHEMBL260_lig126-1

> <s_i_glide_gridfile>
glide-grid_2qd9

> <i_i_glide_lignum>
143

> <i_i_glide_rotatable_bonds>
4

> <r_i_docking_score>
-9.77248446782183

> <r_i_glide_ligand_efficiency>
-0.287426013759466

> <r_i_glide_ligand_efficiency_sa>
-0.931148705074787

> <r_i_glide_ligand_efficiency_ln>
-2.15901592784648

> <r_i_glide_gscore>
-9.77248446782183

> <r_i_glide_lipo>
-4.20046343327292

> <r_i_glide_hbond>
-0.649150525219868

> <r_i_glide_metal>
0

> <r_i_glide_rewards>
-1.55838303951973

> <r_i_glide_evdw>
-37.9976921081543

> <r_i_glide_ecoul>
-11.1784944534302

> <r_i_glide_erotb>
0.212171303612931

> <r_i_glide_esite>
0

> <r_i_glide_emodel>
-60.2741719664263

> <r_i_glide_energy>
-49.1761865615845

> <r_i_glide_einternal>
7.10752058029175

> <i_i_glide_confnum>
27

> <i_i_glide_posenum>
115

> <r_i_glide_eff_state_penalty>
0

> <s_user_duplicate_titles>
CHEMBL260_lig126,154852

> <s_m_subgroup_title>
dock_pv

> <s_m_subgroupid>
dock_pv

> <b_m_subgroup_collapsed>
1

$$$$
CHEMBL260_lig875
                    3D
 Schrodinger Suite 2021-1.
 48 51  0  0  1  0            999 V2000
   -0.2218   -0.8210   25.7435 C   0  0  0  0  0  0
   -0.4601   -0.9087   24.3712 C   0  0  0  0  0  0
   -1.7613   -1.1580   23.8969 C   0  0  0  0  0  0
   -2.8151   -1.2720   24.8171 C   0  0  0  0  0  0
   -2.5654   -1.1861   26.1866 C   0  0  0  0  0  0
   -1.2693   -0.9691   26.6502 C   0  0  0  0  0  0
   -4.4347   -1.5115   24.2759 Cl  0  0  0  0  0  0
    0.8662   -0.6854   23.2885 Cl  0  0  0  0  0  0
   -2.0179   -1.2915   22.4956 N   0  0  0  0  0  0
   -1.9399   -2.5442   21.9836 C   0  0  0  0  0  0
   -2.2658   -2.6776   20.6762 N   0  0  0  0  0  0
   -2.9789   -1.6662   19.8765 C   0  0  0  0  0  0
   -2.3849   -0.1622   21.7450 C   0  0  0  0  0  0
   -2.8499   -0.2684   20.4289 C   0  0  0  0  0  0
   -3.1581    0.9397   19.7586 C   0  0  0  0  0  0
   -2.9085    2.1415   20.3472 N   0  0  0  0  0  0
   -2.4345    2.1030   21.6183 C   0  0  0  0  0  0
   -2.2143    1.0143   22.3511 N   0  0  0  0  0  0
   -3.8134    1.0328   18.4115 C   0  0  0  0  0  0
   -3.0964    1.2822   17.2253 C   0  0  0  0  0  0
   -3.7070    1.3576   15.9771 C   0  0  0  0  0  0
   -5.0731    1.1615   15.8765 C   0  0  0  0  0  0
   -5.7983    0.9035   17.0294 C   0  0  0  0  0  0
   -5.1966    0.8652   18.2839 C   0  0  0  0  0  0
   -6.1926    0.4883   19.6407 Cl  0  0  0  0  0  0
   -1.6347   -3.5131   22.6543 O   0  0  0  0  0  0
   -2.0349    3.2870   22.1992 N   0  0  0  0  0  0
   -1.2961    3.3831   23.4629 C   0  0  0  0  0  0
   -2.2425    3.3653   24.6766 C   0  0  0  0  0  0
   -0.3856    4.6196   23.4784 C   0  0  0  0  0  0
    0.7795   -0.6398   26.1075 H   0  0  0  0  0  0
   -3.3767   -1.2876   26.8926 H   0  0  0  0  0  0
   -1.0754   -0.9078   27.7113 H   0  0  0  0  0  0
   -2.2897   -3.6274   20.3243 H   0  0  0  0  0  0
   -4.0344   -1.9140   19.8766 H   0  0  0  0  0  0
   -2.5783   -1.6949   18.8648 H   0  0  0  0  0  0
   -2.0361    1.3968   17.2074 H   0  0  0  0  0  0
   -3.1191    1.5438   15.0887 H   0  0  0  0  0  0
   -5.5633    1.1866   14.9148 H   0  0  0  0  0  0
   -6.8351    0.6961   16.9460 H   0  0  0  0  0  0
   -1.9573    4.0664   21.5680 H   0  0  0  0  0  0
   -0.6337    2.5181   23.5490 H   0  0  0  0  0  0
   -1.6813    3.3888   25.6119 H   0  0  0  0  0  0
   -2.9209    4.2186   24.6746 H   0  0  0  0  0  0
   -2.8511    2.4601   24.6921 H   0  0  0  0  0  0
    0.2462    4.6240   24.3675 H   0  0  0  0  0  0
    0.2821    4.6305   22.6149 H   0  0  0  0  0  0
   -0.9529    5.5499   23.4763 H   0  0  0  0  0  0
  1  6  1  0  0  0
  1  2  2  0  0  0
  1 31  1  0  0  0
  2  8  1  0  0  0
  2  3  1  0  0  0
  3  4  2  0  0  0
  3  9  1  0  0  0
  4  7  1  0  0  0
  4  5  1  0  0  0
  5  6  2  0  0  0
  5 32  1  0  0  0
  6 33  1  0  0  0
  9 10  1  0  0  0
  9 13  1  0  0  0
 10 11  1  0  0  0
 10 26  2  0  0  0
 11 12  1  0  0  0
 11 34  1  0  0  0
 12 14  1  0  0  0
 12 35  1  0  0  0
 12 36  1  0  0  0
 13 18  1  0  0  0
 13 14  2  0  0  0
 14 15  1  0  0  0
 15 16  2  0  0  0
 15 19  1  0  0  0
 16 17  1  0  0  0
 17 18  2  0  0  0
 17 27  1  0  0  0
 19 20  2  0  0  0
 19 24  1  0  0  0
 20 21  1  0  0  0
 20 37  1  0  0  0
 21 22  2  0  0  0
 21 38  1  0  0  0
 22 23  1  0  0  0
 22 39  1  0  0  0
 23 24  2  0  0  0
 23 40  1  0  0  0
 24 25  1  0  0  0
 27 28  1  0  0  0
 27 41  1  0  0  0
 28 29  1  0  0  0
 28 30  1  0  0  0
 28 42  1  0  0  0
 29 43  1  0  0  0
 29 44  1  0  0  0
 29 45  1  0  0  0
 30 46  1  0  0  0
 30 47  1  0  0  0
 30 48  1  0  0  0
M  END
> <s_m_entry_id>
60763

> <s_m_entry_name>
dock_pv.40

> <s_m_Source_Path>
/home/csk/Desktop/cluster/DUD-E-result/mk14

> <s_m_Source_File>
dock_pv.maegz

> <i_m_Source_File_Index>
40

> <chembl_id>
CHEMBL213895

> <chembl_pref_name>
None

> <i_lp_mmshare_version>
53161

> <i_f3d_flags>
0

> <r_lp_tautomer_probability>
0.999999987636

> <s_lp_Force_Field>
OPLS_2005

> <r_lp_Energy>
36.145728

> <b_lp_Chiralities_Consistent>
1

> <s_lp_Variant>
CHEMBL260_lig875-1

> <s_i_glide_gridfile>
glide-grid_2qd9

> <i_i_glide_lignum>
973

> <i_i_glide_rotatable_bonds>
4

> <r_i_docking_score>
-9.75580119762586

> <r_i_glide_ligand_efficiency>
-0.325193373254195

> <r_i_glide_ligand_efficiency_sa>
-1.01045141895064

> <r_i_glide_ligand_efficiency_ln>
-2.21662433006844

> <r_i_glide_gscore>
-9.75580119762586

> <r_i_glide_lipo>
-4.0972928737659

> <r_i_glide_hbond>
-0.572023409419586

> <r_i_glide_metal>
0

> <r_i_glide_rewards>
-1.87046063365483

> <r_i_glide_evdw>
-40.103515625

> <r_i_glide_ecoul>
-9.13425254821777

> <r_i_glide_erotb>
0.197564407260487

> <r_i_glide_esite>
-0.0382750245633602

> <r_i_glide_emodel>
-51.8802303974869

> <r_i_glide_energy>
-49.2377681732178

> <r_i_glide_einternal>
2.97373461723328

> <i_i_glide_confnum>
9

> <i_i_glide_posenum>
65

> <r_i_glide_eff_state_penalty>
0

> <s_user_duplicate_titles>
CHEMBL260_lig875,355390

> <s_m_subgroup_title>
dock_pv

> <s_m_subgroupid>
dock_pv

> <b_m_subgroup_collapsed>
1

$$$$
CHEMBL260_lig1634
                    3D
 Schrodinger Suite 2021-1.
 36 38  0  0  1  0            999 V2000
   -5.7769    0.8859   16.7184 C   0  0  0  0  0  0
   -6.2354    0.4881   17.9748 C   0  0  0  0  0  0
   -5.3962    0.5988   19.0790 C   0  0  0  0  0  0
   -4.0979    1.0969   18.9207 C   0  0  0  0  0  0
   -3.6361    1.4600   17.6482 C   0  0  0  0  0  0
   -4.4760    1.3452   16.5453 C   0  0  0  0  0  0
   -3.2349    1.2817   20.1206 C   0  0  0  0  0  0
   -2.8784    0.0846   20.9764 C   0  0  0  0  0  0
   -2.8350    2.4192   20.3850 O   0  0  0  0  0  0
   -2.8764   -1.1833   20.3752 C   0  0  0  0  0  0
   -2.5592   -2.3122   21.1222 C   0  0  0  0  0  0
   -2.2653   -2.2001   22.4288 N   0  3  0  0  0  0
   -2.2087   -0.9998   23.0687 C   0  0  0  0  0  0
   -2.4977    0.1737   22.3390 C   0  0  0  0  0  0
   -2.0314   -3.2761   23.0511 O   0  5  0  0  0  0
   -2.4352    1.4086   22.9960 N   0  0  0  0  0  0
   -1.8527   -0.9953   24.5222 C   0  0  0  0  0  0
   -0.6289   -0.4684   24.9493 C   0  0  0  0  0  0
   -0.3080   -0.4472   26.3041 C   0  0  0  0  0  0
   -1.2142   -0.9491   27.2353 C   0  0  0  0  0  0
   -2.4305   -1.4884   26.8215 C   0  0  0  0  0  0
   -2.7471   -1.5096   25.4664 C   0  0  0  0  0  0
   -0.8347   -0.8885   28.9173 Cl  0  0  0  0  0  0
   -6.4279    0.8008   15.8627 H   0  0  0  0  0  0
   -7.2344    0.0925   18.0888 H   0  0  0  0  0  0
   -5.7681    0.3180   20.0530 H   0  0  0  0  0  0
   -2.6396    1.8437   17.4906 H   0  0  0  0  0  0
   -4.1247    1.6295   15.5630 H   0  0  0  0  0  0
   -3.1133   -1.3103   19.3286 H   0  0  0  0  0  0
   -2.5330   -3.3115   20.7145 H   0  0  0  0  0  0
   -2.0486    1.4399   23.9289 H   0  0  0  0  0  0
   -2.4669    2.2385   22.4173 H   0  0  0  0  0  0
    0.0766   -0.0747   24.2316 H   0  0  0  0  0  0
    0.6373   -0.0385   26.6318 H   0  0  0  0  0  0
   -3.1275   -1.8797   27.5477 H   0  0  0  0  0  0
   -3.6972   -1.9140   25.1487 H   0  0  0  0  0  0
  1  6  1  0  0  0
  1  2  2  0  0  0
  1 24  1  0  0  0
  2  3  1  0  0  0
  2 25  1  0  0  0
  3  4  2  0  0  0
  3 26  1  0  0  0
  4  7  1  0  0  0
  4  5  1  0  0  0
  5  6  2  0  0  0
  5 27  1  0  0  0
  6 28  1  0  0  0
  7  8  1  0  0  0
  7  9  2  0  0  0
  8 14  1  0  0  0
  8 10  2  0  0  0
 10 11  1  0  0  0
 10 29  1  0  0  0
 11 12  2  0  0  0
 11 30  1  0  0  0
 12 13  1  0  0  0
 12 15  1  0  0  0
 13 14  2  0  0  0
 13 17  1  0  0  0
 14 16  1  0  0  0
 16 31  1  0  0  0
 16 32  1  0  0  0
 17 18  2  0  0  0
 17 22  1  0  0  0
 18 19  1  0  0  0
 18 33  1  0  0  0
 19 20  2  0  0  0
 19 34  1  0  0  0
 20 21  1  0  0  0
 20 23  1  0  0  0
 21 22  2  0  0  0
 21 35  1  0  0  0
 22 36  1  0  0  0
M  CHG  2  12   1  15  -1
M  END
> <s_m_entry_id>
60764

> <s_m_entry_name>
dock_pv.41

> <s_m_Source_Path>
/home/csk/Desktop/cluster/DUD-E-result/mk14

> <s_m_Source_File>
dock_pv.maegz

> <i_m_Source_File_Index>
41

> <chembl_id>
CHEMBL550555

> <chembl_pref_name>
None

> <i_lp_mmshare_version>
53161

> <i_f3d_flags>
0

> <r_lp_tautomer_probability>
1

> <s_lp_Force_Field>
OPLS_2005

> <r_lp_Energy>
38.829415

> <b_lp_Chiralities_Consistent>
1

> <s_lp_Variant>
CHEMBL260_lig1634-1

> <s_i_glide_gridfile>
glide-grid_2qd9

> <i_i_glide_lignum>
1886

> <i_i_glide_rotatable_bonds>
3

> <r_i_docking_score>
-9.75340537464437

> <r_i_glide_ligand_efficiency>
-0.424061103245408

> <r_i_glide_ligand_efficiency_sa>
-1.2059733676986

> <r_i_glide_ligand_efficiency_ln>
-2.35846185857934

> <r_i_glide_gscore>
-9.75340537464437

> <r_i_glide_lipo>
-3.67879748209971

> <r_i_glide_hbond>
-0.231613077829579

> <r_i_glide_metal>
0

> <r_i_glide_rewards>
-2.02899053490993

> <r_i_glide_evdw>
-35.8724479675293

> <r_i_glide_ecoul>
-17.0213375091553

> <r_i_glide_erotb>
0.532818744944608

> <r_i_glide_esite>
0

> <r_i_glide_emodel>
-77.4011664310458

> <r_i_glide_energy>
-52.8937854766846

> <r_i_glide_einternal>
5.20720100402832

> <i_i_glide_confnum>
9

> <i_i_glide_posenum>
345

> <r_i_glide_eff_state_penalty>
0

> <s_user_duplicate_titles>
CHEMBL260_lig1634

> <s_m_subgroup_title>
dock_pv

> <s_m_subgroupid>
dock_pv

> <b_m_subgroup_collapsed>
1

$$$$
CHEMBL260_lig121
                    3D
 Schrodinger Suite 2021-1.
 67 72  0  0  1  0            999 V2000
   -1.5569   -1.2878   22.4990 N   0  0  0  0  0  0
   -1.8909   -0.1278   21.7894 C   0  0  0  0  0  0
   -2.5614   -0.1908   20.5578 C   0  0  0  0  0  0
   -3.0708    0.9892   19.9742 C   0  0  0  0  0  0
   -1.6963   -2.5383   22.0016 C   0  0  0  0  0  0
   -1.3822   -1.1816   23.9204 C   0  0  0  0  0  0
   -3.7956    0.9607   18.6503 C   0  0  0  0  0  0
   -2.0381   -2.6394   20.6949 N   0  0  0  0  0  0
   -1.6384    1.0850   22.3828 C   0  0  0  0  0  0
   -2.8901    2.1991   20.6761 C   0  0  0  0  0  0
   -1.1404    4.5257   25.5008 N   0  0  2  0  0  0
   -2.2341    2.2221   21.9243 C   0  0  0  0  0  0
   -5.1875    0.8871   18.5196 C   0  0  0  0  0  0
   -2.7191   -1.5712   19.9388 C   0  0  0  0  0  0
    1.2120    4.0666   26.2635 C   0  0  0  0  0  0
    1.4521    5.4876   26.7437 C   0  0  0  0  0  0
    1.8511    4.3239   27.6190 C   0  0  0  0  0  0
   -0.2374    3.5009   26.0917 C   0  0  1  0  0  0
   -5.7943    0.8870   17.2646 C   0  0  0  0  0  0
   -3.0817    0.9544   17.4522 C   0  0  0  0  0  0
   -2.5008   -1.2131   24.7766 C   0  0  0  0  0  0
   -0.1042   -0.9658   24.4730 C   0  0  0  0  0  0
   -1.6347   -3.5131   22.7183 O   0  0  0  0  0  0
   -2.1915    3.3706   22.9193 C   0  0  0  0  0  0
   -2.5507    4.1186   25.3649 C   0  0  0  0  0  0
   -0.6625    5.0141   24.1929 C   0  0  0  0  0  0
   -2.7518    2.9943   24.3271 C   0  0  0  0  0  0
   -0.7591    3.9512   23.0763 C   0  0  0  0  0  0
   -5.0424    0.8958   16.1015 C   0  0  0  0  0  0
   -6.2066    0.7263   19.8759 Cl  0  0  0  0  0  0
   -3.6670    0.9405   16.1924 C   0  0  0  0  0  0
    1.2867   -0.7129   23.4760 Cl  0  0  0  0  0  0
   -4.1103   -1.3074   24.1515 Cl  0  0  0  0  0  0
   -5.6349    0.7959   14.8978 F   0  0  0  0  0  0
   -1.0564   -0.9542   26.6981 C   0  0  0  0  0  0
    0.0482   -0.8607   25.8556 C   0  0  0  0  0  0
   -2.3299   -1.1171   26.1574 C   0  0  0  0  0  0
   -0.7975    2.9163   27.4105 C   0  0  0  0  0  0
   -2.1283   -3.5808   20.3339 H   0  0  0  0  0  0
   -1.0756    1.1460   23.2994 H   0  0  0  0  0  0
   -3.3210    3.1043   20.2754 H   0  0  0  0  0  0
   -3.7778   -1.8110   19.8762 H   0  0  0  0  0  0
   -2.3337   -1.5609   18.9197 H   0  0  0  0  0  0
    1.8750    3.6928   25.4799 H   0  0  0  0  0  0
    0.5911    6.0956   27.0289 H   0  0  0  0  0  0
    2.2298    6.0723   26.2516 H   0  0  0  0  0  0
    2.9101    4.0878   27.7355 H   0  0  0  0  0  0
    1.2962    4.1485   28.5405 H   0  0  0  0  0  0
   -0.1690    2.6596   25.4010 H   0  0  0  0  0  0
   -6.8519    0.8029   17.1911 H   0  0  0  0  0  0
   -2.0350    0.8876   17.4760 H   0  0  0  0  0  0
   -2.8765    4.0870   22.5075 H   0  0  0  0  0  0
   -2.9571    3.8149   26.3293 H   0  0  0  0  0  0
   -3.1379    4.9947   25.0929 H   0  0  0  0  0  0
   -1.2338    5.9016   23.9225 H   0  0  0  0  0  0
    0.3663    5.3680   24.2632 H   0  0  0  0  0  0
   -2.3480    2.0716   24.7419 H   0  0  0  0  0  0
   -3.8270    2.8300   24.2489 H   0  0  0  0  0  0
   -0.4727    4.4510   22.1491 H   0  0  0  0  0  0
   -0.0005    3.1844   23.2366 H   0  0  0  0  0  0
   -3.0600    0.9177   15.2989 H   0  0  0  0  0  0
   -0.9245   -0.8771   27.7682 H   0  0  0  0  0  0
    1.0300   -0.6956   26.2780 H   0  0  0  0  0  0
   -3.1889   -1.1539   26.8119 H   0  0  0  0  0  0
   -0.0768    2.2392   27.8698 H   0  0  0  0  0  0
   -1.0277    3.7010   28.1318 H   0  0  0  0  0  0
   -1.6992    2.3266   27.2516 H   0  0  0  0  0  0
  1  2  1  0  0  0
  1  5  1  0  0  0
  1  6  1  0  0  0
  2  3  2  0  0  0
  2  9  1  0  0  0
  3  4  1  0  0  0
  3 14  1  0  0  0
  4  7  1  0  0  0
  4 10  2  0  0  0
  5  8  1  0  0  0
  5 23  2  0  0  0
  6 21  2  0  0  0
  6 22  1  0  0  0
  7 13  1  0  0  0
  7 20  2  0  0  0
  8 14  1  0  0  0
  8 39  1  0  0  0
  9 12  2  0  0  0
  9 40  1  0  0  0
 10 12  1  0  0  0
 10 41  1  0  0  0
 11 26  1  0  0  0
 11 18  1  0  0  0
 11 25  1  0  0  0
 12 24  1  0  0  0
 13 19  2  0  0  0
 13 30  1  0  0  0
 14 42  1  0  0  0
 14 43  1  0  0  0
 15 18  1  0  0  0
 15 16  1  0  0  0
 15 17  1  0  0  0
 15 44  1  0  0  0
 16 17  1  0  0  0
 16 45  1  0  0  0
 16 46  1  0  0  0
 17 47  1  0  0  0
 17 48  1  0  0  0
 18 38  1  0  0  0
 18 49  1  0  0  0
 19 29  1  0  0  0
 19 50  1  0  0  0
 20 31  1  0  0  0
 20 51  1  0  0  0
 21 33  1  0  0  0
 21 37  1  0  0  0
 22 32  1  0  0  0
 22 36  2  0  0  0
 24 27  1  0  0  0
 24 28  1  0  0  0
 24 52  1  0  0  0
 25 27  1  0  0  0
 25 53  1  0  0  0
 25 54  1  0  0  0
 26 28  1  0  0  0
 26 55  1  0  0  0
 26 56  1  0  0  0
 27 57  1  0  0  0
 27 58  1  0  0  0
 28 59  1  0  0  0
 28 60  1  0  0  0
 29 31  2  0  0  0
 29 34  1  0  0  0
 31 61  1  0  0  0
 35 36  1  0  0  0
 35 37  2  0  0  0
 35 62  1  0  0  0
 36 63  1  0  0  0
 37 64  1  0  0  0
 38 65  1  0  0  0
 38 66  1  0  0  0
 38 67  1  0  0  0
M  END
> <s_m_entry_id>
60765

> <s_m_entry_name>
dock_pv.42

> <s_m_Source_Path>
/home/csk/Desktop/cluster/DUD-E-result/mk14

> <s_m_Source_File>
dock_pv.maegz

> <i_m_Source_File_Index>
42

> <chembl_id>
CHEMBL318934

> <chembl_pref_name>
None

> <i_lp_mmshare_version>
53161

> <i_f3d_flags>
0

> <r_lp_tautomer_probability>
1

> <s_lp_Force_Field>
OPLS_2005

> <r_lp_Energy>
74.165914

> <b_lp_Chiralities_Consistent>
1

> <s_lp_Variant>
CHEMBL260_lig121-1

> <s_i_glide_gridfile>
glide-grid_2qd9

> <i_i_glide_lignum>
137

> <i_i_glide_rotatable_bonds>
5

> <r_i_docking_score>
-9.74484403235385

> <r_i_glide_ligand_efficiency>
-0.256443264009312

> <r_i_glide_ligand_efficiency_sa>
-0.862155945793171

> <r_i_glide_ligand_efficiency_ln>
-2.10127503764346

> <r_i_glide_gscore>
-9.74484403235385

> <r_i_glide_lipo>
-4.17758678597696

> <r_i_glide_hbond>
-0.581535645095169

> <r_i_glide_metal>
0

> <r_i_glide_rewards>
-1.88778850700547

> <r_i_glide_evdw>
-41.8222427368164

> <r_i_glide_ecoul>
-7.762375831604

> <r_i_glide_erotb>
0.157535417305177

> <r_i_glide_esite>
0

> <r_i_glide_emodel>
-59.0374947095825

> <r_i_glide_energy>
-49.5846185684204

> <r_i_glide_einternal>
8.428635597229

> <i_i_glide_confnum>
14

> <i_i_glide_posenum>
36

> <r_i_glide_eff_state_penalty>
0

> <s_user_duplicate_titles>
CHEMBL260_lig121,154212

> <s_m_subgroup_title>
dock_pv

> <s_m_subgroupid>
dock_pv

> <b_m_subgroup_collapsed>
1

$$$$
CHEMBL260_lig880
                    3D
 Schrodinger Suite 2021-1.
 53 56  0  0  1  0            999 V2000
    0.3949   -0.6174   25.6355 C   0  0  0  0  0  0
   -0.0340   -0.7260   24.3128 C   0  0  0  0  0  0
   -1.3657   -1.0946   24.0262 C   0  0  0  0  0  0
   -2.2732   -1.2374   25.0939 C   0  0  0  0  0  0
   -1.8310   -1.1200   26.4123 C   0  0  0  0  0  0
   -0.4961   -0.8302   26.6839 C   0  0  0  0  0  0
   -3.9567   -1.5134   24.8131 Cl  0  0  0  0  0  0
    1.0987   -0.3145   23.0792 Cl  0  0  0  0  0  0
   -1.8122   -1.2777   22.6721 N   0  0  0  0  0  0
   -1.8694   -2.5522   22.2093 C   0  0  0  0  0  0
   -2.2630   -2.7134   20.9190 N   0  0  0  0  0  0
   -2.8574   -1.6848   20.0456 C   0  0  0  0  0  0
   -2.2408   -0.1699   21.9280 C   0  0  0  0  0  0
   -2.7583   -0.2953   20.6319 C   0  0  0  0  0  0
   -3.1522    0.8965   19.9921 C   0  0  0  0  0  0
   -2.9460    2.1085   20.5805 N   0  0  0  0  0  0
   -2.4330    2.0911   21.8395 C   0  0  0  0  0  0
   -2.1153    1.0098   22.5395 N   0  0  0  0  0  0
   -3.8222    0.9365   18.6555 C   0  0  0  0  0  0
   -3.0789    0.9583   17.4753 C   0  0  0  0  0  0
   -3.6326    0.9496   16.2122 C   0  0  0  0  0  0
   -4.9960    0.8608   16.0971 C   0  0  0  0  0  0
   -5.7872    0.8857   17.2377 C   0  0  0  0  0  0
   -5.2117    0.8888   18.5094 C   0  0  0  0  0  0
   -6.2360    0.7120   19.8758 Cl  0  0  0  0  0  0
   -1.6363   -3.5134   22.9152 O   0  0  0  0  0  0
   -2.1342    3.2871   22.4629 N   0  0  0  0  0  0
   -1.4182    3.4215   23.7415 C   0  0  0  0  0  0
    0.0975    3.6791   23.5918 C   0  0  0  0  0  0
   -5.6350    0.4852   14.5609 Cl  0  0  0  0  0  0
    0.3913    4.9097   22.8440 N   0  0  0  0  0  0
    1.7957    4.9282   22.4389 C   0  0  0  0  0  0
    0.1275    6.1031   23.6457 C   0  0  0  0  0  0
    1.4267   -0.3626   25.8475 H   0  0  0  0  0  0
   -2.5253   -1.2480   27.2299 H   0  0  0  0  0  0
   -0.1555   -0.7504   27.7064 H   0  0  0  0  0  0
   -2.3193   -3.6699   20.5896 H   0  0  0  0  0  0
   -3.9056   -1.9113   19.8769 H   0  0  0  0  0  0
   -2.3624   -1.7133   19.0757 H   0  0  0  0  0  0
   -2.0315    0.8870   17.4776 H   0  0  0  0  0  0
   -3.0007    0.9000   15.3368 H   0  0  0  0  0  0
   -6.8356    0.7592   17.1348 H   0  0  0  0  0  0
   -2.1026    4.0856   21.8511 H   0  0  0  0  0  0
   -1.8779    4.2123   24.3331 H   0  0  0  0  0  0
   -1.5616    2.5363   24.3628 H   0  0  0  0  0  0
    0.5781    3.6968   24.5722 H   0  0  0  0  0  0
    0.5333    2.8222   23.0757 H   0  0  0  0  0  0
    2.0230    4.0901   21.7827 H   0  0  0  0  0  0
    2.0267    5.8340   21.8770 H   0  0  0  0  0  0
    2.4708    4.8812   23.2949 H   0  0  0  0  0  0
   -0.9173    6.1611   23.9452 H   0  0  0  0  0  0
    0.7378    6.1208   24.5503 H   0  0  0  0  0  0
    0.3467    7.0070   23.0756 H   0  0  0  0  0  0
  1  6  1  0  0  0
  1  2  2  0  0  0
  1 34  1  0  0  0
  2  8  1  0  0  0
  2  3  1  0  0  0
  3  9  1  0  0  0
  3  4  2  0  0  0
  4  5  1  0  0  0
  4  7  1  0  0  0
  5  6  2  0  0  0
  5 35  1  0  0  0
  6 36  1  0  0  0
  9 10  1  0  0  0
  9 13  1  0  0  0
 10 11  1  0  0  0
 10 26  2  0  0  0
 11 12  1  0  0  0
 11 37  1  0  0  0
 12 14  1  0  0  0
 12 38  1  0  0  0
 12 39  1  0  0  0
 13 18  1  0  0  0
 13 14  2  0  0  0
 14 15  1  0  0  0
 15 16  2  0  0  0
 15 19  1  0  0  0
 16 17  1  0  0  0
 17 18  2  0  0  0
 17 27  1  0  0  0
 19 20  2  0  0  0
 19 24  1  0  0  0
 20 21  1  0  0  0
 20 40  1  0  0  0
 21 22  2  0  0  0
 21 41  1  0  0  0
 22 23  1  0  0  0
 22 30  1  0  0  0
 23 24  2  0  0  0
 23 42  1  0  0  0
 24 25  1  0  0  0
 27 28  1  0  0  0
 27 43  1  0  0  0
 28 29  1  0  0  0
 28 44  1  0  0  0
 28 45  1  0  0  0
 29 31  1  0  0  0
 29 46  1  0  0  0
 29 47  1  0  0  0
 31 32  1  0  0  0
 31 33  1  0  0  0
 32 48  1  0  0  0
 32 49  1  0  0  0
 32 50  1  0  0  0
 33 51  1  0  0  0
 33 52  1  0  0  0
 33 53  1  0  0  0
M  END
> <s_m_entry_id>
60766

> <s_m_entry_name>
dock_pv.43

> <s_m_Source_Path>
/home/csk/Desktop/cluster/DUD-E-result/mk14

> <s_m_Source_File>
dock_pv.maegz

> <i_m_Source_File_Index>
43

> <chembl_id>
CHEMBL213190

> <chembl_pref_name>
None

> <i_lp_mmshare_version>
53161

> <i_f3d_flags>
0

> <r_lp_tautomer_probability>
0.999999987636

> <s_lp_Force_Field>
OPLS_2005

> <r_lp_Energy>
43.723552

> <b_lp_Chiralities_Consistent>
1

> <s_lp_Variant>
CHEMBL260_lig880-1

> <s_i_glide_gridfile>
glide-grid_2qd9

> <i_i_glide_lignum>
980

> <i_i_glide_rotatable_bonds>
6

> <r_i_docking_score>
-9.72375369060042

> <r_i_glide_ligand_efficiency>
-0.294659202745467

> <r_i_glide_ligand_efficiency_sa>
-0.945129507353736

> <r_i_glide_ligand_efficiency_ln>
-2.16251247388743

> <r_i_glide_gscore>
-9.72375369060042

> <r_i_glide_lipo>
-4.05199040232677

> <r_i_glide_hbond>
-0.734550678258451

> <r_i_glide_metal>
0

> <r_i_glide_rewards>
-1.60255447978356

> <r_i_glide_evdw>
-42.8299255371094

> <r_i_glide_ecoul>
-9.46127223968506

> <r_i_glide_erotb>
0.26019711821333

> <r_i_glide_esite>
-0.0341681356367506

> <r_i_glide_emodel>
-55.436914913853

> <r_i_glide_energy>
-52.2911977767944

> <r_i_glide_einternal>
3.46759819984436

> <i_i_glide_confnum>
210

> <i_i_glide_posenum>
238

> <r_i_glide_eff_state_penalty>
0

> <s_user_duplicate_titles>
CHEMBL260_lig880,355253

> <s_m_subgroup_title>
dock_pv

> <s_m_subgroupid>
dock_pv

> <b_m_subgroup_collapsed>
1

$$$$
CHEMBL260_lig115
                    3D
 Schrodinger Suite 2021-1.
 45 48  0  0  1  0            999 V2000
   -1.8466   -1.2711   22.5859 N   0  0  0  0  0  0
   -2.2198   -0.0750   21.9463 C   0  0  0  0  0  0
   -2.7634   -0.0780   20.6490 C   0  0  0  0  0  0
   -3.1212    1.1366   20.0202 C   0  0  0  0  0  0
   -1.9068   -2.4951   22.0092 C   0  0  0  0  0  0
   -1.4165   -1.2274   23.9541 C   0  0  0  0  0  0
   -2.3310   -2.5457   20.7252 N   0  0  0  0  0  0
   -2.0363    1.1158   22.6152 C   0  0  0  0  0  0
   -2.3137    2.3123   22.0166 C   0  0  0  0  0  0
   -2.8347    2.3409   20.7030 C   0  0  0  0  0  0
   -3.8073    1.1365   18.6696 C   0  0  0  0  0  0
   -2.9409   -1.4322   19.9809 C   0  0  0  0  0  0
   -1.9896    3.4275   22.9246 C   0  0  0  0  0  0
   -2.3500   -1.3722   24.9965 C   0  0  0  0  0  0
   -0.0755   -0.9468   24.2831 C   0  0  0  0  0  0
   -1.6351   -3.5129   22.6108 O   0  0  0  0  0  0
   -5.1820    0.8870   18.5317 C   0  0  0  0  0  0
   -2.7091    3.7454   23.8748 O   0  0  0  0  0  0
   -0.7625    3.9426   22.6759 O   0  0  0  0  0  0
   -4.0350   -1.5129   24.6692 Cl  0  0  0  0  0  0
    1.0924   -0.5419   23.0793 Cl  0  0  0  0  0  0
   -6.1677    0.4873   19.8759 Cl  0  0  0  0  0  0
   -3.1005    1.3072   17.4682 C   0  0  0  0  0  0
   -0.5973   -1.1137   26.6388 C   0  0  0  0  0  0
    0.3243   -0.9013   25.6177 C   0  0  0  0  0  0
   -1.9352   -1.3364   26.3276 C   0  0  0  0  0  0
   -5.7955    0.8890   17.2788 C   0  0  0  0  0  0
   -0.1863    4.9256   23.5237 C   0  0  0  0  0  0
   -3.7085    1.3291   16.2156 C   0  0  0  0  0  0
   -5.0751    1.1319   16.1190 C   0  0  0  0  0  0
   -2.4157   -3.4710   20.3209 H   0  0  0  0  0  0
   -1.6368    1.1210   23.6215 H   0  0  0  0  0  0
   -3.0690    3.2844   20.2348 H   0  0  0  0  0  0
   -4.0052   -1.6213   19.8675 H   0  0  0  0  0  0
   -2.4946   -1.4086   18.9870 H   0  0  0  0  0  0
   -2.0358    1.3709   17.4522 H   0  0  0  0  0  0
   -0.2771   -1.0810   27.6704 H   0  0  0  0  0  0
    1.3552   -0.6922   25.8659 H   0  0  0  0  0  0
   -2.6550   -1.4608   27.1239 H   0  0  0  0  0  0
   -6.8351    0.6581   17.2021 H   0  0  0  0  0  0
    0.8159    5.1698   23.1717 H   0  0  0  0  0  0
   -0.7778    5.8421   23.5248 H   0  0  0  0  0  0
   -0.1041    4.5617   24.5498 H   0  0  0  0  0  0
   -3.1158    1.4689   15.3229 H   0  0  0  0  0  0
   -5.5637    1.1227   15.1552 H   0  0  0  0  0  0
  1  2  1  0  0  0
  1  5  1  0  0  0
  1  6  1  0  0  0
  2  3  2  0  0  0
  2  8  1  0  0  0
  3  4  1  0  0  0
  3 12  1  0  0  0
  4 11  1  0  0  0
  4 10  2  0  0  0
  5  7  1  0  0  0
  5 16  2  0  0  0
  6 14  1  0  0  0
  6 15  2  0  0  0
  7 12  1  0  0  0
  7 31  1  0  0  0
  8  9  2  0  0  0
  8 32  1  0  0  0
  9 10  1  0  0  0
  9 13  1  0  0  0
 10 33  1  0  0  0
 11 17  1  0  0  0
 11 23  2  0  0  0
 12 34  1  0  0  0
 12 35  1  0  0  0
 13 18  2  0  0  0
 13 19  1  0  0  0
 14 20  1  0  0  0
 14 26  2  0  0  0
 15 21  1  0  0  0
 15 25  1  0  0  0
 17 22  1  0  0  0
 17 27  2  0  0  0
 19 28  1  0  0  0
 23 29  1  0  0  0
 23 36  1  0  0  0
 24 25  2  0  0  0
 24 26  1  0  0  0
 24 37  1  0  0  0
 25 38  1  0  0  0
 26 39  1  0  0  0
 27 30  1  0  0  0
 27 40  1  0  0  0
 28 41  1  0  0  0
 28 42  1  0  0  0
 28 43  1  0  0  0
 29 30  2  0  0  0
 29 44  1  0  0  0
 30 45  1  0  0  0
M  END
> <s_m_entry_id>
60767

> <s_m_entry_name>
dock_pv.44

> <s_m_Source_Path>
/home/csk/Desktop/cluster/DUD-E-result/mk14

> <s_m_Source_File>
dock_pv.maegz

> <i_m_Source_File_Index>
44

> <chembl_id>
CHEMBL94556

> <chembl_pref_name>
None

> <i_lp_mmshare_version>
53161

> <i_f3d_flags>
0

> <r_lp_tautomer_probability>
1

> <s_lp_Force_Field>
OPLS_2005

> <r_lp_Energy>
49.908278

> <b_lp_Chiralities_Consistent>
1

> <s_lp_Variant>
CHEMBL260_lig115-1

> <s_i_glide_gridfile>
glide-grid_2qd9

> <i_i_glide_lignum>
131

> <i_i_glide_rotatable_bonds>
4

> <r_i_docking_score>
-9.70846594896567

> <r_i_glide_ligand_efficiency>
-0.323615531632189

> <r_i_glide_ligand_efficiency_sa>
-1.00554869817905

> <r_i_glide_ligand_efficiency_ln>
-2.205869245814

> <r_i_glide_gscore>
-9.70846594896567

> <r_i_glide_lipo>
-4.2757339852918

> <r_i_glide_hbond>
-0.637276466199406

> <r_i_glide_metal>
0

> <r_i_glide_rewards>
-1.83381818693199

> <r_i_glide_evdw>
-33.2332801818848

> <r_i_glide_ecoul>
-9.67411708831787

> <r_i_glide_erotb>
0.198371650697208

> <r_i_glide_esite>
-0.047227388897761

> <r_i_glide_emodel>
-55.6401793784073

> <r_i_glide_energy>
-42.9073972702026

> <r_i_glide_einternal>
11.3941497802734

> <i_i_glide_confnum>
1

> <i_i_glide_posenum>
234

> <r_i_glide_eff_state_penalty>
0

> <s_user_duplicate_titles>
CHEMBL260_lig115,154684

> <s_m_subgroup_title>
dock_pv

> <s_m_subgroupid>
dock_pv

> <b_m_subgroup_collapsed>
1

$$$$
CHEMBL260_lig1240
                    3D
 Schrodinger Suite 2021-1.
 40 43  0  0  1  0            999 V2000
   -1.7425   -2.3895   22.0863 C   0  0  0  0  0  0
   -1.9783   -2.3685   20.6457 C   0  0  0  0  0  0
   -2.4353   -1.2797   19.9816 C   0  0  0  0  0  0
   -1.6952   -1.1434   22.6552 N   0  0  0  0  0  0
   -2.0923    0.0616   21.9790 C   0  0  0  0  0  0
   -2.5785    0.0303   20.6434 C   0  0  0  0  0  0
   -3.0557    1.2071   19.9932 C   0  0  0  0  0  0
   -2.8350    2.4193   20.6731 C   0  0  0  0  0  0
   -2.3298    2.4516   21.9766 C   0  0  0  0  0  0
   -1.9884    1.2892   22.6253 C   0  0  0  0  0  0
   -1.6349   -3.4478   22.7210 O   0  0  0  0  0  0
   -1.4176   -1.0894   24.0553 C   0  0  0  0  0  0
   -2.4612   -1.2473   24.9847 C   0  0  0  0  0  0
   -2.2079   -1.1814   26.3549 C   0  0  0  0  0  0
   -0.9171   -0.9419   26.8170 C   0  0  0  0  0  0
    0.1226   -0.7652   25.9077 C   0  0  0  0  0  0
   -0.1154   -0.8452   24.5355 C   0  0  0  0  0  0
    1.2249   -0.6088   23.4760 Cl  0  0  0  0  0  0
   -4.0791   -1.5130   24.4604 Cl  0  0  0  0  0  0
   -3.7817    1.2329   18.6492 C   0  0  0  0  0  0
   -3.1850    1.6872   17.4590 C   0  0  0  0  0  0
   -3.8259    1.6867   16.2216 C   0  0  0  0  0  0
   -5.1421    1.2668   16.1324 C   0  0  0  0  0  0
   -5.8004    0.8866   17.2917 C   0  0  0  0  0  0
   -5.1392    0.8870   18.5224 C   0  0  0  0  0  0
   -6.0914    0.4870   19.8760 Cl  0  0  0  0  0  0
   -2.1557    3.6070   22.6777 O   0  0  0  0  0  0
   -1.6349   -3.5131   19.9990 O   0  0  0  0  0  0
   -2.5433   -1.3387   18.9100 H   0  0  0  0  0  0
   -3.1276    3.3475   20.2080 H   0  0  0  0  0  0
   -1.6108    1.3593   23.6344 H   0  0  0  0  0  0
   -3.0141   -1.3118   27.0624 H   0  0  0  0  0  0
   -0.7200   -0.8926   27.8782 H   0  0  0  0  0  0
    1.1236   -0.5771   26.2712 H   0  0  0  0  0  0
   -2.2063    2.1165   17.4381 H   0  0  0  0  0  0
   -3.3073    2.0352   15.3393 H   0  0  0  0  0  0
   -5.6529    1.2642   15.1804 H   0  0  0  0  0  0
   -6.8345    0.5862   17.2409 H   0  0  0  0  0  0
   -1.7120    3.4472   23.5149 H   0  0  0  0  0  0
   -2.4130   -4.0867   19.8762 H   0  0  0  0  0  0
  1  4  1  0  0  0
  1 11  2  0  0  0
  1  2  1  0  0  0
  2  3  2  0  0  0
  2 28  1  0  0  0
  3  6  1  0  0  0
  3 29  1  0  0  0
  4  5  1  0  0  0
  4 12  1  0  0  0
  5 10  1  0  0  0
  5  6  2  0  0  0
  6  7  1  0  0  0
  7  8  2  0  0  0
  7 20  1  0  0  0
  8  9  1  0  0  0
  8 30  1  0  0  0
  9 10  2  0  0  0
  9 27  1  0  0  0
 10 31  1  0  0  0
 12 17  1  0  0  0
 12 13  2  0  0  0
 13 14  1  0  0  0
 13 19  1  0  0  0
 14 15  2  0  0  0
 14 32  1  0  0  0
 15 16  1  0  0  0
 15 33  1  0  0  0
 16 17  2  0  0  0
 16 34  1  0  0  0
 17 18  1  0  0  0
 20 21  2  0  0  0
 20 25  1  0  0  0
 21 22  1  0  0  0
 21 35  1  0  0  0
 22 23  2  0  0  0
 22 36  1  0  0  0
 23 24  1  0  0  0
 23 37  1  0  0  0
 24 25  2  0  0  0
 24 38  1  0  0  0
 25 26  1  0  0  0
 27 39  1  0  0  0
 28 40  1  0  0  0
M  END
> <s_m_entry_id>
60768

> <s_m_entry_name>
dock_pv.45

> <s_m_Source_Path>
/home/csk/Desktop/cluster/DUD-E-result/mk14

> <s_m_Source_File>
dock_pv.maegz

> <i_m_Source_File_Index>
45

> <chembl_id>
CHEMBL271850

> <chembl_pref_name>
None

> <i_lp_mmshare_version>
53161

> <i_f3d_flags>
0

> <r_lp_tautomer_probability>
1

> <s_lp_Force_Field>
OPLS_2005

> <r_lp_Energy>
45.353292

> <b_lp_Chiralities_Consistent>
1

> <s_lp_Variant>
CHEMBL260_lig1240-1

> <s_i_glide_gridfile>
glide-grid_2qd9

> <i_i_glide_lignum>
1413

> <i_i_glide_rotatable_bonds>
4

> <r_i_docking_score>
-9.67168433764033

> <r_i_glide_ligand_efficiency>
-0.345417297772869

> <r_i_glide_ligand_efficiency_sa>
-1.04889035594715

> <r_i_glide_ligand_efficiency_ln>
-2.23250871811894

> <r_i_glide_gscore>
-9.67168433764033

> <r_i_glide_lipo>
-4.86378095746797

> <r_i_glide_hbond>
-0.332783950336442

> <r_i_glide_metal>
0

> <r_i_glide_rewards>
-0.896079878837359

> <r_i_glide_evdw>
-29.0090923309326

> <r_i_glide_ecoul>
-15.6078805923462

> <r_i_glide_erotb>
0.212597154399995

> <r_i_glide_esite>
0

> <r_i_glide_emodel>
-58.797464612671

> <r_i_glide_energy>
-44.6169729232788

> <r_i_glide_einternal>
3.15705847740173

> <i_i_glide_confnum>
3

> <i_i_glide_posenum>
45

> <r_i_glide_eff_state_penalty>
0

> <s_user_duplicate_titles>
CHEMBL260_lig1240,434282

> <s_m_subgroup_title>
dock_pv

> <s_m_subgroupid>
dock_pv

> <b_m_subgroup_collapsed>
1

$$$$
CHEMBL260_lig117
                    3D
 Schrodinger Suite 2021-1.
 45 48  0  0  1  0            999 V2000
   -1.8081   -1.2402   23.0611 N   0  0  0  0  0  0
   -2.1147   -0.0388   22.3799 C   0  0  0  0  0  0
   -2.6829   -0.0880   21.0967 C   0  0  0  0  0  0
   -1.9131   -2.4919   22.5346 C   0  0  0  0  0  0
   -2.9861    1.1035   20.4134 C   0  0  0  0  0  0
   -1.3779   -1.1531   24.4170 C   0  0  0  0  0  0
   -2.3995   -2.5732   21.2740 N   0  0  0  0  0  0
   -1.8418    1.1964   22.9665 C   0  0  0  0  0  0
   -2.0350    2.3754   22.2760 C   0  0  0  0  0  0
   -2.5898    2.3304   20.9833 C   0  0  0  0  0  0
   -2.9611   -1.4601   20.4932 C   0  0  0  0  0  0
   -3.8178    1.0474   19.1665 C   0  0  0  0  0  0
   -1.5448    3.5908   22.9779 C   0  0  0  0  0  0
   -0.0275   -0.8896   24.7197 C   0  0  0  0  0  0
   -2.3126   -1.2467   25.4645 C   0  0  0  0  0  0
   -1.6350   -3.5130   23.1439 O   0  0  0  0  0  0
   -3.2853    0.9726   17.8682 C   0  0  0  0  0  0
   -2.0350    4.0189   24.0255 O   0  0  0  0  0  0
   -4.1098    0.9305   16.7419 C   0  0  0  0  0  0
   -0.4350    4.0870   22.3891 O   0  0  0  0  0  0
   -3.9901   -1.5130   25.1493 Cl  0  0  0  0  0  0
    1.1650   -0.7130   23.4779 Cl  0  0  0  0  0  0
   -3.5686    0.8870   15.5045 F   0  0  0  0  0  0
   -5.2086    0.9721   19.2941 C   0  0  0  0  0  0
   -6.0350    0.8870   18.1724 C   0  0  0  0  0  0
   -0.5625   -0.8263   27.0791 C   0  0  0  0  0  0
   -1.8975   -1.0973   26.7880 C   0  0  0  0  0  0
    0.3650   -0.7130   26.0463 C   0  0  0  0  0  0
   -5.4905    0.8940   16.8932 C   0  0  0  0  0  0
    0.2731    5.1809   22.9535 C   0  0  0  0  0  0
   -2.4796   -3.5006   20.8778 H   0  0  0  0  0  0
   -1.4104    1.2524   23.9568 H   0  0  0  0  0  0
   -2.7714    3.2476   20.4423 H   0  0  0  0  0  0
   -4.0350   -1.5885   20.3808 H   0  0  0  0  0  0
   -2.5400   -1.5102   19.4877 H   0  0  0  0  0  0
   -2.2341    0.8870   17.6844 H   0  0  0  0  0  0
   -5.6540    0.9736   20.2760 H   0  0  0  0  0  0
   -7.1053    0.8130   18.2931 H   0  0  0  0  0  0
   -0.2442   -0.7038   28.1047 H   0  0  0  0  0  0
   -2.6137   -1.1772   27.5929 H   0  0  0  0  0  0
    1.3986   -0.5002   26.2797 H   0  0  0  0  0  0
   -6.1330    0.8364   16.0265 H   0  0  0  0  0  0
    1.1186    5.4390   22.3150 H   0  0  0  0  0  0
   -0.3641    6.0614   23.0449 H   0  0  0  0  0  0
    0.6601    4.9276   23.9418 H   0  0  0  0  0  0
  1  2  1  0  0  0
  1  4  1  0  0  0
  1  6  1  0  0  0
  2  3  2  0  0  0
  2  8  1  0  0  0
  3  5  1  0  0  0
  3 11  1  0  0  0
  4  7  1  0  0  0
  4 16  2  0  0  0
  5 12  1  0  0  0
  5 10  2  0  0  0
  6 14  1  0  0  0
  6 15  2  0  0  0
  7 11  1  0  0  0
  7 31  1  0  0  0
  8  9  2  0  0  0
  8 32  1  0  0  0
  9 10  1  0  0  0
  9 13  1  0  0  0
 10 33  1  0  0  0
 11 34  1  0  0  0
 11 35  1  0  0  0
 12 17  1  0  0  0
 12 24  2  0  0  0
 13 18  2  0  0  0
 13 20  1  0  0  0
 14 22  1  0  0  0
 14 28  2  0  0  0
 15 21  1  0  0  0
 15 27  1  0  0  0
 17 19  2  0  0  0
 17 36  1  0  0  0
 19 23  1  0  0  0
 19 29  1  0  0  0
 20 30  1  0  0  0
 24 25  1  0  0  0
 24 37  1  0  0  0
 25 29  2  0  0  0
 25 38  1  0  0  0
 26 27  2  0  0  0
 26 28  1  0  0  0
 26 39  1  0  0  0
 27 40  1  0  0  0
 28 41  1  0  0  0
 29 42  1  0  0  0
 30 43  1  0  0  0
 30 44  1  0  0  0
 30 45  1  0  0  0
M  END
> <s_m_entry_id>
60769

> <s_m_entry_name>
dock_pv.46

> <s_m_Source_Path>
/home/csk/Desktop/cluster/DUD-E-result/mk14

> <s_m_Source_File>
dock_pv.maegz

> <i_m_Source_File_Index>
46

> <chembl_id>
CHEMBL94852

> <chembl_pref_name>
None

> <i_lp_mmshare_version>
53161

> <i_f3d_flags>
0

> <r_lp_tautomer_probability>
1

> <s_lp_Force_Field>
OPLS_2005

> <r_lp_Energy>
49.266818

> <b_lp_Chiralities_Consistent>
1

> <s_lp_Variant>
CHEMBL260_lig117-1

> <s_i_glide_gridfile>
glide-grid_2qd9

> <i_i_glide_lignum>
133

> <i_i_glide_rotatable_bonds>
4

> <r_i_docking_score>
-9.66945219050987

> <r_i_glide_ligand_efficiency>
-0.322315073016996

> <r_i_glide_ligand_efficiency_sa>
-1.00150787090186

> <r_i_glide_ligand_efficiency_ln>
-2.1970048948039

> <r_i_glide_gscore>
-9.66945219050987

> <r_i_glide_lipo>
-3.69072606203153

> <r_i_glide_hbond>
-0.785556462333908

> <r_i_glide_metal>
0

> <r_i_glide_rewards>
-2.29693964578957

> <r_i_glide_evdw>
-35.032642364502

> <r_i_glide_ecoul>
-8.7691650390625

> <r_i_glide_erotb>
0.211909541252196

> <r_i_glide_esite>
-0.0411326875225784

> <r_i_glide_emodel>
-43.8202970129758

> <r_i_glide_energy>
-43.8018074035645

> <r_i_glide_einternal>
9.97176361083984

> <i_i_glide_confnum>
10

> <i_i_glide_posenum>
346

> <r_i_glide_eff_state_penalty>
0

> <s_user_duplicate_titles>
CHEMBL260_lig117,155184

> <s_m_subgroup_title>
dock_pv

> <s_m_subgroupid>
dock_pv

> <b_m_subgroup_collapsed>
1

$$$$
CHEMBL260_lig123
                    3D
 Schrodinger Suite 2021-1.
 45 48  0  0  1  0            999 V2000
   -1.7502   -1.2254   23.0449 N   0  0  0  0  0  0
   -2.0670   -0.0081   22.3922 C   0  0  0  0  0  0
   -2.6793   -0.0322   21.1294 C   0  0  0  0  0  0
   -1.8615   -2.4683   22.4945 C   0  0  0  0  0  0
   -1.3447   -1.1605   24.4083 C   0  0  0  0  0  0
   -3.0196    1.1743   20.4848 C   0  0  0  0  0  0
   -2.3148   -2.5116   21.2203 N   0  0  0  0  0  0
   -1.7841    1.2183   22.9936 C   0  0  0  0  0  0
   -2.0350    2.4097   22.3424 C   0  0  0  0  0  0
   -2.6119    2.3896   21.0623 C   0  0  0  0  0  0
   -2.9611   -1.3979   20.5088 C   0  0  0  0  0  0
   -1.6098    3.6238   23.0760 C   0  0  0  0  0  0
   -0.0011   -0.8943   24.7374 C   0  0  0  0  0  0
   -2.2992   -1.2572   25.4373 C   0  0  0  0  0  0
   -1.6350   -3.5130   23.0895 O   0  0  0  0  0  0
   -3.9065    1.1387   19.2781 C   0  0  0  0  0  0
   -2.2217    4.0834   24.0429 O   0  0  0  0  0  0
   -0.4349    4.0872   22.6138 O   0  0  0  0  0  0
    1.2148   -0.7131   23.5193 Cl  0  0  0  0  0  0
   -3.9725   -1.5130   25.0905 Cl  0  0  0  0  0  0
   -0.5817   -0.8332   27.0855 C   0  0  0  0  0  0
   -1.9098   -1.1106   26.7691 C   0  0  0  0  0  0
    0.3650   -0.7131   26.0710 C   0  0  0  0  0  0
   -5.2352    0.7363   19.4514 C   0  0  0  0  0  0
   -3.4636    1.4228   17.9775 C   0  0  0  0  0  0
    0.2109    5.1950   23.2245 C   0  0  0  0  0  0
   -4.3179    1.2870   16.8848 C   0  0  0  0  0  0
   -6.0924    0.5990   18.3652 C   0  0  0  0  0  0
   -5.6346    0.8870   17.0838 C   0  0  0  0  0  0
   -2.3730   -3.4272   20.7941 H   0  0  0  0  0  0
   -1.3271    1.2606   23.9727 H   0  0  0  0  0  0
   -2.8330    3.3165   20.5545 H   0  0  0  0  0  0
   -4.0347   -1.5637   20.4717 H   0  0  0  0  0  0
   -2.6108   -1.4098   19.4756 H   0  0  0  0  0  0
   -0.2833   -0.7103   28.1170 H   0  0  0  0  0  0
   -2.6410   -1.1931   27.5599 H   0  0  0  0  0  0
    1.3927   -0.4957   26.3238 H   0  0  0  0  0  0
   -5.6029    0.5004   20.4373 H   0  0  0  0  0  0
   -2.4549    1.7326   17.7703 H   0  0  0  0  0  0
    1.1385    5.4161   22.6947 H   0  0  0  0  0  0
   -0.4178    6.0858   23.1934 H   0  0  0  0  0  0
    0.4587    4.9798   24.2655 H   0  0  0  0  0  0
   -3.9602    1.4983   15.8869 H   0  0  0  0  0  0
   -7.1120    0.2730   18.5112 H   0  0  0  0  0  0
   -6.3034    0.7826   16.2411 H   0  0  0  0  0  0
  1  2  1  0  0  0
  1  4  1  0  0  0
  1  5  1  0  0  0
  2  3  2  0  0  0
  2  8  1  0  0  0
  3  6  1  0  0  0
  3 11  1  0  0  0
  4  7  1  0  0  0
  4 15  2  0  0  0
  5 13  2  0  0  0
  5 14  1  0  0  0
  6 16  1  0  0  0
  6 10  2  0  0  0
  7 11  1  0  0  0
  7 30  1  0  0  0
  8  9  2  0  0  0
  8 31  1  0  0  0
  9 10  1  0  0  0
  9 12  1  0  0  0
 10 32  1  0  0  0
 11 33  1  0  0  0
 11 34  1  0  0  0
 12 17  2  0  0  0
 12 18  1  0  0  0
 13 19  1  0  0  0
 13 23  1  0  0  0
 14 20  1  0  0  0
 14 22  2  0  0  0
 16 24  2  0  0  0
 16 25  1  0  0  0
 18 26  1  0  0  0
 21 22  1  0  0  0
 21 23  2  0  0  0
 21 35  1  0  0  0
 22 36  1  0  0  0
 23 37  1  0  0  0
 24 28  1  0  0  0
 24 38  1  0  0  0
 25 27  2  0  0  0
 25 39  1  0  0  0
 26 40  1  0  0  0
 26 41  1  0  0  0
 26 42  1  0  0  0
 27 29  1  0  0  0
 27 43  1  0  0  0
 28 29  2  0  0  0
 28 44  1  0  0  0
 29 45  1  0  0  0
M  END
> <s_m_entry_id>
60770

> <s_m_entry_name>
dock_pv.47

> <s_m_Source_Path>
/home/csk/Desktop/cluster/DUD-E-result/mk14

> <s_m_Source_File>
dock_pv.maegz

> <i_m_Source_File_Index>
47

> <chembl_id>
CHEMBL421194

> <chembl_pref_name>
None

> <i_lp_mmshare_version>
53161

> <i_f3d_flags>
0

> <r_lp_tautomer_probability>
1

> <s_lp_Force_Field>
OPLS_2005

> <r_lp_Energy>
49.789207

> <b_lp_Chiralities_Consistent>
1

> <s_lp_Variant>
CHEMBL260_lig123-1

> <s_i_glide_gridfile>
glide-grid_2qd9

> <i_i_glide_lignum>
140

> <i_i_glide_rotatable_bonds>
4

> <r_i_docking_score>
-9.66763980148757

> <r_i_glide_ligand_efficiency>
-0.333366889706468

> <r_i_glide_ligand_efficiency_sa>
-1.02420870322213

> <r_i_glide_ligand_efficiency_ln>
-2.21364436434742

> <r_i_glide_gscore>
-9.66763980148757

> <r_i_glide_lipo>
-3.9378259499612

> <r_i_glide_hbond>
-0.73965765008831

> <r_i_glide_metal>
0

> <r_i_glide_rewards>
-1.98755509262877

> <r_i_glide_evdw>
-35.7874870300293

> <r_i_glide_ecoul>
-9.33040523529053

> <r_i_glide_erotb>
0.228366578928059

> <r_i_glide_esite>
-0.0420325509422958

> <r_i_glide_emodel>
-45.3045192760097

> <r_i_glide_energy>
-45.1178922653198

> <r_i_glide_einternal>
9.33629131317139

> <i_i_glide_confnum>
2

> <i_i_glide_posenum>
39

> <r_i_glide_eff_state_penalty>
0

> <s_user_duplicate_titles>
CHEMBL260_lig123,155308

> <s_m_subgroup_title>
dock_pv

> <s_m_subgroupid>
dock_pv

> <b_m_subgroup_collapsed>
1

$$$$
CHEMBL260_lig92
                    3D
 Schrodinger Suite 2021-1.
 56 60  0  0  1  0            999 V2000
   -1.9857   -1.2453   22.7935 N   0  0  0  0  0  0
   -2.3059   -0.0770   22.0586 C   0  0  0  0  0  0
   -2.8345   -0.1635   20.7559 C   0  0  0  0  0  0
   -2.1548   -2.5168   22.3397 C   0  0  0  0  0  0
   -3.1557    1.0078   20.0323 C   0  0  0  0  0  0
   -1.4813   -1.1160   24.1294 C   0  0  0  0  0  0
   -2.5950   -2.6467   21.0677 N   0  0  0  0  0  0
   -3.8242    0.9749   18.6758 C   0  0  0  0  0  0
   -2.9955   -1.5518   20.1671 C   0  0  0  0  0  0
   -2.0364    1.1695   22.6027 C   0  0  0  0  0  0
   -2.1937    2.3181   21.8631 C   0  0  0  0  0  0
   -2.8005    2.2417   20.6016 C   0  0  0  0  0  0
   -1.6352    3.5206   22.3117 N   0  0  0  0  0  0
   -0.1219   -0.8244   24.3656 C   0  0  0  0  0  0
   -2.3464   -1.2347   25.2339 C   0  0  0  0  0  0
   -1.9673   -3.5130   23.0217 O   0  0  0  0  0  0
   -5.2143    0.8861   18.5302 C   0  0  0  0  0  0
   -0.2766    5.2835   25.9254 N   0  0  2  0  0  0
   -0.8637    3.6543   23.5519 C   0  0  0  0  0  0
    0.9822   -0.5151   23.0764 Cl  0  0  0  0  0  0
   -4.0345   -1.5131   25.0244 Cl  0  0  0  0  0  0
   -6.2421    0.6514   19.8760 Cl  0  0  0  0  0  0
   -0.0344    4.9484   23.4797 C   0  0  0  0  0  0
   -1.8153    3.7186   24.7673 C   0  0  0  0  0  0
   -3.0947    1.0197   17.4787 C   0  0  0  0  0  0
   -1.0523    4.0495   26.0643 C   0  0  0  0  0  0
    0.6776    5.2392   24.8151 C   0  0  0  0  0  0
   -0.5029   -0.8616   26.7533 C   0  0  0  0  0  0
   -1.8543   -1.1137   26.5339 C   0  0  0  0  0  0
    0.3575   -0.7100   25.6702 C   0  0  0  0  0  0
   -5.8121    0.8866   17.2715 C   0  0  0  0  0  0
   -3.6847    1.0653   16.2173 C   0  0  0  0  0  0
   -5.0628    1.0050   16.1109 C   0  0  0  0  0  0
   -2.7219   -3.5928   20.7250 H   0  0  0  0  0  0
   -4.0320   -1.6877   19.8759 H   0  0  0  0  0  0
   -2.4100   -1.6286   19.2500 H   0  0  0  0  0  0
   -1.5953    1.2404   23.5791 H   0  0  0  0  0  0
   -2.9561    3.1458   20.0328 H   0  0  0  0  0  0
   -1.1348    3.9406   21.5404 H   0  0  0  0  0  0
    0.2194    5.4682   26.7882 H   0  0  0  0  0  0
   -0.1776    2.8100   23.6497 H   0  0  0  0  0  0
    0.7247    4.8479   22.7020 H   0  0  0  0  0  0
   -0.6303    5.8137   23.1882 H   0  0  0  0  0  0
   -2.6093    4.4504   24.6188 H   0  0  0  0  0  0
   -2.3332    2.7719   24.9114 H   0  0  0  0  0  0
   -2.0352    0.9681   17.4759 H   0  0  0  0  0  0
   -0.3767    3.2325   26.3253 H   0  0  0  0  0  0
   -1.7522    4.1643   26.8931 H   0  0  0  0  0  0
    1.4326    4.4770   25.0183 H   0  0  0  0  0  0
    1.1959    6.1974   24.7623 H   0  0  0  0  0  0
   -0.1225   -0.7742   27.7612 H   0  0  0  0  0  0
   -2.5214   -1.2171   27.3777 H   0  0  0  0  0  0
    1.4020   -0.4943   25.8454 H   0  0  0  0  0  0
   -6.8676    0.7768   17.1982 H   0  0  0  0  0  0
   -3.0724    1.1086   15.3277 H   0  0  0  0  0  0
   -5.5424    1.0092   15.1426 H   0  0  0  0  0  0
  1  2  1  0  0  0
  1  4  1  0  0  0
  1  6  1  0  0  0
  2  3  2  0  0  0
  2 10  1  0  0  0
  3  5  1  0  0  0
  3  9  1  0  0  0
  4  7  1  0  0  0
  4 16  2  0  0  0
  5  8  1  0  0  0
  5 12  2  0  0  0
  6 14  1  0  0  0
  6 15  2  0  0  0
  7  9  1  0  0  0
  7 34  1  0  0  0
  8 17  1  0  0  0
  8 25  2  0  0  0
  9 35  1  0  0  0
  9 36  1  0  0  0
 10 11  2  0  0  0
 10 37  1  0  0  0
 11 12  1  0  0  0
 11 13  1  0  0  0
 12 38  1  0  0  0
 13 19  1  0  0  0
 13 39  1  0  0  0
 14 20  1  0  0  0
 14 30  2  0  0  0
 15 21  1  0  0  0
 15 29  1  0  0  0
 17 22  1  0  0  0
 17 31  2  0  0  0
 18 26  1  0  0  0
 18 27  1  0  0  0
 18 40  1  0  0  0
 19 23  1  0  0  0
 19 24  1  0  0  0
 19 41  1  0  0  0
 23 27  1  0  0  0
 23 42  1  0  0  0
 23 43  1  0  0  0
 24 26  1  0  0  0
 24 44  1  0  0  0
 24 45  1  0  0  0
 25 32  1  0  0  0
 25 46  1  0  0  0
 26 47  1  0  0  0
 26 48  1  0  0  0
 27 49  1  0  0  0
 27 50  1  0  0  0
 28 29  2  0  0  0
 28 30  1  0  0  0
 28 51  1  0  0  0
 29 52  1  0  0  0
 30 53  1  0  0  0
 31 33  1  0  0  0
 31 54  1  0  0  0
 32 33  2  0  0  0
 32 55  1  0  0  0
 33 56  1  0  0  0
M  END
> <s_m_entry_id>
60771

> <s_m_entry_name>
dock_pv.48

> <s_m_Source_Path>
/home/csk/Desktop/cluster/DUD-E-result/mk14

> <s_m_Source_File>
dock_pv.maegz

> <i_m_Source_File_Index>
48

> <chembl_id>
CHEMBL327987

> <chembl_pref_name>
None

> <i_lp_mmshare_version>
53161

> <i_f3d_flags>
0

> <r_lp_tautomer_probability>
1

> <s_lp_Force_Field>
OPLS_2005

> <r_lp_Energy>
58.256048

> <b_lp_Chiralities_Consistent>
1

> <s_lp_Variant>
CHEMBL260_lig92-1

> <s_i_glide_gridfile>
glide-grid_2qd9

> <i_i_glide_lignum>
108

> <i_i_glide_rotatable_bonds>
4

> <r_i_docking_score>
-9.66179698690775

> <r_i_glide_ligand_efficiency>
-0.292781726875992

> <r_i_glide_ligand_efficiency_sa>
-0.939107439055675

> <r_i_glide_ligand_efficiency_ln>
-2.14873362378082

> <r_i_glide_gscore>
-9.66179698690775

> <r_i_glide_lipo>
-4.04500614314136

> <r_i_glide_hbond>
-0.804507840569667

> <r_i_glide_metal>
0

> <r_i_glide_rewards>
-1.52042563014582

> <r_i_glide_evdw>
-33.609489440918

> <r_i_glide_ecoul>
-12.0061082839966

> <r_i_glide_erotb>
0.22713635283002

> <r_i_glide_esite>
-0.0376030112355386

> <r_i_glide_emodel>
-63.1888771478546

> <r_i_glide_energy>
-45.6155977249146

> <r_i_glide_einternal>
3.25034046173096

> <i_i_glide_confnum>
13

> <i_i_glide_posenum>
235

> <r_i_glide_eff_state_penalty>
0

> <s_user_duplicate_titles>
CHEMBL260_lig92,154816

> <s_m_subgroup_title>
dock_pv

> <s_m_subgroupid>
dock_pv

> <b_m_subgroup_collapsed>
1

$$$$
CHEMBL260_lig96
                    3D
 Schrodinger Suite 2021-1.
 56 60  0  0  1  0            999 V2000
   -1.9417   -1.2669   22.7422 N   0  0  0  0  0  0
   -2.2609   -0.1107   21.9976 C   0  0  0  0  0  0
   -2.8142   -0.2093   20.7058 C   0  0  0  0  0  0
   -2.1199   -2.5381   22.2982 C   0  0  0  0  0  0
   -3.1612    0.9604   19.9949 C   0  0  0  0  0  0
   -1.4637   -1.1259   24.0886 C   0  0  0  0  0  0
   -3.8311    0.9253   18.6511 C   0  0  0  0  0  0
   -2.5214   -2.6830   21.0134 N   0  0  0  0  0  0
   -5.2217    0.8870   18.5140 C   0  0  0  0  0  0
   -2.9882   -1.6032   20.1245 C   0  0  0  0  0  0
   -1.9852    1.1373   22.5306 C   0  0  0  0  0  0
   -2.1800    2.2814   21.7954 C   0  0  0  0  0  0
   -2.8350    2.1998   20.5600 C   0  0  0  0  0  0
   -5.8150    0.8870   17.2545 C   0  0  0  0  0  0
   -0.7193    3.5584   23.4379 N   0  0  0  0  0  0
   -3.0923    0.9301   17.4626 C   0  0  0  0  0  0
   -0.1079   -0.8377   24.3485 C   0  0  0  0  0  0
   -2.3499   -1.2359   25.1773 C   0  0  0  0  0  0
   -1.9875   -3.5130   23.0164 O   0  0  0  0  0  0
    0.7452    4.4921   25.7801 N   0  0  0  0  0  0
   -1.6974    3.6077   22.3391 C   0  0  0  0  0  0
   -5.0512    0.8875   16.0981 C   0  0  0  0  0  0
   -6.2458    0.7301   19.8759 Cl  0  0  0  0  0  0
   -3.6747    0.9257   16.2003 C   0  0  0  0  0  0
    1.0233   -0.5523   23.0782 Cl  0  0  0  0  0  0
   -4.0350   -1.5128   24.9379 Cl  0  0  0  0  0  0
   -5.6350    0.7911   14.8887 F   0  0  0  0  0  0
    0.2879    4.6250   23.3295 C   0  0  0  0  0  0
   -1.3449    3.6259   24.7678 C   0  0  0  0  0  0
   -0.2651    3.4358   25.8604 C   0  0  0  0  0  0
    1.3550    4.4882   24.4478 C   0  0  0  0  0  0
   -0.5346   -0.8562   26.7288 C   0  0  0  0  0  0
    0.3465   -0.7124   25.6613 C   0  0  0  0  0  0
   -1.8815   -1.1103   26.4858 C   0  0  0  0  0  0
   -2.6404   -3.6327   20.6791 H   0  0  0  0  0  0
   -4.0349   -1.7531   19.8770 H   0  0  0  0  0  0
   -2.4356   -1.6734   19.1862 H   0  0  0  0  0  0
   -1.5288    1.2292   23.5007 H   0  0  0  0  0  0
   -3.0393    3.1032   20.0044 H   0  0  0  0  0  0
   -6.8721    0.8142   17.1744 H   0  0  0  0  0  0
   -2.0350    0.8874   17.4761 H   0  0  0  0  0  0
    1.4612    4.3349   26.4784 H   0  0  0  0  0  0
   -1.2540    4.0871   21.4667 H   0  0  0  0  0  0
   -2.6114    4.0870   22.6762 H   0  0  0  0  0  0
   -3.0636    0.9082   15.3093 H   0  0  0  0  0  0
    0.7850    4.5593   22.3602 H   0  0  0  0  0  0
   -0.1835    5.6079   23.3768 H   0  0  0  0  0  0
   -1.8491    4.5838   24.9063 H   0  0  0  0  0  0
   -2.1088    2.8553   24.8732 H   0  0  0  0  0  0
   -0.7121    3.4482   26.8547 H   0  0  0  0  0  0
    0.2135    2.4589   25.7645 H   0  0  0  0  0  0
    2.0762    5.3038   24.3911 H   0  0  0  0  0  0
    1.9431    3.5779   24.3163 H   0  0  0  0  0  0
   -0.1731   -0.7624   27.7431 H   0  0  0  0  0  0
    1.3879   -0.4965   25.8548 H   0  0  0  0  0  0
   -2.5646   -1.2073   27.3172 H   0  0  0  0  0  0
  1  2  1  0  0  0
  1  4  1  0  0  0
  1  6  1  0  0  0
  2  3  2  0  0  0
  2 11  1  0  0  0
  3  5  1  0  0  0
  3 10  1  0  0  0
  4  8  1  0  0  0
  4 19  2  0  0  0
  5  7  1  0  0  0
  5 13  2  0  0  0
  6 17  2  0  0  0
  6 18  1  0  0  0
  7  9  1  0  0  0
  7 16  2  0  0  0
  8 10  1  0  0  0
  8 35  1  0  0  0
  9 14  2  0  0  0
  9 23  1  0  0  0
 10 36  1  0  0  0
 10 37  1  0  0  0
 11 12  2  0  0  0
 11 38  1  0  0  0
 12 13  1  0  0  0
 12 21  1  0  0  0
 13 39  1  0  0  0
 14 22  1  0  0  0
 14 40  1  0  0  0
 15 21  1  0  0  0
 15 28  1  0  0  0
 15 29  1  0  0  0
 16 24  1  0  0  0
 16 41  1  0  0  0
 17 25  1  0  0  0
 17 33  1  0  0  0
 18 26  1  0  0  0
 18 34  2  0  0  0
 20 30  1  0  0  0
 20 31  1  0  0  0
 20 42  1  0  0  0
 21 43  1  0  0  0
 21 44  1  0  0  0
 22 24  2  0  0  0
 22 27  1  0  0  0
 24 45  1  0  0  0
 28 31  1  0  0  0
 28 46  1  0  0  0
 28 47  1  0  0  0
 29 30  1  0  0  0
 29 48  1  0  0  0
 29 49  1  0  0  0
 30 50  1  0  0  0
 30 51  1  0  0  0
 31 52  1  0  0  0
 31 53  1  0  0  0
 32 34  1  0  0  0
 32 33  2  0  0  0
 32 54  1  0  0  0
 33 55  1  0  0  0
 34 56  1  0  0  0
M  END
> <s_m_entry_id>
60772

> <s_m_entry_name>
dock_pv.49

> <s_m_Source_Path>
/home/csk/Desktop/cluster/DUD-E-result/mk14

> <s_m_Source_File>
dock_pv.maegz

> <i_m_Source_File_Index>
49

> <chembl_id>
CHEMBL327746

> <chembl_pref_name>
None

> <i_lp_mmshare_version>
53161

> <i_f3d_flags>
0

> <r_lp_tautomer_probability>
1

> <s_lp_Force_Field>
OPLS_2005

> <r_lp_Energy>
68.113697

> <b_lp_Chiralities_Consistent>
1

> <s_lp_Variant>
CHEMBL260_lig96-1

> <s_i_glide_gridfile>
glide-grid_2qd9

> <i_i_glide_lignum>
112

> <i_i_glide_rotatable_bonds>
4

> <r_i_docking_score>
-9.65613803645261

> <r_i_glide_ligand_efficiency>
-0.284004059895665

> <r_i_glide_ligand_efficiency_sa>
-0.920062902967222

> <r_i_glide_ligand_efficiency_ln>
-2.13331173775016

> <r_i_glide_gscore>
-9.65613803645261

> <r_i_glide_lipo>
-3.98996417833676

> <r_i_glide_hbond>
-0.799904202567301

> <r_i_glide_metal>
0

> <r_i_glide_rewards>
-1.81942577979787

> <r_i_glide_evdw>
-35.715877532959

> <r_i_glide_ecoul>
-9.82640647888184

> <r_i_glide_erotb>
0.212910972729544

> <r_i_glide_esite>
0

> <r_i_glide_emodel>
-45.1801485262889

> <r_i_glide_energy>
-45.5422840118408

> <r_i_glide_einternal>
4.41292572021484

> <i_i_glide_confnum>
10

> <i_i_glide_posenum>
157

> <r_i_glide_eff_state_penalty>
0

> <s_user_duplicate_titles>
CHEMBL260_lig96,154845

> <s_m_subgroup_title>
dock_pv

> <s_m_subgroupid>
dock_pv

> <b_m_subgroup_collapsed>
1

$$$$
CHEMBL260_lig873
                    3D
 Schrodinger Suite 2021-1.
 42 45  0  0  1  0            999 V2000
    0.5188   -0.5262   25.6284 C   0  0  0  0  0  0
    0.1170   -0.6793   24.3018 C   0  0  0  0  0  0
   -1.2074   -1.0604   24.0007 C   0  0  0  0  0  0
   -2.1310   -1.1917   25.0581 C   0  0  0  0  0  0
   -1.7131   -1.0344   26.3798 C   0  0  0  0  0  0
   -0.3889   -0.7148   26.6664 C   0  0  0  0  0  0
   -3.8044   -1.5129   24.7676 Cl  0  0  0  0  0  0
    1.2771   -0.3127   23.0761 Cl  0  0  0  0  0  0
   -1.6284   -1.2635   22.6427 N   0  0  0  0  0  0
   -1.7440   -2.5519   22.2217 C   0  0  0  0  0  0
   -2.0783   -2.7305   20.9197 N   0  0  0  0  0  0
   -2.6926   -1.7217   20.0381 C   0  0  0  0  0  0
   -2.0569   -0.1606   21.8788 C   0  0  0  0  0  0
   -2.6269   -0.3203   20.6059 C   0  0  0  0  0  0
   -3.1203    0.8445   19.9791 C   0  0  0  0  0  0
   -3.0058    2.0620   20.5814 N   0  0  0  0  0  0
   -2.4367    2.0876   21.8155 C   0  0  0  0  0  0
   -1.9543    1.0361   22.4763 N   0  0  0  0  0  0
   -3.8175    0.8670   18.6500 C   0  0  0  0  0  0
   -3.0963    0.9190   17.4535 C   0  0  0  0  0  0
   -3.7004    1.0241   16.2017 C   0  0  0  0  0  0
   -5.0826    1.0178   16.1132 C   0  0  0  0  0  0
   -5.8239    0.8872   17.2790 C   0  0  0  0  0  0
   -5.2110    0.8128   18.5279 C   0  0  0  0  0  0
   -6.2217    0.5119   19.8759 Cl  0  0  0  0  0  0
   -1.6353   -3.5130   22.9651 O   0  0  0  0  0  0
   -2.4347    3.2870   22.5072 N   0  0  0  0  0  0
   -1.6537    3.4911   23.7266 C   0  0  0  0  0  0
    1.5444   -0.2562   25.8528 H   0  0  0  0  0  0
   -2.4198   -1.1528   27.1885 H   0  0  0  0  0  0
   -0.0679   -0.5962   27.6917 H   0  0  0  0  0  0
   -2.1350   -3.6897   20.6054 H   0  0  0  0  0  0
   -3.7309   -1.9902   19.8760 H   0  0  0  0  0  0
   -2.1949   -1.7478   19.0720 H   0  0  0  0  0  0
   -2.0350    0.8875   17.4755 H   0  0  0  0  0  0
   -3.0986    1.0889   15.3059 H   0  0  0  0  0  0
   -5.5734    1.0756   15.1524 H   0  0  0  0  0  0
   -6.8853    0.8176   17.2224 H   0  0  0  0  0  0
   -2.6616    4.0870   21.9450 H   0  0  0  0  0  0
   -1.8253    4.4867   24.1326 H   0  0  0  0  0  0
   -1.9254    2.7657   24.4946 H   0  0  0  0  0  0
   -0.5875    3.3876   23.5203 H   0  0  0  0  0  0
  1  2  2  0  0  0
  1  6  1  0  0  0
  1 29  1  0  0  0
  2  8  1  0  0  0
  2  3  1  0  0  0
  3  4  2  0  0  0
  3  9  1  0  0  0
  4  7  1  0  0  0
  4  5  1  0  0  0
  5  6  2  0  0  0
  5 30  1  0  0  0
  6 31  1  0  0  0
  9 10  1  0  0  0
  9 13  1  0  0  0
 10 11  1  0  0  0
 10 26  2  0  0  0
 11 12  1  0  0  0
 11 32  1  0  0  0
 12 14  1  0  0  0
 12 33  1  0  0  0
 12 34  1  0  0  0
 13 14  2  0  0  0
 13 18  1  0  0  0
 14 15  1  0  0  0
 15 16  2  0  0  0
 15 19  1  0  0  0
 16 17  1  0  0  0
 17 18  2  0  0  0
 17 27  1  0  0  0
 19 20  2  0  0  0
 19 24  1  0  0  0
 20 21  1  0  0  0
 20 35  1  0  0  0
 21 22  2  0  0  0
 21 36  1  0  0  0
 22 23  1  0  0  0
 22 37  1  0  0  0
 23 24  2  0  0  0
 23 38  1  0  0  0
 24 25  1  0  0  0
 27 28  1  0  0  0
 27 39  1  0  0  0
 28 40  1  0  0  0
 28 41  1  0  0  0
 28 42  1  0  0  0
M  END
> <s_m_entry_id>
60773

> <s_m_entry_name>
dock_pv.50

> <s_m_Source_Path>
/home/csk/Desktop/cluster/DUD-E-result/mk14

> <s_m_Source_File>
dock_pv.maegz

> <i_m_Source_File_Index>
50

> <chembl_id>
CHEMBL425785

> <chembl_pref_name>
None

> <i_lp_mmshare_version>
53161

> <i_f3d_flags>
0

> <r_lp_tautomer_probability>
0.999999987636

> <s_lp_Force_Field>
OPLS_2005

> <r_lp_Energy>
35.398215

> <b_lp_Chiralities_Consistent>
1

> <s_lp_Variant>
CHEMBL260_lig873-1

> <s_i_glide_gridfile>
glide-grid_2qd9

> <i_i_glide_lignum>
971

> <i_i_glide_rotatable_bonds>
3

> <r_i_docking_score>
-9.62542729090277

> <r_i_glide_ligand_efficiency>
-0.343765260389384

> <r_i_glide_ligand_efficiency_sa>
-1.0438737974529

> <r_i_glide_ligand_efficiency_ln>
-2.221831233566

> <r_i_glide_gscore>
-9.62542729090277

> <r_i_glide_lipo>
-4.02853445546286

> <r_i_glide_hbond>
-0.702471739821975

> <r_i_glide_metal>
0

> <r_i_glide_rewards>
-2.02075187380816

> <r_i_glide_evdw>
-35.6008491516113

> <r_i_glide_ecoul>
-8.12262535095215

> <r_i_glide_erotb>
0.147565354735156

> <r_i_glide_esite>
-0.0227983163215375

> <r_i_glide_emodel>
-49.3211780602824

> <r_i_glide_energy>
-43.7234745025635

> <r_i_glide_einternal>
2.19528841972351

> <i_i_glide_confnum>
8

> <i_i_glide_posenum>
42

> <r_i_glide_eff_state_penalty>
0

> <s_user_duplicate_titles>
CHEMBL260_lig873,355351

> <s_m_subgroup_title>
dock_pv

> <s_m_subgroupid>
dock_pv

> <b_m_subgroup_collapsed>
1

$$$$
CHEMBL260_lig95
                    3D
 Schrodinger Suite 2021-1.
 54 58  0  0  1  0            999 V2000
   -1.6982   -1.3095   22.4679 N   0  0  0  0  0  0
   -1.9812   -0.1085   21.8071 C   0  0  0  0  0  0
   -2.6080   -0.1042   20.5501 C   0  0  0  0  0  0
   -3.0578    1.1088   19.9888 C   0  0  0  0  0  0
   -1.7451   -2.5219   21.8721 C   0  0  0  0  0  0
   -1.6642   -1.2986   23.9013 C   0  0  0  0  0  0
   -3.7842    1.1237   18.6602 C   0  0  0  0  0  0
   -2.0443   -2.5394   20.5539 N   0  0  0  0  0  0
   -1.7074    1.0693   22.4578 C   0  0  0  0  0  0
   -2.8353    2.2903   20.7311 C   0  0  0  0  0  0
   -2.2168    2.2502   22.0009 C   0  0  0  0  0  0
   -5.1633    0.8871   18.5327 C   0  0  0  0  0  0
   -2.7810   -1.4575   19.8780 C   0  0  0  0  0  0
   -5.7889    0.8867   17.2859 C   0  0  0  0  0  0
   -3.0908    1.2831   17.4533 C   0  0  0  0  0  0
   -0.4403   -1.2142   24.5944 C   0  0  0  0  0  0
   -2.8643   -1.3183   24.6364 C   0  0  0  0  0  0
   -1.6339   -3.5448   22.5044 O   0  0  0  0  0  0
   -1.0991    4.7086   25.4451 N   0  0  2  0  0  0
   -2.1447    3.3939   23.0021 C   0  0  0  0  0  0
   -5.0526    1.0309   16.1201 C   0  0  0  0  0  0
   -6.1423    0.4874   19.8760 Cl  0  0  0  0  0  0
   -3.6914    1.2365   16.2027 C   0  0  0  0  0  0
    1.0736   -1.1082   23.7709 Cl  0  0  0  0  0  0
   -4.3997   -1.3495   23.8478 Cl  0  0  0  0  0  0
   -5.6332    0.8901   14.9149 F   0  0  0  0  0  0
   -1.6218   -1.2193   26.7064 C   0  0  0  0  0  0
   -2.4754    4.2151   25.4195 C   0  0  0  0  0  0
   -0.6025    5.1162   24.1308 C   0  0  0  0  0  0
   -0.4298   -1.1724   25.9883 C   0  0  0  0  0  0
   -2.8364   -1.2902   26.0298 C   0  0  0  0  0  0
   -2.6319    3.0366   24.4382 C   0  0  0  0  0  0
   -0.7109    3.9733   23.1000 C   0  0  0  0  0  0
   -2.0986   -3.4593   20.1369 H   0  0  0  0  0  0
   -1.1673    1.0657   23.3906 H   0  0  0  0  0  0
   -3.2126    3.2257   20.3474 H   0  0  0  0  0  0
   -3.8368   -1.7111   19.8832 H   0  0  0  0  0  0
   -2.4440   -1.4044   18.8420 H   0  0  0  0  0  0
   -6.8363    0.6681   17.2100 H   0  0  0  0  0  0
   -2.0363    1.3865   17.4271 H   0  0  0  0  0  0
   -0.5015    3.9642   25.7819 H   0  0  0  0  0  0
   -2.8727    4.0866   22.6259 H   0  0  0  0  0  0
   -3.1031    1.3339   15.3019 H   0  0  0  0  0  0
   -1.6028   -1.1997   27.7869 H   0  0  0  0  0  0
   -3.1501    5.0320   25.1642 H   0  0  0  0  0  0
   -2.7424    3.8965   26.4285 H   0  0  0  0  0  0
   -1.1574    5.9948   23.7997 H   0  0  0  0  0  0
    0.4388    5.4225   24.2389 H   0  0  0  0  0  0
    0.5103   -1.1043   26.5171 H   0  0  0  0  0  0
   -3.7592   -1.3194   26.5915 H   0  0  0  0  0  0
   -3.6940    2.7892   24.4063 H   0  0  0  0  0  0
   -2.1364    2.1741   24.8799 H   0  0  0  0  0  0
    0.0255    3.2095   23.3637 H   0  0  0  0  0  0
   -0.4131    4.3741   22.1309 H   0  0  0  0  0  0
  1  2  1  0  0  0
  1  5  1  0  0  0
  1  6  1  0  0  0
  2  3  2  0  0  0
  2  9  1  0  0  0
  3  4  1  0  0  0
  3 13  1  0  0  0
  4  7  1  0  0  0
  4 10  2  0  0  0
  5  8  1  0  0  0
  5 18  2  0  0  0
  6 16  1  0  0  0
  6 17  2  0  0  0
  7 12  1  0  0  0
  7 15  2  0  0  0
  8 13  1  0  0  0
  8 34  1  0  0  0
  9 11  2  0  0  0
  9 35  1  0  0  0
 10 11  1  0  0  0
 10 36  1  0  0  0
 11 20  1  0  0  0
 12 14  2  0  0  0
 12 22  1  0  0  0
 13 37  1  0  0  0
 13 38  1  0  0  0
 14 21  1  0  0  0
 14 39  1  0  0  0
 15 23  1  0  0  0
 15 40  1  0  0  0
 16 24  1  0  0  0
 16 30  2  0  0  0
 17 25  1  0  0  0
 17 31  1  0  0  0
 19 29  1  0  0  0
 19 28  1  0  0  0
 19 41  1  0  0  0
 20 32  1  0  0  0
 20 33  1  0  0  0
 20 42  1  0  0  0
 21 23  2  0  0  0
 21 26  1  0  0  0
 23 43  1  0  0  0
 27 31  2  0  0  0
 27 30  1  0  0  0
 27 44  1  0  0  0
 28 32  1  0  0  0
 28 45  1  0  0  0
 28 46  1  0  0  0
 29 33  1  0  0  0
 29 47  1  0  0  0
 29 48  1  0  0  0
 30 49  1  0  0  0
 31 50  1  0  0  0
 32 51  1  0  0  0
 32 52  1  0  0  0
 33 53  1  0  0  0
 33 54  1  0  0  0
M  END
> <s_m_entry_id>
60774

> <s_m_entry_name>
dock_pv.51

> <s_m_Source_Path>
/home/csk/Desktop/cluster/DUD-E-result/mk14

> <s_m_Source_File>
dock_pv.maegz

> <i_m_Source_File_Index>
51

> <chembl_id>
CHEMBL328614

> <chembl_pref_name>
None

> <i_lp_mmshare_version>
53161

> <i_f3d_flags>
0

> <r_lp_tautomer_probability>
1

> <s_lp_Force_Field>
OPLS_2005

> <r_lp_Energy>
59.151145

> <b_lp_Chiralities_Consistent>
1

> <s_lp_Variant>
CHEMBL260_lig95-1

> <s_i_glide_gridfile>
glide-grid_2qd9

> <i_i_glide_lignum>
111

> <i_i_glide_rotatable_bonds>
3

> <r_i_docking_score>
-9.60202865251581

> <r_i_glide_ligand_efficiency>
-0.290970565227752

> <r_i_glide_ligand_efficiency_sa>
-0.933298075898543

> <r_i_glide_ligand_efficiency_ln>
-2.13544145567593

> <r_i_glide_gscore>
-9.60202865251581

> <r_i_glide_lipo>
-4.31159396799932

> <r_i_glide_hbond>
-0.48541713152557

> <r_i_glide_metal>
0

> <r_i_glide_rewards>
-1.88580272125124

> <r_i_glide_evdw>
-38.2654914855957

> <r_i_glide_ecoul>
-7.8297004699707

> <r_i_glide_erotb>
0.168514813035708

> <r_i_glide_esite>
0

> <r_i_glide_emodel>
-77.0686466634878

> <r_i_glide_energy>
-46.0951919555664

> <r_i_glide_einternal>
2.65639090538025

> <i_i_glide_confnum>
61

> <i_i_glide_posenum>
288

> <r_i_glide_eff_state_penalty>
0

> <s_user_duplicate_titles>
CHEMBL260_lig95,153870

> <s_m_subgroup_title>
dock_pv

> <s_m_subgroupid>
dock_pv

> <b_m_subgroup_collapsed>
1

$$$$
CHEMBL260_lig1235
                    3D
 Schrodinger Suite 2021-1.
 58 62  0  0  1  0            999 V2000
    0.7788    7.9446   22.2684 C   0  0  0  0  0  0
    1.6346    7.9650   23.4984 C   0  0  0  0  0  0
    0.0767    5.8945   23.7310 C   0  0  0  0  0  0
    0.1705    4.5552   23.7738 N   0  0  0  0  0  0
   -0.8333    6.5149   24.2889 O   0  0  0  0  0  0
   -1.7445   -2.4621   22.0508 C   0  0  0  0  0  0
   -2.0801   -2.4599   20.6410 C   0  0  0  0  0  0
   -2.5362   -1.3739   19.9870 C   0  0  0  0  0  0
   -1.6776   -1.2198   22.6225 N   0  0  0  0  0  0
   -2.0874   -0.0188   21.9566 C   0  0  0  0  0  0
   -2.5834   -0.0565   20.6319 C   0  0  0  0  0  0
   -3.0550    1.1083   19.9845 C   0  0  0  0  0  0
   -2.8720    2.3219   20.6749 C   0  0  0  0  0  0
   -2.4283    2.3763   22.0043 C   0  0  0  0  0  0
   -2.0403    1.2002   22.6213 C   0  0  0  0  0  0
   -1.6349   -3.5130   22.6731 O   0  0  0  0  0  0
   -1.4194   -1.1697   24.0255 C   0  0  0  0  0  0
   -2.4823   -1.3022   24.9390 C   0  0  0  0  0  0
   -2.2455   -1.2363   26.3126 C   0  0  0  0  0  0
   -0.9581   -1.0090   26.7918 C   0  0  0  0  0  0
    0.0949   -0.8373   25.8963 C   0  0  0  0  0  0
   -0.1242   -0.9219   24.5209 C   0  0  0  0  0  0
    1.2245   -0.6659   23.4765 Cl  0  0  0  0  0  0
   -4.1059   -1.5101   24.3926 Cl  0  0  0  0  0  0
   -3.7645    1.0971   18.6394 C   0  0  0  0  0  0
   -3.0890    1.2863   17.4243 C   0  0  0  0  0  0
   -3.7193    1.3093   16.1816 C   0  0  0  0  0  0
   -5.0873    1.1151   16.1094 C   0  0  0  0  0  0
   -5.7883    0.8870   17.2836 C   0  0  0  0  0  0
   -5.1478    0.8850   18.5232 C   0  0  0  0  0  0
   -6.1160    0.4915   19.8759 Cl  0  0  0  0  0  0
   -2.4330    3.5849   22.6763 O   0  0  0  0  0  0
   -2.1904    3.6565   24.0896 C   0  0  0  0  0  0
   -0.6947    3.6215   24.4909 C   0  0  0  0  0  0
    1.1833    6.6309   22.9227 C   0  0  0  0  0  0
    2.1917    5.8067   22.2760 N   0  0  0  0  0  0
   -0.2510    8.2939   22.3429 H   0  0  0  0  0  0
    1.2207    8.1959   21.3040 H   0  0  0  0  0  0
    2.6848    8.2430   23.4065 H   0  0  0  0  0  0
    1.2079    8.3099   24.4406 H   0  0  0  0  0  0
    0.9672    4.1658   23.2852 H   0  0  0  0  0  0
   -2.0263   -3.4074   20.1236 H   0  0  0  0  0  0
   -2.7993   -1.4654   18.9518 H   0  0  0  0  0  0
   -3.1936    3.2403   20.2090 H   0  0  0  0  0  0
   -1.7068    1.2268   23.6414 H   0  0  0  0  0  0
   -3.0626   -1.3505   27.0103 H   0  0  0  0  0  0
   -0.7746   -0.9570   27.8559 H   0  0  0  0  0  0
    1.0921   -0.6481   26.2726 H   0  0  0  0  0  0
   -2.0351    1.3952   17.3973 H   0  0  0  0  0  0
   -3.1432    1.4608   15.2794 H   0  0  0  0  0  0
   -5.5945    1.1103   15.1552 H   0  0  0  0  0  0
   -6.8351    0.6764   17.2318 H   0  0  0  0  0  0
   -2.7578    2.8964   24.6290 H   0  0  0  0  0  0
   -2.6169    4.5961   24.4326 H   0  0  0  0  0  0
   -0.2721    2.6309   24.3338 H   0  0  0  0  0  0
   -0.6011    3.8111   25.5616 H   0  0  0  0  0  0
    1.9863    5.6952   21.2791 H   0  0  0  0  0  0
    3.1203    6.1845   22.3895 H   0  0  0  0  0  0
  1 35  1  0  0  0
  1  2  1  0  0  0
  1 37  1  0  0  0
  1 38  1  0  0  0
  2 35  1  0  0  0
  2 39  1  0  0  0
  2 40  1  0  0  0
  3  4  1  0  0  0
  3  5  2  0  0  0
  3 35  1  0  0  0
  4 34  1  0  0  0
  4 41  1  0  0  0
  6  9  1  0  0  0
  6  7  1  0  0  0
  6 16  2  0  0  0
  7  8  2  0  0  0
  7 42  1  0  0  0
  8 11  1  0  0  0
  8 43  1  0  0  0
  9 17  1  0  0  0
  9 10  1  0  0  0
 10 11  2  0  0  0
 10 15  1  0  0  0
 11 12  1  0  0  0
 12 13  2  0  0  0
 12 25  1  0  0  0
 13 14  1  0  0  0
 13 44  1  0  0  0
 14 15  2  0  0  0
 14 32  1  0  0  0
 15 45  1  0  0  0
 17 18  2  0  0  0
 17 22  1  0  0  0
 18 19  1  0  0  0
 18 24  1  0  0  0
 19 20  2  0  0  0
 19 46  1  0  0  0
 20 21  1  0  0  0
 20 47  1  0  0  0
 21 22  2  0  0  0
 21 48  1  0  0  0
 22 23  1  0  0  0
 25 26  2  0  0  0
 25 30  1  0  0  0
 26 27  1  0  0  0
 26 49  1  0  0  0
 27 28  2  0  0  0
 27 50  1  0  0  0
 28 29  1  0  0  0
 28 51  1  0  0  0
 29 30  2  0  0  0
 29 52  1  0  0  0
 30 31  1  0  0  0
 32 33  1  0  0  0
 33 34  1  0  0  0
 33 53  1  0  0  0
 33 54  1  0  0  0
 34 55  1  0  0  0
 34 56  1  0  0  0
 35 36  1  0  0  0
 36 57  1  0  0  0
 36 58  1  0  0  0
M  END
> <s_m_entry_id>
60775

> <s_m_entry_name>
dock_pv.52

> <s_m_Source_Path>
/home/csk/Desktop/cluster/DUD-E-result/mk14

> <s_m_Source_File>
dock_pv.maegz

> <i_m_Source_File_Index>
52

> <chembl_id>
CHEMBL270611

> <chembl_pref_name>
None

> <i_lp_mmshare_version>
53161

> <i_f3d_flags>
0

> <r_lp_tautomer_probability>
1

> <s_lp_Force_Field>
OPLS_2005

> <r_lp_Energy>
58.530835

> <b_lp_Chiralities_Consistent>
1

> <s_lp_Variant>
CHEMBL260_lig1235-1

> <s_i_glide_gridfile>
glide-grid_2qd9

> <i_i_glide_lignum>
1408

> <i_i_glide_rotatable_bonds>
8

> <r_i_docking_score>
-9.59630666657231

> <r_i_glide_ligand_efficiency>
-0.266564074071453

> <r_i_glide_ligand_efficiency_sa>
-0.880175178701522

> <r_i_glide_ligand_efficiency_ln>
-2.09365485240139

> <r_i_glide_gscore>
-9.59630666657231

> <r_i_glide_lipo>
-4.93727438023426

> <r_i_glide_hbond>
-0.52918695178063

> <r_i_glide_metal>
0

> <r_i_glide_rewards>
-0.426117762607344

> <r_i_glide_evdw>
-41.4750480651855

> <r_i_glide_ecoul>
-13.6555271148682

> <r_i_glide_erotb>
0.491461406990991

> <r_i_glide_esite>
-0.0731075084515625

> <r_i_glide_emodel>
-66.6001799107528

> <r_i_glide_energy>
-55.1305751800537

> <r_i_glide_einternal>
3.5757360458374

> <i_i_glide_confnum>
1

> <i_i_glide_posenum>
107

> <r_i_glide_eff_state_penalty>
0

> <s_user_duplicate_titles>
CHEMBL260_lig1235,434133

> <s_m_subgroup_title>
dock_pv

> <s_m_subgroupid>
dock_pv

> <b_m_subgroup_collapsed>
1

$$$$
CHEMBL260_lig1234
                    3D
 Schrodinger Suite 2021-1.
 54 57  0  0  1  0            999 V2000
    0.4693    4.8179   23.2093 N   0  0  0  0  0  0
   -1.7375   -2.4780   22.1520 C   0  0  0  0  0  0
   -2.0897   -2.5135   20.7459 C   0  0  0  0  0  0
   -2.5587   -1.4434   20.0699 C   0  0  0  0  0  0
   -1.6455   -1.2198   22.6857 N   0  0  0  0  0  0
   -2.0511   -0.0330   21.9893 C   0  0  0  0  0  0
   -2.5873   -0.1048   20.6790 C   0  0  0  0  0  0
   -3.0584    1.0516   20.0106 C   0  0  0  0  0  0
   -2.8384    2.2818   20.6597 C   0  0  0  0  0  0
   -2.3294    2.3719   21.9627 C   0  0  0  0  0  0
   -1.9411    1.2088   22.6057 C   0  0  0  0  0  0
   -1.6349   -3.5130   22.8034 O   0  0  0  0  0  0
   -1.3623   -1.1295   24.0843 C   0  0  0  0  0  0
   -0.0622   -0.8468   24.5498 C   0  0  0  0  0  0
    0.1800   -0.7154   25.9176 C   0  0  0  0  0  0
   -0.8520   -0.8753   26.8371 C   0  0  0  0  0  0
   -2.1428   -1.1402   26.3894 C   0  0  0  0  0  0
   -2.4043   -1.2529   25.0241 C   0  0  0  0  0  0
   -4.0352   -1.5112   24.5263 Cl  0  0  0  0  0  0
    1.2652   -0.5995   23.4763 Cl  0  0  0  0  0  0
   -3.7720    1.0357   18.6681 C   0  0  0  0  0  0
   -3.0884    1.2246   17.4603 C   0  0  0  0  0  0
   -3.7043    1.2871   16.2130 C   0  0  0  0  0  0
   -5.0748    1.1216   16.1275 C   0  0  0  0  0  0
   -5.7868    0.8868   17.2933 C   0  0  0  0  0  0
   -5.1581    0.8556   18.5389 C   0  0  0  0  0  0
   -6.1521    0.4882   19.8760 Cl  0  0  0  0  0  0
   -2.2680    3.6067   22.5800 O   0  0  0  0  0  0
   -1.7567    3.7601   23.9094 C   0  0  0  0  0  0
   -0.2087    3.7801   23.9911 C   0  0  0  0  0  0
    0.3140    6.1478   23.3512 C   0  0  0  0  0  0
    2.3156    6.4357   21.8760 N   0  0  0  0  0  0
    1.2292    7.1082   22.5574 C   0  0  0  0  0  0
   -0.5484    6.6331   24.0846 O   0  0  0  0  0  0
    1.2059    4.5207   22.5818 H   0  0  0  0  0  0
   -2.0356   -3.4808   20.2586 H   0  0  0  0  0  0
   -2.8344   -1.5628   19.0389 H   0  0  0  0  0  0
   -3.1546    3.1911   20.1730 H   0  0  0  0  0  0
   -1.5421    1.2693   23.6018 H   0  0  0  0  0  0
    1.1774   -0.4964   26.2717 H   0  0  0  0  0  0
   -0.6515   -0.7859   27.8955 H   0  0  0  0  0  0
   -2.9450   -1.2458   27.1053 H   0  0  0  0  0  0
   -2.0350    1.2862   17.4523 H   0  0  0  0  0  0
   -3.1171    1.4371   15.3175 H   0  0  0  0  0  0
   -5.5752    1.1424   15.1698 H   0  0  0  0  0  0
   -6.8354    0.7007   17.2283 H   0  0  0  0  0  0
   -2.1448    4.7011   24.2932 H   0  0  0  0  0  0
   -2.1793    3.0279   24.5982 H   0  0  0  0  0  0
    0.1391    3.7540   25.0253 H   0  0  0  0  0  0
    0.1608    2.8590   23.5389 H   0  0  0  0  0  0
    1.9926    6.0872   20.9576 H   0  0  0  0  0  0
    3.0469    7.0920   21.6502 H   0  0  0  0  0  0
    0.6239    7.6900   21.8609 H   0  0  0  0  0  0
    1.6504    7.8284   23.2600 H   0  0  0  0  0  0
  1 30  1  0  0  0
  1 31  1  0  0  0
  1 35  1  0  0  0
  2 12  2  0  0  0
  2  3  1  0  0  0
  2  5  1  0  0  0
  3  4  2  0  0  0
  3 36  1  0  0  0
  4  7  1  0  0  0
  4 37  1  0  0  0
  5  6  1  0  0  0
  5 13  1  0  0  0
  6 11  1  0  0  0
  6  7  2  0  0  0
  7  8  1  0  0  0
  8  9  2  0  0  0
  8 21  1  0  0  0
  9 10  1  0  0  0
  9 38  1  0  0  0
 10 11  2  0  0  0
 10 28  1  0  0  0
 11 39  1  0  0  0
 13 18  1  0  0  0
 13 14  2  0  0  0
 14 20  1  0  0  0
 14 15  1  0  0  0
 15 16  2  0  0  0
 15 40  1  0  0  0
 16 17  1  0  0  0
 16 41  1  0  0  0
 17 18  2  0  0  0
 17 42  1  0  0  0
 18 19  1  0  0  0
 21 22  2  0  0  0
 21 26  1  0  0  0
 22 23  1  0  0  0
 22 43  1  0  0  0
 23 24  2  0  0  0
 23 44  1  0  0  0
 24 25  1  0  0  0
 24 45  1  0  0  0
 25 26  2  0  0  0
 25 46  1  0  0  0
 26 27  1  0  0  0
 28 29  1  0  0  0
 29 30  1  0  0  0
 29 47  1  0  0  0
 29 48  1  0  0  0
 30 49  1  0  0  0
 30 50  1  0  0  0
 31 33  1  0  0  0
 31 34  2  0  0  0
 32 33  1  0  0  0
 32 51  1  0  0  0
 32 52  1  0  0  0
 33 53  1  0  0  0
 33 54  1  0  0  0
M  END
> <s_m_entry_id>
60776

> <s_m_entry_name>
dock_pv.53

> <s_m_Source_Path>
/home/csk/Desktop/cluster/DUD-E-result/mk14

> <s_m_Source_File>
dock_pv.maegz

> <i_m_Source_File_Index>
53

> <chembl_id>
CHEMBL437024

> <chembl_pref_name>
None

> <i_lp_mmshare_version>
53161

> <i_f3d_flags>
0

> <r_lp_tautomer_probability>
1

> <s_lp_Force_Field>
OPLS_2005

> <r_lp_Energy>
49.541417

> <b_lp_Chiralities_Consistent>
1

> <s_lp_Variant>
CHEMBL260_lig1234-1

> <s_i_glide_gridfile>
glide-grid_2qd9

> <i_i_glide_lignum>
1407

> <i_i_glide_rotatable_bonds>
8

> <r_i_docking_score>
-9.59268098223557

> <r_i_glide_ligand_efficiency>
-0.282137675948105

> <r_i_glide_ligand_efficiency_sa>
-0.914016543512099

> <r_i_glide_ligand_efficiency_ln>
-2.11929229456353

> <r_i_glide_gscore>
-9.59268098223557

> <r_i_glide_lipo>
-4.91463749794939

> <r_i_glide_hbond>
-0.552058128223701

> <r_i_glide_metal>
0

> <r_i_glide_rewards>
-0.427989594160262

> <r_i_glide_evdw>
-38.5102348327637

> <r_i_glide_ecoul>
-14.8728227615356

> <r_i_glide_erotb>
0.538013389815982

> <r_i_glide_esite>
-0.0795739958496689

> <r_i_glide_emodel>
-68.086308272236

> <r_i_glide_energy>
-53.3830575942993

> <r_i_glide_einternal>
7.8100152015686

> <i_i_glide_confnum>
7

> <i_i_glide_posenum>
145

> <r_i_glide_eff_state_penalty>
0

> <s_user_duplicate_titles>
CHEMBL260_lig1234,434132

> <s_m_subgroup_title>
dock_pv

> <s_m_subgroupid>
dock_pv

> <b_m_subgroup_collapsed>
1

$$$$
CHEMBL260_lig1640
                    3D
 Schrodinger Suite 2021-1.
 36 38  0  0  1  0            999 V2000
   -5.4054    0.8643   16.2192 C   0  0  0  0  0  0
   -4.1065    1.3603   16.1774 C   0  0  0  0  0  0
   -3.4242    1.6162   17.3666 C   0  0  0  0  0  0
   -4.0096    1.3293   18.6070 C   0  0  0  0  0  0
   -5.3364    0.8865   18.6339 C   0  0  0  0  0  0
   -6.0349    0.6784   17.4464 C   0  0  0  0  0  0
   -3.2358    1.5144   19.8756 C   0  0  0  0  0  0
   -2.8910    0.2959   20.7139 C   0  0  0  0  0  0
   -2.9022    2.6556   20.2070 O   0  0  0  0  0  0
   -2.9458   -0.9693   20.1091 C   0  0  0  0  0  0
   -2.6467   -2.1154   20.8327 C   0  0  0  0  0  0
   -2.2948   -2.0233   22.1234 N   0  3  0  0  0  0
   -2.1929   -0.8316   22.7769 C   0  0  0  0  0  0
   -2.4881    0.3575   22.0728 C   0  0  0  0  0  0
   -2.0378   -3.1126   22.7138 O   0  5  0  0  0  0
   -2.4124    1.5792   22.7517 N   0  0  0  0  0  0
   -1.7587   -0.8626   24.2111 C   0  0  0  0  0  0
   -0.5355   -0.3000   24.5890 C   0  0  0  0  0  0
   -0.1228   -0.3436   25.9192 C   0  0  0  0  0  0
   -0.9364   -0.9469   26.8729 C   0  0  0  0  0  0
   -2.1582   -1.5077   26.5103 C   0  0  0  0  0  0
   -2.5672   -1.4678   25.1800 C   0  0  0  0  0  0
   -5.9502    0.6153   19.8063 F   0  0  0  0  0  0
   -6.0323    0.4917   15.0793 F   0  0  0  0  0  0
   -0.4320   -0.9983   28.5194 Cl  0  0  0  0  0  0
   -3.6208    1.5294   15.2252 H   0  0  0  0  0  0
   -2.4347    2.0227   17.3045 H   0  0  0  0  0  0
   -7.0305    0.2669   17.4862 H   0  0  0  0  0  0
   -3.2291   -1.0924   19.0766 H   0  0  0  0  0  0
   -2.6876   -3.1108   20.4188 H   0  0  0  0  0  0
   -2.0833    1.5990   23.7060 H   0  0  0  0  0  0
   -2.4735    2.4240   22.2004 H   0  0  0  0  0  0
    0.1026    0.1681   23.8515 H   0  0  0  0  0  0
    0.8258    0.0823   26.2080 H   0  0  0  0  0  0
   -2.7820   -1.9771   27.2577 H   0  0  0  0  0  0
   -3.5104   -1.9137   24.8988 H   0  0  0  0  0  0
  1  6  1  0  0  0
  1  2  2  0  0  0
  1 24  1  0  0  0
  2  3  1  0  0  0
  2 26  1  0  0  0
  3  4  2  0  0  0
  3 27  1  0  0  0
  4  7  1  0  0  0
  4  5  1  0  0  0
  5 23  1  0  0  0
  5  6  2  0  0  0
  6 28  1  0  0  0
  7  8  1  0  0  0
  7  9  2  0  0  0
  8 14  1  0  0  0
  8 10  2  0  0  0
 10 11  1  0  0  0
 10 29  1  0  0  0
 11 12  2  0  0  0
 11 30  1  0  0  0
 12 13  1  0  0  0
 12 15  1  0  0  0
 13 14  2  0  0  0
 13 17  1  0  0  0
 14 16  1  0  0  0
 16 31  1  0  0  0
 16 32  1  0  0  0
 17 18  2  0  0  0
 17 22  1  0  0  0
 18 19  1  0  0  0
 18 33  1  0  0  0
 19 20  2  0  0  0
 19 34  1  0  0  0
 20 21  1  0  0  0
 20 25  1  0  0  0
 21 22  2  0  0  0
 21 35  1  0  0  0
 22 36  1  0  0  0
M  CHG  2  12   1  15  -1
M  END
> <s_m_entry_id>
60777

> <s_m_entry_name>
dock_pv.54

> <s_m_Source_Path>
/home/csk/Desktop/cluster/DUD-E-result/mk14

> <s_m_Source_File>
dock_pv.maegz

> <i_m_Source_File_Index>
54

> <chembl_id>
CHEMBL550561

> <chembl_pref_name>
None

> <i_lp_mmshare_version>
53161

> <i_f3d_flags>
0

> <r_lp_tautomer_probability>
1

> <s_lp_Force_Field>
OPLS_2005

> <r_lp_Energy>
38.679001

> <b_lp_Chiralities_Consistent>
1

> <s_lp_Variant>
CHEMBL260_lig1640-1

> <s_i_glide_gridfile>
glide-grid_2qd9

> <i_i_glide_lignum>
1892

> <i_i_glide_rotatable_bonds>
3

> <r_i_docking_score>
-9.57632623392274

> <r_i_glide_ligand_efficiency>
-0.38305304935691

> <r_i_glide_ligand_efficiency_sa>
-1.12005390979436

> <r_i_glide_ligand_efficiency_ln>
-2.26987629677911

> <r_i_glide_gscore>
-9.57632623392274

> <r_i_glide_lipo>
-3.58440302035931

> <r_i_glide_hbond>
-0.16

> <r_i_glide_metal>
0

> <r_i_glide_rewards>
-2.44668758065006

> <r_i_glide_evdw>
-35.8059883117676

> <r_i_glide_ecoul>
-13.5810089111328

> <r_i_glide_erotb>
0.442215119344938

> <r_i_glide_esite>
0

> <r_i_glide_emodel>
-72.9207433856158

> <r_i_glide_energy>
-49.3869972229004

> <r_i_glide_einternal>
2.65679550170898

> <i_i_glide_confnum>
12

> <i_i_glide_posenum>
119

> <r_i_glide_eff_state_penalty>
0

> <s_user_duplicate_titles>
CHEMBL260_lig1640,565578

> <s_m_subgroup_title>
dock_pv

> <s_m_subgroupid>
dock_pv

> <b_m_subgroup_collapsed>
1

$$$$
CHEMBL260_lig125
                    3D
 Schrodinger Suite 2021-1.
 55 59  0  0  1  0            999 V2000
   -2.1009   -1.2605   22.5887 N   0  0  0  0  0  0
   -2.3782   -0.0350   21.9423 C   0  0  0  0  0  0
   -2.8792    0.0207   20.6316 C   0  0  0  0  0  0
   -3.1753    1.2634   20.0181 C   0  0  0  0  0  0
   -2.2830   -2.4748   22.0142 C   0  0  0  0  0  0
   -1.6579   -1.2546   23.9623 C   0  0  0  0  0  0
   -2.2571    2.3540   22.0151 C   0  0  0  0  0  0
   -1.6613    3.4807   22.8014 C   0  0  0  0  0  0
   -2.7953   -2.4874   20.7614 N   0  0  0  0  0  0
   -2.0956    1.1323   22.6103 C   0  0  0  0  0  0
   -2.7868    2.4339   20.7060 C   0  0  0  0  0  0
   -2.0630    3.7117   24.0834 N   0  0  0  0  0  0
   -3.8694    1.3214   18.6686 C   0  0  0  0  0  0
   -3.0132   -1.3085   19.9075 C   0  0  0  0  0  0
   -2.5706   -1.3727   25.0117 C   0  0  0  0  0  0
   -0.3187   -1.0377   24.2932 C   0  0  0  0  0  0
   -2.0227   -3.5140   22.5821 O   0  0  0  0  0  0
   -0.7345    4.0873   22.2789 O   0  0  0  0  0  0
   -5.2045    0.9078   18.5199 C   0  0  0  0  0  0
   -2.0872    3.3031   26.9042 N   0  0  0  0  0  0
   -4.2242   -1.5124   24.6635 Cl  0  0  0  0  0  0
    0.8038   -0.7105   23.0653 Cl  0  0  0  0  0  0
   -6.1667    0.4866   19.8762 Cl  0  0  0  0  0  0
   -1.3186    4.6583   24.9433 C   0  0  0  0  0  0
   -3.2302    3.0666   24.7131 C   0  0  0  0  0  0
   -3.2373    1.7633   17.4907 C   0  0  0  0  0  0
   -2.7796    2.3774   26.0179 C   0  0  0  0  0  0
   -0.9374    3.9290   26.2547 C   0  0  0  0  0  0
   -0.8147   -1.1254   26.6461 C   0  0  0  0  0  0
    0.1117   -0.9785   25.6193 C   0  0  0  0  0  0
   -2.1578   -1.3272   26.3437 C   0  0  0  0  0  0
   -5.8246    0.8839   17.2714 C   0  0  0  0  0  0
   -3.8332    1.6864   16.2332 C   0  0  0  0  0  0
   -5.1398    1.2483   16.1217 C   0  0  0  0  0  0
   -2.9657   -3.4010   20.3547 H   0  0  0  0  0  0
   -1.6563    1.1095   23.5936 H   0  0  0  0  0  0
   -2.9124    3.3966   20.2340 H   0  0  0  0  0  0
   -4.0054   -1.3944   19.4829 H   0  0  0  0  0  0
   -2.3152   -1.3459   19.0739 H   0  0  0  0  0  0
   -1.7851    2.8268   27.7460 H   0  0  0  0  0  0
   -0.4110    5.0419   24.4758 H   0  0  0  0  0  0
   -1.9501    5.5123   25.1841 H   0  0  0  0  0  0
   -3.9647    3.8303   24.9643 H   0  0  0  0  0  0
   -3.7434    2.3536   24.0676 H   0  0  0  0  0  0
   -2.2638    2.2060   17.4754 H   0  0  0  0  0  0
   -3.6305    1.9368   26.5364 H   0  0  0  0  0  0
   -2.0927    1.5617   25.7985 H   0  0  0  0  0  0
   -0.4454    4.6062   26.9537 H   0  0  0  0  0  0
   -0.2202    3.1360   26.0353 H   0  0  0  0  0  0
   -0.4893   -1.0819   27.6740 H   0  0  0  0  0  0
    1.1505   -0.7971   25.8546 H   0  0  0  0  0  0
   -2.8812   -1.4229   27.1359 H   0  0  0  0  0  0
   -6.8349    0.5301   17.1878 H   0  0  0  0  0  0
   -3.2907    2.0084   15.3569 H   0  0  0  0  0  0
   -5.6171    1.2051   15.1538 H   0  0  0  0  0  0
  1  2  1  0  0  0
  1  5  1  0  0  0
  1  6  1  0  0  0
  2  3  2  0  0  0
  2 10  1  0  0  0
  3  4  1  0  0  0
  3 14  1  0  0  0
  4 13  1  0  0  0
  4 11  2  0  0  0
  5  9  1  0  0  0
  5 17  2  0  0  0
  6 15  2  0  0  0
  6 16  1  0  0  0
  7 10  2  0  0  0
  7  8  1  0  0  0
  7 11  1  0  0  0
  8 12  1  0  0  0
  8 18  2  0  0  0
  9 14  1  0  0  0
  9 35  1  0  0  0
 10 36  1  0  0  0
 11 37  1  0  0  0
 12 24  1  0  0  0
 12 25  1  0  0  0
 13 19  1  0  0  0
 13 26  2  0  0  0
 14 38  1  0  0  0
 14 39  1  0  0  0
 15 21  1  0  0  0
 15 31  1  0  0  0
 16 22  1  0  0  0
 16 30  2  0  0  0
 19 23  1  0  0  0
 19 32  2  0  0  0
 20 27  1  0  0  0
 20 28  1  0  0  0
 20 40  1  0  0  0
 24 28  1  0  0  0
 24 41  1  0  0  0
 24 42  1  0  0  0
 25 27  1  0  0  0
 25 43  1  0  0  0
 25 44  1  0  0  0
 26 33  1  0  0  0
 26 45  1  0  0  0
 27 46  1  0  0  0
 27 47  1  0  0  0
 28 48  1  0  0  0
 28 49  1  0  0  0
 29 30  1  0  0  0
 29 31  2  0  0  0
 29 50  1  0  0  0
 30 51  1  0  0  0
 31 52  1  0  0  0
 32 34  1  0  0  0
 32 53  1  0  0  0
 33 34  2  0  0  0
 33 54  1  0  0  0
 34 55  1  0  0  0
M  END
> <s_m_entry_id>
60778

> <s_m_entry_name>
dock_pv.55

> <s_m_Source_Path>
/home/csk/Desktop/cluster/DUD-E-result/mk14

> <s_m_Source_File>
dock_pv.maegz

> <i_m_Source_File_Index>
55

> <chembl_id>
CHEMBL94444

> <chembl_pref_name>
None

> <i_lp_mmshare_version>
53161

> <i_f3d_flags>
0

> <r_lp_tautomer_probability>
1

> <s_lp_Force_Field>
OPLS_2005

> <r_lp_Energy>
81.796802

> <b_lp_Chiralities_Consistent>
1

> <s_lp_Variant>
CHEMBL260_lig125-1

> <s_i_glide_gridfile>
glide-grid_2qd9

> <i_i_glide_lignum>
142

> <i_i_glide_rotatable_bonds>
4

> <r_i_docking_score>
-9.57463148151233

> <r_i_glide_ligand_efficiency>
-0.281606808279774

> <r_i_glide_ligand_efficiency_sa>
-0.912296738350881

> <r_i_glide_ligand_efficiency_ln>
-2.11530465358242

> <r_i_glide_gscore>
-9.57463148151233

> <r_i_glide_lipo>
-4.24721044488172

> <r_i_glide_hbond>
-0.608

> <r_i_glide_metal>
0

> <r_i_glide_rewards>
-1.6233872802226

> <r_i_glide_evdw>
-34.8446006774902

> <r_i_glide_ecoul>
-9.80187225341797

> <r_i_glide_erotb>
0.215961003283255

> <r_i_glide_esite>
-0.0994838878040599

> <r_i_glide_emodel>
-55.584851975458

> <r_i_glide_energy>
-44.6464729309082

> <r_i_glide_einternal>
9.10492610931396

> <i_i_glide_confnum>
77

> <i_i_glide_posenum>
78

> <r_i_glide_eff_state_penalty>
0

> <s_user_duplicate_titles>
CHEMBL260_lig125,154810

> <s_m_subgroup_title>
dock_pv

> <s_m_subgroupid>
dock_pv

> <b_m_subgroup_collapsed>
1

$$$$
CHEMBL260_lig103
                    3D
 Schrodinger Suite 2021-1.
 57 61  0  0  1  0            999 V2000
   -1.6926   -1.2667   22.4625 N   0  0  0  0  0  0
   -2.0353   -0.0784   21.8000 C   0  0  0  0  0  0
   -2.6268   -0.1051   20.5252 C   0  0  0  0  0  0
   -3.0783    1.0941   19.9346 C   0  0  0  0  0  0
   -1.7541   -2.4954   21.8970 C   0  0  0  0  0  0
   -1.5270   -1.2272   23.8832 C   0  0  0  0  0  0
   -3.7806    1.1056   18.5992 C   0  0  0  0  0  0
   -2.0607   -2.5404   20.5812 N   0  0  0  0  0  0
   -1.8645    1.1175   22.4638 C   0  0  0  0  0  0
   -2.9292    2.2819   20.6728 C   0  0  0  0  0  0
   -2.3922    2.2754   21.9695 C   0  0  0  0  0  0
   -5.1617    0.8871   18.4919 C   0  0  0  0  0  0
   -2.7849   -1.4710   19.8742 C   0  0  0  0  0  0
   -1.4373    4.7850   25.4040 N   0  0  2  0  0  0
   -5.7914    0.8869   17.2465 C   0  0  0  0  0  0
   -3.0901    1.2884   17.3895 C   0  0  0  0  0  0
   -2.6530   -1.3103   24.7254 C   0  0  0  0  0  0
   -0.2539   -1.0285   24.4530 C   0  0  0  0  0  0
   -1.6348   -3.5142   22.5434 O   0  0  0  0  0  0
   -2.3911    3.4548   22.9263 C   0  0  0  0  0  0
   -5.0597    1.0348   16.0767 C   0  0  0  0  0  0
   -2.9639    3.1390   24.3400 C   0  0  0  0  0  0
   -0.9561    4.0285   23.0766 C   0  0  0  0  0  0
   -0.8317    5.1566   24.1206 C   0  0  0  0  0  0
   -2.8239    4.3170   25.3240 C   0  0  0  0  0  0
   -6.1233    0.5618   19.8756 Cl  0  0  0  0  0  0
   -3.7041    1.2661   16.1478 C   0  0  0  0  0  0
    1.1456   -0.7360   23.4772 Cl  0  0  0  0  0  0
   -4.2560   -1.4009   24.0766 Cl  0  0  0  0  0  0
   -5.6349    0.8860   14.8721 F   0  0  0  0  0  0
   -1.2766    5.8377   26.4020 C   0  0  0  0  0  0
   -1.2252   -1.1174   26.6678 C   0  0  0  0  0  0
   -2.4933   -1.2705   26.1108 C   0  0  0  0  0  0
   -0.1122   -0.9859   25.8400 C   0  0  0  0  0  0
   -2.1039   -3.4656   20.1756 H   0  0  0  0  0  0
   -1.3790    1.1544   23.4254 H   0  0  0  0  0  0
   -3.3171    3.2027   20.2641 H   0  0  0  0  0  0
   -3.8406   -1.7253   19.8702 H   0  0  0  0  0  0
   -2.4360   -1.4370   18.8434 H   0  0  0  0  0  0
   -6.8348    0.6670   17.1802 H   0  0  0  0  0  0
   -2.0351    1.3757   17.3326 H   0  0  0  0  0  0
   -3.1148    4.0871   22.4606 H   0  0  0  0  0  0
   -4.0318    2.9257   24.2548 H   0  0  0  0  0  0
   -2.5228    2.2627   24.8149 H   0  0  0  0  0  0
   -0.2325    3.2528   23.3335 H   0  0  0  0  0  0
   -0.6190    4.4326   22.1214 H   0  0  0  0  0  0
   -1.2322    6.0983   23.7491 H   0  0  0  0  0  0
    0.2279    5.3497   24.3002 H   0  0  0  0  0  0
   -3.4948    5.1387   25.0776 H   0  0  0  0  0  0
   -3.1257    3.9787   26.3172 H   0  0  0  0  0  0
   -3.1230    1.3701   15.2425 H   0  0  0  0  0  0
   -1.8232    6.7400   26.1241 H   0  0  0  0  0  0
   -1.6385    5.5057   27.3762 H   0  0  0  0  0  0
   -0.2246    6.1013   26.5213 H   0  0  0  0  0  0
   -1.1050   -1.0832   27.7414 H   0  0  0  0  0  0
   -3.3564   -1.3431   26.7565 H   0  0  0  0  0  0
    0.8642   -0.8325   26.2777 H   0  0  0  0  0  0
  1  2  1  0  0  0
  1  5  1  0  0  0
  1  6  1  0  0  0
  2  3  2  0  0  0
  2  9  1  0  0  0
  3  4  1  0  0  0
  3 13  1  0  0  0
  4  7  1  0  0  0
  4 10  2  0  0  0
  5  8  1  0  0  0
  5 19  2  0  0  0
  6 17  2  0  0  0
  6 18  1  0  0  0
  7 12  1  0  0  0
  7 16  2  0  0  0
  8 13  1  0  0  0
  8 35  1  0  0  0
  9 11  2  0  0  0
  9 36  1  0  0  0
 10 11  1  0  0  0
 10 37  1  0  0  0
 11 20  1  0  0  0
 12 15  2  0  0  0
 12 26  1  0  0  0
 13 38  1  0  0  0
 13 39  1  0  0  0
 14 24  1  0  0  0
 14 31  1  0  0  0
 14 25  1  0  0  0
 15 21  1  0  0  0
 15 40  1  0  0  0
 16 27  1  0  0  0
 16 41  1  0  0  0
 17 29  1  0  0  0
 17 33  1  0  0  0
 18 28  1  0  0  0
 18 34  2  0  0  0
 20 22  1  0  0  0
 20 23  1  0  0  0
 20 42  1  0  0  0
 21 27  2  0  0  0
 21 30  1  0  0  0
 22 25  1  0  0  0
 22 43  1  0  0  0
 22 44  1  0  0  0
 23 24  1  0  0  0
 23 45  1  0  0  0
 23 46  1  0  0  0
 24 47  1  0  0  0
 24 48  1  0  0  0
 25 49  1  0  0  0
 25 50  1  0  0  0
 27 51  1  0  0  0
 31 52  1  0  0  0
 31 53  1  0  0  0
 31 54  1  0  0  0
 32 34  1  0  0  0
 32 33  2  0  0  0
 32 55  1  0  0  0
 33 56  1  0  0  0
 34 57  1  0  0  0
M  END
> <s_m_entry_id>
60779

> <s_m_entry_name>
dock_pv.56

> <s_m_Source_Path>
/home/csk/Desktop/cluster/DUD-E-result/mk14

> <s_m_Source_File>
dock_pv.maegz

> <i_m_Source_File_Index>
56

> <chembl_id>
CHEMBL96653

> <chembl_pref_name>
None

> <i_lp_mmshare_version>
53161

> <i_f3d_flags>
0

> <r_lp_tautomer_probability>
1

> <s_lp_Force_Field>
OPLS_2005

> <r_lp_Energy>
56.919467

> <b_lp_Chiralities_Consistent>
1

> <s_lp_Variant>
CHEMBL260_lig103-1

> <s_i_glide_gridfile>
glide-grid_2qd9

> <i_i_glide_lignum>
119

> <i_i_glide_rotatable_bonds>
3

> <r_i_docking_score>
-9.56371995819749

> <r_i_glide_ligand_efficiency>
-0.281285881123456

> <r_i_glide_ligand_efficiency_sa>
-0.911257058949142

> <r_i_glide_ligand_efficiency_ln>
-2.11289399202431

> <r_i_glide_gscore>
-9.56371995819749

> <r_i_glide_lipo>
-4.39622723151224

> <r_i_glide_hbond>
-0.485917625380103

> <r_i_glide_metal>
0

> <r_i_glide_rewards>
-1.86325119948498

> <r_i_glide_evdw>
-38.5225028991699

> <r_i_glide_ecoul>
-7.01627683639526

> <r_i_glide_erotb>
0.16024276859761

> <r_i_glide_esite>
0

> <r_i_glide_emodel>
-56.455986626416

> <r_i_glide_energy>
-45.5387797355652

> <r_i_glide_einternal>
1.63601970672607

> <i_i_glide_confnum>
4

> <i_i_glide_posenum>
72

> <r_i_glide_eff_state_penalty>
0

> <s_user_duplicate_titles>
CHEMBL260_lig103,153677

> <s_m_subgroup_title>
dock_pv

> <s_m_subgroupid>
dock_pv

> <b_m_subgroup_collapsed>
1

$$$$
CHEMBL260_lig889
                    3D
 Schrodinger Suite 2021-1.
 61 66  0  0  1  0            999 V2000
   -1.7293    3.2871   22.2768 N   0  0  0  0  0  0
   -1.9318   -1.1028   26.4006 C   0  0  0  0  0  0
   -2.3617   -1.2313   25.0795 C   0  0  0  0  0  0
   -1.4535   -1.0969   24.0143 C   0  0  0  0  0  0
   -0.1203   -0.7430   24.3090 C   0  0  0  0  0  0
    0.2974   -0.6129   25.6337 C   0  0  0  0  0  0
   -0.6007   -0.8049   26.6788 C   0  0  0  0  0  0
    1.0308   -0.3829   23.0761 Cl  0  0  0  0  0  0
   -4.0350   -1.5130   24.7879 Cl  0  0  0  0  0  0
   -1.9036   -1.2715   22.6589 N   0  0  0  0  0  0
   -1.9606   -2.5454   22.1879 C   0  0  0  0  0  0
   -2.4335   -2.7096   20.9249 N   0  0  0  0  0  0
   -2.9787   -1.6538   20.0448 C   0  0  0  0  0  0
   -2.3064   -0.1483   21.9141 C   0  0  0  0  0  0
   -2.8215   -0.2592   20.6161 C   0  0  0  0  0  0
   -3.1315    0.9502   19.9524 C   0  0  0  0  0  0
   -2.8350    2.1576   20.5189 N   0  0  0  0  0  0
   -2.2883    2.1258   21.7639 C   0  0  0  0  0  0
   -2.0974    1.0350   22.5010 N   0  0  0  0  0  0
   -3.8132    1.0206   18.6179 C   0  0  0  0  0  0
   -3.1041    1.2225   17.4220 C   0  0  0  0  0  0
   -3.7278    1.2907   16.1783 C   0  0  0  0  0  0
   -5.1006    1.1239   16.0950 C   0  0  0  0  0  0
   -5.8182    0.8875   17.2595 C   0  0  0  0  0  0
   -5.1977    0.8530   18.5054 C   0  0  0  0  0  0
   -6.1713    0.4887   19.8758 Cl  0  0  0  0  0  0
   -1.6353   -3.5130   22.8546 O   0  0  0  0  0  0
   -0.8907    3.3497   23.4868 C   0  0  2  0  0  0
   -1.6584    4.0455   24.6384 C   0  0  0  0  0  0
    0.3225    5.4487   25.1875 N   0  0  1  0  0  0
    1.1907    4.5444   24.4323 C   0  0  2  0  0  0
    0.4682    4.0176   23.1577 C   0  0  0  0  0  0
    1.4356    3.4353   25.4736 C   0  0  0  0  0  0
   -0.1233    6.6621   24.5067 C   0  0  0  0  0  0
    0.1717    3.4536   26.3547 C   0  0  0  0  0  0
   -0.7027    4.5696   25.7499 C   0  0  2  0  0  0
   -1.7916    4.1035   21.6991 H   0  0  0  0  0  0
   -2.6344   -1.2221   27.2122 H   0  0  0  0  0  0
    1.3225   -0.3519   25.8539 H   0  0  0  0  0  0
   -0.2675   -0.7023   27.7018 H   0  0  0  0  0  0
   -2.5356   -3.6655   20.6025 H   0  0  0  0  0  0
   -4.0349   -1.8383   19.8761 H   0  0  0  0  0  0
   -2.4790   -1.7131   19.0770 H   0  0  0  0  0  0
   -2.0351    1.2852   17.4116 H   0  0  0  0  0  0
   -3.1439    1.4463   15.2817 H   0  0  0  0  0  0
   -5.6003    1.1475   15.1374 H   0  0  0  0  0  0
   -6.8633    0.6983   17.1969 H   0  0  0  0  0  0
   -0.6639    2.3453   23.8450 H   0  0  0  0  0  0
   -2.2676    4.8689   24.2729 H   0  0  0  0  0  0
   -2.3604    3.3354   25.0783 H   0  0  0  0  0  0
    2.1285    5.0319   24.1574 H   0  0  0  0  0  0
    1.1181    3.2888   22.6772 H   0  0  0  0  0  0
    0.3542    4.8246   22.4337 H   0  0  0  0  0  0
    1.6140    2.4619   25.0147 H   0  0  0  0  0  0
    2.3174    3.6668   26.0747 H   0  0  0  0  0  0
   -0.7019    7.2876   25.1864 H   0  0  0  0  0  0
    0.7399    7.2420   24.1782 H   0  0  0  0  0  0
   -0.7371    6.4503   23.6325 H   0  0  0  0  0  0
   -0.3356    2.4880   26.3786 H   0  0  0  0  0  0
    0.4425    3.6992   27.3825 H   0  0  0  0  0  0
   -1.2747    5.0818   26.5256 H   0  0  0  0  0  0
  1 18  1  0  0  0
  1 28  1  0  0  0
  1 37  1  0  0  0
  2  7  1  0  0  0
  2  3  2  0  0  0
  2 38  1  0  0  0
  3  4  1  0  0  0
  3  9  1  0  0  0
  4 10  1  0  0  0
  4  5  2  0  0  0
  5  6  1  0  0  0
  5  8  1  0  0  0
  6  7  2  0  0  0
  6 39  1  0  0  0
  7 40  1  0  0  0
 10 11  1  0  0  0
 10 14  1  0  0  0
 11 12  1  0  0  0
 11 27  2  0  0  0
 12 13  1  0  0  0
 12 41  1  0  0  0
 13 15  1  0  0  0
 13 42  1  0  0  0
 13 43  1  0  0  0
 14 19  2  0  0  0
 14 15  1  0  0  0
 15 16  2  0  0  0
 16 20  1  0  0  0
 16 17  1  0  0  0
 17 18  2  0  0  0
 18 19  1  0  0  0
 20 21  2  0  0  0
 20 25  1  0  0  0
 21 22  1  0  0  0
 21 44  1  0  0  0
 22 23  2  0  0  0
 22 45  1  0  0  0
 23 24  1  0  0  0
 23 46  1  0  0  0
 24 25  2  0  0  0
 24 47  1  0  0  0
 25 26  1  0  0  0
 28 29  1  0  0  0
 28 32  1  0  0  0
 28 48  1  0  0  0
 29 36  1  0  0  0
 29 49  1  0  0  0
 29 50  1  0  0  0
 30 36  1  0  0  0
 30 31  1  0  0  0
 30 34  1  0  0  0
 31 32  1  0  0  0
 31 33  1  0  0  0
 31 51  1  0  0  0
 32 52  1  0  0  0
 32 53  1  0  0  0
 33 35  1  0  0  0
 33 54  1  0  0  0
 33 55  1  0  0  0
 34 56  1  0  0  0
 34 57  1  0  0  0
 34 58  1  0  0  0
 35 36  1  0  0  0
 35 59  1  0  0  0
 35 60  1  0  0  0
 36 61  1  0  0  0
M  END
> <s_m_entry_id>
60780

> <s_m_entry_name>
dock_pv.57

> <s_m_Source_Path>
/home/csk/Desktop/cluster/DUD-E-result/mk14

> <s_m_Source_File>
dock_pv.maegz

> <i_m_Source_File_Index>
57

> <chembl_id>
CHEMBL212803

> <chembl_pref_name>
None

> <i_lp_mmshare_version>
53161

> <i_f3d_flags>
0

> <r_lp_tautomer_probability>
0.999999987636

> <s_lp_Force_Field>
OPLS_2005

> <r_lp_Energy>
73.873744

> <b_lp_Chiralities_Consistent>
1

> <s_lp_Variant>
CHEMBL260_lig889-1

> <s_i_glide_gridfile>
glide-grid_2qd9

> <i_i_glide_lignum>
990

> <i_i_glide_rotatable_bonds>
4

> <r_i_docking_score>
-9.56007900955072

> <r_i_glide_ligand_efficiency>
-0.265557750265298

> <r_i_glide_ligand_efficiency_sa>
-0.876852370708735

> <r_i_glide_ligand_efficiency_ln>
-2.08575095639746

> <r_i_glide_gscore>
-9.56007900955072

> <r_i_glide_lipo>
-4.0132997029312

> <r_i_glide_hbond>
-0.729790812724444

> <r_i_glide_metal>
0

> <r_i_glide_rewards>
-1.55645300234457

> <r_i_glide_evdw>
-41.200122833252

> <r_i_glide_ecoul>
-9.09835624694824

> <r_i_glide_erotb>
0.195895446136578

> <r_i_glide_esite>
-0.0316713589822534

> <r_i_glide_emodel>
-53.9714218905069

> <r_i_glide_energy>
-50.2984790802002

> <r_i_glide_einternal>
3.6579430103302

> <i_i_glide_confnum>
41

> <i_i_glide_posenum>
317

> <r_i_glide_eff_state_penalty>
0

> <s_user_duplicate_titles>
CHEMBL260_lig889,355573

> <s_m_subgroup_title>
dock_pv

> <s_m_subgroupid>
dock_pv

> <b_m_subgroup_collapsed>
1

$$$$
CHEMBL260_lig108
                    3D
 Schrodinger Suite 2021-1.
 55 59  0  0  1  0            999 V2000
   -1.7541   -1.2711   22.8829 N   0  0  0  0  0  0
   -2.0570   -0.0885   22.1816 C   0  0  0  0  0  0
   -2.5932   -0.1322   20.8848 C   0  0  0  0  0  0
   -2.8922    1.0676   20.2049 C   0  0  0  0  0  0
   -1.8557   -2.5182   22.3620 C   0  0  0  0  0  0
   -1.3896   -1.1778   24.2661 C   0  0  0  0  0  0
   -2.0349    2.3171   22.1325 C   0  0  0  0  0  0
   -1.4736    3.5163   22.8461 C   0  0  0  0  0  0
   -3.6675    1.0214   18.9110 C   0  0  0  0  0  0
   -2.2803   -2.6139   21.0789 N   0  0  0  0  0  0
   -1.8024    1.1302   22.7788 C   0  0  0  0  0  0
   -2.5625    2.2953   20.8254 C   0  0  0  0  0  0
   -1.9524    3.8361   24.0834 N   0  0  0  0  0  0
   -5.0575    0.9370   18.9809 C   0  0  0  0  0  0
   -2.8344   -1.5096   20.2759 C   0  0  0  0  0  0
   -5.8563    0.8870   17.8393 C   0  0  0  0  0  0
   -3.1004    0.9714   17.6253 C   0  0  0  0  0  0
   -2.3759   -1.2669   25.2654 C   0  0  0  0  0  0
   -0.0571   -0.9159   24.6445 C   0  0  0  0  0  0
   -1.6351   -3.5130   23.0220 O   0  0  0  0  0  0
   -0.5139    4.0870   22.3326 O   0  0  0  0  0  0
   -2.0334    3.5474   26.9133 N   0  0  0  0  0  0
   -5.2687    0.8870   16.5814 C   0  0  0  0  0  0
   -5.6350    0.8869   20.1864 F   0  0  0  0  0  0
   -3.8851    0.9309   16.4717 C   0  0  0  0  0  0
   -4.0349   -1.5130   24.8635 Cl  0  0  0  0  0  0
    1.1996   -0.7130   23.4765 Cl  0  0  0  0  0  0
   -6.0348    0.7974   15.4759 F   0  0  0  0  0  0
   -3.1383    3.2037   24.7046 C   0  0  0  0  0  0
   -1.2370    4.8282   24.9143 C   0  0  0  0  0  0
   -0.8769    4.1583   26.2623 C   0  0  0  0  0  0
   -2.7075    2.5800   26.0516 C   0  0  0  0  0  0
   -0.7125   -0.8699   26.9731 C   0  0  0  0  0  0
   -2.0317   -1.1274   26.6099 C   0  0  0  0  0  0
    0.2673   -0.7520   25.9911 C   0  0  0  0  0  0
   -2.3695   -3.5494   20.7015 H   0  0  0  0  0  0
   -1.3463    1.1772   23.7564 H   0  0  0  0  0  0
   -2.7357    3.2224   20.2994 H   0  0  0  0  0  0
   -3.9027   -1.6587   20.1323 H   0  0  0  0  0  0
   -2.3829   -1.5533   19.2837 H   0  0  0  0  0  0
   -6.9292    0.8143   17.9292 H   0  0  0  0  0  0
   -2.0354    0.9214   17.4760 H   0  0  0  0  0  0
   -1.7466    3.1071   27.7783 H   0  0  0  0  0  0
   -3.4213    0.8964   15.4965 H   0  0  0  0  0  0
   -3.8953    3.9634   24.9007 H   0  0  0  0  0  0
   -3.6166    2.4499   24.0797 H   0  0  0  0  0  0
   -0.3225    5.2014   24.4495 H   0  0  0  0  0  0
   -1.8816    5.6863   25.1010 H   0  0  0  0  0  0
   -0.1486    3.3619   26.0952 H   0  0  0  0  0  0
   -0.4089    4.8681   26.9452 H   0  0  0  0  0  0
   -2.0085    1.7597   25.8834 H   0  0  0  0  0  0
   -3.5610    2.1552   26.5806 H   0  0  0  0  0  0
   -0.4482   -0.7582   28.0151 H   0  0  0  0  0  0
   -2.7905   -1.2066   27.3748 H   0  0  0  0  0  0
    1.2876   -0.5413   26.2787 H   0  0  0  0  0  0
  1  2  1  0  0  0
  1  5  1  0  0  0
  1  6  1  0  0  0
  2  3  2  0  0  0
  2 11  1  0  0  0
  3  4  1  0  0  0
  3 15  1  0  0  0
  4  9  1  0  0  0
  4 12  2  0  0  0
  5 10  1  0  0  0
  5 20  2  0  0  0
  6 18  1  0  0  0
  6 19  2  0  0  0
  7 11  2  0  0  0
  7  8  1  0  0  0
  7 12  1  0  0  0
  8 13  1  0  0  0
  8 21  2  0  0  0
  9 14  1  0  0  0
  9 17  2  0  0  0
 10 15  1  0  0  0
 10 36  1  0  0  0
 11 37  1  0  0  0
 12 38  1  0  0  0
 13 29  1  0  0  0
 13 30  1  0  0  0
 14 16  2  0  0  0
 14 24  1  0  0  0
 15 39  1  0  0  0
 15 40  1  0  0  0
 16 23  1  0  0  0
 16 41  1  0  0  0
 17 25  1  0  0  0
 17 42  1  0  0  0
 18 26  1  0  0  0
 18 34  2  0  0  0
 19 27  1  0  0  0
 19 35  1  0  0  0
 22 31  1  0  0  0
 22 32  1  0  0  0
 22 43  1  0  0  0
 23 25  2  0  0  0
 23 28  1  0  0  0
 25 44  1  0  0  0
 29 32  1  0  0  0
 29 45  1  0  0  0
 29 46  1  0  0  0
 30 31  1  0  0  0
 30 47  1  0  0  0
 30 48  1  0  0  0
 31 49  1  0  0  0
 31 50  1  0  0  0
 32 51  1  0  0  0
 32 52  1  0  0  0
 33 35  2  0  0  0
 33 34  1  0  0  0
 33 53  1  0  0  0
 34 54  1  0  0  0
 35 55  1  0  0  0
M  END
> <s_m_entry_id>
60781

> <s_m_entry_name>
dock_pv.58

> <s_m_Source_Path>
/home/csk/Desktop/cluster/DUD-E-result/mk14

> <s_m_Source_File>
dock_pv.maegz

> <i_m_Source_File_Index>
58

> <chembl_id>
CHEMBL327217

> <chembl_pref_name>
None

> <i_lp_mmshare_version>
53161

> <i_f3d_flags>
0

> <r_lp_tautomer_probability>
1

> <s_lp_Force_Field>
OPLS_2005

> <r_lp_Energy>
81.591455

> <b_lp_Chiralities_Consistent>
1

> <s_lp_Variant>
CHEMBL260_lig108-1

> <s_i_glide_gridfile>
glide-grid_2qd9

> <i_i_glide_lignum>
124

> <i_i_glide_rotatable_bonds>
4

> <r_i_docking_score>
-9.55817435338288

> <r_i_glide_ligand_efficiency>
-0.273090695810939

> <r_i_glide_ligand_efficiency_sa>
-0.893297773634463

> <r_i_glide_ligand_efficiency_ln>
-2.09823140281793

> <r_i_glide_gscore>
-9.55817435338288

> <r_i_glide_lipo>
-3.75158063298974

> <r_i_glide_hbond>
-0.778695425970218

> <r_i_glide_metal>
0

> <r_i_glide_rewards>
-2.18042985057878

> <r_i_glide_evdw>
-35.7816276550293

> <r_i_glide_ecoul>
-7.86986637115479

> <r_i_glide_erotb>
0.214783974464774

> <r_i_glide_esite>
-0.09269107988423

> <r_i_glide_emodel>
-62.2027330526017

> <r_i_glide_energy>
-43.6514940261841

> <r_i_glide_einternal>
7.09707355499268

> <i_i_glide_confnum>
72

> <i_i_glide_posenum>
112

> <r_i_glide_eff_state_penalty>
0

> <s_user_duplicate_titles>
CHEMBL260_lig108,154323

> <s_m_subgroup_title>
dock_pv

> <s_m_subgroupid>
dock_pv

> <b_m_subgroup_collapsed>
1

$$$$
CHEMBL260_lig1046
                    3D
 Schrodinger Suite 2021-1.
 47 51  0  0  1  0            999 V2000
   -1.7777   -1.7363   20.8636 C   0  0  0  0  0  0
   -1.7815   -1.2645   22.2674 N   0  0  0  0  0  0
   -1.6726    0.2011   22.5095 C   0  0  0  0  0  0
   -2.9463   -1.0894   20.0846 C   0  0  0  0  0  0
   -3.2943    1.4189   19.4646 N   0  0  0  0  0  0
   -2.9230    0.4052   20.3165 C   0  0  0  0  0  0
   -2.3170    1.0079   21.3965 C   0  0  0  0  0  0
   -2.4350    2.3757   21.1315 C   0  0  0  0  0  0
   -3.0159    2.6273   19.9794 N   0  0  0  0  0  0
   -1.8406   -2.1729   23.2809 C   0  0  0  0  0  0
   -2.0353   -3.3774   23.1068 O   0  0  0  0  0  0
   -3.9024    1.3225   18.2008 C   0  0  0  0  0  0
   -5.2339    0.9053   18.0871 C   0  0  0  0  0  0
   -5.8260    0.8717   16.8268 C   0  0  0  0  0  0
   -5.1156    1.2143   15.6816 C   0  0  0  0  0  0
   -3.7924    1.6232   15.7950 C   0  0  0  0  0  0
   -3.1907    1.6869   17.0466 C   0  0  0  0  0  0
   -6.1868    0.4870   19.4709 Cl  0  0  0  0  0  0
   -1.5617   -1.7048   24.6860 C   0  0  0  0  0  0
   -2.5153   -1.8994   25.6945 C   0  0  0  0  0  0
    0.0135   -0.7126   26.2693 N   0  0  0  0  0  0
   -0.3226   -1.1237   25.0112 C   0  0  0  0  0  0
   -0.7859   -0.6428   28.5474 N   0  0  0  0  0  0
   -0.9076   -0.9258   27.2062 C   0  0  0  0  0  0
   -2.1895   -1.5051   27.0019 C   0  0  0  0  0  0
   -2.8352   -1.5324   28.2820 C   0  0  0  0  0  0
   -1.9423   -1.0041   29.1972 C   0  0  0  0  0  0
    0.6153   -0.9647   24.0026 O   0  0  0  0  0  0
    1.8452   -0.3135   24.2758 C   0  0  0  0  0  0
   -1.8169   -2.8236   20.7728 H   0  0  0  0  0  0
   -0.8330   -1.4266   20.4131 H   0  0  0  0  0  0
   -0.6259    0.4882   22.6002 H   0  0  0  0  0  0
   -2.0880    0.4941   23.4742 H   0  0  0  0  0  0
   -2.8348   -1.3299   19.0331 H   0  0  0  0  0  0
   -3.8979   -1.5123   20.4009 H   0  0  0  0  0  0
   -2.0614    3.1685   21.7621 H   0  0  0  0  0  0
   -6.8350    0.5268   16.7352 H   0  0  0  0  0  0
   -5.5870    1.1551   14.7117 H   0  0  0  0  0  0
   -3.2286    1.8915   14.9146 H   0  0  0  0  0  0
   -2.1645    2.0208   17.0761 H   0  0  0  0  0  0
   -3.4738   -2.3486   25.4810 H   0  0  0  0  0  0
    0.0166   -0.2481   29.0169 H   0  0  0  0  0  0
   -3.8190   -1.9105   28.5194 H   0  0  0  0  0  0
   -2.0247   -0.8645   30.2664 H   0  0  0  0  0  0
    2.4674   -0.2940   23.3809 H   0  0  0  0  0  0
    1.7004    0.7121   24.6186 H   0  0  0  0  0  0
    2.3651   -0.8839   25.0409 H   0  0  0  0  0  0
  1  2  1  0  0  0
  1  4  1  0  0  0
  1 30  1  0  0  0
  1 31  1  0  0  0
  2  3  1  0  0  0
  2 10  1  0  0  0
  3  7  1  0  0  0
  3 32  1  0  0  0
  3 33  1  0  0  0
  4  6  1  0  0  0
  4 34  1  0  0  0
  4 35  1  0  0  0
  5  6  1  0  0  0
  5  9  1  0  0  0
  5 12  1  0  0  0
  6  7  2  0  0  0
  7  8  1  0  0  0
  8  9  2  0  0  0
  8 36  1  0  0  0
 10 19  1  0  0  0
 10 11  2  0  0  0
 12 17  1  0  0  0
 12 13  2  0  0  0
 13 14  1  0  0  0
 13 18  1  0  0  0
 14 15  2  0  0  0
 14 37  1  0  0  0
 15 16  1  0  0  0
 15 38  1  0  0  0
 16 17  2  0  0  0
 16 39  1  0  0  0
 17 40  1  0  0  0
 19 20  2  0  0  0
 19 22  1  0  0  0
 20 25  1  0  0  0
 20 41  1  0  0  0
 21 24  1  0  0  0
 21 22  2  0  0  0
 22 28  1  0  0  0
 23 24  1  0  0  0
 23 27  1  0  0  0
 23 42  1  0  0  0
 24 25  2  0  0  0
 25 26  1  0  0  0
 26 27  2  0  0  0
 26 43  1  0  0  0
 27 44  1  0  0  0
 28 29  1  0  0  0
 29 45  1  0  0  0
 29 46  1  0  0  0
 29 47  1  0  0  0
M  END
> <s_m_entry_id>
60782

> <s_m_entry_name>
dock_pv.59

> <s_m_Source_Path>
/home/csk/Desktop/cluster/DUD-E-result/mk14

> <s_m_Source_File>
dock_pv.maegz

> <i_m_Source_File_Index>
59

> <chembl_id>
CHEMBL397727

> <chembl_pref_name>
None

> <i_lp_mmshare_version>
53161

> <i_f3d_flags>
0

> <r_lp_tautomer_probability>
0.999998432528457

> <s_lp_Force_Field>
OPLS_2005

> <r_lp_Energy>
35.339305

> <b_lp_Chiralities_Consistent>
1

> <s_lp_Variant>
CHEMBL260_lig1046-1

> <s_i_glide_gridfile>
glide-grid_2qd9

> <i_i_glide_lignum>
1173

> <i_i_glide_rotatable_bonds>
4

> <r_i_docking_score>
-9.54241087873035

> <r_i_glide_ligand_efficiency>
-0.329048650990702

> <r_i_glide_ligand_efficiency_sa>
-1.01094170577325

> <r_i_glide_ligand_efficiency_ln>
-2.18497011656751

> <r_i_glide_gscore>
-9.54241087873035

> <r_i_glide_lipo>
-4.04746805890986

> <r_i_glide_hbond>
-0.527086580792737

> <r_i_glide_metal>
0

> <r_i_glide_rewards>
-1.77104396085405

> <r_i_glide_evdw>
-48.910026550293

> <r_i_glide_ecoul>
-7.37441492080688

> <r_i_glide_erotb>
0.354851287461975

> <r_i_glide_esite>
0

> <r_i_glide_emodel>
-81.8473603337819

> <r_i_glide_energy>
-56.2844414710999

> <r_i_glide_einternal>
6.15868520736694

> <i_i_glide_confnum>
26

> <i_i_glide_posenum>
274

> <r_i_glide_eff_state_penalty>
0

> <s_user_duplicate_titles>
CHEMBL260_lig1046,386121

> <s_m_subgroup_title>
dock_pv

> <s_m_subgroupid>
dock_pv

> <b_m_subgroup_collapsed>
1

$$$$
CHEMBL260_lig1041
                    3D
 Schrodinger Suite 2021-1.
 47 51  0  0  1  0            999 V2000
   -1.9202   -1.5325   21.1247 C   0  0  0  0  0  0
   -1.7187   -1.0483   22.5137 N   0  0  0  0  0  0
   -1.7056    0.4153   22.7777 C   0  0  0  0  0  0
   -3.1588   -0.8252   20.5297 C   0  0  0  0  0  0
   -3.2592    1.6288   19.7228 C   0  0  0  0  0  0
   -2.8973    0.6067   20.5743 N   0  0  0  0  0  0
   -2.3259    1.2177   21.6550 C   0  0  0  0  0  0
   -2.4344    2.5653   21.3763 C   0  0  0  0  0  0
   -2.9189    2.8104   20.1766 N   0  0  0  0  0  0
   -1.5762   -1.9374   23.5342 C   0  0  0  0  0  0
   -1.7995   -3.1438   23.4237 O   0  0  0  0  0  0
   -3.9843    1.4108   18.4521 C   0  0  0  0  0  0
   -5.2740    0.8870   18.5216 C   0  0  0  0  0  0
   -5.9695    0.6017   17.3599 C   0  0  0  0  0  0
   -5.3860    0.8168   16.1158 C   0  0  0  0  0  0
   -4.1187    1.3853   16.0349 C   0  0  0  0  0  0
   -3.4177    1.6863   17.1999 C   0  0  0  0  0  0
   -6.0169    0.4060   14.9996 F   0  0  0  0  0  0
   -5.8520    0.6094   19.7111 F   0  0  0  0  0  0
   -1.0378   -1.4246   24.8468 C   0  0  0  0  0  0
   -1.7984   -1.5638   26.0155 C   0  0  0  0  0  0
    0.7650   -0.3118   26.0658 N   0  0  0  0  0  0
    0.2317   -0.8156   24.9152 C   0  0  0  0  0  0
    0.9863   -0.7136   23.7556 O   0  0  0  0  0  0
    2.1623    0.0901   23.7283 C   0  0  0  0  0  0
    0.3674   -0.1032   28.4402 N   0  0  0  0  0  0
    0.0228   -0.4727   27.1604 C   0  0  0  0  0  0
   -1.2599   -1.0832   27.2193 C   0  0  0  0  0  0
   -1.6749   -1.0425   28.5917 C   0  0  0  0  0  0
   -0.6481   -0.4448   29.3030 C   0  0  0  0  0  0
   -1.0328   -1.2668   20.5479 H   0  0  0  0  0  0
   -2.0610   -2.6140   21.0695 H   0  0  0  0  0  0
   -2.1635    0.6685   23.7351 H   0  0  0  0  0  0
   -0.6798    0.7578   22.9088 H   0  0  0  0  0  0
   -3.3463   -1.1471   19.5057 H   0  0  0  0  0  0
   -4.0337   -1.0269   21.1450 H   0  0  0  0  0  0
   -2.0556    3.3408   22.0191 H   0  0  0  0  0  0
   -6.8991    0.0866   17.4744 H   0  0  0  0  0  0
   -3.6607    1.5591   15.0752 H   0  0  0  0  0  0
   -2.4355    2.1177   17.1002 H   0  0  0  0  0  0
   -2.7706   -2.0355   25.9990 H   0  0  0  0  0  0
    2.9791   -0.3802   24.2758 H   0  0  0  0  0  0
    2.4878    0.2140   22.6950 H   0  0  0  0  0  0
    1.9689    1.0873   24.1271 H   0  0  0  0  0  0
    1.2321    0.3276   28.7389 H   0  0  0  0  0  0
   -2.5903   -1.4249   29.0199 H   0  0  0  0  0  0
   -0.5438   -0.2426   30.3606 H   0  0  0  0  0  0
  1  2  1  0  0  0
  1  4  1  0  0  0
  1 31  1  0  0  0
  1 32  1  0  0  0
  2  3  1  0  0  0
  2 10  1  0  0  0
  3  7  1  0  0  0
  3 33  1  0  0  0
  3 34  1  0  0  0
  4  6  1  0  0  0
  4 35  1  0  0  0
  4 36  1  0  0  0
  5  6  1  0  0  0
  5  9  2  0  0  0
  5 12  1  0  0  0
  6  7  1  0  0  0
  7  8  2  0  0  0
  8  9  1  0  0  0
  8 37  1  0  0  0
 10 20  1  0  0  0
 10 11  2  0  0  0
 12 17  1  0  0  0
 12 13  2  0  0  0
 13 19  1  0  0  0
 13 14  1  0  0  0
 14 15  2  0  0  0
 14 38  1  0  0  0
 15 16  1  0  0  0
 15 18  1  0  0  0
 16 17  2  0  0  0
 16 39  1  0  0  0
 17 40  1  0  0  0
 20 21  2  0  0  0
 20 23  1  0  0  0
 21 28  1  0  0  0
 21 41  1  0  0  0
 22 27  1  0  0  0
 22 23  2  0  0  0
 23 24  1  0  0  0
 24 25  1  0  0  0
 25 42  1  0  0  0
 25 43  1  0  0  0
 25 44  1  0  0  0
 26 27  1  0  0  0
 26 30  1  0  0  0
 26 45  1  0  0  0
 27 28  2  0  0  0
 28 29  1  0  0  0
 29 30  2  0  0  0
 29 46  1  0  0  0
 30 47  1  0  0  0
M  END
> <s_m_entry_id>
60783

> <s_m_entry_name>
dock_pv.60

> <s_m_Source_Path>
/home/csk/Desktop/cluster/DUD-E-result/mk14

> <s_m_Source_File>
dock_pv.maegz

> <i_m_Source_File_Index>
60

> <chembl_id>
CHEMBL388230

> <chembl_pref_name>
None

> <i_lp_mmshare_version>
53161

> <i_f3d_flags>
0

> <r_lp_tautomer_probability>
0.999998432528457

> <s_lp_Force_Field>
OPLS_2005

> <r_lp_Energy>
35.010686

> <b_lp_Chiralities_Consistent>
1

> <s_lp_Variant>
CHEMBL260_lig1041-1

> <s_i_glide_gridfile>
glide-grid_2qd9

> <i_i_glide_lignum>
1168

> <i_i_glide_rotatable_bonds>
4

> <r_i_docking_score>
-9.54049605761212

> <r_i_glide_ligand_efficiency>
-0.318016535253737

> <r_i_glide_ligand_efficiency_sa>
-0.988151314650935

> <r_i_glide_ligand_efficiency_ln>
-2.16770465631993

> <r_i_glide_gscore>
-9.54049605761212

> <r_i_glide_lipo>
-3.49464650711158

> <r_i_glide_hbond>
-0.526642675402438

> <r_i_glide_metal>
0

> <r_i_glide_rewards>
-2.49933515600477

> <r_i_glide_evdw>
-46.942440032959

> <r_i_glide_ecoul>
-6.83468914031982

> <r_i_glide_erotb>
0.352453653602594

> <r_i_glide_esite>
0

> <r_i_glide_emodel>
-72.8210487647566

> <r_i_glide_energy>
-53.7771291732788

> <r_i_glide_einternal>
11.1955118179321

> <i_i_glide_confnum>
27

> <i_i_glide_posenum>
313

> <r_i_glide_eff_state_penalty>
0

> <s_user_duplicate_titles>
CHEMBL260_lig1041,386131

> <s_m_subgroup_title>
dock_pv

> <s_m_subgroupid>
dock_pv

> <b_m_subgroup_collapsed>
1

$$$$
CHEMBL260_lig948
                    3D
 Schrodinger Suite 2021-1.
 32 34  0  0  1  0            999 V2000
   -2.2003   -2.4034   21.8230 C   0  0  0  0  0  0
   -2.3294   -2.2209   20.3867 C   0  0  0  0  0  0
   -2.6387   -1.0261   19.8293 C   0  0  0  0  0  0
   -2.8461    0.1402   20.6477 C   0  0  0  0  0  0
   -2.6832    0.0391   21.9235 N   0  0  0  0  0  0
   -2.3387   -1.2002   22.4916 N   0  0  0  0  0  0
   -2.1408   -1.1705   23.8833 C   0  0  0  0  0  0
   -3.2364   -1.3674   24.7334 C   0  0  0  0  0  0
   -3.0540   -1.4072   26.1151 C   0  0  0  0  0  0
   -1.7805   -1.2407   26.6572 C   0  0  0  0  0  0
   -0.6868   -1.0296   25.8178 C   0  0  0  0  0  0
   -0.8574   -0.9915   24.4328 C   0  0  0  0  0  0
    0.5329   -0.7279   23.4372 Cl  0  0  0  0  0  0
   -2.0239   -3.5121   22.3365 O   0  0  0  0  0  0
   -3.2376    1.7585   19.9360 S   0  0  0  0  0  0
   -3.9412    1.3799   18.3459 C   0  0  0  0  0  0
   -5.2469    0.8896   18.2595 C   0  0  0  0  0  0
   -5.8441    0.7344   17.0098 C   0  0  0  0  0  0
   -5.1466    1.0232   15.8409 C   0  0  0  0  0  0
   -3.8415    1.4980   15.9206 C   0  0  0  0  0  0
   -3.2443    1.6870   17.1655 C   0  0  0  0  0  0
   -5.9503    0.5811   19.3744 F   0  0  0  0  0  0
   -2.1735   -3.0893   19.7607 H   0  0  0  0  0  0
   -2.7056   -0.9611   18.7553 H   0  0  0  0  0  0
   -4.2272   -1.5088   24.3249 H   0  0  0  0  0  0
   -3.9001   -1.5725   26.7663 H   0  0  0  0  0  0
   -1.6381   -1.2780   27.7276 H   0  0  0  0  0  0
    0.2983   -0.9005   26.2435 H   0  0  0  0  0  0
   -6.8350    0.3274   16.9532 H   0  0  0  0  0  0
   -5.6145    0.8750   14.8784 H   0  0  0  0  0  0
   -3.2962    1.7390   15.0201 H   0  0  0  0  0  0
   -2.2574    2.1173   17.1682 H   0  0  0  0  0  0
  1  6  1  0  0  0
  1  2  1  0  0  0
  1 14  2  0  0  0
  2  3  2  0  0  0
  2 23  1  0  0  0
  3  4  1  0  0  0
  3 24  1  0  0  0
  4 15  1  0  0  0
  4  5  2  0  0  0
  5  6  1  0  0  0
  6  7  1  0  0  0
  7 12  1  0  0  0
  7  8  2  0  0  0
  8  9  1  0  0  0
  8 25  1  0  0  0
  9 10  2  0  0  0
  9 26  1  0  0  0
 10 11  1  0  0  0
 10 27  1  0  0  0
 11 12  2  0  0  0
 11 28  1  0  0  0
 12 13  1  0  0  0
 15 16  1  0  0  0
 16 17  2  0  0  0
 16 21  1  0  0  0
 17 18  1  0  0  0
 17 22  1  0  0  0
 18 19  2  0  0  0
 18 29  1  0  0  0
 19 20  1  0  0  0
 19 30  1  0  0  0
 20 21  2  0  0  0
 20 31  1  0  0  0
 21 32  1  0  0  0
M  END
> <s_m_entry_id>
60784

> <s_m_entry_name>
dock_pv.61

> <s_m_Source_Path>
/home/csk/Desktop/cluster/DUD-E-result/mk14

> <s_m_Source_File>
dock_pv.maegz

> <i_m_Source_File_Index>
61

> <chembl_id>
CHEMBL373934

> <chembl_pref_name>
None

> <i_lp_mmshare_version>
53161

> <i_f3d_flags>
0

> <r_lp_tautomer_probability>
1

> <s_lp_Force_Field>
OPLS_2005

> <r_lp_Energy>
35.576058

> <b_lp_Chiralities_Consistent>
1

> <s_lp_Variant>
CHEMBL260_lig948-1

> <s_i_glide_gridfile>
glide-grid_2qd9

> <i_i_glide_lignum>
1051

> <i_i_glide_rotatable_bonds>
3

> <r_i_docking_score>
-9.52995789571922

> <r_i_glide_ligand_efficiency>
-0.433179904350873

> <r_i_glide_ligand_efficiency_sa>
-1.21378712799006

> <r_i_glide_ligand_efficiency_ln>
-2.32946932337408

> <r_i_glide_gscore>
-9.52995789571922

> <r_i_glide_lipo>
-3.98345470692895

> <r_i_glide_hbond>
-0.32

> <r_i_glide_metal>
0

> <r_i_glide_rewards>
-2.57364907805551

> <r_i_glide_evdw>
-39.8928489685059

> <r_i_glide_ecoul>
-7.79036140441895

> <r_i_glide_erotb>
0.510342548353382

> <r_i_glide_esite>
0

> <r_i_glide_emodel>
-73.1661190026093

> <r_i_glide_energy>
-47.6832103729248

> <r_i_glide_einternal>
1.74397909641266

> <i_i_glide_confnum>
15

> <i_i_glide_posenum>
125

> <r_i_glide_eff_state_penalty>
0

> <s_user_duplicate_titles>
CHEMBL260_lig948,368281

> <s_m_subgroup_title>
dock_pv

> <s_m_subgroupid>
dock_pv

> <b_m_subgroup_collapsed>
1

$$$$
CHEMBL260_lig100
                    3D
 Schrodinger Suite 2021-1.
 53 57  0  0  1  0            999 V2000
   -2.7068    0.1529   20.6493 C   0  0  0  0  0  0
   -3.0120    1.4220   20.1075 C   0  0  0  0  0  0
   -2.6046    2.5671   20.8225 C   0  0  0  0  0  0
   -2.0347    2.4661   22.1092 C   0  0  0  0  0  0
   -1.8044    1.2039   22.6255 C   0  0  0  0  0  0
   -2.1241    0.0488   21.9174 C   0  0  0  0  0  0
   -1.6837    3.5702   22.8822 N   0  0  0  0  0  0
   -3.7824    1.5021   18.8091 C   0  0  0  0  0  0
   -1.8604   -1.2303   22.4649 N   0  0  0  0  0  0
   -1.8788   -2.4114   21.7833 C   0  0  0  0  0  0
   -2.2646   -2.3164   20.4922 N   0  0  0  0  0  0
   -2.9558   -1.1579   19.9012 C   0  0  0  0  0  0
   -1.6352   -3.5129   22.2716 O   0  0  0  0  0  0
   -1.7128   -1.3235   23.8718 C   0  0  0  0  0  0
   -3.2348    1.9863   17.5992 C   0  0  0  0  0  0
   -3.8471    1.7614   16.3735 C   0  0  0  0  0  0
   -5.1032    1.1925   16.3346 C   0  0  0  0  0  0
   -5.7610    0.8862   17.5229 C   0  0  0  0  0  0
   -5.0825    0.9674   18.7446 C   0  0  0  0  0  0
   -2.8480   -1.4564   24.6886 C   0  0  0  0  0  0
   -2.7087   -1.5254   26.0751 C   0  0  0  0  0  0
   -1.4416   -1.4570   26.6550 C   0  0  0  0  0  0
   -0.3172   -1.2839   25.8486 C   0  0  0  0  0  0
   -0.4402   -1.2192   24.4602 C   0  0  0  0  0  0
   -5.6816    0.4891   19.8654 F   0  0  0  0  0  0
   -5.6415    0.9039   15.1347 F   0  0  0  0  0  0
    0.9721   -0.9457   23.4955 Cl  0  0  0  0  0  0
   -4.4333   -1.5096   23.9988 Cl  0  0  0  0  0  0
   -2.0010    3.6409   24.3291 C   0  0  0  0  0  0
   -0.8627    3.2000   25.2971 C   0  0  0  0  0  0
    0.4155    3.8268   24.9699 N   0  0  0  0  0  0
    0.7406    3.5866   23.5698 C   0  0  0  0  0  0
   -0.3639    4.1916   22.6752 C   0  0  0  0  0  0
   -2.7997    3.5451   20.4106 H   0  0  0  0  0  0
   -1.3356    1.1275   23.5897 H   0  0  0  0  0  0
   -2.3395   -3.1993   20.0068 H   0  0  0  0  0  0
   -4.0230   -1.3776   19.8523 H   0  0  0  0  0  0
   -2.5929   -1.0514   18.8802 H   0  0  0  0  0  0
   -2.2792    2.4718   17.4897 H   0  0  0  0  0  0
   -3.3555    2.0471   15.4554 H   0  0  0  0  0  0
   -6.7522    0.4553   17.4828 H   0  0  0  0  0  0
   -3.5850   -1.6364   26.7005 H   0  0  0  0  0  0
   -1.3312   -1.5150   27.7291 H   0  0  0  0  0  0
    0.6590   -1.1946   26.3039 H   0  0  0  0  0  0
   -2.2734    4.6659   24.5753 H   0  0  0  0  0  0
   -2.8881    3.0357   24.5312 H   0  0  0  0  0  0
   -0.7436    2.1164   25.3258 H   0  0  0  0  0  0
   -1.1212    3.4739   26.3212 H   0  0  0  0  0  0
    1.1496    3.4658   25.5685 H   0  0  0  0  0  0
    0.8679    2.5200   23.3817 H   0  0  0  0  0  0
    1.7048    4.0452   23.3503 H   0  0  0  0  0  0
   -0.0739    4.1283   21.6258 H   0  0  0  0  0  0
   -0.4361    5.2596   22.8949 H   0  0  0  0  0  0
  1  2  2  0  0  0
  1  6  1  0  0  0
  1 12  1  0  0  0
  2  3  1  0  0  0
  2  8  1  0  0  0
  3  4  2  0  0  0
  3 34  1  0  0  0
  4  5  1  0  0  0
  4  7  1  0  0  0
  5  6  2  0  0  0
  5 35  1  0  0  0
  6  9  1  0  0  0
  7 29  1  0  0  0
  7 33  1  0  0  0
  8 15  2  0  0  0
  8 19  1  0  0  0
  9 10  1  0  0  0
  9 14  1  0  0  0
 10 11  1  0  0  0
 10 13  2  0  0  0
 11 12  1  0  0  0
 11 36  1  0  0  0
 12 37  1  0  0  0
 12 38  1  0  0  0
 14 20  2  0  0  0
 14 24  1  0  0  0
 15 16  1  0  0  0
 15 39  1  0  0  0
 16 17  2  0  0  0
 16 40  1  0  0  0
 17 18  1  0  0  0
 17 26  1  0  0  0
 18 19  2  0  0  0
 18 41  1  0  0  0
 19 25  1  0  0  0
 20 21  1  0  0  0
 20 28  1  0  0  0
 21 22  2  0  0  0
 21 42  1  0  0  0
 22 23  1  0  0  0
 22 43  1  0  0  0
 23 24  2  0  0  0
 23 44  1  0  0  0
 24 27  1  0  0  0
 29 30  1  0  0  0
 29 45  1  0  0  0
 29 46  1  0  0  0
 30 31  1  0  0  0
 30 47  1  0  0  0
 30 48  1  0  0  0
 31 32  1  0  0  0
 31 49  1  0  0  0
 32 33  1  0  0  0
 32 50  1  0  0  0
 32 51  1  0  0  0
 33 52  1  0  0  0
 33 53  1  0  0  0
M  END
> <s_m_entry_id>
60785

> <s_m_entry_name>
dock_pv.62

> <s_m_Source_Path>
/home/csk/Desktop/cluster/DUD-E-result/mk14

> <s_m_Source_File>
dock_pv.maegz

> <i_m_Source_File_Index>
62

> <chembl_id>
CHEMBL94417

> <chembl_pref_name>
None

> <i_lp_mmshare_version>
53161

> <i_f3d_flags>
0

> <r_lp_tautomer_probability>
1

> <s_lp_Force_Field>
OPLS_2005

> <r_lp_Energy>
74.293684

> <b_lp_Chiralities_Consistent>
1

> <s_lp_Variant>
CHEMBL260_lig100-1

> <s_i_glide_gridfile>
glide-grid_2qd9

> <i_i_glide_lignum>
116

> <i_i_glide_rotatable_bonds>
3

> <r_i_docking_score>
-9.52345558967274

> <r_i_glide_ligand_efficiency>
-0.288589563323416

> <r_i_glide_ligand_efficiency_sa>
-0.925660930559502

> <r_i_glide_ligand_efficiency_ln>
-2.11796721332918

> <r_i_glide_gscore>
-9.52345558967274

> <r_i_glide_lipo>
-3.79017726196813

> <r_i_glide_hbond>
-0.477977117371935

> <r_i_glide_metal>
0

> <r_i_glide_rewards>
-2.25481485212171

> <r_i_glide_evdw>
-38.0937309265137

> <r_i_glide_ecoul>
-8.71418476104736

> <r_i_glide_erotb>
0.254861476767539

> <r_i_glide_esite>
-0.0435335744957102

> <r_i_glide_emodel>
-55.2289192368034

> <r_i_glide_energy>
-46.807915687561

> <r_i_glide_einternal>
7.046302318573

> <i_i_glide_confnum>
17

> <i_i_glide_posenum>
184

> <r_i_glide_eff_state_penalty>
0

> <s_user_duplicate_titles>
CHEMBL260_lig100,154580

> <s_m_subgroup_title>
dock_pv

> <s_m_subgroupid>
dock_pv

> <b_m_subgroup_collapsed>
1

$$$$
CHEMBL260_lig119
                    3D
 Schrodinger Suite 2021-1.
 45 48  0  0  1  0            999 V2000
   -1.7772   -1.2362   23.1323 N   0  0  0  0  0  0
   -2.0911   -0.0345   22.4536 C   0  0  0  0  0  0
   -2.6854   -0.0845   21.1815 C   0  0  0  0  0  0
   -1.8878   -2.4881   22.6061 C   0  0  0  0  0  0
   -1.3608   -1.1505   24.4930 C   0  0  0  0  0  0
   -3.0088    1.1065   20.5057 C   0  0  0  0  0  0
   -2.3631   -2.5654   21.3412 N   0  0  0  0  0  0
   -1.8074    1.2011   23.0348 C   0  0  0  0  0  0
   -2.0350    2.3815   22.3569 C   0  0  0  0  0  0
   -2.6103    2.3339   21.0731 C   0  0  0  0  0  0
   -2.9609   -1.4579   20.5794 C   0  0  0  0  0  0
   -1.5927    3.6057   23.0757 C   0  0  0  0  0  0
   -3.8212    1.0496   19.2438 C   0  0  0  0  0  0
   -0.0135   -0.8887   24.8110 C   0  0  0  0  0  0
   -2.3063   -1.2447   25.5307 C   0  0  0  0  0  0
   -1.6354   -3.5130   23.2211 O   0  0  0  0  0  0
   -2.1671    4.0554   24.0700 O   0  0  0  0  0  0
   -3.2350    0.9733   17.9752 C   0  0  0  0  0  0
   -5.2164    0.9752   19.3145 C   0  0  0  0  0  0
   -5.3666    0.8870   16.9052 C   0  0  0  0  0  0
   -0.4372    4.0870   22.5692 O   0  0  0  0  0  0
    1.1944   -0.7130   23.5845 Cl  0  0  0  0  0  0
   -3.9800   -1.5130   25.1983 Cl  0  0  0  0  0  0
   -5.9867    0.8870   18.1516 C   0  0  0  0  0  0
   -3.9889    0.9317   16.8131 C   0  0  0  0  0  0
   -6.0843    0.7916   15.7705 F   0  0  0  0  0  0
   -0.5738   -0.8257   27.1645 C   0  0  0  0  0  0
    0.3649   -0.7133   26.1420 C   0  0  0  0  0  0
   -1.9056   -1.0961   26.8588 C   0  0  0  0  0  0
    0.2218    5.1958   23.1628 C   0  0  0  0  0  0
   -2.4256   -3.4901   20.9364 H   0  0  0  0  0  0
   -1.3596    1.2576   24.0175 H   0  0  0  0  0  0
   -2.8125    3.2511   20.5396 H   0  0  0  0  0  0
   -4.0350   -1.6011   20.4935 H   0  0  0  0  0  0
   -2.5644   -1.4996   19.5638 H   0  0  0  0  0  0
   -2.1809    0.8870   17.8387 H   0  0  0  0  0  0
   -5.7044    0.9781   20.2760 H   0  0  0  0  0  0
   -7.0616    0.8106   18.2132 H   0  0  0  0  0  0
   -3.5081    0.8808   15.8469 H   0  0  0  0  0  0
   -0.2665   -0.7037   28.1935 H   0  0  0  0  0  0
    1.3959   -0.5003   26.3866 H   0  0  0  0  0  0
   -2.6303   -1.1766   27.6558 H   0  0  0  0  0  0
    1.1231    5.4325   22.5964 H   0  0  0  0  0  0
   -0.4171    6.0799   23.1678 H   0  0  0  0  0  0
    0.5158    4.9726   24.1896 H   0  0  0  0  0  0
  1  2  1  0  0  0
  1  4  1  0  0  0
  1  5  1  0  0  0
  2  3  2  0  0  0
  2  8  1  0  0  0
  3  6  1  0  0  0
  3 11  1  0  0  0
  4  7  1  0  0  0
  4 16  2  0  0  0
  5 14  1  0  0  0
  5 15  2  0  0  0
  6 13  1  0  0  0
  6 10  2  0  0  0
  7 11  1  0  0  0
  7 31  1  0  0  0
  8  9  2  0  0  0
  8 32  1  0  0  0
  9 10  1  0  0  0
  9 12  1  0  0  0
 10 33  1  0  0  0
 11 34  1  0  0  0
 11 35  1  0  0  0
 12 17  2  0  0  0
 12 21  1  0  0  0
 13 18  2  0  0  0
 13 19  1  0  0  0
 14 22  1  0  0  0
 14 28  2  0  0  0
 15 23  1  0  0  0
 15 29  1  0  0  0
 18 25  1  0  0  0
 18 36  1  0  0  0
 19 24  2  0  0  0
 19 37  1  0  0  0
 20 24  1  0  0  0
 20 26  1  0  0  0
 20 25  2  0  0  0
 21 30  1  0  0  0
 24 38  1  0  0  0
 25 39  1  0  0  0
 27 29  2  0  0  0
 27 28  1  0  0  0
 27 40  1  0  0  0
 28 41  1  0  0  0
 29 42  1  0  0  0
 30 43  1  0  0  0
 30 44  1  0  0  0
 30 45  1  0  0  0
M  END
> <s_m_entry_id>
60786

> <s_m_entry_name>
dock_pv.63

> <s_m_Source_Path>
/home/csk/Desktop/cluster/DUD-E-result/mk14

> <s_m_Source_File>
dock_pv.maegz

> <i_m_Source_File_Index>
63

> <chembl_id>
CHEMBL328252

> <chembl_pref_name>
None

> <i_lp_mmshare_version>
53161

> <i_f3d_flags>
0

> <r_lp_tautomer_probability>
1

> <s_lp_Force_Field>
OPLS_2005

> <r_lp_Energy>
48.618418

> <b_lp_Chiralities_Consistent>
1

> <s_lp_Variant>
CHEMBL260_lig119-1

> <s_i_glide_gridfile>
glide-grid_2qd9

> <i_i_glide_lignum>
135

> <i_i_glide_rotatable_bonds>
4

> <r_i_docking_score>
-9.52204053914697

> <r_i_glide_ligand_efficiency>
-0.317401351304899

> <r_i_glide_ligand_efficiency_sa>
-0.98623979509013

> <r_i_glide_ligand_efficiency_ln>
-2.16351136143566

> <r_i_glide_gscore>
-9.52204053914697

> <r_i_glide_lipo>
-3.68758996507016

> <r_i_glide_hbond>
-0.735090395382151

> <r_i_glide_metal>
0

> <r_i_glide_rewards>
-2.29057162692871

> <r_i_glide_evdw>
-33.8167953491211

> <r_i_glide_ecoul>
-8.58593082427979

> <r_i_glide_erotb>
0.211909541252196

> <r_i_glide_esite>
-0.0419687019201113

> <r_i_glide_emodel>
-51.6250727264102

> <r_i_glide_energy>
-42.4027261734009

> <r_i_glide_einternal>
9.81148624420166

> <i_i_glide_confnum>
8

> <i_i_glide_posenum>
171

> <r_i_glide_eff_state_penalty>
0

> <s_user_duplicate_titles>
CHEMBL260_lig119,154624

> <s_m_subgroup_title>
dock_pv

> <s_m_subgroupid>
dock_pv

> <b_m_subgroup_collapsed>
1

$$$$
CHEMBL260_lig888
                    3D
 Schrodinger Suite 2021-1.
 58 63  0  0  1  0            999 V2000
   -2.0330    3.2911   22.3437 N   0  0  0  0  0  0
    0.4590   -0.7237   25.6488 C   0  0  0  0  0  0
   -0.0214   -0.7653   24.3397 C   0  0  0  0  0  0
   -1.3644   -1.1162   24.0861 C   0  0  0  0  0  0
   -2.2234   -1.3403   25.1822 C   0  0  0  0  0  0
   -1.7179   -1.3451   26.4838 C   0  0  0  0  0  0
   -0.3780   -1.0446   26.7160 C   0  0  0  0  0  0
   -3.9294   -1.5134   24.9727 Cl  0  0  0  0  0  0
    1.0686   -0.3160   23.0780 Cl  0  0  0  0  0  0
   -1.8469   -1.2810   22.7427 N   0  0  0  0  0  0
   -1.8937   -2.5548   22.2822 C   0  0  0  0  0  0
   -2.2782   -2.7289   20.9939 N   0  0  0  0  0  0
   -2.8337   -1.7052   20.0955 C   0  0  0  0  0  0
   -2.2681   -0.1751   21.9879 C   0  0  0  0  0  0
   -2.7644   -0.3185   20.6791 C   0  0  0  0  0  0
   -3.1540    0.8563   20.0089 C   0  0  0  0  0  0
   -2.9419    2.0723   20.5818 N   0  0  0  0  0  0
   -2.4261    2.0755   21.8402 C   0  0  0  0  0  0
   -2.1324    1.0156   22.5833 N   0  0  0  0  0  0
   -3.8272    0.8875   18.6640 C   0  0  0  0  0  0
   -3.0988    0.9686   17.4692 C   0  0  0  0  0  0
   -3.6993    1.0749   16.2161 C   0  0  0  0  0  0
   -5.0808    1.0430   16.1201 C   0  0  0  0  0  0
   -5.8259    0.8870   17.2804 C   0  0  0  0  0  0
   -5.2192    0.8166   18.5318 C   0  0  0  0  0  0
   -6.2365    0.5178   19.8759 Cl  0  0  0  0  0  0
   -1.6414   -3.5130   22.9868 O   0  0  0  0  0  0
   -1.7038    3.6854   23.7245 C   0  0  1  0  0  0
   -2.9144    3.8958   24.6737 C   0  0  0  0  0  0
   -3.2244    2.5484   25.3475 C   0  0  0  0  0  0
   -1.9474    2.0095   26.0545 C   0  0  0  0  0  0
   -0.7470    2.8531   25.8847 N   0  0  1  0  0  0
   -0.4990    2.9909   24.4268 C   0  0  0  0  0  0
   -2.3643    4.8168   25.7966 C   0  0  0  0  0  0
   -1.0897    4.1796   26.4482 C   0  0  0  0  0  0
   -2.3310    4.0418   21.7450 H   0  0  0  0  0  0
    1.4972   -0.4698   25.8356 H   0  0  0  0  0  0
   -2.3723   -1.5391   27.3212 H   0  0  0  0  0  0
    0.0082   -1.0306   27.7252 H   0  0  0  0  0  0
   -2.3343   -3.6875   20.6727 H   0  0  0  0  0  0
   -3.8718   -1.9346   19.8761 H   0  0  0  0  0  0
   -2.2994   -1.7348   19.1455 H   0  0  0  0  0  0
   -2.0362    0.9187   17.4745 H   0  0  0  0  0  0
   -3.0939    1.1494   15.3236 H   0  0  0  0  0  0
   -5.5674    1.0994   15.1574 H   0  0  0  0  0  0
   -6.8853    0.8006   17.2169 H   0  0  0  0  0  0
   -1.3250    4.6892   23.5222 H   0  0  0  0  0  0
   -3.7928    4.3020   24.1755 H   0  0  0  0  0  0
   -4.0280    2.6759   26.0718 H   0  0  0  0  0  0
   -3.5876    1.8351   24.6083 H   0  0  0  0  0  0
   -1.7115    1.0465   25.6342 H   0  0  0  0  0  0
   -2.1368    1.8330   27.1148 H   0  0  0  0  0  0
   -0.2862    2.0152   23.9961 H   0  0  0  0  0  0
    0.4126    3.5723   24.2790 H   0  0  0  0  0  0
   -2.1269    5.8048   25.4007 H   0  0  0  0  0  0
   -3.1343    4.9597   26.5572 H   0  0  0  0  0  0
   -1.2312    4.0819   27.5256 H   0  0  0  0  0  0
   -0.2368    4.8504   26.3374 H   0  0  0  0  0  0
  1 18  1  0  0  0
  1 28  1  0  0  0
  1 36  1  0  0  0
  2  7  1  0  0  0
  2  3  2  0  0  0
  2 37  1  0  0  0
  3  9  1  0  0  0
  3  4  1  0  0  0
  4 10  1  0  0  0
  4  5  2  0  0  0
  5  6  1  0  0  0
  5  8  1  0  0  0
  6  7  2  0  0  0
  6 38  1  0  0  0
  7 39  1  0  0  0
 10 11  1  0  0  0
 10 14  1  0  0  0
 11 12  1  0  0  0
 11 27  2  0  0  0
 12 13  1  0  0  0
 12 40  1  0  0  0
 13 15  1  0  0  0
 13 41  1  0  0  0
 13 42  1  0  0  0
 14 19  2  0  0  0
 14 15  1  0  0  0
 15 16  2  0  0  0
 16 20  1  0  0  0
 16 17  1  0  0  0
 17 18  2  0  0  0
 18 19  1  0  0  0
 20 21  2  0  0  0
 20 25  1  0  0  0
 21 22  1  0  0  0
 21 43  1  0  0  0
 22 23  2  0  0  0
 22 44  1  0  0  0
 23 24  1  0  0  0
 23 45  1  0  0  0
 24 25  2  0  0  0
 24 46  1  0  0  0
 25 26  1  0  0  0
 28 29  1  0  0  0
 28 33  1  0  0  0
 28 47  1  0  0  0
 29 30  1  0  0  0
 29 34  1  0  0  0
 29 48  1  0  0  0
 30 31  1  0  0  0
 30 49  1  0  0  0
 30 50  1  0  0  0
 31 32  1  0  0  0
 31 51  1  0  0  0
 31 52  1  0  0  0
 32 33  1  0  0  0
 32 35  1  0  0  0
 33 53  1  0  0  0
 33 54  1  0  0  0
 34 35  1  0  0  0
 34 55  1  0  0  0
 34 56  1  0  0  0
 35 57  1  0  0  0
 35 58  1  0  0  0
M  END
> <s_m_entry_id>
60787

> <s_m_entry_name>
dock_pv.64

> <s_m_Source_Path>
/home/csk/Desktop/cluster/DUD-E-result/mk14

> <s_m_Source_File>
dock_pv.maegz

> <i_m_Source_File_Index>
64

> <chembl_id>
CHEMBL212091

> <chembl_pref_name>
None

> <i_lp_mmshare_version>
53161

> <i_f3d_flags>
0

> <r_lp_tautomer_probability>
0.999999987636

> <s_lp_Force_Field>
OPLS_2005

> <r_lp_Energy>
74.479993

> <b_lp_Chiralities_Consistent>
1

> <s_lp_Variant>
CHEMBL260_lig888-2

> <s_i_glide_gridfile>
glide-grid_2qd9

> <i_i_glide_lignum>
989

> <i_i_glide_rotatable_bonds>
4

> <r_i_docking_score>
-9.51698962143483

> <r_i_glide_ligand_efficiency>
-0.271913989183852

> <r_i_glide_ligand_efficiency_sa>
-0.889448688234184

> <r_i_glide_ligand_efficiency_ln>
-2.08919044010946

> <r_i_glide_gscore>
-9.51698962143483

> <r_i_glide_lipo>
-4.12725896862434

> <r_i_glide_hbond>
-0.771580072068742

> <r_i_glide_metal>
0

> <r_i_glide_rewards>
-1.56068465987493

> <r_i_glide_evdw>
-42.8161544799805

> <r_i_glide_ecoul>
-7.22622919082642

> <r_i_glide_erotb>
0.205559396205576

> <r_i_glide_esite>
-0.0382832144494143

> <r_i_glide_emodel>
-65.8486232094022

> <r_i_glide_energy>
-50.0423836708069

> <r_i_glide_einternal>
13.8443460464478

> <i_i_glide_confnum>
9

> <i_i_glide_posenum>
44

> <r_i_glide_eff_state_penalty>
0

> <s_user_duplicate_titles>
CHEMBL260_lig888,355572

> <s_m_subgroup_title>
dock_pv

> <s_m_subgroupid>
dock_pv

> <b_m_subgroup_collapsed>
1

$$$$
CHEMBL260_lig105
                    3D
 Schrodinger Suite 2021-1.
 48 51  0  0  1  0            999 V2000
   -1.8568   -1.2351   22.6201 N   0  0  0  0  0  0
   -2.1826   -0.0109   21.9886 C   0  0  0  0  0  0
   -2.7299    0.0018   20.6939 C   0  0  0  0  0  0
   -3.0260    1.2259   20.0507 C   0  0  0  0  0  0
   -1.9383   -2.4639   22.0374 C   0  0  0  0  0  0
   -1.4190   -1.2070   23.9796 C   0  0  0  0  0  0
   -3.7615    1.2164   18.7202 C   0  0  0  0  0  0
   -2.4161   -2.4908   20.7726 N   0  0  0  0  0  0
   -1.9196    1.1896   22.6356 C   0  0  0  0  0  0
   -2.0748    2.3977   21.9949 C   0  0  0  0  0  0
   -2.6317    2.4237   20.6939 C   0  0  0  0  0  0
   -2.9663   -1.3489   20.0276 C   0  0  0  0  0  0
   -1.5763    3.5464   22.7984 C   0  0  0  0  0  0
   -5.1532    1.0391   18.6419 C   0  0  0  0  0  0
   -3.0916    1.2570   17.4887 C   0  0  0  0  0  0
   -2.3473   -1.3576   25.0249 C   0  0  0  0  0  0
   -0.0722   -0.9426   24.2982 C   0  0  0  0  0  0
   -1.6360   -3.5130   22.5904 O   0  0  0  0  0  0
   -5.7989    0.8870   17.4132 C   0  0  0  0  0  0
   -2.0777    3.8868   23.8743 O   0  0  0  0  0  0
   -5.0863    0.9205   16.2257 C   0  0  0  0  0  0
   -3.7246    1.1414   16.2580 C   0  0  0  0  0  0
   -0.4513    4.0871   22.2760 O   0  0  0  0  0  0
   -4.0334   -1.5128   24.7017 Cl  0  0  0  0  0  0
    1.0892   -0.5517   23.0819 Cl  0  0  0  0  0  0
   -5.6996    0.6868   15.0522 F   0  0  0  0  0  0
   -6.0032    0.9756   19.8760 C   0  0  0  0  0  0
   -0.5811   -1.1122   26.6565 C   0  0  0  0  0  0
    0.3373   -0.9046   25.6302 C   0  0  0  0  0  0
   -1.9230   -1.3284   26.3535 C   0  0  0  0  0  0
    0.2479    5.1249   22.9462 C   0  0  0  0  0  0
   -2.5365   -3.4103   20.3648 H   0  0  0  0  0  0
   -1.5069    1.1928   23.6358 H   0  0  0  0  0  0
   -2.7863    3.3674   20.1930 H   0  0  0  0  0  0
   -4.0312   -1.5034   19.8753 H   0  0  0  0  0  0
   -2.5003   -1.3465   19.0434 H   0  0  0  0  0  0
   -2.0352    1.2909   17.4540 H   0  0  0  0  0  0
   -6.8527    0.6982   17.3792 H   0  0  0  0  0  0
   -3.1539    1.1474   15.3407 H   0  0  0  0  0  0
   -6.2092    1.9635   20.2753 H   0  0  0  0  0  0
   -6.9366    0.4367   19.7217 H   0  0  0  0  0  0
   -5.4631    0.4868   20.6757 H   0  0  0  0  0  0
   -0.2544   -1.0855   27.6862 H   0  0  0  0  0  0
    1.3721   -0.7072   25.8722 H   0  0  0  0  0  0
   -2.6368   -1.4559   27.1545 H   0  0  0  0  0  0
    1.1158    5.4240   22.3560 H   0  0  0  0  0  0
   -0.3869    6.0021   23.0875 H   0  0  0  0  0  0
    0.6018    4.7901   23.9234 H   0  0  0  0  0  0
  1  2  1  0  0  0
  1  5  1  0  0  0
  1  6  1  0  0  0
  2  3  2  0  0  0
  2  9  1  0  0  0
  3  4  1  0  0  0
  3 12  1  0  0  0
  4  7  1  0  0  0
  4 11  2  0  0  0
  5  8  1  0  0  0
  5 18  2  0  0  0
  6 16  1  0  0  0
  6 17  2  0  0  0
  7 14  1  0  0  0
  7 15  2  0  0  0
  8 12  1  0  0  0
  8 32  1  0  0  0
  9 10  2  0  0  0
  9 33  1  0  0  0
 10 11  1  0  0  0
 10 13  1  0  0  0
 11 34  1  0  0  0
 12 35  1  0  0  0
 12 36  1  0  0  0
 13 20  2  0  0  0
 13 23  1  0  0  0
 14 19  2  0  0  0
 14 27  1  0  0  0
 15 22  1  0  0  0
 15 37  1  0  0  0
 16 24  1  0  0  0
 16 30  2  0  0  0
 17 25  1  0  0  0
 17 29  1  0  0  0
 19 21  1  0  0  0
 19 38  1  0  0  0
 21 22  2  0  0  0
 21 26  1  0  0  0
 22 39  1  0  0  0
 23 31  1  0  0  0
 27 40  1  0  0  0
 27 41  1  0  0  0
 27 42  1  0  0  0
 28 29  2  0  0  0
 28 30  1  0  0  0
 28 43  1  0  0  0
 29 44  1  0  0  0
 30 45  1  0  0  0
 31 46  1  0  0  0
 31 47  1  0  0  0
 31 48  1  0  0  0
M  END
> <s_m_entry_id>
60788

> <s_m_entry_name>
dock_pv.65

> <s_m_Source_Path>
/home/csk/Desktop/cluster/DUD-E-result/mk14

> <s_m_Source_File>
dock_pv.maegz

> <i_m_Source_File_Index>
65

> <chembl_id>
CHEMBL94783

> <chembl_pref_name>
None

> <i_lp_mmshare_version>
53161

> <i_f3d_flags>
0

> <r_lp_tautomer_probability>
1

> <s_lp_Force_Field>
OPLS_2005

> <r_lp_Energy>
48.788665

> <b_lp_Chiralities_Consistent>
1

> <s_lp_Variant>
CHEMBL260_lig105-1

> <s_i_glide_gridfile>
glide-grid_2qd9

> <i_i_glide_lignum>
121

> <i_i_glide_rotatable_bonds>
4

> <r_i_docking_score>
-9.5087152494049

> <r_i_glide_ligand_efficiency>
-0.306732749980803

> <r_i_glide_ligand_efficiency_sa>
-0.963564325141546

> <r_i_glide_ligand_efficiency_ln>
-2.14450669586653

> <r_i_glide_gscore>
-9.5087152494049

> <r_i_glide_lipo>
-4.03674398253647

> <r_i_glide_hbond>
-0.608

> <r_i_glide_metal>
0

> <r_i_glide_rewards>
-2.2430843737905

> <r_i_glide_evdw>
-28.267671585083

> <r_i_glide_ecoul>
-9.10254669189453

> <r_i_glide_erotb>
0.200285805238866

> <r_i_glide_esite>
-0.0424071152784603

> <r_i_glide_emodel>
-48.3739198209555

> <r_i_glide_energy>
-37.3702182769775

> <r_i_glide_einternal>
10.0450639724731

> <i_i_glide_confnum>
13

> <i_i_glide_posenum>
57

> <r_i_glide_eff_state_penalty>
0

> <s_user_duplicate_titles>
CHEMBL260_lig105,155182

> <s_m_subgroup_title>
dock_pv

> <s_m_subgroupid>
dock_pv

> <b_m_subgroup_collapsed>
1

$$$$
CHEMBL260_lig1231
                    3D
 Schrodinger Suite 2021-1.
 57 60  0  0  1  0            999 V2000
    0.3743    4.7357   23.2029 N   0  0  0  0  0  0
   -1.7453   -2.4531   21.9554 C   0  0  0  0  0  0
   -2.0762   -2.4467   20.5434 C   0  0  0  0  0  0
   -2.4934   -1.3521   19.8758 C   0  0  0  0  0  0
   -1.6572   -1.2026   22.5149 N   0  0  0  0  0  0
   -2.0639    0.0012   21.8505 C   0  0  0  0  0  0
   -2.5393   -0.0345   20.5201 C   0  0  0  0  0  0
   -3.0147    1.1300   19.8756 C   0  0  0  0  0  0
   -2.8670    2.3435   20.5695 C   0  0  0  0  0  0
   -2.4231    2.3970   21.8982 C   0  0  0  0  0  0
   -2.0346    1.2210   22.5181 C   0  0  0  0  0  0
   -1.6352   -3.5130   22.5716 O   0  0  0  0  0  0
   -1.2912   -1.1280   23.8900 C   0  0  0  0  0  0
    0.0217   -0.7777   24.2668 C   0  0  0  0  0  0
    0.3650   -0.7134   25.6172 C   0  0  0  0  0  0
   -0.5854   -0.9717   26.6014 C   0  0  0  0  0  0
   -1.9005   -1.2511   26.2395 C   0  0  0  0  0  0
   -2.2642   -1.3059   24.8940 C   0  0  0  0  0  0
   -3.9363   -1.5129   24.5059 Cl  0  0  0  0  0  0
    1.2198   -0.3135   23.1073 Cl  0  0  0  0  0  0
   -3.7279    1.1140   18.5368 C   0  0  0  0  0  0
   -3.0850    1.3289   17.3000 C   0  0  0  0  0  0
   -3.7627    1.3377   16.0832 C   0  0  0  0  0  0
   -5.1290    1.1183   16.0574 C   0  0  0  0  0  0
   -5.7903    0.8870   17.2538 C   0  0  0  0  0  0
   -5.1118    0.8870   18.4717 C   0  0  0  0  0  0
   -6.0348    0.5343   19.8760 Cl  0  0  0  0  0  0
   -2.4170    3.6068   22.5657 O   0  0  0  0  0  0
   -1.8821    3.7344   23.8885 C   0  0  0  0  0  0
   -0.3337    3.6971   23.9558 C   0  0  0  0  0  0
    0.3325    6.0516   23.4868 C   0  0  0  0  0  0
    2.5257    6.2923   22.2759 N   0  0  0  0  0  0
    1.3359    7.0087   22.7814 C   0  0  1  0  0  0
   -0.4813    6.5377   24.2748 O   0  0  0  0  0  0
    0.6648    7.8797   21.7074 C   0  0  0  0  0  0
    1.0262    4.4274   22.4952 H   0  0  0  0  0  0
   -2.0311   -3.3955   20.0267 H   0  0  0  0  0  0
   -2.7250   -1.4369   18.8285 H   0  0  0  0  0  0
   -3.1993    3.2587   20.1043 H   0  0  0  0  0  0
   -1.7065    1.2541   23.5411 H   0  0  0  0  0  0
    1.3738   -0.4558   25.9073 H   0  0  0  0  0  0
   -0.3076   -0.9262   27.6450 H   0  0  0  0  0  0
   -2.6434   -1.4051   27.0088 H   0  0  0  0  0  0
   -2.0351    1.4885   17.2035 H   0  0  0  0  0  0
   -3.2249    1.5066   15.1608 H   0  0  0  0  0  0
   -5.6643    1.1073   15.1194 H   0  0  0  0  0  0
   -6.8364    0.6691   17.2386 H   0  0  0  0  0  0
   -2.2307    4.6845   24.2872 H   0  0  0  0  0  0
   -2.3228    3.0080   24.5721 H   0  0  0  0  0  0
    0.0184    3.6233   24.9863 H   0  0  0  0  0  0
    0.0062    2.7794   23.4764 H   0  0  0  0  0  0
    2.8031    5.5114   22.8567 H   0  0  0  0  0  0
    2.3661    5.9596   21.3250 H   0  0  0  0  0  0
    1.6658    7.6897   23.5683 H   0  0  0  0  0  0
   -0.2175    8.3932   22.0902 H   0  0  0  0  0  0
    1.3511    8.6462   21.3477 H   0  0  0  0  0  0
    0.3646    7.2863   20.8435 H   0  0  0  0  0  0
  1 30  1  0  0  0
  1 31  1  0  0  0
  1 36  1  0  0  0
  2 12  2  0  0  0
  2  3  1  0  0  0
  2  5  1  0  0  0
  3  4  2  0  0  0
  3 37  1  0  0  0
  4  7  1  0  0  0
  4 38  1  0  0  0
  5  6  1  0  0  0
  5 13  1  0  0  0
  6 11  1  0  0  0
  6  7  2  0  0  0
  7  8  1  0  0  0
  8  9  2  0  0  0
  8 21  1  0  0  0
  9 10  1  0  0  0
  9 39  1  0  0  0
 10 11  2  0  0  0
 10 28  1  0  0  0
 11 40  1  0  0  0
 13 18  1  0  0  0
 13 14  2  0  0  0
 14 20  1  0  0  0
 14 15  1  0  0  0
 15 16  2  0  0  0
 15 41  1  0  0  0
 16 17  1  0  0  0
 16 42  1  0  0  0
 17 18  2  0  0  0
 17 43  1  0  0  0
 18 19  1  0  0  0
 21 22  2  0  0  0
 21 26  1  0  0  0
 22 23  1  0  0  0
 22 44  1  0  0  0
 23 24  2  0  0  0
 23 45  1  0  0  0
 24 25  1  0  0  0
 24 46  1  0  0  0
 25 26  2  0  0  0
 25 47  1  0  0  0
 26 27  1  0  0  0
 28 29  1  0  0  0
 29 30  1  0  0  0
 29 48  1  0  0  0
 29 49  1  0  0  0
 30 50  1  0  0  0
 30 51  1  0  0  0
 31 33  1  0  0  0
 31 34  2  0  0  0
 32 33  1  0  0  0
 32 52  1  0  0  0
 32 53  1  0  0  0
 33 35  1  0  0  0
 33 54  1  0  0  0
 35 55  1  0  0  0
 35 56  1  0  0  0
 35 57  1  0  0  0
M  END
> <s_m_entry_id>
60789

> <s_m_entry_name>
dock_pv.66

> <s_m_Source_Path>
/home/csk/Desktop/cluster/DUD-E-result/mk14

> <s_m_Source_File>
dock_pv.maegz

> <i_m_Source_File_Index>
66

> <chembl_id>
CHEMBL269792

> <chembl_pref_name>
None

> <i_lp_mmshare_version>
53161

> <i_f3d_flags>
0

> <r_lp_tautomer_probability>
1

> <s_lp_Force_Field>
OPLS_2005

> <r_lp_Energy>
50.179197

> <b_lp_Chiralities_Consistent>
1

> <s_lp_Variant>
CHEMBL260_lig1231-1

> <s_i_glide_gridfile>
glide-grid_2qd9

> <i_i_glide_lignum>
1403

> <i_i_glide_rotatable_bonds>
8

> <r_i_docking_score>
-9.46481990945371

> <r_i_glide_ligand_efficiency>
-0.270423425984392

> <r_i_glide_ligand_efficiency_sa>
-0.884572957175

> <r_i_glide_ligand_efficiency_ln>
-2.07773803048523

> <r_i_glide_gscore>
-9.46481990945371

> <r_i_glide_lipo>
-4.80900212103605

> <r_i_glide_hbond>
-0.424551434020015

> <r_i_glide_metal>
0

> <r_i_glide_rewards>
-0.449688757583715

> <r_i_glide_evdw>
-42.9446220397949

> <r_i_glide_ecoul>
-13.7979431152344

> <r_i_glide_erotb>
0.512150276290594

> <r_i_glide_esite>
-0.0768053038296274

> <r_i_glide_emodel>
-65.7691036171221

> <r_i_glide_energy>
-56.7425651550293

> <r_i_glide_einternal>
6.97348785400391

> <i_i_glide_confnum>
5

> <i_i_glide_posenum>
309

> <r_i_glide_eff_state_penalty>
0

> <s_user_duplicate_titles>
CHEMBL260_lig1231,434042

> <s_m_subgroup_title>
dock_pv

> <s_m_subgroupid>
dock_pv

> <b_m_subgroup_collapsed>
1

$$$$
CHEMBL260_lig1243
                    3D
 Schrodinger Suite 2021-1.
 42 45  0  0  1  0            999 V2000
   -1.7994   -2.2487   22.0164 C   0  0  0  0  0  0
   -1.6814   -2.0076   20.4952 C   0  0  2  0  0  0
   -2.8713   -1.1749   19.9858 C   0  0  0  0  0  0
   -1.9804   -1.0579   22.6527 N   0  0  0  0  0  0
   -2.3216    0.1650   21.9992 C   0  0  0  0  0  0
   -2.8277    0.1708   20.6751 C   0  0  0  0  0  0
   -3.1692    1.3745   20.0171 C   0  0  0  0  0  0
   -2.8353    2.5706   20.6741 C   0  0  0  0  0  0
   -2.3295    2.5563   21.9824 C   0  0  0  0  0  0
   -2.0867    1.3716   22.6374 C   0  0  0  0  0  0
   -1.7258   -3.3604   22.5588 O   0  0  0  0  0  0
   -1.6347   -3.2394   19.8760 O   0  0  0  0  0  0
   -2.0012   -1.1180   24.0671 C   0  0  0  0  0  0
   -3.2290   -1.2133   24.7413 C   0  0  0  0  0  0
   -3.2418   -1.3952   26.1248 C   0  0  0  0  0  0
   -2.0505   -1.4412   26.8448 C   0  0  0  0  0  0
   -0.8325   -1.3010   26.1832 C   0  0  0  0  0  0
   -0.7965   -1.1431   24.7988 C   0  0  0  0  0  0
    0.7466   -1.0052   24.0245 Cl  0  0  0  0  0  0
   -4.7294   -1.1160   23.8759 Cl  0  0  0  0  0  0
   -3.8639    1.3664   18.6657 C   0  0  0  0  0  0
   -3.2346    1.7860   17.4795 C   0  0  0  0  0  0
   -3.8359    1.6936   16.2244 C   0  0  0  0  0  0
   -5.1424    1.2447   16.1209 C   0  0  0  0  0  0
   -5.8203    0.8869   17.2765 C   0  0  0  0  0  0
   -5.1908    0.9229   18.5217 C   0  0  0  0  0  0
   -6.1430    0.4910   19.8759 Cl  0  0  0  0  0  0
   -2.0150    3.6856   22.6761 O   0  0  0  0  0  0
   -0.7290   -1.5149   20.2864 H   0  0  0  0  0  0
   -3.8168   -1.6708   20.1925 H   0  0  0  0  0  0
   -2.7933   -1.0593   18.9078 H   0  0  0  0  0  0
   -3.0272    3.5176   20.1941 H   0  0  0  0  0  0
   -1.6756    1.3937   23.6363 H   0  0  0  0  0  0
   -2.4157   -3.7689   20.0938 H   0  0  0  0  0  0
   -4.1800   -1.5104   26.6464 H   0  0  0  0  0  0
   -2.0672   -1.5853   27.9153 H   0  0  0  0  0  0
    0.0894   -1.3335   26.7457 H   0  0  0  0  0  0
   -2.2662    2.2413   17.4755 H   0  0  0  0  0  0
   -3.3027    2.0130   15.3405 H   0  0  0  0  0  0
   -5.6322    1.1893   15.1592 H   0  0  0  0  0  0
   -6.8343    0.5368   17.2043 H   0  0  0  0  0  0
   -1.5236    3.4889   23.4794 H   0  0  0  0  0  0
  1  4  1  0  0  0
  1 11  2  0  0  0
  1  2  1  0  0  0
  2  3  1  0  0  0
  2 12  1  0  0  0
  2 29  1  0  0  0
  3  6  1  0  0  0
  3 30  1  0  0  0
  3 31  1  0  0  0
  4  5  1  0  0  0
  4 13  1  0  0  0
  5 10  1  0  0  0
  5  6  2  0  0  0
  6  7  1  0  0  0
  7  8  2  0  0  0
  7 21  1  0  0  0
  8  9  1  0  0  0
  8 32  1  0  0  0
  9 10  2  0  0  0
  9 28  1  0  0  0
 10 33  1  0  0  0
 12 34  1  0  0  0
 13 14  2  0  0  0
 13 18  1  0  0  0
 14 15  1  0  0  0
 14 20  1  0  0  0
 15 16  2  0  0  0
 15 35  1  0  0  0
 16 17  1  0  0  0
 16 36  1  0  0  0
 17 18  2  0  0  0
 17 37  1  0  0  0
 18 19  1  0  0  0
 21 22  2  0  0  0
 21 26  1  0  0  0
 22 23  1  0  0  0
 22 38  1  0  0  0
 23 24  2  0  0  0
 23 39  1  0  0  0
 24 25  1  0  0  0
 24 40  1  0  0  0
 25 26  2  0  0  0
 25 41  1  0  0  0
 26 27  1  0  0  0
 28 42  1  0  0  0
M  END
> <s_m_entry_id>
60790

> <s_m_entry_name>
dock_pv.67

> <s_m_Source_Path>
/home/csk/Desktop/cluster/DUD-E-result/mk14

> <s_m_Source_File>
dock_pv.maegz

> <i_m_Source_File_Index>
67

> <chembl_id>
CHEMBL270599

> <chembl_pref_name>
None

> <i_lp_mmshare_version>
53161

> <i_f3d_flags>
0

> <r_lp_tautomer_probability>
0.999999999997365

> <s_lp_Force_Field>
OPLS_2005

> <r_lp_Energy>
48.60917

> <b_lp_Chiralities_Consistent>
1

> <s_lp_Variant>
CHEMBL260_lig1243-2

> <s_i_glide_gridfile>
glide-grid_2qd9

> <i_i_glide_lignum>
1417

> <i_i_glide_rotatable_bonds>
4

> <r_i_docking_score>
-9.45703879150457

> <r_i_glide_ligand_efficiency>
-0.337751385410878

> <r_i_glide_ligand_efficiency_sa>
-1.02561213103521

> <r_i_glide_ligand_efficiency_ln>
-2.18296222380372

> <r_i_glide_gscore>
-9.45703879150457

> <r_i_glide_lipo>
-4.40704755677804

> <r_i_glide_hbond>
-0.304

> <r_i_glide_metal>
0

> <r_i_glide_rewards>
-1.7376049343391

> <r_i_glide_evdw>
-30.5003108978271

> <r_i_glide_ecoul>
-11.2945613861084

> <r_i_glide_erotb>
0.210813452420191

> <r_i_glide_esite>
0

> <r_i_glide_emodel>
-49.7329318324613

> <r_i_glide_energy>
-41.7948722839355

> <r_i_glide_einternal>
0.967698752880096

> <i_i_glide_confnum>
14

> <i_i_glide_posenum>
278

> <r_i_glide_eff_state_penalty>
0

> <s_user_duplicate_titles>
CHEMBL260_lig1243,434383

> <s_m_subgroup_title>
dock_pv

> <s_m_subgroupid>
dock_pv

> <b_m_subgroup_collapsed>
1

$$$$
CHEMBL260_lig89
                    3D
 Schrodinger Suite 2021-1.
 54 58  0  0  1  0            999 V2000
   -1.5136   -1.2590   22.4074 N   0  0  0  0  0  0
   -1.8871   -0.0721   21.7478 C   0  0  0  0  0  0
   -2.5402   -0.0880   20.5016 C   0  0  0  0  0  0
   -3.0029    1.1200   19.9206 C   0  0  0  0  0  0
   -1.6967   -2.4981   21.8865 C   0  0  0  0  0  0
   -1.1671   -1.1856   23.8000 C   0  0  0  0  0  0
   -2.0674   -2.5503   20.5871 N   0  0  0  0  0  0
   -1.6896    1.1201   22.4019 C   0  0  0  0  0  0
   -2.8350    2.3044   20.6759 C   0  0  0  0  0  0
   -2.2492    2.2762   21.9579 C   0  0  0  0  0  0
   -3.7365    1.1394   18.5863 C   0  0  0  0  0  0
   -2.7535   -1.4562   19.8761 C   0  0  0  0  0  0
   -2.1653   -1.3316   24.7874 C   0  0  0  0  0  0
    0.1363   -0.8196   24.2059 C   0  0  0  0  0  0
   -1.6349   -3.5130   22.5537 O   0  0  0  0  0  0
   -5.1163    0.8870   18.4994 C   0  0  0  0  0  0
   -1.4622    4.6381   25.5741 N   0  0  1  0  0  0
   -2.2568    3.3875   22.9986 C   0  0  0  0  0  0
   -3.8349   -1.5130   24.3719 Cl  0  0  0  0  0  0
    1.3509   -0.3134   23.0779 Cl  0  0  0  0  0  0
   -6.0479    0.4882   19.8760 Cl  0  0  0  0  0  0
   -3.0898    1.3662   17.3523 C   0  0  0  0  0  0
   -0.5304   -0.9590   26.5283 C   0  0  0  0  0  0
   -2.8079    4.0893   25.4155 C   0  0  0  0  0  0
   -0.7972    5.0497   24.3374 C   0  0  0  0  0  0
    0.4412   -0.7150   25.5626 C   0  0  0  0  0  0
   -1.8347   -1.2498   26.1399 C   0  0  0  0  0  0
   -5.7889    0.8870   17.2772 C   0  0  0  0  0  0
   -2.8426    2.9570   24.3749 C   0  0  0  0  0  0
   -0.8348    3.9578   23.2490 C   0  0  0  0  0  0
   -3.7584    1.3834   16.1304 C   0  0  0  0  0  0
   -5.1214    1.1473   16.0903 C   0  0  0  0  0  0
   -2.1854   -3.4822   20.2108 H   0  0  0  0  0  0
   -1.1750    1.1640   23.3447 H   0  0  0  0  0  0
   -3.2437    3.2275   20.2947 H   0  0  0  0  0  0
   -3.8209   -1.6685   19.8749 H   0  0  0  0  0  0
   -2.4223   -1.4469   18.8380 H   0  0  0  0  0  0
   -1.4305    5.3649   26.2770 H   0  0  0  0  0  0
   -2.9520    4.0870   22.5874 H   0  0  0  0  0  0
   -2.0352    1.5123   17.2580 H   0  0  0  0  0  0
   -0.2796   -0.8827   27.5767 H   0  0  0  0  0  0
   -3.4961    4.8868   25.1369 H   0  0  0  0  0  0
   -3.1379    3.7102   26.3842 H   0  0  0  0  0  0
   -1.2350    5.9777   23.9718 H   0  0  0  0  0  0
    0.2421    5.2731   24.5840 H   0  0  0  0  0  0
    1.4382   -0.4340   25.8709 H   0  0  0  0  0  0
   -2.5977   -1.3804   26.8935 H   0  0  0  0  0  0
   -6.8350    0.6544   17.2497 H   0  0  0  0  0  0
   -3.8870    2.6704   24.2472 H   0  0  0  0  0  0
   -2.3488    2.0938   24.8213 H   0  0  0  0  0  0
   -0.1156    3.1823   23.5183 H   0  0  0  0  0  0
   -0.4547    4.4103   22.3316 H   0  0  0  0  0  0
   -3.2140    1.5640   15.2141 H   0  0  0  0  0  0
   -5.6479    1.1401   15.1473 H   0  0  0  0  0  0
  1  2  1  0  0  0
  1  5  1  0  0  0
  1  6  1  0  0  0
  2  3  2  0  0  0
  2  8  1  0  0  0
  3  4  1  0  0  0
  3 12  1  0  0  0
  4 11  1  0  0  0
  4  9  2  0  0  0
  5  7  1  0  0  0
  5 15  2  0  0  0
  6 13  2  0  0  0
  6 14  1  0  0  0
  7 12  1  0  0  0
  7 33  1  0  0  0
  8 10  2  0  0  0
  8 34  1  0  0  0
  9 10  1  0  0  0
  9 35  1  0  0  0
 10 18  1  0  0  0
 11 16  1  0  0  0
 11 22  2  0  0  0
 12 36  1  0  0  0
 12 37  1  0  0  0
 13 19  1  0  0  0
 13 27  1  0  0  0
 14 20  1  0  0  0
 14 26  2  0  0  0
 16 21  1  0  0  0
 16 28  2  0  0  0
 17 25  1  0  0  0
 17 24  1  0  0  0
 17 38  1  0  0  0
 18 29  1  0  0  0
 18 30  1  0  0  0
 18 39  1  0  0  0
 22 31  1  0  0  0
 22 40  1  0  0  0
 23 26  1  0  0  0
 23 27  2  0  0  0
 23 41  1  0  0  0
 24 29  1  0  0  0
 24 42  1  0  0  0
 24 43  1  0  0  0
 25 30  1  0  0  0
 25 44  1  0  0  0
 25 45  1  0  0  0
 26 46  1  0  0  0
 27 47  1  0  0  0
 28 32  1  0  0  0
 28 48  1  0  0  0
 29 49  1  0  0  0
 29 50  1  0  0  0
 30 51  1  0  0  0
 30 52  1  0  0  0
 31 32  2  0  0  0
 31 53  1  0  0  0
 32 54  1  0  0  0
M  END
> <s_m_entry_id>
60791

> <s_m_entry_name>
dock_pv.68

> <s_m_Source_Path>
/home/csk/Desktop/cluster/DUD-E-result/mk14

> <s_m_Source_File>
dock_pv.maegz

> <i_m_Source_File_Index>
68

> <chembl_id>
CHEMBL96763

> <chembl_pref_name>
None

> <i_lp_mmshare_version>
53161

> <i_f3d_flags>
0

> <r_lp_tautomer_probability>
1

> <s_lp_Force_Field>
OPLS_2005

> <r_lp_Energy>
60.261803

> <b_lp_Chiralities_Consistent>
1

> <s_lp_Variant>
CHEMBL260_lig89-1

> <s_i_glide_gridfile>
glide-grid_2qd9

> <i_i_glide_lignum>
105

> <i_i_glide_rotatable_bonds>
3

> <r_i_docking_score>
-9.45427685267822

> <r_i_glide_ligand_efficiency>
-0.295446151646194

> <r_i_glide_ligand_efficiency_sa>
-0.93798306276265

> <r_i_glide_ligand_efficiency_ln>
-2.11707030116828

> <r_i_glide_gscore>
-9.45427685267822

> <r_i_glide_lipo>
-4.25554618486657

> <r_i_glide_hbond>
-0.548240991414386

> <r_i_glide_metal>
0

> <r_i_glide_rewards>
-1.70570288940629

> <r_i_glide_evdw>
-39.7066116333008

> <r_i_glide_ecoul>
-7.59703779220581

> <r_i_glide_erotb>
0.18009946350493

> <r_i_glide_esite>
0

> <r_i_glide_emodel>
-73.1955815051221

> <r_i_glide_energy>
-47.3036494255066

> <r_i_glide_einternal>
2.27209186553955

> <i_i_glide_confnum>
3

> <i_i_glide_posenum>
111

> <r_i_glide_eff_state_penalty>
0

> <s_user_duplicate_titles>
CHEMBL260_lig89,154254

> <s_m_subgroup_title>
dock_pv

> <s_m_subgroupid>
dock_pv

> <b_m_subgroup_collapsed>
1

$$$$
CHEMBL260_lig1042
                    3D
 Schrodinger Suite 2021-1.
 47 51  0  0  1  0            999 V2000
   -1.8037   -1.5536   21.0372 C   0  0  0  0  0  0
   -1.7138   -1.1468   22.4612 N   0  0  0  0  0  0
   -1.7214    0.3060   22.7866 C   0  0  0  0  0  0
   -3.0489   -0.8680   20.4265 C   0  0  0  0  0  0
   -3.2350    1.6085   19.7314 C   0  0  0  0  0  0
   -2.8419    0.5685   20.5457 N   0  0  0  0  0  0
   -2.3102    1.1501   21.6664 C   0  0  0  0  0  0
   -2.4350    2.5090   21.4230 C   0  0  0  0  0  0
   -2.9179    2.7799   20.2260 N   0  0  0  0  0  0
   -1.5876   -2.0990   23.4273 C   0  0  0  0  0  0
   -1.6352   -3.3081   23.1994 O   0  0  0  0  0  0
   -3.9664    1.4089   18.4570 C   0  0  0  0  0  0
   -5.2575    0.8868   18.5314 C   0  0  0  0  0  0
   -5.9628    0.6078   17.3717 C   0  0  0  0  0  0
   -5.3914    0.8304   16.1254 C   0  0  0  0  0  0
   -4.1248    1.3968   16.0379 C   0  0  0  0  0  0
   -3.4122    1.6870   17.1983 C   0  0  0  0  0  0
   -6.0350    0.4311   15.0125 F   0  0  0  0  0  0
   -5.8245    0.5932   19.7234 F   0  0  0  0  0  0
   -1.3626   -1.6531   24.8519 C   0  0  0  0  0  0
   -2.3900   -1.8567   25.7799 C   0  0  0  0  0  0
    0.0674   -0.6773   26.5802 C   0  0  0  0  0  0
   -0.1363   -1.0982   25.2649 C   0  0  0  0  0  0
    1.1981   -0.9069   24.1737 Cl  0  0  0  0  0  0
   -1.0622   -0.5782   28.8468 N   0  0  0  0  0  0
   -0.9703   -0.8757   27.4962 C   0  0  0  0  0  0
   -2.2017   -1.4845   27.1162 C   0  0  0  0  0  0
   -3.0004   -1.5846   28.2972 C   0  0  0  0  0  0
   -2.2680   -1.0355   29.3257 C   0  0  0  0  0  0
   -0.0176    0.0203   29.6596 C   0  0  0  0  0  0
   -0.9012   -1.2098   20.5281 H   0  0  0  0  0  0
   -1.8803   -2.6352   20.9053 H   0  0  0  0  0  0
   -2.2229    0.5196   23.7327 H   0  0  0  0  0  0
   -0.7012    0.6395   22.9775 H   0  0  0  0  0  0
   -3.1774   -1.1442   19.3819 H   0  0  0  0  0  0
   -3.9492   -1.1290   20.9816 H   0  0  0  0  0  0
   -2.0899    3.2869   22.0863 H   0  0  0  0  0  0
   -6.8910    0.0875   17.4759 H   0  0  0  0  0  0
   -3.6753    1.5792   15.0758 H   0  0  0  0  0  0
   -2.4350    2.1187   17.0767 H   0  0  0  0  0  0
   -3.3188   -2.3130   25.4782 H   0  0  0  0  0  0
    1.0100   -0.2389   26.8793 H   0  0  0  0  0  0
   -3.9845   -2.0187   28.3959 H   0  0  0  0  0  0
   -2.5035   -0.9332   30.3759 H   0  0  0  0  0  0
    0.7649   -0.7167   29.8207 H   0  0  0  0  0  0
    0.4026    0.8825   29.1416 H   0  0  0  0  0  0
   -0.4171    0.3440   30.6210 H   0  0  0  0  0  0
  1  2  1  0  0  0
  1  4  1  0  0  0
  1 31  1  0  0  0
  1 32  1  0  0  0
  2  3  1  0  0  0
  2 10  1  0  0  0
  3  7  1  0  0  0
  3 33  1  0  0  0
  3 34  1  0  0  0
  4  6  1  0  0  0
  4 35  1  0  0  0
  4 36  1  0  0  0
  5  6  1  0  0  0
  5  9  2  0  0  0
  5 12  1  0  0  0
  6  7  1  0  0  0
  7  8  2  0  0  0
  8  9  1  0  0  0
  8 37  1  0  0  0
 10 20  1  0  0  0
 10 11  2  0  0  0
 12 17  1  0  0  0
 12 13  2  0  0  0
 13 19  1  0  0  0
 13 14  1  0  0  0
 14 15  2  0  0  0
 14 38  1  0  0  0
 15 16  1  0  0  0
 15 18  1  0  0  0
 16 17  2  0  0  0
 16 39  1  0  0  0
 17 40  1  0  0  0
 20 21  2  0  0  0
 20 23  1  0  0  0
 21 27  1  0  0  0
 21 41  1  0  0  0
 22 26  1  0  0  0
 22 23  2  0  0  0
 22 42  1  0  0  0
 23 24  1  0  0  0
 25 26  1  0  0  0
 25 29  1  0  0  0
 25 30  1  0  0  0
 26 27  2  0  0  0
 27 28  1  0  0  0
 28 29  2  0  0  0
 28 43  1  0  0  0
 29 44  1  0  0  0
 30 45  1  0  0  0
 30 46  1  0  0  0
 30 47  1  0  0  0
M  END
> <s_m_entry_id>
60792

> <s_m_entry_name>
dock_pv.69

> <s_m_Source_Path>
/home/csk/Desktop/cluster/DUD-E-result/mk14

> <s_m_Source_File>
dock_pv.maegz

> <i_m_Source_File_Index>
69

> <chembl_id>
CHEMBL243097

> <chembl_pref_name>
None

> <i_lp_mmshare_version>
53161

> <i_f3d_flags>
0

> <r_lp_tautomer_probability>
1

> <s_lp_Force_Field>
OPLS_2005

> <r_lp_Energy>
37.296044

> <b_lp_Chiralities_Consistent>
1

> <s_lp_Variant>
CHEMBL260_lig1042-1

> <s_i_glide_gridfile>
glide-grid_2qd9

> <i_i_glide_lignum>
1169

> <i_i_glide_rotatable_bonds>
3

> <r_i_docking_score>
-9.44782205921077

> <r_i_glide_ligand_efficiency>
-0.314927401973692

> <r_i_glide_ligand_efficiency_sa>
-0.978552659318837

> <r_i_glide_ligand_efficiency_ln>
-2.14664811411905

> <r_i_glide_gscore>
-9.44782205921077

> <r_i_glide_lipo>
-3.65723169654128

> <r_i_glide_hbond>
-0.571008582701405

> <r_i_glide_metal>
0

> <r_i_glide_rewards>
-2.39180212667211

> <r_i_glide_evdw>
-41.5400772094727

> <r_i_glide_ecoul>
-7.18409061431885

> <r_i_glide_erotb>
0.326837799325486

> <r_i_glide_esite>
0

> <r_i_glide_emodel>
-67.358344197296

> <r_i_glide_energy>
-48.7241678237915

> <r_i_glide_einternal>
5.57121896743774

> <i_i_glide_confnum>
59

> <i_i_glide_posenum>
160

> <r_i_glide_eff_state_penalty>
0

> <s_user_duplicate_titles>
CHEMBL260_lig1042,386130

> <s_m_subgroup_title>
dock_pv

> <s_m_subgroupid>
dock_pv

> <b_m_subgroup_collapsed>
1

$$$$
CHEMBL260_lig1044
                    3D
 Schrodinger Suite 2021-1.
 40 43  0  0  1  0            999 V2000
   -1.8894   -1.5986   21.1793 C   0  0  0  0  0  0
   -1.7724   -1.1111   22.5761 N   0  0  0  0  0  0
   -1.6857    0.3543   22.8040 C   0  0  0  0  0  0
   -3.1016   -0.9015   20.5142 C   0  0  0  0  0  0
   -3.2474    1.5478   19.7271 C   0  0  0  0  0  0
   -2.8608    0.5333   20.5767 N   0  0  0  0  0  0
   -2.3035    1.1529   21.6674 C   0  0  0  0  0  0
   -2.4305    2.5027   21.3811 C   0  0  0  0  0  0
   -2.9320    2.7348   20.1847 N   0  0  0  0  0  0
   -1.7842   -1.9947   23.6127 C   0  0  0  0  0  0
   -2.0307   -3.1944   23.4767 O   0  0  0  0  0  0
   -1.4220   -1.4921   24.9882 C   0  0  0  0  0  0
   -3.9902    1.3294   18.4599 C   0  0  0  0  0  0
   -5.3141    0.8870   18.5183 C   0  0  0  0  0  0
   -6.0278    0.6549   17.3504 C   0  0  0  0  0  0
   -5.4050    0.8111   16.1142 C   0  0  0  0  0  0
   -4.1001    1.2871   16.0416 C   0  0  0  0  0  0
   -3.3956    1.5569   17.2112 C   0  0  0  0  0  0
   -6.0348    0.4336   14.9880 F   0  0  0  0  0  0
   -5.9140    0.6603   19.7067 F   0  0  0  0  0  0
   -2.3659   -1.4973   26.0264 C   0  0  0  0  0  0
   -2.0104   -1.0576   27.3016 C   0  0  0  0  0  0
   -0.7175   -0.6045   27.5542 C   0  0  0  0  0  0
    0.2234   -0.5889   26.5276 C   0  0  0  0  0  0
   -0.1193   -1.0359   25.2517 C   0  0  0  0  0  0
    0.8262   -1.0286   24.2827 F   0  0  0  0  0  0
   -3.6349   -1.9129   25.8134 F   0  0  0  0  0  0
   -0.9723   -1.3223   20.6562 H   0  0  0  0  0  0
   -1.9974   -2.6833   21.1130 H   0  0  0  0  0  0
   -2.1265    0.6548   23.7564 H   0  0  0  0  0  0
   -0.6411    0.6430   22.9280 H   0  0  0  0  0  0
   -3.2237   -1.2171   19.4779 H   0  0  0  0  0  0
   -4.0188   -1.1118   21.0631 H   0  0  0  0  0  0
   -2.0797    3.3035   22.0112 H   0  0  0  0  0  0
   -7.0239    0.2526   17.4382 H   0  0  0  0  0  0
   -3.6269    1.4171   15.0792 H   0  0  0  0  0  0
   -2.3841    1.9189   17.1211 H   0  0  0  0  0  0
   -2.7387   -1.0732   28.0982 H   0  0  0  0  0  0
   -0.4401   -0.2711   28.5434 H   0  0  0  0  0  0
    1.2291   -0.2468   26.7239 H   0  0  0  0  0  0
  1  4  1  0  0  0
  1  2  1  0  0  0
  1 28  1  0  0  0
  1 29  1  0  0  0
  2  3  1  0  0  0
  2 10  1  0  0  0
  3  7  1  0  0  0
  3 30  1  0  0  0
  3 31  1  0  0  0
  4  6  1  0  0  0
  4 32  1  0  0  0
  4 33  1  0  0  0
  5 13  1  0  0  0
  5  6  1  0  0  0
  5  9  2  0  0  0
  6  7  1  0  0  0
  7  8  2  0  0  0
  8  9  1  0  0  0
  8 34  1  0  0  0
 10 11  2  0  0  0
 10 12  1  0  0  0
 12 21  2  0  0  0
 12 25  1  0  0  0
 13 14  2  0  0  0
 13 18  1  0  0  0
 14 15  1  0  0  0
 14 20  1  0  0  0
 15 16  2  0  0  0
 15 35  1  0  0  0
 16 17  1  0  0  0
 16 19  1  0  0  0
 17 18  2  0  0  0
 17 36  1  0  0  0
 18 37  1  0  0  0
 21 22  1  0  0  0
 21 27  1  0  0  0
 22 23  2  0  0  0
 22 38  1  0  0  0
 23 24  1  0  0  0
 23 39  1  0  0  0
 24 25  2  0  0  0
 24 40  1  0  0  0
 25 26  1  0  0  0
M  END
> <s_m_entry_id>
60793

> <s_m_entry_name>
dock_pv.70

> <s_m_Source_Path>
/home/csk/Desktop/cluster/DUD-E-result/mk14

> <s_m_Source_File>
dock_pv.maegz

> <i_m_Source_File_Index>
70

> <chembl_id>
CHEMBL395030

> <chembl_pref_name>
None

> <i_lp_mmshare_version>
53161

> <i_f3d_flags>
0

> <r_lp_tautomer_probability>
1

> <s_lp_Force_Field>
OPLS_2005

> <r_lp_Energy>
38.938107

> <b_lp_Chiralities_Consistent>
1

> <s_lp_Variant>
CHEMBL260_lig1044-1

> <s_i_glide_gridfile>
glide-grid_2qd9

> <i_i_glide_lignum>
1171

> <i_i_glide_rotatable_bonds>
3

> <r_i_docking_score>
-9.43733248916386

> <r_i_glide_ligand_efficiency>
-0.349530832931995

> <r_i_glide_ligand_efficiency_sa>
-1.04859249764399

> <r_i_glide_ligand_efficiency_ln>
-2.19685541689151

> <r_i_glide_gscore>
-9.43733248916386

> <r_i_glide_lipo>
-3.54863026800007

> <r_i_glide_hbond>
-0.568746810667501

> <r_i_glide_metal>
0

> <r_i_glide_rewards>
-2.73971548014609

> <r_i_glide_evdw>
-39.4652786254883

> <r_i_glide_ecoul>
-6.79319286346436

> <r_i_glide_erotb>
0.412002930443873

> <r_i_glide_esite>
0

> <r_i_glide_emodel>
-67.0469237139544

> <r_i_glide_energy>
-46.2584714889526

> <r_i_glide_einternal>
5.31527423858643

> <i_i_glide_confnum>
47

> <i_i_glide_posenum>
338

> <r_i_glide_eff_state_penalty>
0

> <s_user_duplicate_titles>
CHEMBL260_lig1044,386125

> <s_m_subgroup_title>
dock_pv

> <s_m_subgroupid>
dock_pv

> <b_m_subgroup_collapsed>
1

$$$$
CHEMBL260_lig1050
                    3D
 Schrodinger Suite 2021-1.
 44 48  0  0  1  0            999 V2000
   -1.6219   -1.6909   20.9042 C   0  0  0  0  0  0
   -1.6469   -1.2206   22.3117 N   0  0  0  0  0  0
   -1.5887    0.2464   22.5449 C   0  0  0  0  0  0
   -2.8345   -1.1126   20.1290 C   0  0  0  0  0  0
   -3.2622    1.3870   19.4795 N   0  0  0  0  0  0
   -2.8554    0.3881   20.3399 C   0  0  0  0  0  0
   -2.2626    1.0192   21.4179 C   0  0  0  0  0  0
   -2.4350    2.3794   21.1464 C   0  0  0  0  0  0
   -3.0237    2.6048   19.9931 N   0  0  0  0  0  0
   -1.8067   -2.1168   23.3253 C   0  0  0  0  0  0
   -2.0350   -3.3136   23.1357 O   0  0  0  0  0  0
   -3.8729    1.2871   18.2133 C   0  0  0  0  0  0
   -5.2125    0.8939   18.0982 C   0  0  0  0  0  0
   -5.8149    0.8827   16.8423 C   0  0  0  0  0  0
   -5.1050    1.2260   15.6972 C   0  0  0  0  0  0
   -3.7755    1.6140   15.8077 C   0  0  0  0  0  0
   -3.1651    1.6568   17.0564 C   0  0  0  0  0  0
   -6.1716    0.4871   19.4760 Cl  0  0  0  0  0  0
   -1.6443   -1.6468   24.7518 C   0  0  0  0  0  0
   -2.6810   -1.8606   25.6659 C   0  0  0  0  0  0
   -2.5630   -1.4981   27.0063 C   0  0  0  0  0  0
   -0.4402   -1.0507   25.1597 C   0  0  0  0  0  0
    0.7092   -0.0812   27.1961 N   0  0  0  0  0  0
   -0.3261   -0.6782   26.5034 C   0  0  0  0  0  0
   -1.3755   -0.8972   27.4457 C   0  0  0  0  0  0
   -0.9098   -0.4114   28.7107 C   0  0  0  0  0  0
    0.3663    0.0750   28.5156 C   0  0  0  0  0  0
   -0.7004   -1.3186   20.4538 H   0  0  0  0  0  0
   -1.5576   -2.7772   20.8149 H   0  0  0  0  0  0
   -0.5529    0.5611   22.6761 H   0  0  0  0  0  0
   -2.0406    0.5318   23.4959 H   0  0  0  0  0  0
   -3.7561   -1.5701   20.4828 H   0  0  0  0  0  0
   -2.7536   -1.3690   19.0760 H   0  0  0  0  0  0
   -2.0924    3.1890   21.7732 H   0  0  0  0  0  0
   -6.8350    0.5642   16.7550 H   0  0  0  0  0  0
   -5.5833    1.1886   14.7298 H   0  0  0  0  0  0
   -3.2140    1.8860   14.9270 H   0  0  0  0  0  0
   -2.1359    1.9809   17.0760 H   0  0  0  0  0  0
   -3.6047   -2.3133   25.3368 H   0  0  0  0  0  0
   -3.3728   -1.6795   27.6970 H   0  0  0  0  0  0
    0.3777   -0.9006   24.4690 H   0  0  0  0  0  0
    1.6104    0.2042   26.8383 H   0  0  0  0  0  0
   -1.4329   -0.4264   29.6551 H   0  0  0  0  0  0
    1.0775    0.5106   29.2063 H   0  0  0  0  0  0
  1  4  1  0  0  0
  1  2  1  0  0  0
  1 28  1  0  0  0
  1 29  1  0  0  0
  2  3  1  0  0  0
  2 10  1  0  0  0
  3  7  1  0  0  0
  3 30  1  0  0  0
  3 31  1  0  0  0
  4  6  1  0  0  0
  4 32  1  0  0  0
  4 33  1  0  0  0
  5  6  1  0  0  0
  5  9  1  0  0  0
  5 12  1  0  0  0
  6  7  2  0  0  0
  7  8  1  0  0  0
  8  9  2  0  0  0
  8 34  1  0  0  0
 10 19  1  0  0  0
 10 11  2  0  0  0
 12 13  2  0  0  0
 12 17  1  0  0  0
 13 14  1  0  0  0
 13 18  1  0  0  0
 14 15  2  0  0  0
 14 35  1  0  0  0
 15 16  1  0  0  0
 15 36  1  0  0  0
 16 17  2  0  0  0
 16 37  1  0  0  0
 17 38  1  0  0  0
 19 20  2  0  0  0
 19 22  1  0  0  0
 20 21  1  0  0  0
 20 39  1  0  0  0
 21 25  2  0  0  0
 21 40  1  0  0  0
 22 24  2  0  0  0
 22 41  1  0  0  0
 23 24  1  0  0  0
 23 27  1  0  0  0
 23 42  1  0  0  0
 24 25  1  0  0  0
 25 26  1  0  0  0
 26 27  2  0  0  0
 26 43  1  0  0  0
 27 44  1  0  0  0
M  END
> <s_m_entry_id>
60794

> <s_m_entry_name>
dock_pv.71

> <s_m_Source_Path>
/home/csk/Desktop/cluster/DUD-E-result/mk14

> <s_m_Source_File>
dock_pv.maegz

> <i_m_Source_File_Index>
71

> <chembl_id>
CHEMBL242908

> <chembl_pref_name>
None

> <i_lp_mmshare_version>
53161

> <i_f3d_flags>
0

> <r_lp_tautomer_probability>
1

> <s_lp_Force_Field>
OPLS_2005

> <r_lp_Energy>
37.821173

> <b_lp_Chiralities_Consistent>
1

> <s_lp_Variant>
CHEMBL260_lig1050-1

> <s_i_glide_gridfile>
glide-grid_2qd9

> <i_i_glide_lignum>
1177

> <i_i_glide_rotatable_bonds>
3

> <r_i_docking_score>
-9.40317210093587

> <r_i_glide_ligand_efficiency>
-0.348265633367995

> <r_i_glide_ligand_efficiency_sa>
-1.04479689895616

> <r_i_glide_ligand_efficiency_ln>
-2.18890344169005

> <r_i_glide_gscore>
-9.40317210093587

> <r_i_glide_lipo>
-4.03806917200622

> <r_i_glide_hbond>
-0.515506174554573

> <r_i_glide_metal>
0

> <r_i_glide_rewards>
-1.81932198755682

> <r_i_glide_evdw>
-46.3895378112793

> <r_i_glide_ecoul>
-7.46555328369141

> <r_i_glide_erotb>
0.40903511629941

> <r_i_glide_esite>
0

> <r_i_glide_emodel>
-79.8524821813461

> <r_i_glide_energy>
-53.8550910949707

> <r_i_glide_einternal>
5.60791873931885

> <i_i_glide_confnum>
32

> <i_i_glide_posenum>
64

> <r_i_glide_eff_state_penalty>
0

> <s_user_duplicate_titles>
CHEMBL260_lig1050,386110

> <s_m_subgroup_title>
dock_pv

> <s_m_subgroupid>
dock_pv

> <b_m_subgroup_collapsed>
1

$$$$
CHEMBL260_lig1030
                    3D
 Schrodinger Suite 2021-1.
 40 43  0  0  1  0            999 V2000
   -1.8118   -1.5948   20.9695 C   0  0  0  0  0  0
   -1.7437   -1.0574   22.3528 N   0  0  0  0  0  0
   -1.6351    0.4154   22.5255 C   0  0  0  0  0  0
   -3.0166   -0.9870   20.2067 C   0  0  0  0  0  0
   -3.3647    1.4910   19.4692 N   0  0  0  0  0  0
   -2.9740    0.5180   20.3638 C   0  0  0  0  0  0
   -2.3177    1.1678   21.3893 C   0  0  0  0  0  0
   -2.4350    2.5203   21.0544 C   0  0  0  0  0  0
   -3.0485    2.7200   19.9068 N   0  0  0  0  0  0
   -1.7850   -1.9131   23.4128 C   0  0  0  0  0  0
   -2.0350   -3.1151   23.3022 O   0  0  0  0  0  0
   -1.4435   -1.3892   24.7866 C   0  0  0  0  0  0
   -3.9698    1.3265   18.2080 C   0  0  0  0  0  0
   -5.2955    0.8870   18.1021 C   0  0  0  0  0  0
   -5.8491    0.6651   16.8476 C   0  0  0  0  0  0
   -5.1001    0.8446   15.6978 C   0  0  0  0  0  0
   -3.7989    1.3318   15.7865 C   0  0  0  0  0  0
   -3.2350    1.5841   17.0383 C   0  0  0  0  0  0
   -5.6350    0.4870   14.5138 F   0  0  0  0  0  0
   -6.2727    0.5317   19.4760 Cl  0  0  0  0  0  0
   -2.3830   -1.4467   25.8275 C   0  0  0  0  0  0
   -2.0420   -1.0120   27.1084 C   0  0  0  0  0  0
   -0.7662   -0.5152   27.3664 C   0  0  0  0  0  0
    0.1722   -0.4518   26.3394 C   0  0  0  0  0  0
   -0.1559   -0.8939   25.0581 C   0  0  0  0  0  0
    0.7943   -0.8507   24.0933 F   0  0  0  0  0  0
   -3.6347   -1.9129   25.6144 F   0  0  0  0  0  0
   -0.8901   -1.3058   20.4617 H   0  0  0  0  0  0
   -1.8431   -2.6855   20.9323 H   0  0  0  0  0  0
   -0.5861    0.7022   22.6018 H   0  0  0  0  0  0
   -2.0391    0.7475   23.4830 H   0  0  0  0  0  0
   -3.9508   -1.3919   20.5914 H   0  0  0  0  0  0
   -2.9673   -1.2768   19.1579 H   0  0  0  0  0  0
   -2.0271    3.3373   21.6289 H   0  0  0  0  0  0
   -6.8350    0.2495   16.7685 H   0  0  0  0  0  0
   -3.2215    1.4840   14.8868 H   0  0  0  0  0  0
   -2.2180    1.9436   17.0760 H   0  0  0  0  0  0
   -2.7690   -1.0658   27.9052 H   0  0  0  0  0  0
   -0.5014   -0.1854   28.3608 H   0  0  0  0  0  0
    1.1650   -0.0760   26.5411 H   0  0  0  0  0  0
  1  4  1  0  0  0
  1  2  1  0  0  0
  1 28  1  0  0  0
  1 29  1  0  0  0
  2  3  1  0  0  0
  2 10  1  0  0  0
  3  7  1  0  0  0
  3 30  1  0  0  0
  3 31  1  0  0  0
  4  6  1  0  0  0
  4 32  1  0  0  0
  4 33  1  0  0  0
  5 13  1  0  0  0
  5  6  1  0  0  0
  5  9  1  0  0  0
  6  7  2  0  0  0
  7  8  1  0  0  0
  8  9  2  0  0  0
  8 34  1  0  0  0
 10 11  2  0  0  0
 10 12  1  0  0  0
 12 21  2  0  0  0
 12 25  1  0  0  0
 13 14  2  0  0  0
 13 18  1  0  0  0
 14 15  1  0  0  0
 14 20  1  0  0  0
 15 16  2  0  0  0
 15 35  1  0  0  0
 16 17  1  0  0  0
 16 19  1  0  0  0
 17 18  2  0  0  0
 17 36  1  0  0  0
 18 37  1  0  0  0
 21 22  1  0  0  0
 21 27  1  0  0  0
 22 23  2  0  0  0
 22 38  1  0  0  0
 23 24  1  0  0  0
 23 39  1  0  0  0
 24 25  2  0  0  0
 24 40  1  0  0  0
 25 26  1  0  0  0
M  END
> <s_m_entry_id>
60795

> <s_m_entry_name>
dock_pv.72

> <s_m_Source_Path>
/home/csk/Desktop/cluster/DUD-E-result/mk14

> <s_m_Source_File>
dock_pv.maegz

> <i_m_Source_File_Index>
72

> <chembl_id>
CHEMBL390447

> <chembl_pref_name>
None

> <i_lp_mmshare_version>
53161

> <i_f3d_flags>
0

> <r_lp_tautomer_probability>
1

> <s_lp_Force_Field>
OPLS_2005

> <r_lp_Energy>
37.994122

> <b_lp_Chiralities_Consistent>
1

> <s_lp_Variant>
CHEMBL260_lig1030-1

> <s_i_glide_gridfile>
glide-grid_2qd9

> <i_i_glide_lignum>
1155

> <i_i_glide_rotatable_bonds>
3

> <r_i_docking_score>
-9.4029955722241

> <r_i_glide_ligand_efficiency>
-0.348259095267559

> <r_i_glide_ligand_efficiency_sa>
-1.04477728465487

> <r_i_glide_ligand_efficiency_ln>
-2.18886234871625

> <r_i_glide_gscore>
-9.4029955722241

> <r_i_glide_lipo>
-4.0410192207847

> <r_i_glide_hbond>
-0.47808713942729

> <r_i_glide_metal>
0

> <r_i_glide_rewards>
-2.24538139987433

> <r_i_glide_evdw>
-42.800350189209

> <r_i_glide_ecoul>
-5.86655378341675

> <r_i_glide_erotb>
0.381492764835181

> <r_i_glide_esite>
0

> <r_i_glide_emodel>
-68.1994832933204

> <r_i_glide_energy>
-48.6669039726257

> <r_i_glide_einternal>
5.28102254867554

> <i_i_glide_confnum>
25

> <i_i_glide_posenum>
203

> <r_i_glide_eff_state_penalty>
0

> <s_user_duplicate_titles>
CHEMBL260_lig1030,386103

> <s_m_subgroup_title>
dock_pv

> <s_m_subgroupid>
dock_pv

> <b_m_subgroup_collapsed>
1

$$$$
CHEMBL260_lig885
                    3D
 Schrodinger Suite 2021-1.
 52 56  0  0  1  0            999 V2000
   -0.6253    3.1279   26.2662 O   0  0  0  0  0  0
    0.3228    3.4832   25.2584 C   0  0  0  0  0  0
   -0.1900    3.0306   23.8748 C   0  0  0  0  0  0
   -1.5225    3.5905   23.6515 N   0  0  0  0  0  0
   -2.4775    3.2261   24.7016 C   0  0  0  0  0  0
   -1.9177    3.6963   26.0597 C   0  0  0  0  0  0
   -1.9438   -1.0271   26.4229 C   0  0  0  0  0  0
   -2.3626   -1.1952   25.1026 C   0  0  0  0  0  0
   -1.4415   -1.0751   24.0458 C   0  0  0  0  0  0
   -0.1106   -0.7115   24.3372 C   0  0  0  0  0  0
    0.2927   -0.5457   25.6626 C   0  0  0  0  0  0
   -0.6160   -0.7138   26.7040 C   0  0  0  0  0  0
    1.0437   -0.3753   23.0929 Cl  0  0  0  0  0  0
   -4.0341   -1.5130   24.8045 Cl  0  0  0  0  0  0
   -1.8705   -1.2750   22.6925 N   0  0  0  0  0  0
   -1.8812   -2.5517   22.2338 C   0  0  0  0  0  0
   -2.2258   -2.7201   20.9325 N   0  0  0  0  0  0
   -2.8346   -1.7115   20.0484 C   0  0  0  0  0  0
   -2.2942   -0.1736   21.9314 C   0  0  0  0  0  0
   -2.7720   -0.3184   20.6225 C   0  0  0  0  0  0
   -3.1521    0.8606   19.9526 C   0  0  0  0  0  0
   -2.9303    2.0850   20.5070 N   0  0  0  0  0  0
   -2.4336    2.0828   21.7682 C   0  0  0  0  0  0
   -2.1782    1.0211   22.5227 N   0  0  0  0  0  0
   -3.8313    0.8884   18.6238 C   0  0  0  0  0  0
   -3.0996    0.9591   17.4363 C   0  0  0  0  0  0
   -3.7041    1.0563   16.1842 C   0  0  0  0  0  0
   -5.0886    1.0282   16.0940 C   0  0  0  0  0  0
   -5.8337    0.8871   17.2581 C   0  0  0  0  0  0
   -5.2231    0.8232   18.5078 C   0  0  0  0  0  0
   -6.2208    0.5296   19.8756 Cl  0  0  0  0  0  0
   -1.6351   -3.5130   22.9429 O   0  0  0  0  0  0
   -2.0350    3.2870   22.3071 N   0  0  0  0  0  0
    0.5167    4.5570   25.2776 H   0  0  0  0  0  0
    1.2697    2.9911   25.4844 H   0  0  0  0  0  0
   -0.2178    1.9458   23.8375 H   0  0  0  0  0  0
    0.4909    3.3630   23.0905 H   0  0  0  0  0  0
   -3.4463    3.6849   24.5068 H   0  0  0  0  0  0
   -2.6339    2.1479   24.7335 H   0  0  0  0  0  0
   -1.8704    4.7859   26.1170 H   0  0  0  0  0  0
   -2.5749    3.3696   26.8660 H   0  0  0  0  0  0
   -2.6507   -1.1299   27.2334 H   0  0  0  0  0  0
    1.3128   -0.2695   25.8873 H   0  0  0  0  0  0
   -0.2927   -0.5813   27.7266 H   0  0  0  0  0  0
   -2.2560   -3.6773   20.6046 H   0  0  0  0  0  0
   -3.8756   -1.9631   19.8760 H   0  0  0  0  0  0
   -2.3382   -1.7375   19.0781 H   0  0  0  0  0  0
   -2.0350    0.8896   17.4754 H   0  0  0  0  0  0
   -3.1010    1.1167   15.2893 H   0  0  0  0  0  0
   -5.5778    1.0743   15.1313 H   0  0  0  0  0  0
   -6.8945    0.8028   17.2003 H   0  0  0  0  0  0
   -1.9850    4.0871   21.7025 H   0  0  0  0  0  0
  1  6  1  0  0  0
  1  2  1  0  0  0
  2  3  1  0  0  0
  2 34  1  0  0  0
  2 35  1  0  0  0
  3  4  1  0  0  0
  3 36  1  0  0  0
  3 37  1  0  0  0
  4  5  1  0  0  0
  4 33  1  0  0  0
  5  6  1  0  0  0
  5 38  1  0  0  0
  5 39  1  0  0  0
  6 40  1  0  0  0
  6 41  1  0  0  0
  7 12  1  0  0  0
  7  8  2  0  0  0
  7 42  1  0  0  0
  8  9  1  0  0  0
  8 14  1  0  0  0
  9 10  2  0  0  0
  9 15  1  0  0  0
 10 11  1  0  0  0
 10 13  1  0  0  0
 11 12  2  0  0  0
 11 43  1  0  0  0
 12 44  1  0  0  0
 15 19  1  0  0  0
 15 16  1  0  0  0
 16 17  1  0  0  0
 16 32  2  0  0  0
 17 18  1  0  0  0
 17 45  1  0  0  0
 18 20  1  0  0  0
 18 46  1  0  0  0
 18 47  1  0  0  0
 19 20  2  0  0  0
 19 24  1  0  0  0
 20 21  1  0  0  0
 21 22  2  0  0  0
 21 25  1  0  0  0
 22 23  1  0  0  0
 23 24  2  0  0  0
 23 33  1  0  0  0
 25 26  2  0  0  0
 25 30  1  0  0  0
 26 27  1  0  0  0
 26 48  1  0  0  0
 27 28  2  0  0  0
 27 49  1  0  0  0
 28 29  1  0  0  0
 28 50  1  0  0  0
 29 30  2  0  0  0
 29 51  1  0  0  0
 30 31  1  0  0  0
 33 52  1  0  0  0
M  END
> <s_m_entry_id>
60797

> <s_m_entry_name>
dock_pv.74

> <s_m_Source_Path>
/home/csk/Desktop/cluster/DUD-E-result/mk14

> <s_m_Source_File>
dock_pv.maegz

> <i_m_Source_File_Index>
74

> <chembl_id>
CHEMBL215651

> <chembl_pref_name>
None

> <i_lp_mmshare_version>
53161

> <i_f3d_flags>
0

> <r_lp_tautomer_probability>
1

> <s_lp_Force_Field>
OPLS_2005

> <r_lp_Energy>
50.444621

> <b_lp_Chiralities_Consistent>
1

> <s_lp_Variant>
CHEMBL260_lig885-1

> <s_i_glide_gridfile>
glide-grid_2qd9

> <i_i_glide_lignum>
985

> <i_i_glide_rotatable_bonds>
4

> <r_i_docking_score>
-9.38899390178075

> <r_i_glide_ligand_efficiency>
-0.284514966720629

> <r_i_glide_ligand_efficiency_sa>
-0.912591522090409

> <r_i_glide_ligand_efficiency_ln>
-2.08806363014736

> <r_i_glide_gscore>
-9.38899390178075

> <r_i_glide_lipo>
-3.9505366967502

> <r_i_glide_hbond>
-0.733368816439251

> <r_i_glide_metal>
0

> <r_i_glide_rewards>
-1.56799322532942

> <r_i_glide_evdw>
-41.9534645080566

> <r_i_glide_ecoul>
-8.16792869567871

> <r_i_glide_erotb>
0.223893888368131

> <r_i_glide_esite>
-0.0381265218753643

> <r_i_glide_emodel>
-64.3475894530099

> <r_i_glide_energy>
-50.1213932037354

> <r_i_glide_einternal>
14.7078895568848

> <i_i_glide_confnum>
14

> <i_i_glide_posenum>
78

> <r_i_glide_eff_state_penalty>
0

> <s_user_duplicate_titles>
CHEMBL260_lig885,355673

> <s_m_subgroup_title>
dock_pv

> <s_m_subgroupid>
dock_pv

> <b_m_subgroup_collapsed>
1

$$$$
CHEMBL260_lig102
                    3D
 Schrodinger Suite 2021-1.
 55 59  0  0  1  0            999 V2000
   -1.8561   -1.2099   22.5876 N   0  0  0  0  0  0
   -2.1949    0.0526   22.0229 C   0  0  0  0  0  0
   -2.8015    0.1431   20.7582 C   0  0  0  0  0  0
   -3.1207    1.4080   20.1932 C   0  0  0  0  0  0
   -1.9685   -2.4161   21.9551 C   0  0  0  0  0  0
   -1.4181   -1.2367   23.9474 C   0  0  0  0  0  0
   -2.0349    2.4679   22.1366 C   0  0  0  0  0  0
   -1.3873    3.6095   22.8978 C   0  0  0  0  0  0
   -3.8387    1.4910   18.8523 C   0  0  0  0  0  0
   -2.4782   -2.3636   20.7037 N   0  0  0  0  0  0
   -1.8565    1.2200   22.6936 C   0  0  0  0  0  0
   -2.6448    2.5598   20.8652 C   0  0  0  0  0  0
   -1.8220    3.8783   24.1643 N   0  0  0  0  0  0
   -5.1207    0.9599   18.6121 C   0  0  0  0  0  0
   -2.9904   -1.1701   20.0058 C   0  0  0  0  0  0
   -5.6590    0.8869   17.3287 C   0  0  0  0  0  0
   -3.2351    2.0817   17.7354 C   0  0  0  0  0  0
   -2.3515   -1.3795   24.9892 C   0  0  0  0  0  0
   -0.0720   -0.9806   24.2789 C   0  0  0  0  0  0
   -1.6743   -3.5128   22.4315 O   0  0  0  0  0  0
   -0.4349    4.2016   22.3813 O   0  0  0  0  0  0
   -1.7770    3.4536   26.9818 N   0  0  0  0  0  0
   -4.9159    1.2858   16.2326 C   0  0  0  0  0  0
   -6.1582    0.4870   19.8761 Cl  0  0  0  0  0  0
   -3.6968    1.9126   16.4285 C   0  0  0  0  0  0
   -4.0357   -1.5129   24.6598 Cl  0  0  0  0  0  0
    1.1027   -0.5893   23.0778 Cl  0  0  0  0  0  0
   -5.4050    1.0991   14.9947 F   0  0  0  0  0  0
   -2.9819    3.2208   24.8095 C   0  0  0  0  0  0
   -1.0808    4.8350   25.0127 C   0  0  0  0  0  0
   -0.6540    4.1020   26.3076 C   0  0  0  0  0  0
   -2.4946    2.5319   26.1055 C   0  0  0  0  0  0
   -0.6019   -1.1131   26.6343 C   0  0  0  0  0  0
   -1.9390   -1.3396   26.3210 C   0  0  0  0  0  0
    0.3246   -0.9221   25.6139 C   0  0  0  0  0  0
   -2.6259   -3.2630   20.2607 H   0  0  0  0  0  0
   -1.3532    1.1762   23.6476 H   0  0  0  0  0  0
   -2.7705    3.5290   20.4057 H   0  0  0  0  0  0
   -4.0375   -1.3348   19.7875 H   0  0  0  0  0  0
   -2.4802   -1.1038   19.0443 H   0  0  0  0  0  0
   -6.6406    0.4611   17.1758 H   0  0  0  0  0  0
   -2.4295    2.7520   17.8764 H   0  0  0  0  0  0
   -1.4472    2.9680   27.8068 H   0  0  0  0  0  0
   -3.1607    2.3317   15.5884 H   0  0  0  0  0  0
   -3.7227    3.9753   25.0749 H   0  0  0  0  0  0
   -3.4975    2.5020   24.1735 H   0  0  0  0  0  0
   -0.1925    5.2434   24.5268 H   0  0  0  0  0  0
   -1.7250    5.6753   25.2708 H   0  0  0  0  0  0
    0.0694    3.3193   26.0693 H   0  0  0  0  0  0
   -0.1590    4.7817   27.0028 H   0  0  0  0  0  0
   -1.8099    1.7170   25.8669 H   0  0  0  0  0  0
   -3.3257    2.0887   26.6536 H   0  0  0  0  0  0
   -0.2849   -1.0700   27.6669 H   0  0  0  0  0  0
   -2.6607   -1.4566   27.1165 H   0  0  0  0  0  0
    1.3560   -0.7117   25.8617 H   0  0  0  0  0  0
  1  2  1  0  0  0
  1  5  1  0  0  0
  1  6  1  0  0  0
  2  3  2  0  0  0
  2 11  1  0  0  0
  3  4  1  0  0  0
  3 15  1  0  0  0
  4  9  1  0  0  0
  4 12  2  0  0  0
  5 10  1  0  0  0
  5 20  2  0  0  0
  6 18  1  0  0  0
  6 19  2  0  0  0
  7 11  2  0  0  0
  7  8  1  0  0  0
  7 12  1  0  0  0
  8 13  1  0  0  0
  8 21  2  0  0  0
  9 14  1  0  0  0
  9 17  2  0  0  0
 10 15  1  0  0  0
 10 36  1  0  0  0
 11 37  1  0  0  0
 12 38  1  0  0  0
 13 29  1  0  0  0
 13 30  1  0  0  0
 14 16  2  0  0  0
 14 24  1  0  0  0
 15 39  1  0  0  0
 15 40  1  0  0  0
 16 23  1  0  0  0
 16 41  1  0  0  0
 17 25  1  0  0  0
 17 42  1  0  0  0
 18 26  1  0  0  0
 18 34  2  0  0  0
 19 27  1  0  0  0
 19 35  1  0  0  0
 22 31  1  0  0  0
 22 32  1  0  0  0
 22 43  1  0  0  0
 23 25  2  0  0  0
 23 28  1  0  0  0
 25 44  1  0  0  0
 29 32  1  0  0  0
 29 45  1  0  0  0
 29 46  1  0  0  0
 30 31  1  0  0  0
 30 47  1  0  0  0
 30 48  1  0  0  0
 31 49  1  0  0  0
 31 50  1  0  0  0
 32 51  1  0  0  0
 32 52  1  0  0  0
 33 35  2  0  0  0
 33 34  1  0  0  0
 33 53  1  0  0  0
 34 54  1  0  0  0
 35 55  1  0  0  0
M  END
> <s_m_entry_id>
60798

> <s_m_entry_name>
dock_pv.75

> <s_m_Source_Path>
/home/csk/Desktop/cluster/DUD-E-result/mk14

> <s_m_Source_File>
dock_pv.maegz

> <i_m_Source_File_Index>
75

> <chembl_id>
CHEMBL96225

> <chembl_pref_name>
None

> <i_lp_mmshare_version>
53161

> <i_f3d_flags>
0

> <r_lp_tautomer_probability>
1

> <s_lp_Force_Field>
OPLS_2005

> <r_lp_Energy>
81.300902

> <b_lp_Chiralities_Consistent>
1

> <s_lp_Variant>
CHEMBL260_lig102-1

> <s_i_glide_gridfile>
glide-grid_2qd9

> <i_i_glide_lignum>
118

> <i_i_glide_rotatable_bonds>
4

> <r_i_docking_score>
-9.37253546879743

> <r_i_glide_ligand_efficiency>
-0.267786727679927

> <r_i_glide_ligand_efficiency_sa>
-0.875948142191354

> <r_i_glide_ligand_efficiency_ln>
-2.05747954761836

> <r_i_glide_gscore>
-9.37253546879743

> <r_i_glide_lipo>
-3.96876065765533

> <r_i_glide_hbond>
-0.599660156074245

> <r_i_glide_metal>
0

> <r_i_glide_rewards>
-1.93541006237334

> <r_i_glide_evdw>
-36.7938461303711

> <r_i_glide_ecoul>
-7.63011455535889

> <r_i_glide_erotb>
0.202759269071801

> <r_i_glide_esite>
-0.0872543719439246

> <r_i_glide_emodel>
-56.4818443452612

> <r_i_glide_energy>
-44.42396068573

> <r_i_glide_einternal>
7.89328670501709

> <i_i_glide_confnum>
72

> <i_i_glide_posenum>
135

> <r_i_glide_eff_state_penalty>
0

> <s_user_duplicate_titles>
CHEMBL260_lig102,154296

> <s_m_subgroup_title>
dock_pv

> <s_m_subgroupid>
dock_pv

> <b_m_subgroup_collapsed>
1

$$$$
CHEMBL260_lig93
                    3D
 Schrodinger Suite 2021-1.
 45 48  0  0  1  0            999 V2000
   -1.7871   -1.2331   23.1206 N   0  0  0  0  0  0
   -2.1010   -0.0260   22.4503 C   0  0  0  0  0  0
   -2.6919   -0.0673   21.1767 C   0  0  0  0  0  0
   -1.8980   -2.4825   22.5872 C   0  0  0  0  0  0
   -1.3652   -1.1537   24.4796 C   0  0  0  0  0  0
   -3.0123    1.1290   20.5084 C   0  0  0  0  0  0
   -2.3820   -2.5518   21.3250 N   0  0  0  0  0  0
   -1.8177    1.2071   23.0384 C   0  0  0  0  0  0
   -2.0350    2.3907   22.3617 C   0  0  0  0  0  0
   -2.6046    2.3514   21.0760 C   0  0  0  0  0  0
   -2.9625   -1.4359   20.5619 C   0  0  0  0  0  0
   -1.5833    3.6123   23.0760 C   0  0  0  0  0  0
   -3.8247    1.0857   19.2490 C   0  0  0  0  0  0
   -2.3075   -1.2484   25.5202 C   0  0  0  0  0  0
   -0.0172   -0.8905   24.7935 C   0  0  0  0  0  0
   -1.6350   -3.5130   23.1898 O   0  0  0  0  0  0
   -2.1435    4.0651   24.0771 O   0  0  0  0  0  0
   -3.2350    1.0095   17.9842 C   0  0  0  0  0  0
   -5.2194    1.0074   19.3165 C   0  0  0  0  0  0
   -5.3552    0.8870   16.9097 C   0  0  0  0  0  0
   -0.4350    4.0870   22.5542 O   0  0  0  0  0  0
   -3.9827   -1.5130   25.1929 Cl  0  0  0  0  0  0
    1.1860   -0.7130   23.5627 Cl  0  0  0  0  0  0
   -5.9833    0.8870   18.1527 C   0  0  0  0  0  0
   -3.9798    0.9660   16.8199 C   0  0  0  0  0  0
   -6.2229    0.5220   15.4760 Cl  0  0  0  0  0  0
   -0.5702   -0.8275   27.1486 C   0  0  0  0  0  0
   -1.9026   -1.1001   26.8471 C   0  0  0  0  0  0
    0.3650   -0.7130   26.1231 C   0  0  0  0  0  0
    0.2366    5.1942   23.1365 C   0  0  0  0  0  0
   -2.4534   -3.4750   20.9179 H   0  0  0  0  0  0
   -1.3729    1.2592   24.0228 H   0  0  0  0  0  0
   -2.7980    3.2712   20.5437 H   0  0  0  0  0  0
   -4.0350   -1.5744   20.4560 H   0  0  0  0  0  0
   -2.5496   -1.4718   19.5526 H   0  0  0  0  0  0
   -2.1837    0.8870   17.8524 H   0  0  0  0  0  0
   -5.7101    1.0028   20.2760 H   0  0  0  0  0  0
   -7.0537    0.7591   18.2166 H   0  0  0  0  0  0
   -3.4871    0.8811   15.8616 H   0  0  0  0  0  0
   -0.2599   -0.7049   28.1766 H   0  0  0  0  0  0
   -2.6248   -1.1810   27.6465 H   0  0  0  0  0  0
    1.3964   -0.4982   26.3643 H   0  0  0  0  0  0
    1.1271    5.4307   22.5531 H   0  0  0  0  0  0
   -0.4009    6.0792   23.1553 H   0  0  0  0  0  0
    0.5501    4.9689   24.1571 H   0  0  0  0  0  0
  1  2  1  0  0  0
  1  4  1  0  0  0
  1  5  1  0  0  0
  2  3  2  0  0  0
  2  8  1  0  0  0
  3  6  1  0  0  0
  3 11  1  0  0  0
  4  7  1  0  0  0
  4 16  2  0  0  0
  5 14  1  0  0  0
  5 15  2  0  0  0
  6 13  1  0  0  0
  6 10  2  0  0  0
  7 11  1  0  0  0
  7 31  1  0  0  0
  8  9  2  0  0  0
  8 32  1  0  0  0
  9 10  1  0  0  0
  9 12  1  0  0  0
 10 33  1  0  0  0
 11 34  1  0  0  0
 11 35  1  0  0  0
 12 17  2  0  0  0
 12 21  1  0  0  0
 13 18  2  0  0  0
 13 19  1  0  0  0
 14 22  1  0  0  0
 14 28  2  0  0  0
 15 23  1  0  0  0
 15 29  1  0  0  0
 18 25  1  0  0  0
 18 36  1  0  0  0
 19 24  2  0  0  0
 19 37  1  0  0  0
 20 24  1  0  0  0
 20 26  1  0  0  0
 20 25  2  0  0  0
 21 30  1  0  0  0
 24 38  1  0  0  0
 25 39  1  0  0  0
 27 29  2  0  0  0
 27 28  1  0  0  0
 27 40  1  0  0  0
 28 41  1  0  0  0
 29 42  1  0  0  0
 30 43  1  0  0  0
 30 44  1  0  0  0
 30 45  1  0  0  0
M  END
> <s_m_entry_id>
60799

> <s_m_entry_name>
dock_pv.76

> <s_m_Source_Path>
/home/csk/Desktop/cluster/DUD-E-result/mk14

> <s_m_Source_File>
dock_pv.maegz

> <i_m_Source_File_Index>
76

> <chembl_id>
CHEMBL330358

> <chembl_pref_name>
None

> <i_lp_mmshare_version>
53161

> <i_f3d_flags>
0

> <r_lp_tautomer_probability>
1

> <s_lp_Force_Field>
OPLS_2005

> <r_lp_Energy>
49.360383

> <b_lp_Chiralities_Consistent>
1

> <s_lp_Variant>
CHEMBL260_lig93-1

> <s_i_glide_gridfile>
glide-grid_2qd9

> <i_i_glide_lignum>
109

> <i_i_glide_rotatable_bonds>
4

> <r_i_docking_score>
-9.36828794298215

> <r_i_glide_ligand_efficiency>
-0.312276264766072

> <r_i_glide_ligand_efficiency_sa>
-0.970314959618914

> <r_i_glide_ligand_efficiency_ln>
-2.1285770963183

> <r_i_glide_gscore>
-9.36828794298215

> <r_i_glide_lipo>
-4.02017367077857

> <r_i_glide_hbond>
-0.747218996968434

> <r_i_glide_metal>
0

> <r_i_glide_rewards>
-1.73171429782327

> <r_i_glide_evdw>
-34.3688812255859

> <r_i_glide_ecoul>
-8.71569347381592

> <r_i_glide_erotb>
0.198371650697208

> <r_i_glide_esite>
-0.0417545457574002

> <r_i_glide_emodel>
-43.3916106752575

> <r_i_glide_energy>
-43.0845746994019

> <r_i_glide_einternal>
9.53011512756348

> <i_i_glide_confnum>
12

> <i_i_glide_posenum>
306

> <r_i_glide_eff_state_penalty>
0

> <s_user_duplicate_titles>
CHEMBL260_lig93,153989

> <s_m_subgroup_title>
dock_pv

> <s_m_subgroupid>
dock_pv

> <b_m_subgroup_collapsed>
1

$$$$
CHEMBL260_lig1047
                    3D
 Schrodinger Suite 2021-1.
 53 57  0  0  1  0            999 V2000
   -1.5170   -1.7198   20.8331 C   0  0  0  0  0  0
   -1.5851   -1.2777   22.2473 N   0  0  0  0  0  0
   -1.5204    0.1842   22.5029 C   0  0  0  0  0  0
   -2.7166   -1.1454   20.0303 C   0  0  0  0  0  0
   -3.2404    1.3625   19.4758 N   0  0  0  0  0  0
   -2.7973    0.3472   20.2997 C   0  0  0  0  0  0
   -2.2260    0.9648   21.4001 C   0  0  0  0  0  0
   -2.4350    2.3268   21.1703 C   0  0  0  0  0  0
   -3.0393    2.5693   20.0294 N   0  0  0  0  0  0
   -1.8091   -2.1864   23.2371 C   0  0  0  0  0  0
   -2.0349   -3.3780   23.0219 O   0  0  0  0  0  0
   -3.8600    1.2870   18.2121 C   0  0  0  0  0  0
   -5.2004    0.8898   18.0988 C   0  0  0  0  0  0
   -5.8104    0.8869   16.8460 C   0  0  0  0  0  0
   -5.1070    1.2514   15.7029 C   0  0  0  0  0  0
   -3.7791    1.6486   15.8121 C   0  0  0  0  0  0
   -3.1622    1.6797   17.0574 C   0  0  0  0  0  0
   -6.1560    0.4869   19.4765 Cl  0  0  0  0  0  0
   -1.7301   -1.7287   24.6728 C   0  0  0  0  0  0
   -0.5304   -1.2343   25.1944 C   0  0  0  0  0  0
   -2.8431   -1.4567   26.8315 C   0  0  0  0  0  0
   -2.8548   -1.8269   25.4886 C   0  0  0  0  0  0
   -1.2766   -0.5871   28.6564 N   0  0  0  0  0  0
   -1.6364   -0.9884   27.3668 C   0  0  0  0  0  0
   -0.4729   -0.8547   26.5433 C   0  0  0  0  0  0
    0.5572   -0.3113   27.3625 C   0  0  0  0  0  0
    0.0338   -0.1623   28.6230 C   0  0  0  0  0  0
   -2.1023   -0.5063   29.8741 C   0  0  0  0  0  0
   -2.9793   -1.7565   30.0963 C   0  0  0  0  0  0
   -2.9045    0.8090   29.8921 C   0  0  0  0  0  0
   -1.4177   -2.8019   20.7295 H   0  0  0  0  0  0
   -0.5893   -1.3218   20.4183 H   0  0  0  0  0  0
   -0.4826    0.4986   22.6254 H   0  0  0  0  0  0
   -1.9582    0.4612   23.4619 H   0  0  0  0  0  0
   -2.5757   -1.3508   18.9716 H   0  0  0  0  0  0
   -3.6346   -1.6524   20.3200 H   0  0  0  0  0  0
   -2.1148    3.1259   21.8208 H   0  0  0  0  0  0
   -6.8350    0.5716   16.7626 H   0  0  0  0  0  0
   -5.5913    1.2259   14.7386 H   0  0  0  0  0  0
   -3.2233    1.9397   14.9342 H   0  0  0  0  0  0
   -2.1329    2.0076   17.0759 H   0  0  0  0  0  0
    0.3525   -1.1594   24.5756 H   0  0  0  0  0  0
   -3.7435   -1.5373   27.4165 H   0  0  0  0  0  0
   -3.7810   -2.1960   25.0768 H   0  0  0  0  0  0
    1.5654   -0.0608   27.0762 H   0  0  0  0  0  0
    0.5073    0.2085   29.5216 H   0  0  0  0  0  0
   -1.4068   -0.4846   30.7156 H   0  0  0  0  0  0
   -3.3013   -1.8166   31.1364 H   0  0  0  0  0  0
   -3.8893   -1.7431   29.4999 H   0  0  0  0  0  0
   -2.4356   -2.6770   29.8775 H   0  0  0  0  0  0
   -3.4590    0.9149   30.8249 H   0  0  0  0  0  0
   -2.2451    1.6751   29.8038 H   0  0  0  0  0  0
   -3.6244    0.8614   29.0777 H   0  0  0  0  0  0
  1  2  1  0  0  0
  1  4  1  0  0  0
  1 31  1  0  0  0
  1 32  1  0  0  0
  2  3  1  0  0  0
  2 10  1  0  0  0
  3  7  1  0  0  0
  3 33  1  0  0  0
  3 34  1  0  0  0
  4  6  1  0  0  0
  4 35  1  0  0  0
  4 36  1  0  0  0
  5  6  1  0  0  0
  5  9  1  0  0  0
  5 12  1  0  0  0
  6  7  2  0  0  0
  7  8  1  0  0  0
  8  9  2  0  0  0
  8 37  1  0  0  0
 10 19  1  0  0  0
 10 11  2  0  0  0
 12 17  1  0  0  0
 12 13  2  0  0  0
 13 18  1  0  0  0
 13 14  1  0  0  0
 14 15  2  0  0  0
 14 38  1  0  0  0
 15 16  1  0  0  0
 15 39  1  0  0  0
 16 17  2  0  0  0
 16 40  1  0  0  0
 17 41  1  0  0  0
 19 20  2  0  0  0
 19 22  1  0  0  0
 20 25  1  0  0  0
 20 42  1  0  0  0
 21 24  1  0  0  0
 21 22  2  0  0  0
 21 43  1  0  0  0
 22 44  1  0  0  0
 23 24  1  0  0  0
 23 27  1  0  0  0
 23 28  1  0  0  0
 24 25  2  0  0  0
 25 26  1  0  0  0
 26 27  2  0  0  0
 26 45  1  0  0  0
 27 46  1  0  0  0
 28 29  1  0  0  0
 28 30  1  0  0  0
 28 47  1  0  0  0
 29 48  1  0  0  0
 29 49  1  0  0  0
 29 50  1  0  0  0
 30 51  1  0  0  0
 30 52  1  0  0  0
 30 53  1  0  0  0
M  END
> <s_m_entry_id>
60800

> <s_m_entry_name>
dock_pv.77

> <s_m_Source_Path>
/home/csk/Desktop/cluster/DUD-E-result/mk14

> <s_m_Source_File>
dock_pv.maegz

> <i_m_Source_File_Index>
77

> <chembl_id>
CHEMBL242001

> <chembl_pref_name>
None

> <i_lp_mmshare_version>
53161

> <i_f3d_flags>
0

> <r_lp_tautomer_probability>
1

> <s_lp_Force_Field>
OPLS_2005

> <r_lp_Energy>
44.930582

> <b_lp_Chiralities_Consistent>
1

> <s_lp_Variant>
CHEMBL260_lig1047-1

> <s_i_glide_gridfile>
glide-grid_2qd9

> <i_i_glide_lignum>
1174

> <i_i_glide_rotatable_bonds>
4

> <r_i_docking_score>
-9.36328020658424

> <r_i_glide_ligand_efficiency>
-0.312109340219475

> <r_i_glide_ligand_efficiency_sa>
-0.969796286242274

> <r_i_glide_ligand_efficiency_ln>
-2.12743928404504

> <r_i_glide_gscore>
-9.36328020658424

> <r_i_glide_lipo>
-4.23632090210558

> <r_i_glide_hbond>
-0.479762935655941

> <r_i_glide_metal>
0

> <r_i_glide_rewards>
-1.56669676324166

> <r_i_glide_evdw>
-45.8548164367676

> <r_i_glide_ecoul>
-7.50579690933228

> <r_i_glide_erotb>
0.338110752657169

> <r_i_glide_esite>
0

> <r_i_glide_emodel>
-74.0861103696316

> <r_i_glide_energy>
-53.3606133460999

> <r_i_glide_einternal>
9.0259256362915

> <i_i_glide_confnum>
6

> <i_i_glide_posenum>
39

> <r_i_glide_eff_state_penalty>
0

> <s_user_duplicate_titles>
CHEMBL260_lig1047,386119

> <s_m_subgroup_title>
dock_pv

> <s_m_subgroupid>
dock_pv

> <b_m_subgroup_collapsed>
1

$$$$
CHEMBL260_lig88
                    3D
 Schrodinger Suite 2021-1.
 48 51  0  0  1  0            999 V2000
   -1.9121   -1.2432   23.2149 N   0  0  0  0  0  0
   -2.1742   -0.0479   22.5023 C   0  0  0  0  0  0
   -2.7178   -0.1120   21.2084 C   0  0  0  0  0  0
   -2.1219   -2.5037   22.7420 C   0  0  0  0  0  0
   -1.4161   -1.1418   24.5477 C   0  0  0  0  0  0
   -3.0005    1.0707   20.5024 C   0  0  0  0  0  0
   -2.5232   -2.6019   21.4539 N   0  0  0  0  0  0
   -1.8870    1.1951   23.0687 C   0  0  0  0  0  0
   -2.0350    2.3630   22.3465 C   0  0  0  0  0  0
   -2.5810    2.2998   21.0509 C   0  0  0  0  0  0
   -2.9757   -1.4885   20.6070 C   0  0  0  0  0  0
   -1.5405    3.5913   23.0268 C   0  0  0  0  0  0
   -3.7676    1.0056   19.2129 C   0  0  0  0  0  0
   -2.2949   -1.2298   25.6445 C   0  0  0  0  0  0
   -0.0507   -0.8856   24.7795 C   0  0  0  0  0  0
   -2.0227   -3.5130   23.4234 O   0  0  0  0  0  0
   -2.0351    4.0394   24.0643 O   0  0  0  0  0  0
   -3.1301    0.8870   17.9756 C   0  0  0  0  0  0
   -5.1665    0.9693   19.2170 C   0  0  0  0  0  0
   -0.4354    4.0870   22.4244 O   0  0  0  0  0  0
    1.0818   -0.7130   23.4803 Cl  0  0  0  0  0  0
   -3.9836   -1.5130   25.4251 Cl  0  0  0  0  0  0
   -5.8800    0.8870   18.0158 C   0  0  0  0  0  0
   -3.8148    0.8870   16.7799 C   0  0  0  0  0  0
   -5.1943    0.8870   16.7989 C   0  0  0  0  0  0
   -0.4639   -0.8132   27.1651 C   0  0  0  0  0  0
    0.4079   -0.7130   26.0845 C   0  0  0  0  0  0
   -1.8127   -1.0767   26.9443 C   0  0  0  0  0  0
   -5.8988    0.7768   15.4754 C   0  0  0  0  0  0
    0.2654    5.1960   22.9678 C   0  0  0  0  0  0
   -2.6280   -3.5359   21.0793 H   0  0  0  0  0  0
   -1.4787    1.2638   24.0679 H   0  0  0  0  0  0
   -2.7310    3.2074   20.4845 H   0  0  0  0  0  0
   -4.0350   -1.5923   20.3901 H   0  0  0  0  0  0
   -2.4623   -1.5672   19.6474 H   0  0  0  0  0  0
   -2.0764    0.7332   17.8760 H   0  0  0  0  0  0
   -5.7007    0.9956   20.1546 H   0  0  0  0  0  0
   -6.9584    0.8381   18.0319 H   0  0  0  0  0  0
   -3.2704    0.8158   15.8484 H   0  0  0  0  0  0
   -0.0913   -0.6901   28.1721 H   0  0  0  0  0  0
    1.4537   -0.5073   26.2635 H   0  0  0  0  0  0
   -2.4863   -1.1541   27.7855 H   0  0  0  0  0  0
   -5.3086    0.2030   14.7590 H   0  0  0  0  0  0
   -6.0350    1.7780   15.0760 H   0  0  0  0  0  0
   -6.8350    0.2430   15.5744 H   0  0  0  0  0  0
    1.1061    5.4508   22.3217 H   0  0  0  0  0  0
   -0.3791    6.0723   23.0474 H   0  0  0  0  0  0
    0.6584    4.9622   23.9584 H   0  0  0  0  0  0
  1  2  1  0  0  0
  1  4  1  0  0  0
  1  5  1  0  0  0
  2  3  2  0  0  0
  2  8  1  0  0  0
  3  6  1  0  0  0
  3 11  1  0  0  0
  4  7  1  0  0  0
  4 16  2  0  0  0
  5 14  1  0  0  0
  5 15  2  0  0  0
  6 13  1  0  0  0
  6 10  2  0  0  0
  7 11  1  0  0  0
  7 31  1  0  0  0
  8  9  2  0  0  0
  8 32  1  0  0  0
  9 10  1  0  0  0
  9 12  1  0  0  0
 10 33  1  0  0  0
 11 34  1  0  0  0
 11 35  1  0  0  0
 12 17  2  0  0  0
 12 20  1  0  0  0
 13 18  2  0  0  0
 13 19  1  0  0  0
 14 22  1  0  0  0
 14 28  2  0  0  0
 15 21  1  0  0  0
 15 27  1  0  0  0
 18 24  1  0  0  0
 18 36  1  0  0  0
 19 23  2  0  0  0
 19 37  1  0  0  0
 20 30  1  0  0  0
 23 25  1  0  0  0
 23 38  1  0  0  0
 24 25  2  0  0  0
 24 39  1  0  0  0
 25 29  1  0  0  0
 26 27  2  0  0  0
 26 28  1  0  0  0
 26 40  1  0  0  0
 27 41  1  0  0  0
 28 42  1  0  0  0
 29 43  1  0  0  0
 29 44  1  0  0  0
 29 45  1  0  0  0
 30 46  1  0  0  0
 30 47  1  0  0  0
 30 48  1  0  0  0
M  END
> <s_m_entry_id>
60801

> <s_m_entry_name>
dock_pv.78

> <s_m_Source_Path>
/home/csk/Desktop/cluster/DUD-E-result/mk14

> <s_m_Source_File>
dock_pv.maegz

> <i_m_Source_File_Index>
78

> <chembl_id>
CHEMBL97579

> <chembl_pref_name>
None

> <i_lp_mmshare_version>
53161

> <i_f3d_flags>
0

> <r_lp_tautomer_probability>
1

> <s_lp_Force_Field>
OPLS_2005

> <r_lp_Energy>
49.339358

> <b_lp_Chiralities_Consistent>
1

> <s_lp_Variant>
CHEMBL260_lig88-1

> <s_i_glide_gridfile>
glide-grid_2qd9

> <i_i_glide_lignum>
104

> <i_i_glide_rotatable_bonds>
4

> <r_i_docking_score>
-9.36080366344296

> <r_i_glide_ligand_efficiency>
-0.312026788781432

> <r_i_glide_ligand_efficiency_sa>
-0.969539779730866

> <r_i_glide_ligand_efficiency_ln>
-2.12687658645924

> <r_i_glide_gscore>
-9.36080366344296

> <r_i_glide_lipo>
-3.9268144835065

> <r_i_glide_hbond>
-0.751662115042887

> <r_i_glide_metal>
0

> <r_i_glide_rewards>
-1.83011380135217

> <r_i_glide_evdw>
-31.9661140441895

> <r_i_glide_ecoul>
-9.5207052230835

> <r_i_glide_erotb>
0.215378659808984

> <r_i_glide_esite>
-0.0411804376783979

> <r_i_glide_emodel>
-48.7875372154508

> <r_i_glide_energy>
-41.4868192672729

> <r_i_glide_einternal>
10.6736316680908

> <i_i_glide_confnum>
4

> <i_i_glide_posenum>
171

> <r_i_glide_eff_state_penalty>
0

> <s_user_duplicate_titles>
CHEMBL260_lig88,154532

> <s_m_subgroup_title>
dock_pv

> <s_m_subgroupid>
dock_pv

> <b_m_subgroup_collapsed>
1

$$$$
CHEMBL260_lig876
                    3D
 Schrodinger Suite 2021-1.
 54 57  0  0  1  0            999 V2000
    0.3374   -0.7071   25.6581 C   0  0  0  0  0  0
   -0.0524   -0.8119   24.3227 C   0  0  0  0  0  0
   -1.3885   -1.1180   23.9998 C   0  0  0  0  0  0
   -2.3332   -1.2404   25.0370 C   0  0  0  0  0  0
   -1.9291   -1.1258   26.3680 C   0  0  0  0  0  0
   -0.5952   -0.8715   26.6793 C   0  0  0  0  0  0
   -4.0082   -1.5129   24.7044 Cl  0  0  0  0  0  0
    1.1295   -0.4934   23.1020 Cl  0  0  0  0  0  0
   -1.7902   -1.2833   22.6332 N   0  0  0  0  0  0
   -1.8499   -2.5534   22.1660 C   0  0  0  0  0  0
   -2.2250   -2.7132   20.8712 N   0  0  0  0  0  0
   -2.8407   -1.6862   20.0133 C   0  0  0  0  0  0
   -2.1859   -0.1666   21.8870 C   0  0  0  0  0  0
   -2.7218   -0.2968   20.5963 C   0  0  0  0  0  0
   -3.1295    0.8887   19.9600 C   0  0  0  0  0  0
   -2.9491    2.0983   20.5612 N   0  0  0  0  0  0
   -2.4350    2.0872   21.8200 C   0  0  0  0  0  0
   -2.0528    1.0156   22.5026 N   0  0  0  0  0  0
   -3.8171    0.9338   18.6290 C   0  0  0  0  0  0
   -3.0913    0.9958   17.4379 C   0  0  0  0  0  0
   -3.6888    1.1146   16.1849 C   0  0  0  0  0  0
   -5.0715    1.1185   16.0937 C   0  0  0  0  0  0
   -5.8177    0.9772   17.2568 C   0  0  0  0  0  0
   -5.2093    0.8871   18.5073 C   0  0  0  0  0  0
   -6.2110    0.6289   19.8756 Cl  0  0  0  0  0  0
   -1.6349   -3.5131   22.8796 O   0  0  0  0  0  0
   -2.3416    3.2870   22.4921 N   0  0  0  0  0  0
   -1.9395    3.4929   23.8913 C   0  0  0  0  0  0
   -0.4718    3.9549   24.1397 C   0  0  0  0  0  0
   -0.3754    4.5236   25.5731 C   0  0  0  0  0  0
   -0.0286    5.0551   23.1443 C   0  0  0  0  0  0
    0.4964    2.7612   24.0423 C   0  0  0  0  0  0
    1.3665   -0.4864   25.9054 H   0  0  0  0  0  0
   -2.6513   -1.2311   27.1646 H   0  0  0  0  0  0
   -0.2861   -0.7881   27.7113 H   0  0  0  0  0  0
   -2.2827   -3.6691   20.5411 H   0  0  0  0  0  0
   -3.8940   -1.9130   19.8764 H   0  0  0  0  0  0
   -2.3767   -1.7168   19.0290 H   0  0  0  0  0  0
   -2.0351    0.8874   17.4720 H   0  0  0  0  0  0
   -3.0826    1.1678   15.2919 H   0  0  0  0  0  0
   -5.5591    1.1927   15.1322 H   0  0  0  0  0  0
   -6.8790    0.9367   17.1955 H   0  0  0  0  0  0
   -2.4469    4.0870   21.9003 H   0  0  0  0  0  0
   -2.6246    4.2338   24.3029 H   0  0  0  0  0  0
   -2.1443    2.5922   24.4741 H   0  0  0  0  0  0
   -0.6682    3.7842   26.3202 H   0  0  0  0  0  0
    0.6428    4.8353   25.8128 H   0  0  0  0  0  0
   -1.0190    5.3941   25.7081 H   0  0  0  0  0  0
   -0.0400    4.6990   22.1126 H   0  0  0  0  0  0
   -0.6702    5.9344   23.2005 H   0  0  0  0  0  0
    0.9905    5.3876   23.3488 H   0  0  0  0  0  0
    0.4325    2.2728   23.0755 H   0  0  0  0  0  0
    1.5360    3.0639   24.1831 H   0  0  0  0  0  0
    0.2741    2.0092   24.7991 H   0  0  0  0  0  0
  1  6  1  0  0  0
  1  2  2  0  0  0
  1 33  1  0  0  0
  2  8  1  0  0  0
  2  3  1  0  0  0
  3  4  2  0  0  0
  3  9  1  0  0  0
  4  5  1  0  0  0
  4  7  1  0  0  0
  5  6  2  0  0  0
  5 34  1  0  0  0
  6 35  1  0  0  0
  9 10  1  0  0  0
  9 13  1  0  0  0
 10 11  1  0  0  0
 10 26  2  0  0  0
 11 12  1  0  0  0
 11 36  1  0  0  0
 12 14  1  0  0  0
 12 37  1  0  0  0
 12 38  1  0  0  0
 13 18  1  0  0  0
 13 14  2  0  0  0
 14 15  1  0  0  0
 15 16  2  0  0  0
 15 19  1  0  0  0
 16 17  1  0  0  0
 17 18  2  0  0  0
 17 27  1  0  0  0
 19 20  2  0  0  0
 19 24  1  0  0  0
 20 21  1  0  0  0
 20 39  1  0  0  0
 21 22  2  0  0  0
 21 40  1  0  0  0
 22 23  1  0  0  0
 22 41  1  0  0  0
 23 24  2  0  0  0
 23 42  1  0  0  0
 24 25  1  0  0  0
 27 28  1  0  0  0
 27 43  1  0  0  0
 28 29  1  0  0  0
 28 44  1  0  0  0
 28 45  1  0  0  0
 29 30  1  0  0  0
 29 31  1  0  0  0
 29 32  1  0  0  0
 30 46  1  0  0  0
 30 47  1  0  0  0
 30 48  1  0  0  0
 31 49  1  0  0  0
 31 50  1  0  0  0
 31 51  1  0  0  0
 32 52  1  0  0  0
 32 53  1  0  0  0
 32 54  1  0  0  0
M  END
> <s_m_entry_id>
60802

> <s_m_entry_name>
dock_pv.79

> <s_m_Source_Path>
/home/csk/Desktop/cluster/DUD-E-result/mk14

> <s_m_Source_File>
dock_pv.maegz

> <i_m_Source_File_Index>
79

> <chembl_id>
CHEMBL214138

> <chembl_pref_name>
None

> <i_lp_mmshare_version>
53161

> <i_f3d_flags>
0

> <r_lp_tautomer_probability>
0.999999987636

> <s_lp_Force_Field>
OPLS_2005

> <r_lp_Energy>
39.314449

> <b_lp_Chiralities_Consistent>
1

> <s_lp_Variant>
CHEMBL260_lig876-1

> <s_i_glide_gridfile>
glide-grid_2qd9

> <i_i_glide_lignum>
974

> <i_i_glide_rotatable_bonds>
5

> <r_i_docking_score>
-9.32578769562964

> <r_i_glide_ligand_efficiency>
-0.291430865488426

> <r_i_glide_ligand_efficiency_sa>
-0.925235323835788

> <r_i_glide_ligand_efficiency_ln>
-2.08829807642296

> <r_i_glide_gscore>
-9.32578769562964

> <r_i_glide_lipo>
-3.98639757261505

> <r_i_glide_hbond>
-0.711348803262962

> <r_i_glide_metal>
0

> <r_i_glide_rewards>
-1.64617203672548

> <r_i_glide_evdw>
-38.7643432617188

> <r_i_glide_ecoul>
-8.3593921661377

> <r_i_glide_erotb>
0.236570175480349

> <r_i_glide_esite>
-0.026313470499907

> <r_i_glide_emodel>
-63.0410057441195

> <r_i_glide_energy>
-47.1237354278564

> <r_i_glide_einternal>
4.53336238861084

> <i_i_glide_confnum>
14

> <i_i_glide_posenum>
121

> <r_i_glide_eff_state_penalty>
0

> <s_user_duplicate_titles>
CHEMBL260_lig876,355181

> <s_m_subgroup_title>
dock_pv

> <s_m_subgroupid>
dock_pv

> <b_m_subgroup_collapsed>
1

$$$$
CHEMBL260_lig118
                    3D
 Schrodinger Suite 2021-1.
 48 51  0  0  1  0            999 V2000
   -1.9069   -1.2354   23.4663 N   0  0  0  0  0  0
   -2.2458   -0.0413   22.7846 C   0  0  0  0  0  0
   -2.8413   -0.1263   21.5170 C   0  0  0  0  0  0
   -2.0542   -2.4941   22.9612 C   0  0  0  0  0  0
   -1.3536   -1.1279   24.7732 C   0  0  0  0  0  0
   -3.1569    1.0384   20.8106 C   0  0  0  0  0  0
   -2.7230   -2.6048   21.7944 N   0  0  0  0  0  0
   -5.3675    0.7912   15.4772 C   0  0  0  0  0  0
   -1.9126    1.2159   23.3047 C   0  0  0  0  0  0
   -2.0350    2.3600   22.5308 C   0  0  0  0  0  0
   -2.6511    2.2627   21.2739 C   0  0  0  0  0  0
   -3.0264   -1.5003   20.8883 C   0  0  0  0  0  0
   -1.4309    3.6083   23.0760 C   0  0  0  0  0  0
   -4.8918    0.8870   16.9083 C   0  0  0  0  0  0
   -3.8483    0.9477   19.4968 C   0  0  0  0  0  0
   -2.1826   -1.2168   25.9075 C   0  0  0  0  0  0
    0.0153   -0.8453   24.9452 C   0  0  0  0  0  0
   -1.6350   -3.5130   23.4760 O   0  0  0  0  0  0
   -1.7283    4.0825   24.1749 O   0  0  0  0  0  0
   -5.7603    0.8870   18.0119 C   0  0  0  0  0  0
   -3.5256    0.8870   17.1086 C   0  0  0  0  0  0
   -5.2343    0.9688   19.3105 C   0  0  0  0  0  0
   -3.0538    0.7638   18.3887 C   0  0  0  0  0  0
   -6.4350    0.0222   15.3886 F   0  0  0  0  0  0
   -4.4468    0.2527   14.6760 F   0  0  0  0  0  0
   -5.6303    2.0280   15.0760 F   0  0  0  0  0  0
   -0.4477    4.0870   22.2764 O   0  0  0  0  0  0
   -3.8696   -1.5459   25.7696 Cl  0  0  0  0  0  0
    1.0991   -0.7130   23.6014 Cl  0  0  0  0  0  0
   -0.3060   -0.7130   27.3425 C   0  0  0  0  0  0
    0.5193   -0.6222   26.2256 C   0  0  0  0  0  0
   -1.6535   -1.0207   27.1828 C   0  0  0  0  0  0
    0.3512    5.1945   22.6676 C   0  0  0  0  0  0
   -2.8350   -3.5380   21.4235 H   0  0  0  0  0  0
   -1.4452    1.3044   24.2758 H   0  0  0  0  0  0
   -2.7679    3.1454   20.6616 H   0  0  0  0  0  0
   -4.0350   -1.6026   20.5062 H   0  0  0  0  0  0
   -2.3708   -1.5931   20.0211 H   0  0  0  0  0  0
   -6.8316    0.8624   17.8649 H   0  0  0  0  0  0
   -2.8350    0.8244   16.2811 H   0  0  0  0  0  0
   -5.8963    1.0314   20.1595 H   0  0  0  0  0  0
   -2.0350    0.4870   18.5244 H   0  0  0  0  0  0
    0.1035   -0.5538   28.3302 H   0  0  0  0  0  0
    1.5649   -0.3889   26.3602 H   0  0  0  0  0  0
   -2.2901   -1.0957   28.0525 H   0  0  0  0  0  0
    1.0632    5.4310   21.8761 H   0  0  0  0  0  0
   -0.2590    6.0798   22.8507 H   0  0  0  0  0  0
    0.9154    4.9678   23.5736 H   0  0  0  0  0  0
  1  2  1  0  0  0
  1  4  1  0  0  0
  1  5  1  0  0  0
  2  3  2  0  0  0
  2  9  1  0  0  0
  3  6  1  0  0  0
  3 12  1  0  0  0
  4  7  1  0  0  0
  4 18  2  0  0  0
  5 16  1  0  0  0
  5 17  2  0  0  0
  6 15  1  0  0  0
  6 11  2  0  0  0
  7 12  1  0  0  0
  7 34  1  0  0  0
  8 14  1  0  0  0
  8 24  1  0  0  0
  8 25  1  0  0  0
  8 26  1  0  0  0
  9 10  2  0  0  0
  9 35  1  0  0  0
 10 11  1  0  0  0
 10 13  1  0  0  0
 11 36  1  0  0  0
 12 37  1  0  0  0
 12 38  1  0  0  0
 13 19  2  0  0  0
 13 27  1  0  0  0
 14 21  2  0  0  0
 14 20  1  0  0  0
 15 22  1  0  0  0
 15 23  2  0  0  0
 16 28  1  0  0  0
 16 32  2  0  0  0
 17 29  1  0  0  0
 17 31  1  0  0  0
 20 22  2  0  0  0
 20 39  1  0  0  0
 21 23  1  0  0  0
 21 40  1  0  0  0
 22 41  1  0  0  0
 23 42  1  0  0  0
 27 33  1  0  0  0
 30 31  2  0  0  0
 30 32  1  0  0  0
 30 43  1  0  0  0
 31 44  1  0  0  0
 32 45  1  0  0  0
 33 46  1  0  0  0
 33 47  1  0  0  0
 33 48  1  0  0  0
M  END
> <s_m_entry_id>
60803

> <s_m_entry_name>
dock_pv.80

> <s_m_Source_Path>
/home/csk/Desktop/cluster/DUD-E-result/mk14

> <s_m_Source_File>
dock_pv.maegz

> <i_m_Source_File_Index>
80

> <chembl_id>
CHEMBL94719

> <chembl_pref_name>
None

> <i_lp_mmshare_version>
53161

> <i_f3d_flags>
0

> <r_lp_tautomer_probability>
1

> <s_lp_Force_Field>
OPLS_2005

> <r_lp_Energy>
51.533556

> <b_lp_Chiralities_Consistent>
1

> <s_lp_Variant>
CHEMBL260_lig118-1

> <s_i_glide_gridfile>
glide-grid_2qd9

> <i_i_glide_lignum>
134

> <i_i_glide_rotatable_bonds>
5

> <r_i_docking_score>
-9.3218144332737

> <r_i_glide_ligand_efficiency>
-0.282479225250718

> <r_i_glide_ligand_efficiency_sa>
-0.906061811446285

> <r_i_glide_ligand_efficiency_ln>
-2.07312326418806

> <r_i_glide_gscore>
-9.3218144332737

> <r_i_glide_lipo>
-3.90928114458295

> <r_i_glide_hbond>
-0.635053941667599

> <r_i_glide_metal>
0

> <r_i_glide_rewards>
-2.27389747721468

> <r_i_glide_evdw>
-27.4410514831543

> <r_i_glide_ecoul>
-8.44396495819092

> <r_i_glide_erotb>
0.174508850913819

> <r_i_glide_esite>
-0.0394434028359416

> <r_i_glide_emodel>
-39.8960938143651

> <r_i_glide_energy>
-35.8850164413452

> <r_i_glide_einternal>
10.5682830810547

> <i_i_glide_confnum>
16

> <i_i_glide_posenum>
376

> <r_i_glide_eff_state_penalty>
0

> <s_user_duplicate_titles>
CHEMBL260_lig118,154412

> <s_m_subgroup_title>
dock_pv

> <s_m_subgroupid>
dock_pv

> <b_m_subgroup_collapsed>
1

$$$$
CHEMBL260_lig101
                    3D
 Schrodinger Suite 2021-1.
 45 48  0  0  1  0            999 V2000
   -1.7998   -1.2238   22.9018 N   0  0  0  0  0  0
   -2.1155   -0.0078   22.2383 C   0  0  0  0  0  0
   -2.6656   -0.0292   20.9443 C   0  0  0  0  0  0
   -2.9302    1.1771   20.2585 C   0  0  0  0  0  0
   -1.8978   -2.4678   22.3483 C   0  0  0  0  0  0
   -1.4069   -1.1657   24.2759 C   0  0  0  0  0  0
   -2.3681   -2.5177   21.0794 N   0  0  0  0  0  0
   -1.8450    1.2164   22.8456 C   0  0  0  0  0  0
   -1.9894    2.4116   22.1635 C   0  0  0  0  0  0
   -2.5097    2.3880   20.8525 C   0  0  0  0  0  0
   -3.7444    1.1539   18.9799 C   0  0  0  0  0  0
   -2.9517   -1.3941   20.3270 C   0  0  0  0  0  0
   -1.3014    3.5703   22.8190 C   0  0  0  0  0  0
   -0.0685   -0.9200   24.6451 C   0  0  0  0  0  0
   -2.3755   -1.2744   25.2887 C   0  0  0  0  0  0
   -1.6350   -3.5130   22.9309 O   0  0  0  0  0  0
   -5.1131    0.8873   19.0714 C   0  0  0  0  0  0
   -0.4350    4.2624   22.2760 O   0  0  0  0  0  0
   -1.8059    3.8165   24.0527 O   0  0  0  0  0  0
    1.1827   -0.7130   23.4760 Cl  0  0  0  0  0  0
   -4.0350   -1.5128   24.9039 Cl  0  0  0  0  0  0
   -5.6350    0.6193   20.2741 F   0  0  0  0  0  0
   -3.2350    1.3239   17.6791 C   0  0  0  0  0  0
   -0.6912   -0.9190   26.9833 C   0  0  0  0  0  0
   -2.0152   -1.1637   26.6317 C   0  0  0  0  0  0
    0.2748   -0.7863   25.9903 C   0  0  0  0  0  0
   -5.9485    0.8859   17.9530 C   0  0  0  0  0  0
   -1.2308    4.8169   24.8824 C   0  0  0  0  0  0
   -4.0526    1.2928   16.5477 C   0  0  0  0  0  0
   -5.4204    1.0943   16.6848 C   0  0  0  0  0  0
   -2.4628   -3.4411   20.6760 H   0  0  0  0  0  0
   -1.4065    1.2432   23.8337 H   0  0  0  0  0  0
   -2.6206    3.3106   20.3022 H   0  0  0  0  0  0
   -4.0276   -1.5288   20.2359 H   0  0  0  0  0  0
   -2.5492   -1.4266   19.3136 H   0  0  0  0  0  0
   -2.1939    1.4456   17.4757 H   0  0  0  0  0  0
   -0.4119   -0.8299   28.0235 H   0  0  0  0  0  0
   -2.7646   -1.2566   27.4042 H   0  0  0  0  0  0
    1.3007   -0.5902   26.2685 H   0  0  0  0  0  0
   -7.0025    0.6817   18.0698 H   0  0  0  0  0  0
   -1.7947    4.8975   25.8118 H   0  0  0  0  0  0
   -0.1994    4.5650   25.1341 H   0  0  0  0  0  0
   -1.2353    5.7923   24.3943 H   0  0  0  0  0  0
   -3.6222    1.4243   15.5648 H   0  0  0  0  0  0
   -6.0627    1.0707   15.8163 H   0  0  0  0  0  0
  1  2  1  0  0  0
  1  5  1  0  0  0
  1  6  1  0  0  0
  2  3  2  0  0  0
  2  8  1  0  0  0
  3  4  1  0  0  0
  3 12  1  0  0  0
  4 11  1  0  0  0
  4 10  2  0  0  0
  5  7  1  0  0  0
  5 16  2  0  0  0
  6 14  1  0  0  0
  6 15  2  0  0  0
  7 12  1  0  0  0
  7 31  1  0  0  0
  8  9  2  0  0  0
  8 32  1  0  0  0
  9 10  1  0  0  0
  9 13  1  0  0  0
 10 33  1  0  0  0
 11 17  1  0  0  0
 11 23  2  0  0  0
 12 34  1  0  0  0
 12 35  1  0  0  0
 13 18  2  0  0  0
 13 19  1  0  0  0
 14 20  1  0  0  0
 14 26  2  0  0  0
 15 21  1  0  0  0
 15 25  1  0  0  0
 17 22  1  0  0  0
 17 27  2  0  0  0
 19 28  1  0  0  0
 23 29  1  0  0  0
 23 36  1  0  0  0
 24 25  2  0  0  0
 24 26  1  0  0  0
 24 37  1  0  0  0
 25 38  1  0  0  0
 26 39  1  0  0  0
 27 30  1  0  0  0
 27 40  1  0  0  0
 28 41  1  0  0  0
 28 42  1  0  0  0
 28 43  1  0  0  0
 29 30  2  0  0  0
 29 44  1  0  0  0
 30 45  1  0  0  0
M  END
> <s_m_entry_id>
60804

> <s_m_entry_name>
dock_pv.81

> <s_m_Source_Path>
/home/csk/Desktop/cluster/DUD-E-result/mk14

> <s_m_Source_File>
dock_pv.maegz

> <i_m_Source_File_Index>
81

> <chembl_id>
CHEMBL94495

> <chembl_pref_name>
None

> <i_lp_mmshare_version>
53161

> <i_f3d_flags>
0

> <r_lp_tautomer_probability>
1

> <s_lp_Force_Field>
OPLS_2005

> <r_lp_Energy>
50.159963

> <b_lp_Chiralities_Consistent>
1

> <s_lp_Variant>
CHEMBL260_lig101-1

> <s_i_glide_gridfile>
glide-grid_2qd9

> <i_i_glide_lignum>
117

> <i_i_glide_rotatable_bonds>
4

> <r_i_docking_score>
-9.30471924675618

> <r_i_glide_ligand_efficiency>
-0.310157308225206

> <r_i_glide_ligand_efficiency_sa>
-0.963730868983897

> <r_i_glide_ligand_efficiency_ln>
-2.11413359589934

> <r_i_glide_gscore>
-9.30471924675618

> <r_i_glide_lipo>
-3.81389857582739

> <r_i_glide_hbond>
-0.717595684762755

> <r_i_glide_metal>
0

> <r_i_glide_rewards>
-2.1199538900838

> <r_i_glide_evdw>
-30.5404376983643

> <r_i_glide_ecoul>
-8.67122364044189

> <r_i_glide_erotb>
0.211909541252196

> <r_i_glide_esite>
-0.037475206349926

> <r_i_glide_emodel>
-48.9636783813823

> <r_i_glide_energy>
-39.2116613388062

> <r_i_glide_einternal>
10.8295164108276

> <i_i_glide_confnum>
9

> <i_i_glide_posenum>
190

> <r_i_glide_eff_state_penalty>
0

> <s_user_duplicate_titles>
CHEMBL260_lig101,155225

> <s_m_subgroup_title>
dock_pv

> <s_m_subgroupid>
dock_pv

> <b_m_subgroup_collapsed>
1

$$$$
CHEMBL260_lig99
                    3D
 Schrodinger Suite 2021-1.
 48 51  0  0  1  0            999 V2000
   -1.8536   -1.2364   22.6172 N   0  0  0  0  0  0
   -2.1780   -0.0155   21.9759 C   0  0  0  0  0  0
   -2.7121   -0.0094   20.6752 C   0  0  0  0  0  0
   -2.9855    1.2126   20.0152 C   0  0  0  0  0  0
   -1.9366   -2.4675   22.0398 C   0  0  0  0  0  0
   -1.4214   -1.2043   23.9808 C   0  0  0  0  0  0
   -2.4136   -2.5014   20.7745 N   0  0  0  0  0  0
   -1.9126    1.1877   22.6149 C   0  0  0  0  0  0
   -2.0350    2.3933   21.9579 C   0  0  0  0  0  0
   -2.5788    2.4115   20.6541 C   0  0  0  0  0  0
   -3.7280    1.2003   18.6831 C   0  0  0  0  0  0
   -2.9652   -1.3637   20.0220 C   0  0  0  0  0  0
   -1.3880    3.5190   22.6976 C   0  0  0  0  0  0
   -2.3547   -1.3551   25.0204 C   0  0  0  0  0  0
   -0.0769   -0.9433   24.3130 C   0  0  0  0  0  0
   -1.6360   -3.5132   22.5987 O   0  0  0  0  0  0
   -0.4350    4.1803   22.2756 O   0  0  0  0  0  0
   -5.1140    0.9515   18.6288 C   0  0  0  0  0  0
   -2.0053    3.7492   23.8820 O   0  0  0  0  0  0
   -4.0345   -1.5132   24.6844 Cl  0  0  0  0  0  0
    1.1024   -0.5634   23.1125 Cl  0  0  0  0  0  0
   -3.0931    1.3418   17.4325 C   0  0  0  0  0  0
   -0.6046   -1.1130   26.6670 C   0  0  0  0  0  0
   -1.9432   -1.3284   26.3527 C   0  0  0  0  0  0
    0.3211   -0.9051   25.6484 C   0  0  0  0  0  0
   -5.9271    0.7452   19.8760 C   0  0  0  0  0  0
   -5.8000    0.8872   17.4135 C   0  0  0  0  0  0
   -1.4663    4.6830   24.8081 C   0  0  0  0  0  0
   -3.7745    1.2874   16.2188 C   0  0  0  0  0  0
   -5.1413    1.0656   16.2068 C   0  0  0  0  0  0
   -2.5351   -3.4235   20.3722 H   0  0  0  0  0  0
   -1.4914    1.1901   23.6116 H   0  0  0  0  0  0
   -2.6891    3.3498   20.1318 H   0  0  0  0  0  0
   -4.0343   -1.5130   19.8756 H   0  0  0  0  0  0
   -2.5045   -1.3718   19.0347 H   0  0  0  0  0  0
   -2.0350    1.4546   17.3282 H   0  0  0  0  0  0
   -0.2867   -1.0881   27.6996 H   0  0  0  0  0  0
   -2.6646   -1.4574   27.1467 H   0  0  0  0  0  0
    1.3543   -0.7094   25.8979 H   0  0  0  0  0  0
   -6.2707    1.6987   20.2581 H   0  0  0  0  0  0
   -6.7833    0.0879   19.7160 H   0  0  0  0  0  0
   -5.3203    0.3195   20.6720 H   0  0  0  0  0  0
   -6.8534    0.6812   17.4079 H   0  0  0  0  0  0
   -2.1236    4.7667   25.6746 H   0  0  0  0  0  0
   -0.4850    4.3577   25.1597 H   0  0  0  0  0  0
   -1.3576    5.6728   24.3614 H   0  0  0  0  0  0
   -3.2373    1.4004   15.2876 H   0  0  0  0  0  0
   -5.6813    1.0094   15.2728 H   0  0  0  0  0  0
  1  2  1  0  0  0
  1  5  1  0  0  0
  1  6  1  0  0  0
  2  3  2  0  0  0
  2  8  1  0  0  0
  3  4  1  0  0  0
  3 12  1  0  0  0
  4 11  1  0  0  0
  4 10  2  0  0  0
  5  7  1  0  0  0
  5 16  2  0  0  0
  6 14  1  0  0  0
  6 15  2  0  0  0
  7 12  1  0  0  0
  7 31  1  0  0  0
  8  9  2  0  0  0
  8 32  1  0  0  0
  9 10  1  0  0  0
  9 13  1  0  0  0
 10 33  1  0  0  0
 11 18  1  0  0  0
 11 22  2  0  0  0
 12 34  1  0  0  0
 12 35  1  0  0  0
 13 17  2  0  0  0
 13 19  1  0  0  0
 14 20  1  0  0  0
 14 24  2  0  0  0
 15 21  1  0  0  0
 15 25  1  0  0  0
 18 26  1  0  0  0
 18 27  2  0  0  0
 19 28  1  0  0  0
 22 29  1  0  0  0
 22 36  1  0  0  0
 23 25  2  0  0  0
 23 24  1  0  0  0
 23 37  1  0  0  0
 24 38  1  0  0  0
 25 39  1  0  0  0
 26 40  1  0  0  0
 26 41  1  0  0  0
 26 42  1  0  0  0
 27 30  1  0  0  0
 27 43  1  0  0  0
 28 44  1  0  0  0
 28 45  1  0  0  0
 28 46  1  0  0  0
 29 30  2  0  0  0
 29 47  1  0  0  0
 30 48  1  0  0  0
M  END
> <s_m_entry_id>
60805

> <s_m_entry_name>
dock_pv.82

> <s_m_Source_Path>
/home/csk/Desktop/cluster/DUD-E-result/mk14

> <s_m_Source_File>
dock_pv.maegz

> <i_m_Source_File_Index>
82

> <chembl_id>
CHEMBL94377

> <chembl_pref_name>
None

> <i_lp_mmshare_version>
53161

> <i_f3d_flags>
0

> <r_lp_tautomer_probability>
1

> <s_lp_Force_Field>
OPLS_2005

> <r_lp_Energy>
49.782709

> <b_lp_Chiralities_Consistent>
1

> <s_lp_Variant>
CHEMBL260_lig99-1

> <s_i_glide_gridfile>
glide-grid_2qd9

> <i_i_glide_lignum>
115

> <i_i_glide_rotatable_bonds>
4

> <r_i_docking_score>
-9.28181590541229

> <r_i_glide_ligand_efficiency>
-0.309393863513743

> <r_i_glide_ligand_efficiency_sa>
-0.96135866876263

> <r_i_glide_ligand_efficiency_ln>
-2.10892970719412

> <r_i_glide_gscore>
-9.28181590541229

> <r_i_glide_lipo>
-4.17914988082676

> <r_i_glide_hbond>
-0.608

> <r_i_glide_metal>
0

> <r_i_glide_rewards>
-1.94879486167762

> <r_i_glide_evdw>
-29.3911056518555

> <r_i_glide_ecoul>
-8.34358692169189

> <r_i_glide_erotb>
0.215378659808984

> <r_i_glide_esite>
-0.0401565018703261

> <r_i_glide_emodel>
-48.8272537586887

> <r_i_glide_energy>
-37.7346925735474

> <r_i_glide_einternal>
12.1829280853271

> <i_i_glide_confnum>
6

> <i_i_glide_posenum>
21

> <r_i_glide_eff_state_penalty>
0

> <s_user_duplicate_titles>
CHEMBL260_lig99,154609

> <s_m_subgroup_title>
dock_pv

> <s_m_subgroupid>
dock_pv

> <b_m_subgroup_collapsed>
1

$$$$
CHEMBL260_lig98
                    3D
 Schrodinger Suite 2021-1.
 56 60  0  0  1  0            999 V2000
   -1.7366   -1.2571   22.4951 N   0  0  0  0  0  0
   -2.0934   -0.0794   21.8095 C   0  0  0  0  0  0
   -2.6588   -0.1258   20.5217 C   0  0  0  0  0  0
   -1.8138   -2.5040   21.9667 C   0  0  0  0  0  0
   -3.0497    1.0719   19.8758 C   0  0  0  0  0  0
   -1.3831   -1.1702   23.8812 C   0  0  0  0  0  0
   -2.1759   -2.5832   20.6661 N   0  0  0  0  0  0
   -3.7539    1.0837   18.5404 C   0  0  0  0  0  0
   -2.8366   -1.5058   19.9078 C   0  0  0  0  0  0
   -1.9036    1.1368   22.4325 C   0  0  0  0  0  0
   -2.3019    2.3085   21.8481 C   0  0  0  0  0  0
   -2.8350    2.2840   20.5520 C   0  0  0  0  0  0
   -1.6976    3.4943   24.0217 N   0  0  0  0  0  0
   -0.0627   -0.8608   24.2673 C   0  0  0  0  0  0
   -2.3691   -1.3042   24.8775 C   0  0  0  0  0  0
   -1.6351   -3.5129   22.6219 O   0  0  0  0  0  0
   -5.1384    0.8862   18.4695 C   0  0  0  0  0  0
   -1.6959    4.1992   26.8430 N   0  0  0  0  0  0
   -2.0689    3.5975   22.6033 C   0  0  0  0  0  0
    1.1604   -0.4835   23.1058 Cl  0  0  0  0  0  0
   -4.0350   -1.5128   24.4728 Cl  0  0  0  0  0  0
   -6.0667    0.5489   19.8760 Cl  0  0  0  0  0  0
   -3.0920    1.2871   17.3126 C   0  0  0  0  0  0
   -2.8557    3.2121   24.8859 C   0  0  0  0  0  0
   -1.0016    4.6937   24.5065 C   0  0  0  0  0  0
   -0.5532    4.4940   25.9758 C   0  0  0  0  0  0
   -2.3868    3.0078   26.3461 C   0  0  0  0  0  0
   -0.7043   -0.9618   26.5973 C   0  0  0  0  0  0
   -2.0213   -1.2194   26.2260 C   0  0  0  0  0  0
    0.2665   -0.7636   25.6192 C   0  0  0  0  0  0
   -5.8018    0.8870   17.2446 C   0  0  0  0  0  0
   -3.7571    1.3028   16.0892 C   0  0  0  0  0  0
   -5.1262    1.1030   16.0522 C   0  0  0  0  0  0
   -2.2457   -3.5196   20.2858 H   0  0  0  0  0  0
   -3.9023   -1.7227   19.8748 H   0  0  0  0  0  0
   -2.4378   -1.5101   18.8927 H   0  0  0  0  0  0
   -1.4437    1.1887   23.4043 H   0  0  0  0  0  0
   -3.1289    3.2095   20.0808 H   0  0  0  0  0  0
   -1.3762    4.0454   27.7902 H   0  0  0  0  0  0
   -1.2611    4.0869   22.0569 H   0  0  0  0  0  0
   -3.0251    4.0870   22.5281 H   0  0  0  0  0  0
   -2.0350    1.4188   17.2347 H   0  0  0  0  0  0
   -3.5837    4.0238   24.8394 H   0  0  0  0  0  0
   -3.3682    2.3112   24.5452 H   0  0  0  0  0  0
   -0.1199    4.8776   23.8902 H   0  0  0  0  0  0
   -1.6351    5.5767   24.4251 H   0  0  0  0  0  0
    0.1806    3.6883   26.0463 H   0  0  0  0  0  0
   -0.0471    5.3844   26.3492 H   0  0  0  0  0  0
   -1.7302    2.1388   26.4211 H   0  0  0  0  0  0
   -3.2340    2.7931   26.9963 H   0  0  0  0  0  0
   -0.4387   -0.8918   27.6422 H   0  0  0  0  0  0
   -2.7774   -1.3370   26.9886 H   0  0  0  0  0  0
    1.2796   -0.5282   25.9127 H   0  0  0  0  0  0
   -6.8457    0.6796   17.2208 H   0  0  0  0  0  0
   -3.2076    1.4587   15.1714 H   0  0  0  0  0  0
   -5.6535    1.0935   15.1095 H   0  0  0  0  0  0
  1  2  1  0  0  0
  1  4  1  0  0  0
  1  6  1  0  0  0
  2  3  2  0  0  0
  2 10  1  0  0  0
  3  5  1  0  0  0
  3  9  1  0  0  0
  4  7  1  0  0  0
  4 16  2  0  0  0
  5  8  1  0  0  0
  5 12  2  0  0  0
  6 14  1  0  0  0
  6 15  2  0  0  0
  7  9  1  0  0  0
  7 34  1  0  0  0
  8 17  1  0  0  0
  8 23  2  0  0  0
  9 35  1  0  0  0
  9 36  1  0  0  0
 10 11  2  0  0  0
 10 37  1  0  0  0
 11 12  1  0  0  0
 11 19  1  0  0  0
 12 38  1  0  0  0
 13 19  1  0  0  0
 13 24  1  0  0  0
 13 25  1  0  0  0
 14 20  1  0  0  0
 14 30  2  0  0  0
 15 21  1  0  0  0
 15 29  1  0  0  0
 17 22  1  0  0  0
 17 31  2  0  0  0
 18 26  1  0  0  0
 18 27  1  0  0  0
 18 39  1  0  0  0
 19 40  1  0  0  0
 19 41  1  0  0  0
 23 32  1  0  0  0
 23 42  1  0  0  0
 24 27  1  0  0  0
 24 43  1  0  0  0
 24 44  1  0  0  0
 25 26  1  0  0  0
 25 45  1  0  0  0
 25 46  1  0  0  0
 26 47  1  0  0  0
 26 48  1  0  0  0
 27 49  1  0  0  0
 27 50  1  0  0  0
 28 29  2  0  0  0
 28 30  1  0  0  0
 28 51  1  0  0  0
 29 52  1  0  0  0
 30 53  1  0  0  0
 31 33  1  0  0  0
 31 54  1  0  0  0
 32 33  2  0  0  0
 32 55  1  0  0  0
 33 56  1  0  0  0
M  END
> <s_m_entry_id>
60806

> <s_m_entry_name>
dock_pv.83

> <s_m_Source_Path>
/home/csk/Desktop/cluster/DUD-E-result/mk14

> <s_m_Source_File>
dock_pv.maegz

> <i_m_Source_File_Index>
83

> <chembl_id>
CHEMBL97227

> <chembl_pref_name>
None

> <i_lp_mmshare_version>
53161

> <i_f3d_flags>
0

> <r_lp_tautomer_probability>
1

> <s_lp_Force_Field>
OPLS_2005

> <r_lp_Energy>
69.09924

> <b_lp_Chiralities_Consistent>
1

> <s_lp_Variant>
CHEMBL260_lig98-1

> <s_i_glide_gridfile>
glide-grid_2qd9

> <i_i_glide_lignum>
114

> <i_i_glide_rotatable_bonds>
4

> <r_i_docking_score>
-9.27560004849354

> <r_i_glide_ligand_efficiency>
-0.281078789348289

> <r_i_glide_ligand_efficiency_sa>
-0.901569865217521

> <r_i_glide_ligand_efficiency_ln>
-2.06284542429824

> <r_i_glide_gscore>
-9.27560004849354

> <r_i_glide_lipo>
-4.25866187599227

> <r_i_glide_hbond>
-0.572128254086505

> <r_i_glide_metal>
0

> <r_i_glide_rewards>
-1.59524589378049

> <r_i_glide_evdw>
-38.8440284729004

> <r_i_glide_ecoul>
-7.56332635879517

> <r_i_glide_erotb>
0.22713635283002

> <r_i_glide_esite>
0

> <r_i_glide_emodel>
-46.2966607826898

> <r_i_glide_energy>
-46.4073548316956

> <r_i_glide_einternal>
3.93232703208923

> <i_i_glide_confnum>
94

> <i_i_glide_posenum>
201

> <r_i_glide_eff_state_penalty>
0

> <s_user_duplicate_titles>
CHEMBL260_lig98,154846

> <s_m_subgroup_title>
dock_pv

> <s_m_subgroupid>
dock_pv

> <b_m_subgroup_collapsed>
1

$$$$
CHEMBL260_lig1236
                    3D
 Schrodinger Suite 2021-1.
 61 65  0  0  1  0            999 V2000
    1.8107    7.6818   25.4986 N   0  0  2  0  0  0
    2.1544    6.4909   24.7247 C   0  0  2  0  0  0
    3.0929    8.3262   25.7301 C   0  0  0  0  0  0
    3.2477    6.9401   23.7443 C   0  0  0  0  0  0
    3.9058    8.1287   24.4479 C   0  0  0  0  0  0
    0.9519    5.8776   23.9683 C   0  0  0  0  0  0
    0.0705    6.5891   23.4753 O   0  0  0  0  0  0
    0.9533    4.5378   23.8470 N   0  0  0  0  0  0
   -1.7261   -2.4949   22.1902 C   0  0  0  0  0  0
   -2.0752   -2.5585   20.7848 C   0  0  0  0  0  0
   -2.5544   -1.5103   20.0887 C   0  0  0  0  0  0
   -1.6270   -1.2250   22.6926 N   0  0  0  0  0  0
   -2.0633   -0.0626   21.9828 C   0  0  0  0  0  0
   -2.6014   -0.1685   20.6766 C   0  0  0  0  0  0
   -3.1219    0.9572   20.0020 C   0  0  0  0  0  0
   -2.9818    2.1943   20.6454 C   0  0  0  0  0  0
   -2.4350    2.3194   21.9291 C   0  0  0  0  0  0
   -1.9940    1.1871   22.5842 C   0  0  0  0  0  0
   -1.6350   -3.5130   22.8685 O   0  0  0  0  0  0
   -1.2784   -1.0999   24.0712 C   0  0  0  0  0  0
   -2.2602   -1.2603   25.0705 C   0  0  0  0  0  0
   -1.9105   -1.1728   26.4182 C   0  0  0  0  0  0
   -0.5977   -0.8924   26.7868 C   0  0  0  0  0  0
    0.3649   -0.6676   25.8066 C   0  0  0  0  0  0
    0.0333   -0.7529   24.4544 C   0  0  0  0  0  0
    1.2497   -0.3321   23.2988 Cl  0  0  0  0  0  0
   -3.9242   -1.5130   24.6740 Cl  0  0  0  0  0  0
   -3.8092    0.9100   18.6574 C   0  0  0  0  0  0
   -3.0891    0.9366   17.4596 C   0  0  0  0  0  0
   -3.6827    0.9919   16.2001 C   0  0  0  0  0  0
   -5.0630    0.9724   16.1016 C   0  0  0  0  0  0
   -5.8086    0.8871   17.2679 C   0  0  0  0  0  0
   -5.2022    0.8701   18.5226 C   0  0  0  0  0  0
   -6.2250    0.6720   19.8760 Cl  0  0  0  0  0  0
   -2.4244    3.5467   22.5540 O   0  0  0  0  0  0
   -1.4814    3.8321   23.5948 C   0  0  0  0  0  0
   -0.0228    3.7702   23.0760 C   0  0  0  0  0  0
    1.4042    7.4169   26.3856 H   0  0  0  0  0  0
    2.5396    5.7229   25.4015 H   0  0  0  0  0  0
    2.9285    9.3848   25.9360 H   0  0  0  0  0  0
    3.6052    7.9015   26.5961 H   0  0  0  0  0  0
    2.8507    7.2522   22.7755 H   0  0  0  0  0  0
    3.9655    6.1376   23.5763 H   0  0  0  0  0  0
    3.8686    9.0221   23.8242 H   0  0  0  0  0  0
    4.9516    7.9284   24.6801 H   0  0  0  0  0  0
    1.7332    4.0206   24.2321 H   0  0  0  0  0  0
   -2.0157   -3.5191   20.3005 H   0  0  0  0  0  0
   -2.8350   -1.6539   19.0627 H   0  0  0  0  0  0
   -3.3523    3.0830   20.1582 H   0  0  0  0  0  0
   -1.6131    1.2828   23.5856 H   0  0  0  0  0  0
   -2.6610   -1.3113   27.1829 H   0  0  0  0  0  0
   -0.3295   -0.8263   27.8317 H   0  0  0  0  0  0
    1.3733   -0.4141   26.1009 H   0  0  0  0  0  0
   -2.0350    0.8870   17.4760 H   0  0  0  0  0  0
   -3.0738    1.0221   15.3076 H   0  0  0  0  0  0
   -5.5483    0.9911   15.1363 H   0  0  0  0  0  0
   -6.8684    0.8201   17.2035 H   0  0  0  0  0  0
   -1.6263    3.2106   24.4791 H   0  0  0  0  0  0
   -1.7162    4.8387   23.9357 H   0  0  0  0  0  0
    0.0187    4.0887   22.0324 H   0  0  0  0  0  0
    0.3144    2.7333   23.0760 H   0  0  0  0  0  0
  1  2  1  0  0  0
  1  3  1  0  0  0
  1 38  1  0  0  0
  2  4  1  0  0  0
  2  6  1  0  0  0
  2 39  1  0  0  0
  3  5  1  0  0  0
  3 40  1  0  0  0
  3 41  1  0  0  0
  4  5  1  0  0  0
  4 42  1  0  0  0
  4 43  1  0  0  0
  5 44  1  0  0  0
  5 45  1  0  0  0
  6  7  2  0  0  0
  6  8  1  0  0  0
  8 37  1  0  0  0
  8 46  1  0  0  0
  9 19  2  0  0  0
  9 12  1  0  0  0
  9 10  1  0  0  0
 10 11  2  0  0  0
 10 47  1  0  0  0
 11 14  1  0  0  0
 11 48  1  0  0  0
 12 20  1  0  0  0
 12 13  1  0  0  0
 13 18  1  0  0  0
 13 14  2  0  0  0
 14 15  1  0  0  0
 15 16  2  0  0  0
 15 28  1  0  0  0
 16 17  1  0  0  0
 16 49  1  0  0  0
 17 35  1  0  0  0
 17 18  2  0  0  0
 18 50  1  0  0  0
 20 21  2  0  0  0
 20 25  1  0  0  0
 21 22  1  0  0  0
 21 27  1  0  0  0
 22 23  2  0  0  0
 22 51  1  0  0  0
 23 24  1  0  0  0
 23 52  1  0  0  0
 24 25  2  0  0  0
 24 53  1  0  0  0
 25 26  1  0  0  0
 28 29  2  0  0  0
 28 33  1  0  0  0
 29 30  1  0  0  0
 29 54  1  0  0  0
 30 31  2  0  0  0
 30 55  1  0  0  0
 31 32  1  0  0  0
 31 56  1  0  0  0
 32 33  2  0  0  0
 32 57  1  0  0  0
 33 34  1  0  0  0
 35 36  1  0  0  0
 36 37  1  0  0  0
 36 58  1  0  0  0
 36 59  1  0  0  0
 37 60  1  0  0  0
 37 61  1  0  0  0
M  END
> <s_m_entry_id>
60807

> <s_m_entry_name>
dock_pv.84

> <s_m_Source_Path>
/home/csk/Desktop/cluster/DUD-E-result/mk14

> <s_m_Source_File>
dock_pv.maegz

> <i_m_Source_File_Index>
84

> <chembl_id>
CHEMBL256421

> <chembl_pref_name>
None

> <i_lp_mmshare_version>
53161

> <i_f3d_flags>
0

> <r_lp_tautomer_probability>
1

> <s_lp_Force_Field>
OPLS_2005

> <r_lp_Energy>
69.935809

> <b_lp_Chiralities_Consistent>
1

> <s_lp_Variant>
CHEMBL260_lig1236-1

> <s_i_glide_gridfile>
glide-grid_2qd9

> <i_i_glide_lignum>
1409

> <i_i_glide_rotatable_bonds>
8

> <r_i_docking_score>
-9.26387832950638

> <r_i_glide_ligand_efficiency>
-0.250375089986659

> <r_i_glide_ligand_efficiency_sa>
-0.834305344957164

> <r_i_glide_ligand_efficiency_ln>
-2.00911803354873

> <r_i_glide_gscore>
-9.26387832950638

> <r_i_glide_lipo>
-4.77846704336569

> <r_i_glide_hbond>
-0.476843209732391

> <r_i_glide_metal>
0

> <r_i_glide_rewards>
-0.360269129433893

> <r_i_glide_evdw>
-41.590461730957

> <r_i_glide_ecoul>
-12.7293834686279

> <r_i_glide_erotb>
0.392674909442018

> <r_i_glide_esite>
-0.0520432495743871

> <r_i_glide_emodel>
-65.8727480799535

> <r_i_glide_energy>
-54.319845199585

> <r_i_glide_einternal>
4.6296968460083

> <i_i_glide_confnum>
10

> <i_i_glide_posenum>
129

> <r_i_glide_eff_state_penalty>
0

> <s_user_duplicate_titles>
CHEMBL260_lig1236,434182

> <s_m_subgroup_title>
dock_pv

> <s_m_subgroupid>
dock_pv

> <b_m_subgroup_collapsed>
1

$$$$
CHEMBL260_lig1245
                    3D
 Schrodinger Suite 2021-1.
 45 48  0  0  1  0            999 V2000
   -1.8346   -2.2319   22.0652 C   0  0  0  0  0  0
   -1.8153   -1.9451   20.5461 C   0  0  2  0  0  0
   -3.1144   -1.2136   20.1495 C   0  0  0  0  0  0
   -2.0892   -1.0675   22.7260 N   0  0  0  0  0  0
   -2.4458    0.1557   22.0808 C   0  0  0  0  0  0
   -2.9939    0.1531   20.7746 C   0  0  0  0  0  0
   -3.2358    1.3493   20.0635 C   0  0  0  0  0  0
   -2.8110    2.5361   20.6736 C   0  0  0  0  0  0
   -2.1817    2.5299   21.9338 C   0  0  0  0  0  0
   -2.0673    1.3512   22.6508 C   0  0  0  0  0  0
   -1.6521   -3.3439   22.5795 O   0  0  0  0  0  0
   -1.6351   -3.1259   19.8761 O   0  0  0  0  0  0
   -2.1233   -1.1413   24.1359 C   0  0  0  0  0  0
   -0.9369   -1.0354   24.8888 C   0  0  0  0  0  0
   -0.9857   -1.1640   26.2769 C   0  0  0  0  0  0
   -2.1989   -1.4093   26.9173 C   0  0  0  0  0  0
   -3.3723   -1.5142   26.1725 C   0  0  0  0  0  0
   -3.3454   -1.3703   24.7841 C   0  0  0  0  0  0
   -4.8220   -1.5083   23.8770 Cl  0  0  0  0  0  0
    0.6005   -0.7615   24.1368 Cl  0  0  0  0  0  0
   -3.8932    1.3471   18.6940 C   0  0  0  0  0  0
   -3.2349    1.7569   17.5119 C   0  0  0  0  0  0
   -3.8297    1.6881   16.2540 C   0  0  0  0  0  0
   -5.1370    1.2503   16.1324 C   0  0  0  0  0  0
   -5.8285    0.8865   17.2768 C   0  0  0  0  0  0
   -5.2223    0.9155   18.5321 C   0  0  0  0  0  0
   -6.2001    0.4870   19.8755 Cl  0  0  0  0  0  0
   -1.6335    3.6870   22.4130 O   0  0  0  0  0  0
   -0.7561    3.6847   23.5393 C   0  0  0  0  0  0
   -0.9280   -1.3514   20.3097 H   0  0  0  0  0  0
   -4.0208   -1.7092   20.4991 H   0  0  0  0  0  0
   -3.1827   -1.1419   19.0758 H   0  0  0  0  0  0
   -2.9138    3.4706   20.1438 H   0  0  0  0  0  0
   -1.5902    1.3426   23.6174 H   0  0  0  0  0  0
   -2.3542   -3.7442   20.0694 H   0  0  0  0  0  0
   -0.0777   -1.0883   26.8582 H   0  0  0  0  0  0
   -2.2261   -1.5253   27.9913 H   0  0  0  0  0  0
   -4.3063   -1.7113   26.6763 H   0  0  0  0  0  0
   -2.2599    2.1954   17.4758 H   0  0  0  0  0  0
   -3.2835    2.0065   15.3772 H   0  0  0  0  0  0
   -5.6130    1.2018   15.1636 H   0  0  0  0  0  0
   -6.8350    0.5305   17.1857 H   0  0  0  0  0  0
   -0.3420    4.6840   23.6724 H   0  0  0  0  0  0
   -1.2824    3.4228   24.4579 H   0  0  0  0  0  0
    0.0826    3.0012   23.3985 H   0  0  0  0  0  0
  1 11  2  0  0  0
  1  2  1  0  0  0
  1  4  1  0  0  0
  2  3  1  0  0  0
  2 12  1  0  0  0
  2 30  1  0  0  0
  3  6  1  0  0  0
  3 31  1  0  0  0
  3 32  1  0  0  0
  4  5  1  0  0  0
  4 13  1  0  0  0
  5 10  1  0  0  0
  5  6  2  0  0  0
  6  7  1  0  0  0
  7  8  2  0  0  0
  7 21  1  0  0  0
  8  9  1  0  0  0
  8 33  1  0  0  0
  9 10  2  0  0  0
  9 28  1  0  0  0
 10 34  1  0  0  0
 12 35  1  0  0  0
 13 14  2  0  0  0
 13 18  1  0  0  0
 14 15  1  0  0  0
 14 20  1  0  0  0
 15 16  2  0  0  0
 15 36  1  0  0  0
 16 17  1  0  0  0
 16 37  1  0  0  0
 17 18  2  0  0  0
 17 38  1  0  0  0
 18 19  1  0  0  0
 21 22  2  0  0  0
 21 26  1  0  0  0
 22 23  1  0  0  0
 22 39  1  0  0  0
 23 24  2  0  0  0
 23 40  1  0  0  0
 24 25  1  0  0  0
 24 41  1  0  0  0
 25 26  2  0  0  0
 25 42  1  0  0  0
 26 27  1  0  0  0
 28 29  1  0  0  0
 29 43  1  0  0  0
 29 44  1  0  0  0
 29 45  1  0  0  0
M  END
> <s_m_entry_id>
60808

> <s_m_entry_name>
dock_pv.85

> <s_m_Source_Path>
/home/csk/Desktop/cluster/DUD-E-result/mk14

> <s_m_Source_File>
dock_pv.maegz

> <i_m_Source_File_Index>
85

> <chembl_id>
CHEMBL270812

> <chembl_pref_name>
None

> <i_lp_mmshare_version>
53161

> <i_f3d_flags>
0

> <r_lp_tautomer_probability>
1

> <s_lp_Force_Field>
OPLS_2005

> <r_lp_Energy>
52.39442

> <b_lp_Chiralities_Consistent>
1

> <s_lp_Variant>
CHEMBL260_lig1245-2

> <s_i_glide_gridfile>
glide-grid_2qd9

> <i_i_glide_lignum>
1420

> <i_i_glide_rotatable_bonds>
4

> <r_i_docking_score>
-9.25060312748159

> <r_i_glide_ligand_efficiency>
-0.318986314740744

> <r_i_glide_ligand_efficiency_sa>
-0.980027020841497

> <r_i_glide_ligand_efficiency_ln>
-2.11815354113766

> <r_i_glide_gscore>
-9.25060312748159

> <r_i_glide_lipo>
-4.40115388718319

> <r_i_glide_hbond>
-0.304

> <r_i_glide_metal>
0

> <r_i_glide_rewards>
-1.63846604706919

> <r_i_glide_evdw>
-30.7070541381836

> <r_i_glide_ecoul>
-10.4708919525146

> <r_i_glide_erotb>
0.199003306557165

> <r_i_glide_esite>
0

> <r_i_glide_emodel>
-45.8580139305361

> <r_i_glide_energy>
-41.1779460906982

> <r_i_glide_einternal>
1.00836277008057

> <i_i_glide_confnum>
12

> <i_i_glide_posenum>
348

> <r_i_glide_eff_state_penalty>
0

> <s_user_duplicate_titles>
CHEMBL260_lig1245,434385

> <s_m_subgroup_title>
dock_pv

> <s_m_subgroupid>
dock_pv

> <b_m_subgroup_collapsed>
1

$$$$
CHEMBL260_lig1045
                    3D
 Schrodinger Suite 2021-1.
 40 43  0  0  1  0            999 V2000
   -1.8211   -1.5703   21.1008 C   0  0  0  0  0  0
   -1.7413   -1.1375   22.5175 N   0  0  0  0  0  0
   -1.6744    0.3209   22.7953 C   0  0  0  0  0  0
   -3.0444   -0.8766   20.4532 C   0  0  0  0  0  0
   -3.2355    1.5983   19.7472 C   0  0  0  0  0  0
   -2.8352    0.5612   20.5645 N   0  0  0  0  0  0
   -2.2937    1.1499   21.6785 C   0  0  0  0  0  0
   -2.4346    2.5059   21.4347 C   0  0  0  0  0  0
   -2.9241    2.7718   20.2405 N   0  0  0  0  0  0
   -1.7994   -2.0577   23.5198 C   0  0  0  0  0  0
   -2.0347   -3.2526   23.3307 O   0  0  0  0  0  0
   -1.5350   -1.6033   24.9329 C   0  0  0  0  0  0
   -3.9675    1.4030   18.4695 C   0  0  0  0  0  0
   -5.2607    0.8868   18.5396 C   0  0  0  0  0  0
   -5.9638    0.6128   17.3777 C   0  0  0  0  0  0
   -5.3901    0.8405   16.1327 C   0  0  0  0  0  0
   -4.1217    1.4035   16.0460 C   0  0  0  0  0  0
   -3.4120    1.6870   17.2121 C   0  0  0  0  0  0
   -6.0346    0.4461   15.0189 F   0  0  0  0  0  0
   -5.8281    0.5872   19.7296 F   0  0  0  0  0  0
   -2.5250   -1.7623   25.9107 C   0  0  0  0  0  0
   -2.2791   -1.3842   27.2302 C   0  0  0  0  0  0
   -1.0400   -0.8540   27.5860 C   0  0  0  0  0  0
   -0.0415   -0.7108   26.6252 C   0  0  0  0  0  0
   -0.2786   -1.0941   25.3052 C   0  0  0  0  0  0
    0.7223   -0.9717   24.4000 F   0  0  0  0  0  0
   -0.8055   -0.4861   28.8647 F   0  0  0  0  0  0
   -0.9032   -1.2509   20.6040 H   0  0  0  0  0  0
   -1.8989   -2.6537   20.9883 H   0  0  0  0  0  0
   -2.1260    0.5873   23.7521 H   0  0  0  0  0  0
   -0.6343    0.6152   22.9412 H   0  0  0  0  0  0
   -3.1517   -1.1620   19.4080 H   0  0  0  0  0  0
   -3.9596   -1.1255   20.9897 H   0  0  0  0  0  0
   -2.0907    3.2868   22.0942 H   0  0  0  0  0  0
   -6.8904    0.0882   17.4763 H   0  0  0  0  0  0
   -3.6775    1.5859   15.0781 H   0  0  0  0  0  0
   -2.4349    2.1230   17.1042 H   0  0  0  0  0  0
   -3.4904   -2.1745   25.6558 H   0  0  0  0  0  0
   -3.0425   -1.5110   27.9837 H   0  0  0  0  0  0
    0.9220   -0.3118   26.9084 H   0  0  0  0  0  0
  1  4  1  0  0  0
  1  2  1  0  0  0
  1 28  1  0  0  0
  1 29  1  0  0  0
  2  3  1  0  0  0
  2 10  1  0  0  0
  3  7  1  0  0  0
  3 30  1  0  0  0
  3 31  1  0  0  0
  4  6  1  0  0  0
  4 32  1  0  0  0
  4 33  1  0  0  0
  5 13  1  0  0  0
  5  6  1  0  0  0
  5  9  2  0  0  0
  6  7  1  0  0  0
  7  8  2  0  0  0
  8  9  1  0  0  0
  8 34  1  0  0  0
 10 11  2  0  0  0
 10 12  1  0  0  0
 12 21  2  0  0  0
 12 25  1  0  0  0
 13 14  2  0  0  0
 13 18  1  0  0  0
 14 15  1  0  0  0
 14 20  1  0  0  0
 15 16  2  0  0  0
 15 35  1  0  0  0
 16 17  1  0  0  0
 16 19  1  0  0  0
 17 18  2  0  0  0
 17 36  1  0  0  0
 18 37  1  0  0  0
 21 22  1  0  0  0
 21 38  1  0  0  0
 22 23  2  0  0  0
 22 39  1  0  0  0
 23 24  1  0  0  0
 23 27  1  0  0  0
 24 25  2  0  0  0
 24 40  1  0  0  0
 25 26  1  0  0  0
M  END
> <s_m_entry_id>
60809

> <s_m_entry_name>
dock_pv.86

> <s_m_Source_Path>
/home/csk/Desktop/cluster/DUD-E-result/mk14

> <s_m_Source_File>
dock_pv.maegz

> <i_m_Source_File_Index>
86

> <chembl_id>
CHEMBL243957

> <chembl_pref_name>
None

> <i_lp_mmshare_version>
53161

> <i_f3d_flags>
0

> <r_lp_tautomer_probability>
1

> <s_lp_Force_Field>
OPLS_2005

> <r_lp_Energy>
38.880896

> <b_lp_Chiralities_Consistent>
1

> <s_lp_Variant>
CHEMBL260_lig1045-1

> <s_i_glide_gridfile>
glide-grid_2qd9

> <i_i_glide_lignum>
1172

> <i_i_glide_rotatable_bonds>
3

> <r_i_docking_score>
-9.21943595959861

> <r_i_glide_ligand_efficiency>
-0.341460591096245

> <r_i_glide_ligand_efficiency_sa>
-1.02438177216334

> <r_i_glide_ligand_efficiency_ln>
-2.14613269711376

> <r_i_glide_gscore>
-9.21943595959861

> <r_i_glide_lipo>
-3.50749328699755

> <r_i_glide_hbond>
-0.588155616006296

> <r_i_glide_metal>
0

> <r_i_glide_rewards>
-2.74003746170905

> <r_i_glide_evdw>
-39.0179634094238

> <r_i_glide_ecoul>
-5.63236236572266

> <r_i_glide_erotb>
0.412002930443873

> <r_i_glide_esite>
0

> <r_i_glide_emodel>
-63.5770106963875

> <r_i_glide_energy>
-44.6503257751465

> <r_i_glide_einternal>
2.42970943450928

> <i_i_glide_confnum>
56

> <i_i_glide_posenum>
374

> <r_i_glide_eff_state_penalty>
0

> <s_user_duplicate_titles>
CHEMBL260_lig1045,386123

> <s_m_subgroup_title>
dock_pv

> <s_m_subgroupid>
dock_pv

> <b_m_subgroup_collapsed>
1

$$$$
CHEMBL260_lig1242
                    3D
 Schrodinger Suite 2021-1.
 39 42  0  0  1  0            999 V2000
   -1.7356   -2.4781   22.1333 C   0  0  0  0  0  0
   -2.0864   -2.5056   20.7272 C   0  0  0  0  0  0
   -2.5590   -1.4346   20.0582 C   0  0  0  0  0  0
   -1.6443   -1.2249   22.6755 N   0  0  0  0  0  0
   -2.0543   -0.0372   21.9881 C   0  0  0  0  0  0
   -2.5912   -0.1021   20.6754 C   0  0  0  0  0  0
   -3.0678    1.0546   20.0092 C   0  0  0  0  0  0
   -2.8630    2.2823   20.6658 C   0  0  0  0  0  0
   -2.3482    2.3429   21.9656 C   0  0  0  0  0  0
   -1.9487    1.2000   22.6127 C   0  0  0  0  0  0
   -1.6348   -3.5130   22.7823 O   0  0  0  0  0  0
   -1.3631   -1.1468   24.0748 C   0  0  0  0  0  0
   -2.4078   -1.2685   25.0110 C   0  0  0  0  0  0
   -2.1479   -1.1779   26.3784 C   0  0  0  0  0  0
   -0.8532   -0.9426   26.8314 C   0  0  0  0  0  0
    0.1836   -0.7928   25.9152 C   0  0  0  0  0  0
   -0.0585   -0.9005   24.5454 C   0  0  0  0  0  0
    1.2772   -0.6855   23.4760 Cl  0  0  0  0  0  0
   -4.0377   -1.5079   24.5046 Cl  0  0  0  0  0  0
   -3.7753    1.0388   18.6645 C   0  0  0  0  0  0
   -3.0895    1.2260   17.4565 C   0  0  0  0  0  0
   -3.7060    1.2869   16.2095 C   0  0  0  0  0  0
   -5.0763    1.1219   16.1242 C   0  0  0  0  0  0
   -5.7882    0.8870   17.2900 C   0  0  0  0  0  0
   -5.1608    0.8564   18.5359 C   0  0  0  0  0  0
   -6.1528    0.4872   19.8759 Cl  0  0  0  0  0  0
   -2.2297    3.5007   22.6760 O   0  0  0  0  0  0
   -2.0321   -3.4641   20.2301 H   0  0  0  0  0  0
   -2.8352   -1.5498   19.0275 H   0  0  0  0  0  0
   -3.1827    3.1972   20.1912 H   0  0  0  0  0  0
   -1.5501    1.2894   23.6120 H   0  0  0  0  0  0
   -2.9529   -1.2823   27.0914 H   0  0  0  0  0  0
   -0.6519   -0.8719   27.8908 H   0  0  0  0  0  0
    1.1859   -0.6031   26.2729 H   0  0  0  0  0  0
   -2.0350    1.2879   17.4421 H   0  0  0  0  0  0
   -3.1191    1.4362   15.3141 H   0  0  0  0  0  0
   -5.5759    1.1417   15.1663 H   0  0  0  0  0  0
   -6.8353    0.6968   17.2244 H   0  0  0  0  0  0
   -1.7929    3.3512   23.5188 H   0  0  0  0  0  0
  1  4  1  0  0  0
  1 11  2  0  0  0
  1  2  1  0  0  0
  2  3  2  0  0  0
  2 28  1  0  0  0
  3  6  1  0  0  0
  3 29  1  0  0  0
  4  5  1  0  0  0
  4 12  1  0  0  0
  5 10  1  0  0  0
  5  6  2  0  0  0
  6  7  1  0  0  0
  7  8  2  0  0  0
  7 20  1  0  0  0
  8  9  1  0  0  0
  8 30  1  0  0  0
  9 10  2  0  0  0
  9 27  1  0  0  0
 10 31  1  0  0  0
 12 13  2  0  0  0
 12 17  1  0  0  0
 13 14  1  0  0  0
 13 19  1  0  0  0
 14 15  2  0  0  0
 14 32  1  0  0  0
 15 16  1  0  0  0
 15 33  1  0  0  0
 16 17  2  0  0  0
 16 34  1  0  0  0
 17 18  1  0  0  0
 20 21  2  0  0  0
 20 25  1  0  0  0
 21 22  1  0  0  0
 21 35  1  0  0  0
 22 23  2  0  0  0
 22 36  1  0  0  0
 23 24  1  0  0  0
 23 37  1  0  0  0
 24 25  2  0  0  0
 24 38  1  0  0  0
 25 26  1  0  0  0
 27 39  1  0  0  0
M  END
> <s_m_entry_id>
60810

> <s_m_entry_name>
dock_pv.87

> <s_m_Source_Path>
/home/csk/Desktop/cluster/DUD-E-result/mk14

> <s_m_Source_File>
dock_pv.maegz

> <i_m_Source_File_Index>
87

> <chembl_id>
CHEMBL257236

> <chembl_pref_name>
None

> <i_lp_mmshare_version>
53161

> <i_f3d_flags>
0

> <r_lp_tautomer_probability>
1

> <s_lp_Force_Field>
OPLS_2005

> <r_lp_Energy>
46.222419

> <b_lp_Chiralities_Consistent>
1

> <s_lp_Variant>
CHEMBL260_lig1242-1

> <s_i_glide_gridfile>
glide-grid_2qd9

> <i_i_glide_lignum>
1415

> <i_i_glide_rotatable_bonds>
3

> <r_i_docking_score>
-9.20642288424927

> <r_i_glide_ligand_efficiency>
-0.340978625342566

> <r_i_glide_ligand_efficiency_sa>
-1.02293587490389

> <r_i_glide_ligand_efficiency_ln>
-2.14310346770975

> <r_i_glide_gscore>
-9.20642288424927

> <r_i_glide_lipo>
-4.92051320407089

> <r_i_glide_hbond>
-0.417369429026173

> <r_i_glide_metal>
0

> <r_i_glide_rewards>
-0.999266710226629

> <r_i_glide_evdw>
-33.3987426757812

> <r_i_glide_ecoul>
-9.51288414001465

> <r_i_glide_erotb>
0.227596213865675

> <r_i_glide_esite>
0

> <r_i_glide_emodel>
-47.5766535523653

> <r_i_glide_energy>
-42.9116268157959

> <r_i_glide_einternal>
2.05154871940613

> <i_i_glide_confnum>
5

> <i_i_glide_posenum>
118

> <r_i_glide_eff_state_penalty>
0

> <s_user_duplicate_titles>
CHEMBL260_lig1242,434336

> <s_m_subgroup_title>
dock_pv

> <s_m_subgroupid>
dock_pv

> <b_m_subgroup_collapsed>
1

$$$$
CHEMBL260_lig111
                    3D
 Schrodinger Suite 2021-1.
 55 59  0  0  1  0            999 V2000
   -1.8488   -1.2060   22.4079 N   0  0  0  0  0  0
   -2.1732    0.0478   21.8210 C   0  0  0  0  0  0
   -2.7506    0.0953   20.5474 C   0  0  0  0  0  0
   -1.8496   -2.4135   21.7650 C   0  0  0  0  0  0
   -3.1477    1.3271   19.9805 C   0  0  0  0  0  0
   -1.7077   -1.2494   23.8190 C   0  0  0  0  0  0
   -2.1911   -2.3560   20.4610 N   0  0  0  0  0  0
   -3.8667    1.3554   18.6495 C   0  0  0  0  0  0
   -2.8866   -1.2308   19.8183 C   0  0  0  0  0  0
   -1.9196    1.2357   22.4981 C   0  0  0  0  0  0
   -2.2136    2.4793   21.9543 C   0  0  0  0  0  0
   -2.8346    2.5077   20.6854 C   0  0  0  0  0  0
   -2.8501   -1.3751   24.6282 C   0  0  0  0  0  0
   -0.4456   -1.0803   24.4212 C   0  0  0  0  0  0
   -1.6352   -3.5129   22.2769 O   0  0  0  0  0  0
   -5.1957    0.9207   18.5132 C   0  0  0  0  0  0
    0.9737    5.6907   23.7857 N   0  0  2  0  0  0
   -1.9138    3.6549   22.6444 O   0  0  0  0  0  0
   -4.4349   -1.3991   23.9315 Cl  0  0  0  0  0  0
    0.9673   -0.7192   23.4854 Cl  0  0  0  0  0  0
   -6.1382    0.4871   19.8759 Cl  0  0  0  0  0  0
   -1.1515    3.6205   23.8760 C   0  0  0  0  0  0
    0.3480    3.3116   23.6437 C   0  0  0  0  0  0
   -1.2339    4.9562   24.6429 C   0  0  0  0  0  0
   -3.2350    1.7773   17.4683 C   0  0  0  0  0  0
   -0.4155    6.0918   23.9903 C   0  0  0  0  0  0
    1.0833    4.4856   22.9643 C   0  0  0  0  0  0
   -1.4615   -1.3104   26.6059 C   0  0  0  0  0  0
   -2.7192   -1.4252   26.0162 C   0  0  0  0  0  0
   -0.3320   -1.1215   25.8111 C   0  0  0  0  0  0
   -5.8240    0.8869   17.2677 C   0  0  0  0  0  0
   -3.8393    1.6951   16.2154 C   0  0  0  0  0  0
   -5.1464    1.2483   16.1123 C   0  0  0  0  0  0
   -2.2216   -3.2492   19.9869 H   0  0  0  0  0  0
   -3.9395   -1.4830   19.7043 H   0  0  0  0  0  0
   -2.4637   -1.1254   18.8177 H   0  0  0  0  0  0
   -1.4545    1.1773   23.4635 H   0  0  0  0  0  0
   -3.0913    3.4632   20.2568 H   0  0  0  0  0  0
    1.3864    5.4797   24.6846 H   0  0  0  0  0  0
   -1.5703    2.8965   24.5760 H   0  0  0  0  0  0
    0.8404    3.1139   24.5975 H   0  0  0  0  0  0
    0.4824    2.3942   23.0759 H   0  0  0  0  0  0
   -2.2735    5.2452   24.7818 H   0  0  0  0  0  0
   -0.8481    4.8226   25.6554 H   0  0  0  0  0  0
   -2.2614    2.2199   17.4758 H   0  0  0  0  0  0
   -0.4339    6.9837   24.6181 H   0  0  0  0  0  0
   -0.8344    6.3729   23.0254 H   0  0  0  0  0  0
    2.1348    4.2432   22.8044 H   0  0  0  0  0  0
    0.6519    4.6906   21.9821 H   0  0  0  0  0  0
   -1.3623   -1.3460   27.6815 H   0  0  0  0  0  0
   -3.5954   -1.5336   26.6392 H   0  0  0  0  0  0
    0.6358   -0.9965   26.2766 H   0  0  0  0  0  0
   -6.8349    0.5320   17.1956 H   0  0  0  0  0  0
   -3.3053    2.0155   15.3318 H   0  0  0  0  0  0
   -5.6335    1.1955   15.1493 H   0  0  0  0  0  0
  1  2  1  0  0  0
  1  4  1  0  0  0
  1  6  1  0  0  0
  2  3  2  0  0  0
  2 10  1  0  0  0
  3  5  1  0  0  0
  3  9  1  0  0  0
  4  7  1  0  0  0
  4 15  2  0  0  0
  5  8  1  0  0  0
  5 12  2  0  0  0
  6 13  2  0  0  0
  6 14  1  0  0  0
  7  9  1  0  0  0
  7 34  1  0  0  0
  8 16  1  0  0  0
  8 25  2  0  0  0
  9 35  1  0  0  0
  9 36  1  0  0  0
 10 11  2  0  0  0
 10 37  1  0  0  0
 11 12  1  0  0  0
 11 18  1  0  0  0
 12 38  1  0  0  0
 13 19  1  0  0  0
 13 29  1  0  0  0
 14 20  1  0  0  0
 14 30  2  0  0  0
 16 21  1  0  0  0
 16 31  2  0  0  0
 17 26  1  0  0  0
 17 27  1  0  0  0
 17 39  1  0  0  0
 18 22  1  0  0  0
 22 23  1  0  0  0
 22 24  1  0  0  0
 22 40  1  0  0  0
 23 27  1  0  0  0
 23 41  1  0  0  0
 23 42  1  0  0  0
 24 26  1  0  0  0
 24 43  1  0  0  0
 24 44  1  0  0  0
 25 32  1  0  0  0
 25 45  1  0  0  0
 26 46  1  0  0  0
 26 47  1  0  0  0
 27 48  1  0  0  0
 27 49  1  0  0  0
 28 30  1  0  0  0
 28 29  2  0  0  0
 28 50  1  0  0  0
 29 51  1  0  0  0
 30 52  1  0  0  0
 31 33  1  0  0  0
 31 53  1  0  0  0
 32 33  2  0  0  0
 32 54  1  0  0  0
 33 55  1  0  0  0
M  END
> <s_m_entry_id>
60811

> <s_m_entry_name>
dock_pv.88

> <s_m_Source_Path>
/home/csk/Desktop/cluster/DUD-E-result/mk14

> <s_m_Source_File>
dock_pv.maegz

> <i_m_Source_File_Index>
88

> <chembl_id>
CHEMBL94825

> <chembl_pref_name>
None

> <i_lp_mmshare_version>
53161

> <i_f3d_flags>
0

> <r_lp_tautomer_probability>
1

> <s_lp_Force_Field>
OPLS_2005

> <r_lp_Energy>
64.442653

> <b_lp_Chiralities_Consistent>
1

> <s_lp_Variant>
CHEMBL260_lig111-1

> <s_i_glide_gridfile>
glide-grid_2qd9

> <i_i_glide_lignum>
127

> <i_i_glide_rotatable_bonds>
4

> <r_i_docking_score>
-9.19929806619422

> <r_i_glide_ligand_efficiency>
-0.278766608066491

> <r_i_glide_ligand_efficiency_sa>
-0.894153464387625

> <r_i_glide_ligand_efficiency_ln>
-2.04587625850539

> <r_i_glide_gscore>
-9.19929806619422

> <r_i_glide_lipo>
-4.31796697732435

> <r_i_glide_hbond>
-0.458545668905559

> <r_i_glide_metal>
0

> <r_i_glide_rewards>
-1.33976099763731

> <r_i_glide_evdw>
-42.6872901916504

> <r_i_glide_ecoul>
-8.47983932495117

> <r_i_glide_erotb>
0.323315985998201

> <r_i_glide_esite>
0

> <r_i_glide_emodel>
-61.3158771216308

> <r_i_glide_energy>
-51.1671295166016

> <r_i_glide_einternal>
9.07672882080078

> <i_i_glide_confnum>
213

> <i_i_glide_posenum>
289

> <r_i_glide_eff_state_penalty>
0

> <s_user_duplicate_titles>
CHEMBL260_lig111,154579

> <s_m_subgroup_title>
dock_pv

> <s_m_subgroupid>
dock_pv

> <b_m_subgroup_collapsed>
1

$$$$
CHEMBL260_lig1049
                    3D
 Schrodinger Suite 2021-1.
 47 51  0  0  1  0            999 V2000
   -3.1245   -1.7431   21.5083 C   0  0  0  0  0  0
   -2.1854   -1.2232   22.5310 N   0  0  0  0  0  0
   -2.0414    0.2487   22.7073 C   0  0  0  0  0  0
   -2.9223   -1.0807   20.1261 C   0  0  0  0  0  0
   -3.2350    1.4205   19.4555 N   0  0  0  0  0  0
   -2.8364    0.4151   20.3068 C   0  0  0  0  0  0
   -2.4302    1.0310   21.4683 C   0  0  0  0  0  0
   -2.4356    2.3918   21.1474 C   0  0  0  0  0  0
   -2.9557    2.6337   19.9639 N   0  0  0  0  0  0
   -1.7959   -2.0957   23.5071 C   0  0  0  0  0  0
   -2.0346   -3.3073   23.4754 O   0  0  0  0  0  0
   -3.8600    1.3179   18.1976 C   0  0  0  0  0  0
   -5.1975    0.9086   18.0921 C   0  0  0  0  0  0
   -5.8100    0.8868   16.8407 C   0  0  0  0  0  0
   -5.1055    1.2323   15.6916 C   0  0  0  0  0  0
   -3.7775    1.6322   15.7939 C   0  0  0  0  0  0
   -3.1609    1.6870   17.0395 C   0  0  0  0  0  0
   -6.1421    0.4873   19.4759 Cl  0  0  0  0  0  0
   -1.1590   -1.5416   24.7552 C   0  0  0  0  0  0
   -1.8466   -1.6743   25.9663 C   0  0  0  0  0  0
    0.6319   -0.2915   25.8447 C   0  0  0  0  0  0
    0.0729   -0.8831   24.7129 C   0  0  0  0  0  0
    0.2300    0.0215   28.3322 N   0  0  0  0  0  0
   -0.0638   -0.4247   27.0532 C   0  0  0  0  0  0
   -1.3054   -1.1215   27.1326 C   0  0  0  0  0  0
   -1.7231   -1.0913   28.4994 C   0  0  0  0  0  0
   -0.7546   -0.4020   29.1955 C   0  0  0  0  0  0
    1.4242    0.7466   28.7243 C   0  0  0  0  0  0
   -3.0210   -2.8183   21.3436 H   0  0  0  0  0  0
   -4.1169   -1.5113   21.8750 H   0  0  0  0  0  0
   -1.0057    0.5099   22.9190 H   0  0  0  0  0  0
   -2.5831    0.5961   23.5885 H   0  0  0  0  0  0
   -3.7470   -1.3582   19.4761 H   0  0  0  0  0  0
   -2.0165   -1.4648   19.6562 H   0  0  0  0  0  0
   -2.1153    3.1909   21.7990 H   0  0  0  0  0  0
   -6.8349    0.5685   16.7623 H   0  0  0  0  0  0
   -5.5874    1.1894   14.7261 H   0  0  0  0  0  0
   -3.2221    1.9050   14.9094 H   0  0  0  0  0  0
   -2.1348    2.0198   17.0759 H   0  0  0  0  0  0
   -2.7926   -2.1945   26.0086 H   0  0  0  0  0  0
    1.5650    0.2435   25.7837 H   0  0  0  0  0  0
    0.6082   -0.8037   23.7764 H   0  0  0  0  0  0
   -2.6062   -1.5386   28.9311 H   0  0  0  0  0  0
   -0.6763   -0.1768   30.2502 H   0  0  0  0  0  0
    1.3484    1.0868   29.7573 H   0  0  0  0  0  0
    2.2847    0.0871   28.6277 H   0  0  0  0  0  0
    1.5627    1.6090   28.0716 H   0  0  0  0  0  0
  1  4  1  0  0  0
  1  2  1  0  0  0
  1 29  1  0  0  0
  1 30  1  0  0  0
  2  3  1  0  0  0
  2 10  1  0  0  0
  3  7  1  0  0  0
  3 31  1  0  0  0
  3 32  1  0  0  0
  4  6  1  0  0  0
  4 33  1  0  0  0
  4 34  1  0  0  0
  5  6  1  0  0  0
  5  9  1  0  0  0
  5 12  1  0  0  0
  6  7  2  0  0  0
  7  8  1  0  0  0
  8  9  2  0  0  0
  8 35  1  0  0  0
 10 19  1  0  0  0
 10 11  2  0  0  0
 12 17  1  0  0  0
 12 13  2  0  0  0
 13 14  1  0  0  0
 13 18  1  0  0  0
 14 15  2  0  0  0
 14 36  1  0  0  0
 15 16  1  0  0  0
 15 37  1  0  0  0
 16 17  2  0  0  0
 16 38  1  0  0  0
 17 39  1  0  0  0
 19 20  2  0  0  0
 19 22  1  0  0  0
 20 25  1  0  0  0
 20 40  1  0  0  0
 21 24  1  0  0  0
 21 22  2  0  0  0
 21 41  1  0  0  0
 22 42  1  0  0  0
 23 24  1  0  0  0
 23 27  1  0  0  0
 23 28  1  0  0  0
 24 25  2  0  0  0
 25 26  1  0  0  0
 26 27  2  0  0  0
 26 43  1  0  0  0
 27 44  1  0  0  0
 28 45  1  0  0  0
 28 46  1  0  0  0
 28 47  1  0  0  0
M  END
> <s_m_entry_id>
60812

> <s_m_entry_name>
dock_pv.89

> <s_m_Source_Path>
/home/csk/Desktop/cluster/DUD-E-result/mk14

> <s_m_Source_File>
dock_pv.maegz

> <i_m_Source_File_Index>
89

> <chembl_id>
CHEMBL242909

> <chembl_pref_name>
None

> <i_lp_mmshare_version>
53161

> <i_f3d_flags>
0

> <r_lp_tautomer_probability>
1

> <s_lp_Force_Field>
OPLS_2005

> <r_lp_Energy>
37.325539

> <b_lp_Chiralities_Consistent>
1

> <s_lp_Variant>
CHEMBL260_lig1049-1

> <s_i_glide_gridfile>
glide-grid_2qd9

> <i_i_glide_lignum>
1176

> <i_i_glide_rotatable_bonds>
3

> <r_i_docking_score>
-9.12695834769528

> <r_i_glide_ligand_efficiency>
-0.325962798131974

> <r_i_glide_ligand_efficiency_sa>
-0.989815036949864

> <r_i_glide_ligand_efficiency_ln>
-2.10676996578958

> <r_i_glide_gscore>
-9.12695834769528

> <r_i_glide_lipo>
-3.96506692180004

> <r_i_glide_hbond>
-0.587805165960123

> <r_i_glide_metal>
0

> <r_i_glide_rewards>
-1.66522081532092

> <r_i_glide_evdw>
-43.8839683532715

> <r_i_glide_ecoul>
-7.31836462020874

> <r_i_glide_erotb>
0.383087666080683

> <r_i_glide_esite>
0

> <r_i_glide_emodel>
-65.6071366824044

> <r_i_glide_energy>
-51.2023329734802

> <r_i_glide_einternal>
15.608922958374

> <i_i_glide_confnum>
24

> <i_i_glide_posenum>
197

> <r_i_glide_eff_state_penalty>
0

> <s_user_duplicate_titles>
CHEMBL260_lig1049,386111

> <s_m_subgroup_title>
dock_pv

> <s_m_subgroupid>
dock_pv

> <b_m_subgroup_collapsed>
1

$$$$
CHEMBL260_lig1784
                    3D
 Schrodinger Suite 2021-1.
 45 47  0  0  1  0            999 V2000
   -5.3868    0.7309   16.1231 C   0  0  0  0  0  0
   -4.1214    1.3079   16.0403 C   0  0  0  0  0  0
   -3.4489    1.6870   17.2033 C   0  0  0  0  0  0
   -4.0449    1.4719   18.4561 C   0  0  0  0  0  0
   -5.3092    0.8870   18.5296 C   0  0  0  0  0  0
   -5.9833    0.5491   17.3670 C   0  0  0  0  0  0
   -3.2350    1.9465   19.9568 S   0  0  0  0  0  0
   -2.8017    0.3881   20.6997 C   0  0  0  0  0  0
   -2.6292   -0.7538   19.9169 C   0  0  0  0  0  0
   -2.3514   -1.9922   20.4874 C   0  0  0  0  0  0
   -2.6222    0.3047   22.0820 C   0  0  0  0  0  0
   -2.0751   -1.3492   23.9601 C   0  0  0  0  0  0
   -2.3352   -0.9135   22.6617 N   0  0  0  0  0  0
   -2.2236   -2.0771   21.8781 C   0  0  0  0  0  0
   -1.9847   -3.1370   22.6698 N   0  0  0  0  0  0
   -1.9084   -2.6588   23.9577 N   0  0  0  0  0  0
   -6.0090    0.2889   15.0111 F   0  0  0  0  0  0
   -5.8964    0.6432   19.7213 F   0  0  0  0  0  0
   -1.9087   -0.4634   25.2099 C   0  0  0  0  0  0
   -0.7799    0.5854   24.9823 C   0  0  0  0  0  0
    0.7003    0.1052   24.9680 C   0  0  2  0  0  0
    1.6182    1.1699   24.3376 C   0  0  0  0  0  0
   -3.2350    0.2664   25.5019 C   0  0  0  0  0  0
   -1.5836   -1.3108   26.4733 C   0  0  0  0  0  0
    0.8824   -1.0989   24.2434 O   0  0  0  0  0  0
    1.5650    2.3743   25.0760 O   0  0  0  0  0  0
   -3.6558    1.4470   15.0760 H   0  0  0  0  0  0
   -2.4762    2.1450   17.0979 H   0  0  0  0  0  0
   -6.9179    0.0423   17.4760 H   0  0  0  0  0  0
   -2.7005   -0.6895   18.8450 H   0  0  0  0  0  0
   -2.2327   -2.8727   19.8760 H   0  0  0  0  0  0
   -2.7148    1.1630   22.7252 H   0  0  0  0  0  0
   -0.8569    1.3521   25.7552 H   0  0  0  0  0  0
   -0.9671    1.1186   24.0534 H   0  0  0  0  0  0
    1.0127   -0.0777   25.9981 H   0  0  0  0  0  0
    1.3245    1.3730   23.3069 H   0  0  0  0  0  0
    2.6497    0.8187   24.2760 H   0  0  0  0  0  0
   -3.1832    0.8560   26.4184 H   0  0  0  0  0  0
   -3.5428    0.9403   24.7055 H   0  0  0  0  0  0
   -4.0350   -0.4607   25.6296 H   0  0  0  0  0  0
   -1.4303   -0.6844   27.3531 H   0  0  0  0  0  0
   -2.3884   -2.0094   26.7065 H   0  0  0  0  0  0
   -0.6822   -1.9117   26.3460 H   0  0  0  0  0  0
    1.5650   -1.6239   24.6759 H   0  0  0  0  0  0
    2.3469    2.8870   24.8353 H   0  0  0  0  0  0
  1  6  1  0  0  0
  1  2  2  0  0  0
  1 17  1  0  0  0
  2  3  1  0  0  0
  2 27  1  0  0  0
  3  4  2  0  0  0
  3 28  1  0  0  0
  4  7  1  0  0  0
  4  5  1  0  0  0
  5  6  2  0  0  0
  5 18  1  0  0  0
  6 29  1  0  0  0
  7  8  1  0  0  0
  8  9  1  0  0  0
  8 11  2  0  0  0
  9 10  2  0  0  0
  9 30  1  0  0  0
 10 14  1  0  0  0
 10 31  1  0  0  0
 11 13  1  0  0  0
 11 32  1  0  0  0
 12 13  1  0  0  0
 12 16  2  0  0  0
 12 19  1  0  0  0
 13 14  1  0  0  0
 14 15  2  0  0  0
 15 16  1  0  0  0
 19 20  1  0  0  0
 19 23  1  0  0  0
 19 24  1  0  0  0
 20 21  1  0  0  0
 20 33  1  0  0  0
 20 34  1  0  0  0
 21 22  1  0  0  0
 21 25  1  0  0  0
 21 35  1  0  0  0
 22 26  1  0  0  0
 22 36  1  0  0  0
 22 37  1  0  0  0
 23 38  1  0  0  0
 23 39  1  0  0  0
 23 40  1  0  0  0
 24 41  1  0  0  0
 24 42  1  0  0  0
 24 43  1  0  0  0
 25 44  1  0  0  0
 26 45  1  0  0  0
M  END
> <s_m_entry_id>
60813

> <s_m_entry_name>
dock_pv.90

> <s_m_Source_Path>
/home/csk/Desktop/cluster/DUD-E-result/mk14

> <s_m_Source_File>
dock_pv.maegz

> <i_m_Source_File_Index>
90

> <chembl_id>
CHEMBL604581

> <chembl_pref_name>
None

> <i_lp_mmshare_version>
53161

> <i_f3d_flags>
0

> <r_lp_tautomer_probability>
1

> <s_lp_Force_Field>
OPLS_2005

> <r_lp_Energy>
23.912022

> <b_lp_Chiralities_Consistent>
1

> <s_lp_Variant>
CHEMBL260_lig1784-1

> <s_i_glide_gridfile>
glide-grid_2qd9

> <i_i_glide_lignum>
2080

> <i_i_glide_rotatable_bonds>
8

> <r_i_docking_score>
-9.12650339805039

> <r_i_glide_ligand_efficiency>
-0.351019361463477

> <r_i_glide_ligand_efficiency_sa>
-1.03989347714106

> <r_i_glide_ligand_efficiency_ln>
-2.14332937653194

> <r_i_glide_gscore>
-9.12650339805039

> <r_i_glide_lipo>
-3.36017046023686

> <r_i_glide_hbond>
-0.525675014239881

> <r_i_glide_metal>
0

> <r_i_glide_rewards>
-2.48358788616621

> <r_i_glide_evdw>
-38.5986824035645

> <r_i_glide_ecoul>
-10.6222877502441

> <r_i_glide_erotb>
0.808109802107067

> <r_i_glide_esite>
-0.0419025567996691

> <r_i_glide_emodel>
-72.8408511846147

> <r_i_glide_energy>
-49.2209701538086

> <r_i_glide_einternal>
3.823162317276

> <i_i_glide_confnum>
43

> <i_i_glide_posenum>
185

> <r_i_glide_eff_state_penalty>
0

> <s_user_duplicate_titles>
CHEMBL260_lig1784

> <s_m_subgroup_title>
dock_pv

> <s_m_subgroupid>
dock_pv

> <b_m_subgroup_collapsed>
1

$$$$
CHEMBL260_lig1657
                    3D
 Schrodinger Suite 2021-1.
 50 52  0  0  1  0            999 V2000
   -5.4064    0.8487   16.2152 C   0  0  0  0  0  0
   -4.1059    1.3336   16.1644 C   0  0  0  0  0  0
   -3.4170    1.5826   17.3489 C   0  0  0  0  0  0
   -4.0053    1.3153   18.5944 C   0  0  0  0  0  0
   -5.3365    0.8864   18.6312 C   0  0  0  0  0  0
   -6.0345    0.6754   17.4452 C   0  0  0  0  0  0
   -3.2352    1.5258   19.8567 C   0  0  0  0  0  0
   -2.7842    0.3259   20.6761 C   0  0  0  0  0  0
   -2.9829    2.6851   20.1936 O   0  0  0  0  0  0
   -2.8353   -0.9528   20.0958 C   0  0  0  0  0  0
   -2.4310   -2.0730   20.8220 C   0  0  0  0  0  0
   -1.9675   -1.9400   22.0782 N   0  3  0  0  0  0
   -1.8518   -0.7286   22.6904 C   0  0  0  0  0  0
   -2.2672    0.4271   21.9934 C   0  0  0  0  0  0
   -1.6392   -3.0034   22.6817 O   0  5  0  0  0  0
   -2.1683    1.6612   22.6478 N   0  0  0  0  0  0
   -1.3076   -0.6727   24.0884 C   0  0  0  0  0  0
   -2.1171   -0.9362   25.2093 C   0  0  0  0  0  0
   -1.6073   -0.7732   26.4961 C   0  0  0  0  0  0
   -0.3043   -0.3307   26.7052 C   0  0  0  0  0  0
    0.5193   -0.1122   25.5914 C   0  0  0  0  0  0
    0.0197   -0.2821   24.2992 C   0  0  0  0  0  0
   -5.9535    0.6382   19.8044 F   0  0  0  0  0  0
   -6.0337    0.4872   15.0764 F   0  0  0  0  0  0
   -3.5598   -1.3717   25.0494 C   0  0  0  0  0  0
    0.0525   -0.1241   28.0200 O   0  0  0  0  0  0
    1.3104    0.4658   28.3306 C   0  0  0  0  0  0
    1.2655    1.0458   29.7553 C   0  0  0  0  0  0
    0.3227    2.1059   29.9127 O   0  0  0  0  0  0
    0.6715    3.3178   29.2570 C   0  0  0  0  0  0
   -3.6246    1.4899   15.2073 H   0  0  0  0  0  0
   -2.4244    1.9797   17.2769 H   0  0  0  0  0  0
   -7.0381    0.2836   17.4874 H   0  0  0  0  0  0
   -3.1823   -1.1020   19.0824 H   0  0  0  0  0  0
   -2.4601   -3.0820   20.4313 H   0  0  0  0  0  0
   -1.6760    1.7027   23.5301 H   0  0  0  0  0  0
   -2.2844    2.4872   22.0748 H   0  0  0  0  0  0
   -2.2356   -0.9577   27.3558 H   0  0  0  0  0  0
    1.5422    0.2049   25.7057 H   0  0  0  0  0  0
    0.6620   -0.0829   23.4541 H   0  0  0  0  0  0
   -4.0591   -1.5137   26.0074 H   0  0  0  0  0  0
   -4.1148   -0.6414   24.4596 H   0  0  0  0  0  0
   -3.5639   -2.3129   24.5135 H   0  0  0  0  0  0
    2.0869   -0.2922   28.2649 H   0  0  0  0  0  0
    1.5646    1.2619   27.6300 H   0  0  0  0  0  0
    0.9747    0.2566   30.4500 H   0  0  0  0  0  0
    2.2605    1.3683   30.0683 H   0  0  0  0  0  0
   -0.0505    4.0902   29.5167 H   0  0  0  0  0  0
    1.6573    3.6715   29.5620 H   0  0  0  0  0  0
    0.6583    3.2109   28.1726 H   0  0  0  0  0  0
  1 24  1  0  0  0
  1  6  1  0  0  0
  1  2  2  0  0  0
  2  3  1  0  0  0
  2 31  1  0  0  0
  3  4  2  0  0  0
  3 32  1  0  0  0
  4  7  1  0  0  0
  4  5  1  0  0  0
  5 23  1  0  0  0
  5  6  2  0  0  0
  6 33  1  0  0  0
  7  8  1  0  0  0
  7  9  2  0  0  0
  8 10  2  0  0  0
  8 14  1  0  0  0
 10 11  1  0  0  0
 10 34  1  0  0  0
 11 12  2  0  0  0
 11 35  1  0  0  0
 12 15  1  0  0  0
 12 13  1  0  0  0
 13 17  1  0  0  0
 13 14  2  0  0  0
 14 16  1  0  0  0
 16 36  1  0  0  0
 16 37  1  0  0  0
 17 18  2  0  0  0
 17 22  1  0  0  0
 18 19  1  0  0  0
 18 25  1  0  0  0
 19 20  2  0  0  0
 19 38  1  0  0  0
 20 21  1  0  0  0
 20 26  1  0  0  0
 21 22  2  0  0  0
 21 39  1  0  0  0
 22 40  1  0  0  0
 25 41  1  0  0  0
 25 42  1  0  0  0
 25 43  1  0  0  0
 26 27  1  0  0  0
 27 28  1  0  0  0
 27 44  1  0  0  0
 27 45  1  0  0  0
 28 29  1  0  0  0
 28 46  1  0  0  0
 28 47  1  0  0  0
 29 30  1  0  0  0
 30 48  1  0  0  0
 30 49  1  0  0  0
 30 50  1  0  0  0
M  CHG  2  12   1  15  -1
M  END
> <s_m_entry_id>
60814

> <s_m_entry_name>
dock_pv.91

> <s_m_Source_Path>
/home/csk/Desktop/cluster/DUD-E-result/mk14

> <s_m_Source_File>
dock_pv.maegz

> <i_m_Source_File_Index>
91

> <chembl_id>
CHEMBL550701

> <chembl_pref_name>
None

> <i_lp_mmshare_version>
53161

> <i_f3d_flags>
0

> <r_lp_tautomer_probability>
1

> <s_lp_Force_Field>
OPLS_2005

> <r_lp_Energy>
43.35924

> <b_lp_Chiralities_Consistent>
1

> <s_lp_Variant>
CHEMBL260_lig1657-1

> <s_i_glide_gridfile>
glide-grid_2qd9

> <i_i_glide_lignum>
1909

> <i_i_glide_rotatable_bonds>
7

> <r_i_docking_score>
-9.11256272071121

> <r_i_glide_ligand_efficiency>
-0.303752090690374

> <r_i_glide_ligand_efficiency_sa>
-0.943828368874524

> <r_i_glide_ligand_efficiency_ln>
-2.07047353946888

> <r_i_glide_gscore>
-9.11256272071121

> <r_i_glide_lipo>
-3.69903819796404

> <r_i_glide_hbond>
-0.101494194578502

> <r_i_glide_metal>
0

> <r_i_glide_rewards>
-2.06200190801672

> <r_i_glide_evdw>
-38.8717193603516

> <r_i_glide_ecoul>
-13.306902885437

> <r_i_glide_erotb>
0.68959298068119

> <r_i_glide_esite>
0

> <r_i_glide_emodel>
-76.3593985898324

> <r_i_glide_energy>
-52.1786222457886

> <r_i_glide_einternal>
4.98829889297485

> <i_i_glide_confnum>
31

> <i_i_glide_posenum>
226

> <r_i_glide_eff_state_penalty>
0

> <s_user_duplicate_titles>
CHEMBL260_lig1657,563640

> <s_m_subgroup_title>
dock_pv

> <s_m_subgroupid>
dock_pv

> <b_m_subgroup_collapsed>
1

$$$$
CHEMBL260_lig1051
                    3D
 Schrodinger Suite 2021-1.
 44 48  0  0  1  0            999 V2000
   -1.6505   -1.5457   20.9034 C   0  0  0  0  0  0
   -1.6523   -1.0457   22.3033 N   0  0  0  0  0  0
   -1.6353    0.4291   22.4955 C   0  0  0  0  0  0
   -2.8853   -1.0012   20.1313 C   0  0  0  0  0  0
   -3.3405    1.4830   19.4413 N   0  0  0  0  0  0
   -2.9205    0.5039   20.3147 C   0  0  0  0  0  0
   -2.3100    1.1646   21.3574 C   0  0  0  0  0  0
   -2.4350    2.5170   21.0381 C   0  0  0  0  0  0
   -3.0566    2.7147   19.8968 N   0  0  0  0  0  0
   -1.7806   -1.9252   23.3401 C   0  0  0  0  0  0
   -2.0343   -3.1202   23.1625 O   0  0  0  0  0  0
   -3.9475    1.3382   18.1827 C   0  0  0  0  0  0
   -5.2669    0.8876   18.0697 C   0  0  0  0  0  0
   -5.8400    0.7727   16.8039 C   0  0  0  0  0  0
   -5.1201    1.0894   15.6552 C   0  0  0  0  0  0
   -3.8135    1.5508   15.7700 C   0  0  0  0  0  0
   -3.2331    1.6857   17.0278 C   0  0  0  0  0  0
   -6.2181    0.4872   19.4597 Cl  0  0  0  0  0  0
   -1.5952   -1.4467   24.7659 C   0  0  0  0  0  0
   -1.4557   -0.6230   27.5234 C   0  0  0  0  0  0
   -2.4252   -1.5125   27.0702 C   0  0  0  0  0  0
   -2.4916   -1.9123   25.7398 C   0  0  0  0  0  0
    0.5228    0.7142   26.7146 N   0  0  0  0  0  0
   -0.5313   -0.1683   26.5815 C   0  0  0  0  0  0
   -0.5579   -0.5893   25.2130 C   0  0  0  0  0  0
    0.5997    0.0076   24.5988 C   0  0  0  0  0  0
    1.1635    0.8657   25.5130 C   0  0  0  0  0  0
   -0.7430   -1.1692   20.4298 H   0  0  0  0  0  0
   -1.5726   -2.6320   20.8338 H   0  0  0  0  0  0
   -0.6175    0.7950   22.5806 H   0  0  0  0  0  0
   -2.0835    0.7301   23.4438 H   0  0  0  0  0  0
   -3.7962   -1.4663   20.5033 H   0  0  0  0  0  0
   -2.8142   -1.2709   19.0779 H   0  0  0  0  0  0
   -2.0473    3.3329   21.6276 H   0  0  0  0  0  0
   -6.8350    0.3821   16.7126 H   0  0  0  0  0  0
   -5.5726    0.9712   14.6814 H   0  0  0  0  0  0
   -3.2448    1.7972   14.8861 H   0  0  0  0  0  0
   -2.2185    2.0518   17.0805 H   0  0  0  0  0  0
   -1.4192   -0.3150   28.5578 H   0  0  0  0  0  0
   -3.1476   -1.9032   27.7733 H   0  0  0  0  0  0
   -3.2769   -2.6011   25.4657 H   0  0  0  0  0  0
    0.8225    1.1979   27.5496 H   0  0  0  0  0  0
    0.9590   -0.1310   23.5900 H   0  0  0  0  0  0
    2.0097    1.5370   25.4326 H   0  0  0  0  0  0
  1  4  1  0  0  0
  1  2  1  0  0  0
  1 28  1  0  0  0
  1 29  1  0  0  0
  2  3  1  0  0  0
  2 10  1  0  0  0
  3  7  1  0  0  0
  3 30  1  0  0  0
  3 31  1  0  0  0
  4  6  1  0  0  0
  4 32  1  0  0  0
  4 33  1  0  0  0
  5  6  1  0  0  0
  5  9  1  0  0  0
  5 12  1  0  0  0
  6  7  2  0  0  0
  7  8  1  0  0  0
  8  9  2  0  0  0
  8 34  1  0  0  0
 10 19  1  0  0  0
 10 11  2  0  0  0
 12 13  2  0  0  0
 12 17  1  0  0  0
 13 14  1  0  0  0
 13 18  1  0  0  0
 14 15  2  0  0  0
 14 35  1  0  0  0
 15 16  1  0  0  0
 15 36  1  0  0  0
 16 17  2  0  0  0
 16 37  1  0  0  0
 17 38  1  0  0  0
 19 25  2  0  0  0
 19 22  1  0  0  0
 20 24  2  0  0  0
 20 21  1  0  0  0
 20 39  1  0  0  0
 21 22  2  0  0  0
 21 40  1  0  0  0
 22 41  1  0  0  0
 23 24  1  0  0  0
 23 27  1  0  0  0
 23 42  1  0  0  0
 24 25  1  0  0  0
 25 26  1  0  0  0
 26 27  2  0  0  0
 26 43  1  0  0  0
 27 44  1  0  0  0
M  END
> <s_m_entry_id>
60815

> <s_m_entry_name>
dock_pv.92

> <s_m_Source_Path>
/home/csk/Desktop/cluster/DUD-E-result/mk14

> <s_m_Source_File>
dock_pv.maegz

> <i_m_Source_File_Index>
92

> <chembl_id>
CHEMBL388252

> <chembl_pref_name>
None

> <i_lp_mmshare_version>
53161

> <i_f3d_flags>
0

> <r_lp_tautomer_probability>
1

> <s_lp_Force_Field>
OPLS_2005

> <r_lp_Energy>
37.08386

> <b_lp_Chiralities_Consistent>
1

> <s_lp_Variant>
CHEMBL260_lig1051-1

> <s_i_glide_gridfile>
glide-grid_2qd9

> <i_i_glide_lignum>
1178

> <i_i_glide_rotatable_bonds>
3

> <r_i_docking_score>
-9.06478145976786

> <r_i_glide_ligand_efficiency>
-0.335732646658069

> <r_i_glide_ligand_efficiency_sa>
-1.00719793886769

> <r_i_glide_ligand_efficiency_ln>
-2.11013167923186

> <r_i_glide_gscore>
-9.06478145976786

> <r_i_glide_lipo>
-4.00842975479162

> <r_i_glide_hbond>
-0.43378053130126

> <r_i_glide_metal>
0

> <r_i_glide_rewards>
-1.76719620687892

> <r_i_glide_evdw>
-45.459644317627

> <r_i_glide_ecoul>
-6.43909215927124

> <r_i_glide_erotb>
0.40903511629941

> <r_i_glide_esite>
-0.0255640433234467

> <r_i_glide_emodel>
-76.3716041115537

> <r_i_glide_energy>
-51.8987364768982

> <r_i_glide_einternal>
4.90686845779419

> <i_i_glide_confnum>
26

> <i_i_glide_posenum>
385

> <r_i_glide_eff_state_penalty>
0

> <s_user_duplicate_titles>
CHEMBL260_lig1051,386109

> <s_m_subgroup_title>
dock_pv

> <s_m_subgroupid>
dock_pv

> <b_m_subgroup_collapsed>
1

$$$$
CHEMBL260_lig1056
                    3D
 Schrodinger Suite 2021-1.
 40 43  0  0  1  0            999 V2000
   -1.7215   -1.6153   20.9109 C   0  0  0  0  0  0
   -1.7090   -1.1039   22.3041 N   0  0  0  0  0  0
   -1.6148    0.3642   22.5083 C   0  0  0  0  0  0
   -2.9193   -1.0192   20.1294 C   0  0  0  0  0  0
   -3.3258    1.4704   19.4579 N   0  0  0  0  0  0
   -2.9181    0.4831   20.3274 C   0  0  0  0  0  0
   -2.2930    1.1251   21.3785 C   0  0  0  0  0  0
   -2.4350    2.4818   21.0760 C   0  0  0  0  0  0
   -3.0443    2.6953   19.9305 N   0  0  0  0  0  0
   -1.8010   -1.9724   23.3463 C   0  0  0  0  0  0
   -2.0350   -3.1751   23.2140 O   0  0  0  0  0  0
   -1.5380   -1.4531   24.7350 C   0  0  0  0  0  0
   -3.9374    1.3359   18.1981 C   0  0  0  0  0  0
   -5.2590    0.8870   18.0869 C   0  0  0  0  0  0
   -5.8390    0.7826   16.8234 C   0  0  0  0  0  0
   -5.1256    1.1053   15.6732 C   0  0  0  0  0  0
   -3.8170    1.5616   15.7842 C   0  0  0  0  0  0
   -3.2291    1.6870   17.0387 C   0  0  0  0  0  0
   -6.2094    0.4870   19.4760 Cl  0  0  0  0  0  0
   -2.5886   -1.2891   25.6455 C   0  0  0  0  0  0
   -2.3291   -0.8680   26.9497 C   0  0  0  0  0  0
   -1.0245   -0.5848   27.3498 C   0  0  0  0  0  0
    0.0211   -0.7125   26.4384 C   0  0  0  0  0  0
   -0.2294   -1.1447   25.1365 C   0  0  0  0  0  0
    0.8082   -1.2638   24.2756 F   0  0  0  0  0  0
   -3.8669   -1.5130   25.2711 F   0  0  0  0  0  0
   -1.7132   -2.7055   20.8522 H   0  0  0  0  0  0
   -0.7931   -1.2913   20.4378 H   0  0  0  0  0  0
   -0.5689    0.6559   22.6088 H   0  0  0  0  0  0
   -2.0372    0.6801   23.4629 H   0  0  0  0  0  0
   -3.8516   -1.4590   20.4794 H   0  0  0  0  0  0
   -2.8350   -1.2832   19.0761 H   0  0  0  0  0  0
   -2.0541    3.2927   21.6770 H   0  0  0  0  0  0
   -6.8350    0.3946   16.7354 H   0  0  0  0  0  0
   -5.5833    0.9942   14.7012 H   0  0  0  0  0  0
   -3.2517    1.8126   14.8991 H   0  0  0  0  0  0
   -2.2132    2.0500   17.0760 H   0  0  0  0  0  0
   -3.1417   -0.7600   27.6516 H   0  0  0  0  0  0
   -0.8226   -0.2611   28.3608 H   0  0  0  0  0  0
    1.0333   -0.4858   26.7431 H   0  0  0  0  0  0
  1  2  1  0  0  0
  1  4  1  0  0  0
  1 27  1  0  0  0
  1 28  1  0  0  0
  2  3  1  0  0  0
  2 10  1  0  0  0
  3  7  1  0  0  0
  3 29  1  0  0  0
  3 30  1  0  0  0
  4  6  1  0  0  0
  4 31  1  0  0  0
  4 32  1  0  0  0
  5 13  1  0  0  0
  5  6  1  0  0  0
  5  9  1  0  0  0
  6  7  2  0  0  0
  7  8  1  0  0  0
  8  9  2  0  0  0
  8 33  1  0  0  0
 10 11  2  0  0  0
 10 12  1  0  0  0
 12 20  2  0  0  0
 12 24  1  0  0  0
 13 14  2  0  0  0
 13 18  1  0  0  0
 14 15  1  0  0  0
 14 19  1  0  0  0
 15 16  2  0  0  0
 15 34  1  0  0  0
 16 17  1  0  0  0
 16 35  1  0  0  0
 17 18  2  0  0  0
 17 36  1  0  0  0
 18 37  1  0  0  0
 20 21  1  0  0  0
 20 26  1  0  0  0
 21 22  2  0  0  0
 21 38  1  0  0  0
 22 23  1  0  0  0
 22 39  1  0  0  0
 23 24  2  0  0  0
 23 40  1  0  0  0
 24 25  1  0  0  0
M  END
> <s_m_entry_id>
60816

> <s_m_entry_name>
dock_pv.93

> <s_m_Source_Path>
/home/csk/Desktop/cluster/DUD-E-result/mk14

> <s_m_Source_File>
dock_pv.maegz

> <i_m_Source_File_Index>
93

> <chembl_id>
CHEMBL242482

> <chembl_pref_name>
None

> <i_lp_mmshare_version>
53161

> <i_f3d_flags>
0

> <r_lp_tautomer_probability>
1

> <s_lp_Force_Field>
OPLS_2005

> <r_lp_Energy>
37.610042

> <b_lp_Chiralities_Consistent>
1

> <s_lp_Variant>
CHEMBL260_lig1056-1

> <s_i_glide_gridfile>
glide-grid_2qd9

> <i_i_glide_lignum>
1183

> <i_i_glide_rotatable_bonds>
3

> <r_i_docking_score>
-9.06451478388926

> <r_i_glide_ligand_efficiency>
-0.348635183995741

> <r_i_glide_ligand_efficiency_sa>
-1.03283036077418

> <r_i_glide_ligand_efficiency_ln>
-2.12877155389743

> <r_i_glide_gscore>
-9.06451478388926

> <r_i_glide_lipo>
-4.01398417639696

> <r_i_glide_hbond>
-0.493104093800241

> <r_i_glide_metal>
0

> <r_i_glide_rewards>
-1.94922005059536

> <r_i_glide_evdw>
-42.8063125610352

> <r_i_glide_ecoul>
-5.88618898391724

> <r_i_glide_erotb>
0.415037512542654

> <r_i_glide_esite>
0

> <r_i_glide_emodel>
-69.4745685219581

> <r_i_glide_energy>
-48.6925015449524

> <r_i_glide_einternal>
6.02867794036865

> <i_i_glide_confnum>
26

> <i_i_glide_posenum>
113

> <r_i_glide_eff_state_penalty>
0

> <s_user_duplicate_titles>
CHEMBL260_lig1056,386104

> <s_m_subgroup_title>
dock_pv

> <s_m_subgroupid>
dock_pv

> <b_m_subgroup_collapsed>
1

$$$$
CHEMBL260_lig1244
                    3D
 Schrodinger Suite 2021-1.
 42 45  0  0  1  0            999 V2000
   -1.8673   -2.4027   21.7146 C   0  0  0  0  0  0
   -2.1651   -2.2754   20.3016 C   0  0  0  0  0  0
   -2.5942   -1.1320   19.7290 C   0  0  0  0  0  0
   -1.8573   -1.2027   22.3857 N   0  0  0  0  0  0
   -2.1909    0.0656   21.7994 C   0  0  0  0  0  0
   -2.6553    0.1322   20.4689 C   0  0  0  0  0  0
   -3.0599    1.3506   19.8762 C   0  0  0  0  0  0
   -2.8351    2.5171   20.6296 C   0  0  0  0  0  0
   -2.3707    2.4825   21.9554 C   0  0  0  0  0  0
   -2.0585    1.2512   22.5208 C   0  0  0  0  0  0
   -1.7090   -3.5124   22.2327 O   0  0  0  0  0  0
   -1.7180   -1.2645   23.7956 C   0  0  0  0  0  0
   -0.4600   -1.0937   24.4031 C   0  0  0  0  0  0
   -0.3484   -1.1591   25.7922 C   0  0  0  0  0  0
   -1.4762   -1.3760   26.5820 C   0  0  0  0  0  0
   -2.7303   -1.5037   25.9875 C   0  0  0  0  0  0
   -2.8595   -1.4337   24.6004 C   0  0  0  0  0  0
   -4.4436   -1.5098   23.9037 Cl  0  0  0  0  0  0
    0.9563   -0.7295   23.4765 Cl  0  0  0  0  0  0
   -3.6851    1.4154   18.4896 C   0  0  0  0  0  0
   -3.0254    1.9968   17.3839 C   0  0  0  0  0  0
   -3.5639    1.9839   16.0971 C   0  0  0  0  0  0
   -4.8133    1.4214   15.8760 C   0  0  0  0  0  0
   -5.5173    0.8870   16.9473 C   0  0  0  0  0  0
   -4.9683    0.8872   18.2324 C   0  0  0  0  0  0
   -5.9540    0.2392   19.4816 Cl  0  0  0  0  0  0
   -2.2631    3.6657   22.6666 O   0  0  0  0  0  0
   -1.6993    3.6686   23.9769 C   0  0  0  0  0  0
   -2.0855   -3.1720   19.7048 H   0  0  0  0  0  0
   -2.8064   -1.1260   18.6765 H   0  0  0  0  0  0
   -3.0920    3.4731   20.2018 H   0  0  0  0  0  0
   -1.7008    1.2150   23.5358 H   0  0  0  0  0  0
    0.6177   -1.0335   26.2613 H   0  0  0  0  0  0
   -1.3779   -1.4293   27.6569 H   0  0  0  0  0  0
   -3.6049   -1.6435   26.6063 H   0  0  0  0  0  0
   -2.0713    2.4880   17.4757 H   0  0  0  0  0  0
   -3.0178    2.4278   15.2761 H   0  0  0  0  0  0
   -5.2414    1.4154   14.8844 H   0  0  0  0  0  0
   -6.4956    0.4625   16.7802 H   0  0  0  0  0  0
   -1.6370    4.6937   24.3412 H   0  0  0  0  0  0
   -2.3161    3.1071   24.6803 H   0  0  0  0  0  0
   -0.6871    3.2605   23.9802 H   0  0  0  0  0  0
  1  4  1  0  0  0
  1 11  2  0  0  0
  1  2  1  0  0  0
  2  3  2  0  0  0
  2 29  1  0  0  0
  3  6  1  0  0  0
  3 30  1  0  0  0
  4  5  1  0  0  0
  4 12  1  0  0  0
  5 10  1  0  0  0
  5  6  2  0  0  0
  6  7  1  0  0  0
  7  8  2  0  0  0
  7 20  1  0  0  0
  8  9  1  0  0  0
  8 31  1  0  0  0
  9 10  2  0  0  0
  9 27  1  0  0  0
 10 32  1  0  0  0
 12 17  1  0  0  0
 12 13  2  0  0  0
 13 14  1  0  0  0
 13 19  1  0  0  0
 14 15  2  0  0  0
 14 33  1  0  0  0
 15 16  1  0  0  0
 15 34  1  0  0  0
 16 17  2  0  0  0
 16 35  1  0  0  0
 17 18  1  0  0  0
 20 21  2  0  0  0
 20 25  1  0  0  0
 21 22  1  0  0  0
 21 36  1  0  0  0
 22 23  2  0  0  0
 22 37  1  0  0  0
 23 24  1  0  0  0
 23 38  1  0  0  0
 24 25  2  0  0  0
 24 39  1  0  0  0
 25 26  1  0  0  0
 27 28  1  0  0  0
 28 40  1  0  0  0
 28 41  1  0  0  0
 28 42  1  0  0  0
M  END
> <s_m_entry_id>
60817

> <s_m_entry_name>
dock_pv.94

> <s_m_Source_Path>
/home/csk/Desktop/cluster/DUD-E-result/mk14

> <s_m_Source_File>
dock_pv.maegz

> <i_m_Source_File_Index>
94

> <chembl_id>
CHEMBL403925

> <chembl_pref_name>
None

> <i_lp_mmshare_version>
53161

> <i_f3d_flags>
0

> <r_lp_tautomer_probability>
1

> <s_lp_Force_Field>
OPLS_2005

> <r_lp_Energy>
50.347836

> <b_lp_Chiralities_Consistent>
1

> <s_lp_Variant>
CHEMBL260_lig1244-1

> <s_i_glide_gridfile>
glide-grid_2qd9

> <i_i_glide_lignum>
1418

> <i_i_glide_rotatable_bonds>
3

> <r_i_docking_score>
-9.05574162117402

> <r_i_glide_ligand_efficiency>
-0.323419343613358

> <r_i_glide_ligand_efficiency_sa>
-0.982091611016744

> <r_i_glide_ligand_efficiency_ln>
-2.09033105429452

> <r_i_glide_gscore>
-9.05574162117402

> <r_i_glide_lipo>
-4.61372011786532

> <r_i_glide_hbond>
-0.32

> <r_i_glide_metal>
0

> <r_i_glide_rewards>
-1.52441456340061

> <r_i_glide_evdw>
-32.9344482421875

> <r_i_glide_ecoul>
-7.76832914352417

> <r_i_glide_erotb>
0.214364843729911

> <r_i_glide_esite>
0

> <r_i_glide_emodel>
-46.5482625196996

> <r_i_glide_energy>
-40.7027773857117

> <r_i_glide_einternal>
5.21805810928345

> <i_i_glide_confnum>
1

> <i_i_glide_posenum>
285

> <r_i_glide_eff_state_penalty>
0

> <s_user_duplicate_titles>
CHEMBL260_lig1244,434386

> <s_m_subgroup_title>
dock_pv

> <s_m_subgroupid>
dock_pv

> <b_m_subgroup_collapsed>
1

$$$$
CHEMBL260_lig150
                    3D
 Schrodinger Suite 2021-1.
 39 42  0  0  1  0            999 V2000
   -1.5003   -1.3097   23.3710 N   0  0  0  0  0  0
   -1.5617   -2.6321   23.0571 C   0  0  0  0  0  0
   -1.8837   -0.2894   22.4891 C   0  0  0  0  0  0
   -1.1178   -0.9715   24.7004 C   0  0  0  0  0  0
   -2.2063   -0.6373   21.1666 C   0  0  0  0  0  0
   -2.6485    0.2599   20.2790 N   0  0  0  0  0  0
   -1.6350   -2.9613   21.7495 N   0  0  0  0  0  0
   -2.7544    1.5384   20.6760 C   0  0  0  0  0  0
   -3.2350    2.6734   19.4760 S   0  0  0  0  0  0
   -3.8988    1.6870   18.1364 C   0  0  0  0  0  0
   -5.1560    1.0786   18.2513 C   0  0  0  0  0  0
   -2.0024    1.0540   22.8794 C   0  0  0  0  0  0
   -2.0729   -2.0650   20.6852 C   0  0  0  0  0  0
   -5.8072    0.6106   17.1088 C   0  0  0  0  0  0
   -2.0518   -1.0335   25.7549 C   0  0  0  0  0  0
    0.2009   -0.5638   24.9783 C   0  0  0  0  0  0
   -1.6350   -3.5130   23.8760 O   0  0  0  0  0  0
   -3.2449    1.6871   16.8993 C   0  0  0  0  0  0
   -2.4350    1.9902   21.9521 C   0  0  0  0  0  0
   -5.1573    0.6226   15.8760 C   0  0  0  0  0  0
   -5.7633    0.9584   19.4560 F   0  0  0  0  0  0
    1.4031   -0.4502   23.7373 Cl  0  0  0  0  0  0
   -3.6888   -1.5130   25.4907 Cl  0  0  0  0  0  0
   -3.8703    1.1475   15.7752 C   0  0  0  0  0  0
   -5.7571    0.0870   14.7897 F   0  0  0  0  0  0
   -0.3614   -0.3113   27.3219 C   0  0  0  0  0  0
   -1.6664   -0.7130   27.0561 C   0  0  0  0  0  0
    0.5617   -0.2282   26.2842 C   0  0  0  0  0  0
   -1.4997   -3.9302   21.5074 H   0  0  0  0  0  0
   -1.7633    1.3814   23.8805 H   0  0  0  0  0  0
   -1.3440   -2.1124   19.8760 H   0  0  0  0  0  0
   -3.0240   -2.4263   20.2892 H   0  0  0  0  0  0
   -6.7906    0.1698   17.1924 H   0  0  0  0  0  0
   -2.2777    2.1564   16.7911 H   0  0  0  0  0  0
   -2.5071    3.0335   22.2167 H   0  0  0  0  0  0
   -3.3681    1.1563   14.8187 H   0  0  0  0  0  0
   -0.0630   -0.0618   28.3303 H   0  0  0  0  0  0
   -2.3805   -0.7761   27.8643 H   0  0  0  0  0  0
    1.5650    0.0971   26.5054 H   0  0  0  0  0  0
  1  2  1  0  0  0
  1  3  1  0  0  0
  1  4  1  0  0  0
  2  7  1  0  0  0
  2 17  2  0  0  0
  3  5  2  0  0  0
  3 12  1  0  0  0
  4 15  2  0  0  0
  4 16  1  0  0  0
  5  6  1  0  0  0
  5 13  1  0  0  0
  6  8  2  0  0  0
  7 13  1  0  0  0
  7 29  1  0  0  0
  8 19  1  0  0  0
  8  9  1  0  0  0
  9 10  1  0  0  0
 10 11  1  0  0  0
 10 18  2  0  0  0
 11 14  2  0  0  0
 11 21  1  0  0  0
 12 19  2  0  0  0
 12 30  1  0  0  0
 13 31  1  0  0  0
 13 32  1  0  0  0
 14 20  1  0  0  0
 14 33  1  0  0  0
 15 23  1  0  0  0
 15 27  1  0  0  0
 16 22  1  0  0  0
 16 28  2  0  0  0
 18 24  1  0  0  0
 18 34  1  0  0  0
 19 35  1  0  0  0
 20 24  2  0  0  0
 20 25  1  0  0  0
 24 36  1  0  0  0
 26 28  1  0  0  0
 26 27  2  0  0  0
 26 37  1  0  0  0
 27 38  1  0  0  0
 28 39  1  0  0  0
M  END
> <s_m_entry_id>
60818

> <s_m_entry_name>
dock_pv.95

> <s_m_Source_Path>
/home/csk/Desktop/cluster/DUD-E-result/mk14

> <s_m_Source_File>
dock_pv.maegz

> <i_m_Source_File_Index>
95

> <chembl_id>
CHEMBL92788

> <chembl_pref_name>
None

> <i_lp_mmshare_version>
53161

> <i_f3d_flags>
0

> <r_lp_tautomer_probability>
1

> <s_lp_Force_Field>
OPLS_2005

> <r_lp_Energy>
40.449825

> <b_lp_Chiralities_Consistent>
1

> <s_lp_Variant>
CHEMBL260_lig150-1

> <s_i_glide_gridfile>
glide-grid_2qd9

> <i_i_glide_lignum>
167

> <i_i_glide_rotatable_bonds>
3

> <r_i_docking_score>
-9.03098792354455

> <r_i_glide_ligand_efficiency>
-0.322535282983734

> <r_i_glide_ligand_efficiency_sa>
-0.979407082261341

> <r_i_glide_ligand_efficiency_ln>
-2.0846171740815

> <r_i_glide_gscore>
-9.03098792354455

> <r_i_glide_lipo>
-3.9383290434232

> <r_i_glide_hbond>
-0.466877625305476

> <r_i_glide_metal>
0

> <r_i_glide_rewards>
-1.80619355098834

> <r_i_glide_evdw>
-34.432861328125

> <r_i_glide_ecoul>
-9.39664363861084

> <r_i_glide_erotb>
0.311551908370348

> <r_i_glide_esite>
0

> <r_i_glide_emodel>
-61.9990292070009

> <r_i_glide_energy>
-43.8295049667358

> <r_i_glide_einternal>
2.62105178833008

> <i_i_glide_confnum>
12

> <i_i_glide_posenum>
30

> <r_i_glide_eff_state_penalty>
0

> <s_user_duplicate_titles>
CHEMBL260_lig150,151689

> <s_m_subgroup_title>
dock_pv

> <s_m_subgroupid>
dock_pv

> <b_m_subgroup_collapsed>
1

$$$$
CHEMBL260_lig1792
                    3D
 Schrodinger Suite 2021-1.
 39 42  0  0  1  0            999 V2000
   -0.5718   -0.3774   24.8301 C   0  0  0  0  0  0
   -0.4376   -0.9519   26.1046 C   0  0  0  0  0  0
    0.1521   -0.2561   27.1538 C   0  0  0  0  0  0
    0.6215    1.0353   26.9500 C   0  0  0  0  0  0
    0.5018    1.6465   25.6924 C   0  0  0  0  0  0
   -0.0999    0.9295   24.6415 C   0  0  0  0  0  0
   -1.1611   -1.2300   23.7360 C   0  0  0  0  0  0
   -5.1081    0.8623   15.8597 C   0  0  0  0  0  0
   -3.8154    1.3702   15.9100 C   0  0  0  0  0  0
   -3.2357    1.6853   17.1371 C   0  0  0  0  0  0
   -3.9407    1.4548   18.3331 C   0  0  0  0  0  0
   -5.2452    0.9502   18.2701 C   0  0  0  0  0  0
   -5.8366    0.6957   17.0333 C   0  0  0  0  0  0
   -3.2350    1.8772   19.9173 S   0  0  0  0  0  0
   -2.7405    0.3339   20.6780 C   0  0  0  0  0  0
   -2.9653   -0.8844   20.0383 C   0  0  0  0  0  0
   -2.6186   -2.0974   20.6221 C   0  0  0  0  0  0
   -2.1231    0.3372   21.9385 C   0  0  0  0  0  0
   -1.7615   -0.8582   22.5303 N   0  0  0  0  0  0
   -2.0246   -2.0871   21.8864 C   0  0  0  0  0  0
   -1.6351   -3.1130   22.6640 N   0  0  0  0  0  0
   -1.1003   -2.5495   23.7978 N   0  0  0  0  0  0
   -5.6353    0.4873   14.6764 F   0  0  0  0  0  0
   -5.9533    0.7171   19.4005 F   0  0  0  0  0  0
    1.0001    3.0529   25.4653 C   0  0  0  0  0  0
    0.5245    3.7671   24.5849 O   0  0  0  0  0  0
    1.9645    3.4986   26.2735 N   0  0  0  0  0  0
   -0.7804   -1.9580   26.2951 H   0  0  0  0  0  0
    0.2553   -0.7209   28.1239 H   0  0  0  0  0  0
    1.0785    1.5495   27.7845 H   0  0  0  0  0  0
   -0.1534    1.3811   23.6629 H   0  0  0  0  0  0
   -3.2597    1.5152   14.9954 H   0  0  0  0  0  0
   -2.2425    2.1065   17.0982 H   0  0  0  0  0  0
   -6.8349    0.2883   16.9948 H   0  0  0  0  0  0
   -3.4383   -0.9166   19.0759 H   0  0  0  0  0  0
   -2.8166   -3.0325   20.1182 H   0  0  0  0  0  0
   -1.9370    1.2441   22.4900 H   0  0  0  0  0  0
    2.3118    4.4336   26.1400 H   0  0  0  0  0  0
    2.4781    2.8611   26.8751 H   0  0  0  0  0  0
  1  2  2  0  0  0
  1  7  1  0  0  0
  1  6  1  0  0  0
  2  3  1  0  0  0
  2 28  1  0  0  0
  3  4  2  0  0  0
  3 29  1  0  0  0
  4  5  1  0  0  0
  4 30  1  0  0  0
  5  6  2  0  0  0
  5 25  1  0  0  0
  6 31  1  0  0  0
  7 19  1  0  0  0
  7 22  2  0  0  0
  8  9  2  0  0  0
  8 23  1  0  0  0
  8 13  1  0  0  0
  9 10  1  0  0  0
  9 32  1  0  0  0
 10 11  2  0  0  0
 10 33  1  0  0  0
 11 14  1  0  0  0
 11 12  1  0  0  0
 12 24  1  0  0  0
 12 13  2  0  0  0
 13 34  1  0  0  0
 14 15  1  0  0  0
 15 16  1  0  0  0
 15 18  2  0  0  0
 16 17  2  0  0  0
 16 35  1  0  0  0
 17 20  1  0  0  0
 17 36  1  0  0  0
 18 19  1  0  0  0
 18 37  1  0  0  0
 19 20  1  0  0  0
 20 21  2  0  0  0
 21 22  1  0  0  0
 25 26  2  0  0  0
 25 27  1  0  0  0
 27 38  1  0  0  0
 27 39  1  0  0  0
M  END
> <s_m_entry_id>
60819

> <s_m_entry_name>
dock_pv.96

> <s_m_Source_Path>
/home/csk/Desktop/cluster/DUD-E-result/mk14

> <s_m_Source_File>
dock_pv.maegz

> <i_m_Source_File_Index>
96

> <chembl_id>
CHEMBL607143

> <chembl_pref_name>
None

> <i_lp_mmshare_version>
53161

> <i_f3d_flags>
0

> <r_lp_tautomer_probability>
1

> <s_lp_Force_Field>
OPLS_2005

> <r_lp_Energy>
15.850515

> <b_lp_Chiralities_Consistent>
1

> <s_lp_Variant>
CHEMBL260_lig1792-1

> <s_i_glide_gridfile>
glide-grid_2qd9

> <i_i_glide_lignum>
2090

> <i_i_glide_rotatable_bonds>
4

> <r_i_docking_score>
-8.98663473624647

> <r_i_glide_ligand_efficiency>
-0.332838323564684

> <r_i_glide_ligand_efficiency_sa>
-0.998514969597071

> <r_i_glide_ligand_efficiency_ln>
-2.09194041034551

> <r_i_glide_gscore>
-8.98663473624647

> <r_i_glide_lipo>
-3.12496261543262

> <r_i_glide_hbond>
-0.127319905036583

> <r_i_glide_metal>
0

> <r_i_glide_rewards>
-2.52206787934189

> <r_i_glide_evdw>
-43.207820892334

> <r_i_glide_ecoul>
-8.86822032928467

> <r_i_glide_erotb>
0.398462477986694

> <r_i_glide_esite>
-0.120122720412668

> <r_i_glide_emodel>
-78.1304643864787

> <r_i_glide_energy>
-52.0760412216187

> <r_i_glide_einternal>
2.30658316612244

> <i_i_glide_confnum>
10

> <i_i_glide_posenum>
26

> <r_i_glide_eff_state_penalty>
0

> <s_user_duplicate_titles>
CHEMBL260_lig1792,593988

> <s_m_subgroup_title>
dock_pv

> <s_m_subgroupid>
dock_pv

> <b_m_subgroup_collapsed>
1

$$$$
CHEMBL260_lig1246
                    3D
 Schrodinger Suite 2021-1.
 38 41  0  0  1  0            999 V2000
   -1.8766   -2.1467   22.0823 C   0  0  0  0  0  0
   -2.3826   -2.2511   20.7325 C   0  0  0  0  0  0
   -2.8623   -1.2088   20.0316 C   0  0  0  0  0  0
   -1.7934   -0.8522   22.5462 N   0  0  0  0  0  0
   -2.2220    0.3130   21.8069 C   0  0  0  0  0  0
   -2.8022    0.1665   20.5215 C   0  0  0  0  0  0
   -3.2078    1.2823   19.7436 C   0  0  0  0  0  0
   -2.9715    2.5482   20.2761 C   0  0  0  0  0  0
   -2.4350    2.7067   21.5499 C   0  0  0  0  0  0
   -2.0626    1.6075   22.3109 C   0  0  0  0  0  0
   -1.6348   -3.1685   22.7318 O   0  0  0  0  0  0
   -1.4062   -0.7092   23.9067 C   0  0  0  0  0  0
   -2.3721   -0.8300   24.9231 C   0  0  0  0  0  0
   -1.9956   -0.7434   26.2639 C   0  0  0  0  0  0
   -0.6618   -0.5326   26.6064 C   0  0  0  0  0  0
    0.2995   -0.3998   25.6074 C   0  0  0  0  0  0
   -0.0614   -0.4858   24.2621 C   0  0  0  0  0  0
    1.1828   -0.3129   23.0761 Cl  0  0  0  0  0  0
   -4.0349   -1.1123   24.5460 Cl  0  0  0  0  0  0
   -3.8499    1.2146   18.3847 C   0  0  0  0  0  0
   -3.1617    1.5693   17.2046 C   0  0  0  0  0  0
   -3.7756    1.5685   15.9557 C   0  0  0  0  0  0
   -5.1117    1.2198   15.8486 C   0  0  0  0  0  0
   -5.8143    0.8869   16.9971 C   0  0  0  0  0  0
   -5.2060    0.8870   18.2496 C   0  0  0  0  0  0
   -6.1818    0.4872   19.6115 Cl  0  0  0  0  0  0
   -2.4346   -3.2378   20.3027 H   0  0  0  0  0  0
   -3.2792   -1.4004   19.0760 H   0  0  0  0  0  0
   -3.2337    3.4243   19.7071 H   0  0  0  0  0  0
   -2.2697    3.6870   21.9569 H   0  0  0  0  0  0
   -1.6242    1.7806   23.2827 H   0  0  0  0  0  0
   -2.7372   -0.8476   27.0424 H   0  0  0  0  0  0
   -0.3704   -0.4730   27.6454 H   0  0  0  0  0  0
    1.3322   -0.2377   25.8811 H   0  0  0  0  0  0
   -2.1294    1.8678   17.1863 H   0  0  0  0  0  0
   -3.2119    1.8419   15.0760 H   0  0  0  0  0  0
   -5.5991    1.2033   14.8850 H   0  0  0  0  0  0
   -6.8350    0.5852   16.9150 H   0  0  0  0  0  0
  1  4  1  0  0  0
  1 11  2  0  0  0
  1  2  1  0  0  0
  2  3  2  0  0  0
  2 27  1  0  0  0
  3  6  1  0  0  0
  3 28  1  0  0  0
  4  5  1  0  0  0
  4 12  1  0  0  0
  5  6  2  0  0  0
  5 10  1  0  0  0
  6  7  1  0  0  0
  7  8  2  0  0  0
  7 20  1  0  0  0
  8  9  1  0  0  0
  8 29  1  0  0  0
  9 10  2  0  0  0
  9 30  1  0  0  0
 10 31  1  0  0  0
 12 13  2  0  0  0
 12 17  1  0  0  0
 13 14  1  0  0  0
 13 19  1  0  0  0
 14 15  2  0  0  0
 14 32  1  0  0  0
 15 16  1  0  0  0
 15 33  1  0  0  0
 16 17  2  0  0  0
 16 34  1  0  0  0
 17 18  1  0  0  0
 20 21  2  0  0  0
 20 25  1  0  0  0
 21 22  1  0  0  0
 21 35  1  0  0  0
 22 23  2  0  0  0
 22 36  1  0  0  0
 23 24  1  0  0  0
 23 37  1  0  0  0
 24 25  2  0  0  0
 24 38  1  0  0  0
 25 26  1  0  0  0
M  END
> <s_m_entry_id>
60820

> <s_m_entry_name>
dock_pv.97

> <s_m_Source_Path>
/home/csk/Desktop/cluster/DUD-E-result/mk14

> <s_m_Source_File>
dock_pv.maegz

> <i_m_Source_File_Index>
97

> <chembl_id>
CHEMBL405713

> <chembl_pref_name>
None

> <i_lp_mmshare_version>
53161

> <i_f3d_flags>
0

> <r_lp_tautomer_probability>
1

> <s_lp_Force_Field>
OPLS_2005

> <r_lp_Energy>
47.204046

> <b_lp_Chiralities_Consistent>
1

> <s_lp_Variant>
CHEMBL260_lig1246-1

> <s_i_glide_gridfile>
glide-grid_2qd9

> <i_i_glide_lignum>
1421

> <i_i_glide_rotatable_bonds>
2

> <r_i_docking_score>
-8.95462078494088

> <r_i_glide_ligand_efficiency>
-0.344408491728496

> <r_i_glide_ligand_efficiency_sa>
-1.02030880156369

> <r_i_glide_ligand_efficiency_ln>
-2.10296330883603

> <r_i_glide_gscore>
-8.95462078494088

> <r_i_glide_lipo>
-4.51625594215155

> <r_i_glide_hbond>
-0.32

> <r_i_glide_metal>
0

> <r_i_glide_rewards>
-1.5981757962911

> <r_i_glide_evdw>
-39.0968475341797

> <r_i_glide_ecoul>
-5.39729404449463

> <r_i_glide_erotb>
0.244247436884943

> <r_i_glide_esite>
0

> <r_i_glide_emodel>
-57.3494864461633

> <r_i_glide_energy>
-44.4941415786743

> <r_i_glide_einternal>
0.491811513900757

> <i_i_glide_confnum>
6

> <i_i_glide_posenum>
93

> <r_i_glide_eff_state_penalty>
0

> <s_user_duplicate_titles>
CHEMBL260_lig1246,434434

> <s_m_subgroup_title>
dock_pv

> <s_m_subgroupid>
dock_pv

> <b_m_subgroup_collapsed>
1

$$$$
CHEMBL260_lig1245
                    3D
 Schrodinger Suite 2021-1.
 45 48  0  0  1  0            999 V2000
   -1.7389   -2.4592   22.1455 C   0  0  0  0  0  0
   -1.7227   -2.4025   20.6047 C   0  0  1  0  0  0
   -2.8652   -1.4869   20.0959 C   0  0  0  0  0  0
   -1.8385   -1.2218   22.7088 N   0  0  0  0  0  0
   -2.2212   -0.0349   22.0148 C   0  0  0  0  0  0
   -2.7582   -0.0962   20.7072 C   0  0  0  0  0  0
   -3.1181    1.0868   20.0217 C   0  0  0  0  0  0
   -2.8356    2.3127   20.6473 C   0  0  0  0  0  0
   -2.3118    2.3851   21.9435 C   0  0  0  0  0  0
   -2.0233    1.2069   22.6116 C   0  0  0  0  0  0
   -1.6352   -3.5130   22.7708 O   0  0  0  0  0  0
   -0.4350   -1.9130   20.2750 O   0  0  0  0  0  0
   -1.5819   -1.1570   24.1027 C   0  0  0  0  0  0
   -2.6366   -1.2947   25.0174 C   0  0  0  0  0  0
   -2.3822   -1.2468   26.3881 C   0  0  0  0  0  0
   -1.0829   -1.0459   26.8527 C   0  0  0  0  0  0
   -0.0349   -0.8835   25.9475 C   0  0  0  0  0  0
   -0.2729   -0.9400   24.5740 C   0  0  0  0  0  0
    1.0571   -0.7124   23.4858 Cl  0  0  0  0  0  0
   -4.2570   -1.5130   24.4636 Cl  0  0  0  0  0  0
   -3.8035    1.0763   18.6723 C   0  0  0  0  0  0
   -3.0967    1.2482   17.4728 C   0  0  0  0  0  0
   -3.7019    1.2874   16.2194 C   0  0  0  0  0  0
   -5.0710    1.1149   16.1215 C   0  0  0  0  0  0
   -5.7955    0.8870   17.2814 C   0  0  0  0  0  0
   -5.1845    0.8756   18.5350 C   0  0  0  0  0  0
   -6.1770    0.4878   19.8759 Cl  0  0  0  0  0  0
   -2.1068    3.6206   22.5226 O   0  0  0  0  0  0
   -1.3903    3.7310   23.7518 C   0  0  0  0  0  0
   -1.8241   -3.4148   20.2098 H   0  0  0  0  0  0
   -3.8270   -1.9151   20.3609 H   0  0  0  0  0  0
   -2.8332   -1.4319   19.0143 H   0  0  0  0  0  0
   -3.0754    3.2322   20.1358 H   0  0  0  0  0  0
   -1.6128    1.2608   23.6053 H   0  0  0  0  0  0
   -0.3401   -1.9062   19.3190 H   0  0  0  0  0  0
   -3.1918   -1.3624   27.0939 H   0  0  0  0  0  0
   -0.8866   -1.0112   27.9148 H   0  0  0  0  0  0
    0.9687   -0.7168   26.3136 H   0  0  0  0  0  0
   -2.0351    1.2957   17.4589 H   0  0  0  0  0  0
   -3.1060    1.4220   15.3277 H   0  0  0  0  0  0
   -5.5592    1.1159   15.1576 H   0  0  0  0  0  0
   -6.8370    0.6782   17.2040 H   0  0  0  0  0  0
   -1.2371    4.7840   23.9871 H   0  0  0  0  0  0
   -1.9441    3.2866   24.5802 H   0  0  0  0  0  0
   -0.4045    3.2665   23.6868 H   0  0  0  0  0  0
  1 11  2  0  0  0
  1  2  1  0  0  0
  1  4  1  0  0  0
  2  3  1  0  0  0
  2 12  1  0  0  0
  2 30  1  0  0  0
  3  6  1  0  0  0
  3 31  1  0  0  0
  3 32  1  0  0  0
  4  5  1  0  0  0
  4 13  1  0  0  0
  5 10  1  0  0  0
  5  6  2  0  0  0
  6  7  1  0  0  0
  7  8  2  0  0  0
  7 21  1  0  0  0
  8  9  1  0  0  0
  8 33  1  0  0  0
  9 10  2  0  0  0
  9 28  1  0  0  0
 10 34  1  0  0  0
 12 35  1  0  0  0
 13 14  2  0  0  0
 13 18  1  0  0  0
 14 15  1  0  0  0
 14 20  1  0  0  0
 15 16  2  0  0  0
 15 36  1  0  0  0
 16 17  1  0  0  0
 16 37  1  0  0  0
 17 18  2  0  0  0
 17 38  1  0  0  0
 18 19  1  0  0  0
 21 22  2  0  0  0
 21 26  1  0  0  0
 22 23  1  0  0  0
 22 39  1  0  0  0
 23 24  2  0  0  0
 23 40  1  0  0  0
 24 25  1  0  0  0
 24 41  1  0  0  0
 25 26  2  0  0  0
 25 42  1  0  0  0
 26 27  1  0  0  0
 28 29  1  0  0  0
 29 43  1  0  0  0
 29 44  1  0  0  0
 29 45  1  0  0  0
M  END
> <s_m_entry_id>
60821

> <s_m_entry_name>
dock_pv.98

> <s_m_Source_Path>
/home/csk/Desktop/cluster/DUD-E-result/mk14

> <s_m_Source_File>
dock_pv.maegz

> <i_m_Source_File_Index>
98

> <chembl_id>
CHEMBL270812

> <chembl_pref_name>
None

> <i_lp_mmshare_version>
53161

> <i_f3d_flags>
0

> <r_lp_tautomer_probability>
1

> <s_lp_Force_Field>
OPLS_2005

> <r_lp_Energy>
52.39442

> <b_lp_Chiralities_Consistent>
1

> <s_lp_Variant>
CHEMBL260_lig1245-1

> <s_i_glide_gridfile>
glide-grid_2qd9

> <i_i_glide_lignum>
1419

> <i_i_glide_rotatable_bonds>
4

> <r_i_docking_score>
-8.9420958431773

> <r_i_glide_ligand_efficiency>
-0.308348132523355

> <r_i_glide_ligand_efficiency_sa>
-0.947343154656986

> <r_i_glide_ligand_efficiency_ln>
-2.04751319610172

> <r_i_glide_gscore>
-8.9420958431773

> <r_i_glide_lipo>
-4.6382279893655

> <r_i_glide_hbond>
-0.409394125924988

> <r_i_glide_metal>
0

> <r_i_glide_rewards>
-1.11306674467957

> <r_i_glide_evdw>
-32.3120498657227

> <r_i_glide_ecoul>
-9.09871864318848

> <r_i_glide_erotb>
0.199003306557165

> <r_i_glide_esite>
0

> <r_i_glide_emodel>
-48.0891726757003

> <r_i_glide_energy>
-41.4107685089111

> <r_i_glide_einternal>
1.0047835111618

> <i_i_glide_confnum>
6

> <i_i_glide_posenum>
260

> <r_i_glide_eff_state_penalty>
0

> <s_user_duplicate_titles>
CHEMBL260_lig1245

> <s_m_subgroup_title>
dock_pv

> <s_m_subgroupid>
dock_pv

> <b_m_subgroup_collapsed>
1

$$$$
CHEMBL260_lig874
                    3D
 Schrodinger Suite 2021-1.
 45 48  0  0  1  0            999 V2000
    0.2951   -0.6044   25.6138 C   0  0  0  0  0  0
   -0.1026   -0.6278   24.2768 C   0  0  0  0  0  0
   -1.4466   -0.8910   23.9427 C   0  0  0  0  0  0
   -2.3736   -1.1054   24.9790 C   0  0  0  0  0  0
   -1.9617   -1.0794   26.3116 C   0  0  0  0  0  0
   -0.6287   -0.8334   26.6297 C   0  0  0  0  0  0
   -4.0350   -1.4191   24.6408 Cl  0  0  0  0  0  0
    1.0980   -0.3128   23.0761 Cl  0  0  0  0  0  0
   -1.8685   -0.9541   22.5809 N   0  0  0  0  0  0
   -1.9218   -2.2105   22.0291 C   0  0  0  0  0  0
   -2.3631   -2.2684   20.7511 N   0  0  0  0  0  0
   -2.9866   -1.1702   19.9936 C   0  0  0  0  0  0
   -2.2419    0.2517   21.9150 C   0  0  0  0  0  0
   -2.8081    0.2011   20.6367 C   0  0  0  0  0  0
   -3.1017    1.4286   20.0020 C   0  0  0  0  0  0
   -2.6456    2.6144   20.5418 N   0  0  0  0  0  0
   -2.0350    2.5743   21.7792 C   0  0  0  0  0  0
   -1.9384    1.4334   22.5108 N   0  0  0  0  0  0
   -3.8395    1.4542   18.6709 C   0  0  0  0  0  0
   -3.2350    1.8997   17.4818 C   0  0  0  0  0  0
   -3.8411    1.7879   16.2303 C   0  0  0  0  0  0
   -5.1275    1.2801   16.1304 C   0  0  0  0  0  0
   -5.7870    0.8871   17.2858 C   0  0  0  0  0  0
   -5.1522    0.9580   18.5280 C   0  0  0  0  0  0
   -6.0912    0.4870   19.8759 Cl  0  0  0  0  0  0
   -1.6425   -3.2690   22.5964 O   0  0  0  0  0  0
   -1.2623    3.6859   22.2760 N   0  0  0  0  0  0
   -0.7253    3.6367   23.6392 C   0  0  0  0  0  0
   -0.4350    4.4871   21.3548 C   0  0  0  0  0  0
    1.3280   -0.4123   25.8672 H   0  0  0  0  0  0
   -2.6760   -1.2550   27.1027 H   0  0  0  0  0  0
   -0.3096   -0.8201   27.6621 H   0  0  0  0  0  0
   -2.4187   -3.1968   20.3511 H   0  0  0  0  0  0
   -4.0354   -1.4021   19.8609 H   0  0  0  0  0  0
   -2.5368   -1.1574   19.0009 H   0  0  0  0  0  0
   -2.2704    2.3696   17.4760 H   0  0  0  0  0  0
   -3.3245    2.1306   15.3442 H   0  0  0  0  0  0
   -5.6169    1.2102   15.1698 H   0  0  0  0  0  0
   -6.7979    0.5096   17.2204 H   0  0  0  0  0  0
    0.1141    2.9408   23.6917 H   0  0  0  0  0  0
   -0.3815    4.6178   23.9703 H   0  0  0  0  0  0
   -1.4797    3.2901   24.3470 H   0  0  0  0  0  0
   -0.8241    4.4838   20.3352 H   0  0  0  0  0  0
   -0.4162    5.5274   21.6787 H   0  0  0  0  0  0
    0.5835    4.0883   21.3321 H   0  0  0  0  0  0
  1  6  1  0  0  0
  1  2  2  0  0  0
  1 30  1  0  0  0
  2  8  1  0  0  0
  2  3  1  0  0  0
  3  4  2  0  0  0
  3  9  1  0  0  0
  4  7  1  0  0  0
  4  5  1  0  0  0
  5  6  2  0  0  0
  5 31  1  0  0  0
  6 32  1  0  0  0
  9 10  1  0  0  0
  9 13  1  0  0  0
 10 11  1  0  0  0
 10 26  2  0  0  0
 11 12  1  0  0  0
 11 33  1  0  0  0
 12 14  1  0  0  0
 12 34  1  0  0  0
 12 35  1  0  0  0
 13 14  2  0  0  0
 13 18  1  0  0  0
 14 15  1  0  0  0
 15 16  2  0  0  0
 15 19  1  0  0  0
 16 17  1  0  0  0
 17 18  2  0  0  0
 17 27  1  0  0  0
 19 20  2  0  0  0
 19 24  1  0  0  0
 20 21  1  0  0  0
 20 36  1  0  0  0
 21 22  2  0  0  0
 21 37  1  0  0  0
 22 23  1  0  0  0
 22 38  1  0  0  0
 23 24  2  0  0  0
 23 39  1  0  0  0
 24 25  1  0  0  0
 27 28  1  0  0  0
 27 29  1  0  0  0
 28 40  1  0  0  0
 28 41  1  0  0  0
 28 42  1  0  0  0
 29 43  1  0  0  0
 29 44  1  0  0  0
 29 45  1  0  0  0
M  END
> <s_m_entry_id>
60822

> <s_m_entry_name>
dock_pv.99

> <s_m_Source_Path>
/home/csk/Desktop/cluster/DUD-E-result/mk14

> <s_m_Source_File>
dock_pv.maegz

> <i_m_Source_File_Index>
99

> <chembl_id>
CHEMBL441853

> <chembl_pref_name>
None

> <i_lp_mmshare_version>
53161

> <i_f3d_flags>
0

> <r_lp_tautomer_probability>
1

> <s_lp_Force_Field>
OPLS_2005

> <r_lp_Energy>
40.591448

> <b_lp_Chiralities_Consistent>
1

> <s_lp_Variant>
CHEMBL260_lig874-1

> <s_i_glide_gridfile>
glide-grid_2qd9

> <i_i_glide_lignum>
972

> <i_i_glide_rotatable_bonds>
3

> <r_i_docking_score>
-8.93303754618705

> <r_i_glide_ligand_efficiency>
-0.308035777454726

> <r_i_glide_ligand_efficiency_sa>
-0.946383500925125

> <r_i_glide_ligand_efficiency_ln>
-2.04543907578954

> <r_i_glide_gscore>
-8.93303754618705

> <r_i_glide_lipo>
-3.84155675920338

> <r_i_glide_hbond>
-0.475998243942346

> <r_i_glide_metal>
0

> <r_i_glide_rewards>
-1.8069927456896

> <r_i_glide_evdw>
-31.774507522583

> <r_i_glide_ecoul>
-8.79775333404541

> <r_i_glide_erotb>
0.139298590250536

> <r_i_glide_esite>
-0.039400011366301

> <r_i_glide_emodel>
-40.7734296959407

> <r_i_glide_energy>
-40.5722608566284

> <r_i_glide_einternal>
8.9838695526123

> <i_i_glide_confnum>
8

> <i_i_glide_posenum>
74

> <r_i_glide_eff_state_penalty>
0

> <s_user_duplicate_titles>
CHEMBL260_lig874,355389

> <s_m_subgroup_title>
dock_pv

> <s_m_subgroupid>
dock_pv

> <b_m_subgroup_collapsed>
1

$$$$
CHEMBL260_lig1797
                    3D
 Schrodinger Suite 2021-1.
 49 52  0  0  1  0            999 V2000
    0.4580    3.8031   24.5851 C   0  0  0  0  0  0
    1.5655    4.4456   24.9941 N   0  0  0  0  0  0
   -0.3914    4.3043   23.8440 O   0  0  0  0  0  0
    1.9381    5.8345   24.6776 C   0  0  0  0  0  0
    2.1682    6.1597   23.1847 C   0  0  0  0  0  0
    2.3348    7.3275   22.8449 O   0  0  0  0  0  0
    2.1743    5.1853   22.2760 N   0  0  0  0  0  0
    0.2904    2.3951   25.0914 C   0  0  0  0  0  0
   -0.5233    0.1140   24.6973 C   0  0  0  0  0  0
   -0.1951    1.3995   24.2373 C   0  0  0  0  0  0
    0.5557    2.0687   26.4243 C   0  0  0  0  0  0
    0.2749    0.7924   26.8989 C   0  0  0  0  0  0
   -0.2863   -0.1765   26.0613 C   0  0  0  0  0  0
   -1.0705   -0.9013   23.7120 C   0  0  0  0  0  0
   -5.1303    0.7892   15.8285 C   0  0  0  0  0  0
   -3.8587    1.3490   15.8950 C   0  0  0  0  0  0
   -3.3154    1.6869   17.1323 C   0  0  0  0  0  0
   -4.0353    1.4395   18.3088 C   0  0  0  0  0  0
   -5.3184    0.8870   18.2333 C   0  0  0  0  0  0
   -5.8683    0.5900   16.9889 C   0  0  0  0  0  0
   -3.3574    1.9130   19.8761 S   0  0  0  0  0  0
   -2.8363    0.4019   20.6601 C   0  0  0  0  0  0
   -2.9686   -0.8454   20.0480 C   0  0  0  0  0  0
   -2.5423   -2.0153   20.6763 C   0  0  0  0  0  0
   -2.2572    0.4822   21.9246 C   0  0  0  0  0  0
   -1.7674   -0.6530   22.5313 N   0  0  0  0  0  0
   -1.9306   -1.9197   21.9341 C   0  0  0  0  0  0
   -1.4311   -2.8726   22.7449 N   0  0  0  0  0  0
   -0.8807   -2.2061   23.8208 N   0  0  0  0  0  0
   -5.6351    0.3961   14.6449 F   0  0  0  0  0  0
   -6.0343    0.6343   19.3540 F   0  0  0  0  0  0
   -0.6537   -1.5132   26.6887 C   0  0  0  0  0  0
    2.2466    3.9087   25.5128 H   0  0  0  0  0  0
    2.8474    6.0877   25.2219 H   0  0  0  0  0  0
    1.1638    6.5014   25.0583 H   0  0  0  0  0  0
    2.2265    5.4170   21.2882 H   0  0  0  0  0  0
    2.0625    4.2250   22.5619 H   0  0  0  0  0  0
   -0.2926    1.6467   23.1933 H   0  0  0  0  0  0
    0.9503    2.8014   27.1150 H   0  0  0  0  0  0
    0.4735    0.5696   27.9378 H   0  0  0  0  0  0
   -3.2946    1.5157   14.9892 H   0  0  0  0  0  0
   -2.3435    2.1505   17.1511 H   0  0  0  0  0  0
   -6.8350    0.1233   16.9329 H   0  0  0  0  0  0
   -3.4181   -0.9308   19.0761 H   0  0  0  0  0  0
   -2.6665   -2.9776   20.1996 H   0  0  0  0  0  0
   -2.1764    1.4185   22.4500 H   0  0  0  0  0  0
   -0.5390   -1.5139   27.7737 H   0  0  0  0  0  0
   -1.6939   -1.7578   26.4731 H   0  0  0  0  0  0
   -0.0348   -2.3097   26.2772 H   0  0  0  0  0  0
  1  3  2  0  0  0
  1  2  1  0  0  0
  1  8  1  0  0  0
  2  4  1  0  0  0
  2 33  1  0  0  0
  4  5  1  0  0  0
  4 34  1  0  0  0
  4 35  1  0  0  0
  5  6  2  0  0  0
  5  7  1  0  0  0
  7 36  1  0  0  0
  7 37  1  0  0  0
  8 10  1  0  0  0
  8 11  2  0  0  0
  9 10  2  0  0  0
  9 13  1  0  0  0
  9 14  1  0  0  0
 10 38  1  0  0  0
 11 12  1  0  0  0
 11 39  1  0  0  0
 12 13  2  0  0  0
 12 40  1  0  0  0
 13 32  1  0  0  0
 14 26  1  0  0  0
 14 29  2  0  0  0
 15 20  1  0  0  0
 15 30  1  0  0  0
 15 16  2  0  0  0
 16 17  1  0  0  0
 16 41  1  0  0  0
 17 18  2  0  0  0
 17 42  1  0  0  0
 18 19  1  0  0  0
 18 21  1  0  0  0
 19 20  2  0  0  0
 19 31  1  0  0  0
 20 43  1  0  0  0
 21 22  1  0  0  0
 22 23  1  0  0  0
 22 25  2  0  0  0
 23 24  2  0  0  0
 23 44  1  0  0  0
 24 27  1  0  0  0
 24 45  1  0  0  0
 25 26  1  0  0  0
 25 46  1  0  0  0
 26 27  1  0  0  0
 27 28  2  0  0  0
 28 29  1  0  0  0
 32 47  1  0  0  0
 32 48  1  0  0  0
 32 49  1  0  0  0
M  END
> <s_m_entry_id>
60823

> <s_m_entry_name>
dock_pv.100

> <s_m_Source_Path>
/home/csk/Desktop/cluster/DUD-E-result/mk14

> <s_m_Source_File>
dock_pv.maegz

> <i_m_Source_File_Index>
100

> <chembl_id>
CHEMBL603640

> <chembl_pref_name>
None

> <i_lp_mmshare_version>
53161

> <i_f3d_flags>
0

> <r_lp_tautomer_probability>
1

> <s_lp_Force_Field>
OPLS_2005

> <r_lp_Energy>
14.549369

> <b_lp_Chiralities_Consistent>
1

> <s_lp_Variant>
CHEMBL260_lig1797-1

> <s_i_glide_gridfile>
glide-grid_2qd9

> <i_i_glide_lignum>
2095

> <i_i_glide_rotatable_bonds>
7

> <r_i_docking_score>
-8.92970960658749

> <r_i_glide_ligand_efficiency>
-0.279053425205859

> <r_i_glide_ligand_efficiency_sa>
-0.885939400430742

> <r_i_glide_ligand_efficiency_ln>
-1.99960539560549

> <r_i_glide_gscore>
-8.92970960658749

> <r_i_glide_lipo>
-3.16815167663838

> <r_i_glide_hbond>
-0.158248956354596

> <r_i_glide_metal>
0

> <r_i_glide_rewards>
-1.99226635563182

> <r_i_glide_evdw>
-48.3374519348145

> <r_i_glide_ecoul>
-10.9292726516724

> <r_i_glide_erotb>
0.585709884675306

> <r_i_glide_esite>
-0.140489008146412

> <r_i_glide_emodel>
-90.3652162346502

> <r_i_glide_energy>
-59.2667245864868

> <r_i_glide_einternal>
4.70897150039673

> <i_i_glide_confnum>
15

> <i_i_glide_posenum>
242

> <r_i_glide_eff_state_penalty>
0

> <s_user_duplicate_titles>
CHEMBL260_lig1797,593993

> <s_m_subgroup_title>
dock_pv

> <s_m_subgroupid>
dock_pv

> <b_m_subgroup_collapsed>
1

$$$$
CHEMBL260_lig1656
                    3D
 Schrodinger Suite 2021-1.
 62 65  0  0  1  0            999 V2000
   -5.4058    0.8529   16.2070 C   0  0  0  0  0  0
   -4.1024    1.3295   16.1502 C   0  0  0  0  0  0
   -3.4100    1.5780   17.3318 C   0  0  0  0  0  0
   -4.0038    1.3165   18.5747 C   0  0  0  0  0  0
   -5.3331    0.8870   18.6184 C   0  0  0  0  0  0
   -6.0350    0.6802   17.4352 C   0  0  0  0  0  0
   -3.2350    1.5082   19.8335 C   0  0  0  0  0  0
   -2.7318    0.2910   20.5861 C   0  0  0  0  0  0
   -3.0509    2.6591   20.2372 O   0  0  0  0  0  0
   -2.6346   -0.9358   19.9079 C   0  0  0  0  0  0
   -2.2325   -2.0875   20.5776 C   0  0  0  0  0  0
   -1.8832   -2.0240   21.8732 N   0  3  0  0  0  0
   -1.8667   -0.8555   22.5664 C   0  0  0  0  0  0
   -2.3050    0.3264   21.9352 C   0  0  0  0  0  0
   -1.5896   -3.1135   22.4431 O   0  5  0  0  0  0
   -2.3146    1.5150   22.6767 N   0  0  0  0  0  0
   -1.4132   -0.8755   23.9890 C   0  0  0  0  0  0
   -2.3369   -0.9651   25.0404 C   0  0  0  0  0  0
   -1.9055   -0.8360   26.3623 C   0  0  0  0  0  0
   -0.5595   -0.5882   26.6568 C   0  0  0  0  0  0
    0.3669   -0.5680   25.6038 C   0  0  0  0  0  0
   -0.0569   -0.7156   24.2850 C   0  0  0  0  0  0
   -5.9469    0.6343   19.7947 F   0  0  0  0  0  0
   -6.0349    0.4870   15.0759 F   0  0  0  0  0  0
   -3.8143   -1.1689   24.7568 C   0  0  0  0  0  0
   -0.1539   -0.2894   28.0784 C   0  0  0  0  0  0
   -0.7821   -0.7590   29.0273 O   0  0  0  0  0  0
    0.8305    0.6156   28.2188 N   0  0  0  0  0  0
    1.2405    1.2522   29.4729 C   0  0  0  0  0  0
    1.3013    2.7941   29.3787 C   0  0  0  0  0  0
    0.0331    3.4885   29.6500 N   0  0  0  0  0  0
    0.2765    4.9282   29.8352 C   0  0  0  0  0  0
   -1.0347    5.7238   30.0106 C   0  0  0  0  0  0
   -1.8985    5.4862   28.9051 O   0  0  0  0  0  0
   -2.2467    4.1107   28.7898 C   0  0  0  0  0  0
   -0.9833    3.2380   28.6148 C   0  0  0  0  0  0
   -3.6242    1.4834   15.1931 H   0  0  0  0  0  0
   -2.4104    1.9605   17.2570 H   0  0  0  0  0  0
   -7.0367    0.2848   17.4775 H   0  0  0  0  0  0
   -2.8552   -1.0149   18.8561 H   0  0  0  0  0  0
   -2.1809   -3.0658   20.1184 H   0  0  0  0  0  0
   -1.8614    1.5214   23.5798 H   0  0  0  0  0  0
   -2.4627    2.3728   22.1614 H   0  0  0  0  0  0
   -2.6331   -0.8740   27.1616 H   0  0  0  0  0  0
    1.4202   -0.4148   25.7928 H   0  0  0  0  0  0
    0.6696   -0.6584   23.4873 H   0  0  0  0  0  0
   -4.3414   -1.5352   25.6375 H   0  0  0  0  0  0
   -4.2644   -0.2391   24.4081 H   0  0  0  0  0  0
   -3.9515   -1.9127   23.9738 H   0  0  0  0  0  0
    1.3848    0.8539   27.4104 H   0  0  0  0  0  0
    0.6042    0.9597   30.3115 H   0  0  0  0  0  0
    2.2345    0.8870   29.7304 H   0  0  0  0  0  0
    1.9514    3.0995   30.2001 H   0  0  0  0  0  0
    1.7873    3.1293   28.4606 H   0  0  0  0  0  0
    0.9280    5.0824   30.6961 H   0  0  0  0  0  0
    0.8202    5.3207   28.9740 H   0  0  0  0  0  0
   -0.8189    6.7913   30.0622 H   0  0  0  0  0  0
   -1.5282    5.4621   30.9483 H   0  0  0  0  0  0
   -2.8918    3.9946   27.9190 H   0  0  0  0  0  0
   -2.8335    3.7904   29.6541 H   0  0  0  0  0  0
   -0.5504    3.4348   27.6319 H   0  0  0  0  0  0
   -1.2641    2.1863   28.6161 H   0  0  0  0  0  0
  1 24  1  0  0  0
  1  6  1  0  0  0
  1  2  2  0  0  0
  2  3  1  0  0  0
  2 37  1  0  0  0
  3  4  2  0  0  0
  3 38  1  0  0  0
  4  5  1  0  0  0
  4  7  1  0  0  0
  5 23  1  0  0  0
  5  6  2  0  0  0
  6 39  1  0  0  0
  7  9  2  0  0  0
  7  8  1  0  0  0
  8 10  2  0  0  0
  8 14  1  0  0  0
 10 11  1  0  0  0
 10 40  1  0  0  0
 11 12  2  0  0  0
 11 41  1  0  0  0
 12 13  1  0  0  0
 12 15  1  0  0  0
 13 14  2  0  0  0
 13 17  1  0  0  0
 14 16  1  0  0  0
 16 42  1  0  0  0
 16 43  1  0  0  0
 17 18  2  0  0  0
 17 22  1  0  0  0
 18 19  1  0  0  0
 18 25  1  0  0  0
 19 20  2  0  0  0
 19 44  1  0  0  0
 20 21  1  0  0  0
 20 26  1  0  0  0
 21 22  2  0  0  0
 21 45  1  0  0  0
 22 46  1  0  0  0
 25 47  1  0  0  0
 25 48  1  0  0  0
 25 49  1  0  0  0
 26 27  2  0  0  0
 26 28  1  0  0  0
 28 29  1  0  0  0
 28 50  1  0  0  0
 29 30  1  0  0  0
 29 51  1  0  0  0
 29 52  1  0  0  0
 30 31  1  0  0  0
 30 53  1  0  0  0
 30 54  1  0  0  0
 31 32  1  0  0  0
 31 36  1  0  0  0
 32 33  1  0  0  0
 32 55  1  0  0  0
 32 56  1  0  0  0
 33 34  1  0  0  0
 33 57  1  0  0  0
 33 58  1  0  0  0
 34 35  1  0  0  0
 35 36  1  0  0  0
 35 59  1  0  0  0
 35 60  1  0  0  0
 36 61  1  0  0  0
 36 62  1  0  0  0
M  CHG  2  12   1  15  -1
M  END
> <s_m_entry_id>
60824

> <s_m_entry_name>
dock_pv.101

> <s_m_Source_Path>
/home/csk/Desktop/cluster/DUD-E-result/mk14

> <s_m_Source_File>
dock_pv.maegz

> <i_m_Source_File_Index>
101

> <chembl_id>
CHEMBL559462

> <chembl_pref_name>
None

> <i_lp_mmshare_version>
53161

> <i_f3d_flags>
0

> <r_lp_tautomer_probability>
1

> <s_lp_Force_Field>
OPLS_2005

> <r_lp_Energy>
66.862818

> <b_lp_Chiralities_Consistent>
1

> <s_lp_Variant>
CHEMBL260_lig1656-1

> <s_i_glide_gridfile>
glide-grid_2qd9

> <i_i_glide_lignum>
1908

> <i_i_glide_rotatable_bonds>
8

> <r_i_docking_score>
-8.86211565454627

> <r_i_glide_ligand_efficiency>
-0.246169879292952

> <r_i_glide_ligand_efficiency_sa>
-0.812835031323563

> <r_i_glide_ligand_efficiency_ln>
-1.93347420912618

> <r_i_glide_gscore>
-8.86211565454627

> <r_i_glide_lipo>
-3.7997011394792

> <r_i_glide_hbond>
-0.13257123586019

> <r_i_glide_metal>
0

> <r_i_glide_rewards>
-1.53010758865534

> <r_i_glide_evdw>
-42.7748985290527

> <r_i_glide_ecoul>
-12.2670183181763

> <r_i_glide_erotb>
0.57906198362753

> <r_i_glide_esite>
0

> <r_i_glide_emodel>
-77.1760610660602

> <r_i_glide_energy>
-55.041916847229

> <r_i_glide_einternal>
7.9079532623291

> <i_i_glide_confnum>
10

> <i_i_glide_posenum>
6

> <r_i_glide_eff_state_penalty>
0

> <s_user_duplicate_titles>
CHEMBL260_lig1656,554910

> <s_m_subgroup_title>
dock_pv

> <s_m_subgroupid>
dock_pv

> <b_m_subgroup_collapsed>
1

$$$$
CHEMBL260_lig1055
                    3D
 Schrodinger Suite 2021-1.
 40 43  0  0  1  0            999 V2000
   -1.4182   -1.6141   20.4919 C   0  0  0  0  0  0
   -1.5915   -1.2632   21.9103 N   0  0  0  0  0  0
   -1.5851    0.1830   22.2527 C   0  0  0  0  0  0
   -2.6425   -1.0915   19.7077 C   0  0  0  0  0  0
   -3.3838    1.3789   19.2977 N   0  0  0  0  0  0
   -2.8474    0.3704   20.0620 C   0  0  0  0  0  0
   -2.3148    0.9771   21.1824 C   0  0  0  0  0  0
   -2.5803    2.3338   20.9907 C   0  0  0  0  0  0
   -3.2350    2.5784   19.8760 N   0  0  0  0  0  0
   -1.8825   -2.2349   22.8050 C   0  0  0  0  0  0
   -2.0350   -3.4243   22.5185 O   0  0  0  0  0  0
   -1.9593   -1.8296   24.2472 C   0  0  0  0  0  0
   -3.9721    1.2870   18.0299 C   0  0  0  0  0  0
   -5.3041    0.8870   17.8898 C   0  0  0  0  0  0
   -5.8396    0.7530   16.6109 C   0  0  0  0  0  0
   -5.0789    1.0284   15.4798 C   0  0  0  0  0  0
   -3.7660    1.4672   15.6231 C   0  0  0  0  0  0
   -3.2152    1.6037   16.8953 C   0  0  0  0  0  0
   -6.2879    0.4870   19.2569 Cl  0  0  0  0  0  0
   -3.1917   -1.5130   24.8327 C   0  0  0  0  0  0
   -3.2471   -1.2734   26.2056 C   0  0  0  0  0  0
   -2.0879   -1.2394   26.9767 C   0  0  0  0  0  0
   -0.8526   -1.4381   26.3686 C   0  0  0  0  0  0
   -0.7854   -1.7319   25.0084 C   0  0  0  0  0  0
    0.7650   -1.9130   24.2760 Cl  0  0  0  0  0  0
   -4.6382   -1.3783   23.8760 Cl  0  0  0  0  0  0
   -1.2051   -2.6724   20.3273 H   0  0  0  0  0  0
   -0.5116   -1.1134   20.1506 H   0  0  0  0  0  0
   -0.5622    0.5292   22.3964 H   0  0  0  0  0  0
   -2.0407    0.4054   23.2172 H   0  0  0  0  0  0
   -3.5278   -1.6881   19.9301 H   0  0  0  0  0  0
   -2.4350   -1.2127   18.6505 H   0  0  0  0  0  0
   -2.2887    3.1273   21.6621 H   0  0  0  0  0  0
   -6.8350    0.3728   16.4927 H   0  0  0  0  0  0
   -5.5104    0.8874   14.5008 H   0  0  0  0  0  0
   -3.1724    1.6869   14.7482 H   0  0  0  0  0  0
   -2.1916    1.9351   16.9874 H   0  0  0  0  0  0
   -4.2008   -1.1130   26.6760 H   0  0  0  0  0  0
   -2.1430   -1.0411   28.0374 H   0  0  0  0  0  0
    0.0529   -1.3765   26.9555 H   0  0  0  0  0  0
  1  2  1  0  0  0
  1  4  1  0  0  0
  1 27  1  0  0  0
  1 28  1  0  0  0
  2  3  1  0  0  0
  2 10  1  0  0  0
  3  7  1  0  0  0
  3 29  1  0  0  0
  3 30  1  0  0  0
  4  6  1  0  0  0
  4 31  1  0  0  0
  4 32  1  0  0  0
  5 13  1  0  0  0
  5  6  1  0  0  0
  5  9  1  0  0  0
  6  7  2  0  0  0
  7  8  1  0  0  0
  8  9  2  0  0  0
  8 33  1  0  0  0
 10 11  2  0  0  0
 10 12  1  0  0  0
 12 20  2  0  0  0
 12 24  1  0  0  0
 13 14  2  0  0  0
 13 18  1  0  0  0
 14 15  1  0  0  0
 14 19  1  0  0  0
 15 16  2  0  0  0
 15 34  1  0  0  0
 16 17  1  0  0  0
 16 35  1  0  0  0
 17 18  2  0  0  0
 17 36  1  0  0  0
 18 37  1  0  0  0
 20 21  1  0  0  0
 20 26  1  0  0  0
 21 22  2  0  0  0
 21 38  1  0  0  0
 22 23  1  0  0  0
 22 39  1  0  0  0
 23 24  2  0  0  0
 23 40  1  0  0  0
 24 25  1  0  0  0
M  END
> <s_m_entry_id>
60825

> <s_m_entry_name>
dock_pv.102

> <s_m_Source_Path>
/home/csk/Desktop/cluster/DUD-E-result/mk14

> <s_m_Source_File>
dock_pv.maegz

> <i_m_Source_File_Index>
102

> <chembl_id>
CHEMBL438109

> <chembl_pref_name>
None

> <i_lp_mmshare_version>
53161

> <i_f3d_flags>
0

> <r_lp_tautomer_probability>
1

> <s_lp_Force_Field>
OPLS_2005

> <r_lp_Energy>
38.679889

> <b_lp_Chiralities_Consistent>
1

> <s_lp_Variant>
CHEMBL260_lig1055-1

> <s_i_glide_gridfile>
glide-grid_2qd9

> <i_i_glide_lignum>
1182

> <i_i_glide_rotatable_bonds>
3

> <r_i_docking_score>
-8.85983637211364

> <r_i_glide_ligand_efficiency>
-0.340762937388986

> <r_i_glide_ligand_efficiency_sa>
-1.00950886117746

> <r_i_glide_ligand_efficiency_ln>
-2.08070350049657

> <r_i_glide_gscore>
-8.85983637211364

> <r_i_glide_lipo>
-4.25800933128808

> <r_i_glide_hbond>
-0.32

> <r_i_glide_metal>
0

> <r_i_glide_rewards>
-1.69803289478465

> <r_i_glide_evdw>
-41.8421020507812

> <r_i_glide_ecoul>
-5.65578699111938

> <r_i_glide_erotb>
0.356679005166054

> <r_i_glide_esite>
0

> <r_i_glide_emodel>
-64.0617590521046

> <r_i_glide_energy>
-47.4978890419006

> <r_i_glide_einternal>
4.06505155563354

> <i_i_glide_confnum>
17

> <i_i_glide_posenum>
237

> <r_i_glide_eff_state_penalty>
0

> <s_user_duplicate_titles>
CHEMBL260_lig1055,386105

> <s_m_subgroup_title>
dock_pv

> <s_m_subgroupid>
dock_pv

> <b_m_subgroup_collapsed>
1

$$$$
CHEMBL260_lig1230
                    3D
 Schrodinger Suite 2021-1.
 57 60  0  0  1  0            999 V2000
   -3.2450    4.2775   25.7221 N   0  0  0  0  0  0
   -1.8047   -2.3688   21.7340 C   0  0  0  0  0  0
   -2.0823   -2.2427   20.3175 C   0  0  0  0  0  0
   -2.4602   -1.0902   19.7291 C   0  0  0  0  0  0
   -1.8176   -1.1721   22.4106 N   0  0  0  0  0  0
   -2.1223    0.1028   21.8183 C   0  0  0  0  0  0
   -2.5289    0.1805   20.4694 C   0  0  0  0  0  0
   -2.9360    1.4036   19.8800 C   0  0  0  0  0  0
   -2.8352    2.5566   20.6756 C   0  0  0  0  0  0
   -2.3939    2.5130   22.0105 C   0  0  0  0  0  0
   -2.0356    1.2838   22.5570 C   0  0  0  0  0  0
   -1.6407   -3.4773   22.2489 O   0  0  0  0  0  0
   -1.7189   -1.2482   23.8244 C   0  0  0  0  0  0
   -2.8813   -1.4153   24.6007 C   0  0  0  0  0  0
   -2.7859   -1.5000   25.9897 C   0  0  0  0  0  0
   -1.5454   -1.3972   26.6156 C   0  0  0  0  0  0
   -0.3951   -1.2014   25.8553 C   0  0  0  0  0  0
   -0.4715   -1.1228   24.4643 C   0  0  0  0  0  0
    0.9821   -0.8272   23.5741 Cl  0  0  0  0  0  0
   -4.4497   -1.4956   23.8716 Cl  0  0  0  0  0  0
   -3.5029    1.4783   18.4742 C   0  0  0  0  0  0
   -2.8477    2.1269   17.3846 C   0  0  0  0  0  0
   -3.3883    2.0871   16.0995 C   0  0  0  0  0  0
   -4.6079    1.4599   15.8719 C   0  0  0  0  0  0
   -5.3018    0.8875   16.9285 C   0  0  0  0  0  0
   -4.7588    0.8899   18.2128 C   0  0  0  0  0  0
   -5.7218    0.2080   19.4756 Cl  0  0  0  0  0  0
   -2.3636    3.6835   22.7553 O   0  0  0  0  0  0
   -1.5114    3.7795   23.9082 C   0  0  0  0  0  0
   -2.1740    3.3956   25.2570 C   0  0  0  0  0  0
   -3.0440    5.4896   26.2701 C   0  0  0  0  0  0
   -4.3560    7.5413   25.9653 N   0  0  0  0  0  0
   -4.3095    6.2684   26.7102 C   0  0  2  0  0  0
   -1.9289    6.0086   26.3768 O   0  0  0  0  0  0
   -4.3481    6.4800   28.2324 C   0  0  0  0  0  0
   -4.1876    3.9084   25.7109 H   0  0  0  0  0  0
   -2.0320   -3.1465   19.7288 H   0  0  0  0  0  0
   -2.6612   -1.0926   18.6760 H   0  0  0  0  0  0
   -3.1338    3.5075   20.2643 H   0  0  0  0  0  0
   -1.7031    1.2399   23.5787 H   0  0  0  0  0  0
   -3.6767   -1.6355   26.5853 H   0  0  0  0  0  0
   -1.4732   -1.4634   27.6922 H   0  0  0  0  0  0
    0.5618   -1.1088   26.3483 H   0  0  0  0  0  0
   -2.0341    2.8250   17.4766 H   0  0  0  0  0  0
   -2.8906    2.6004   15.2885 H   0  0  0  0  0  0
   -5.0447    1.4602   14.8875 H   0  0  0  0  0  0
   -6.2697    0.4398   16.7516 H   0  0  0  0  0  0
   -0.5889    3.2120   23.7673 H   0  0  0  0  0  0
   -1.1614    4.8101   23.9734 H   0  0  0  0  0  0
   -2.6696    2.4346   25.1264 H   0  0  0  0  0  0
   -1.4211    3.2060   26.0249 H   0  0  0  0  0  0
   -5.1934    8.0505   26.2161 H   0  0  0  0  0  0
   -3.5961    8.1331   26.2775 H   0  0  0  0  0  0
   -5.1912    5.6883   26.4341 H   0  0  0  0  0  0
   -4.3510    5.5275   28.7639 H   0  0  0  0  0  0
   -3.4908    7.0537   28.5883 H   0  0  0  0  0  0
   -5.2492    7.0151   28.5303 H   0  0  0  0  0  0
  1 30  1  0  0  0
  1 31  1  0  0  0
  1 36  1  0  0  0
  2 12  2  0  0  0
  2  3  1  0  0  0
  2  5  1  0  0  0
  3  4  2  0  0  0
  3 37  1  0  0  0
  4  7  1  0  0  0
  4 38  1  0  0  0
  5  6  1  0  0  0
  5 13  1  0  0  0
  6 11  1  0  0  0
  6  7  2  0  0  0
  7  8  1  0  0  0
  8  9  2  0  0  0
  8 21  1  0  0  0
  9 10  1  0  0  0
  9 39  1  0  0  0
 10 11  2  0  0  0
 10 28  1  0  0  0
 11 40  1  0  0  0
 13 18  1  0  0  0
 13 14  2  0  0  0
 14 20  1  0  0  0
 14 15  1  0  0  0
 15 16  2  0  0  0
 15 41  1  0  0  0
 16 17  1  0  0  0
 16 42  1  0  0  0
 17 18  2  0  0  0
 17 43  1  0  0  0
 18 19  1  0  0  0
 21 22  2  0  0  0
 21 26  1  0  0  0
 22 23  1  0  0  0
 22 44  1  0  0  0
 23 24  2  0  0  0
 23 45  1  0  0  0
 24 25  1  0  0  0
 24 46  1  0  0  0
 25 26  2  0  0  0
 25 47  1  0  0  0
 26 27  1  0  0  0
 28 29  1  0  0  0
 29 30  1  0  0  0
 29 48  1  0  0  0
 29 49  1  0  0  0
 30 50  1  0  0  0
 30 51  1  0  0  0
 31 33  1  0  0  0
 31 34  2  0  0  0
 32 33  1  0  0  0
 32 52  1  0  0  0
 32 53  1  0  0  0
 33 35  1  0  0  0
 33 54  1  0  0  0
 35 55  1  0  0  0
 35 56  1  0  0  0
 35 57  1  0  0  0
M  END
> <s_m_entry_id>
60826

> <s_m_entry_name>
dock_pv.103

> <s_m_Source_Path>
/home/csk/Desktop/cluster/DUD-E-result/mk14

> <s_m_Source_File>
dock_pv.maegz

> <i_m_Source_File_Index>
103

> <chembl_id>
CHEMBL255403

> <chembl_pref_name>
None

> <i_lp_mmshare_version>
53161

> <i_f3d_flags>
0

> <r_lp_tautomer_probability>
1

> <s_lp_Force_Field>
OPLS_2005

> <r_lp_Energy>
50.245874

> <b_lp_Chiralities_Consistent>
1

> <s_lp_Variant>
CHEMBL260_lig1230-1

> <s_i_glide_gridfile>
glide-grid_2qd9

> <i_i_glide_lignum>
1402

> <i_i_glide_rotatable_bonds>
8

> <r_i_docking_score>
-8.85176857214297

> <r_i_glide_ligand_efficiency>
-0.252907673489799

> <r_i_glide_ligand_efficiency_sa>
-0.827277769360238

> <r_i_glide_ligand_efficiency_ln>
-1.94315965600416

> <r_i_glide_gscore>
-8.85176857214297

> <r_i_glide_lipo>
-4.44015068808791

> <r_i_glide_hbond>
-0.357449037260595

> <r_i_glide_metal>
0

> <r_i_glide_rewards>
-1.01645516134822

> <r_i_glide_evdw>
-35.991771697998

> <r_i_glide_ecoul>
-10.9924516677856

> <r_i_glide_erotb>
0.512150276290594

> <r_i_glide_esite>
-0.101407626669099

> <r_i_glide_emodel>
-64.9926382613408

> <r_i_glide_energy>
-46.9842233657837

> <r_i_glide_einternal>
7.22820138931274

> <i_i_glide_confnum>
10

> <i_i_glide_posenum>
15

> <r_i_glide_eff_state_penalty>
0

> <s_user_duplicate_titles>
CHEMBL260_lig1230,433991

> <s_m_subgroup_title>
dock_pv

> <s_m_subgroupid>
dock_pv

> <b_m_subgroup_collapsed>
1

$$$$
CHEMBL260_lig508
                    3D
 Schrodinger Suite 2021-1.
 53 57  0  0  1  0            999 V2000
   -2.6040    1.0742   21.2945 C   0  0  0  0  0  0
   -2.0350    2.0180   22.1478 N   0  0  0  0  0  0
   -2.6686    3.0883   20.2763 N   0  0  0  0  0  0
   -3.0617    1.8301   20.1957 C   0  0  0  0  0  0
   -2.0350    3.1734   21.4108 C   0  0  0  0  0  0
   -2.5868   -0.4166   21.5008 C   0  0  0  0  0  0
   -2.5039   -0.8848   22.7757 N   0  0  0  0  0  0
   -2.2472   -2.2122   22.9372 C   0  0  0  0  0  0
   -2.0368   -2.7134   24.2063 O   0  0  0  0  0  0
   -3.9016    1.4281   19.0268 C   0  0  0  0  0  0
   -2.0956   -3.1136   21.9383 N   0  0  0  0  0  0
   -1.5393   -1.9030   25.2039 C   0  0  0  0  0  0
   -1.4433    1.8444   23.4920 C   0  0  0  0  0  0
   -1.9177    3.9958   25.4614 N   0  0  2  0  0  0
   -2.3420   -1.5230   26.2861 C   0  0  0  0  0  0
   -2.4560   -1.2799   20.4050 C   0  0  0  0  0  0
   -3.4751    1.6563   17.7091 C   0  0  0  0  0  0
   -5.1694    0.8870   19.2597 C   0  0  0  0  0  0
   -2.1990   -2.6266   20.6760 C   0  0  0  0  0  0
   -5.5932    0.8870   16.8866 C   0  0  0  0  0  0
   -3.6350   -1.9130   26.3486 F   0  0  0  0  0  0
   -0.3369    2.8447   23.9023 C   0  0  0  0  0  0
   -2.5239    1.7688   24.5894 C   0  0  0  0  0  0
   -4.3162    1.3713   16.6409 C   0  0  0  0  0  0
   -6.0253    0.6349   18.1887 C   0  0  0  0  0  0
   -6.3899    0.5860   15.8418 F   0  0  0  0  0  0
   -0.8633    4.1877   24.4622 C   0  0  0  0  0  0
   -3.0319    3.1549   25.0226 C   0  0  0  0  0  0
   -0.2096   -1.4708   25.1468 C   0  0  0  0  0  0
   -1.8099   -0.7405   27.3124 C   0  0  0  0  0  0
    0.3137   -0.6714   26.1632 C   0  0  0  0  0  0
   -0.4824   -0.3146   27.2511 C   0  0  0  0  0  0
   -1.4641    4.0187   21.7493 H   0  0  0  0  0  0
   -0.9272    0.8904   23.4047 H   0  0  0  0  0  0
   -2.2324    4.8715   25.8547 H   0  0  0  0  0  0
   -2.4792   -0.9183   19.3878 H   0  0  0  0  0  0
   -2.5043    2.0721   17.4829 H   0  0  0  0  0  0
   -5.5049    0.7022   20.2701 H   0  0  0  0  0  0
   -2.0350   -3.3342   19.8760 H   0  0  0  0  0  0
    0.3173    2.3827   24.6439 H   0  0  0  0  0  0
    0.3566    3.0064   23.0769 H   0  0  0  0  0  0
   -3.3575    1.1424   24.2718 H   0  0  0  0  0  0
   -2.1389    1.2309   25.4523 H   0  0  0  0  0  0
   -3.9880    1.5416   15.6255 H   0  0  0  0  0  0
   -7.0112    0.2275   18.3580 H   0  0  0  0  0  0
   -0.0427    4.7200   24.9458 H   0  0  0  0  0  0
   -1.2317    4.8410   23.6736 H   0  0  0  0  0  0
   -3.7517    3.0582   25.8367 H   0  0  0  0  0  0
   -3.5408    3.6456   24.1927 H   0  0  0  0  0  0
    0.4210   -1.7653   24.3198 H   0  0  0  0  0  0
   -2.4273   -0.4609   28.1532 H   0  0  0  0  0  0
    1.3431   -0.3458   26.1183 H   0  0  0  0  0  0
   -0.0705    0.2923   28.0449 H   0  0  0  0  0  0
  1  2  1  0  0  0
  1  4  2  0  0  0
  1  6  1  0  0  0
  2  5  1  0  0  0
  2 13  1  0  0  0
  3  4  1  0  0  0
  3  5  2  0  0  0
  4 10  1  0  0  0
  5 33  1  0  0  0
  6  7  1  0  0  0
  6 16  2  0  0  0
  7  8  2  0  0  0
  8  9  1  0  0  0
  8 11  1  0  0  0
  9 12  1  0  0  0
 10 17  1  0  0  0
 10 18  2  0  0  0
 11 19  2  0  0  0
 12 15  1  0  0  0
 12 29  2  0  0  0
 13 22  1  0  0  0
 13 23  1  0  0  0
 13 34  1  0  0  0
 14 28  1  0  0  0
 14 27  1  0  0  0
 14 35  1  0  0  0
 15 21  1  0  0  0
 15 30  2  0  0  0
 16 19  1  0  0  0
 16 36  1  0  0  0
 17 24  2  0  0  0
 17 37  1  0  0  0
 18 25  1  0  0  0
 18 38  1  0  0  0
 19 39  1  0  0  0
 20 25  2  0  0  0
 20 26  1  0  0  0
 20 24  1  0  0  0
 22 27  1  0  0  0
 22 40  1  0  0  0
 22 41  1  0  0  0
 23 28  1  0  0  0
 23 42  1  0  0  0
 23 43  1  0  0  0
 24 44  1  0  0  0
 25 45  1  0  0  0
 27 46  1  0  0  0
 27 47  1  0  0  0
 28 48  1  0  0  0
 28 49  1  0  0  0
 29 31  1  0  0  0
 29 50  1  0  0  0
 30 32  1  0  0  0
 30 51  1  0  0  0
 31 32  2  0  0  0
 31 52  1  0  0  0
 32 53  1  0  0  0
M  END
> <s_m_entry_id>
60827

> <s_m_entry_name>
dock_pv.104

> <s_m_Source_Path>
/home/csk/Desktop/cluster/DUD-E-result/mk14

> <s_m_Source_File>
dock_pv.maegz

> <i_m_Source_File_Index>
104

> <chembl_id>
CHEMBL14329

> <chembl_pref_name>
None

> <i_lp_mmshare_version>
53161

> <i_f3d_flags>
0

> <r_lp_tautomer_probability>
1

> <s_lp_Force_Field>
OPLS_2005

> <r_lp_Energy>
33.196615

> <b_lp_Chiralities_Consistent>
1

> <s_lp_Variant>
CHEMBL260_lig508-1

> <s_i_glide_gridfile>
glide-grid_2qd9

> <i_i_glide_lignum>
578

> <i_i_glide_rotatable_bonds>
5

> <r_i_docking_score>
-8.83347953505222

> <r_i_glide_ligand_efficiency>
-0.276046235470382

> <r_i_glide_ligand_efficiency_sa>
-0.876392168142643

> <r_i_glide_ligand_efficiency_ln>
-1.97805685945606

> <r_i_glide_gscore>
-8.83347953505222

> <r_i_glide_lipo>
-3.75253865299464

> <r_i_glide_hbond>
-0.514717091709259

> <r_i_glide_metal>
0

> <r_i_glide_rewards>
-2.30187044420372

> <r_i_glide_evdw>
-41.9137420654297

> <r_i_glide_ecoul>
-4.40614938735962

> <r_i_glide_erotb>
0.52978232750904

> <r_i_glide_esite>
-0.0375261622782103

> <r_i_glide_emodel>
-60.020779390939

> <r_i_glide_energy>
-46.3198914527893

> <r_i_glide_einternal>
7.60640096664429

> <i_i_glide_confnum>
143

> <i_i_glide_posenum>
313

> <r_i_glide_eff_state_penalty>
0

> <s_user_duplicate_titles>
CHEMBL260_lig508,13762

> <s_m_subgroup_title>
dock_pv

> <s_m_subgroupid>
dock_pv

> <b_m_subgroup_collapsed>
1

$$$$
CHEMBL260_lig471
                    3D
 Schrodinger Suite 2021-1.
 59 63  0  0  1  0            999 V2000
   -2.7520    0.9425   21.1901 C   0  0  0  0  0  0
   -2.2105    1.8616   22.0869 N   0  0  0  0  0  0
   -2.8349    2.9903   20.2487 N   0  0  0  0  0  0
   -3.1920    1.7295   20.1021 C   0  0  0  0  0  0
   -2.2131    3.0349   21.3881 C   0  0  0  0  0  0
   -2.6947   -0.5495   21.3538 C   0  0  0  0  0  0
   -2.6039   -1.0463   22.6170 N   0  0  0  0  0  0
   -2.2566   -2.3549   22.7457 C   0  0  0  0  0  0
   -2.0347   -2.8835   24.0006 O   0  0  0  0  0  0
   -1.7160   -2.0743   25.0709 C   0  0  0  0  0  0
   -3.9645    1.3720   18.8770 C   0  0  0  0  0  0
   -2.0351   -3.2149   21.7263 N   0  0  0  0  0  0
   -0.4516   -1.4697   25.1828 C   0  0  0  0  0  0
   -1.6379    1.6623   23.4373 C   0  0  0  0  0  0
   -2.1951    3.7400   25.4657 N   0  0  2  0  0  0
   -0.1447   -0.7122   26.3174 C   0  0  0  0  0  0
   -2.6523   -1.9106   26.0925 C   0  0  0  0  0  0
   -2.5143   -1.3736   20.2368 C   0  0  0  0  0  0
   -5.2671    0.8870   18.9955 C   0  0  0  0  0  0
   -3.4241    1.6001   17.6042 C   0  0  0  0  0  0
   -2.1797   -2.7088   20.4762 C   0  0  0  0  0  0
   -1.0792   -0.5631   27.3437 C   0  0  0  0  0  0
   -5.4597    0.8489   16.5895 C   0  0  0  0  0  0
   -2.3343   -1.1657   27.2280 C   0  0  0  0  0  0
   -0.5609    2.6734   23.8994 C   0  0  0  0  0  0
   -2.7349    1.5267   24.5136 C   0  0  0  0  0  0
   -4.1620    1.3211   16.4623 C   0  0  0  0  0  0
   -6.0279    0.6572   17.8492 C   0  0  0  0  0  0
   -6.1361    0.4963   15.4775 F   0  0  0  0  0  0
   -1.1285    3.9860   24.4918 C   0  0  0  0  0  0
   -3.2809    2.8879   24.9789 C   0  0  0  0  0  0
    0.6058   -1.6586   24.1082 C   0  0  0  0  0  0
   -0.7173    0.2315   28.5845 C   0  0  0  0  0  0
   -1.6468    3.8629   21.7672 H   0  0  0  0  0  0
   -1.0945    0.7278   23.3303 H   0  0  0  0  0  0
   -2.5420    4.5966   25.8761 H   0  0  0  0  0  0
    0.8301   -0.2541   26.4135 H   0  0  0  0  0  0
   -3.6225   -2.3760   26.0127 H   0  0  0  0  0  0
   -2.5600   -0.9894   19.2286 H   0  0  0  0  0  0
   -5.7001    0.7141   19.9694 H   0  0  0  0  0  0
   -2.4355    2.0047   17.4777 H   0  0  0  0  0  0
   -2.0165   -3.3952   19.6569 H   0  0  0  0  0  0
   -3.0610   -1.0664   28.0203 H   0  0  0  0  0  0
    0.0909    2.2022   24.6378 H   0  0  0  0  0  0
    0.1433    2.8750   23.0918 H   0  0  0  0  0  0
   -3.5497    0.8932   24.1626 H   0  0  0  0  0  0
   -2.3548    0.9693   25.3669 H   0  0  0  0  0  0
   -3.7320    1.4685   15.4820 H   0  0  0  0  0  0
   -7.0333    0.2700   17.9349 H   0  0  0  0  0  0
   -0.3280    4.5205   25.0060 H   0  0  0  0  0  0
   -1.4982    4.6550   23.7178 H   0  0  0  0  0  0
   -4.0177    2.7538   25.7721 H   0  0  0  0  0  0
   -3.7808    3.3933   24.1528 H   0  0  0  0  0  0
    0.7178   -2.7195   23.8839 H   0  0  0  0  0  0
    0.3223   -1.1560   23.1832 H   0  0  0  0  0  0
    1.5799   -1.2858   24.4235 H   0  0  0  0  0  0
   -1.3723   -0.0061   29.4239 H   0  0  0  0  0  0
   -0.7668    1.3020   28.3794 H   0  0  0  0  0  0
    0.3013   -0.0031   28.8999 H   0  0  0  0  0  0
  1  2  1  0  0  0
  1  4  2  0  0  0
  1  6  1  0  0  0
  2  5  1  0  0  0
  2 14  1  0  0  0
  3  4  1  0  0  0
  3  5  2  0  0  0
  4 11  1  0  0  0
  5 34  1  0  0  0
  6  7  1  0  0  0
  6 18  2  0  0  0
  7  8  2  0  0  0
  8  9  1  0  0  0
  8 12  1  0  0  0
  9 10  1  0  0  0
 10 13  1  0  0  0
 10 17  2  0  0  0
 11 19  1  0  0  0
 11 20  2  0  0  0
 12 21  2  0  0  0
 13 16  2  0  0  0
 13 32  1  0  0  0
 14 25  1  0  0  0
 14 26  1  0  0  0
 14 35  1  0  0  0
 15 31  1  0  0  0
 15 30  1  0  0  0
 15 36  1  0  0  0
 16 22  1  0  0  0
 16 37  1  0  0  0
 17 24  1  0  0  0
 17 38  1  0  0  0
 18 21  1  0  0  0
 18 39  1  0  0  0
 19 28  2  0  0  0
 19 40  1  0  0  0
 20 27  1  0  0  0
 20 41  1  0  0  0
 21 42  1  0  0  0
 22 24  2  0  0  0
 22 33  1  0  0  0
 23 27  2  0  0  0
 23 29  1  0  0  0
 23 28  1  0  0  0
 24 43  1  0  0  0
 25 30  1  0  0  0
 25 44  1  0  0  0
 25 45  1  0  0  0
 26 31  1  0  0  0
 26 46  1  0  0  0
 26 47  1  0  0  0
 27 48  1  0  0  0
 28 49  1  0  0  0
 30 50  1  0  0  0
 30 51  1  0  0  0
 31 52  1  0  0  0
 31 53  1  0  0  0
 32 54  1  0  0  0
 32 55  1  0  0  0
 32 56  1  0  0  0
 33 57  1  0  0  0
 33 58  1  0  0  0
 33 59  1  0  0  0
M  END
> <s_m_entry_id>
60828

> <s_m_entry_name>
dock_pv.105

> <s_m_Source_Path>
/home/csk/Desktop/cluster/DUD-E-result/mk14

> <s_m_Source_File>
dock_pv.maegz

> <i_m_Source_File_Index>
105

> <chembl_id>
CHEMBL13850

> <chembl_pref_name>
None

> <i_lp_mmshare_version>
53161

> <i_f3d_flags>
0

> <r_lp_tautomer_probability>
1

> <s_lp_Force_Field>
OPLS_2005

> <r_lp_Energy>
34.297645

> <b_lp_Chiralities_Consistent>
1

> <s_lp_Variant>
CHEMBL260_lig471-1

> <s_i_glide_gridfile>
glide-grid_2qd9

> <i_i_glide_lignum>
541

> <i_i_glide_rotatable_bonds>
5

> <r_i_docking_score>
-8.82329861231547

> <r_i_glide_ligand_efficiency>
-0.267372685221681

> <r_i_glide_ligand_efficiency_sa>
-0.857607065752166

> <r_i_glide_ligand_efficiency_ln>
-1.96225592678373

> <r_i_glide_gscore>
-8.82329861231547

> <r_i_glide_lipo>
-3.74262155684256

> <r_i_glide_hbond>
-0.534550600797497

> <r_i_glide_metal>
0

> <r_i_glide_rewards>
-2.18681735979574

> <r_i_glide_evdw>
-43.7405281066895

> <r_i_glide_ecoul>
-4.34224891662598

> <r_i_glide_erotb>
0.508176484982537

> <r_i_glide_esite>
-0.0291218370338474

> <r_i_glide_emodel>
-61.3530589966523

> <r_i_glide_energy>
-48.0827770233154

> <r_i_glide_einternal>
10.0046339035034

> <i_i_glide_confnum>
168

> <i_i_glide_posenum>
113

> <r_i_glide_eff_state_penalty>
0

> <s_user_duplicate_titles>
CHEMBL260_lig471,13599

> <s_m_subgroup_title>
dock_pv

> <s_m_subgroupid>
dock_pv

> <b_m_subgroup_collapsed>
1

$$$$
CHEMBL260_lig1239
                    3D
 Schrodinger Suite 2021-1.
 38 41  0  0  1  0            999 V2000
   -1.8695   -2.3343   22.4148 C   0  0  0  0  0  0
   -2.3907   -2.4185   21.0669 C   0  0  0  0  0  0
   -2.8451   -1.3604   20.3677 C   0  0  0  0  0  0
   -1.7432   -1.0482   22.8866 N   0  0  0  0  0  0
   -2.1273    0.1369   22.1655 C   0  0  0  0  0  0
   -2.7366    0.0069   20.8980 C   0  0  0  0  0  0
   -3.1529    1.1356   20.1662 C   0  0  0  0  0  0
   -2.8350    2.4006   20.6653 C   0  0  0  0  0  0
   -2.2237    2.5482   21.9083 C   0  0  0  0  0  0
   -1.9001    1.4295   22.6656 C   0  0  0  0  0  0
   -1.6352   -3.3646   23.0527 O   0  0  0  0  0  0
   -1.2511   -0.9010   24.2055 C   0  0  0  0  0  0
   -2.1032   -1.0751   25.3145 C   0  0  0  0  0  0
   -1.6124   -0.8967   26.6073 C   0  0  0  0  0  0
   -0.2874   -0.5219   26.8067 C   0  0  0  0  0  0
    0.5518   -0.3359   25.7117 C   0  0  0  0  0  0
    0.0928   -0.5424   24.4114 C   0  0  0  0  0  0
    1.1878   -0.3129   23.0825 Cl  0  0  0  0  0  0
   -3.7639   -1.5129   25.1250 Cl  0  0  0  0  0  0
   -3.9832    1.0352   18.9351 C   0  0  0  0  0  0
   -5.3314    0.6945   19.0711 C   0  0  0  0  0  0
   -6.1569    0.6265   17.9532 C   0  0  0  0  0  0
   -5.6352    0.8936   16.6897 C   0  0  0  0  0  0
   -4.2968    1.2399   16.5367 C   0  0  0  0  0  0
   -3.4718    1.3033   17.6566 C   0  0  0  0  0  0
   -2.4350   -3.4054   20.6328 H   0  0  0  0  0  0
   -3.2340   -1.5139   19.3742 H   0  0  0  0  0  0
   -3.1145    3.2817   20.1073 H   0  0  0  0  0  0
   -2.0018    3.5310   22.2941 H   0  0  0  0  0  0
   -1.4349    1.5893   23.6269 H   0  0  0  0  0  0
   -2.2611   -1.0407   27.4592 H   0  0  0  0  0  0
    0.0915   -0.3729   27.8076 H   0  0  0  0  0  0
    1.5649   -0.0291   25.8829 H   0  0  0  0  0  0
   -5.7452    0.4878   20.0470 H   0  0  0  0  0  0
   -7.1967    0.3537   18.0637 H   0  0  0  0  0  0
   -6.2797    0.8334   15.8246 H   0  0  0  0  0  0
   -3.8978    1.4475   15.5541 H   0  0  0  0  0  0
   -2.4359    1.5608   17.5003 H   0  0  0  0  0  0
  1  4  1  0  0  0
  1 11  2  0  0  0
  1  2  1  0  0  0
  2  3  2  0  0  0
  2 26  1  0  0  0
  3  6  1  0  0  0
  3 27  1  0  0  0
  4 12  1  0  0  0
  4  5  1  0  0  0
  5  6  2  0  0  0
  5 10  1  0  0  0
  6  7  1  0  0  0
  7  8  2  0  0  0
  7 20  1  0  0  0
  8  9  1  0  0  0
  8 28  1  0  0  0
  9 10  2  0  0  0
  9 29  1  0  0  0
 10 30  1  0  0  0
 12 13  2  0  0  0
 12 17  1  0  0  0
 13 14  1  0  0  0
 13 19  1  0  0  0
 14 15  2  0  0  0
 14 31  1  0  0  0
 15 16  1  0  0  0
 15 32  1  0  0  0
 16 17  2  0  0  0
 16 33  1  0  0  0
 17 18  1  0  0  0
 20 21  2  0  0  0
 20 25  1  0  0  0
 21 22  1  0  0  0
 21 34  1  0  0  0
 22 23  2  0  0  0
 22 35  1  0  0  0
 23 24  1  0  0  0
 23 36  1  0  0  0
 24 25  2  0  0  0
 24 37  1  0  0  0
 25 38  1  0  0  0
M  END
> <s_m_entry_id>
60829

> <s_m_entry_name>
dock_pv.106

> <s_m_Source_Path>
/home/csk/Desktop/cluster/DUD-E-result/mk14

> <s_m_Source_File>
dock_pv.maegz

> <i_m_Source_File_Index>
106

> <chembl_id>
CHEMBL271639

> <chembl_pref_name>
None

> <i_lp_mmshare_version>
53161

> <i_f3d_flags>
0

> <r_lp_tautomer_probability>
1

> <s_lp_Force_Field>
OPLS_2005

> <r_lp_Energy>
47.35316

> <b_lp_Chiralities_Consistent>
1

> <s_lp_Variant>
CHEMBL260_lig1239-1

> <s_i_glide_gridfile>
glide-grid_2qd9

> <i_i_glide_lignum>
1412

> <i_i_glide_rotatable_bonds>
2

> <r_i_docking_score>
-8.80856411567445

> <r_i_glide_ligand_efficiency>
-0.352342564626978

> <r_i_glide_ligand_efficiency_sa>
-1.03025590779127

> <r_i_glide_ligand_efficiency_ln>
-2.08789366678021

> <r_i_glide_gscore>
-8.80856411567445

> <r_i_glide_lipo>
-4.32021294351917

> <r_i_glide_hbond>
-0.51532453642398

> <r_i_glide_metal>
0

> <r_i_glide_rewards>
-1.3343956129659

> <r_i_glide_evdw>
-37.3829040527344

> <r_i_glide_ecoul>
-7.04297494888306

> <r_i_glide_erotb>
0.286960422203784

> <r_i_glide_esite>
0

> <r_i_glide_emodel>
-60.1276690848278

> <r_i_glide_energy>
-44.4258790016174

> <r_i_glide_einternal>
1.49776768684387

> <i_i_glide_confnum>
5

> <i_i_glide_posenum>
21

> <r_i_glide_eff_state_penalty>
0

> <s_user_duplicate_titles>
CHEMBL260_lig1239,434279

> <s_m_subgroup_title>
dock_pv

> <s_m_subgroupid>
dock_pv

> <b_m_subgroup_collapsed>
1

$$$$
CHEMBL260_lig259
                    3D
 Schrodinger Suite 2021-1.
 42 44  0  0  1  0            999 V2000
   -1.6680   -1.9324   23.6821 C   0  0  0  0  0  0
   -2.0987   -1.0715   22.5265 C   0  0  0  0  0  0
   -2.1566   -1.5379   21.1947 C   0  0  0  0  0  0
   -0.9716   -1.3090   24.8631 C   0  0  0  0  0  0
   -3.2711    1.5399   19.4257 N   0  0  0  0  0  0
   -2.6113   -0.6991   20.1727 C   0  0  0  0  0  0
   -2.4526    0.2611   22.7786 C   0  0  0  0  0  0
   -3.8709    1.3199   18.1736 C   0  0  0  0  0  0
   -2.9345    0.6318   20.4381 C   0  0  0  0  0  0
   -2.0267   -3.1126   23.7408 O   0  0  0  0  0  0
    0.1436   -0.4421   24.7652 C   0  0  0  0  0  0
   -5.2028    0.8872   18.0454 C   0  0  0  0  0  0
   -1.6310   -3.1194   20.7365 Cl  0  0  0  0  0  0
   -2.8332    1.1062   21.7419 C   0  0  0  0  0  0
   -1.4532   -1.6372   26.1403 C   0  0  0  0  0  0
   -3.1676    1.6871   17.0219 C   0  0  0  0  0  0
    0.8070   -0.0720   23.4465 C   0  0  0  0  0  0
   -6.0377    0.4915   19.2468 C   0  0  0  0  0  0
    0.7135    0.0880   25.9283 C   0  0  0  0  0  0
   -5.8011    0.8599   16.7824 C   0  0  0  0  0  0
   -0.8696   -1.1089   27.2898 C   0  0  0  0  0  0
   -3.7569    1.6089   15.7648 C   0  0  0  0  0  0
   -5.0801    1.2010   15.6447 C   0  0  0  0  0  0
    0.2134   -0.2433   27.1839 C   0  0  0  0  0  0
   -2.7039    2.3711   19.4626 H   0  0  0  0  0  0
   -2.6491   -1.0672   19.1581 H   0  0  0  0  0  0
   -2.4176    0.6681   23.7799 H   0  0  0  0  0  0
   -3.0612    2.1328   21.9669 H   0  0  0  0  0  0
   -2.2932   -2.3074   26.2598 H   0  0  0  0  0  0
   -2.1524    2.0476   17.0760 H   0  0  0  0  0  0
    0.4338    0.8891   23.0930 H   0  0  0  0  0  0
    1.8888    0.0092   23.5690 H   0  0  0  0  0  0
    0.6504   -0.8238   22.6757 H   0  0  0  0  0  0
   -7.0077    0.0871   18.9616 H   0  0  0  0  0  0
   -5.5115   -0.2647   19.8245 H   0  0  0  0  0  0
   -6.1943    1.3605   19.8776 H   0  0  0  0  0  0
    1.5633    0.7534   25.8639 H   0  0  0  0  0  0
   -6.8273    0.5410   16.6800 H   0  0  0  0  0  0
   -1.2500   -1.3806   28.2638 H   0  0  0  0  0  0
   -3.1892    1.8821   14.8882 H   0  0  0  0  0  0
   -5.5508    1.1492   14.6754 H   0  0  0  0  0  0
    0.6754    0.1617   28.0733 H   0  0  0  0  0  0
  1  2  1  0  0  0
  1  4  1  0  0  0
  1 10  2  0  0  0
  2  3  1  0  0  0
  2  7  2  0  0  0
  3  6  2  0  0  0
  3 13  1  0  0  0
  4 11  2  0  0  0
  4 15  1  0  0  0
  5  9  1  0  0  0
  5  8  1  0  0  0
  5 25  1  0  0  0
  6  9  1  0  0  0
  6 26  1  0  0  0
  7 14  1  0  0  0
  7 27  1  0  0  0
  8 12  2  0  0  0
  8 16  1  0  0  0
  9 14  2  0  0  0
 11 17  1  0  0  0
 11 19  1  0  0  0
 12 18  1  0  0  0
 12 20  1  0  0  0
 14 28  1  0  0  0
 15 21  2  0  0  0
 15 29  1  0  0  0
 16 22  2  0  0  0
 16 30  1  0  0  0
 17 31  1  0  0  0
 17 32  1  0  0  0
 17 33  1  0  0  0
 18 34  1  0  0  0
 18 35  1  0  0  0
 18 36  1  0  0  0
 19 24  2  0  0  0
 19 37  1  0  0  0
 20 23  2  0  0  0
 20 38  1  0  0  0
 21 24  1  0  0  0
 21 39  1  0  0  0
 22 23  1  0  0  0
 22 40  1  0  0  0
 23 41  1  0  0  0
 24 42  1  0  0  0
M  END
> <s_m_entry_id>
60830

> <s_m_entry_name>
dock_pv.107

> <s_m_Source_Path>
/home/csk/Desktop/cluster/DUD-E-result/mk14

> <s_m_Source_File>
dock_pv.maegz

> <i_m_Source_File_Index>
107

> <chembl_id>
CHEMBL153265

> <chembl_pref_name>
None

> <i_lp_mmshare_version>
53161

> <i_f3d_flags>
0

> <r_lp_tautomer_probability>
1

> <s_lp_Force_Field>
OPLS_2005

> <r_lp_Energy>
32.280314

> <b_lp_Chiralities_Consistent>
1

> <s_lp_Variant>
CHEMBL260_lig259-1

> <s_i_glide_gridfile>
glide-grid_2qd9

> <i_i_glide_lignum>
310

> <i_i_glide_rotatable_bonds>
4

> <r_i_docking_score>
-8.80626317459597

> <r_i_glide_ligand_efficiency>
-0.366927632274832

> <r_i_glide_ligand_efficiency_sa>
-1.05840243884336

> <r_i_glide_ligand_efficiency_ln>
-2.10774287076684

> <r_i_glide_gscore>
-8.80626317459597

> <r_i_glide_lipo>
-4.25514797287283

> <r_i_glide_hbond>
-0.44114393712427

> <r_i_glide_metal>
0

> <r_i_glide_rewards>
-2.01515204351794

> <r_i_glide_evdw>
-42.2838287353516

> <r_i_glide_ecoul>
-4.33466911315918

> <r_i_glide_erotb>
0.669572582660526

> <r_i_glide_esite>
0

> <r_i_glide_emodel>
-61.7511938212926

> <r_i_glide_energy>
-46.6184978485107

> <r_i_glide_einternal>
15.3684310913086

> <i_i_glide_confnum>
2

> <i_i_glide_posenum>
382

> <r_i_glide_eff_state_penalty>
0

> <s_user_duplicate_titles>
CHEMBL260_lig259,254328

> <s_m_subgroup_title>
dock_pv

> <s_m_subgroupid>
dock_pv

> <b_m_subgroup_collapsed>
1

$$$$
CHEMBL260_lig254
                    3D
 Schrodinger Suite 2021-1.
 42 44  0  0  1  0            999 V2000
   -1.6478   -1.9498   23.5561 C   0  0  0  0  0  0
   -2.1204   -1.0943   22.4206 C   0  0  0  0  0  0
   -0.8018   -1.2891   24.5922 C   0  0  0  0  0  0
   -2.1946   -1.5442   21.0882 C   0  0  0  0  0  0
   -3.3563    1.5701   19.4055 N   0  0  0  0  0  0
   -2.6735   -0.6883   20.0908 C   0  0  0  0  0  0
   -2.4538    0.2386   22.7009 C   0  0  0  0  0  0
   -3.9493    1.3476   18.1522 C   0  0  0  0  0  0
   -2.9793    0.6439   20.3840 C   0  0  0  0  0  0
   -2.0350   -3.1130   23.6905 O   0  0  0  0  0  0
   -1.1661   -1.2832   25.9530 C   0  0  0  0  0  0
   -5.2700    0.8870   18.0166 C   0  0  0  0  0  0
   -1.6378   -3.1132   20.6135 Cl  0  0  0  0  0  0
   -2.8350    1.1045   21.6866 C   0  0  0  0  0  0
   -6.0350    0.4870   19.1146 N   0  0  0  0  0  0
   -2.3423   -1.9124   26.3255 O   0  0  0  0  0  0
    0.3430   -0.6013   24.1671 C   0  0  0  0  0  0
   -3.2321    1.6874   17.0026 C   0  0  0  0  0  0
   -0.3547   -0.5827   26.8626 C   0  0  0  0  0  0
   -5.8365    0.7728   16.7468 C   0  0  0  0  0  0
   -2.7690   -1.8642   27.6833 C   0  0  0  0  0  0
    1.1093    0.1160   25.0768 C   0  0  0  0  0  0
   -3.7961    1.5464   15.7377 C   0  0  0  0  0  0
    0.7649    0.1200   26.4257 C   0  0  0  0  0  0
   -5.1034    1.0900   15.6092 C   0  0  0  0  0  0
   -2.8958    2.4628   19.5042 H   0  0  0  0  0  0
   -2.7379   -1.0445   19.0751 H   0  0  0  0  0  0
   -2.3941    0.6320   23.7067 H   0  0  0  0  0  0
   -3.0452    2.1312   21.9324 H   0  0  0  0  0  0
   -6.8509   -0.0855   18.9388 H   0  0  0  0  0  0
   -5.5572    0.4395   20.0025 H   0  0  0  0  0  0
    0.6324   -0.5886   23.1248 H   0  0  0  0  0  0
   -2.2247    2.0660   17.0754 H   0  0  0  0  0  0
   -0.5869   -0.5482   27.9156 H   0  0  0  0  0  0
   -6.8348    0.3852   16.6356 H   0  0  0  0  0  0
   -3.7011   -2.4184   27.7897 H   0  0  0  0  0  0
   -2.0367   -2.3128   28.3542 H   0  0  0  0  0  0
   -2.9550   -0.8389   28.0044 H   0  0  0  0  0  0
    1.9684    0.6714   24.7318 H   0  0  0  0  0  0
   -3.2204    1.7949   14.8592 H   0  0  0  0  0  0
    1.3724    0.6667   27.1338 H   0  0  0  0  0  0
   -5.5497    0.9707   14.6344 H   0  0  0  0  0  0
  1  2  1  0  0  0
  1  3  1  0  0  0
  1 10  2  0  0  0
  2  4  1  0  0  0
  2  7  2  0  0  0
  3 11  2  0  0  0
  3 17  1  0  0  0
  4  6  2  0  0  0
  4 13  1  0  0  0
  5  9  1  0  0  0
  5  8  1  0  0  0
  5 26  1  0  0  0
  6  9  1  0  0  0
  6 27  1  0  0  0
  7 14  1  0  0  0
  7 28  1  0  0  0
  8 12  2  0  0  0
  8 18  1  0  0  0
  9 14  2  0  0  0
 11 16  1  0  0  0
 11 19  1  0  0  0
 12 15  1  0  0  0
 12 20  1  0  0  0
 14 29  1  0  0  0
 15 30  1  0  0  0
 15 31  1  0  0  0
 16 21  1  0  0  0
 17 22  2  0  0  0
 17 32  1  0  0  0
 18 23  2  0  0  0
 18 33  1  0  0  0
 19 24  2  0  0  0
 19 34  1  0  0  0
 20 25  2  0  0  0
 20 35  1  0  0  0
 21 36  1  0  0  0
 21 37  1  0  0  0
 21 38  1  0  0  0
 22 24  1  0  0  0
 22 39  1  0  0  0
 23 25  1  0  0  0
 23 40  1  0  0  0
 24 41  1  0  0  0
 25 42  1  0  0  0
M  END
> <s_m_entry_id>
60831

> <s_m_entry_name>
dock_pv.108

> <s_m_Source_Path>
/home/csk/Desktop/cluster/DUD-E-result/mk14

> <s_m_Source_File>
dock_pv.maegz

> <i_m_Source_File_Index>
108

> <chembl_id>
CHEMBL356455

> <chembl_pref_name>
None

> <i_lp_mmshare_version>
53161

> <i_f3d_flags>
0

> <r_lp_tautomer_probability>
1

> <s_lp_Force_Field>
OPLS_2005

> <r_lp_Energy>
34.663638

> <b_lp_Chiralities_Consistent>
1

> <s_lp_Variant>
CHEMBL260_lig254-1

> <s_i_glide_gridfile>
glide-grid_2qd9

> <i_i_glide_lignum>
305

> <i_i_glide_rotatable_bonds>
5

> <r_i_docking_score>
-8.80269715515083

> <r_i_glide_ligand_efficiency>
-0.352107886206033

> <r_i_glide_ligand_efficiency_sa>
-1.02956970392639

> <r_i_glide_ligand_efficiency_ln>
-2.08650302131749

> <r_i_glide_gscore>
-8.80269715515083

> <r_i_glide_lipo>
-3.83199959827945

> <r_i_glide_hbond>
-0.629515326925638

> <r_i_glide_metal>
0

> <r_i_glide_rewards>
-1.90288838129511

> <r_i_glide_evdw>
-44.6489028930664

> <r_i_glide_ecoul>
-5.46181726455688

> <r_i_glide_erotb>
0.613423885686233

> <r_i_glide_esite>
0

> <r_i_glide_emodel>
-62.1332325505612

> <r_i_glide_energy>
-50.1107201576233

> <r_i_glide_einternal>
19.6065921783447

> <i_i_glide_confnum>
54

> <i_i_glide_posenum>
350

> <r_i_glide_eff_state_penalty>
0

> <s_user_duplicate_titles>
CHEMBL260_lig254,253937

> <s_m_subgroup_title>
dock_pv

> <s_m_subgroupid>
dock_pv

> <b_m_subgroup_collapsed>
1

$$$$
CHEMBL260_lig1247
                    3D
 Schrodinger Suite 2021-1.
 41 44  0  0  1  0            999 V2000
   -1.6431   -2.0898   22.2079 C   0  0  0  0  0  0
   -1.6460   -2.0884   20.6592 C   0  0  2  0  0  0
   -2.8342   -1.2500   20.1290 C   0  0  0  0  0  0
   -1.6976   -0.8117   22.6869 N   0  0  0  0  0  0
   -2.1408    0.3290   21.9340 C   0  0  0  0  0  0
   -2.7191    0.1793   20.6432 C   0  0  0  0  0  0
   -3.1066    1.3194   19.8856 C   0  0  0  0  0  0
   -2.8350    2.5813   20.4153 C   0  0  0  0  0  0
   -2.3005    2.7230   21.6894 C   0  0  0  0  0  0
   -1.9736    1.6165   22.4480 C   0  0  0  0  0  0
   -1.5789   -3.1130   22.9028 O   0  0  0  0  0  0
   -1.6350   -3.4248   20.2127 O   0  0  0  0  0  0
   -1.3935   -0.6681   24.0703 C   0  0  0  0  0  0
   -0.0702   -0.4455   24.5026 C   0  0  0  0  0  0
    0.2103   -0.3434   25.8660 C   0  0  0  0  0  0
   -0.8083   -0.4697   26.8076 C   0  0  0  0  0  0
   -2.1176   -0.6951   26.3888 C   0  0  0  0  0  0
   -2.4118   -0.7952   25.0288 C   0  0  0  0  0  0
   -4.0350   -1.1130   24.5476 Cl  0  0  0  0  0  0
    1.2469   -0.3115   23.3901 Cl  0  0  0  0  0  0
   -3.8184    1.2654   18.5577 C   0  0  0  0  0  0
   -3.2136    1.6870   17.3584 C   0  0  0  0  0  0
   -3.8721    1.6786   16.1322 C   0  0  0  0  0  0
   -5.1916    1.2656   16.0726 C   0  0  0  0  0  0
   -5.8276    0.8870   17.2461 C   0  0  0  0  0  0
   -5.1635    0.8870   18.4717 C   0  0  0  0  0  0
   -6.0688    0.4870   19.8760 Cl  0  0  0  0  0  0
   -0.6977   -1.6576   20.3297 H   0  0  0  0  0  0
   -3.7801   -1.6777   20.4549 H   0  0  0  0  0  0
   -2.8350   -1.2646   19.0445 H   0  0  0  0  0  0
   -3.0893    3.4674   19.8559 H   0  0  0  0  0  0
   -2.1129    3.6870   22.1120 H   0  0  0  0  0  0
   -1.5388    1.7845   23.4223 H   0  0  0  0  0  0
   -2.5135   -3.8292   20.2760 H   0  0  0  0  0  0
    1.2249   -0.1779   26.1989 H   0  0  0  0  0  0
   -0.5794   -0.4006   27.8614 H   0  0  0  0  0  0
   -2.9027   -0.8035   27.1226 H   0  0  0  0  0  0
   -2.2076    2.0502   17.3201 H   0  0  0  0  0  0
   -3.3606    1.9976   15.2347 H   0  0  0  0  0  0
   -5.7151    1.2407   15.1284 H   0  0  0  0  0  0
   -6.8350    0.5401   17.2033 H   0  0  0  0  0  0
  1  4  1  0  0  0
  1 11  2  0  0  0
  1  2  1  0  0  0
  2  3  1  0  0  0
  2 12  1  0  0  0
  2 28  1  0  0  0
  3  6  1  0  0  0
  3 29  1  0  0  0
  3 30  1  0  0  0
  4 13  1  0  0  0
  4  5  1  0  0  0
  5 10  1  0  0  0
  5  6  2  0  0  0
  6  7  1  0  0  0
  7  8  2  0  0  0
  7 21  1  0  0  0
  8  9  1  0  0  0
  8 31  1  0  0  0
  9 10  2  0  0  0
  9 32  1  0  0  0
 10 33  1  0  0  0
 12 34  1  0  0  0
 13 14  2  0  0  0
 13 18  1  0  0  0
 14 15  1  0  0  0
 14 20  1  0  0  0
 15 16  2  0  0  0
 15 35  1  0  0  0
 16 17  1  0  0  0
 16 36  1  0  0  0
 17 18  2  0  0  0
 17 37  1  0  0  0
 18 19  1  0  0  0
 21 22  2  0  0  0
 21 26  1  0  0  0
 22 23  1  0  0  0
 22 38  1  0  0  0
 23 24  2  0  0  0
 23 39  1  0  0  0
 24 25  1  0  0  0
 24 40  1  0  0  0
 25 26  2  0  0  0
 25 41  1  0  0  0
 26 27  1  0  0  0
M  END
> <s_m_entry_id>
60832

> <s_m_entry_name>
dock_pv.109

> <s_m_Source_Path>
/home/csk/Desktop/cluster/DUD-E-result/mk14

> <s_m_Source_File>
dock_pv.maegz

> <i_m_Source_File_Index>
109

> <chembl_id>
CHEMBL404023

> <chembl_pref_name>
None

> <i_lp_mmshare_version>
53161

> <i_f3d_flags>
0

> <r_lp_tautomer_probability>
1

> <s_lp_Force_Field>
OPLS_2005

> <r_lp_Energy>
49.286605

> <b_lp_Chiralities_Consistent>
1

> <s_lp_Variant>
CHEMBL260_lig1247-2

> <s_i_glide_gridfile>
glide-grid_2qd9

> <i_i_glide_lignum>
1423

> <i_i_glide_rotatable_bonds>
3

> <r_i_docking_score>
-8.79996893363229

> <r_i_glide_ligand_efficiency>
-0.325924775319715

> <r_i_glide_ligand_efficiency_sa>
-0.977774324884949

> <r_i_glide_ligand_efficiency_ln>
-2.0484876889232

> <r_i_glide_gscore>
-8.79996893363229

> <r_i_glide_lipo>
-4.30765189336729

> <r_i_glide_hbond>
-0.258129458237018

> <r_i_glide_metal>
0

> <r_i_glide_rewards>
-1.32441249112089

> <r_i_glide_evdw>
-36.6406898498535

> <r_i_glide_ecoul>
-8.68907165527344

> <r_i_glide_erotb>
0.225620149876591

> <r_i_glide_esite>
0

> <r_i_glide_emodel>
-54.9613081918472

> <r_i_glide_energy>
-45.329761505127

> <r_i_glide_einternal>
1.34944677352905

> <i_i_glide_confnum>
12

> <i_i_glide_posenum>
346

> <r_i_glide_eff_state_penalty>
0

> <s_user_duplicate_titles>
CHEMBL260_lig1247,434493

> <s_m_subgroup_title>
dock_pv

> <s_m_subgroupid>
dock_pv

> <b_m_subgroup_collapsed>
1

$$$$
CHEMBL260_lig257
                    3D
 Schrodinger Suite 2021-1.
 41 43  0  0  1  0            999 V2000
   -1.7398   -1.9133   23.5419 C   0  0  0  0  0  0
   -0.9127   -1.3302   24.6377 C   0  0  0  0  0  0
   -3.3405    1.5888   19.3441 N   0  0  0  0  0  0
   -3.9552    1.3605   18.1024 C   0  0  0  0  0  0
   -2.2379   -1.0019   22.4521 C   0  0  0  0  0  0
   -1.2710   -1.5133   25.9786 C   0  0  0  0  0  0
   -2.0353   -3.1123   23.5666 O   0  0  0  0  0  0
   -5.2737    0.8869   17.9735 C   0  0  0  0  0  0
   -2.1553    0.3927   22.5891 C   0  0  0  0  0  0
   -2.8157   -1.5330   21.2909 C   0  0  0  0  0  0
   -3.0665    0.6962   20.3856 C   0  0  0  0  0  0
   -6.0350    0.4878   19.0758 N   0  0  0  0  0  0
   -0.5363   -0.8972   26.9965 C   0  0  0  0  0  0
   -2.5443    1.2319   21.5556 C   0  0  0  0  0  0
   -3.2294   -0.6857   20.2649 C   0  0  0  0  0  0
    0.2254   -0.5742   24.3274 C   0  0  0  0  0  0
    0.9444    0.0562   25.3368 C   0  0  0  0  0  0
   -3.2351    1.6881   16.9489 C   0  0  0  0  0  0
   -5.8373    0.7511   16.7039 C   0  0  0  0  0  0
    0.5650   -0.0999   26.6702 C   0  0  0  0  0  0
   -0.9524   -1.0665   28.4463 C   0  0  0  0  0  0
   -3.7976    1.5218   15.6858 C   0  0  0  0  0  0
   -5.1024    1.0550   15.5625 C   0  0  0  0  0  0
   -2.7517    2.4095   19.3739 H   0  0  0  0  0  0
   -2.1375   -2.1077   26.2344 H   0  0  0  0  0  0
   -1.7661    0.8555   23.4844 H   0  0  0  0  0  0
   -2.9192   -2.6008   21.1548 H   0  0  0  0  0  0
   -6.8607   -0.0752   18.9112 H   0  0  0  0  0  0
   -5.5647    0.4610   19.9700 H   0  0  0  0  0  0
   -2.4234    2.2996   21.6641 H   0  0  0  0  0  0
   -3.6328   -1.1120   19.3618 H   0  0  0  0  0  0
    0.5390   -0.4361   23.3015 H   0  0  0  0  0  0
    1.7993    0.6644   25.0761 H   0  0  0  0  0  0
   -2.2270    2.0665   17.0237 H   0  0  0  0  0  0
   -6.8341    0.3541   16.5978 H   0  0  0  0  0  0
    1.1396    0.3900   27.4450 H   0  0  0  0  0  0
   -2.0280   -1.2269   28.5332 H   0  0  0  0  0  0
   -0.4370   -1.9127   28.9014 H   0  0  0  0  0  0
   -0.7239   -0.1706   29.0260 H   0  0  0  0  0  0
   -3.2213    1.7524   14.8012 H   0  0  0  0  0  0
   -5.5441    0.9158   14.5879 H   0  0  0  0  0  0
  1  2  1  0  0  0
  1  5  1  0  0  0
  1  7  2  0  0  0
  2  6  2  0  0  0
  2 16  1  0  0  0
  3 11  1  0  0  0
  3  4  1  0  0  0
  3 24  1  0  0  0
  4  8  2  0  0  0
  4 18  1  0  0  0
  5  9  1  0  0  0
  5 10  2  0  0  0
  6 13  1  0  0  0
  6 25  1  0  0  0
  8 12  1  0  0  0
  8 19  1  0  0  0
  9 14  2  0  0  0
  9 26  1  0  0  0
 10 15  1  0  0  0
 10 27  1  0  0  0
 11 15  2  0  0  0
 11 14  1  0  0  0
 12 28  1  0  0  0
 12 29  1  0  0  0
 13 21  1  0  0  0
 13 20  2  0  0  0
 14 30  1  0  0  0
 15 31  1  0  0  0
 16 17  2  0  0  0
 16 32  1  0  0  0
 17 20  1  0  0  0
 17 33  1  0  0  0
 18 22  2  0  0  0
 18 34  1  0  0  0
 19 23  2  0  0  0
 19 35  1  0  0  0
 20 36  1  0  0  0
 21 37  1  0  0  0
 21 38  1  0  0  0
 21 39  1  0  0  0
 22 23  1  0  0  0
 22 40  1  0  0  0
 23 41  1  0  0  0
M  END
> <s_m_entry_id>
60833

> <s_m_entry_name>
dock_pv.110

> <s_m_Source_Path>
/home/csk/Desktop/cluster/DUD-E-result/mk14

> <s_m_Source_File>
dock_pv.maegz

> <i_m_Source_File_Index>
110

> <chembl_id>
CHEMBL152209

> <chembl_pref_name>
None

> <i_lp_mmshare_version>
53161

> <i_f3d_flags>
0

> <r_lp_tautomer_probability>
1

> <s_lp_Force_Field>
OPLS_2005

> <r_lp_Energy>
26.469203

> <b_lp_Chiralities_Consistent>
1

> <s_lp_Variant>
CHEMBL260_lig257-1

> <s_i_glide_gridfile>
glide-grid_2qd9

> <i_i_glide_lignum>
308

> <i_i_glide_rotatable_bonds>
4

> <r_i_docking_score>
-8.79980272578769

> <r_i_glide_ligand_efficiency>
-0.382600118512508

> <r_i_glide_ligand_efficiency_sa>
-1.08806384238781

> <r_i_glide_ligand_efficiency_ln>
-2.12787209129504

> <r_i_glide_gscore>
-8.79980272578769

> <r_i_glide_lipo>
-3.85580220052399

> <r_i_glide_hbond>
-0.665838975646573

> <r_i_glide_metal>
0

> <r_i_glide_rewards>
-2.23648314143777

> <r_i_glide_evdw>
-40.1861114501953

> <r_i_glide_ecoul>
-5.58578109741211

> <r_i_glide_erotb>
0.805494328942217

> <r_i_glide_esite>
0

> <r_i_glide_emodel>
-62.3242434065509

> <r_i_glide_energy>
-45.7718925476074

> <r_i_glide_einternal>
14.128345489502

> <i_i_glide_confnum>
13

> <i_i_glide_posenum>
4

> <r_i_glide_eff_state_penalty>
0

> <s_user_duplicate_titles>
CHEMBL260_lig257,254893

> <s_m_subgroup_title>
dock_pv

> <s_m_subgroupid>
dock_pv

> <b_m_subgroup_collapsed>
1

$$$$
CHEMBL260_lig961
                    3D
 Schrodinger Suite 2021-1.
 40 42  0  0  1  0            999 V2000
   -2.2085   -2.1109   21.9735 C   0  0  0  0  0  0
   -2.1890   -2.1882   20.5255 C   0  0  0  0  0  0
   -2.5131   -1.1392   19.7382 C   0  0  0  0  0  0
   -2.8867    0.1374   20.2959 C   0  0  0  0  0  0
   -2.8361    0.2691   21.5838 N   0  0  0  0  0  0
   -2.4571   -0.8158   22.4048 N   0  0  0  0  0  0
   -2.4329   -0.5307   23.7922 C   0  0  0  0  0  0
   -3.3047   -1.2145   24.6546 C   0  0  0  0  0  0
   -3.2350   -1.0336   26.0337 C   0  0  0  0  0  0
   -2.3064   -0.1478   26.5733 C   0  0  0  0  0  0
   -1.4407    0.5472   25.7319 C   0  0  0  0  0  0
   -1.4902    0.3571   24.3493 C   0  0  0  0  0  0
   -0.3295    1.1988   23.3853 Cl  0  0  0  0  0  0
   -2.0349   -3.1130   22.6760 O   0  0  0  0  0  0
   -3.2350    1.1907   19.4300 N   0  0  0  0  0  0
   -3.8538    1.0639   18.1753 C   0  0  0  0  0  0
   -3.1015    1.2234   17.0023 C   0  0  0  0  0  0
   -3.6926    1.0714   15.7477 C   0  0  0  0  0  0
   -5.0503    0.7878   15.6645 C   0  0  0  0  0  0
   -5.8107    0.7485   16.8194 C   0  0  0  0  0  0
   -5.2390    0.8870   18.0756 C   0  0  0  0  0  0
   -6.2531    0.7069   19.4701 Cl  0  0  0  0  0  0
   -3.3769    2.5888   19.8182 C   0  0  0  0  0  0
   -2.2171    3.2087   20.5849 C   0  0  0  0  0  0
   -1.6350    4.2986   19.8760 O   0  0  0  0  0  0
   -5.6348    0.4870   14.4881 F   0  0  0  0  0  0
   -1.9003   -3.1278   20.0760 H   0  0  0  0  0  0
   -2.4352   -1.2749   18.6756 H   0  0  0  0  0  0
   -4.0294   -1.9084   24.2556 H   0  0  0  0  0  0
   -3.9042   -1.5778   26.6841 H   0  0  0  0  0  0
   -2.2499   -0.0065   27.6429 H   0  0  0  0  0  0
   -0.7103    1.2205   26.1574 H   0  0  0  0  0  0
   -2.0416    1.4176   17.0565 H   0  0  0  0  0  0
   -3.0978    1.1305   14.8486 H   0  0  0  0  0  0
   -6.8350    0.4906   16.7409 H   0  0  0  0  0  0
   -3.5442    3.2581   18.9861 H   0  0  0  0  0  0
   -4.3463    2.7327   20.2760 H   0  0  0  0  0  0
   -2.7487    3.6949   21.3921 H   0  0  0  0  0  0
   -1.6350    2.5585   21.2234 H   0  0  0  0  0  0
   -0.8480    4.0088   19.3935 H   0  0  0  0  0  0
  1  6  1  0  0  0
  1  2  1  0  0  0
  1 14  2  0  0  0
  2  3  2  0  0  0
  2 27  1  0  0  0
  3  4  1  0  0  0
  3 28  1  0  0  0
  4 15  1  0  0  0
  4  5  2  0  0  0
  5  6  1  0  0  0
  6  7  1  0  0  0
  7  8  2  0  0  0
  7 12  1  0  0  0
  8  9  1  0  0  0
  8 29  1  0  0  0
  9 10  2  0  0  0
  9 30  1  0  0  0
 10 11  1  0  0  0
 10 31  1  0  0  0
 11 12  2  0  0  0
 11 32  1  0  0  0
 12 13  1  0  0  0
 15 16  1  0  0  0
 15 23  1  0  0  0
 16 17  2  0  0  0
 16 21  1  0  0  0
 17 18  1  0  0  0
 17 33  1  0  0  0
 18 19  2  0  0  0
 18 34  1  0  0  0
 19 20  1  0  0  0
 19 26  1  0  0  0
 20 21  2  0  0  0
 20 35  1  0  0  0
 21 22  1  0  0  0
 23 24  1  0  0  0
 23 36  1  0  0  0
 23 37  1  0  0  0
 24 25  1  0  0  0
 24 38  1  0  0  0
 24 39  1  0  0  0
 25 40  1  0  0  0
M  END
> <s_m_entry_id>
60834

> <s_m_entry_name>
dock_pv.111

> <s_m_Source_Path>
/home/csk/Desktop/cluster/DUD-E-result/mk14

> <s_m_Source_File>
dock_pv.maegz

> <i_m_Source_File_Index>
111

> <chembl_id>
CHEMBL221312

> <chembl_pref_name>
None

> <i_lp_mmshare_version>
53161

> <i_f3d_flags>
0

> <r_lp_tautomer_probability>
1

> <s_lp_Force_Field>
OPLS_2005

> <r_lp_Energy>
41.29403

> <b_lp_Chiralities_Consistent>
1

> <s_lp_Variant>
CHEMBL260_lig961-1

> <s_i_glide_gridfile>
glide-grid_2qd9

> <i_i_glide_lignum>
1066

> <i_i_glide_rotatable_bonds>
6

> <r_i_docking_score>
-8.77988227902083

> <r_i_glide_ligand_efficiency>
-0.33768777996234

> <r_i_glide_ligand_efficiency_sa>
-1.00039871940118

> <r_i_glide_ligand_efficiency_ln>
-2.0619265440845

> <r_i_glide_gscore>
-8.77988227902083

> <r_i_glide_lipo>
-3.74538701307144

> <r_i_glide_hbond>
-0.512978814481052

> <r_i_glide_metal>
0

> <r_i_glide_rewards>
-1.89244640332469

> <r_i_glide_evdw>
-36.4754943847656

> <r_i_glide_ecoul>
-9.56017017364502

> <r_i_glide_erotb>
0.628730197141389

> <r_i_glide_esite>
0

> <r_i_glide_emodel>
-59.9876482001511

> <r_i_glide_energy>
-46.0356645584106

> <r_i_glide_einternal>
7.54539680480957

> <i_i_glide_confnum>
7

> <i_i_glide_posenum>
6

> <r_i_glide_eff_state_penalty>
0

> <s_user_duplicate_titles>
CHEMBL260_lig961,368301

> <s_m_subgroup_title>
dock_pv

> <s_m_subgroupid>
dock_pv

> <b_m_subgroup_collapsed>
1

$$$$
CHEMBL260_lig120
                    3D
 Schrodinger Suite 2021-1.
 53 57  0  0  1  0            999 V2000
   -1.7464   -1.1489   22.4530 N   0  0  0  0  0  0
   -2.0703    0.1103   21.8675 C   0  0  0  0  0  0
   -2.6598    0.1736   20.5942 C   0  0  0  0  0  0
   -3.0037    1.4221   20.0138 C   0  0  0  0  0  0
   -1.8364   -2.3641   21.8278 C   0  0  0  0  0  0
   -1.3896   -1.1695   23.8334 C   0  0  0  0  0  0
   -1.7930    1.2942   22.5445 C   0  0  0  0  0  0
   -2.0370    2.5399   21.9998 C   0  0  0  0  0  0
   -2.2354   -2.3108   20.5382 N   0  0  0  0  0  0
   -2.6241    2.5937   20.7127 C   0  0  0  0  0  0
   -3.7371    1.4717   18.6767 C   0  0  0  0  0  0
   -1.7196    3.6612   22.7724 N   0  0  0  0  0  0
   -2.8657   -1.1564   19.8760 C   0  0  0  0  0  0
   -2.3786   -1.3522   24.8165 C   0  0  0  0  0  0
   -0.0693   -0.8937   24.2426 C   0  0  0  0  0  0
   -1.6350   -3.4681   22.3385 O   0  0  0  0  0  0
   -5.0474    0.9657   18.5292 C   0  0  0  0  0  0
    0.2079    3.8821   25.0288 N   0  0  0  0  0  0
    1.1591   -0.4397   23.1145 Cl  0  0  0  0  0  0
   -4.0409   -1.5111   24.3895 Cl  0  0  0  0  0  0
   -5.9940    0.4870   19.8760 Cl  0  0  0  0  0  0
   -2.1472    3.7399   24.1909 C   0  0  0  0  0  0
   -0.3693    4.2445   22.6738 C   0  0  0  0  0  0
   -3.1480    1.9756   17.4954 C   0  0  0  0  0  0
    0.6402    3.6204   23.6623 C   0  0  0  0  0  0
   -1.1049    3.2885   25.2554 C   0  0  0  0  0  0
   -0.7239   -1.1138   26.5613 C   0  0  0  0  0  0
   -2.0400   -1.3432   26.1700 C   0  0  0  0  0  0
    0.2540   -0.8771   25.5990 C   0  0  0  0  0  0
   -5.6740    0.8870   17.2829 C   0  0  0  0  0  0
   -3.7521    1.8591   16.2443 C   0  0  0  0  0  0
   -5.0183    1.3043   16.1340 C   0  0  0  0  0  0
   -1.3338    1.2632   23.5132 H   0  0  0  0  0  0
   -2.3309   -3.2121   20.0877 H   0  0  0  0  0  0
   -2.8383    3.5572   20.2780 H   0  0  0  0  0  0
   -3.9279   -1.3648   19.7727 H   0  0  0  0  0  0
   -2.4437   -1.0879   18.8714 H   0  0  0  0  0  0
    0.8819    3.5076   25.6840 H   0  0  0  0  0  0
   -2.4098    4.7741   24.4078 H   0  0  0  0  0  0
   -3.0632    3.1622   24.3269 H   0  0  0  0  0  0
    0.0085    4.1722   21.6539 H   0  0  0  0  0  0
   -0.4379    5.3129   22.8821 H   0  0  0  0  0  0
   -2.1973    2.4825   17.4751 H   0  0  0  0  0  0
    0.7521    2.5484   23.4960 H   0  0  0  0  0  0
    1.6341    4.0443   23.5186 H   0  0  0  0  0  0
   -1.0154    2.2048   25.3127 H   0  0  0  0  0  0
   -1.4375    3.5876   26.2501 H   0  0  0  0  0  0
   -0.4636   -1.1006   27.6104 H   0  0  0  0  0  0
   -2.8017   -1.4914   26.9220 H   0  0  0  0  0  0
    1.2671   -0.6655   25.9097 H   0  0  0  0  0  0
   -6.6758    0.4887   17.2087 H   0  0  0  0  0  0
   -3.2493    2.2314   15.3624 H   0  0  0  0  0  0
   -5.5015    1.2298   15.1702 H   0  0  0  0  0  0
  1  2  1  0  0  0
  1  5  1  0  0  0
  1  6  1  0  0  0
  2  3  2  0  0  0
  2  7  1  0  0  0
  3  4  1  0  0  0
  3 13  1  0  0  0
  4 11  1  0  0  0
  4 10  2  0  0  0
  5  9  1  0  0  0
  5 16  2  0  0  0
  6 14  1  0  0  0
  6 15  2  0  0  0
  7  8  2  0  0  0
  7 33  1  0  0  0
  8 10  1  0  0  0
  8 12  1  0  0  0
  9 13  1  0  0  0
  9 34  1  0  0  0
 10 35  1  0  0  0
 11 17  1  0  0  0
 11 24  2  0  0  0
 12 22  1  0  0  0
 12 23  1  0  0  0
 13 36  1  0  0  0
 13 37  1  0  0  0
 14 20  1  0  0  0
 14 28  2  0  0  0
 15 19  1  0  0  0
 15 29  1  0  0  0
 17 21  1  0  0  0
 17 30  2  0  0  0
 18 25  1  0  0  0
 18 26  1  0  0  0
 18 38  1  0  0  0
 22 26  1  0  0  0
 22 39  1  0  0  0
 22 40  1  0  0  0
 23 25  1  0  0  0
 23 41  1  0  0  0
 23 42  1  0  0  0
 24 31  1  0  0  0
 24 43  1  0  0  0
 25 44  1  0  0  0
 25 45  1  0  0  0
 26 46  1  0  0  0
 26 47  1  0  0  0
 27 29  2  0  0  0
 27 28  1  0  0  0
 27 48  1  0  0  0
 28 49  1  0  0  0
 29 50  1  0  0  0
 30 32  1  0  0  0
 30 51  1  0  0  0
 31 32  2  0  0  0
 31 52  1  0  0  0
 32 53  1  0  0  0
M  END
> <s_m_entry_id>
60835

> <s_m_entry_name>
dock_pv.112

> <s_m_Source_Path>
/home/csk/Desktop/cluster/DUD-E-result/mk14

> <s_m_Source_File>
dock_pv.maegz

> <i_m_Source_File_Index>
112

> <chembl_id>
CHEMBL96487

> <chembl_pref_name>
None

> <i_lp_mmshare_version>
53161

> <i_f3d_flags>
0

> <r_lp_tautomer_probability>
1

> <s_lp_Force_Field>
OPLS_2005

> <r_lp_Energy>
74.778132

> <b_lp_Chiralities_Consistent>
1

> <s_lp_Variant>
CHEMBL260_lig120-1

> <s_i_glide_gridfile>
glide-grid_2qd9

> <i_i_glide_lignum>
136

> <i_i_glide_rotatable_bonds>
3

> <r_i_docking_score>
-8.77584892545674

> <r_i_glide_ligand_efficiency>
-0.274245278920523

> <r_i_glide_ligand_efficiency_sa>
-0.870674487505659

> <r_i_glide_ligand_efficiency_ln>
-1.96515179501655

> <r_i_glide_gscore>
-8.77584892545674

> <r_i_glide_lipo>
-3.99484075929395

> <r_i_glide_hbond>
-0.485662586969123

> <r_i_glide_metal>
0

> <r_i_glide_rewards>
-1.42665975376815

> <r_i_glide_evdw>
-34.8941307067871

> <r_i_glide_ecoul>
-8.93030738830566

> <r_i_glide_erotb>
0.256332214124526

> <r_i_glide_esite>
-0.0407653959648338

> <r_i_glide_emodel>
-52.2009803123366

> <r_i_glide_energy>
-43.8244380950928

> <r_i_glide_einternal>
9.46453189849854

> <i_i_glide_confnum>
24

> <i_i_glide_posenum>
203

> <r_i_glide_eff_state_penalty>
0

> <s_user_duplicate_titles>
CHEMBL260_lig120,153869

> <s_m_subgroup_title>
dock_pv

> <s_m_subgroupid>
dock_pv

> <b_m_subgroup_collapsed>
1

$$$$
CHEMBL260_lig1659
                    3D
 Schrodinger Suite 2021-1.
 55 59  0  0  1  0            999 V2000
   -4.0347   -1.4950   24.4452 Cl  0  0  0  0  0  0
   -2.4444   -1.2654   25.0831 C   0  0  0  0  0  0
   -2.2976   -1.1457   26.4653 C   0  0  0  0  0  0
   -1.0417   -0.9180   27.0217 C   0  0  0  0  0  0
    0.0731   -0.8007   26.1958 C   0  0  0  0  0  0
   -0.0519   -0.9359   24.8127 C   0  0  0  0  0  0
    1.3647   -0.7191   23.8413 Cl  0  0  0  0  0  0
   -1.3171   -1.1811   24.2412 C   0  0  0  0  0  0
   -1.4616   -1.2835   22.8184 N   0  0  0  0  0  0
   -1.5565   -2.5286   22.3066 C   0  0  0  0  0  0
   -1.6351   -3.5132   23.0134 O   0  0  0  0  0  0
   -1.5879   -2.5752   20.7645 C   0  0  0  0  0  0
   -2.6245   -1.5686   20.2178 C   0  0  0  0  0  0
   -2.4151   -0.1849   20.8214 C   0  0  0  0  0  0
   -1.7831   -0.1248   22.0850 C   0  0  0  0  0  0
   -1.5311    1.0963   22.6759 C   0  0  0  0  0  0
   -2.0452    2.2505   22.1566 C   0  0  0  0  0  0
   -2.6835    2.2121   20.8995 C   0  0  0  0  0  0
   -2.8596    1.0003   20.2014 C   0  0  0  0  0  0
   -3.6610    0.9599   18.9207 C   0  0  0  0  0  0
   -3.0993    0.9234   17.6315 C   0  0  0  0  0  0
   -3.8846    0.9112   16.4782 C   0  0  0  0  0  0
   -5.2680    0.8876   16.5877 C   0  0  0  0  0  0
   -6.0337    0.8280   15.4771 F   0  0  0  0  0  0
   -5.8534    0.8870   17.8479 C   0  0  0  0  0  0
   -5.0536    0.9115   18.9915 C   0  0  0  0  0  0
   -5.6349    0.8869   20.1958 F   0  0  0  0  0  0
   -1.9949    3.4615   23.0757 C   0  0  0  0  0  0
   -2.4333    3.1999   24.5474 C   0  0  0  0  0  0
   -2.2533    4.4426   25.4417 C   0  0  0  0  0  0
   -0.8772    4.9309   25.3944 N   0  0  2  0  0  0
   -0.4392    5.2792   24.0444 C   0  0  0  0  0  0
   -0.5789    4.0875   23.0759 C   0  0  0  0  0  0
   -3.1614   -1.2223   27.1098 H   0  0  0  0  0  0
   -0.9316   -0.8236   28.0922 H   0  0  0  0  0  0
    1.0435   -0.6072   26.6323 H   0  0  0  0  0  0
   -0.5856   -2.3382   20.4052 H   0  0  0  0  0  0
   -1.8180   -3.5890   20.4425 H   0  0  0  0  0  0
   -3.6346   -1.9161   20.4389 H   0  0  0  0  0  0
   -2.5442   -1.5308   19.1310 H   0  0  0  0  0  0
   -0.9925    1.1607   23.6057 H   0  0  0  0  0  0
   -3.0925    3.1195   20.4820 H   0  0  0  0  0  0
   -2.0356    0.8871   17.4761 H   0  0  0  0  0  0
   -3.4206    0.8888   15.5025 H   0  0  0  0  0  0
   -6.9279    0.8399   17.9370 H   0  0  0  0  0  0
   -2.7666    4.0870   22.6620 H   0  0  0  0  0  0
   -3.4947    2.9470   24.5618 H   0  0  0  0  0  0
   -1.9195    2.3707   25.0323 H   0  0  0  0  0  0
   -2.9321    5.2416   25.1452 H   0  0  0  0  0  0
   -2.4911    4.1939   26.4765 H   0  0  0  0  0  0
   -0.2711    4.1945   25.7334 H   0  0  0  0  0  0
   -1.0013    6.1428   23.6878 H   0  0  0  0  0  0
    0.6068    5.5854   24.0991 H   0  0  0  0  0  0
    0.1995    3.3542   23.2957 H   0  0  0  0  0  0
   -0.3609    4.4737   22.0782 H   0  0  0  0  0  0
  1  2  1  0  0  0
  2  3  2  0  0  0
  2  8  1  0  0  0
  3  4  1  0  0  0
  3 34  1  0  0  0
  4  5  2  0  0  0
  4 35  1  0  0  0
  5  6  1  0  0  0
  5 36  1  0  0  0
  6  7  1  0  0  0
  6  8  2  0  0  0
  8  9  1  0  0  0
  9 10  1  0  0  0
  9 15  1  0  0  0
 10 11  2  0  0  0
 10 12  1  0  0  0
 12 13  1  0  0  0
 12 37  1  0  0  0
 12 38  1  0  0  0
 13 14  1  0  0  0
 13 39  1  0  0  0
 13 40  1  0  0  0
 14 15  2  0  0  0
 14 19  1  0  0  0
 15 16  1  0  0  0
 16 17  2  0  0  0
 16 41  1  0  0  0
 17 18  1  0  0  0
 17 28  1  0  0  0
 18 19  2  0  0  0
 18 42  1  0  0  0
 19 20  1  0  0  0
 20 21  2  0  0  0
 20 26  1  0  0  0
 21 22  1  0  0  0
 21 43  1  0  0  0
 22 23  2  0  0  0
 22 44  1  0  0  0
 23 24  1  0  0  0
 23 25  1  0  0  0
 25 26  2  0  0  0
 25 45  1  0  0  0
 26 27  1  0  0  0
 28 29  1  0  0  0
 28 33  1  0  0  0
 28 46  1  0  0  0
 29 30  1  0  0  0
 29 47  1  0  0  0
 29 48  1  0  0  0
 30 31  1  0  0  0
 30 49  1  0  0  0
 30 50  1  0  0  0
 31 32  1  0  0  0
 31 51  1  0  0  0
 32 33  1  0  0  0
 32 52  1  0  0  0
 32 53  1  0  0  0
 33 54  1  0  0  0
 33 55  1  0  0  0
M  END
> <s_m_entry_id>
60836

> <s_m_entry_name>
dock_pv.113

> <s_m_Source_Path>
/home/csk/Desktop/cluster/DUD-E-result/mk14

> <s_m_Source_File>
dock_pv.maegz

> <i_m_Source_File_Index>
113

> <chembl_id>
CHEMBL564912

> <chembl_pref_name>
None

> <i_lp_mmshare_version>
53161

> <i_f3d_flags>
0

> <r_lp_tautomer_probability>
1

> <s_lp_Force_Field>
OPLS_2005

> <r_lp_Energy>
54.626993

> <b_lp_Chiralities_Consistent>
1

> <s_lp_Variant>
CHEMBL260_lig1659-1

> <s_i_glide_gridfile>
glide-grid_2qd9

> <i_i_glide_lignum>
1911

> <i_i_glide_rotatable_bonds>
3

> <r_i_docking_score>
-8.7629879190392

> <r_i_glide_ligand_efficiency>
-0.265545088455733

> <r_i_glide_ligand_efficiency_sa>
-0.851744986390833

> <r_i_glide_ligand_efficiency_ln>
-1.94884314087115

> <r_i_glide_gscore>
-8.7629879190392

> <r_i_glide_lipo>
-4.12983151536453

> <r_i_glide_hbond>
-0.552271368170646

> <r_i_glide_metal>
0

> <r_i_glide_rewards>
-1.51518822444821

> <r_i_glide_evdw>
-37.0196762084961

> <r_i_glide_ecoul>
-6.47645854949951

> <r_i_glide_erotb>
0.256755781793918

> <r_i_glide_esite>
0

> <r_i_glide_emodel>
-50.4803791747041

> <r_i_glide_energy>
-43.4961347579956

> <r_i_glide_einternal>
2.85652017593384

> <i_i_glide_confnum>
142

> <i_i_glide_posenum>
300

> <r_i_glide_eff_state_penalty>
0

> <s_user_duplicate_titles>
CHEMBL260_lig1659,561990

> <s_m_subgroup_title>
dock_pv

> <s_m_subgroupid>
dock_pv

> <b_m_subgroup_collapsed>
1

$$$$
CHEMBL260_lig1241
                    3D
 Schrodinger Suite 2021-1.
 43 46  0  0  1  0            999 V2000
   -1.9292   -2.2324   21.8916 C   0  0  0  0  0  0
   -2.2532   -2.0659   20.4808 C   0  0  0  0  0  0
   -2.6081   -0.9293   19.8760 C   0  0  0  0  0  0
   -1.8451   -1.0352   22.5423 N   0  0  0  0  0  0
   -2.2031    0.2180   21.9434 C   0  0  0  0  0  0
   -2.6398    0.3126   20.6002 C   0  0  0  0  0  0
   -3.0105    1.5270   19.9772 C   0  0  0  0  0  0
   -2.8350    2.6725   20.7577 C   0  0  0  0  0  0
   -2.4350    2.5821   22.1106 C   0  0  0  0  0  0
   -2.1237    1.3709   22.6789 C   0  0  0  0  0  0
   -1.7510   -3.3401   22.4174 O   0  0  0  0  0  0
   -1.4235   -1.0671   23.9045 C   0  0  0  0  0  0
   -2.3565   -1.3115   24.9293 C   0  0  0  0  0  0
   -1.9445   -1.3503   26.2614 C   0  0  0  0  0  0
   -0.6128   -1.1129   26.5909 C   0  0  0  0  0  0
    0.3076   -0.8142   25.5896 C   0  0  0  0  0  0
   -0.0869   -0.7834   24.2524 C   0  0  0  0  0  0
    1.0895   -0.3130   23.0760 Cl  0  0  0  0  0  0
   -4.0350   -1.5130   24.5833 Cl  0  0  0  0  0  0
   -3.5636    1.5877   18.5555 C   0  0  0  0  0  0
   -2.8726    2.2085   17.4760 C   0  0  0  0  0  0
   -3.3209    2.0870   16.1603 C   0  0  0  0  0  0
   -4.5083    1.4194   15.8849 C   0  0  0  0  0  0
   -5.2581    0.8925   16.9296 C   0  0  0  0  0  0
   -4.7967    0.9738   18.2456 C   0  0  0  0  0  0
   -5.8275    0.3395   19.4760 Cl  0  0  0  0  0  0
   -2.4350    3.6870   22.9026 O   0  0  0  0  0  0
   -2.0350   -3.1130   19.7068 O   0  0  0  0  0  0
   -1.9568    3.6798   24.2509 C   0  0  0  0  0  0
   -2.7483   -0.9275   18.8058 H   0  0  0  0  0  0
   -3.0860    3.6373   20.3456 H   0  0  0  0  0  0
   -1.8260    1.3229   23.7113 H   0  0  0  0  0  0
   -2.6605   -1.5503   27.0456 H   0  0  0  0  0  0
   -0.2959   -1.1416   27.6239 H   0  0  0  0  0  0
    1.3342   -0.6043   25.8552 H   0  0  0  0  0  0
   -2.0350    2.8870   17.6202 H   0  0  0  0  0  0
   -2.7758    2.5638   15.3573 H   0  0  0  0  0  0
   -4.8709    1.3498   14.8702 H   0  0  0  0  0  0
   -6.2058    0.4169   16.7177 H   0  0  0  0  0  0
   -2.6746   -3.8270   19.8760 H   0  0  0  0  0  0
   -1.9770    4.6950   24.6461 H   0  0  0  0  0  0
   -2.5874    3.0677   24.8979 H   0  0  0  0  0  0
   -0.9248    3.3294   24.3123 H   0  0  0  0  0  0
  1 11  2  0  0  0
  1  2  1  0  0  0
  1  4  1  0  0  0
  2  3  2  0  0  0
  2 28  1  0  0  0
  3  6  1  0  0  0
  3 30  1  0  0  0
  4  5  1  0  0  0
  4 12  1  0  0  0
  5 10  1  0  0  0
  5  6  2  0  0  0
  6  7  1  0  0  0
  7  8  2  0  0  0
  7 20  1  0  0  0
  8  9  1  0  0  0
  8 31  1  0  0  0
  9 10  2  0  0  0
  9 27  1  0  0  0
 10 32  1  0  0  0
 12 17  1  0  0  0
 12 13  2  0  0  0
 13 14  1  0  0  0
 13 19  1  0  0  0
 14 15  2  0  0  0
 14 33  1  0  0  0
 15 16  1  0  0  0
 15 34  1  0  0  0
 16 17  2  0  0  0
 16 35  1  0  0  0
 17 18  1  0  0  0
 20 21  2  0  0  0
 20 25  1  0  0  0
 21 22  1  0  0  0
 21 36  1  0  0  0
 22 23  2  0  0  0
 22 37  1  0  0  0
 23 24  1  0  0  0
 23 38  1  0  0  0
 24 25  2  0  0  0
 24 39  1  0  0  0
 25 26  1  0  0  0
 27 29  1  0  0  0
 28 40  1  0  0  0
 29 41  1  0  0  0
 29 42  1  0  0  0
 29 43  1  0  0  0
M  END
> <s_m_entry_id>
60837

> <s_m_entry_name>
dock_pv.114

> <s_m_Source_Path>
/home/csk/Desktop/cluster/DUD-E-result/mk14

> <s_m_Source_File>
dock_pv.maegz

> <i_m_Source_File_Index>
114

> <chembl_id>
CHEMBL401774

> <chembl_pref_name>
None

> <i_lp_mmshare_version>
53161

> <i_f3d_flags>
0

> <r_lp_tautomer_probability>
1

> <s_lp_Force_Field>
OPLS_2005

> <r_lp_Energy>
49.419381

> <b_lp_Chiralities_Consistent>
1

> <s_lp_Variant>
CHEMBL260_lig1241-1

> <s_i_glide_gridfile>
glide-grid_2qd9

> <i_i_glide_lignum>
1414

> <i_i_glide_rotatable_bonds>
4

> <r_i_docking_score>
-8.75398711517637

> <r_i_glide_ligand_efficiency>
-0.301861624661254

> <r_i_glide_ligand_efficiency_sa>
-0.927414547434677

> <r_i_glide_ligand_efficiency_ln>
-2.00444106741528

> <r_i_glide_gscore>
-8.75398711517637

> <r_i_glide_lipo>
-4.22933291804046

> <r_i_glide_hbond>
-0.306130316196524

> <r_i_glide_metal>
0

> <r_i_glide_rewards>
-1.33289233277732

> <r_i_glide_evdw>
-21.6759624481201

> <r_i_glide_ecoul>
-13.3498125076294

> <r_i_glide_erotb>
0.200638450388354

> <r_i_glide_esite>
0

> <r_i_glide_emodel>
-46.067234357763

> <r_i_glide_energy>
-35.0257749557495

> <r_i_glide_einternal>
7.26422882080078

> <i_i_glide_confnum>
7

> <i_i_glide_posenum>
263

> <r_i_glide_eff_state_penalty>
0

> <s_user_duplicate_titles>
CHEMBL260_lig1241,434330

> <s_m_subgroup_title>
dock_pv

> <s_m_subgroupid>
dock_pv

> <b_m_subgroup_collapsed>
1

$$$$
CHEMBL260_lig1791
                    3D
 Schrodinger Suite 2021-1.
 38 41  0  0  1  0            999 V2000
   -0.5225   -0.3460   24.8486 C   0  0  0  0  0  0
   -0.3940   -0.8944   26.1353 C   0  0  0  0  0  0
    0.2426   -0.2002   27.1582 C   0  0  0  0  0  0
    0.7643    1.0648   26.9183 C   0  0  0  0  0  0
    0.6470    1.6515   25.6499 C   0  0  0  0  0  0
   -0.0022    0.9372   24.6234 C   0  0  0  0  0  0
   -1.1285   -1.2152   23.7750 C   0  0  0  0  0  0
   -5.1092    0.8342   15.8697 C   0  0  0  0  0  0
   -3.8155    1.3378   15.9336 C   0  0  0  0  0  0
   -3.2422    1.6307   17.1686 C   0  0  0  0  0  0
   -3.9504    1.3892   18.3569 C   0  0  0  0  0  0
   -5.2565    0.8876   18.2845 C   0  0  0  0  0  0
   -5.8406    0.6485   17.0396 C   0  0  0  0  0  0
   -3.2350    1.8142   19.9350 S   0  0  0  0  0  0
   -2.7147    0.2818   20.6905 C   0  0  0  0  0  0
   -2.9160   -0.9463   20.0558 C   0  0  0  0  0  0
   -2.5779   -2.1502   20.6708 C   0  0  0  0  0  0
   -2.1020    0.3121   21.9525 C   0  0  0  0  0  0
   -1.7396   -0.8687   22.5665 N   0  0  0  0  0  0
   -2.0048   -2.1081   21.9455 C   0  0  0  0  0  0
   -1.6350   -3.1140   22.7532 N   0  0  0  0  0  0
   -1.0873   -2.5323   23.8708 N   0  0  0  0  0  0
   -5.6346    0.4862   14.6765 F   0  0  0  0  0  0
   -5.9694    0.6459   19.4094 F   0  0  0  0  0  0
    1.1655    3.0449   25.4003 C   0  0  0  0  0  0
    2.1243    3.4749   26.2760 O   0  0  0  0  0  0
    0.7423    3.7359   24.4737 O   0  0  0  0  0  0
   -0.7700   -1.8832   26.3547 H   0  0  0  0  0  0
    0.3405   -0.6478   28.1368 H   0  0  0  0  0  0
    1.2492    1.5749   27.7402 H   0  0  0  0  0  0
   -0.0596    1.3679   23.6349 H   0  0  0  0  0  0
   -3.2556    1.4987   15.0241 H   0  0  0  0  0  0
   -2.2524    2.0544   17.1569 H   0  0  0  0  0  0
   -6.8350    0.2379   16.9904 H   0  0  0  0  0  0
   -3.3605   -0.9902   19.0760 H   0  0  0  0  0  0
   -2.7599   -3.1063   20.1914 H   0  0  0  0  0  0
   -1.9200    1.2280   22.4914 H   0  0  0  0  0  0
    2.5172    2.7728   26.8092 H   0  0  0  0  0  0
  1  2  2  0  0  0
  1  7  1  0  0  0
  1  6  1  0  0  0
  2  3  1  0  0  0
  2 28  1  0  0  0
  3  4  2  0  0  0
  3 29  1  0  0  0
  4  5  1  0  0  0
  4 30  1  0  0  0
  5  6  2  0  0  0
  5 25  1  0  0  0
  6 31  1  0  0  0
  7 19  1  0  0  0
  7 22  2  0  0  0
  8  9  2  0  0  0
  8 23  1  0  0  0
  8 13  1  0  0  0
  9 10  1  0  0  0
  9 32  1  0  0  0
 10 11  2  0  0  0
 10 33  1  0  0  0
 11 14  1  0  0  0
 11 12  1  0  0  0
 12 24  1  0  0  0
 12 13  2  0  0  0
 13 34  1  0  0  0
 14 15  1  0  0  0
 15 16  1  0  0  0
 15 18  2  0  0  0
 16 17  2  0  0  0
 16 35  1  0  0  0
 17 20  1  0  0  0
 17 36  1  0  0  0
 18 19  1  0  0  0
 18 37  1  0  0  0
 19 20  1  0  0  0
 20 21  2  0  0  0
 21 22  1  0  0  0
 25 26  1  0  0  0
 25 27  2  0  0  0
 26 38  1  0  0  0
M  END
> <s_m_entry_id>
60838

> <s_m_entry_name>
dock_pv.115

> <s_m_Source_Path>
/home/csk/Desktop/cluster/DUD-E-result/mk14

> <s_m_Source_File>
dock_pv.maegz

> <i_m_Source_File_Index>
115

> <chembl_id>
CHEMBL605924

> <chembl_pref_name>
None

> <i_lp_mmshare_version>
53161

> <i_f3d_flags>
0

> <r_lp_tautomer_probability>
1

> <s_lp_Force_Field>
OPLS_2005

> <r_lp_Energy>
17.465688

> <b_lp_Chiralities_Consistent>
1

> <s_lp_Variant>
CHEMBL260_lig1791-1

> <s_i_glide_gridfile>
glide-grid_2qd9

> <i_i_glide_lignum>
2089

> <i_i_glide_rotatable_bonds>
5

> <r_i_docking_score>
-8.74304093255892

> <r_i_glide_ligand_efficiency>
-0.323816330835516

> <r_i_glide_ligand_efficiency_sa>
-0.971448991439301

> <r_i_glide_ligand_efficiency_ln>
-2.03523578880477

> <r_i_glide_gscore>
-8.74304093255892

> <r_i_glide_lipo>
-3.13726492189529

> <r_i_glide_hbond>
0

> <r_i_glide_metal>
0

> <r_i_glide_rewards>
-2.50026221409191

> <r_i_glide_evdw>
-42.7908897399902

> <r_i_glide_ecoul>
-9.5637264251709

> <r_i_glide_erotb>
0.528839021095356

> <r_i_glide_esite>
-0.0602493668919338

> <r_i_glide_emodel>
-76.8975555735524

> <r_i_glide_energy>
-52.3546161651611

> <r_i_glide_einternal>
3.82313179969788

> <i_i_glide_confnum>
28

> <i_i_glide_posenum>
17

> <r_i_glide_eff_state_penalty>
0

> <s_user_duplicate_titles>
CHEMBL260_lig1791

> <s_m_subgroup_title>
dock_pv

> <s_m_subgroupid>
dock_pv

> <b_m_subgroup_collapsed>
1

$$$$
CHEMBL260_lig149
                    3D
 Schrodinger Suite 2021-1.
 45 48  0  0  1  0            999 V2000
   -1.5079   -1.3042   23.3834 N   0  0  0  0  0  0
   -1.5632   -2.6263   23.0631 C   0  0  0  0  0  0
   -1.8880   -0.2817   22.5000 C   0  0  0  0  0  0
   -2.2226   -0.6307   21.1803 C   0  0  0  0  0  0
   -1.1993   -0.9806   24.7372 C   0  0  0  0  0  0
   -2.6665    0.2660   20.2931 N   0  0  0  0  0  0
   -1.6350   -2.9517   21.7550 N   0  0  0  0  0  0
   -2.7634    1.5470   20.6842 C   0  0  0  0  0  0
   -1.9989    1.0635   22.8862 C   0  0  0  0  0  0
   -2.1017   -2.0600   20.7002 C   0  0  0  0  0  0
   -3.2350    2.6796   19.4760 S   0  0  0  0  0  0
   -1.6350   -3.5130   23.8760 O   0  0  0  0  0  0
   -2.2118   -1.0372   25.7181 C   0  0  0  0  0  0
    0.1136   -0.6233   25.1216 C   0  0  0  0  0  0
   -2.4350    1.9998   21.9584 C   0  0  0  0  0  0
   -3.9671    1.6870   18.1884 C   0  0  0  0  0  0
   -5.3593    0.6207   16.0423 C   0  0  0  0  0  0
   -3.8278   -1.5130   25.3283 Cl  0  0  0  0  0  0
   -6.0350    0.0870   15.0015 F   0  0  0  0  0  0
   -5.2332    1.1443   18.3913 C   0  0  0  0  0  0
   -3.3722    1.6595   16.9250 C   0  0  0  0  0  0
   -4.0701    1.1135   15.8504 C   0  0  0  0  0  0
   -5.9462    0.6469   17.3069 C   0  0  0  0  0  0
   -0.6322   -0.3709   27.4192 C   0  0  0  0  0  0
   -1.9220   -0.7343   27.0475 C   0  0  0  0  0  0
    0.3745   -0.3130   26.4610 C   0  0  0  0  0  0
    1.2822   -0.5564   24.1394 C   0  0  0  0  0  0
    1.6716    0.8808   23.7636 C   0  0  0  0  0  0
   -1.4975   -3.9197   21.5109 H   0  0  0  0  0  0
   -1.7505    1.3906   23.8853 H   0  0  0  0  0  0
   -1.3925   -2.1100   19.8741 H   0  0  0  0  0  0
   -3.0620   -2.4231   20.3287 H   0  0  0  0  0  0
   -2.4985    3.0444   22.2202 H   0  0  0  0  0  0
   -5.6944    1.1781   19.3679 H   0  0  0  0  0  0
   -2.3998    2.1016   16.7640 H   0  0  0  0  0  0
   -3.6252    1.0918   14.8663 H   0  0  0  0  0  0
   -6.9285    0.2330   17.4685 H   0  0  0  0  0  0
   -0.4072   -0.1424   28.4510 H   0  0  0  0  0  0
   -2.6975   -0.7906   27.7972 H   0  0  0  0  0  0
    1.3733   -0.0377   26.7704 H   0  0  0  0  0  0
    2.1359   -1.0702   24.5851 H   0  0  0  0  0  0
    1.0571   -1.1130   23.2317 H   0  0  0  0  0  0
    2.5176    0.8870   23.0760 H   0  0  0  0  0  0
    0.8482    1.4060   23.2807 H   0  0  0  0  0  0
    1.9650    1.4574   24.6419 H   0  0  0  0  0  0
  1  2  1  0  0  0
  1  3  1  0  0  0
  1  5  1  0  0  0
  2  7  1  0  0  0
  2 12  2  0  0  0
  3  4  2  0  0  0
  3  9  1  0  0  0
  4  6  1  0  0  0
  4 10  1  0  0  0
  5 13  1  0  0  0
  5 14  2  0  0  0
  6  8  2  0  0  0
  7 10  1  0  0  0
  7 29  1  0  0  0
  8 15  1  0  0  0
  8 11  1  0  0  0
  9 15  2  0  0  0
  9 30  1  0  0  0
 10 31  1  0  0  0
 10 32  1  0  0  0
 11 16  1  0  0  0
 13 18  1  0  0  0
 13 25  2  0  0  0
 14 26  1  0  0  0
 14 27  1  0  0  0
 15 33  1  0  0  0
 16 20  1  0  0  0
 16 21  2  0  0  0
 17 22  2  0  0  0
 17 19  1  0  0  0
 17 23  1  0  0  0
 20 23  2  0  0  0
 20 34  1  0  0  0
 21 22  1  0  0  0
 21 35  1  0  0  0
 22 36  1  0  0  0
 23 37  1  0  0  0
 24 26  2  0  0  0
 24 25  1  0  0  0
 24 38  1  0  0  0
 25 39  1  0  0  0
 26 40  1  0  0  0
 27 28  1  0  0  0
 27 41  1  0  0  0
 27 42  1  0  0  0
 28 43  1  0  0  0
 28 44  1  0  0  0
 28 45  1  0  0  0
M  END
> <s_m_entry_id>
60839

> <s_m_entry_name>
dock_pv.116

> <s_m_Source_Path>
/home/csk/Desktop/cluster/DUD-E-result/mk14

> <s_m_Source_File>
dock_pv.maegz

> <i_m_Source_File_Index>
116

> <chembl_id>
CHEMBL129704

> <chembl_pref_name>
None

> <i_lp_mmshare_version>
53161

> <i_f3d_flags>
0

> <r_lp_tautomer_probability>
1

> <s_lp_Force_Field>
OPLS_2005

> <r_lp_Energy>
41.40188

> <b_lp_Chiralities_Consistent>
1

> <s_lp_Variant>
CHEMBL260_lig149-1

> <s_i_glide_gridfile>
glide-grid_2qd9

> <i_i_glide_lignum>
166

> <i_i_glide_rotatable_bonds>
4

> <r_i_docking_score>
-8.72670248739309

> <r_i_glide_ligand_efficiency>
-0.311667945978325

> <r_i_glide_ligand_efficiency_sa>
-0.946407446593713

> <r_i_glide_ligand_efficiency_ln>
-2.01437916120912

> <r_i_glide_gscore>
-8.72670248739309

> <r_i_glide_lipo>
-4.0028530917917

> <r_i_glide_hbond>
-0.46687754895253

> <r_i_glide_metal>
0

> <r_i_glide_rewards>
-1.49187676722471

> <r_i_glide_evdw>
-34.0696411132812

> <r_i_glide_ecoul>
-9.38113689422607

> <r_i_glide_erotb>
0.345557510373826

> <r_i_glide_esite>
0

> <r_i_glide_emodel>
-56.5258004216017

> <r_i_glide_energy>
-43.4507780075073

> <r_i_glide_einternal>
2.99436378479004

> <i_i_glide_confnum>
15

> <i_i_glide_posenum>
59

> <r_i_glide_eff_state_penalty>
0

> <s_user_duplicate_titles>
CHEMBL260_lig149,213021

> <s_m_subgroup_title>
dock_pv

> <s_m_subgroupid>
dock_pv

> <b_m_subgroup_collapsed>
1

$$$$
CHEMBL260_lig512
                    3D
 Schrodinger Suite 2021-1.
 54 58  0  0  1  0            999 V2000
   -2.6021    1.0784   21.2746 C   0  0  0  0  0  0
   -2.0351    2.0133   22.1394 N   0  0  0  0  0  0
   -2.6645    3.1009   20.2757 N   0  0  0  0  0  0
   -3.0519    1.8417   20.1762 C   0  0  0  0  0  0
   -2.0354    3.1755   21.4135 C   0  0  0  0  0  0
   -2.5818   -0.4133   21.4691 C   0  0  0  0  0  0
   -2.4962   -0.8953   22.7392 N   0  0  0  0  0  0
   -2.2379   -2.2243   22.8848 C   0  0  0  0  0  0
   -3.8626    1.4445   18.9810 C   0  0  0  0  0  0
   -2.0861   -3.1128   21.8760 N   0  0  0  0  0  0
   -1.4388    1.8242   23.4803 C   0  0  0  0  0  0
   -2.0348   -2.7495   24.1446 O   0  0  0  0  0  0
   -1.9263    3.9505   25.4744 N   0  0  1  0  0  0
   -2.4524   -1.2634   20.3635 C   0  0  0  0  0  0
   -5.1341    0.8912   19.1628 C   0  0  0  0  0  0
   -3.3961    1.6869   17.6791 C   0  0  0  0  0  0
   -1.6603   -1.9488   25.1984 C   0  0  0  0  0  0
   -2.1925   -2.6114   20.6199 C   0  0  0  0  0  0
   -5.4619    0.8869   16.7719 C   0  0  0  0  0  0
   -0.8461   -0.4687   27.4017 C   0  0  0  0  0  0
   -0.3377    2.8261   23.9016 C   0  0  0  0  0  0
   -2.5120    1.7210   24.5827 C   0  0  0  0  0  0
   -4.1859    1.3910   16.5780 C   0  0  0  0  0  0
   -5.9501    0.6480   18.0577 C   0  0  0  0  0  0
   -6.1940    0.5533   15.6909 F   0  0  0  0  0  0
   -2.5629   -1.6917   26.2303 C   0  0  0  0  0  0
   -0.3547   -1.4587   25.2633 C   0  0  0  0  0  0
    0.0523   -0.7117   26.3651 C   0  0  0  0  0  0
   -2.1522   -0.9519   27.3374 C   0  0  0  0  0  0
   -0.4439    0.2479   28.4950 O   0  0  0  0  0  0
   -3.0313    3.0958   25.0382 C   0  0  0  0  0  0
   -0.8721    4.1584   24.4785 C   0  0  0  0  0  0
   -1.4656    4.0176   21.7622 H   0  0  0  0  0  0
   -0.9159    0.8756   23.3761 H   0  0  0  0  0  0
   -2.2502    4.8200   25.8748 H   0  0  0  0  0  0
   -2.4777   -0.8923   19.3500 H   0  0  0  0  0  0
   -5.5070    0.6964   20.1579 H   0  0  0  0  0  0
   -2.4350    2.1327   17.4828 H   0  0  0  0  0  0
   -2.0355   -3.3110   19.8111 H   0  0  0  0  0  0
    0.3225    2.3595   24.6349 H   0  0  0  0  0  0
    0.3529    3.0019   23.0765 H   0  0  0  0  0  0
   -3.3424    1.0935   24.2595 H   0  0  0  0  0  0
   -2.1210    1.1697   25.4357 H   0  0  0  0  0  0
   -3.8185    1.5645   15.5769 H   0  0  0  0  0  0
   -6.9381    0.2307   18.1878 H   0  0  0  0  0  0
   -3.5685   -2.0820   26.1809 H   0  0  0  0  0  0
    0.3464   -1.6751   24.4704 H   0  0  0  0  0  0
    1.0665   -0.3420   26.4166 H   0  0  0  0  0  0
   -2.8374   -0.7603   28.1498 H   0  0  0  0  0  0
    0.4986    0.4367   28.4976 H   0  0  0  0  0  0
   -3.7381    2.9795   25.8615 H   0  0  0  0  0  0
   -3.5609    3.5875   24.2213 H   0  0  0  0  0  0
   -0.0542    4.6871   24.9702 H   0  0  0  0  0  0
   -1.2398    4.8213   23.6975 H   0  0  0  0  0  0
  1  2  1  0  0  0
  1  4  2  0  0  0
  1  6  1  0  0  0
  2  5  1  0  0  0
  2 11  1  0  0  0
  3  4  1  0  0  0
  3  5  2  0  0  0
  4  9  1  0  0  0
  5 33  1  0  0  0
  6  7  1  0  0  0
  6 14  2  0  0  0
  7  8  2  0  0  0
  8 12  1  0  0  0
  8 10  1  0  0  0
  9 15  1  0  0  0
  9 16  2  0  0  0
 10 18  2  0  0  0
 11 21  1  0  0  0
 11 22  1  0  0  0
 11 34  1  0  0  0
 12 17  1  0  0  0
 13 31  1  0  0  0
 13 32  1  0  0  0
 13 35  1  0  0  0
 14 18  1  0  0  0
 14 36  1  0  0  0
 15 24  2  0  0  0
 15 37  1  0  0  0
 16 23  1  0  0  0
 16 38  1  0  0  0
 17 26  2  0  0  0
 17 27  1  0  0  0
 18 39  1  0  0  0
 19 23  2  0  0  0
 19 25  1  0  0  0
 19 24  1  0  0  0
 20 28  1  0  0  0
 20 30  1  0  0  0
 20 29  2  0  0  0
 21 32  1  0  0  0
 21 40  1  0  0  0
 21 41  1  0  0  0
 22 31  1  0  0  0
 22 42  1  0  0  0
 22 43  1  0  0  0
 23 44  1  0  0  0
 24 45  1  0  0  0
 26 29  1  0  0  0
 26 46  1  0  0  0
 27 28  2  0  0  0
 27 47  1  0  0  0
 28 48  1  0  0  0
 29 49  1  0  0  0
 30 50  1  0  0  0
 31 51  1  0  0  0
 31 52  1  0  0  0
 32 53  1  0  0  0
 32 54  1  0  0  0
M  END
> <s_m_entry_id>
60840

> <s_m_entry_name>
dock_pv.117

> <s_m_Source_Path>
/home/csk/Desktop/cluster/DUD-E-result/mk14

> <s_m_Source_File>
dock_pv.maegz

> <i_m_Source_File_Index>
117

> <chembl_id>
CHEMBL14763

> <chembl_pref_name>
None

> <i_lp_mmshare_version>
53161

> <i_f3d_flags>
0

> <r_lp_tautomer_probability>
1

> <s_lp_Force_Field>
OPLS_2005

> <r_lp_Energy>
35.473489

> <b_lp_Chiralities_Consistent>
1

> <s_lp_Variant>
CHEMBL260_lig512-1

> <s_i_glide_gridfile>
glide-grid_2qd9

> <i_i_glide_lignum>
582

> <i_i_glide_rotatable_bonds>
6

> <r_i_docking_score>
-8.71704746467536

> <r_i_glide_ligand_efficiency>
-0.272407733271105

> <r_i_glide_ligand_efficiency_sa>
-0.864840643718546

> <r_i_glide_ligand_efficiency_ln>
-1.95198454508032

> <r_i_glide_gscore>
-8.71704746467536

> <r_i_glide_lipo>
-3.67290205590522

> <r_i_glide_hbond>
-0.508367611981246

> <r_i_glide_metal>
0

> <r_i_glide_rewards>
-2.23224808148157

> <r_i_glide_evdw>
-42.5506439208984

> <r_i_glide_ecoul>
-4.48433446884155

> <r_i_glide_erotb>
0.534221035920535

> <r_i_glide_esite>
-0.0375683848567034

> <r_i_glide_emodel>
-61.6224901441869

> <r_i_glide_energy>
-47.03497838974

> <r_i_glide_einternal>
8.72777652740479

> <i_i_glide_confnum>
147

> <i_i_glide_posenum>
255

> <r_i_glide_eff_state_penalty>
0

> <s_user_duplicate_titles>
CHEMBL260_lig512,13641

> <s_m_subgroup_title>
dock_pv

> <s_m_subgroupid>
dock_pv

> <b_m_subgroup_collapsed>
1

$$$$
CHEMBL260_lig132
                    3D
 Schrodinger Suite 2021-1.
 39 42  0  0  1  0            999 V2000
   -1.5588   -1.3054   23.3803 N   0  0  0  0  0  0
   -1.5873   -2.6269   23.0620 C   0  0  0  0  0  0
   -1.9456   -0.2887   22.4978 C   0  0  0  0  0  0
   -1.2418   -0.9721   24.7245 C   0  0  0  0  0  0
   -2.3263   -0.6492   21.1940 C   0  0  0  0  0  0
   -2.7756    0.2454   20.3087 N   0  0  0  0  0  0
   -1.6573   -2.9492   21.7529 N   0  0  0  0  0  0
   -2.8108    1.5339   20.6828 C   0  0  0  0  0  0
   -2.0023    1.0640   22.8676 C   0  0  0  0  0  0
   -2.2341   -2.0857   20.7284 C   0  0  0  0  0  0
   -3.2420    2.6685   19.4729 S   0  0  0  0  0  0
    0.0781   -0.6555   25.0963 C   0  0  0  0  0  0
   -2.2548   -0.9677   25.6987 C   0  0  0  0  0  0
   -1.6339   -3.5127   23.8753 O   0  0  0  0  0  0
   -2.4346    1.9975   21.9386 C   0  0  0  0  0  0
   -3.9062    1.6884   18.1285 C   0  0  0  0  0  0
   -5.1573    0.6474   15.8761 C   0  0  0  0  0  0
    1.3718   -0.6513   23.9460 Cl  0  0  0  0  0  0
   -3.5323   -1.2703   25.3679 F   0  0  0  0  0  0
   -5.7582    0.1022   14.7942 F   0  0  0  0  0  0
   -3.2344    1.6684   16.9041 C   0  0  0  0  0  0
   -5.1972    1.1751   18.2293 C   0  0  0  0  0  0
   -5.8351    0.6921   17.0912 C   0  0  0  0  0  0
   -3.8555    1.1307   15.7794 C   0  0  0  0  0  0
   -0.6421   -0.3440   27.3877 C   0  0  0  0  0  0
    0.3653   -0.3364   26.4248 C   0  0  0  0  0  0
   -1.9503   -0.6587   27.0240 C   0  0  0  0  0  0
   -1.4898   -3.9113   21.5035 H   0  0  0  0  0  0
   -1.7094    1.4011   23.8511 H   0  0  0  0  0  0
   -1.6051   -2.1453   19.8397 H   0  0  0  0  0  0
   -3.2205   -2.4648   20.4542 H   0  0  0  0  0  0
   -2.4490    3.0487   22.1817 H   0  0  0  0  0  0
   -2.2501    2.1034   16.8094 H   0  0  0  0  0  0
   -5.7286    1.2132   19.1692 H   0  0  0  0  0  0
   -6.8348    0.2965   17.1602 H   0  0  0  0  0  0
   -3.3391    1.1053   14.8311 H   0  0  0  0  0  0
   -0.4050   -0.1097   28.4158 H   0  0  0  0  0  0
    1.3780   -0.0963   26.7174 H   0  0  0  0  0  0
   -2.7296   -0.6678   27.7713 H   0  0  0  0  0  0
  1  2  1  0  0  0
  1  3  1  0  0  0
  1  4  1  0  0  0
  2  7  1  0  0  0
  2 14  2  0  0  0
  3  5  2  0  0  0
  3  9  1  0  0  0
  4 12  1  0  0  0
  4 13  2  0  0  0
  5  6  1  0  0  0
  5 10  1  0  0  0
  6  8  2  0  0  0
  7 10  1  0  0  0
  7 28  1  0  0  0
  8 15  1  0  0  0
  8 11  1  0  0  0
  9 15  2  0  0  0
  9 29  1  0  0  0
 10 30  1  0  0  0
 10 31  1  0  0  0
 11 16  1  0  0  0
 12 18  1  0  0  0
 12 26  2  0  0  0
 13 19  1  0  0  0
 13 27  1  0  0  0
 15 32  1  0  0  0
 16 21  2  0  0  0
 16 22  1  0  0  0
 17 23  1  0  0  0
 17 20  1  0  0  0
 17 24  2  0  0  0
 21 24  1  0  0  0
 21 33  1  0  0  0
 22 23  2  0  0  0
 22 34  1  0  0  0
 23 35  1  0  0  0
 24 36  1  0  0  0
 25 27  2  0  0  0
 25 26  1  0  0  0
 25 37  1  0  0  0
 26 38  1  0  0  0
 27 39  1  0  0  0
M  END
> <s_m_entry_id>
60841

> <s_m_entry_name>
dock_pv.118

> <s_m_Source_Path>
/home/csk/Desktop/cluster/DUD-E-result/mk14

> <s_m_Source_File>
dock_pv.maegz

> <i_m_Source_File_Index>
118

> <chembl_id>
CHEMBL128781

> <chembl_pref_name>
None

> <i_lp_mmshare_version>
53161

> <i_f3d_flags>
0

> <r_lp_tautomer_probability>
1

> <s_lp_Force_Field>
OPLS_2005

> <r_lp_Energy>
40.846058

> <b_lp_Chiralities_Consistent>
1

> <s_lp_Variant>
CHEMBL260_lig132-1

> <s_i_glide_gridfile>
glide-grid_2qd9

> <i_i_glide_lignum>
149

> <i_i_glide_rotatable_bonds>
3

> <r_i_docking_score>
-8.70842779024346

> <r_i_glide_ligand_efficiency>
-0.322534362601609

> <r_i_glide_ligand_efficiency_sa>
-0.967603086741808

> <r_i_glide_ligand_efficiency_ln>
-2.02717841991598

> <r_i_glide_gscore>
-8.70842779024346

> <r_i_glide_lipo>
-3.74598800147829

> <r_i_glide_hbond>
-0.467423193487641

> <r_i_glide_metal>
0

> <r_i_glide_rewards>
-1.78067948450598

> <r_i_glide_evdw>
-33.8069076538086

> <r_i_glide_ecoul>
-9.23488903045654

> <r_i_glide_erotb>
0.361241626487365

> <r_i_glide_esite>
0

> <r_i_glide_emodel>
-57.1278629110644

> <r_i_glide_energy>
-43.0417966842651

> <r_i_glide_einternal>
0.427229523658752

> <i_i_glide_confnum>
15

> <i_i_glide_posenum>
49

> <r_i_glide_eff_state_penalty>
0

> <s_user_duplicate_titles>
CHEMBL260_lig132,213086

> <s_m_subgroup_title>
dock_pv

> <s_m_subgroupid>
dock_pv

> <b_m_subgroup_collapsed>
1

$$$$
CHEMBL260_lig143
                    3D
 Schrodinger Suite 2021-1.
 46 49  0  0  1  0            999 V2000
   -1.8288   -1.2598   23.6393 N   0  0  0  0  0  0
   -1.9058   -2.5508   23.2076 C   0  0  0  0  0  0
   -2.0901   -0.1489   22.8274 C   0  0  0  0  0  0
   -2.2359   -0.3700   21.4538 C   0  0  0  0  0  0
   -1.2786   -1.0242   24.9287 C   0  0  0  0  0  0
   -2.4344    0.6265   20.6007 N   0  0  0  0  0  0
   -2.2491   -2.7680   21.9191 N   0  0  0  0  0  0
   -2.5156    1.8795   21.0718 C   0  0  0  0  0  0
   -2.1823    1.1682   23.3147 C   0  0  0  0  0  0
   -2.1763   -1.7619   20.8701 C   0  0  0  0  0  0
   -2.8350    3.0771   19.8659 S   0  0  0  0  0  0
   -1.6348   -3.5130   23.8760 O   0  0  0  0  0  0
    0.0542   -0.5807   25.0260 C   0  0  0  0  0  0
   -2.0611   -1.1898   26.0921 C   0  0  0  0  0  0
   -2.3854    2.2117   22.4170 C   0  0  0  0  0  0
   -3.6350    2.0870   18.5885 C   0  0  0  0  0  0
   -5.0872    0.8975   16.5323 C   0  0  0  0  0  0
   -5.8037    0.3358   15.5332 F   0  0  0  0  0  0
   -3.1353    2.0869   17.2785 C   0  0  0  0  0  0
   -4.8350    1.4370   18.8722 C   0  0  0  0  0  0
   -5.5831    0.8870   17.8346 C   0  0  0  0  0  0
   -3.8548    1.4796   16.2532 C   0  0  0  0  0  0
    0.7753   -0.4399   23.8500 O   0  0  0  0  0  0
   -0.1995   -0.4557   27.4448 C   0  0  0  0  0  0
    0.5675   -0.2857   26.2972 C   0  0  0  0  0  0
   -1.5083   -0.9102   27.3423 C   0  0  0  0  0  0
   -3.5045   -1.6571   26.0259 C   0  0  0  0  0  0
    2.1268    0.0024   23.8888 C   0  0  0  0  0  0
   -2.3531   -3.7255   21.6209 H   0  0  0  0  0  0
   -2.0772    1.3896   24.3668 H   0  0  0  0  0  0
   -1.2571   -1.8960   20.2973 H   0  0  0  0  0  0
   -3.0125   -1.9225   20.1869 H   0  0  0  0  0  0
   -2.4465    3.2340   22.7563 H   0  0  0  0  0  0
   -2.2083    2.5918   17.0465 H   0  0  0  0  0  0
   -5.2324    1.4353   19.8769 H   0  0  0  0  0  0
   -6.5402    0.4278   18.0376 H   0  0  0  0  0  0
   -3.4772    1.4884   15.2409 H   0  0  0  0  0  0
    0.2247   -0.2341   28.4139 H   0  0  0  0  0  0
    1.5650    0.0849   26.4238 H   0  0  0  0  0  0
   -2.0912   -1.0408   28.2427 H   0  0  0  0  0  0
   -3.5349   -2.7130   25.7720 H   0  0  0  0  0  0
   -4.0349   -1.5130   26.9668 H   0  0  0  0  0  0
   -4.0350   -1.1071   25.2504 H   0  0  0  0  0  0
    2.5070    0.0865   22.8706 H   0  0  0  0  0  0
    2.2205    0.9847   24.3540 H   0  0  0  0  0  0
    2.7595   -0.7130   24.4142 H   0  0  0  0  0  0
  1  2  1  0  0  0
  1  3  1  0  0  0
  1  5  1  0  0  0
  2  7  1  0  0  0
  2 12  2  0  0  0
  3  4  2  0  0  0
  3  9  1  0  0  0
  4  6  1  0  0  0
  4 10  1  0  0  0
  5 13  2  0  0  0
  5 14  1  0  0  0
  6  8  2  0  0  0
  7 10  1  0  0  0
  7 29  1  0  0  0
  8 15  1  0  0  0
  8 11  1  0  0  0
  9 15  2  0  0  0
  9 30  1  0  0  0
 10 31  1  0  0  0
 10 32  1  0  0  0
 11 16  1  0  0  0
 13 23  1  0  0  0
 13 25  1  0  0  0
 14 26  2  0  0  0
 14 27  1  0  0  0
 15 33  1  0  0  0
 16 19  2  0  0  0
 16 20  1  0  0  0
 17 21  1  0  0  0
 17 18  1  0  0  0
 17 22  2  0  0  0
 19 22  1  0  0  0
 19 34  1  0  0  0
 20 21  2  0  0  0
 20 35  1  0  0  0
 21 36  1  0  0  0
 22 37  1  0  0  0
 23 28  1  0  0  0
 24 26  1  0  0  0
 24 25  2  0  0  0
 24 38  1  0  0  0
 25 39  1  0  0  0
 26 40  1  0  0  0
 27 41  1  0  0  0
 27 42  1  0  0  0
 27 43  1  0  0  0
 28 44  1  0  0  0
 28 45  1  0  0  0
 28 46  1  0  0  0
M  END
> <s_m_entry_id>
60842

> <s_m_entry_name>
dock_pv.119

> <s_m_Source_Path>
/home/csk/Desktop/cluster/DUD-E-result/mk14

> <s_m_Source_File>
dock_pv.maegz

> <i_m_Source_File_Index>
119

> <chembl_id>
CHEMBL341364

> <chembl_pref_name>
None

> <i_lp_mmshare_version>
53161

> <i_f3d_flags>
0

> <r_lp_tautomer_probability>
1

> <s_lp_Force_Field>
OPLS_2005

> <r_lp_Energy>
44.425866

> <b_lp_Chiralities_Consistent>
1

> <s_lp_Variant>
CHEMBL260_lig143-1

> <s_i_glide_gridfile>
glide-grid_2qd9

> <i_i_glide_lignum>
160

> <i_i_glide_rotatable_bonds>
4

> <r_i_docking_score>
-8.70784578675127

> <r_i_glide_ligand_efficiency>
-0.310994492383974

> <r_i_glide_ligand_efficiency_sa>
-0.944362444838309

> <r_i_glide_ligand_efficiency_ln>
-2.0100264810442

> <r_i_glide_gscore>
-8.70784578675127

> <r_i_glide_lipo>
-3.25936543150337

> <r_i_glide_hbond>
-0.466837222439436

> <r_i_glide_metal>
0

> <r_i_glide_rewards>
-2.40684870829602

> <r_i_glide_evdw>
-32.1837120056152

> <r_i_glide_ecoul>
-8.93832969665527

> <r_i_glide_erotb>
0.375140630266606

> <r_i_glide_esite>
0

> <r_i_glide_emodel>
-53.4857556749594

> <r_i_glide_energy>
-41.1220417022705

> <r_i_glide_einternal>
1.29860854148865

> <i_i_glide_confnum>
15

> <i_i_glide_posenum>
178

> <r_i_glide_eff_state_penalty>
0

> <s_user_duplicate_titles>
CHEMBL260_lig143,212840

> <s_m_subgroup_title>
dock_pv

> <s_m_subgroupid>
dock_pv

> <b_m_subgroup_collapsed>
1

$$$$
CHEMBL260_lig266
                    3D
 Schrodinger Suite 2021-1.
 41 43  0  0  1  0            999 V2000
   -1.6710   -1.9179   23.7111 C   0  0  0  0  0  0
   -2.1060   -1.0588   22.5574 C   0  0  0  0  0  0
   -2.1642   -1.5268   21.2264 C   0  0  0  0  0  0
   -0.9658   -1.2933   24.8857 C   0  0  0  0  0  0
   -3.2665    1.5617   19.4647 N   0  0  0  0  0  0
   -2.6199   -0.6843   20.2069 C   0  0  0  0  0  0
   -2.4571    0.2747   22.8123 C   0  0  0  0  0  0
   -3.8959    1.3417   18.2257 C   0  0  0  0  0  0
   -2.9363    0.6492   20.4750 C   0  0  0  0  0  0
   -2.0345   -3.0968   23.7745 O   0  0  0  0  0  0
   -5.2238    0.8869   18.1228 C   0  0  0  0  0  0
    0.1387   -0.4125   24.7809 C   0  0  0  0  0  0
   -1.6351   -3.1129   20.7715 Cl  0  0  0  0  0  0
   -2.8338    1.1231   21.7781 C   0  0  0  0  0  0
   -5.9688    0.4872   19.2349 N   0  0  0  0  0  0
   -1.4300   -1.6342   26.1665 C   0  0  0  0  0  0
   -3.2137    1.6872   17.0536 C   0  0  0  0  0  0
    0.7801   -0.0126   23.4579 C   0  0  0  0  0  0
   -5.8312    0.8075   16.8692 C   0  0  0  0  0  0
    0.7183    0.1101   25.9427 C   0  0  0  0  0  0
   -0.8379   -1.1105   27.3130 C   0  0  0  0  0  0
   -3.8198    1.5758   15.8068 C   0  0  0  0  0  0
   -5.1353    1.1394   15.7120 C   0  0  0  0  0  0
    0.2366   -0.2355   27.2013 C   0  0  0  0  0  0
   -2.7100    2.4025   19.5049 H   0  0  0  0  0  0
   -2.6598   -1.0504   19.1915 H   0  0  0  0  0  0
   -2.4189    0.6813   23.8141 H   0  0  0  0  0  0
   -3.0540    2.1525   22.0036 H   0  0  0  0  0  0
   -6.8018   -0.0646   19.0745 H   0  0  0  0  0  0
   -5.4781    0.4351   20.1160 H   0  0  0  0  0  0
   -2.2627   -2.3130   26.2904 H   0  0  0  0  0  0
   -2.2004    2.0563   17.0758 H   0  0  0  0  0  0
    0.3778    0.9395   23.1129 H   0  0  0  0  0  0
    1.8605    0.0987   23.5691 H   0  0  0  0  0  0
    0.6378   -0.7583   22.6781 H   0  0  0  0  0  0
   -6.8348    0.4313   16.7868 H   0  0  0  0  0  0
    1.5632    0.7822   25.8752 H   0  0  0  0  0  0
   -1.2066   -1.3933   28.2887 H   0  0  0  0  0  0
   -3.2668    1.8334   14.9168 H   0  0  0  0  0  0
   -5.6107    1.0457   14.7471 H   0  0  0  0  0  0
    0.7067    0.1659   28.0884 H   0  0  0  0  0  0
  1  2  1  0  0  0
  1  4  1  0  0  0
  1 10  2  0  0  0
  2  3  1  0  0  0
  2  7  2  0  0  0
  3  6  2  0  0  0
  3 13  1  0  0  0
  4 12  2  0  0  0
  4 16  1  0  0  0
  5  9  1  0  0  0
  5  8  1  0  0  0
  5 25  1  0  0  0
  6  9  1  0  0  0
  6 26  1  0  0  0
  7 14  1  0  0  0
  7 27  1  0  0  0
  8 11  2  0  0  0
  8 17  1  0  0  0
  9 14  2  0  0  0
 11 15  1  0  0  0
 11 19  1  0  0  0
 12 18  1  0  0  0
 12 20  1  0  0  0
 14 28  1  0  0  0
 15 29  1  0  0  0
 15 30  1  0  0  0
 16 21  2  0  0  0
 16 31  1  0  0  0
 17 22  2  0  0  0
 17 32  1  0  0  0
 18 33  1  0  0  0
 18 34  1  0  0  0
 18 35  1  0  0  0
 19 23  2  0  0  0
 19 36  1  0  0  0
 20 24  2  0  0  0
 20 37  1  0  0  0
 21 24  1  0  0  0
 21 38  1  0  0  0
 22 23  1  0  0  0
 22 39  1  0  0  0
 23 40  1  0  0  0
 24 41  1  0  0  0
M  END
> <s_m_entry_id>
60843

> <s_m_entry_name>
dock_pv.120

> <s_m_Source_Path>
/home/csk/Desktop/cluster/DUD-E-result/mk14

> <s_m_Source_File>
dock_pv.maegz

> <i_m_Source_File_Index>
120

> <chembl_id>
CHEMBL152767

> <chembl_pref_name>
None

> <i_lp_mmshare_version>
53161

> <i_f3d_flags>
0

> <r_lp_tautomer_probability>
1

> <s_lp_Force_Field>
OPLS_2005

> <r_lp_Energy>
31.110745

> <b_lp_Chiralities_Consistent>
1

> <s_lp_Variant>
CHEMBL260_lig266-1

> <s_i_glide_gridfile>
glide-grid_2qd9

> <i_i_glide_lignum>
317

> <i_i_glide_rotatable_bonds>
4

> <r_i_docking_score>
-8.68631878530511

> <r_i_glide_ligand_efficiency>
-0.361929949387713

> <r_i_glide_ligand_efficiency_sa>
-1.04398662686567

> <r_i_glide_ligand_efficiency_ln>
-2.07903467452015

> <r_i_glide_gscore>
-8.68631878530511

> <r_i_glide_lipo>
-3.92569871158543

> <r_i_glide_hbond>
-0.559572881693955

> <r_i_glide_metal>
0

> <r_i_glide_rewards>
-1.99552240682321

> <r_i_glide_evdw>
-42.6292991638184

> <r_i_glide_ecoul>
-4.93438720703125

> <r_i_glide_erotb>
0.666098254043088

> <r_i_glide_esite>
0

> <r_i_glide_emodel>
-63.3150257112064

> <r_i_glide_energy>
-47.5636863708496

> <r_i_glide_einternal>
15.2414093017578

> <i_i_glide_confnum>
10

> <i_i_glide_posenum>
393

> <r_i_glide_eff_state_penalty>
0

> <s_user_duplicate_titles>
CHEMBL260_lig266,254926

> <s_m_subgroup_title>
dock_pv

> <s_m_subgroupid>
dock_pv

> <b_m_subgroup_collapsed>
1

$$$$
CHEMBL260_lig1798
                    3D
 Schrodinger Suite 2021-1.
 49 52  0  0  1  0            999 V2000
    0.2676    3.7486   24.7728 C   0  0  0  0  0  0
    1.5060    4.2398   24.9354 N   0  0  0  0  0  0
   -0.6700    4.3641   24.2613 O   0  0  0  0  0  0
    1.9694    5.5645   24.5112 C   0  0  0  0  0  0
    2.1969    5.7320   22.9912 C   0  0  0  0  0  0
    0.9797    5.7595   22.2760 O   0  0  0  0  0  0
    0.0571    2.3521   25.2768 C   0  0  0  0  0  0
   -0.7741    0.0863   24.8566 C   0  0  0  0  0  0
   -0.3970    1.3611   24.4032 C   0  0  0  0  0  0
    0.2490    2.0407   26.6225 C   0  0  0  0  0  0
   -0.0811    0.7750   27.0938 C   0  0  0  0  0  0
   -0.6144   -0.1928   26.2351 C   0  0  0  0  0  0
   -1.2855   -0.9257   23.8501 C   0  0  0  0  0  0
   -5.1066    0.8612   15.8528 C   0  0  0  0  0  0
   -3.8115    1.3590   15.8934 C   0  0  0  0  0  0
   -3.2350    1.6872   17.1155 C   0  0  0  0  0  0
   -3.9406    1.4807   18.3115 C   0  0  0  0  0  0
   -5.2464    0.9880   18.2592 C   0  0  0  0  0  0
   -5.8358    0.7144   17.0272 C   0  0  0  0  0  0
   -3.2350    1.9380   19.8763 S   0  0  0  0  0  0
   -2.8307    0.4109   20.6961 C   0  0  0  0  0  0
   -2.9520   -0.8358   20.0766 C   0  0  0  0  0  0
   -2.5919   -2.0143   20.7319 C   0  0  0  0  0  0
   -2.3380    0.4781   21.9957 C   0  0  0  0  0  0
   -1.9086   -0.6664   22.6314 N   0  0  0  0  0  0
   -2.0577   -1.9318   22.0249 C   0  0  0  0  0  0
   -1.6250   -2.8932   22.8659 N   0  0  0  0  0  0
   -1.1287   -2.2344   23.9727 N   0  0  0  0  0  0
   -5.6354    0.4800   14.6754 F   0  0  0  0  0  0
   -5.9638    0.7993   19.3925 F   0  0  0  0  0  0
   -1.0342   -1.5178   26.8510 C   0  0  0  0  0  0
    2.2157    3.6060   25.2775 H   0  0  0  0  0  0
    2.9296    5.7063   25.0054 H   0  0  0  0  0  0
    1.3200    6.3536   24.8951 H   0  0  0  0  0  0
    2.7702    4.8858   22.6110 H   0  0  0  0  0  0
    2.7826    6.6253   22.7750 H   0  0  0  0  0  0
    1.1651    5.6868   21.3263 H   0  0  0  0  0  0
   -0.4243    1.6038   23.3545 H   0  0  0  0  0  0
    0.6203    2.7832   27.3168 H   0  0  0  0  0  0
    0.0610    0.5589   28.1434 H   0  0  0  0  0  0
   -3.2549    1.4857   14.9771 H   0  0  0  0  0  0
   -2.2373    2.0991   17.0812 H   0  0  0  0  0  0
   -6.8348    0.3120   16.9946 H   0  0  0  0  0  0
   -3.3317   -0.9119   19.0761 H   0  0  0  0  0  0
   -2.7053   -2.9740   20.2477 H   0  0  0  0  0  0
   -2.2743    1.4143   22.5257 H   0  0  0  0  0  0
   -1.0081   -1.5058   27.9419 H   0  0  0  0  0  0
   -2.0530   -1.7683   26.5545 H   0  0  0  0  0  0
   -0.3760   -2.3105   26.5017 H   0  0  0  0  0  0
  1  3  2  0  0  0
  1  2  1  0  0  0
  1  7  1  0  0  0
  2  4  1  0  0  0
  2 32  1  0  0  0
  4  5  1  0  0  0
  4 33  1  0  0  0
  4 34  1  0  0  0
  5  6  1  0  0  0
  5 35  1  0  0  0
  5 36  1  0  0  0
  6 37  1  0  0  0
  7  9  1  0  0  0
  7 10  2  0  0  0
  8  9  2  0  0  0
  8 12  1  0  0  0
  8 13  1  0  0  0
  9 38  1  0  0  0
 10 11  1  0  0  0
 10 39  1  0  0  0
 11 12  2  0  0  0
 11 40  1  0  0  0
 12 31  1  0  0  0
 13 25  1  0  0  0
 13 28  2  0  0  0
 14 19  1  0  0  0
 14 29  1  0  0  0
 14 15  2  0  0  0
 15 16  1  0  0  0
 15 41  1  0  0  0
 16 17  2  0  0  0
 16 42  1  0  0  0
 17 18  1  0  0  0
 17 20  1  0  0  0
 18 19  2  0  0  0
 18 30  1  0  0  0
 19 43  1  0  0  0
 20 21  1  0  0  0
 21 22  1  0  0  0
 21 24  2  0  0  0
 22 23  2  0  0  0
 22 44  1  0  0  0
 23 26  1  0  0  0
 23 45  1  0  0  0
 24 25  1  0  0  0
 24 46  1  0  0  0
 25 26  1  0  0  0
 26 27  2  0  0  0
 27 28  1  0  0  0
 31 47  1  0  0  0
 31 48  1  0  0  0
 31 49  1  0  0  0
M  END
> <s_m_entry_id>
60844

> <s_m_entry_name>
dock_pv.121

> <s_m_Source_Path>
/home/csk/Desktop/cluster/DUD-E-result/mk14

> <s_m_Source_File>
dock_pv.maegz

> <i_m_Source_File_Index>
121

> <chembl_id>
CHEMBL607089

> <chembl_pref_name>
None

> <i_lp_mmshare_version>
53161

> <i_f3d_flags>
0

> <r_lp_tautomer_probability>
1

> <s_lp_Force_Field>
OPLS_2005

> <r_lp_Energy>
19.046393

> <b_lp_Chiralities_Consistent>
1

> <s_lp_Variant>
CHEMBL260_lig1798-1

> <s_i_glide_gridfile>
glide-grid_2qd9

> <i_i_glide_lignum>
2096

> <i_i_glide_rotatable_bonds>
8

> <r_i_docking_score>
-8.67051794293338

> <r_i_glide_ligand_efficiency>
-0.279694127191399

> <r_i_glide_ligand_efficiency_sa>
-0.87862571874083

> <r_i_glide_ligand_efficiency_ln>
-1.95546751559473

> <r_i_glide_gscore>
-8.67051794293338

> <r_i_glide_lipo>
-3.09678132358022

> <r_i_glide_hbond>
-0.0549013166259751

> <r_i_glide_metal>
0

> <r_i_glide_rewards>
-2.04532049559557

> <r_i_glide_evdw>
-46.1966667175293

> <r_i_glide_ecoul>
-12.07470703125

> <r_i_glide_erotb>
0.720413854842992

> <r_i_glide_esite>
-0.0728892714106498

> <r_i_glide_emodel>
-87.113629706565

> <r_i_glide_energy>
-58.2713737487793

> <r_i_glide_einternal>
3.71851634979248

> <i_i_glide_confnum>
149

> <i_i_glide_posenum>
371

> <r_i_glide_eff_state_penalty>
0

> <s_user_duplicate_titles>
CHEMBL260_lig1798,593994

> <s_m_subgroup_title>
dock_pv

> <s_m_subgroupid>
dock_pv

> <b_m_subgroup_collapsed>
1

$$$$
CHEMBL260_lig262
                    3D
 Schrodinger Suite 2021-1.
 42 44  0  0  1  0            999 V2000
   -1.6577   -1.9439   23.3876 C   0  0  0  0  0  0
   -2.1247   -1.0579   22.2774 C   0  0  0  0  0  0
   -2.1727   -1.4574   20.9272 C   0  0  0  0  0  0
   -0.8307   -1.3103   24.4579 C   0  0  0  0  0  0
   -4.0676    1.3926   18.1257 C   0  0  0  0  0  0
   -3.5101    1.6684   19.3791 N   0  0  0  0  0  0
   -2.6453   -0.5663   19.9573 C   0  0  0  0  0  0
   -2.4987    0.2507   22.6089 C   0  0  0  0  0  0
   -5.3693    0.8866   18.0099 C   0  0  0  0  0  0
   -3.0246    0.7348   20.3054 C   0  0  0  0  0  0
   -2.0333   -3.1139   23.4778 O   0  0  0  0  0  0
   -5.8809    0.5991   16.7446 C   0  0  0  0  0  0
   -1.2389   -1.2306   25.8087 C   0  0  0  0  0  0
   -3.3323    1.6680   16.9685 C   0  0  0  0  0  0
   -1.6360   -3.0194   20.4043 Cl  0  0  0  0  0  0
   -2.9195    1.1365   21.6302 C   0  0  0  0  0  0
   -5.1230    0.8046   15.6035 C   0  0  0  0  0  0
   -3.8507    1.3615   15.7090 C   0  0  0  0  0  0
   -5.6249    0.4149   14.4141 F   0  0  0  0  0  0
    0.3732   -0.7097   24.0663 C   0  0  0  0  0  0
   -6.2050    0.5240   19.2271 C   0  0  0  0  0  0
   -2.5782   -1.7644   26.3062 C   0  0  0  0  0  0
   -0.4208   -0.5722   26.7329 C   0  0  0  0  0  0
    1.1576   -0.0327   24.9929 C   0  0  0  0  0  0
    0.7639    0.0339   26.3275 C   0  0  0  0  0  0
   -3.8964    2.4857   19.8219 H   0  0  0  0  0  0
   -2.6891   -0.8803   18.9267 H   0  0  0  0  0  0
   -2.4667    0.6040   23.6308 H   0  0  0  0  0  0
   -6.8349    0.1169   16.6440 H   0  0  0  0  0  0
   -2.3531    2.1046   17.0459 H   0  0  0  0  0  0
   -3.2027    2.1286   21.9283 H   0  0  0  0  0  0
   -3.2612    1.5370   14.8212 H   0  0  0  0  0  0
    0.7025   -0.7391   23.0356 H   0  0  0  0  0  0
   -7.1780    0.1177   18.9526 H   0  0  0  0  0  0
   -5.6754   -0.2279   19.8062 H   0  0  0  0  0  0
   -6.3555    1.3839   19.8757 H   0  0  0  0  0  0
   -2.8320   -2.7127   25.8440 H   0  0  0  0  0  0
   -2.5650   -1.9424   27.3835 H   0  0  0  0  0  0
   -3.3771   -1.0586   26.0755 H   0  0  0  0  0  0
   -0.7143   -0.5016   27.7707 H   0  0  0  0  0  0
    2.0736    0.4406   24.6728 H   0  0  0  0  0  0
    1.3805    0.5522   27.0490 H   0  0  0  0  0  0
  1  2  1  0  0  0
  1  4  1  0  0  0
  1 11  2  0  0  0
  2  3  1  0  0  0
  2  8  2  0  0  0
  3  7  2  0  0  0
  3 15  1  0  0  0
  4 13  2  0  0  0
  4 20  1  0  0  0
  5  6  1  0  0  0
  5  9  2  0  0  0
  5 14  1  0  0  0
  6 10  1  0  0  0
  6 26  1  0  0  0
  7 10  1  0  0  0
  7 27  1  0  0  0
  8 16  1  0  0  0
  8 28  1  0  0  0
  9 12  1  0  0  0
  9 21  1  0  0  0
 10 16  2  0  0  0
 12 17  2  0  0  0
 12 29  1  0  0  0
 13 22  1  0  0  0
 13 23  1  0  0  0
 14 18  2  0  0  0
 14 30  1  0  0  0
 16 31  1  0  0  0
 17 18  1  0  0  0
 17 19  1  0  0  0
 18 32  1  0  0  0
 20 24  2  0  0  0
 20 33  1  0  0  0
 21 34  1  0  0  0
 21 35  1  0  0  0
 21 36  1  0  0  0
 22 37  1  0  0  0
 22 38  1  0  0  0
 22 39  1  0  0  0
 23 25  2  0  0  0
 23 40  1  0  0  0
 24 25  1  0  0  0
 24 41  1  0  0  0
 25 42  1  0  0  0
M  END
> <s_m_entry_id>
60845

> <s_m_entry_name>
dock_pv.122

> <s_m_Source_Path>
/home/csk/Desktop/cluster/DUD-E-result/mk14

> <s_m_Source_File>
dock_pv.maegz

> <i_m_Source_File_Index>
122

> <chembl_id>
CHEMBL152208

> <chembl_pref_name>
None

> <i_lp_mmshare_version>
53161

> <i_f3d_flags>
0

> <r_lp_tautomer_probability>
1

> <s_lp_Force_Field>
OPLS_2005

> <r_lp_Energy>
31.902689

> <b_lp_Chiralities_Consistent>
1

> <s_lp_Variant>
CHEMBL260_lig262-1

> <s_i_glide_gridfile>
glide-grid_2qd9

> <i_i_glide_lignum>
313

> <i_i_glide_rotatable_bonds>
4

> <r_i_docking_score>
-8.66322023084368

> <r_i_glide_ligand_efficiency>
-0.346528809233747

> <r_i_glide_ligand_efficiency_sa>
-1.01325638391408

> <r_i_glide_ligand_efficiency_ln>
-2.05344281047056

> <r_i_glide_gscore>
-8.66322023084368

> <r_i_glide_lipo>
-4.4048169547041

> <r_i_glide_hbond>
-0.501742998633632

> <r_i_glide_metal>
0

> <r_i_glide_rewards>
-1.79463266244113

> <r_i_glide_evdw>
-41.3828430175781

> <r_i_glide_ecoul>
-3.3547899723053

> <r_i_glide_erotb>
0.610333031659884

> <r_i_glide_esite>
0

> <r_i_glide_emodel>
-59.7246208229091

> <r_i_glide_energy>
-44.7376329898834

> <r_i_glide_einternal>
13.730770111084

> <i_i_glide_confnum>
4

> <i_i_glide_posenum>
76

> <r_i_glide_eff_state_penalty>
0

> <s_user_duplicate_titles>
CHEMBL260_lig262,254366

> <s_m_subgroup_title>
dock_pv

> <s_m_subgroupid>
dock_pv

> <b_m_subgroup_collapsed>
1

$$$$
CHEMBL260_lig1052
                    3D
 Schrodinger Suite 2021-1.
 47 51  0  0  1  0            999 V2000
   -1.4865   -1.5564   20.8059 C   0  0  0  0  0  0
   -1.5143   -1.0953   22.2161 N   0  0  0  0  0  0
   -1.4615    0.3771   22.4184 C   0  0  0  0  0  0
   -2.7452   -1.0422   20.0547 C   0  0  0  0  0  0
   -3.3149    1.4406   19.4431 N   0  0  0  0  0  0
   -2.8366    0.4568   20.2819 C   0  0  0  0  0  0
   -2.2238    1.1140   21.3309 C   0  0  0  0  0  0
   -2.4351    2.4669   21.0594 C   0  0  0  0  0  0
   -3.0862    2.6693   19.9349 N   0  0  0  0  0  0
   -1.8695   -1.9744   23.1962 C   0  0  0  0  0  0
   -2.2771   -3.1132   22.9547 O   0  0  0  0  0  0
   -3.9254    1.3100   18.1839 C   0  0  0  0  0  0
   -5.2546    0.8872   18.0731 C   0  0  0  0  0  0
   -5.8348    0.7962   16.8069 C   0  0  0  0  0  0
   -5.1163    1.1184   15.6582 C   0  0  0  0  0  0
   -3.8019    1.5577   15.7743 C   0  0  0  0  0  0
   -3.2127    1.6655   17.0295 C   0  0  0  0  0  0
   -6.2038    0.4871   19.4645 Cl  0  0  0  0  0  0
   -1.7388   -1.5693   24.5829 C   0  0  0  0  0  0
   -2.2534   -1.5046   26.8071 N   0  0  0  0  0  0
   -2.5742   -2.0371   25.5823 C   0  0  0  0  0  0
   -1.1460   -0.6934   26.6578 C   0  0  0  0  0  0
   -0.7688   -0.7455   25.2751 C   0  0  0  0  0  0
    0.3912   -0.0550   24.8840 C   0  0  0  0  0  0
    1.0643    0.7338   25.8090 C   0  0  0  0  0  0
    0.6652    0.7829   27.1391 C   0  0  0  0  0  0
   -0.4332    0.0613   27.6010 C   0  0  0  0  0  0
   -2.9412   -1.7850   28.0567 C   0  0  0  0  0  0
   -0.5918   -1.1290   20.3490 H   0  0  0  0  0  0
   -1.3251   -2.6324   20.7141 H   0  0  0  0  0  0
   -0.4352    0.7323   22.4804 H   0  0  0  0  0  0
   -1.8838    0.6788   23.3769 H   0  0  0  0  0  0
   -3.6357   -1.5581   20.4139 H   0  0  0  0  0  0
   -2.6604   -1.2799   18.9979 H   0  0  0  0  0  0
   -2.0803    3.2852   21.6662 H   0  0  0  0  0  0
   -6.8349    0.4215   16.7161 H   0  0  0  0  0  0
   -5.5720    1.0212   14.6815 H   0  0  0  0  0  0
   -3.2359    1.8127   14.8906 H   0  0  0  0  0  0
   -2.1914    2.0152   17.0754 H   0  0  0  0  0  0
   -3.4124   -2.7124   25.5037 H   0  0  0  0  0  0
    0.7701   -0.1260   23.8777 H   0  0  0  0  0  0
    1.9357    1.2926   25.4975 H   0  0  0  0  0  0
    1.2446    1.3759   27.8344 H   0  0  0  0  0  0
   -0.7148    0.0886   28.6435 H   0  0  0  0  0  0
   -3.8301   -2.3908   27.8801 H   0  0  0  0  0  0
   -2.2633   -2.3130   28.7273 H   0  0  0  0  0  0
   -3.2340   -0.8471   28.5266 H   0  0  0  0  0  0
  1  4  1  0  0  0
  1  2  1  0  0  0
  1 29  1  0  0  0
  1 30  1  0  0  0
  2  3  1  0  0  0
  2 10  1  0  0  0
  3  7  1  0  0  0
  3 31  1  0  0  0
  3 32  1  0  0  0
  4  6  1  0  0  0
  4 33  1  0  0  0
  4 34  1  0  0  0
  5  6  1  0  0  0
  5  9  1  0  0  0
  5 12  1  0  0  0
  6  7  2  0  0  0
  7  8  1  0  0  0
  8  9  2  0  0  0
  8 35  1  0  0  0
 10 19  1  0  0  0
 10 11  2  0  0  0
 12 17  1  0  0  0
 12 13  2  0  0  0
 13 14  1  0  0  0
 13 18  1  0  0  0
 14 15  2  0  0  0
 14 36  1  0  0  0
 15 16  1  0  0  0
 15 37  1  0  0  0
 16 17  2  0  0  0
 16 38  1  0  0  0
 17 39  1  0  0  0
 19 23  1  0  0  0
 19 21  2  0  0  0
 20 22  1  0  0  0
 20 21  1  0  0  0
 20 28  1  0  0  0
 21 40  1  0  0  0
 22 23  2  0  0  0
 22 27  1  0  0  0
 23 24  1  0  0  0
 24 25  2  0  0  0
 24 41  1  0  0  0
 25 26  1  0  0  0
 25 42  1  0  0  0
 26 27  2  0  0  0
 26 43  1  0  0  0
 27 44  1  0  0  0
 28 45  1  0  0  0
 28 46  1  0  0  0
 28 47  1  0  0  0
M  END
> <s_m_entry_id>
60846

> <s_m_entry_name>
dock_pv.123

> <s_m_Source_Path>
/home/csk/Desktop/cluster/DUD-E-result/mk14

> <s_m_Source_File>
dock_pv.maegz

> <i_m_Source_File_Index>
123

> <chembl_id>
CHEMBL242697

> <chembl_pref_name>
None

> <i_lp_mmshare_version>
53161

> <i_f3d_flags>
0

> <r_lp_tautomer_probability>
1

> <s_lp_Force_Field>
OPLS_2005

> <r_lp_Energy>
37.851747

> <b_lp_Chiralities_Consistent>
1

> <s_lp_Variant>
CHEMBL260_lig1052-1

> <s_i_glide_gridfile>
glide-grid_2qd9

> <i_i_glide_lignum>
1179

> <i_i_glide_rotatable_bonds>
3

> <r_i_docking_score>
-8.6620848093499

> <r_i_glide_ligand_efficiency>
-0.309360171762496

> <r_i_glide_ligand_efficiency_sa>
-0.939399684868133

> <r_i_glide_ligand_efficiency_ln>
-1.99946350385928

> <r_i_glide_gscore>
-8.6620848093499

> <r_i_glide_lipo>
-3.77872862067487

> <r_i_glide_hbond>
-0.32

> <r_i_glide_metal>
0

> <r_i_glide_rewards>
-1.89998913902695

> <r_i_glide_evdw>
-44.0878944396973

> <r_i_glide_ecoul>
-5.61373329162598

> <r_i_glide_erotb>
0.383087666080683

> <r_i_glide_esite>
0

> <r_i_glide_emodel>
-70.7368716710433

> <r_i_glide_energy>
-49.7016277313232

> <r_i_glide_einternal>
5.77391529083252

> <i_i_glide_confnum>
11

> <i_i_glide_posenum>
116

> <r_i_glide_eff_state_penalty>
0

> <s_user_duplicate_titles>
CHEMBL260_lig1052,386108

> <s_m_subgroup_title>
dock_pv

> <s_m_subgroupid>
dock_pv

> <b_m_subgroup_collapsed>
1

$$$$
CHEMBL260_lig260
                    3D
 Schrodinger Suite 2021-1.
 41 43  0  0  1  0            999 V2000
   -1.7441   -1.9150   23.4454 C   0  0  0  0  0  0
   -0.8807   -1.3415   24.5144 C   0  0  0  0  0  0
   -3.3489    1.6207   19.2869 N   0  0  0  0  0  0
   -3.9681    1.3769   18.0516 C   0  0  0  0  0  0
   -2.2354   -0.9941   22.3677 C   0  0  0  0  0  0
   -2.0352   -3.1129   23.4632 O   0  0  0  0  0  0
   -5.2822    0.8870   17.9376 C   0  0  0  0  0  0
   -1.2823   -1.2462   25.8632 C   0  0  0  0  0  0
   -2.1085    0.3979   22.5043 C   0  0  0  0  0  0
   -2.8302   -1.5141   21.2119 C   0  0  0  0  0  0
   -3.0587    0.7230   20.3203 C   0  0  0  0  0  0
   -6.0350    0.4880   19.0481 N   0  0  0  0  0  0
   -2.5045    1.2471   21.4811 C   0  0  0  0  0  0
   -3.2346   -0.6571   20.1928 C   0  0  0  0  0  0
    0.3529   -0.8069   24.1166 C   0  0  0  0  0  0
   -3.2512    1.6870   16.8909 C   0  0  0  0  0  0
   -2.6265   -1.7666   26.3616 C   0  0  0  0  0  0
   -5.8446    0.7159   16.6725 C   0  0  0  0  0  0
   -0.4394   -0.6090   26.7797 C   0  0  0  0  0  0
    1.1621   -0.1447   25.0293 C   0  0  0  0  0  0
   -3.8126    1.4806   15.6325 C   0  0  0  0  0  0
    0.7651   -0.0445   26.3628 C   0  0  0  0  0  0
   -5.1142    1.0004   15.5231 C   0  0  0  0  0  0
   -2.7350    2.4211   19.2903 H   0  0  0  0  0  0
   -1.6802    0.8473   23.3892 H   0  0  0  0  0  0
   -2.9544   -2.5805   21.0762 H   0  0  0  0  0  0
   -6.8526   -0.0890   18.8923 H   0  0  0  0  0  0
   -5.5647    0.4844   19.9417 H   0  0  0  0  0  0
   -2.3625    2.3119   21.5907 H   0  0  0  0  0  0
   -3.6492   -1.0781   19.2919 H   0  0  0  0  0  0
    0.6785   -0.8625   23.0866 H   0  0  0  0  0  0
   -2.2447    2.0718   16.9530 H   0  0  0  0  0  0
   -3.4181   -1.0520   26.1325 H   0  0  0  0  0  0
   -2.8878   -2.7128   25.8915 H   0  0  0  0  0  0
   -2.6128   -1.9489   27.4374 H   0  0  0  0  0  0
   -6.8349    0.3031   16.5743 H   0  0  0  0  0  0
   -0.7252   -0.5236   27.8185 H   0  0  0  0  0  0
    2.0849    0.2934   24.6782 H   0  0  0  0  0  0
   -3.2359    1.6882   14.7429 H   0  0  0  0  0  0
    1.4003    0.4627   27.0764 H   0  0  0  0  0  0
   -5.5564    0.8321   14.5528 H   0  0  0  0  0  0
  1  2  1  0  0  0
  1  5  1  0  0  0
  1  6  2  0  0  0
  2  8  2  0  0  0
  2 15  1  0  0  0
  3 11  1  0  0  0
  3  4  1  0  0  0
  3 24  1  0  0  0
  4  7  2  0  0  0
  4 16  1  0  0  0
  5  9  1  0  0  0
  5 10  2  0  0  0
  7 12  1  0  0  0
  7 18  1  0  0  0
  8 17  1  0  0  0
  8 19  1  0  0  0
  9 13  2  0  0  0
  9 25  1  0  0  0
 10 14  1  0  0  0
 10 26  1  0  0  0
 11 14  2  0  0  0
 11 13  1  0  0  0
 12 27  1  0  0  0
 12 28  1  0  0  0
 13 29  1  0  0  0
 14 30  1  0  0  0
 15 20  2  0  0  0
 15 31  1  0  0  0
 16 21  2  0  0  0
 16 32  1  0  0  0
 17 33  1  0  0  0
 17 34  1  0  0  0
 17 35  1  0  0  0
 18 23  2  0  0  0
 18 36  1  0  0  0
 19 22  2  0  0  0
 19 37  1  0  0  0
 20 22  1  0  0  0
 20 38  1  0  0  0
 21 23  1  0  0  0
 21 39  1  0  0  0
 22 40  1  0  0  0
 23 41  1  0  0  0
M  END
> <s_m_entry_id>
60847

> <s_m_entry_name>
dock_pv.124

> <s_m_Source_Path>
/home/csk/Desktop/cluster/DUD-E-result/mk14

> <s_m_Source_File>
dock_pv.maegz

> <i_m_Source_File_Index>
124

> <chembl_id>
CHEMBL357732

> <chembl_pref_name>
None

> <i_lp_mmshare_version>
53161

> <i_f3d_flags>
0

> <r_lp_tautomer_probability>
1

> <s_lp_Force_Field>
OPLS_2005

> <r_lp_Energy>
28.433481

> <b_lp_Chiralities_Consistent>
1

> <s_lp_Variant>
CHEMBL260_lig260-1

> <s_i_glide_gridfile>
glide-grid_2qd9

> <i_i_glide_lignum>
311

> <i_i_glide_rotatable_bonds>
4

> <r_i_docking_score>
-8.66009153369377

> <r_i_glide_ligand_efficiency>
-0.376525718856251

> <r_i_glide_ligand_efficiency_sa>
-1.07078905780101

> <r_i_glide_ligand_efficiency_ln>
-2.09408865821568

> <r_i_glide_gscore>
-8.66009153369377

> <r_i_glide_lipo>
-4.04381919970576

> <r_i_glide_hbond>
-0.678079456035127

> <r_i_glide_metal>
0

> <r_i_glide_rewards>
-1.92474647203182

> <r_i_glide_evdw>
-40.8707542419434

> <r_i_glide_ecoul>
-5.16935348510742

> <r_i_glide_erotb>
0.805494328942217

> <r_i_glide_esite>
0

> <r_i_glide_emodel>
-65.0061220180456

> <r_i_glide_energy>
-46.0401077270508

> <r_i_glide_einternal>
9.59801483154297

> <i_i_glide_confnum>
9

> <i_i_glide_posenum>
131

> <r_i_glide_eff_state_penalty>
0

> <s_user_duplicate_titles>
CHEMBL260_lig260,254381

> <s_m_subgroup_title>
dock_pv

> <s_m_subgroupid>
dock_pv

> <b_m_subgroup_collapsed>
1

$$$$
CHEMBL260_lig1819
                    3D
 Schrodinger Suite 2021-1.
 41 43  0  0  1  0            999 V2000
   -1.8107   -1.7098   23.6793 C   0  0  0  0  0  0
   -2.6581    0.4058   20.7924 C   0  0  0  0  0  0
   -2.7814   -0.7230   19.8766 C   0  0  0  0  0  0
   -2.2932   -1.9386   20.1766 C   0  0  0  0  0  0
   -2.1755    0.1466   22.0316 C   0  0  0  0  0  0
   -1.7832   -1.1259   22.4272 N   0  0  0  0  0  0
   -1.5202   -2.1976   21.4644 C   0  0  1  0  0  0
   -2.0271   -3.2947   22.2431 N   0  0  1  0  0  0
   -1.9103   -2.9692   23.5928 N   0  0  0  0  0  0
   -1.7303   -0.8736   24.9638 C   0  0  0  0  0  0
   -1.0807   -1.6717   26.1175 C   0  0  0  0  0  0
   -3.1321   -0.3673   25.3663 C   0  0  0  0  0  0
   -3.1278    1.8052   20.4066 C   0  0  0  0  0  0
   -4.4658    1.8880   19.6376 C   0  0  0  0  0  0
   -4.5025    0.6295   15.4976 C   0  0  0  0  0  0
   -3.3768    1.2730   15.9973 C   0  0  0  0  0  0
   -3.3553    1.6873   17.3252 C   0  0  0  0  0  0
   -4.4607    1.4668   18.1638 C   0  0  0  0  0  0
   -5.6114    0.8870   17.6159 C   0  0  0  0  0  0
   -5.6350    0.4877   16.2831 C   0  0  0  0  0  0
   -4.4827    0.0790   14.2760 F   0  0  0  0  0  0
   -6.6878    0.6306   18.3904 F   0  0  0  0  0  0
   -3.2973   -0.6124   18.9418 H   0  0  0  0  0  0
   -2.4182   -2.7433   19.4667 H   0  0  0  0  0  0
   -2.1115    0.9219   22.7816 H   0  0  0  0  0  0
   -0.4511   -2.3128   21.2784 H   0  0  0  0  0  0
   -3.0209   -3.2805   22.0584 H   0  0  0  0  0  0
   -1.0938   -0.0073   24.7766 H   0  0  0  0  0  0
   -0.0547   -1.9575   25.8766 H   0  0  0  0  0  0
   -1.6326   -2.5875   26.3395 H   0  0  0  0  0  0
   -1.0403   -1.0829   27.0348 H   0  0  0  0  0  0
   -3.5886    0.2471   24.5890 H   0  0  0  0  0  0
   -3.8115   -1.1965   25.5724 H   0  0  0  0  0  0
   -3.0838    0.2427   26.2688 H   0  0  0  0  0  0
   -3.2347    2.3698   21.3295 H   0  0  0  0  0  0
   -2.3477    2.3382   19.8768 H   0  0  0  0  0  0
   -5.2001    1.2965   20.1888 H   0  0  0  0  0  0
   -4.8342    2.9098   19.6630 H   0  0  0  0  0  0
   -2.5098    1.4105   15.3680 H   0  0  0  0  0  0
   -2.4728    2.2006   17.6667 H   0  0  0  0  0  0
   -6.5054   -0.0116   15.8867 H   0  0  0  0  0  0
  1  6  1  0  0  0
  1  9  2  0  0  0
  1 10  1  0  0  0
  2 13  1  0  0  0
  2  3  1  0  0  0
  2  5  2  0  0  0
  3  4  2  0  0  0
  3 23  1  0  0  0
  4  7  1  0  0  0
  4 24  1  0  0  0
  5  6  1  0  0  0
  5 25  1  0  0  0
  6  7  1  0  0  0
  7  8  1  0  0  0
  7 26  1  0  0  0
  8  9  1  0  0  0
  8 27  1  0  0  0
 10 12  1  0  0  0
 10 11  1  0  0  0
 10 28  1  0  0  0
 11 29  1  0  0  0
 11 30  1  0  0  0
 11 31  1  0  0  0
 12 32  1  0  0  0
 12 33  1  0  0  0
 12 34  1  0  0  0
 13 14  1  0  0  0
 13 35  1  0  0  0
 13 36  1  0  0  0
 14 18  1  0  0  0
 14 37  1  0  0  0
 14 38  1  0  0  0
 15 16  2  0  0  0
 15 20  1  0  0  0
 15 21  1  0  0  0
 16 17  1  0  0  0
 16 39  1  0  0  0
 17 18  2  0  0  0
 17 40  1  0  0  0
 18 19  1  0  0  0
 19 20  2  0  0  0
 19 22  1  0  0  0
 20 41  1  0  0  0
M  END
> <s_m_entry_id>
60848

> <s_m_entry_name>
dock_pv.125

> <s_m_Source_Path>
/home/csk/Desktop/cluster/DUD-E-result/mk14

> <s_m_Source_File>
dock_pv.maegz

> <i_m_Source_File_Index>
125

> <chembl_id>
CHEMBL610487

> <chembl_pref_name>
None

> <i_lp_mmshare_version>
53161

> <i_f3d_flags>
0

> <r_lp_tautomer_probability>
1

> <s_lp_Force_Field>
OPLS_2005

> <r_lp_Energy>
23.459234

> <b_lp_Chiralities_Consistent>
1

> <s_lp_Variant>
CHEMBL260_lig1819-1

> <s_i_glide_gridfile>
glide-grid_2qd9

> <i_i_glide_lignum>
2119

> <i_i_glide_rotatable_bonds>
4

> <r_i_docking_score>
-8.65216554253852

> <r_i_glide_ligand_efficiency>
-0.393280251933569

> <r_i_glide_ligand_efficiency_sa>
-1.10198673275249

> <r_i_glide_ligand_efficiency_ln>
-2.11490485400268

> <r_i_glide_gscore>
-8.65216554253852

> <r_i_glide_lipo>
-3.343687905262

> <r_i_glide_hbond>
-0.353116769854327

> <r_i_glide_metal>
0

> <r_i_glide_rewards>
-3.51342255537684

> <r_i_glide_evdw>
-31.0791072845459

> <r_i_glide_ecoul>
-2.84660172462463

> <r_i_glide_erotb>
0.600706202655966

> <r_i_glide_esite>
-0.0616988917803301

> <r_i_glide_emodel>
-49.8658941379661

> <r_i_glide_energy>
-33.9257090091705

> <r_i_glide_einternal>
3.69955611228943

> <i_i_glide_confnum>
17

> <i_i_glide_posenum>
196

> <r_i_glide_eff_state_penalty>
0

> <s_user_duplicate_titles>
CHEMBL260_lig1819,591289

> <s_m_subgroup_title>
dock_pv

> <s_m_subgroupid>
dock_pv

> <b_m_subgroup_collapsed>
1

$$$$
CHEMBL260_lig97
                    3D
 Schrodinger Suite 2021-1.
 45 48  0  0  1  0            999 V2000
   -2.1661   -1.2133   22.3670 N   0  0  0  0  0  0
   -2.3503    0.0797   21.7995 C   0  0  0  0  0  0
   -2.7677    0.2113   20.4644 C   0  0  0  0  0  0
   -2.9276    1.4989   19.8767 C   0  0  0  0  0  0
   -2.1678   -2.3972   21.6826 C   0  0  0  0  0  0
   -2.0369   -1.3158   23.7793 C   0  0  0  0  0  0
   -3.4910    1.6076   18.4610 C   0  0  0  0  0  0
   -2.4273   -2.2964   20.3611 N   0  0  0  0  0  0
   -2.0369    1.2223   22.5328 C   0  0  0  0  0  0
   -2.0366    2.4804   21.9522 C   0  0  0  0  0  0
   -2.4911    2.6184   20.6237 C   0  0  0  0  0  0
   -2.9567   -1.0970   19.6853 C   0  0  0  0  0  0
   -1.3207    3.5357   22.7406 C   0  0  0  0  0  0
   -3.1822   -1.4615   24.5800 C   0  0  0  0  0  0
   -0.7712   -1.2346   24.3923 C   0  0  0  0  0  0
   -2.0002   -3.5133   22.1756 O   0  0  0  0  0  0
   -4.7459    1.0164   18.2090 C   0  0  0  0  0  0
   -2.8410    2.2190   17.3411 C   0  0  0  0  0  0
   -0.4350    4.2631   22.2825 O   0  0  0  0  0  0
   -1.8408    3.6710   23.9847 O   0  0  0  0  0  0
    0.6648   -0.9319   23.4760 Cl  0  0  0  0  0  0
   -4.7601   -1.5073   23.8764 Cl  0  0  0  0  0  0
   -2.0347    3.2868   17.4759 F   0  0  0  0  0  0
   -5.5130    0.5715   19.2330 F   0  0  0  0  0  0
   -4.5103    1.3356   15.8289 C   0  0  0  0  0  0
   -1.8002   -1.5143   26.5635 C   0  0  0  0  0  0
   -3.3191    2.0182   16.0455 C   0  0  0  0  0  0
   -3.0580   -1.5636   25.9659 C   0  0  0  0  0  0
   -5.2490    0.8875   16.9154 C   0  0  0  0  0  0
   -0.6619   -1.3458   25.7785 C   0  0  0  0  0  0
   -1.2567    4.5682   24.9192 C   0  0  0  0  0  0
   -2.4879   -3.1790   19.8691 H   0  0  0  0  0  0
   -1.6662    1.1255   23.5439 H   0  0  0  0  0  0
   -2.4826    3.5910   20.1542 H   0  0  0  0  0  0
   -4.0084   -1.2707   19.4757 H   0  0  0  0  0  0
   -2.4435   -1.0150   18.7259 H   0  0  0  0  0  0
   -4.9011    1.2261   14.8274 H   0  0  0  0  0  0
   -1.7053   -1.5989   27.6370 H   0  0  0  0  0  0
   -2.8305    2.5018   15.2106 H   0  0  0  0  0  0
   -3.9389   -1.6817   26.5801 H   0  0  0  0  0  0
   -6.2116    0.4202   16.7567 H   0  0  0  0  0  0
    0.3094   -1.2900   26.2500 H   0  0  0  0  0  0
   -1.8479    4.5860   25.8343 H   0  0  0  0  0  0
   -0.2448    4.2517   25.1780 H   0  0  0  0  0  0
   -1.2080    5.5849   24.5239 H   0  0  0  0  0  0
  1  2  1  0  0  0
  1  5  1  0  0  0
  1  6  1  0  0  0
  2  3  2  0  0  0
  2  9  1  0  0  0
  3  4  1  0  0  0
  3 12  1  0  0  0
  4  7  1  0  0  0
  4 11  2  0  0  0
  5  8  1  0  0  0
  5 16  2  0  0  0
  6 14  1  0  0  0
  6 15  2  0  0  0
  7 17  2  0  0  0
  7 18  1  0  0  0
  8 12  1  0  0  0
  8 32  1  0  0  0
  9 10  2  0  0  0
  9 33  1  0  0  0
 10 11  1  0  0  0
 10 13  1  0  0  0
 11 34  1  0  0  0
 12 35  1  0  0  0
 12 36  1  0  0  0
 13 19  2  0  0  0
 13 20  1  0  0  0
 14 22  1  0  0  0
 14 28  2  0  0  0
 15 21  1  0  0  0
 15 30  1  0  0  0
 17 24  1  0  0  0
 17 29  1  0  0  0
 18 23  1  0  0  0
 18 27  2  0  0  0
 20 31  1  0  0  0
 25 27  1  0  0  0
 25 29  2  0  0  0
 25 37  1  0  0  0
 26 30  2  0  0  0
 26 28  1  0  0  0
 26 38  1  0  0  0
 27 39  1  0  0  0
 28 40  1  0  0  0
 29 41  1  0  0  0
 30 42  1  0  0  0
 31 43  1  0  0  0
 31 44  1  0  0  0
 31 45  1  0  0  0
M  END
> <s_m_entry_id>
60849

> <s_m_entry_name>
dock_pv.126

> <s_m_Source_Path>
/home/csk/Desktop/cluster/DUD-E-result/mk14

> <s_m_Source_File>
dock_pv.maegz

> <i_m_Source_File_Index>
126

> <chembl_id>
CHEMBL316337

> <chembl_pref_name>
None

> <i_lp_mmshare_version>
53161

> <i_f3d_flags>
0

> <r_lp_tautomer_probability>
1

> <s_lp_Force_Field>
OPLS_2005

> <r_lp_Energy>
50.434046

> <b_lp_Chiralities_Consistent>
1

> <s_lp_Variant>
CHEMBL260_lig97-1

> <s_i_glide_gridfile>
glide-grid_2qd9

> <i_i_glide_lignum>
113

> <i_i_glide_rotatable_bonds>
4

> <r_i_docking_score>
-8.65117536755157

> <r_i_glide_ligand_efficiency>
-0.279070173146825

> <r_i_glide_ligand_efficiency_sa>
-0.876665641579466

> <r_i_glide_ligand_efficiency_ln>
-1.95110517206738

> <r_i_glide_gscore>
-8.65117536755157

> <r_i_glide_lipo>
-3.5301337604157

> <r_i_glide_hbond>
-0.519622966645999

> <r_i_glide_metal>
0

> <r_i_glide_rewards>
-2.27404006843055

> <r_i_glide_evdw>
-26.126974105835

> <r_i_glide_ecoul>
-7.838623046875

> <r_i_glide_erotb>
0.281678046467468

> <r_i_glide_esite>
-0.126914456203794

> <r_i_glide_emodel>
-65.8080871515176

> <r_i_glide_energy>
-33.96559715271

> <r_i_glide_einternal>
27.3664283752441

> <i_i_glide_confnum>
5

> <i_i_glide_posenum>
278

> <r_i_glide_eff_state_penalty>
0

> <s_user_duplicate_titles>
CHEMBL260_lig97,154582

> <s_m_subgroup_title>
dock_pv

> <s_m_subgroupid>
dock_pv

> <b_m_subgroup_collapsed>
1

$$$$
CHEMBL260_lig142
                    3D
 Schrodinger Suite 2021-1.
 45 48  0  0  1  0            999 V2000
   -1.4786   -1.3931   23.2881 N   0  0  0  0  0  0
   -1.6768   -2.7132   23.0294 C   0  0  0  0  0  0
   -1.7887   -0.3893   22.3574 C   0  0  0  0  0  0
   -1.3082   -1.0342   24.6528 C   0  0  0  0  0  0
   -2.0657   -0.7683   21.0325 C   0  0  0  0  0  0
   -2.5331    0.0992   20.1231 N   0  0  0  0  0  0
   -1.6146   -3.0931   21.7322 N   0  0  0  0  0  0
   -4.0389    1.5878   18.0224 C   0  0  0  0  0  0
   -2.7266    1.3716   20.5152 C   0  0  0  0  0  0
   -3.2415    2.4978   19.3232 S   0  0  0  0  0  0
   -1.9488    0.9564   22.7216 C   0  0  0  0  0  0
   -1.8930   -2.2095   20.5978 C   0  0  0  0  0  0
   -2.4366   -0.8917   25.4797 C   0  0  0  0  0  0
   -0.0265   -0.8388   25.1936 C   0  0  0  0  0  0
   -2.0178   -3.5129   23.8759 O   0  0  0  0  0  0
   -5.2606    0.9408   18.2851 C   0  0  0  0  0  0
   -3.5708    1.6845   16.6919 C   0  0  0  0  0  0
   -2.4358    1.8529   21.7855 C   0  0  0  0  0  0
   -4.0288   -1.1131   24.8397 Cl  0  0  0  0  0  0
    1.3950   -1.0087   24.2294 Cl  0  0  0  0  0  0
   -1.0037   -0.3873   27.3603 C   0  0  0  0  0  0
   -5.5668    0.5556   15.9120 C   0  0  0  0  0  0
   -2.2774   -0.5804   26.8295 C   0  0  0  0  0  0
    0.1173   -0.5075   26.5413 C   0  0  0  0  0  0
   -6.0353    0.4870   17.2188 C   0  0  0  0  0  0
   -4.3302    1.1338   15.6610 C   0  0  0  0  0  0
   -2.2912    2.4065   16.2761 C   0  0  0  0  0  0
   -5.8130    0.7796   19.6970 C   0  0  0  0  0  0
   -1.5446   -4.0779   21.5312 H   0  0  0  0  0  0
   -1.7391    1.3095   23.7202 H   0  0  0  0  0  0
   -2.7957   -2.5666   20.0989 H   0  0  0  0  0  0
   -1.0768   -2.2809   19.8773 H   0  0  0  0  0  0
   -2.5643    2.8938   22.0396 H   0  0  0  0  0  0
   -0.8828   -0.1479   28.4069 H   0  0  0  0  0  0
   -6.1557    0.1509   15.1017 H   0  0  0  0  0  0
   -3.1408   -0.4958   27.4699 H   0  0  0  0  0  0
    1.1038   -0.3574   26.9581 H   0  0  0  0  0  0
   -6.9777    0.0026   17.4221 H   0  0  0  0  0  0
   -3.9609    1.1836   14.6532 H   0  0  0  0  0  0
   -1.7881    2.9419   17.0760 H   0  0  0  0  0  0
   -1.5907    1.6979   15.8337 H   0  0  0  0  0  0
   -2.5150    3.1374   15.4984 H   0  0  0  0  0  0
   -5.7820    1.7165   20.2432 H   0  0  0  0  0  0
   -6.8443    0.4307   19.7208 H   0  0  0  0  0  0
   -5.1999    0.0850   20.2631 H   0  0  0  0  0  0
  1  2  1  0  0  0
  1  3  1  0  0  0
  1  4  1  0  0  0
  2  7  1  0  0  0
  2 15  2  0  0  0
  3  5  2  0  0  0
  3 11  1  0  0  0
  4 13  2  0  0  0
  4 14  1  0  0  0
  5  6  1  0  0  0
  5 12  1  0  0  0
  6  9  2  0  0  0
  7 12  1  0  0  0
  7 29  1  0  0  0
  8 10  1  0  0  0
  8 16  2  0  0  0
  8 17  1  0  0  0
  9 18  1  0  0  0
  9 10  1  0  0  0
 11 18  2  0  0  0
 11 30  1  0  0  0
 12 31  1  0  0  0
 12 32  1  0  0  0
 13 19  1  0  0  0
 13 23  1  0  0  0
 14 20  1  0  0  0
 14 24  2  0  0  0
 16 25  1  0  0  0
 16 28  1  0  0  0
 17 26  2  0  0  0
 17 27  1  0  0  0
 18 33  1  0  0  0
 21 24  1  0  0  0
 21 23  2  0  0  0
 21 34  1  0  0  0
 22 26  1  0  0  0
 22 25  2  0  0  0
 22 35  1  0  0  0
 23 36  1  0  0  0
 24 37  1  0  0  0
 25 38  1  0  0  0
 26 39  1  0  0  0
 27 40  1  0  0  0
 27 41  1  0  0  0
 27 42  1  0  0  0
 28 43  1  0  0  0
 28 44  1  0  0  0
 28 45  1  0  0  0
M  END
> <s_m_entry_id>
60850

> <s_m_entry_name>
dock_pv.127

> <s_m_Source_Path>
/home/csk/Desktop/cluster/DUD-E-result/mk14

> <s_m_Source_File>
dock_pv.maegz

> <i_m_Source_File_Index>
127

> <chembl_id>
CHEMBL129174

> <chembl_pref_name>
None

> <i_lp_mmshare_version>
53161

> <i_f3d_flags>
0

> <r_lp_tautomer_probability>
1

> <s_lp_Force_Field>
OPLS_2005

> <r_lp_Energy>
42.796212

> <b_lp_Chiralities_Consistent>
1

> <s_lp_Variant>
CHEMBL260_lig142-1

> <s_i_glide_gridfile>
glide-grid_2qd9

> <i_i_glide_lignum>
159

> <i_i_glide_rotatable_bonds>
3

> <r_i_docking_score>
-8.62664595346021

> <r_i_glide_ligand_efficiency>
-0.308094498337865

> <r_i_glide_ligand_efficiency_sa>
-0.935556354909169

> <r_i_glide_ligand_efficiency_ln>
-1.99128317538992

> <r_i_glide_gscore>
-8.62664595346021

> <r_i_glide_lipo>
-4.33358960730773

> <r_i_glide_hbond>
-0.499884692686038

> <r_i_glide_metal>
0

> <r_i_glide_rewards>
-1.09750653927249

> <r_i_glide_evdw>
-34.8958930969238

> <r_i_glide_ecoul>
-8.48603057861328

> <r_i_glide_erotb>
0.322034127444237

> <r_i_glide_esite>
0

> <r_i_glide_emodel>
-43.7948902654543

> <r_i_glide_energy>
-43.3819236755371

> <r_i_glide_einternal>
4.42440748214722

> <i_i_glide_confnum>
3

> <i_i_glide_posenum>
190

> <r_i_glide_eff_state_penalty>
0

> <s_user_duplicate_titles>
CHEMBL260_lig142,213267

> <s_m_subgroup_title>
dock_pv

> <s_m_subgroupid>
dock_pv

> <b_m_subgroup_collapsed>
1

$$$$
CHEMBL260_lig675
                    3D
 Schrodinger Suite 2021-1.
 41 44  0  0  1  0            999 V2000
   -2.1531   -1.5150   27.0505 C   0  0  0  0  0  0
   -0.8769   -1.0111   27.2933 C   0  0  0  0  0  0
   -0.0184   -0.7125   26.2376 C   0  0  0  0  0  0
   -0.4406   -0.9155   24.9266 C   0  0  0  0  0  0
   -1.7166   -1.4273   24.6789 C   0  0  0  0  0  0
   -2.5698   -1.7382   25.7399 C   0  0  0  0  0  0
   -2.1843   -1.5592   23.2779 C   0  0  0  0  0  0
   -2.4344   -2.7129   22.7060 N   0  0  0  0  0  0
   -2.8349   -2.4527   21.4457 N   0  0  0  0  0  0
   -2.4339   -0.4792   22.3808 C   0  0  0  0  0  0
   -2.8849   -1.0951   21.1908 C   0  0  0  0  0  0
   -3.2690   -0.3531   20.0694 C   0  0  0  0  0  0
   -3.1819    1.0434   20.1641 C   0  0  0  0  0  0
   -2.7111    1.6580   21.3229 C   0  0  0  0  0  0
   -2.3424    0.9179   22.4439 C   0  0  0  0  0  0
   -3.4787    1.8711   19.0738 N   0  0  0  0  0  0
   -4.0417    1.4837   17.8507 C   0  0  0  0  0  0
   -5.3032    0.8870   17.8392 C   0  0  0  0  0  0
   -5.8731    0.4871   16.6357 C   0  0  0  0  0  0
   -5.1697    0.6237   15.4477 C   0  0  0  0  0  0
   -3.9202    1.2345   15.4576 C   0  0  0  0  0  0
   -3.3654    1.7313   16.6429 C   0  0  0  0  0  0
   -2.2058    2.4873   16.6757 O   0  0  0  0  0  0
   -1.4574    2.7076   15.4836 C   0  0  0  0  0  0
   -2.8099   -1.7448   27.8775 H   0  0  0  0  0  0
   -0.5470   -0.8536   28.3104 H   0  0  0  0  0  0
    0.9698   -0.3219   26.4370 H   0  0  0  0  0  0
    0.2185   -0.6697   24.1052 H   0  0  0  0  0  0
   -3.5625   -2.1207   25.5487 H   0  0  0  0  0  0
   -3.0753   -3.2100   20.8154 H   0  0  0  0  0  0
   -3.5903   -0.8342   19.1578 H   0  0  0  0  0  0
   -2.6237    2.7334   21.3585 H   0  0  0  0  0  0
   -1.9886    1.4065   23.3401 H   0  0  0  0  0  0
   -2.7818    2.5923   18.9603 H   0  0  0  0  0  0
   -5.8399    0.7252   18.7631 H   0  0  0  0  0  0
   -6.8347   -0.0005   16.6371 H   0  0  0  0  0  0
   -5.5926    0.2604   14.5221 H   0  0  0  0  0  0
   -3.3958    1.3240   14.5224 H   0  0  0  0  0  0
   -0.5908    3.3256   15.7165 H   0  0  0  0  0  0
   -1.0835    1.7678   15.0761 H   0  0  0  0  0  0
   -2.0355    3.2320   14.7229 H   0  0  0  0  0  0
  1  6  1  0  0  0
  1  2  2  0  0  0
  1 25  1  0  0  0
  2  3  1  0  0  0
  2 26  1  0  0  0
  3  4  2  0  0  0
  3 27  1  0  0  0
  4  5  1  0  0  0
  4 28  1  0  0  0
  5  6  2  0  0  0
  5  7  1  0  0  0
  6 29  1  0  0  0
  7  8  2  0  0  0
  7 10  1  0  0  0
  8  9  1  0  0  0
  9 11  1  0  0  0
  9 30  1  0  0  0
 10 15  1  0  0  0
 10 11  2  0  0  0
 11 12  1  0  0  0
 12 13  2  0  0  0
 12 31  1  0  0  0
 13 14  1  0  0  0
 13 16  1  0  0  0
 14 15  2  0  0  0
 14 32  1  0  0  0
 15 33  1  0  0  0
 16 17  1  0  0  0
 16 34  1  0  0  0
 17 18  2  0  0  0
 17 22  1  0  0  0
 18 19  1  0  0  0
 18 35  1  0  0  0
 19 20  2  0  0  0
 19 36  1  0  0  0
 20 21  1  0  0  0
 20 37  1  0  0  0
 21 22  2  0  0  0
 21 38  1  0  0  0
 22 23  1  0  0  0
 23 24  1  0  0  0
 24 39  1  0  0  0
 24 40  1  0  0  0
 24 41  1  0  0  0
M  END
> <s_m_entry_id>
60851

> <s_m_entry_name>
dock_pv.128

> <s_m_Source_Path>
/home/csk/Desktop/cluster/DUD-E-result/mk14

> <s_m_Source_File>
dock_pv.maegz

> <i_m_Source_File_Index>
128

> <chembl_id>
CHEMBL254443

> <chembl_pref_name>
None

> <i_lp_mmshare_version>
53161

> <i_f3d_flags>
0

> <r_lp_tautomer_probability>
1

> <s_lp_Force_Field>
OPLS_2005

> <r_lp_Energy>
25.12283

> <b_lp_Chiralities_Consistent>
1

> <s_lp_Variant>
CHEMBL260_lig675-1

> <s_i_glide_gridfile>
glide-grid_2qd9

> <i_i_glide_lignum>
761

> <i_i_glide_rotatable_bonds>
4

> <r_i_docking_score>
-8.60881440208055

> <r_i_glide_ligand_efficiency>
-0.35870060008669

> <r_i_glide_ligand_efficiency_sa>
-1.03467157159199

> <r_i_glide_ligand_efficiency_ln>
-2.06048431917011

> <r_i_glide_gscore>
-8.60881440208055

> <r_i_glide_lipo>
-4.19624896023166

> <r_i_glide_hbond>
-0.242532081647786

> <r_i_glide_metal>
0

> <r_i_glide_rewards>
-2.12095587911221

> <r_i_glide_evdw>
-38.841609954834

> <r_i_glide_ecoul>
-4.45393896102905

> <r_i_glide_erotb>
0.561093860807163

> <r_i_glide_esite>
0

> <r_i_glide_emodel>
-58.0106087577998

> <r_i_glide_energy>
-43.295548915863

> <r_i_glide_einternal>
12.1780710220337

> <i_i_glide_confnum>
11

> <i_i_glide_posenum>
16

> <r_i_glide_eff_state_penalty>
0

> <s_user_duplicate_titles>
CHEMBL260_lig675,419206

> <s_m_subgroup_title>
dock_pv

> <s_m_subgroupid>
dock_pv

> <b_m_subgroup_collapsed>
1

$$$$
CHEMBL260_lig501
                    3D
 Schrodinger Suite 2021-1.
 59 63  0  0  1  0            999 V2000
   -2.7470    1.2187   21.0810 C   0  0  0  0  0  0
   -2.1150    2.1450   21.9093 N   0  0  0  0  0  0
   -2.7536    3.2193   20.0427 N   0  0  0  0  0  0
   -3.1822    1.9697   19.9751 C   0  0  0  0  0  0
   -2.0621    3.2845   21.1455 C   0  0  0  0  0  0
   -2.7657   -0.2708   21.2802 C   0  0  0  0  0  0
   -2.6692   -0.7598   22.5441 N   0  0  0  0  0  0
   -2.4222   -2.0938   22.6790 C   0  0  0  0  0  0
   -1.2233   -1.8265   24.7080 C   0  0  0  0  0  0
   -2.0848   -2.5736   23.9291 O   0  0  0  0  0  0
   -3.9592    1.5272   18.7807 C   0  0  0  0  0  0
   -2.3140   -2.9850   21.6665 N   0  0  0  0  0  0
   -1.4761    1.9421   23.2271 C   0  0  0  0  0  0
   -1.5525   -1.4810   26.0268 C   0  0  0  0  0  0
   -0.0164   -1.3759   24.1603 C   0  0  0  0  0  0
   -1.8927    4.0401   25.2669 N   0  0  1  0  0  0
   -2.6669   -1.1165   20.1711 C   0  0  0  0  0  0
   -5.2351    0.9780   18.9197 C   0  0  0  0  0  0
   -3.4100    1.6870   17.5044 C   0  0  0  0  0  0
   -0.6719   -0.6907   26.7730 C   0  0  0  0  0  0
   -2.4364   -2.4686   20.4163 C   0  0  0  0  0  0
    0.8333   -0.5468   24.8860 C   0  0  0  0  0  0
   -5.4246    0.8612   16.5168 C   0  0  0  0  0  0
   -0.3604    2.9392   23.6223 C   0  0  0  0  0  0
   -2.5081    1.8232   24.3687 C   0  0  0  0  0  0
    0.5069   -0.2114   26.2010 C   0  0  0  0  0  0
   -4.1344    1.3460   16.3723 C   0  0  0  0  0  0
   -5.9912    0.6956   17.7816 C   0  0  0  0  0  0
   -6.0988    0.4846   15.4140 F   0  0  0  0  0  0
   -3.0126    3.1898   24.8611 C   0  0  0  0  0  0
   -0.8749    4.2610   24.2365 C   0  0  0  0  0  0
   -2.8636   -1.9190   26.6566 C   0  0  0  0  0  0
    2.0728    0.0173   24.2197 C   0  0  0  0  0  0
   -1.4122    4.0868   21.4409 H   0  0  0  0  0  0
   -0.9654    0.9922   23.0866 H   0  0  0  0  0  0
    0.2351   -1.6332   23.1423 H   0  0  0  0  0  0
   -2.2001    4.9031   25.6927 H   0  0  0  0  0  0
   -2.6957   -0.7474   19.1577 H   0  0  0  0  0  0
   -5.6631    0.8302   19.9002 H   0  0  0  0  0  0
   -2.4350    2.1209   17.3783 H   0  0  0  0  0  0
   -0.9130   -0.4206   27.7913 H   0  0  0  0  0  0
   -2.3329   -3.1578   19.5906 H   0  0  0  0  0  0
    0.3259    2.4638   24.3244 H   0  0  0  0  0  0
    0.2994    3.1344   22.7756 H   0  0  0  0  0  0
   -3.3547    1.2073   24.0680 H   0  0  0  0  0  0
   -2.0892    1.2534   25.1978 H   0  0  0  0  0  0
    1.1640    0.4232   26.7795 H   0  0  0  0  0  0
   -3.7061    1.4674   15.3875 H   0  0  0  0  0  0
   -6.9884    0.2909   17.8773 H   0  0  0  0  0  0
   -3.6883    3.0607   25.7077 H   0  0  0  0  0  0
   -3.5735    3.6881   24.0701 H   0  0  0  0  0  0
   -0.0400    4.7851   24.7039 H   0  0  0  0  0  0
   -1.2699    4.9289   23.4754 H   0  0  0  0  0  0
   -3.5460   -1.0745   26.7421 H   0  0  0  0  0  0
   -3.3498   -2.7109   26.0872 H   0  0  0  0  0  0
   -2.6853   -2.3094   27.6602 H   0  0  0  0  0  0
    1.8802    0.2284   23.1671 H   0  0  0  0  0  0
    2.3650    0.9665   24.6709 H   0  0  0  0  0  0
    2.9025   -0.6883   24.2753 H   0  0  0  0  0  0
  1  2  1  0  0  0
  1  4  2  0  0  0
  1  6  1  0  0  0
  2  5  1  0  0  0
  2 13  1  0  0  0
  3  4  1  0  0  0
  3  5  2  0  0  0
  4 11  1  0  0  0
  5 34  1  0  0  0
  6  7  1  0  0  0
  6 17  2  0  0  0
  7  8  2  0  0  0
  8 10  1  0  0  0
  8 12  1  0  0  0
  9 10  1  0  0  0
  9 14  1  0  0  0
  9 15  2  0  0  0
 11 18  2  0  0  0
 11 19  1  0  0  0
 12 21  2  0  0  0
 13 24  1  0  0  0
 13 25  1  0  0  0
 13 35  1  0  0  0
 14 20  2  0  0  0
 14 32  1  0  0  0
 15 22  1  0  0  0
 15 36  1  0  0  0
 16 30  1  0  0  0
 16 31  1  0  0  0
 16 37  1  0  0  0
 17 21  1  0  0  0
 17 38  1  0  0  0
 18 28  1  0  0  0
 18 39  1  0  0  0
 19 27  2  0  0  0
 19 40  1  0  0  0
 20 26  1  0  0  0
 20 41  1  0  0  0
 21 42  1  0  0  0
 22 26  2  0  0  0
 22 33  1  0  0  0
 23 27  1  0  0  0
 23 29  1  0  0  0
 23 28  2  0  0  0
 24 31  1  0  0  0
 24 43  1  0  0  0
 24 44  1  0  0  0
 25 30  1  0  0  0
 25 45  1  0  0  0
 25 46  1  0  0  0
 26 47  1  0  0  0
 27 48  1  0  0  0
 28 49  1  0  0  0
 30 50  1  0  0  0
 30 51  1  0  0  0
 31 52  1  0  0  0
 31 53  1  0  0  0
 32 54  1  0  0  0
 32 55  1  0  0  0
 32 56  1  0  0  0
 33 57  1  0  0  0
 33 58  1  0  0  0
 33 59  1  0  0  0
M  END
> <s_m_entry_id>
60852

> <s_m_entry_name>
dock_pv.129

> <s_m_Source_Path>
/home/csk/Desktop/cluster/DUD-E-result/mk14

> <s_m_Source_File>
dock_pv.maegz

> <i_m_Source_File_Index>
129

> <chembl_id>
CHEMBL276576

> <chembl_pref_name>
None

> <i_lp_mmshare_version>
53161

> <i_f3d_flags>
0

> <r_lp_tautomer_probability>
1

> <s_lp_Force_Field>
OPLS_2005

> <r_lp_Energy>
34.725315

> <b_lp_Chiralities_Consistent>
1

> <s_lp_Variant>
CHEMBL260_lig501-1

> <s_i_glide_gridfile>
glide-grid_2qd9

> <i_i_glide_lignum>
571

> <i_i_glide_rotatable_bonds>
5

> <r_i_docking_score>
-8.60139128752883

> <r_i_glide_ligand_efficiency>
-0.260648220834207

> <r_i_glide_ligand_efficiency_sa>
-0.836038115403648

> <r_i_glide_ligand_efficiency_ln>
-1.91290488672582

> <r_i_glide_gscore>
-8.60139128752883

> <r_i_glide_lipo>
-4.0826551041097

> <r_i_glide_hbond>
-0.164010888930229

> <r_i_glide_metal>
0

> <r_i_glide_rewards>
-2.11467127631975

> <r_i_glide_evdw>
-43.4173545837402

> <r_i_glide_ecoul>
-3.5642204284668

> <r_i_glide_erotb>
0.508176484982537

> <r_i_glide_esite>
-0.0427297096946565

> <r_i_glide_emodel>
-53.0148043620869

> <r_i_glide_energy>
-46.981575012207

> <r_i_glide_einternal>
8.96509075164795

> <i_i_glide_confnum>
200

> <i_i_glide_posenum>
107

> <r_i_glide_eff_state_penalty>
0

> <s_user_duplicate_titles>
CHEMBL260_lig501,13763

> <s_m_subgroup_title>
dock_pv

> <s_m_subgroupid>
dock_pv

> <b_m_subgroup_collapsed>
1

$$$$
CHEMBL260_lig950
                    3D
 Schrodinger Suite 2021-1.
 36 38  0  0  1  0            999 V2000
   -1.9156   -2.2821   21.7208 C   0  0  0  0  0  0
   -2.0371   -2.2775   20.2760 C   0  0  0  0  0  0
   -2.4270   -1.1821   19.5819 C   0  0  0  0  0  0
   -2.7270    0.0555   20.2528 C   0  0  0  0  0  0
   -2.5374    0.1304   21.5230 N   0  0  0  0  0  0
   -2.0787   -1.0038   22.2271 N   0  0  0  0  0  0
   -1.9106   -0.8104   23.6061 C   0  0  0  0  0  0
   -0.6172   -0.6418   24.1213 C   0  0  0  0  0  0
   -0.4210   -0.5395   25.4980 C   0  0  0  0  0  0
   -1.5117   -0.6058   26.3644 C   0  0  0  0  0  0
   -2.8004   -0.7711   25.8551 C   0  0  0  0  0  0
   -3.0084   -0.8740   24.4781 C   0  0  0  0  0  0
   -4.6140   -1.1130   23.8760 Cl  0  0  0  0  0  0
   -1.7302   -3.3196   22.3661 O   0  0  0  0  0  0
   -3.2350    1.1434   19.5582 N   0  0  0  0  0  0
   -3.8378    1.1101   18.2846 C   0  0  0  0  0  0
   -5.2193    0.9049   18.1744 C   0  0  0  0  0  0
   -5.8007    0.8870   16.9073 C   0  0  0  0  0  0
   -5.0588    1.0778   15.7503 C   0  0  0  0  0  0
   -3.6952    1.2927   15.8517 C   0  0  0  0  0  0
   -3.0940    1.3055   17.1047 C   0  0  0  0  0  0
   -6.1011    0.6721   19.3944 C   0  0  0  0  0  0
   -1.7981   -3.1944   19.7570 H   0  0  0  0  0  0
   -2.4350   -1.2395   18.5090 H   0  0  0  0  0  0
    0.2387   -0.6072   23.4613 H   0  0  0  0  0  0
    0.5777   -0.4189   25.8939 H   0  0  0  0  0  0
   -1.3562   -0.5348   27.4312 H   0  0  0  0  0  0
   -3.6350   -0.8322   26.5354 H   0  0  0  0  0  0
   -3.6788    1.8017   20.1770 H   0  0  0  0  0  0
   -6.8350    0.6748   16.8096 H   0  0  0  0  0  0
   -5.5370    1.0459   14.7824 H   0  0  0  0  0  0
   -3.1021    1.4425   14.9615 H   0  0  0  0  0  0
   -2.0350    1.4736   17.0922 H   0  0  0  0  0  0
   -6.3762    1.6075   19.8760 H   0  0  0  0  0  0
   -7.0001    0.1155   19.1337 H   0  0  0  0  0  0
   -5.5737    0.0870   20.1395 H   0  0  0  0  0  0
  1  6  1  0  0  0
  1  2  1  0  0  0
  1 14  2  0  0  0
  2  3  2  0  0  0
  2 23  1  0  0  0
  3  4  1  0  0  0
  3 24  1  0  0  0
  4 15  1  0  0  0
  4  5  2  0  0  0
  5  6  1  0  0  0
  6  7  1  0  0  0
  7 12  1  0  0  0
  7  8  2  0  0  0
  8  9  1  0  0  0
  8 25  1  0  0  0
  9 10  2  0  0  0
  9 26  1  0  0  0
 10 11  1  0  0  0
 10 27  1  0  0  0
 11 12  2  0  0  0
 11 28  1  0  0  0
 12 13  1  0  0  0
 15 16  1  0  0  0
 15 29  1  0  0  0
 16 17  2  0  0  0
 16 21  1  0  0  0
 17 18  1  0  0  0
 17 22  1  0  0  0
 18 19  2  0  0  0
 18 30  1  0  0  0
 19 20  1  0  0  0
 19 31  1  0  0  0
 20 21  2  0  0  0
 20 32  1  0  0  0
 21 33  1  0  0  0
 22 34  1  0  0  0
 22 35  1  0  0  0
 22 36  1  0  0  0
M  END
> <s_m_entry_id>
60853

> <s_m_entry_name>
dock_pv.130

> <s_m_Source_Path>
/home/csk/Desktop/cluster/DUD-E-result/mk14

> <s_m_Source_File>
dock_pv.maegz

> <i_m_Source_File_Index>
130

> <chembl_id>
CHEMBL221791

> <chembl_pref_name>
None

> <i_lp_mmshare_version>
53161

> <i_f3d_flags>
0

> <r_lp_tautomer_probability>
0.999999999999446

> <s_lp_Force_Field>
OPLS_2005

> <r_lp_Energy>
38.886246

> <b_lp_Chiralities_Consistent>
1

> <s_lp_Variant>
CHEMBL260_lig950-1

> <s_i_glide_gridfile>
glide-grid_2qd9

> <i_i_glide_lignum>
1053

> <i_i_glide_rotatable_bonds>
3

> <r_i_docking_score>
-8.58576498435518

> <r_i_glide_ligand_efficiency>
-0.390262044743417

> <r_i_glide_ligand_efficiency_sa>
-1.09352959750633

> <r_i_glide_ligand_efficiency_ln>
-2.09867413556346

> <r_i_glide_gscore>
-8.58576498435518

> <r_i_glide_lipo>
-3.84694769667345

> <r_i_glide_hbond>
-0.32

> <r_i_glide_metal>
0

> <r_i_glide_rewards>
-2.18841405145561

> <r_i_glide_evdw>
-37.6261367797852

> <r_i_glide_ecoul>
-6.14427852630615

> <r_i_glide_erotb>
0.572545381709056

> <r_i_glide_esite>
0

> <r_i_glide_emodel>
-59.8171581853769

> <r_i_glide_energy>
-43.7704153060913

> <r_i_glide_einternal>
10.4856424331665

> <i_i_glide_confnum>
31

> <i_i_glide_posenum>
360

> <r_i_glide_eff_state_penalty>
0

> <s_user_duplicate_titles>
CHEMBL260_lig950,368273

> <s_m_subgroup_title>
dock_pv

> <s_m_subgroupid>
dock_pv

> <b_m_subgroup_collapsed>
1

$$$$
CHEMBL260_lig1053
                    3D
 Schrodinger Suite 2021-1.
 44 48  0  0  1  0            999 V2000
   -1.5450   -1.5500   20.9076 C   0  0  0  0  0  0
   -1.5631   -1.0500   22.3066 N   0  0  0  0  0  0
   -1.5152    0.4247   22.4805 C   0  0  0  0  0  0
   -2.7855   -1.0272   20.1296 C   0  0  0  0  0  0
   -3.3071    1.4520   19.4569 N   0  0  0  0  0  0
   -2.8567    0.4766   20.3218 C   0  0  0  0  0  0
   -2.2501    1.1469   21.3664 C   0  0  0  0  0  0
   -2.4351    2.4966   21.0655 C   0  0  0  0  0  0
   -3.0660    2.6862   19.9287 N   0  0  0  0  0  0
   -1.7580   -1.9267   23.3335 C   0  0  0  0  0  0
   -2.0350   -3.1151   23.1524 O   0  0  0  0  0  0
   -3.9160    1.3127   18.1967 C   0  0  0  0  0  0
   -5.2447    0.8871   18.0864 C   0  0  0  0  0  0
   -5.8314    0.8037   16.8246 C   0  0  0  0  0  0
   -5.1166    1.1233   15.6750 C   0  0  0  0  0  0
   -3.7999    1.5556   15.7844 C   0  0  0  0  0  0
   -3.2055    1.6614   17.0379 C   0  0  0  0  0  0
   -6.1954    0.4877   19.4745 Cl  0  0  0  0  0  0
   -1.6194   -1.4566   24.6985 C   0  0  0  0  0  0
   -2.0947   -1.3010   26.9133 N   0  0  0  0  0  0
   -2.4233   -1.9127   25.7323 C   0  0  0  0  0  0
   -1.0263   -0.4596   26.7172 C   0  0  0  0  0  0
   -0.6656   -0.5662   25.3350 C   0  0  0  0  0  0
    0.4654    0.1493   24.8986 C   0  0  0  0  0  0
    1.1214    1.0026   25.7811 C   0  0  0  0  0  0
    0.7344    1.0945   27.1133 C   0  0  0  0  0  0
   -0.3364    0.3587   27.6188 C   0  0  0  0  0  0
   -0.6403   -1.1543   20.4441 H   0  0  0  0  0  0
   -1.4239   -2.6330   20.8401 H   0  0  0  0  0  0
   -0.4814    0.7667   22.5090 H   0  0  0  0  0  0
   -1.9167    0.7520   23.4401 H   0  0  0  0  0  0
   -3.6850   -1.5171   20.4969 H   0  0  0  0  0  0
   -2.7066   -1.2931   19.0759 H   0  0  0  0  0  0
   -2.0715    3.3196   21.6603 H   0  0  0  0  0  0
   -6.8349    0.4360   16.7369 H   0  0  0  0  0  0
   -5.5806    1.0291   14.7040 H   0  0  0  0  0  0
   -3.2351    1.8066   14.8990 H   0  0  0  0  0  0
   -2.1853    2.0117   17.0755 H   0  0  0  0  0  0
   -2.5717   -1.4910   27.7829 H   0  0  0  0  0  0
   -3.2370   -2.6237   25.7118 H   0  0  0  0  0  0
    0.8351    0.0473   23.8914 H   0  0  0  0  0  0
    1.9678    1.5804   25.4376 H   0  0  0  0  0  0
    1.3009    1.7358   27.7758 H   0  0  0  0  0  0
   -0.6084    0.4216   28.6622 H   0  0  0  0  0  0
  1  4  1  0  0  0
  1  2  1  0  0  0
  1 28  1  0  0  0
  1 29  1  0  0  0
  2  3  1  0  0  0
  2 10  1  0  0  0
  3  7  1  0  0  0
  3 30  1  0  0  0
  3 31  1  0  0  0
  4  6  1  0  0  0
  4 32  1  0  0  0
  4 33  1  0  0  0
  5  6  1  0  0  0
  5  9  1  0  0  0
  5 12  1  0  0  0
  6  7  2  0  0  0
  7  8  1  0  0  0
  8  9  2  0  0  0
  8 34  1  0  0  0
 10 19  1  0  0  0
 10 11  2  0  0  0
 12 13  2  0  0  0
 12 17  1  0  0  0
 13 14  1  0  0  0
 13 18  1  0  0  0
 14 15  2  0  0  0
 14 35  1  0  0  0
 15 16  1  0  0  0
 15 36  1  0  0  0
 16 17  2  0  0  0
 16 37  1  0  0  0
 17 38  1  0  0  0
 19 23  1  0  0  0
 19 21  2  0  0  0
 20 22  1  0  0  0
 20 21  1  0  0  0
 20 39  1  0  0  0
 21 40  1  0  0  0
 22 23  2  0  0  0
 22 27  1  0  0  0
 23 24  1  0  0  0
 24 25  2  0  0  0
 24 41  1  0  0  0
 25 26  1  0  0  0
 25 42  1  0  0  0
 26 27  2  0  0  0
 26 43  1  0  0  0
 27 44  1  0  0  0
M  END
> <s_m_entry_id>
60854

> <s_m_entry_name>
dock_pv.131

> <s_m_Source_Path>
/home/csk/Desktop/cluster/DUD-E-result/mk14

> <s_m_Source_File>
dock_pv.maegz

> <i_m_Source_File_Index>
131

> <chembl_id>
CHEMBL388251

> <chembl_pref_name>
None

> <i_lp_mmshare_version>
53161

> <i_f3d_flags>
0

> <r_lp_tautomer_probability>
1

> <s_lp_Force_Field>
OPLS_2005

> <r_lp_Energy>
37.933412

> <b_lp_Chiralities_Consistent>
1

> <s_lp_Variant>
CHEMBL260_lig1053-1

> <s_i_glide_gridfile>
glide-grid_2qd9

> <i_i_glide_lignum>
1180

> <i_i_glide_rotatable_bonds>
3

> <r_i_docking_score>
-8.57120916300143

> <r_i_glide_ligand_efficiency>
-0.317452191222275

> <r_i_glide_ligand_efficiency_sa>
-0.952356572620555

> <r_i_glide_ligand_efficiency_ln>
-1.99523618571991

> <r_i_glide_gscore>
-8.57120916300143

> <r_i_glide_lipo>
-3.65459825457255

> <r_i_glide_hbond>
-0.422868100827765

> <r_i_glide_metal>
0

> <r_i_glide_rewards>
-1.77397903378669

> <r_i_glide_evdw>
-44.6933898925781

> <r_i_glide_ecoul>
-5.96086263656616

> <r_i_glide_erotb>
0.40903511629941

> <r_i_glide_esite>
0

> <r_i_glide_emodel>
-71.2472583672941

> <r_i_glide_energy>
-50.6542525291443

> <r_i_glide_einternal>
5.35608673095703

> <i_i_glide_confnum>
15

> <i_i_glide_posenum>
307

> <r_i_glide_eff_state_penalty>
0

> <s_user_duplicate_titles>
CHEMBL260_lig1053,386107

> <s_m_subgroup_title>
dock_pv

> <s_m_subgroupid>
dock_pv

> <b_m_subgroup_collapsed>
1

$$$$
CHEMBL260_lig673
                    3D
 Schrodinger Suite 2021-1.
 37 40  0  0  1  0            999 V2000
   -4.9402    0.5057   15.2884 C   0  0  0  0  0  0
   -3.6357    0.9451   15.4831 C   0  0  0  0  0  0
   -3.2221    1.3434   16.7456 C   0  0  0  0  0  0
   -4.1032    1.2869   17.8196 C   0  0  0  0  0  0
   -5.4246    0.8870   17.6221 C   0  0  0  0  0  0
   -5.8358    0.4870   16.3517 C   0  0  0  0  0  0
   -3.6471    1.6756   19.0818 N   0  0  0  0  0  0
   -3.2323    0.8681   20.1458 C   0  0  0  0  0  0
   -3.2343   -0.5313   20.0587 C   0  0  0  0  0  0
   -2.3652    0.8074   22.4167 C   0  0  0  0  0  0
   -2.7932    1.5169   21.2987 C   0  0  0  0  0  0
   -2.3813   -0.5924   22.3668 C   0  0  0  0  0  0
   -2.8104   -1.2422   21.1871 C   0  0  0  0  0  0
   -2.7075   -2.5930   21.4646 N   0  0  0  0  0  0
   -2.2780   -2.8187   22.7235 N   0  0  0  0  0  0
   -2.0740   -1.6460   23.2764 C   0  0  0  0  0  0
   -1.6077   -1.4630   24.6722 C   0  0  0  0  0  0
   -2.4394   -1.8008   25.7426 C   0  0  0  0  0  0
   -2.0391   -1.5128   27.0457 C   0  0  0  0  0  0
   -0.7970   -0.9215   27.2724 C   0  0  0  0  0  0
    0.0436   -0.5995   26.2087 C   0  0  0  0  0  0
   -0.3664   -0.8645   24.9041 C   0  0  0  0  0  0
   -5.2578    0.1711   14.3111 H   0  0  0  0  0  0
   -2.9269    0.9642   14.6754 H   0  0  0  0  0  0
   -2.2056    1.6749   16.8856 H   0  0  0  0  0  0
   -6.1171    0.8509   18.4509 H   0  0  0  0  0  0
   -6.8335    0.1183   16.1987 H   0  0  0  0  0  0
   -3.6329    2.6663   19.2560 H   0  0  0  0  0  0
   -3.5589   -1.0349   19.1639 H   0  0  0  0  0  0
   -2.0373    1.3239   23.3065 H   0  0  0  0  0  0
   -2.7780    2.5964   21.3317 H   0  0  0  0  0  0
   -2.9258   -3.3672   20.8457 H   0  0  0  0  0  0
   -3.4043   -2.2537   25.5608 H   0  0  0  0  0  0
   -2.6795   -1.7639   27.8796 H   0  0  0  0  0  0
   -0.4784   -0.7153   28.2851 H   0  0  0  0  0  0
    1.0074   -0.1457   26.3944 H   0  0  0  0  0  0
    0.2771   -0.5973   24.0767 H   0  0  0  0  0  0
  1  6  1  0  0  0
  1  2  2  0  0  0
  1 23  1  0  0  0
  2  3  1  0  0  0
  2 24  1  0  0  0
  3  4  2  0  0  0
  3 25  1  0  0  0
  4  7  1  0  0  0
  4  5  1  0  0  0
  5  6  2  0  0  0
  5 26  1  0  0  0
  6 27  1  0  0  0
  7  8  1  0  0  0
  7 28  1  0  0  0
  8  9  2  0  0  0
  8 11  1  0  0  0
  9 13  1  0  0  0
  9 29  1  0  0  0
 10 12  1  0  0  0
 10 11  2  0  0  0
 10 30  1  0  0  0
 11 31  1  0  0  0
 12 13  2  0  0  0
 12 16  1  0  0  0
 13 14  1  0  0  0
 14 15  1  0  0  0
 14 32  1  0  0  0
 15 16  2  0  0  0
 16 17  1  0  0  0
 17 18  2  0  0  0
 17 22  1  0  0  0
 18 19  1  0  0  0
 18 33  1  0  0  0
 19 20  2  0  0  0
 19 34  1  0  0  0
 20 21  1  0  0  0
 20 35  1  0  0  0
 21 22  2  0  0  0
 21 36  1  0  0  0
 22 37  1  0  0  0
M  END
> <s_m_entry_id>
60855

> <s_m_entry_name>
dock_pv.132

> <s_m_Source_Path>
/home/csk/Desktop/cluster/DUD-E-result/mk14

> <s_m_Source_File>
dock_pv.maegz

> <i_m_Source_File_Index>
132

> <chembl_id>
CHEMBL383177

> <chembl_pref_name>
None

> <i_lp_mmshare_version>
53161

> <i_f3d_flags>
0

> <r_lp_tautomer_probability>
1

> <s_lp_Force_Field>
OPLS_2005

> <r_lp_Energy>
21.104664

> <b_lp_Chiralities_Consistent>
1

> <s_lp_Variant>
CHEMBL260_lig673-1

> <s_i_glide_gridfile>
glide-grid_2qd9

> <i_i_glide_lignum>
759

> <i_i_glide_rotatable_bonds>
3

> <r_i_docking_score>
-8.56942883260815

> <r_i_glide_ligand_efficiency>
-0.38951949239128

> <r_i_glide_ligand_efficiency_sa>
-1.09144893661272

> <r_i_glide_ligand_efficiency_ln>
-2.09468098420087

> <r_i_glide_gscore>
-8.56942883260815

> <r_i_glide_lipo>
-4.0217708242684

> <r_i_glide_hbond>
-0.397385351883472

> <r_i_glide_metal>
0

> <r_i_glide_rewards>
-2.37510913432945

> <r_i_glide_evdw>
-38.8650321960449

> <r_i_glide_ecoul>
-3.33579778671265

> <r_i_glide_erotb>
0.668457755682316

> <r_i_glide_esite>
0

> <r_i_glide_emodel>
-55.5067376277317

> <r_i_glide_energy>
-42.2008299827576

> <r_i_glide_einternal>
12.0821685791016

> <i_i_glide_confnum>
1

> <i_i_glide_posenum>
66

> <r_i_glide_eff_state_penalty>
0

> <s_user_duplicate_titles>
CHEMBL260_lig673,330983

> <s_m_subgroup_title>
dock_pv

> <s_m_subgroupid>
dock_pv

> <b_m_subgroup_collapsed>
1

$$$$
CHEMBL260_lig1237
                    3D
 Schrodinger Suite 2021-1.
 37 40  0  0  1  0            999 V2000
   -1.8053   -2.2799   21.9617 C   0  0  0  0  0  0
   -2.1627   -2.2679   20.5567 C   0  0  0  0  0  0
   -2.6062   -1.1750   19.9052 C   0  0  0  0  0  0
   -1.7504   -1.0281   22.5372 N   0  0  0  0  0  0
   -2.1378    0.1929   21.8756 C   0  0  0  0  0  0
   -2.6386    0.1430   20.5532 C   0  0  0  0  0  0
   -3.0613    1.3085   19.8771 C   0  0  0  0  0  0
   -2.8350    2.5381   20.4968 C   0  0  0  0  0  0
   -2.3365    2.6078   21.7953 C   0  0  0  0  0  0
   -2.0198    1.4475   22.4904 C   0  0  0  0  0  0
   -1.6351   -3.3521   22.5496 O   0  0  0  0  0  0
   -1.4047   -0.9816   23.9156 C   0  0  0  0  0  0
   -0.0817   -0.7045   24.3148 C   0  0  0  0  0  0
    0.2537   -0.7123   25.6690 C   0  0  0  0  0  0
   -0.7132   -0.9788   26.6351 C   0  0  0  0  0  0
   -2.0297   -1.2221   26.2516 C   0  0  0  0  0  0
   -2.3828   -1.2192   24.9018 C   0  0  0  0  0  0
   -4.0350   -1.5130   24.4859 Cl  0  0  0  0  0  0
    1.1577   -0.3133   23.1740 Cl  0  0  0  0  0  0
   -3.7879    1.2865   18.5725 C   0  0  0  0  0  0
   -5.1249    0.8870   18.5529 C   0  0  0  0  0  0
   -5.8326    0.8870   17.3537 C   0  0  0  0  0  0
   -5.1979    1.2869   16.1834 C   0  0  0  0  0  0
   -3.9080    1.6870   16.1650 N   0  0  0  0  0  0
   -3.2350    1.6870   17.3418 C   0  0  0  0  0  0
   -2.0917   -3.2064   20.0263 H   0  0  0  0  0  0
   -2.8350   -1.2531   18.8568 H   0  0  0  0  0  0
   -3.1069    3.4498   19.9875 H   0  0  0  0  0  0
   -2.1953    3.5645   22.2732 H   0  0  0  0  0  0
   -1.6384    1.5443   23.4963 H   0  0  0  0  0  0
    1.2702   -0.5087   25.9746 H   0  0  0  0  0  0
   -0.4414   -0.9896   27.6816 H   0  0  0  0  0  0
   -2.7778   -1.4162   27.0066 H   0  0  0  0  0  0
   -5.6134    0.5620   19.4606 H   0  0  0  0  0  0
   -6.8360    0.5223   17.3315 H   0  0  0  0  0  0
   -5.7134    1.2727   15.2342 H   0  0  0  0  0  0
   -2.2256    2.0361   17.2286 H   0  0  0  0  0  0
  1  4  1  0  0  0
  1 11  2  0  0  0
  1  2  1  0  0  0
  2  3  2  0  0  0
  2 26  1  0  0  0
  3  6  1  0  0  0
  3 27  1  0  0  0
  4 12  1  0  0  0
  4  5  1  0  0  0
  5  6  2  0  0  0
  5 10  1  0  0  0
  6  7  1  0  0  0
  7  8  2  0  0  0
  7 20  1  0  0  0
  8  9  1  0  0  0
  8 28  1  0  0  0
  9 10  2  0  0  0
  9 29  1  0  0  0
 10 30  1  0  0  0
 12 13  2  0  0  0
 12 17  1  0  0  0
 13 14  1  0  0  0
 13 19  1  0  0  0
 14 15  2  0  0  0
 14 31  1  0  0  0
 15 16  1  0  0  0
 15 32  1  0  0  0
 16 17  2  0  0  0
 16 33  1  0  0  0
 17 18  1  0  0  0
 20 21  2  0  0  0
 20 25  1  0  0  0
 21 22  1  0  0  0
 21 34  1  0  0  0
 22 23  2  0  0  0
 22 35  1  0  0  0
 23 24  1  0  0  0
 23 36  1  0  0  0
 24 25  2  0  0  0
 25 37  1  0  0  0
M  END
> <s_m_entry_id>
60856

> <s_m_entry_name>
dock_pv.133

> <s_m_Source_Path>
/home/csk/Desktop/cluster/DUD-E-result/mk14

> <s_m_Source_File>
dock_pv.maegz

> <i_m_Source_File_Index>
133

> <chembl_id>
CHEMBL401754

> <chembl_pref_name>
None

> <i_lp_mmshare_version>
53161

> <i_f3d_flags>
0

> <r_lp_tautomer_probability>
1

> <s_lp_Force_Field>
OPLS_2005

> <r_lp_Energy>
45.388548

> <b_lp_Chiralities_Consistent>
1

> <s_lp_Variant>
CHEMBL260_lig1237-1

> <s_i_glide_gridfile>
glide-grid_2qd9

> <i_i_glide_lignum>
1410

> <i_i_glide_rotatable_bonds>
2

> <r_i_docking_score>
-8.56759243290089

> <r_i_glide_ligand_efficiency>
-0.342703697316036

> <r_i_glide_ligand_efficiency_sa>
-1.00207168882804

> <r_i_glide_ligand_efficiency_ln>
-2.03077615662427

> <r_i_glide_gscore>
-8.56759243290089

> <r_i_glide_lipo>
-4.02263254033731

> <r_i_glide_hbond>
-0.32

> <r_i_glide_metal>
0

> <r_i_glide_rewards>
-1.79363782119658

> <r_i_glide_evdw>
-37.9011764526367

> <r_i_glide_ecoul>
-5.47897577285767

> <r_i_glide_erotb>
0.285583117193479

> <r_i_glide_esite>
0

> <r_i_glide_emodel>
-59.4930343425422

> <r_i_glide_energy>
-43.3801522254944

> <r_i_glide_einternal>
0.436086297035217

> <i_i_glide_confnum>
6

> <i_i_glide_posenum>
149

> <r_i_glide_eff_state_penalty>
0

> <s_user_duplicate_titles>
CHEMBL260_lig1237,434277

> <s_m_subgroup_title>
dock_pv

> <s_m_subgroupid>
dock_pv

> <b_m_subgroup_collapsed>
1

$$$$
CHEMBL260_lig887
                    3D
 Schrodinger Suite 2021-1.
 56 60  0  0  1  0            999 V2000
    0.8018    4.0209   24.5184 O   0  0  0  0  0  0
   -0.2350    3.0882   24.7655 C   0  0  2  0  0  0
   -1.5149    3.7295   24.1958 C   0  0  0  0  0  0
   -1.4828    3.6841   22.7219 N   0  0  0  0  0  0
   -0.2699    4.4326   22.2750 C   0  0  0  0  0  0
    1.0288    4.2820   23.1325 C   0  0  1  0  0  0
   -1.9571   -1.2042   26.2771 C   0  0  0  0  0  0
   -2.3661   -1.1903   24.9429 C   0  0  0  0  0  0
   -1.4338   -0.9562   23.9155 C   0  0  0  0  0  0
   -0.0909   -0.6995   24.2613 C   0  0  0  0  0  0
    0.3024   -0.7128   25.5993 C   0  0  0  0  0  0
   -0.6248   -0.9711   26.6050 C   0  0  0  0  0  0
    1.1071   -0.3131   23.0770 Cl  0  0  0  0  0  0
   -4.0346   -1.4583   24.5959 Cl  0  0  0  0  0  0
   -1.8567   -0.9539   22.5527 N   0  0  0  0  0  0
   -1.9262   -2.1799   21.9405 C   0  0  0  0  0  0
   -2.3352   -2.1626   20.6502 N   0  0  0  0  0  0
   -2.8909   -1.0078   19.9216 C   0  0  0  0  0  0
   -2.1813    0.2901   21.9367 C   0  0  0  0  0  0
   -2.6666    0.3282   20.6260 C   0  0  0  0  0  0
   -2.8871    1.6001   20.0411 C   0  0  0  0  0  0
   -2.4667    2.7471   20.6886 N   0  0  0  0  0  0
   -2.0347    2.6096   21.9940 C   0  0  0  0  0  0
   -1.9509    1.4241   22.6387 N   0  0  0  0  0  0
   -3.6099    1.6832   18.6917 C   0  0  0  0  0  0
   -2.9865    2.0861   17.4821 C   0  0  0  0  0  0
   -3.5169    1.7733   16.2302 C   0  0  0  0  0  0
   -4.7333    1.1118   16.1562 C   0  0  0  0  0  0
   -5.4666    0.8872   17.3034 C   0  0  0  0  0  0
   -4.9104    1.1574   18.5462 C   0  0  0  0  0  0
   -5.9145    0.7881   19.8760 Cl  0  0  0  0  0  0
   -1.6792   -3.2702   22.4609 O   0  0  0  0  0  0
   -5.3196    0.4866   14.6761 Cl  0  0  0  0  0  0
    2.0351    5.4227   22.9324 C   0  0  0  0  0  0
   -0.3169    2.8971   26.2837 C   0  0  0  0  0  0
    0.0034    2.1261   24.3104 H   0  0  0  0  0  0
   -1.5690    4.7790   24.4890 H   0  0  0  0  0  0
   -2.4154    3.2340   24.5590 H   0  0  0  0  0  0
   -0.0563    4.0908   21.2656 H   0  0  0  0  0  0
   -0.4349    5.5013   22.1598 H   0  0  0  0  0  0
    1.5098    3.3601   22.7972 H   0  0  0  0  0  0
   -2.6737   -1.3959   27.0632 H   0  0  0  0  0  0
    1.3331   -0.5192   25.8603 H   0  0  0  0  0  0
   -0.3106   -0.9860   27.6394 H   0  0  0  0  0  0
   -2.4147   -3.0714   20.2122 H   0  0  0  0  0  0
   -3.9542   -1.1836   19.7704 H   0  0  0  0  0  0
   -2.4319   -0.9775   18.9327 H   0  0  0  0  0  0
   -2.0399    2.6051   17.4749 H   0  0  0  0  0  0
   -2.9638    2.0041   15.3300 H   0  0  0  0  0  0
   -6.4403    0.4222   17.2331 H   0  0  0  0  0  0
    2.2662    5.5667   21.8740 H   0  0  0  0  0  0
    1.6428    6.3627   23.3253 H   0  0  0  0  0  0
    2.9722    5.2171   23.4504 H   0  0  0  0  0  0
   -1.0933    2.1789   26.5465 H   0  0  0  0  0  0
    0.6262    2.5172   26.6754 H   0  0  0  0  0  0
   -0.5349    3.8350   26.7951 H   0  0  0  0  0  0
  1  2  1  0  0  0
  1  6  1  0  0  0
  2  3  1  0  0  0
  2 35  1  0  0  0
  2 36  1  0  0  0
  3  4  1  0  0  0
  3 37  1  0  0  0
  3 38  1  0  0  0
  4  5  1  0  0  0
  4 23  1  0  0  0
  5  6  1  0  0  0
  5 39  1  0  0  0
  5 40  1  0  0  0
  6 34  1  0  0  0
  6 41  1  0  0  0
  7 12  1  0  0  0
  7  8  2  0  0  0
  7 42  1  0  0  0
  8 14  1  0  0  0
  8  9  1  0  0  0
  9 10  2  0  0  0
  9 15  1  0  0  0
 10 11  1  0  0  0
 10 13  1  0  0  0
 11 12  2  0  0  0
 11 43  1  0  0  0
 12 44  1  0  0  0
 15 19  1  0  0  0
 15 16  1  0  0  0
 16 17  1  0  0  0
 16 32  2  0  0  0
 17 18  1  0  0  0
 17 45  1  0  0  0
 18 20  1  0  0  0
 18 46  1  0  0  0
 18 47  1  0  0  0
 19 20  2  0  0  0
 19 24  1  0  0  0
 20 21  1  0  0  0
 21 22  2  0  0  0
 21 25  1  0  0  0
 22 23  1  0  0  0
 23 24  2  0  0  0
 25 26  2  0  0  0
 25 30  1  0  0  0
 26 27  1  0  0  0
 26 48  1  0  0  0
 27 28  2  0  0  0
 27 49  1  0  0  0
 28 29  1  0  0  0
 28 33  1  0  0  0
 29 30  2  0  0  0
 29 50  1  0  0  0
 30 31  1  0  0  0
 34 51  1  0  0  0
 34 52  1  0  0  0
 34 53  1  0  0  0
 35 54  1  0  0  0
 35 55  1  0  0  0
 35 56  1  0  0  0
M  END
> <s_m_entry_id>
60857

> <s_m_entry_name>
dock_pv.134

> <s_m_Source_Path>
/home/csk/Desktop/cluster/DUD-E-result/mk14

> <s_m_Source_File>
dock_pv.maegz

> <i_m_Source_File_Index>
134

> <chembl_id>
CHEMBL211303

> <chembl_pref_name>
None

> <i_lp_mmshare_version>
53161

> <i_f3d_flags>
0

> <r_lp_tautomer_probability>
1

> <s_lp_Force_Field>
OPLS_2005

> <r_lp_Energy>
47.135796

> <b_lp_Chiralities_Consistent>
1

> <s_lp_Variant>
CHEMBL260_lig887-1

> <s_i_glide_gridfile>
glide-grid_2qd9

> <i_i_glide_lignum>
987

> <i_i_glide_rotatable_bonds>
3

> <r_i_docking_score>
-8.56726508478822

> <r_i_glide_ligand_efficiency>
-0.244779002422521

> <r_i_glide_ligand_efficiency_sa>
-0.80068834731697

> <r_i_glide_ligand_efficiency_ln>
-1.88070482631509

> <r_i_glide_gscore>
-8.56726508478822

> <r_i_glide_lipo>
-3.92576185266555

> <r_i_glide_hbond>
-0.428363652883526

> <r_i_glide_metal>
0

> <r_i_glide_rewards>
-1.29685953697439

> <r_i_glide_evdw>
-37.664234161377

> <r_i_glide_ecoul>
-7.45336103439331

> <r_i_glide_erotb>
0.131143686488285

> <r_i_glide_esite>
-0.0462078655252004

> <r_i_glide_emodel>
-48.1216307184381

> <r_i_glide_energy>
-45.1175951957703

> <r_i_glide_einternal>
21.6623630523682

> <i_i_glide_confnum>
12

> <i_i_glide_posenum>
30

> <r_i_glide_eff_state_penalty>
0

> <s_user_duplicate_titles>
CHEMBL260_lig887,355731

> <s_m_subgroup_title>
dock_pv

> <s_m_subgroupid>
dock_pv

> <b_m_subgroup_collapsed>
1

$$$$
CHEMBL260_lig1795
                    3D
 Schrodinger Suite 2021-1.
 42 45  0  0  1  0            999 V2000
   -0.4869    0.0510   24.6383 C   0  0  0  0  0  0
   -0.0987    1.3023   24.1332 C   0  0  0  0  0  0
    0.4088    2.3171   24.9527 C   0  0  0  0  0  0
    0.6248    2.0350   26.3070 C   0  0  0  0  0  0
    0.2997    0.7858   26.8239 C   0  0  0  0  0  0
   -0.2707   -0.1994   26.0126 C   0  0  0  0  0  0
   -1.0785   -0.9678   23.6832 C   0  0  0  0  0  0
   -5.1300    0.7967   15.8247 C   0  0  0  0  0  0
   -3.8564    1.3520   15.8920 C   0  0  0  0  0  0
   -3.3109    1.6815   17.1304 C   0  0  0  0  0  0
   -4.0313    1.4331   18.3070 C   0  0  0  0  0  0
   -5.3168    0.8870   18.2297 C   0  0  0  0  0  0
   -5.8674    0.5956   16.9851 C   0  0  0  0  0  0
   -3.3460    1.8893   19.8760 S   0  0  0  0  0  0
   -2.8458    0.3675   20.6499 C   0  0  0  0  0  0
   -3.0234   -0.8780   20.0463 C   0  0  0  0  0  0
   -2.6298   -2.0578   20.6797 C   0  0  0  0  0  0
   -2.2432    0.4371   21.9032 C   0  0  0  0  0  0
   -1.7855   -0.7093   22.5123 N   0  0  0  0  0  0
   -2.0031   -1.9747   21.9313 C   0  0  0  0  0  0
   -1.5333   -2.9362   22.7506 N   0  0  0  0  0  0
   -0.9411   -2.2769   23.8113 N   0  0  0  0  0  0
   -5.6350    0.4095   14.6395 F   0  0  0  0  0  0
   -6.0337    0.6328   19.3498 F   0  0  0  0  0  0
   -0.6581   -1.5131   26.6716 C   0  0  0  0  0  0
    0.6648    3.6887   24.3769 C   0  0  0  0  0  0
    0.0438    4.1018   23.3986 O   0  0  0  0  0  0
    1.5653    4.4526   24.9937 N   0  0  0  0  0  0
   -0.1717    1.5029   23.0755 H   0  0  0  0  0  0
    1.0283    2.7789   26.9800 H   0  0  0  0  0  0
    0.4765    0.5966   27.8735 H   0  0  0  0  0  0
   -3.2919    1.5202   14.9866 H   0  0  0  0  0  0
   -2.3367    2.1399   17.1475 H   0  0  0  0  0  0
   -6.8350    0.1311   16.9288 H   0  0  0  0  0  0
   -3.4815   -0.9534   19.0768 H   0  0  0  0  0  0
   -2.7945   -3.0179   20.2132 H   0  0  0  0  0  0
   -2.1164    1.3733   22.4202 H   0  0  0  0  0  0
   -0.5457   -1.4940   27.7564 H   0  0  0  0  0  0
   -1.6976   -1.7577   26.4540 H   0  0  0  0  0  0
   -0.0350   -2.3125   26.2767 H   0  0  0  0  0  0
    1.7483    5.3771   24.6393 H   0  0  0  0  0  0
    2.1923    4.0356   25.6647 H   0  0  0  0  0  0
  1  7  1  0  0  0
  1  6  1  0  0  0
  1  2  2  0  0  0
  2  3  1  0  0  0
  2 29  1  0  0  0
  3  4  2  0  0  0
  3 26  1  0  0  0
  4  5  1  0  0  0
  4 30  1  0  0  0
  5  6  2  0  0  0
  5 31  1  0  0  0
  6 25  1  0  0  0
  7 19  1  0  0  0
  7 22  2  0  0  0
  8  9  2  0  0  0
  8 23  1  0  0  0
  8 13  1  0  0  0
  9 10  1  0  0  0
  9 32  1  0  0  0
 10 11  2  0  0  0
 10 33  1  0  0  0
 11 14  1  0  0  0
 11 12  1  0  0  0
 12 24  1  0  0  0
 12 13  2  0  0  0
 13 34  1  0  0  0
 14 15  1  0  0  0
 15 16  1  0  0  0
 15 18  2  0  0  0
 16 17  2  0  0  0
 16 35  1  0  0  0
 17 20  1  0  0  0
 17 36  1  0  0  0
 18 19  1  0  0  0
 18 37  1  0  0  0
 19 20  1  0  0  0
 20 21  2  0  0  0
 21 22  1  0  0  0
 25 38  1  0  0  0
 25 39  1  0  0  0
 25 40  1  0  0  0
 26 27  2  0  0  0
 26 28  1  0  0  0
 28 41  1  0  0  0
 28 42  1  0  0  0
M  END
> <s_m_entry_id>
60858

> <s_m_entry_name>
dock_pv.135

> <s_m_Source_Path>
/home/csk/Desktop/cluster/DUD-E-result/mk14

> <s_m_Source_File>
dock_pv.maegz

> <i_m_Source_File_Index>
135

> <chembl_id>
CHEMBL606158

> <chembl_pref_name>
None

> <i_lp_mmshare_version>
53161

> <i_f3d_flags>
0

> <r_lp_tautomer_probability>
1

> <s_lp_Force_Field>
OPLS_2005

> <r_lp_Energy>
19.119119

> <b_lp_Chiralities_Consistent>
1

> <s_lp_Variant>
CHEMBL260_lig1795-1

> <s_i_glide_gridfile>
glide-grid_2qd9

> <i_i_glide_lignum>
2093

> <i_i_glide_rotatable_bonds>
4

> <r_i_docking_score>
-8.56722630806891

> <r_i_glide_ligand_efficiency>
-0.305972368145318

> <r_i_glide_ligand_efficiency_sa>
-0.929112317776756

> <r_i_glide_ligand_efficiency_ln>
-1.97756737659701

> <r_i_glide_gscore>
-8.56722630806891

> <r_i_glide_lipo>
-3.16935650580829

> <r_i_glide_hbond>
0

> <r_i_glide_metal>
0

> <r_i_glide_rewards>
-2.38268774517388

> <r_i_glide_evdw>
-43.5227737426758

> <r_i_glide_ecoul>
-7.54865074157715

> <r_i_glide_erotb>
0.373502924804115

> <r_i_glide_esite>
-0.0802486835204953

> <r_i_glide_emodel>
-75.9995403454943

> <r_i_glide_energy>
-51.0714244842529

> <r_i_glide_einternal>
2.39907073974609

> <i_i_glide_confnum>
27

> <i_i_glide_posenum>
242

> <r_i_glide_eff_state_penalty>
0

> <s_user_duplicate_titles>
CHEMBL260_lig1795,594000

> <s_m_subgroup_title>
dock_pv

> <s_m_subgroupid>
dock_pv

> <b_m_subgroup_collapsed>
1

$$$$
CHEMBL260_lig128
                    3D
 Schrodinger Suite 2021-1.
 42 45  0  0  1  0            999 V2000
   -1.4624   -1.3138   23.3526 N   0  0  0  0  0  0
   -1.0874   -0.9582   24.6811 C   0  0  0  0  0  0
   -1.5435   -2.6383   23.0514 C   0  0  0  0  0  0
   -1.8685   -0.3012   22.4698 C   0  0  0  0  0  0
   -2.2292   -0.6593   21.1591 C   0  0  0  0  0  0
   -2.0307   -0.9975   25.7240 C   0  0  0  0  0  0
    0.2198   -0.5209   24.9644 C   0  0  0  0  0  0
   -2.7001    0.2303   20.2764 N   0  0  0  0  0  0
   -1.6350   -2.9768   21.7471 N   0  0  0  0  0  0
   -0.3814   -0.1470   27.3001 C   0  0  0  0  0  0
   -0.0511    0.2957   28.7092 C   0  0  0  0  0  0
   -2.7915    1.5115   20.6683 C   0  0  0  0  0  0
    0.5577   -0.1146   26.2587 C   0  0  0  0  0  0
   -1.6712   -0.6097   27.0123 C   0  0  0  0  0  0
   -1.9759    1.0455   22.8518 C   0  0  0  0  0  0
   -2.1021   -2.0905   20.6865 C   0  0  0  0  0  0
   -3.2784    2.6486   19.4760 S   0  0  0  0  0  0
   -1.6300   -3.5130   23.8760 O   0  0  0  0  0  0
   -0.8567    0.1624   29.6291 O   0  0  0  0  0  0
   -3.6577   -1.5130   25.4615 Cl  0  0  0  0  0  0
    1.4371   -0.4404   23.7358 Cl  0  0  0  0  0  0
   -2.4350    1.9731   21.9305 C   0  0  0  0  0  0
   -3.9240    1.6870   18.1160 C   0  0  0  0  0  0
    1.1650    0.8870   28.8893 O   0  0  0  0  0  0
   -5.1259    0.6355   15.8429 C   0  0  0  0  0  0
   -5.6983    0.0874   14.7478 F   0  0  0  0  0  0
   -3.2298    1.6699   16.9050 C   0  0  0  0  0  0
   -5.2161    1.1712   18.1929 C   0  0  0  0  0  0
   -5.8311    0.6830   17.0430 C   0  0  0  0  0  0
   -3.8256    1.1262   15.7704 C   0  0  0  0  0  0
   -1.5044   -3.9474   21.5097 H   0  0  0  0  0  0
    1.5650    0.2266   26.4323 H   0  0  0  0  0  0
   -2.4203   -0.6587   27.7915 H   0  0  0  0  0  0
   -1.7083    1.3839   23.8417 H   0  0  0  0  0  0
   -1.3915   -2.1412   19.8618 H   0  0  0  0  0  0
   -3.0603   -2.4589   20.3148 H   0  0  0  0  0  0
   -2.4947    3.0191   22.1878 H   0  0  0  0  0  0
    1.7386    0.9344   28.1229 H   0  0  0  0  0  0
   -2.2451    2.1071   16.8288 H   0  0  0  0  0  0
   -5.7648    1.2084   19.1230 H   0  0  0  0  0  0
   -6.8350    0.2907   17.0933 H   0  0  0  0  0  0
   -3.2906    1.1005   14.8325 H   0  0  0  0  0  0
  1  2  1  0  0  0
  1  3  1  0  0  0
  1  4  1  0  0  0
  2  6  1  0  0  0
  2  7  2  0  0  0
  3  9  1  0  0  0
  3 18  2  0  0  0
  4  5  2  0  0  0
  4 15  1  0  0  0
  5  8  1  0  0  0
  5 16  1  0  0  0
  6 14  2  0  0  0
  6 20  1  0  0  0
  7 13  1  0  0  0
  7 21  1  0  0  0
  8 12  2  0  0  0
  9 16  1  0  0  0
  9 31  1  0  0  0
 10 13  2  0  0  0
 10 11  1  0  0  0
 10 14  1  0  0  0
 11 19  2  0  0  0
 11 24  1  0  0  0
 12 22  1  0  0  0
 12 17  1  0  0  0
 13 32  1  0  0  0
 14 33  1  0  0  0
 15 22  2  0  0  0
 15 34  1  0  0  0
 16 35  1  0  0  0
 16 36  1  0  0  0
 17 23  1  0  0  0
 22 37  1  0  0  0
 23 27  1  0  0  0
 23 28  2  0  0  0
 24 38  1  0  0  0
 25 29  2  0  0  0
 25 26  1  0  0  0
 25 30  1  0  0  0
 27 30  2  0  0  0
 27 39  1  0  0  0
 28 29  1  0  0  0
 28 40  1  0  0  0
 29 41  1  0  0  0
 30 42  1  0  0  0
M  END
> <s_m_entry_id>
60859

> <s_m_entry_name>
dock_pv.136

> <s_m_Source_Path>
/home/csk/Desktop/cluster/DUD-E-result/mk14

> <s_m_Source_File>
dock_pv.maegz

> <i_m_Source_File_Index>
136

> <chembl_id>
CHEMBL128414

> <chembl_pref_name>
None

> <i_lp_mmshare_version>
53161

> <i_f3d_flags>
0

> <r_lp_tautomer_probability>
1

> <s_lp_Force_Field>
OPLS_2005

> <r_lp_Energy>
42.365508

> <b_lp_Chiralities_Consistent>
1

> <s_lp_Variant>
CHEMBL260_lig128-1

> <s_i_glide_gridfile>
glide-grid_2qd9

> <i_i_glide_lignum>
145

> <i_i_glide_rotatable_bonds>
5

> <r_i_docking_score>
-8.56673042584345

> <r_i_glide_ligand_efficiency>
-0.285557680861449

> <r_i_glide_ligand_efficiency_sa>
-0.887294107291537

> <r_i_glide_ligand_efficiency_ln>
-1.94645449475573

> <r_i_glide_gscore>
-8.56673042584345

> <r_i_glide_lipo>
-3.91251087977351

> <r_i_glide_hbond>
-0.463242016246358

> <r_i_glide_metal>
0

> <r_i_glide_rewards>
-1.19870768819428

> <r_i_glide_evdw>
-37.5401573181152

> <r_i_glide_ecoul>
-9.92870140075684

> <r_i_glide_erotb>
0.374043234389981

> <r_i_glide_esite>
0

> <r_i_glide_emodel>
-61.9319961406203

> <r_i_glide_energy>
-47.4688587188721

> <r_i_glide_einternal>
3.05122423171997

> <i_i_glide_confnum>
24

> <i_i_glide_posenum>
17

> <r_i_glide_eff_state_penalty>
0

> <s_user_duplicate_titles>
CHEMBL260_lig128,213189

> <s_m_subgroup_title>
dock_pv

> <s_m_subgroupid>
dock_pv

> <b_m_subgroup_collapsed>
1

$$$$
CHEMBL260_lig455
                    3D
 Schrodinger Suite 2021-1.
 57 61  0  0  1  0            999 V2000
   -3.2316   -2.1540   27.4925 C   0  0  0  0  0  0
   -2.6434   -2.3036   26.2057 O   0  0  0  0  0  0
   -1.4555   -1.6520   25.9321 C   0  0  0  0  0  0
   -0.8088   -0.7774   26.8265 C   0  0  0  0  0  0
    0.3636   -0.1177   26.4556 C   0  0  0  0  0  0
    0.9154   -0.3382   25.1964 C   0  0  0  0  0  0
    0.3077   -1.2313   24.3196 C   0  0  0  0  0  0
   -0.8811   -1.8784   24.6755 C   0  0  0  0  0  0
   -1.4893   -2.7376   23.7829 O   0  0  0  0  0  0
   -1.9381   -2.2533   22.5705 C   0  0  0  0  0  0
   -1.8439   -3.1136   21.5316 N   0  0  0  0  0  0
   -2.1329   -2.6025   20.3093 C   0  0  0  0  0  0
   -2.5049   -1.2701   20.1135 C   0  0  0  0  0  0
   -2.5798   -0.4503   21.2454 C   0  0  0  0  0  0
   -2.3266   -0.9530   22.4817 N   0  0  0  0  0  0
   -2.6912    1.0449   21.1087 C   0  0  0  0  0  0
   -3.1845    1.8230   20.0396 C   0  0  0  0  0  0
   -2.8348    3.0896   20.1701 N   0  0  0  0  0  0
   -2.1887    3.1515   21.2962 C   0  0  0  0  0  0
   -2.1645    1.9805   22.0018 N   0  0  0  0  0  0
   -1.5735    1.7939   23.3459 C   0  0  0  0  0  0
   -0.5919    2.8815   23.8473 C   0  0  0  0  0  0
   -1.2783    4.1248   24.4555 C   0  0  0  0  0  0
   -2.3268    3.7682   25.4169 N   0  0  2  0  0  0
   -3.3236    2.8177   24.9199 C   0  0  0  0  0  0
   -2.6528    1.5252   24.4173 C   0  0  0  0  0  0
   -3.9538    1.4341   18.8244 C   0  0  0  0  0  0
   -5.2351    0.8879   18.9330 C   0  0  0  0  0  0
   -5.9813    0.6520   17.7784 C   0  0  0  0  0  0
   -5.4020    0.8666   16.5250 C   0  0  0  0  0  0
   -6.0492    0.4923   15.4017 F   0  0  0  0  0  0
   -4.1218    1.3825   16.4099 C   0  0  0  0  0  0
   -3.4078    1.6827   17.5602 C   0  0  0  0  0  0
   -4.1629   -2.7195   27.5348 H   0  0  0  0  0  0
   -2.5754   -2.5286   28.2793 H   0  0  0  0  0  0
   -3.4743   -1.1137   27.6985 H   0  0  0  0  0  0
   -1.2117   -0.5785   27.8079 H   0  0  0  0  0  0
    0.8471    0.5605   27.1438 H   0  0  0  0  0  0
    1.8220    0.1700   24.9054 H   0  0  0  0  0  0
    0.7472   -1.4096   23.3489 H   0  0  0  0  0  0
   -2.0392   -3.2833   19.4763 H   0  0  0  0  0  0
   -2.6631   -0.8881   19.1154 H   0  0  0  0  0  0
   -1.6346    3.9937   21.6660 H   0  0  0  0  0  0
   -0.9482    0.9157   23.2083 H   0  0  0  0  0  0
    0.0870    2.4502   24.5862 H   0  0  0  0  0  0
    0.1070    3.1590   23.0580 H   0  0  0  0  0  0
   -0.5348    4.7216   24.9837 H   0  0  0  0  0  0
   -1.6974    4.7655   23.6839 H   0  0  0  0  0  0
   -2.7551    4.5787   25.8427 H   0  0  0  0  0  0
   -4.0245    2.5894   25.7240 H   0  0  0  0  0  0
   -3.8918    3.2838   24.1152 H   0  0  0  0  0  0
   -3.4072    0.8336   24.0463 H   0  0  0  0  0  0
   -2.2288    0.9757   25.2562 H   0  0  0  0  0  0
   -5.6659    0.6940   19.9039 H   0  0  0  0  0  0
   -6.9733    0.2315   17.8546 H   0  0  0  0  0  0
   -3.6877    1.5449   15.4337 H   0  0  0  0  0  0
   -2.4357    2.1297   17.4548 H   0  0  0  0  0  0
  1  2  1  0  0  0
  1 34  1  0  0  0
  1 35  1  0  0  0
  1 36  1  0  0  0
  2  3  1  0  0  0
  3  4  2  0  0  0
  3  8  1  0  0  0
  4  5  1  0  0  0
  4 37  1  0  0  0
  5  6  2  0  0  0
  5 38  1  0  0  0
  6  7  1  0  0  0
  6 39  1  0  0  0
  7  8  2  0  0  0
  7 40  1  0  0  0
  8  9  1  0  0  0
  9 10  1  0  0  0
 10 11  2  0  0  0
 10 15  1  0  0  0
 11 12  1  0  0  0
 12 13  2  0  0  0
 12 41  1  0  0  0
 13 14  1  0  0  0
 13 42  1  0  0  0
 14 15  2  0  0  0
 14 16  1  0  0  0
 16 17  2  0  0  0
 16 20  1  0  0  0
 17 18  1  0  0  0
 17 27  1  0  0  0
 18 19  2  0  0  0
 19 20  1  0  0  0
 19 43  1  0  0  0
 20 21  1  0  0  0
 21 22  1  0  0  0
 21 26  1  0  0  0
 21 44  1  0  0  0
 22 23  1  0  0  0
 22 45  1  0  0  0
 22 46  1  0  0  0
 23 24  1  0  0  0
 23 47  1  0  0  0
 23 48  1  0  0  0
 24 25  1  0  0  0
 24 49  1  0  0  0
 25 26  1  0  0  0
 25 50  1  0  0  0
 25 51  1  0  0  0
 26 52  1  0  0  0
 26 53  1  0  0  0
 27 28  2  0  0  0
 27 33  1  0  0  0
 28 29  1  0  0  0
 28 54  1  0  0  0
 29 30  2  0  0  0
 29 55  1  0  0  0
 30 31  1  0  0  0
 30 32  1  0  0  0
 32 33  2  0  0  0
 32 56  1  0  0  0
 33 57  1  0  0  0
M  END
> <s_m_entry_id>
60860

> <s_m_entry_name>
dock_pv.137

> <s_m_Source_Path>
/home/csk/Desktop/cluster/DUD-E-result/mk14

> <s_m_Source_File>
dock_pv.maegz

> <i_m_Source_File_Index>
137

> <chembl_id>
CHEMBL417804

> <chembl_pref_name>
None

> <i_lp_mmshare_version>
53161

> <i_f3d_flags>
0

> <r_lp_tautomer_probability>
1

> <s_lp_Force_Field>
OPLS_2005

> <r_lp_Energy>
38.75916

> <b_lp_Chiralities_Consistent>
1

> <s_lp_Variant>
CHEMBL260_lig455-1

> <s_i_glide_gridfile>
glide-grid_2qd9

> <i_i_glide_lignum>
524

> <i_i_glide_rotatable_bonds>
6

> <r_i_docking_score>
-8.54357862485797

> <r_i_glide_ligand_efficiency>
-0.258896321965393

> <r_i_glide_ligand_efficiency_sa>
-0.830418839645795

> <r_i_glide_ligand_efficiency_ln>
-1.90004764988577

> <r_i_glide_gscore>
-8.54357862485797

> <r_i_glide_lipo>
-3.78109204891808

> <r_i_glide_hbond>
-0.286587308641249

> <r_i_glide_metal>
0

> <r_i_glide_rewards>
-2.15173169801891

> <r_i_glide_evdw>
-42.1832008361816

> <r_i_glide_ecoul>
-4.56728363037109

> <r_i_glide_erotb>
0.504096319075929

> <r_i_glide_esite>
-0.0340113019909115

> <r_i_glide_emodel>
-59.9651829636087

> <r_i_glide_energy>
-46.7504844665527

> <r_i_glide_einternal>
9.32912063598633

> <i_i_glide_confnum>
175

> <i_i_glide_posenum>
376

> <r_i_glide_eff_state_penalty>
0

> <s_user_duplicate_titles>
CHEMBL260_lig455,13736

> <s_m_subgroup_title>
dock_pv

> <s_m_subgroupid>
dock_pv

> <b_m_subgroup_collapsed>
1

$$$$
CHEMBL260_lig486
                    3D
 Schrodinger Suite 2021-1.
 57 61  0  0  1  0            999 V2000
    0.7648    0.5419   28.6706 N   0  0  0  0  0  0
   -0.5286    0.2778   28.4821 C   0  0  0  0  0  0
   -1.3762    0.6906   29.2705 O   0  0  0  0  0  0
   -0.9085   -0.5540   27.2770 C   0  0  0  0  0  0
   -2.1823   -1.1390   27.2148 C   0  0  0  0  0  0
   -2.5616   -1.8979   26.1103 C   0  0  0  0  0  0
   -1.6699   -2.0800   25.0574 C   0  0  0  0  0  0
   -2.0349   -2.8547   23.9805 O   0  0  0  0  0  0
   -2.2045   -2.2865   22.7346 C   0  0  0  0  0  0
   -2.0389   -3.1379   21.6976 N   0  0  0  0  0  0
   -2.1645   -2.6020   20.4582 C   0  0  0  0  0  0
   -2.4371   -1.2503   20.2463 C   0  0  0  0  0  0
   -2.5685   -0.4375   21.3786 C   0  0  0  0  0  0
   -2.4781   -0.9564   22.6322 N   0  0  0  0  0  0
   -2.5970    1.0563   21.2274 C   0  0  0  0  0  0
   -3.0604    1.8392   20.1516 C   0  0  0  0  0  0
   -2.6763    3.0974   20.2759 N   0  0  0  0  0  0
   -2.0355    3.1483   21.4099 C   0  0  0  0  0  0
   -2.0375    1.9734   22.1149 N   0  0  0  0  0  0
   -1.4528    1.7594   23.4567 C   0  0  0  0  0  0
   -0.3641    2.7613   23.9074 C   0  0  0  0  0  0
   -0.9155    4.0795   24.5008 C   0  0  0  0  0  0
   -1.9827    3.8497   25.4779 N   0  0  2  0  0  0
   -3.0754    2.9930   25.0145 C   0  0  0  0  0  0
   -2.5396    1.6297   24.5432 C   0  0  0  0  0  0
   -3.8747    1.4497   18.9564 C   0  0  0  0  0  0
   -5.1472    0.8951   19.1294 C   0  0  0  0  0  0
   -5.9556    0.6527   18.0187 C   0  0  0  0  0  0
   -5.4566    0.8868   16.7360 C   0  0  0  0  0  0
   -6.1801    0.5489   15.6501 F   0  0  0  0  0  0
   -4.1790    1.3910   16.5513 C   0  0  0  0  0  0
   -3.3978    1.6871   17.6587 C   0  0  0  0  0  0
   -0.3988   -1.5085   25.1069 C   0  0  0  0  0  0
   -0.0221   -0.7417   26.2046 C   0  0  0  0  0  0
    1.4751    0.1618   28.0658 H   0  0  0  0  0  0
    1.0443    1.0871   29.4706 H   0  0  0  0  0  0
   -2.8861   -1.0127   28.0257 H   0  0  0  0  0  0
   -3.5447   -2.3422   26.0717 H   0  0  0  0  0  0
   -2.0349   -3.2801   19.6263 H   0  0  0  0  0  0
   -2.4751   -0.8502   19.2445 H   0  0  0  0  0  0
   -1.4744    3.9864   21.7796 H   0  0  0  0  0  0
   -0.9240    0.8155   23.3391 H   0  0  0  0  0  0
    0.2925    2.2866   24.6390 H   0  0  0  0  0  0
    0.3314    2.9566   23.0901 H   0  0  0  0  0  0
   -0.1080    4.6027   25.0151 H   0  0  0  0  0  0
   -1.2741    4.7555   23.7273 H   0  0  0  0  0  0
   -2.3224    4.7131   25.8778 H   0  0  0  0  0  0
   -3.7895    2.8569   25.8283 H   0  0  0  0  0  0
   -3.6023    3.4935   24.2010 H   0  0  0  0  0  0
   -3.3604    1.0016   24.1973 H   0  0  0  0  0  0
   -2.1591    1.0663   25.3923 H   0  0  0  0  0  0
   -5.5266    0.6997   20.1218 H   0  0  0  0  0  0
   -6.9444    0.2356   18.1428 H   0  0  0  0  0  0
   -3.8029    1.5627   15.5530 H   0  0  0  0  0  0
   -2.4350    2.1326   17.4760 H   0  0  0  0  0  0
    0.2953   -1.6612   24.2936 H   0  0  0  0  0  0
    0.9662   -0.3040   26.2047 H   0  0  0  0  0  0
  1  2  1  0  0  0
  1 35  1  0  0  0
  1 36  1  0  0  0
  2  3  2  0  0  0
  2  4  1  0  0  0
  4  5  2  0  0  0
  4 34  1  0  0  0
  5  6  1  0  0  0
  5 37  1  0  0  0
  6  7  2  0  0  0
  6 38  1  0  0  0
  7  8  1  0  0  0
  7 33  1  0  0  0
  8  9  1  0  0  0
  9 10  2  0  0  0
  9 14  1  0  0  0
 10 11  1  0  0  0
 11 12  2  0  0  0
 11 39  1  0  0  0
 12 13  1  0  0  0
 12 40  1  0  0  0
 13 14  2  0  0  0
 13 15  1  0  0  0
 15 16  2  0  0  0
 15 19  1  0  0  0
 16 17  1  0  0  0
 16 26  1  0  0  0
 17 18  2  0  0  0
 18 19  1  0  0  0
 18 41  1  0  0  0
 19 20  1  0  0  0
 20 21  1  0  0  0
 20 25  1  0  0  0
 20 42  1  0  0  0
 21 22  1  0  0  0
 21 43  1  0  0  0
 21 44  1  0  0  0
 22 23  1  0  0  0
 22 45  1  0  0  0
 22 46  1  0  0  0
 23 24  1  0  0  0
 23 47  1  0  0  0
 24 25  1  0  0  0
 24 48  1  0  0  0
 24 49  1  0  0  0
 25 50  1  0  0  0
 25 51  1  0  0  0
 26 27  2  0  0  0
 26 32  1  0  0  0
 27 28  1  0  0  0
 27 52  1  0  0  0
 28 29  2  0  0  0
 28 53  1  0  0  0
 29 30  1  0  0  0
 29 31  1  0  0  0
 31 32  2  0  0  0
 31 54  1  0  0  0
 32 55  1  0  0  0
 33 34  2  0  0  0
 33 56  1  0  0  0
 34 57  1  0  0  0
M  END
> <s_m_entry_id>
60861

> <s_m_entry_name>
dock_pv.138

> <s_m_Source_Path>
/home/csk/Desktop/cluster/DUD-E-result/mk14

> <s_m_Source_File>
dock_pv.maegz

> <i_m_Source_File_Index>
138

> <chembl_id>
CHEMBL275724

> <chembl_pref_name>
None

> <i_lp_mmshare_version>
53161

> <i_f3d_flags>
0

> <r_lp_tautomer_probability>
1

> <s_lp_Force_Field>
OPLS_2005

> <r_lp_Energy>
39.747668

> <b_lp_Chiralities_Consistent>
1

> <s_lp_Variant>
CHEMBL260_lig486-1

> <s_i_glide_gridfile>
glide-grid_2qd9

> <i_i_glide_lignum>
556

> <i_i_glide_rotatable_bonds>
6

> <r_i_docking_score>
-8.53920075812467

> <r_i_glide_ligand_efficiency>
-0.251152963474255

> <r_i_glide_ligand_efficiency_sa>
-0.813638103440616

> <r_i_glide_ligand_efficiency_ln>
-1.88654896393804

> <r_i_glide_gscore>
-8.53920075812467

> <r_i_glide_lipo>
-3.63223193725895

> <r_i_glide_hbond>
-0.476837048440063

> <r_i_glide_metal>
0

> <r_i_glide_rewards>
-1.89570795073583

> <r_i_glide_evdw>
-45.2331924438477

> <r_i_glide_ecoul>
-4.76307439804077

> <r_i_glide_erotb>
0.478404319289098

> <r_i_glide_esite>
-0.0367073590804282

> <r_i_glide_emodel>
-69.967519241325

> <r_i_glide_energy>
-49.9962668418884

> <r_i_glide_einternal>
6.96061372756958

> <i_i_glide_confnum>
90

> <i_i_glide_posenum>
367

> <r_i_glide_eff_state_penalty>
0

> <s_user_duplicate_titles>
CHEMBL260_lig486,13687

> <s_m_subgroup_title>
dock_pv

> <s_m_subgroupid>
dock_pv

> <b_m_subgroup_collapsed>
1

$$$$
CHEMBL260_lig481
                    3D
 Schrodinger Suite 2021-1.
 57 61  0  0  1  0            999 V2000
   -2.5582    1.0444   21.3519 C   0  0  0  0  0  0
   -2.0352    1.9614   22.2624 N   0  0  0  0  0  0
   -2.6009    3.0844   20.3951 N   0  0  0  0  0  0
   -2.9939    1.8295   20.2668 C   0  0  0  0  0  0
   -2.0350    3.1416   21.5699 C   0  0  0  0  0  0
   -2.5399   -0.4496   21.4998 C   0  0  0  0  0  0
   -2.4421   -0.9571   22.7556 N   0  0  0  0  0  0
   -2.1775   -2.2851   22.8717 C   0  0  0  0  0  0
   -3.8197    1.4445   19.0744 C   0  0  0  0  0  0
   -2.0351   -3.1517   21.8442 N   0  0  0  0  0  0
   -1.5101    1.7554   23.6299 C   0  0  0  0  0  0
   -1.9681   -2.8267   24.1222 O   0  0  0  0  0  0
   -2.2083    3.8115   25.6391 N   0  0  1  0  0  0
   -1.5528   -2.0345   25.1681 C   0  0  0  0  0  0
   -2.3847   -1.8483   26.2720 C   0  0  0  0  0  0
   -2.4286   -1.2754   20.3743 C   0  0  0  0  0  0
   -3.3815    1.6870   17.7640 C   0  0  0  0  0  0
   -5.0867    0.8871   19.2762 C   0  0  0  0  0  0
   -2.1665   -2.6283   20.5997 C   0  0  0  0  0  0
   -5.4621    0.8870   16.8936 C   0  0  0  0  0  0
   -1.9536   -1.1139   27.3786 C   0  0  0  0  0  0
   -0.4784    2.7891   24.1413 C   0  0  0  0  0  0
   -2.6438    1.5849   24.6633 C   0  0  0  0  0  0
   -4.1909    1.3927   16.6765 C   0  0  0  0  0  0
   -5.9209    0.6360   18.1875 C   0  0  0  0  0  0
   -6.2225    0.5730   15.8269 F   0  0  0  0  0  0
   -2.8342   -1.0156   28.4364 O   0  0  0  0  0  0
   -3.2474    2.9290   25.1070 C   0  0  0  0  0  0
   -1.1015    4.0841   24.7185 C   0  0  0  0  0  0
    0.1585   -0.7106   26.2454 C   0  0  0  0  0  0
   -0.2772   -1.4658   25.1590 C   0  0  0  0  0  0
   -0.6708   -0.5400   27.3532 C   0  0  0  0  0  0
   -2.4261   -0.3286   29.6133 C   0  0  0  0  0  0
   -1.5183    3.9861   21.9870 H   0  0  0  0  0  0
   -0.9457    0.8307   23.5302 H   0  0  0  0  0  0
   -2.5987    4.6604   26.0243 H   0  0  0  0  0  0
   -3.3648   -2.3007   26.2828 H   0  0  0  0  0  0
   -2.4699   -0.8842   19.3690 H   0  0  0  0  0  0
   -2.4350    2.1513   17.5527 H   0  0  0  0  0  0
   -5.4407    0.6872   20.2762 H   0  0  0  0  0  0
   -2.0349   -3.3136   19.7741 H   0  0  0  0  0  0
    0.1574    2.3296   24.9004 H   0  0  0  0  0  0
    0.2501    3.0139   23.3610 H   0  0  0  0  0  0
   -3.4271    0.9320   24.2789 H   0  0  0  0  0  0
   -2.2828    1.0320   25.5289 H   0  0  0  0  0  0
   -3.8454    1.5781   15.6696 H   0  0  0  0  0  0
   -6.9051    0.2165   18.3362 H   0  0  0  0  0  0
   -4.0144    2.7721   25.8677 H   0  0  0  0  0  0
   -3.7268    3.4217   24.2609 H   0  0  0  0  0  0
   -0.3378    4.6274   25.2772 H   0  0  0  0  0  0
   -1.4432    4.7566   23.9342 H   0  0  0  0  0  0
    1.1486   -0.2764   26.2399 H   0  0  0  0  0  0
    0.3796   -1.6222   24.3155 H   0  0  0  0  0  0
   -0.2953    0.0346   28.1863 H   0  0  0  0  0  0
   -3.2306   -0.3625   30.3478 H   0  0  0  0  0  0
   -2.2100    0.7210   29.4083 H   0  0  0  0  0  0
   -1.5486   -0.7937   30.0639 H   0  0  0  0  0  0
  1  2  1  0  0  0
  1  4  2  0  0  0
  1  6  1  0  0  0
  2  5  1  0  0  0
  2 11  1  0  0  0
  3  4  1  0  0  0
  3  5  2  0  0  0
  4  9  1  0  0  0
  5 34  1  0  0  0
  6  7  1  0  0  0
  6 16  2  0  0  0
  7  8  2  0  0  0
  8 12  1  0  0  0
  8 10  1  0  0  0
  9 17  1  0  0  0
  9 18  2  0  0  0
 10 19  2  0  0  0
 11 22  1  0  0  0
 11 23  1  0  0  0
 11 35  1  0  0  0
 12 14  1  0  0  0
 13 28  1  0  0  0
 13 29  1  0  0  0
 13 36  1  0  0  0
 14 15  1  0  0  0
 14 31  2  0  0  0
 15 21  2  0  0  0
 15 37  1  0  0  0
 16 19  1  0  0  0
 16 38  1  0  0  0
 17 24  2  0  0  0
 17 39  1  0  0  0
 18 25  1  0  0  0
 18 40  1  0  0  0
 19 41  1  0  0  0
 20 25  2  0  0  0
 20 26  1  0  0  0
 20 24  1  0  0  0
 21 27  1  0  0  0
 21 32  1  0  0  0
 22 29  1  0  0  0
 22 42  1  0  0  0
 22 43  1  0  0  0
 23 28  1  0  0  0
 23 44  1  0  0  0
 23 45  1  0  0  0
 24 46  1  0  0  0
 25 47  1  0  0  0
 27 33  1  0  0  0
 28 48  1  0  0  0
 28 49  1  0  0  0
 29 50  1  0  0  0
 29 51  1  0  0  0
 30 31  1  0  0  0
 30 32  2  0  0  0
 30 52  1  0  0  0
 31 53  1  0  0  0
 32 54  1  0  0  0
 33 55  1  0  0  0
 33 56  1  0  0  0
 33 57  1  0  0  0
M  END
> <s_m_entry_id>
60862

> <s_m_entry_name>
dock_pv.139

> <s_m_Source_Path>
/home/csk/Desktop/cluster/DUD-E-result/mk14

> <s_m_Source_File>
dock_pv.maegz

> <i_m_Source_File_Index>
139

> <chembl_id>
CHEMBL14300

> <chembl_pref_name>
None

> <i_lp_mmshare_version>
53161

> <i_f3d_flags>
0

> <r_lp_tautomer_probability>
1

> <s_lp_Force_Field>
OPLS_2005

> <r_lp_Energy>
36.885391

> <b_lp_Chiralities_Consistent>
1

> <s_lp_Variant>
CHEMBL260_lig481-1

> <s_i_glide_gridfile>
glide-grid_2qd9

> <i_i_glide_lignum>
551

> <i_i_glide_rotatable_bonds>
6

> <r_i_docking_score>
-8.52457083218904

> <r_i_glide_ligand_efficiency>
-0.258320328248153

> <r_i_glide_ligand_efficiency_sa>
-0.828571320026039

> <r_i_glide_ligand_efficiency_ln>
-1.89582041521328

> <r_i_glide_gscore>
-8.52457083218904

> <r_i_glide_lipo>
-3.66364636099533

> <r_i_glide_hbond>
-0.52898900931525

> <r_i_glide_metal>
0

> <r_i_glide_rewards>
-2.15071783924299

> <r_i_glide_evdw>
-40.3465728759766

> <r_i_glide_ecoul>
-4.21571016311646

> <r_i_glide_erotb>
0.504096319075929

> <r_i_glide_esite>
-0.0356287734450982

> <r_i_glide_emodel>
-59.1537607551479

> <r_i_glide_energy>
-44.562283039093

> <r_i_glide_einternal>
6.17484188079834

> <i_i_glide_confnum>
107

> <i_i_glide_posenum>
389

> <r_i_glide_eff_state_penalty>
0

> <s_user_duplicate_titles>
CHEMBL260_lig481,13646

> <s_m_subgroup_title>
dock_pv

> <s_m_subgroupid>
dock_pv

> <b_m_subgroup_collapsed>
1

$$$$
CHEMBL260_lig1783
                    3D
 Schrodinger Suite 2021-1.
 41 43  0  0  1  0            999 V2000
   -1.8538   -0.3920   25.1254 C   0  0  0  0  0  0
   -5.1056    0.8551   15.8514 C   0  0  0  0  0  0
   -3.8098    1.3515   15.8891 C   0  0  0  0  0  0
   -3.2349    1.6869   17.1102 C   0  0  0  0  0  0
   -3.9456    1.4977   18.3063 C   0  0  0  0  0  0
   -5.2448    0.9849   18.2565 C   0  0  0  0  0  0
   -5.8356    0.7076   17.0261 C   0  0  0  0  0  0
   -3.2357    1.9366   19.8760 S   0  0  0  0  0  0
   -2.8002    0.3772   20.6192 C   0  0  0  0  0  0
   -2.7218   -0.7907   19.8597 C   0  0  0  0  0  0
   -2.4232   -2.0222   20.4373 C   0  0  0  0  0  0
   -2.5231    0.3234   21.9858 C   0  0  0  0  0  0
   -1.9473   -1.2962   23.8779 C   0  0  0  0  0  0
   -2.2319   -0.8867   22.5776 N   0  0  0  0  0  0
   -2.1816   -2.0728   21.8164 C   0  0  0  0  0  0
   -1.8817   -3.1130   22.6154 N   0  0  0  0  0  0
   -1.7278   -2.5989   23.8844 N   0  0  0  0  0  0
   -5.6352    0.4659   14.6759 F   0  0  0  0  0  0
   -5.9511    0.7751   19.3932 F   0  0  0  0  0  0
   -0.6362    0.5725   25.0223 C   0  0  0  0  0  0
   -3.1573    0.4301   25.2921 C   0  0  0  0  0  0
   -1.7163   -1.2577   26.4118 C   0  0  0  0  0  0
    0.7277   -0.0953   24.8867 C   0  0  0  0  0  0
    1.5854    0.1116   23.8757 C   0  0  0  0  0  0
   -3.2535    1.4747   14.9715 H   0  0  0  0  0  0
   -2.2365    2.0977   17.0761 H   0  0  0  0  0  0
   -6.8320    0.2982   16.9932 H   0  0  0  0  0  0
   -2.8771   -0.7518   18.7950 H   0  0  0  0  0  0
   -2.3820   -2.9231   19.8393 H   0  0  0  0  0  0
   -2.5322    1.1996   22.6082 H   0  0  0  0  0  0
   -0.5927    1.2009   25.9121 H   0  0  0  0  0  0
   -0.7712    1.2630   24.1877 H   0  0  0  0  0  0
   -3.2343    0.8690   26.2880 H   0  0  0  0  0  0
   -3.2433    1.2562   24.5908 H   0  0  0  0  0  0
   -4.0349   -0.2014   25.1510 H   0  0  0  0  0  0
   -1.6170   -0.6427   27.3085 H   0  0  0  0  0  0
   -2.5840   -1.9042   26.5531 H   0  0  0  0  0  0
   -0.8459   -1.9129   26.3773 H   0  0  0  0  0  0
    1.0136   -0.7807   25.6726 H   0  0  0  0  0  0
    1.3498    0.7954   23.0759 H   0  0  0  0  0  0
    2.5388   -0.3951   23.8417 H   0  0  0  0  0  0
  1 13  1  0  0  0
  1 20  1  0  0  0
  1 21  1  0  0  0
  1 22  1  0  0  0
  2  7  1  0  0  0
  2  3  2  0  0  0
  2 18  1  0  0  0
  3  4  1  0  0  0
  3 25  1  0  0  0
  4  5  2  0  0  0
  4 26  1  0  0  0
  5  8  1  0  0  0
  5  6  1  0  0  0
  6  7  2  0  0  0
  6 19  1  0  0  0
  7 27  1  0  0  0
  8  9  1  0  0  0
  9 12  2  0  0  0
  9 10  1  0  0  0
 10 11  2  0  0  0
 10 28  1  0  0  0
 11 15  1  0  0  0
 11 29  1  0  0  0
 12 14  1  0  0  0
 12 30  1  0  0  0
 13 14  1  0  0  0
 13 17  2  0  0  0
 14 15  1  0  0  0
 15 16  2  0  0  0
 16 17  1  0  0  0
 20 23  1  0  0  0
 20 31  1  0  0  0
 20 32  1  0  0  0
 21 33  1  0  0  0
 21 34  1  0  0  0
 21 35  1  0  0  0
 22 36  1  0  0  0
 22 37  1  0  0  0
 22 38  1  0  0  0
 23 24  2  0  0  0
 23 39  1  0  0  0
 24 40  1  0  0  0
 24 41  1  0  0  0
M  END
> <s_m_entry_id>
60863

> <s_m_entry_name>
dock_pv.140

> <s_m_Source_Path>
/home/csk/Desktop/cluster/DUD-E-result/mk14

> <s_m_Source_File>
dock_pv.maegz

> <i_m_Source_File_Index>
140

> <chembl_id>
CHEMBL611945

> <chembl_pref_name>
None

> <i_lp_mmshare_version>
53161

> <i_f3d_flags>
0

> <r_lp_tautomer_probability>
1

> <s_lp_Force_Field>
OPLS_2005

> <r_lp_Energy>
16.179157

> <b_lp_Chiralities_Consistent>
1

> <s_lp_Variant>
CHEMBL260_lig1783-1

> <s_i_glide_gridfile>
glide-grid_2qd9

> <i_i_glide_lignum>
2079

> <i_i_glide_rotatable_bonds>
5

> <r_i_docking_score>
-8.51608605504851

> <r_i_glide_ligand_efficiency>
-0.354836918960355

> <r_i_glide_ligand_efficiency_sa>
-1.02352678671528

> <r_i_glide_ligand_efficiency_ln>
-2.03829017069876

> <r_i_glide_gscore>
-8.51608605504851

> <r_i_glide_lipo>
-3.60197153322369

> <r_i_glide_hbond>
0

> <r_i_glide_metal>
0

> <r_i_glide_rewards>
-2.7787249657611

> <r_i_glide_evdw>
-41.4317436218262

> <r_i_glide_ecoul>
-5.52459287643433

> <r_i_glide_erotb>
0.796232928087698

> <r_i_glide_esite>
-0.0313463715949721

> <r_i_glide_emodel>
-68.855696065472

> <r_i_glide_energy>
-46.9563364982605

> <r_i_glide_einternal>
1.88037824630737

> <i_i_glide_confnum>
36

> <i_i_glide_posenum>
95

> <r_i_glide_eff_state_penalty>
0

> <s_user_duplicate_titles>
CHEMBL260_lig1783,595248

> <s_m_subgroup_title>
dock_pv

> <s_m_subgroupid>
dock_pv

> <b_m_subgroup_collapsed>
1

$$$$
CHEMBL260_lig401
                    3D
 Schrodinger Suite 2021-1.
 49 52  0  0  1  0            999 V2000
   -1.2672   -1.3801   24.6083 C   0  0  0  0  0  0
   -1.8174   -1.8994   23.2967 C   0  0  0  0  0  0
   -2.0759   -1.0218   22.2824 N   0  0  0  0  0  0
    0.0223   -0.8117   24.6977 C   0  0  0  0  0  0
   -2.0672   -1.5250   25.7506 C   0  0  0  0  0  0
    0.5188   -0.3689   25.9369 C   0  0  0  0  0  0
   -0.2801   -0.5436   27.0652 C   0  0  0  0  0  0
   -1.5824   -1.1092   26.9960 C   0  0  0  0  0  0
   -3.0996    0.7749   20.2675 N   0  0  0  0  0  0
   -0.0350   -0.2612   28.3928 N   0  0  0  0  0  0
   -1.1253   -0.6011   29.1544 C   0  0  0  0  0  0
   -2.0350   -3.1130   23.2106 O   0  0  0  0  0  0
   -2.1070   -1.1130   28.3302 C   0  0  0  0  0  0
   -1.7392    0.4175   22.3705 C   0  0  0  0  0  0
   -2.5441   -1.5484   20.9820 C   0  0  0  0  0  0
   -4.0955    1.6539   19.6336 C   0  0  0  0  0  0
   -2.7393    1.2990   21.5905 C   0  0  0  0  0  0
   -3.6089   -0.5885   20.4152 C   0  0  0  0  0  0
    0.7770   -0.7130   23.5381 O   0  0  0  0  0  0
   -4.3744    1.3340   18.1621 C   0  0  0  0  0  0
    2.0850   -0.1432   23.5888 C   0  0  0  0  0  0
   -3.3880    1.5408   17.1942 C   0  0  0  0  0  0
   -5.6356    0.8870   17.7654 C   0  0  0  0  0  0
   -3.6363    1.2658   15.8534 C   0  0  0  0  0  0
   -5.8811    0.5935   16.4249 C   0  0  0  0  0  0
   -4.8811    0.7733   15.4760 C   0  0  0  0  0  0
   -3.0502   -1.9686   25.6814 H   0  0  0  0  0  0
    1.5012    0.0618   26.0430 H   0  0  0  0  0  0
    0.8135    0.1201   28.7902 H   0  0  0  0  0  0
   -1.1013   -0.4566   30.2262 H   0  0  0  0  0  0
   -3.0699   -1.4740   28.6599 H   0  0  0  0  0  0
   -1.6831    0.7995   23.3898 H   0  0  0  0  0  0
   -0.7936    0.5491   21.8760 H   0  0  0  0  0  0
   -1.7203   -1.6141   20.2702 H   0  0  0  0  0  0
   -3.0147   -2.5291   21.0760 H   0  0  0  0  0  0
   -5.0281    1.6048   20.2000 H   0  0  0  0  0  0
   -3.7656    2.6928   19.6828 H   0  0  0  0  0  0
   -2.3272    2.3034   21.4832 H   0  0  0  0  0  0
   -3.6350    1.3724   22.1952 H   0  0  0  0  0  0
   -3.9962   -0.9785   19.4760 H   0  0  0  0  0  0
   -4.4350   -0.5419   21.1186 H   0  0  0  0  0  0
    2.5313   -0.1513   22.5955 H   0  0  0  0  0  0
    2.0580    0.8952   23.9228 H   0  0  0  0  0  0
    2.7442   -0.7130   24.2462 H   0  0  0  0  0  0
   -2.4350    1.9397   17.4760 H   0  0  0  0  0  0
   -6.4192    0.7292   18.4928 H   0  0  0  0  0  0
   -2.8659    1.4226   15.1121 H   0  0  0  0  0  0
   -6.8350    0.1936   16.1225 H   0  0  0  0  0  0
   -5.0752    0.5166   14.4453 H   0  0  0  0  0  0
  1  2  1  0  0  0
  1  4  2  0  0  0
  1  5  1  0  0  0
  2  3  1  0  0  0
  2 12  2  0  0  0
  3 14  1  0  0  0
  3 15  1  0  0  0
  4  6  1  0  0  0
  4 19  1  0  0  0
  5  8  2  0  0  0
  5 27  1  0  0  0
  6  7  2  0  0  0
  6 28  1  0  0  0
  7  8  1  0  0  0
  7 10  1  0  0  0
  8 13  1  0  0  0
  9 18  1  0  0  0
  9 16  1  0  0  0
  9 17  1  0  0  0
 10 11  1  0  0  0
 10 29  1  0  0  0
 11 13  2  0  0  0
 11 30  1  0  0  0
 13 31  1  0  0  0
 14 17  1  0  0  0
 14 32  1  0  0  0
 14 33  1  0  0  0
 15 18  1  0  0  0
 15 34  1  0  0  0
 15 35  1  0  0  0
 16 20  1  0  0  0
 16 36  1  0  0  0
 16 37  1  0  0  0
 17 38  1  0  0  0
 17 39  1  0  0  0
 18 40  1  0  0  0
 18 41  1  0  0  0
 19 21  1  0  0  0
 20 22  1  0  0  0
 20 23  2  0  0  0
 21 42  1  0  0  0
 21 43  1  0  0  0
 21 44  1  0  0  0
 22 24  2  0  0  0
 22 45  1  0  0  0
 23 25  1  0  0  0
 23 46  1  0  0  0
 24 26  1  0  0  0
 24 47  1  0  0  0
 25 26  2  0  0  0
 25 48  1  0  0  0
 26 49  1  0  0  0
M  END
> <s_m_entry_id>
60864

> <s_m_entry_name>
dock_pv.141

> <s_m_Source_Path>
/home/csk/Desktop/cluster/DUD-E-result/mk14

> <s_m_Source_File>
dock_pv.maegz

> <i_m_Source_File_Index>
141

> <chembl_id>
CHEMBL106328

> <chembl_pref_name>
None

> <i_lp_mmshare_version>
53161

> <i_f3d_flags>
0

> <r_lp_tautomer_probability>
1

> <s_lp_Force_Field>
OPLS_2005

> <r_lp_Energy>
52.09479

> <b_lp_Chiralities_Consistent>
1

> <s_lp_Variant>
CHEMBL260_lig401-1

> <s_i_glide_gridfile>
glide-grid_2qd9

> <i_i_glide_lignum>
468

> <i_i_glide_rotatable_bonds>
5

> <r_i_docking_score>
-8.51503095457462

> <r_i_glide_ligand_efficiency>
-0.327501190560562

> <r_i_glide_ligand_efficiency_sa>
-0.970220988380707

> <r_i_glide_ligand_efficiency_ln>
-1.99972707958639

> <r_i_glide_gscore>
-8.51503095457462

> <r_i_glide_lipo>
-3.98763142323885

> <r_i_glide_hbond>
-0.442928579993897

> <r_i_glide_metal>
0

> <r_i_glide_rewards>
-1.69841473546282

> <r_i_glide_evdw>
-42.6768226623535

> <r_i_glide_ecoul>
-5.84169816970825

> <r_i_glide_erotb>
0.624039642694859

> <r_i_glide_esite>
0

> <r_i_glide_emodel>
-68.614518570378

> <r_i_glide_energy>
-48.5185208320618

> <r_i_glide_einternal>
4.4309720993042

> <i_i_glide_confnum>
33

> <i_i_glide_posenum>
159

> <r_i_glide_eff_state_penalty>
0

> <s_user_duplicate_titles>
CHEMBL260_lig401,171409

> <s_m_subgroup_title>
dock_pv

> <s_m_subgroupid>
dock_pv

> <b_m_subgroup_collapsed>
1

$$$$
CHEMBL260_lig472
                    3D
 Schrodinger Suite 2021-1.
 56 60  0  0  1  0            999 V2000
   -2.5732    1.0970   21.3674 C   0  0  0  0  0  0
   -2.0337    2.0461   22.2364 N   0  0  0  0  0  0
   -2.6359    3.1189   20.3541 N   0  0  0  0  0  0
   -3.0209    1.8567   20.2652 C   0  0  0  0  0  0
   -2.0351    3.2111   21.5087 C   0  0  0  0  0  0
   -2.5576   -0.3980   21.5454 C   0  0  0  0  0  0
   -2.4951   -0.8950   22.8080 N   0  0  0  0  0  0
   -2.2366   -2.2262   22.9414 C   0  0  0  0  0  0
   -2.0224   -2.7555   24.1965 O   0  0  0  0  0  0
   -3.8374    1.4466   19.0756 C   0  0  0  0  0  0
   -2.0893   -3.1114   21.9266 N   0  0  0  0  0  0
   -1.7174   -1.9552   25.2762 C   0  0  0  0  0  0
   -1.4148    1.9195   23.5786 C   0  0  0  0  0  0
   -0.2537    3.5738   25.7250 N   0  0  1  0  0  0
   -0.4515   -1.3589   25.4195 C   0  0  0  0  0  0
   -2.4286   -1.2401   20.4326 C   0  0  0  0  0  0
   -5.1074    0.8880   19.2520 C   0  0  0  0  0  0
   -3.3733    1.6870   17.7753 C   0  0  0  0  0  0
   -2.1877   -2.5949   20.6762 C   0  0  0  0  0  0
   -5.4250    0.8864   16.8584 C   0  0  0  0  0  0
    0.0490    2.4389   23.5472 C   0  0  0  0  0  0
   -2.2702    2.7445   24.5714 C   0  0  0  0  0  0
   -4.1513    1.3908   16.6696 C   0  0  0  0  0  0
   -5.9192    0.6438   18.1427 C   0  0  0  0  0  0
   -6.1432    0.5569   15.7684 F   0  0  0  0  0  0
    0.6291    2.7050   24.9484 C   0  0  0  0  0  0
   -1.5712    2.9751   25.9227 C   0  0  0  0  0  0
   -2.6723   -1.8091   26.2834 C   0  0  0  0  0  0
    0.6180   -1.5105   24.3474 C   0  0  0  0  0  0
   -0.1598   -0.6390   26.5828 C   0  0  0  0  0  0
   -2.3735   -1.0877   27.4385 C   0  0  0  0  0  0
   -1.1153   -0.5067   27.5898 C   0  0  0  0  0  0
   -1.5385    4.0847   21.9127 H   0  0  0  0  0  0
   -1.4036    0.8848   23.8902 H   0  0  0  0  0  0
    0.1752    3.7525   26.6233 H   0  0  0  0  0  0
   -2.4450   -0.8600   19.4220 H   0  0  0  0  0  0
   -5.4836    0.6940   20.2457 H   0  0  0  0  0  0
   -2.4354    2.1714   17.5850 H   0  0  0  0  0  0
   -2.0366   -3.2873   19.8599 H   0  0  0  0  0  0
    0.6636    1.6436   23.1234 H   0  0  0  0  0  0
    0.2375    3.2822   22.8836 H   0  0  0  0  0  0
   -2.6673    3.6711   24.1586 H   0  0  0  0  0  0
   -3.1612    2.1572   24.7987 H   0  0  0  0  0  0
   -3.7822    1.5750   15.6708 H   0  0  0  0  0  0
   -6.9105    0.2330   18.2690 H   0  0  0  0  0  0
    0.8104    1.7724   25.4833 H   0  0  0  0  0  0
    1.5914    3.2092   24.8554 H   0  0  0  0  0  0
   -1.4790    2.0406   26.4771 H   0  0  0  0  0  0
   -2.1634    3.6547   26.5366 H   0  0  0  0  0  0
   -3.6388   -2.2765   26.1778 H   0  0  0  0  0  0
    0.7468   -2.5622   24.0937 H   0  0  0  0  0  0
    0.3345   -0.9831   23.4374 H   0  0  0  0  0  0
    1.5865   -1.1355   24.6782 H   0  0  0  0  0  0
    0.8161   -0.1954   26.7222 H   0  0  0  0  0  0
   -3.1093   -0.9948   28.2237 H   0  0  0  0  0  0
   -0.8755    0.0395   28.4909 H   0  0  0  0  0  0
  1  2  1  0  0  0
  1  4  2  0  0  0
  1  6  1  0  0  0
  2  5  1  0  0  0
  2 13  1  0  0  0
  3  4  1  0  0  0
  3  5  2  0  0  0
  4 10  1  0  0  0
  5 33  1  0  0  0
  6  7  1  0  0  0
  6 16  2  0  0  0
  7  8  2  0  0  0
  8  9  1  0  0  0
  8 11  1  0  0  0
  9 12  1  0  0  0
 10 17  1  0  0  0
 10 18  2  0  0  0
 11 19  2  0  0  0
 12 15  1  0  0  0
 12 28  2  0  0  0
 13 21  1  0  0  0
 13 22  1  0  0  0
 13 34  1  0  0  0
 14 27  1  0  0  0
 14 26  1  0  0  0
 14 35  1  0  0  0
 15 29  1  0  0  0
 15 30  2  0  0  0
 16 19  1  0  0  0
 16 36  1  0  0  0
 17 24  2  0  0  0
 17 37  1  0  0  0
 18 23  1  0  0  0
 18 38  1  0  0  0
 19 39  1  0  0  0
 20 23  2  0  0  0
 20 25  1  0  0  0
 20 24  1  0  0  0
 21 26  1  0  0  0
 21 40  1  0  0  0
 21 41  1  0  0  0
 22 27  1  0  0  0
 22 42  1  0  0  0
 22 43  1  0  0  0
 23 44  1  0  0  0
 24 45  1  0  0  0
 26 46  1  0  0  0
 26 47  1  0  0  0
 27 48  1  0  0  0
 27 49  1  0  0  0
 28 31  1  0  0  0
 28 50  1  0  0  0
 29 51  1  0  0  0
 29 52  1  0  0  0
 29 53  1  0  0  0
 30 32  1  0  0  0
 30 54  1  0  0  0
 31 32  2  0  0  0
 31 55  1  0  0  0
 32 56  1  0  0  0
M  END
> <s_m_entry_id>
60865

> <s_m_entry_name>
dock_pv.142

> <s_m_Source_Path>
/home/csk/Desktop/cluster/DUD-E-result/mk14

> <s_m_Source_File>
dock_pv.maegz

> <i_m_Source_File_Index>
142

> <chembl_id>
CHEMBL13836

> <chembl_pref_name>
None

> <i_lp_mmshare_version>
53161

> <i_f3d_flags>
0

> <r_lp_tautomer_probability>
1

> <s_lp_Force_Field>
OPLS_2005

> <r_lp_Energy>
35.572588

> <b_lp_Chiralities_Consistent>
1

> <s_lp_Variant>
CHEMBL260_lig472-1

> <s_i_glide_gridfile>
glide-grid_2qd9

> <i_i_glide_lignum>
542

> <i_i_glide_rotatable_bonds>
5

> <r_i_docking_score>
-8.51443352509603

> <r_i_glide_ligand_efficiency>
-0.266076047659251

> <r_i_glide_ligand_efficiency_sa>
-0.844738794939791

> <r_i_glide_ligand_efficiency_ln>
-1.90661376096111

> <r_i_glide_gscore>
-8.51443352509603

> <r_i_glide_lipo>
-3.55500300848722

> <r_i_glide_hbond>
-0.526066535920577

> <r_i_glide_metal>
0

> <r_i_glide_rewards>
-2.23500556225945

> <r_i_glide_evdw>
-39.8547744750977

> <r_i_glide_ecoul>
-4.70811939239502

> <r_i_glide_erotb>
0.53867452390385

> <r_i_glide_esite>
-0.0380763097185001

> <r_i_glide_emodel>
-56.0379103171125

> <r_i_glide_energy>
-44.5628938674927

> <r_i_glide_einternal>
7.86355924606323

> <i_i_glide_confnum>
21

> <i_i_glide_posenum>
43

> <r_i_glide_eff_state_penalty>
0

> <s_user_duplicate_titles>
CHEMBL260_lig472,13603

> <s_m_subgroup_title>
dock_pv

> <s_m_subgroupid>
dock_pv

> <b_m_subgroup_collapsed>
1

$$$$
CHEMBL260_lig1801
                    3D
 Schrodinger Suite 2021-1.
 39 42  0  0  1  0            999 V2000
   -1.5791    1.5310   26.3008 C   0  0  0  0  0  0
   -1.0843   -0.3569   24.8725 C   0  0  0  0  0  0
   -1.9004    0.7238   25.2123 C   0  0  0  0  0  0
   -0.4347    1.2734   27.0673 C   0  0  0  0  0  0
    0.3705    0.1737   26.7372 C   0  0  0  0  0  0
    0.0431   -0.6347   25.6523 C   0  0  0  0  0  0
   -1.4106   -1.2496   23.7161 C   0  0  0  0  0  0
   -5.1009    0.8770   15.8479 C   0  0  0  0  0  0
   -3.7991    1.3571   15.8864 C   0  0  0  0  0  0
   -3.2228    1.6872   17.1098 C   0  0  0  0  0  0
   -3.9401    1.5143   18.3045 C   0  0  0  0  0  0
   -5.2495    1.0395   18.2521 C   0  0  0  0  0  0
   -5.8348    0.7533   17.0228 C   0  0  0  0  0  0
   -3.2350    1.9301   19.8804 S   0  0  0  0  0  0
   -2.7597    0.3681   20.6043 C   0  0  0  0  0  0
   -2.8316   -0.8201   19.8765 C   0  0  0  0  0  0
   -2.4762   -2.0491   20.4347 C   0  0  0  0  0  0
   -2.2830    0.3323   21.9176 C   0  0  0  0  0  0
   -1.9292   -0.8742   22.4831 N   0  0  0  0  0  0
   -2.0281   -2.0808   21.7618 C   0  0  0  0  0  0
   -1.6350   -3.1122   22.5408 N   0  0  0  0  0  0
   -1.2401   -2.5598   23.7437 N   0  0  0  0  0  0
   -5.6350    0.4867   14.6760 F   0  0  0  0  0  0
   -5.9735    0.8770   19.3853 F   0  0  0  0  0  0
   -0.1111    2.1642   28.2456 C   0  0  0  0  0  0
    1.1618    2.2464   28.6366 N   0  0  0  0  0  0
   -0.9864    2.8121   28.8149 O   0  0  0  0  0  0
   -2.2297    2.3585   26.5469 H   0  0  0  0  0  0
   -2.7993    0.9316   24.6528 H   0  0  0  0  0  0
    1.2508   -0.0708   27.3171 H   0  0  0  0  0  0
    0.6806   -1.4754   25.4128 H   0  0  0  0  0  0
   -3.2367    1.4651   14.9697 H   0  0  0  0  0  0
   -2.2150    2.0733   17.0771 H   0  0  0  0  0  0
   -6.8350    0.3577   16.9911 H   0  0  0  0  0  0
   -3.1509   -0.7955   18.8510 H   0  0  0  0  0  0
   -2.5381   -2.9617   19.8593 H   0  0  0  0  0  0
   -2.1558    1.2187   22.5173 H   0  0  0  0  0  0
    1.3929    2.8328   29.4212 H   0  0  0  0  0  0
    1.9140    1.8013   28.1261 H   0  0  0  0  0  0
  1  4  2  0  0  0
  1  3  1  0  0  0
  1 28  1  0  0  0
  2  7  1  0  0  0
  2  3  2  0  0  0
  2  6  1  0  0  0
  3 29  1  0  0  0
  4  5  1  0  0  0
  4 25  1  0  0  0
  5  6  2  0  0  0
  5 30  1  0  0  0
  6 31  1  0  0  0
  7 19  1  0  0  0
  7 22  2  0  0  0
  8  9  2  0  0  0
  8 23  1  0  0  0
  8 13  1  0  0  0
  9 10  1  0  0  0
  9 32  1  0  0  0
 10 11  2  0  0  0
 10 33  1  0  0  0
 11 14  1  0  0  0
 11 12  1  0  0  0
 12 24  1  0  0  0
 12 13  2  0  0  0
 13 34  1  0  0  0
 14 15  1  0  0  0
 15 16  1  0  0  0
 15 18  2  0  0  0
 16 17  2  0  0  0
 16 35  1  0  0  0
 17 20  1  0  0  0
 17 36  1  0  0  0
 18 19  1  0  0  0
 18 37  1  0  0  0
 19 20  1  0  0  0
 20 21  2  0  0  0
 21 22  1  0  0  0
 25 26  1  0  0  0
 25 27  2  0  0  0
 26 38  1  0  0  0
 26 39  1  0  0  0
M  END
> <s_m_entry_id>
60866

> <s_m_entry_name>
dock_pv.143

> <s_m_Source_Path>
/home/csk/Desktop/cluster/DUD-E-result/mk14

> <s_m_Source_File>
dock_pv.maegz

> <i_m_Source_File_Index>
143

> <chembl_id>
CHEMBL593014

> <chembl_pref_name>
None

> <i_lp_mmshare_version>
53161

> <i_f3d_flags>
0

> <r_lp_tautomer_probability>
1

> <s_lp_Force_Field>
OPLS_2005

> <r_lp_Energy>
17.052667

> <b_lp_Chiralities_Consistent>
1

> <s_lp_Variant>
CHEMBL260_lig1801-1

> <s_i_glide_gridfile>
glide-grid_2qd9

> <i_i_glide_lignum>
2099

> <i_i_glide_rotatable_bonds>
4

> <r_i_docking_score>
-8.51329399233886

> <r_i_glide_ligand_efficiency>
-0.315307184901439

> <r_i_glide_ligand_efficiency_sa>
-0.945921553665117

> <r_i_glide_ligand_efficiency_ln>
-1.98175448879587

> <r_i_glide_gscore>
-8.51329399233886

> <r_i_glide_lipo>
-2.99695242981696

> <r_i_glide_hbond>
-0.114423142409175

> <r_i_glide_metal>
0

> <r_i_glide_rewards>
-2.53015274401694

> <r_i_glide_evdw>
-40.5869903564453

> <r_i_glide_ecoul>
-8.14941310882568

> <r_i_glide_erotb>
0.398462477986694

> <r_i_glide_esite>
-0.0184666699363605

> <r_i_glide_emodel>
-72.844223238369

> <r_i_glide_energy>
-48.736403465271

> <r_i_glide_einternal>
1.1101359128952

> <i_i_glide_confnum>
2

> <i_i_glide_posenum>
101

> <r_i_glide_eff_state_penalty>
0

> <s_user_duplicate_titles>
CHEMBL260_lig1801,593970

> <s_m_subgroup_title>
dock_pv

> <s_m_subgroupid>
dock_pv

> <b_m_subgroup_collapsed>
1

$$$$
CHEMBL260_lig1794
                    3D
 Schrodinger Suite 2021-1.
 41 44  0  0  1  0            999 V2000
   -1.7748    0.2759   25.1783 C   0  0  0  0  0  0
   -2.5153    1.4655   25.1009 C   0  0  0  0  0  0
   -2.2701    2.5548   25.9481 C   0  0  0  0  0  0
   -1.3144    2.4062   26.9619 C   0  0  0  0  0  0
   -0.6298    1.2050   27.1120 C   0  0  0  0  0  0
   -0.8450    0.1418   26.2311 C   0  0  0  0  0  0
   -1.9916   -0.7841   24.1211 C   0  0  0  0  0  0
   -5.1057    0.8408   15.8472 C   0  0  0  0  0  0
   -3.8099    1.3399   15.8812 C   0  0  0  0  0  0
   -3.2349    1.6873   17.0997 C   0  0  0  0  0  0
   -3.9419    1.5022   18.2955 C   0  0  0  0  0  0
   -5.2450    1.0011   18.2525 C   0  0  0  0  0  0
   -5.8355    0.7091   17.0246 C   0  0  0  0  0  0
   -3.2351    1.9950   19.8461 S   0  0  0  0  0  0
   -2.8699    0.4837   20.7064 C   0  0  0  0  0  0
   -2.9788   -0.7770   20.1144 C   0  0  0  0  0  0
   -2.7412   -1.9447   20.8457 C   0  0  0  0  0  0
   -2.4748    0.5816   22.0352 C   0  0  0  0  0  0
   -2.2990   -0.5571   22.7850 N   0  0  0  0  0  0
   -2.4157   -1.8366   22.2087 C   0  0  0  0  0  0
   -2.1687   -2.7750   23.1487 N   0  0  0  0  0  0
   -1.9291   -2.0888   24.3273 N   0  0  0  0  0  0
   -5.6348    0.4430   14.6756 F   0  0  0  0  0  0
   -5.9581    0.8246   19.3898 F   0  0  0  0  0  0
   -0.0198   -1.1179   26.4348 C   0  0  0  0  0  0
   -2.9784    3.8662   25.7060 C   0  0  0  0  0  0
   -3.6229    4.0856   24.6791 O   0  0  0  0  0  0
   -2.8351    4.7917   26.6959 O   0  0  0  0  0  0
   -3.2914    1.5568   24.3558 H   0  0  0  0  0  0
   -1.0619    3.2079   27.6409 H   0  0  0  0  0  0
    0.1014    1.1155   27.9041 H   0  0  0  0  0  0
   -3.2512    1.4543   14.9638 H   0  0  0  0  0  0
   -2.2380    2.1010   17.0762 H   0  0  0  0  0  0
   -6.8349    0.3064   16.9980 H   0  0  0  0  0  0
   -3.2518   -0.8707   19.0761 H   0  0  0  0  0  0
   -2.8297   -2.9154   20.3785 H   0  0  0  0  0  0
   -2.3185    1.5351   22.5104 H   0  0  0  0  0  0
    0.7655   -0.9790   27.1768 H   0  0  0  0  0  0
   -0.6594   -1.9352   26.7634 H   0  0  0  0  0  0
    0.4654   -1.4185   25.5058 H   0  0  0  0  0  0
   -2.3781    4.4275   27.4532 H   0  0  0  0  0  0
  1  7  1  0  0  0
  1  6  1  0  0  0
  1  2  2  0  0  0
  2  3  1  0  0  0
  2 29  1  0  0  0
  3  4  2  0  0  0
  3 26  1  0  0  0
  4  5  1  0  0  0
  4 30  1  0  0  0
  5  6  2  0  0  0
  5 31  1  0  0  0
  6 25  1  0  0  0
  7 19  1  0  0  0
  7 22  2  0  0  0
  8  9  2  0  0  0
  8 23  1  0  0  0
  8 13  1  0  0  0
  9 10  1  0  0  0
  9 32  1  0  0  0
 10 11  2  0  0  0
 10 33  1  0  0  0
 11 14  1  0  0  0
 11 12  1  0  0  0
 12 24  1  0  0  0
 12 13  2  0  0  0
 13 34  1  0  0  0
 14 15  1  0  0  0
 15 16  1  0  0  0
 15 18  2  0  0  0
 16 17  2  0  0  0
 16 35  1  0  0  0
 17 20  1  0  0  0
 17 36  1  0  0  0
 18 19  1  0  0  0
 18 37  1  0  0  0
 19 20  1  0  0  0
 20 21  2  0  0  0
 21 22  1  0  0  0
 25 38  1  0  0  0
 25 39  1  0  0  0
 25 40  1  0  0  0
 26 27  2  0  0  0
 26 28  1  0  0  0
 28 41  1  0  0  0
M  END
> <s_m_entry_id>
60867

> <s_m_entry_name>
dock_pv.144

> <s_m_Source_Path>
/home/csk/Desktop/cluster/DUD-E-result/mk14

> <s_m_Source_File>
dock_pv.maegz

> <i_m_Source_File_Index>
144

> <chembl_id>
CHEMBL592990

> <chembl_pref_name>
None

> <i_lp_mmshare_version>
53161

> <i_f3d_flags>
0

> <r_lp_tautomer_probability>
1

> <s_lp_Force_Field>
OPLS_2005

> <r_lp_Energy>
19.313618

> <b_lp_Chiralities_Consistent>
1

> <s_lp_Variant>
CHEMBL260_lig1794-1

> <s_i_glide_gridfile>
glide-grid_2qd9

> <i_i_glide_lignum>
2092

> <i_i_glide_rotatable_bonds>
5

> <r_i_docking_score>
-8.51173956230598

> <r_i_glide_ligand_efficiency>
-0.303990698653785

> <r_i_glide_ligand_efficiency_sa>
-0.923094802059548

> <r_i_glide_ligand_efficiency_ln>
-1.96475940651328

> <r_i_glide_gscore>
-8.51173956230598

> <r_i_glide_lipo>
-3.1158329403632

> <r_i_glide_hbond>
-0.16

> <r_i_glide_metal>
0

> <r_i_glide_rewards>
-2.34504044500094

> <r_i_glide_evdw>
-41.983154296875

> <r_i_glide_ecoul>
-8.37799739837646

> <r_i_glide_erotb>
0.495786324709436

> <r_i_glide_esite>
-0.0307951770510654

> <r_i_glide_emodel>
-74.4205165993899

> <r_i_glide_energy>
-50.3611516952515

> <r_i_glide_einternal>
3.6904194355011

> <i_i_glide_confnum>
47

> <i_i_glide_posenum>
279

> <r_i_glide_eff_state_penalty>
0

> <s_user_duplicate_titles>
CHEMBL260_lig1794

> <s_m_subgroup_title>
dock_pv

> <s_m_subgroupid>
dock_pv

> <b_m_subgroup_collapsed>
1

$$$$
CHEMBL260_lig274
                    3D
 Schrodinger Suite 2021-1.
 38 40  0  0  1  0            999 V2000
   -2.1118   -1.0679   22.4777 C   0  0  0  0  0  0
   -1.6593   -1.9161   23.6318 C   0  0  0  0  0  0
   -2.1779   -1.5318   21.1467 C   0  0  0  0  0  0
   -3.3282    1.5679   19.4243 N   0  0  0  0  0  0
   -2.6495   -0.6859   20.1353 C   0  0  0  0  0  0
   -2.4609    0.2651   22.7399 C   0  0  0  0  0  0
   -3.9373    1.3456   18.1784 C   0  0  0  0  0  0
   -2.9625    0.6478   20.4131 C   0  0  0  0  0  0
   -2.0350   -3.0876   23.7376 O   0  0  0  0  0  0
   -0.8922   -1.2614   24.7399 C   0  0  0  0  0  0
   -5.2610    0.8870   18.0542 C   0  0  0  0  0  0
   -1.6388   -3.1132   20.6888 Cl  0  0  0  0  0  0
   -2.8350    1.1192   21.7132 C   0  0  0  0  0  0
   -6.0244    0.4871   19.1545 N   0  0  0  0  0  0
   -3.2319    1.6874   17.0208 C   0  0  0  0  0  0
    0.1007   -0.3131   24.4564 C   0  0  0  0  0  0
   -1.1679   -1.5910   26.0724 C   0  0  0  0  0  0
   -5.8375    0.7794   16.7888 C   0  0  0  0  0  0
   -3.8076    1.5538   15.7614 C   0  0  0  0  0  0
   -0.4856   -0.9600   27.1090 C   0  0  0  0  0  0
   -5.1165    1.1014   15.6447 C   0  0  0  0  0  0
    0.7667    0.3296   25.4945 C   0  0  0  0  0  0
    0.4758    0.0025   26.8158 C   0  0  0  0  0  0
   -2.7954    2.4224   19.4777 H   0  0  0  0  0  0
   -2.7041   -1.0487   19.1195 H   0  0  0  0  0  0
   -2.4213    0.6691   23.7424 H   0  0  0  0  0  0
   -3.0526    2.1473   21.9465 H   0  0  0  0  0  0
   -6.8460   -0.0793   18.9837 H   0  0  0  0  0  0
   -5.5507    0.4493   20.0457 H   0  0  0  0  0  0
   -2.2210    2.0607   17.0759 H   0  0  0  0  0  0
    0.3519   -0.0533   23.4373 H   0  0  0  0  0  0
   -1.9240   -2.3222   26.3185 H   0  0  0  0  0  0
   -6.8350    0.3892   16.6872 H   0  0  0  0  0  0
   -3.2368    1.8020   14.8792 H   0  0  0  0  0  0
   -0.6985   -1.2187   28.1364 H   0  0  0  0  0  0
   -5.5711    0.9871   14.6737 H   0  0  0  0  0  0
    1.5260    1.0680   25.2775 H   0  0  0  0  0  0
    1.0135    0.4894   27.6176 H   0  0  0  0  0  0
  1  2  1  0  0  0
  1  3  1  0  0  0
  1  6  2  0  0  0
  2  9  2  0  0  0
  2 10  1  0  0  0
  3  5  2  0  0  0
  3 12  1  0  0  0
  4  8  1  0  0  0
  4  7  1  0  0  0
  4 24  1  0  0  0
  5  8  1  0  0  0
  5 25  1  0  0  0
  6 13  1  0  0  0
  6 26  1  0  0  0
  7 11  2  0  0  0
  7 15  1  0  0  0
  8 13  2  0  0  0
 10 16  1  0  0  0
 10 17  2  0  0  0
 11 14  1  0  0  0
 11 18  1  0  0  0
 13 27  1  0  0  0
 14 28  1  0  0  0
 14 29  1  0  0  0
 15 19  2  0  0  0
 15 30  1  0  0  0
 16 22  2  0  0  0
 16 31  1  0  0  0
 17 20  1  0  0  0
 17 32  1  0  0  0
 18 21  2  0  0  0
 18 33  1  0  0  0
 19 21  1  0  0  0
 19 34  1  0  0  0
 20 23  2  0  0  0
 20 35  1  0  0  0
 21 36  1  0  0  0
 22 23  1  0  0  0
 22 37  1  0  0  0
 23 38  1  0  0  0
M  END
> <s_m_entry_id>
60868

> <s_m_entry_name>
dock_pv.145

> <s_m_Source_Path>
/home/csk/Desktop/cluster/DUD-E-result/mk14

> <s_m_Source_File>
dock_pv.maegz

> <i_m_Source_File_Index>
145

> <chembl_id>
CHEMBL155448

> <chembl_pref_name>
None

> <i_lp_mmshare_version>
53161

> <i_f3d_flags>
0

> <r_lp_tautomer_probability>
1

> <s_lp_Force_Field>
OPLS_2005

> <r_lp_Energy>
29.491511

> <b_lp_Chiralities_Consistent>
1

> <s_lp_Variant>
CHEMBL260_lig274-1

> <s_i_glide_gridfile>
glide-grid_2qd9

> <i_i_glide_lignum>
325

> <i_i_glide_rotatable_bonds>
4

> <r_i_docking_score>
-8.51067439901925

> <r_i_glide_ligand_efficiency>
-0.370029321696489

> <r_i_glide_ligand_efficiency_sa>
-1.05231416844968

> <r_i_glide_ligand_efficiency_ln>
-2.05795824021171

> <r_i_glide_gscore>
-8.51067439901925

> <r_i_glide_lipo>
-3.72899499611891

> <r_i_glide_hbond>
-0.595694286310712

> <r_i_glide_metal>
0

> <r_i_glide_rewards>
-2.09729328262292

> <r_i_glide_evdw>
-41.4728698730469

> <r_i_glide_ecoul>
-4.88767051696777

> <r_i_glide_erotb>
0.718102237230805

> <r_i_glide_esite>
0

> <r_i_glide_emodel>
-60.5189380229095

> <r_i_glide_energy>
-46.3605403900146

> <r_i_glide_einternal>
12.3089056015015

> <i_i_glide_confnum>
42

> <i_i_glide_posenum>
352

> <r_i_glide_eff_state_penalty>
0

> <s_user_duplicate_titles>
CHEMBL260_lig274,254329

> <s_m_subgroup_title>
dock_pv

> <s_m_subgroupid>
dock_pv

> <b_m_subgroup_collapsed>
1

$$$$
CHEMBL260_lig468
                    3D
 Schrodinger Suite 2021-1.
 54 58  0  0  1  0            999 V2000
   -2.5868    1.0995   21.2830 C   0  0  0  0  0  0
   -2.0350    2.0457   22.1469 N   0  0  0  0  0  0
   -2.6580    3.1198   20.2759 N   0  0  0  0  0  0
   -3.0372    1.8573   20.1820 C   0  0  0  0  0  0
   -2.0351    3.2078   21.4161 C   0  0  0  0  0  0
   -2.5600   -0.3947   21.4796 C   0  0  0  0  0  0
   -2.4749   -0.8833   22.7475 N   0  0  0  0  0  0
   -2.2205   -2.2155   22.8868 C   0  0  0  0  0  0
   -3.8498    1.4481   18.9920 C   0  0  0  0  0  0
   -2.0743   -3.1014   21.8739 N   0  0  0  0  0  0
   -1.4620    1.8642   23.4975 C   0  0  0  0  0  0
   -2.0349   -2.7547   24.1443 O   0  0  0  0  0  0
   -1.9717    3.9963   25.4764 N   0  0  1  0  0  0
   -1.7820   -1.9629   25.2405 C   0  0  0  0  0  0
   -0.5707   -1.2772   25.3595 C   0  0  0  0  0  0
   -2.4357   -1.2423   20.3711 C   0  0  0  0  0  0
   -3.3923    1.6865   17.6864 C   0  0  0  0  0  0
   -5.1166    0.8871   19.1844 C   0  0  0  0  0  0
   -2.1827   -2.5928   20.6208 C   0  0  0  0  0  0
   -0.3003   -0.5311   26.5049 C   0  0  0  0  0  0
   -5.4666    0.8869   16.7974 C   0  0  0  0  0  0
   -0.3630    2.8629   23.9280 C   0  0  0  0  0  0
   -2.5584    1.7694   24.5789 C   0  0  0  0  0  0
   -4.1925    1.3921   16.5920 C   0  0  0  0  0  0
   -5.9406    0.6411   18.0866 C   0  0  0  0  0  0
   -6.2106    0.5577   15.7233 F   0  0  0  0  0  0
    0.8749    0.1565   26.5986 O   0  0  0  0  0  0
   -3.0756    3.1487   25.0221 C   0  0  0  0  0  0
   -0.9004    4.1975   24.4964 C   0  0  0  0  0  0
   -2.4349   -1.1718   27.4322 C   0  0  0  0  0  0
   -2.7108   -1.9090   26.2798 C   0  0  0  0  0  0
   -1.2273   -0.4827   27.5451 C   0  0  0  0  0  0
   -1.4849    4.0667   21.7648 H   0  0  0  0  0  0
   -0.9402    0.9139   23.4082 H   0  0  0  0  0  0
   -2.2975    4.8686   25.8687 H   0  0  0  0  0  0
    0.1612   -1.3289   24.5672 H   0  0  0  0  0  0
   -2.4618   -0.8683   19.3593 H   0  0  0  0  0  0
   -2.4348    2.1350   17.4822 H   0  0  0  0  0  0
   -5.4812    0.6918   20.1821 H   0  0  0  0  0  0
   -2.0366   -3.2893   19.8075 H   0  0  0  0  0  0
    0.2872    2.3959   24.6701 H   0  0  0  0  0  0
    0.3343    3.0336   23.1069 H   0  0  0  0  0  0
   -3.3868    1.1499   24.2367 H   0  0  0  0  0  0
   -2.1958    1.2149   25.4425 H   0  0  0  0  0  0
   -3.8343    1.5687   15.5882 H   0  0  0  0  0  0
   -6.9256    0.2194   18.2251 H   0  0  0  0  0  0
    1.0227    0.5682   27.4541 H   0  0  0  0  0  0
   -3.7975    3.0374   25.8337 H   0  0  0  0  0  0
   -3.5885    3.6439   24.1963 H   0  0  0  0  0  0
   -0.0873    4.7216   25.0010 H   0  0  0  0  0  0
   -1.2496    4.8630   23.7089 H   0  0  0  0  0  0
   -3.1491   -1.1439   28.2412 H   0  0  0  0  0  0
   -3.6351   -2.4570   26.2000 H   0  0  0  0  0  0
   -1.0169    0.0857   28.4389 H   0  0  0  0  0  0
  1  2  1  0  0  0
  1  4  2  0  0  0
  1  6  1  0  0  0
  2  5  1  0  0  0
  2 11  1  0  0  0
  3  4  1  0  0  0
  3  5  2  0  0  0
  4  9  1  0  0  0
  5 33  1  0  0  0
  6  7  1  0  0  0
  6 16  2  0  0  0
  7  8  2  0  0  0
  8 12  1  0  0  0
  8 10  1  0  0  0
  9 17  1  0  0  0
  9 18  2  0  0  0
 10 19  2  0  0  0
 11 22  1  0  0  0
 11 23  1  0  0  0
 11 34  1  0  0  0
 12 14  1  0  0  0
 13 28  1  0  0  0
 13 29  1  0  0  0
 13 35  1  0  0  0
 14 15  1  0  0  0
 14 31  2  0  0  0
 15 20  2  0  0  0
 15 36  1  0  0  0
 16 19  1  0  0  0
 16 37  1  0  0  0
 17 24  2  0  0  0
 17 38  1  0  0  0
 18 25  1  0  0  0
 18 39  1  0  0  0
 19 40  1  0  0  0
 20 27  1  0  0  0
 20 32  1  0  0  0
 21 25  2  0  0  0
 21 26  1  0  0  0
 21 24  1  0  0  0
 22 29  1  0  0  0
 22 41  1  0  0  0
 22 42  1  0  0  0
 23 28  1  0  0  0
 23 43  1  0  0  0
 23 44  1  0  0  0
 24 45  1  0  0  0
 25 46  1  0  0  0
 27 47  1  0  0  0
 28 48  1  0  0  0
 28 49  1  0  0  0
 29 50  1  0  0  0
 29 51  1  0  0  0
 30 31  1  0  0  0
 30 32  2  0  0  0
 30 52  1  0  0  0
 31 53  1  0  0  0
 32 54  1  0  0  0
M  END
> <s_m_entry_id>
60869

> <s_m_entry_name>
dock_pv.146

> <s_m_Source_Path>
/home/csk/Desktop/cluster/DUD-E-result/mk14

> <s_m_Source_File>
dock_pv.maegz

> <i_m_Source_File_Index>
146

> <chembl_id>
CHEMBL14125

> <chembl_pref_name>
None

> <i_lp_mmshare_version>
53161

> <i_f3d_flags>
0

> <r_lp_tautomer_probability>
1

> <s_lp_Force_Field>
OPLS_2005

> <r_lp_Energy>
35.570088

> <b_lp_Chiralities_Consistent>
1

> <s_lp_Variant>
CHEMBL260_lig468-1

> <s_i_glide_gridfile>
glide-grid_2qd9

> <i_i_glide_lignum>
538

> <i_i_glide_rotatable_bonds>
6

> <r_i_docking_score>
-8.501675663628

> <r_i_glide_ligand_efficiency>
-0.265677364488375

> <r_i_glide_ligand_efficiency_sa>
-0.843473054771553

> <r_i_glide_ligand_efficiency_ln>
-1.90375692801225

> <r_i_glide_gscore>
-8.501675663628

> <r_i_glide_lipo>
-3.5826527354143

> <r_i_glide_hbond>
-0.503298576911892

> <r_i_glide_metal>
0

> <r_i_glide_rewards>
-2.2205836330848

> <r_i_glide_evdw>
-41.9343643188477

> <r_i_glide_ecoul>
-3.96028852462769

> <r_i_glide_erotb>
0.534221035920535

> <r_i_glide_esite>
-0.038600259501007

> <r_i_glide_emodel>
-63.9161361366735

> <r_i_glide_energy>
-45.8946528434753

> <r_i_glide_einternal>
6.3483567237854

> <i_i_glide_confnum>
168

> <i_i_glide_posenum>
336

> <r_i_glide_eff_state_penalty>
0

> <s_user_duplicate_titles>
CHEMBL260_lig468,13689

> <s_m_subgroup_title>
dock_pv

> <s_m_subgroupid>
dock_pv

> <b_m_subgroup_collapsed>
1

$$$$
CHEMBL260_lig944
                    3D
 Schrodinger Suite 2021-1.
 33 35  0  0  1  0            999 V2000
   -1.9151   -2.2254   21.7208 C   0  0  0  0  0  0
   -2.0385   -2.2387   20.2759 C   0  0  0  0  0  0
   -2.4342   -1.1536   19.5685 C   0  0  0  0  0  0
   -2.7496    0.0869   20.2258 C   0  0  0  0  0  0
   -2.5625    0.1780   21.4951 N   0  0  0  0  0  0
   -2.0986   -0.9444   22.2132 N   0  0  0  0  0  0
   -1.9279   -0.7299   23.5882 C   0  0  0  0  0  0
   -0.6379   -0.5106   24.0929 C   0  0  0  0  0  0
   -0.4377   -0.3824   25.4670 C   0  0  0  0  0  0
   -1.5207   -0.4732   26.3408 C   0  0  0  0  0  0
   -2.8060   -0.6878   25.8413 C   0  0  0  0  0  0
   -3.0181   -0.8166   24.4671 C   0  0  0  0  0  0
   -4.6180   -1.1133   23.8760 Cl  0  0  0  0  0  0
   -1.7024   -3.2505   22.3776 O   0  0  0  0  0  0
   -3.2350    1.1739   19.5164 N   0  0  0  0  0  0
   -3.8399    1.1605   18.2431 C   0  0  0  0  0  0
   -5.2099    0.8870   18.1135 C   0  0  0  0  0  0
   -5.7995    0.8870   16.8519 C   0  0  0  0  0  0
   -5.0602    1.1610   15.7084 C   0  0  0  0  0  0
   -3.7051    1.4369   15.8233 C   0  0  0  0  0  0
   -3.0994    1.4340   17.0762 C   0  0  0  0  0  0
   -6.2035    0.4993   19.4760 Cl  0  0  0  0  0  0
   -1.7887   -3.1589   19.7679 H   0  0  0  0  0  0
   -2.4348   -1.2210   18.4968 H   0  0  0  0  0  0
    0.2123   -0.4561   23.4271 H   0  0  0  0  0  0
    0.5584   -0.2223   25.8555 H   0  0  0  0  0  0
   -1.3620   -0.3822   27.4057 H   0  0  0  0  0  0
   -3.6351   -0.7671   26.5264 H   0  0  0  0  0  0
   -3.5353    1.9352   20.1029 H   0  0  0  0  0  0
   -6.8350    0.6357   16.7583 H   0  0  0  0  0  0
   -5.5335    1.1459   14.7375 H   0  0  0  0  0  0
   -3.1197    1.6461   14.9400 H   0  0  0  0  0  0
   -2.0405    1.6422   17.0760 H   0  0  0  0  0  0
  1  6  1  0  0  0
  1  2  1  0  0  0
  1 14  2  0  0  0
  2  3  2  0  0  0
  2 23  1  0  0  0
  3  4  1  0  0  0
  3 24  1  0  0  0
  4 15  1  0  0  0
  4  5  2  0  0  0
  5  6  1  0  0  0
  6  7  1  0  0  0
  7 12  1  0  0  0
  7  8  2  0  0  0
  8  9  1  0  0  0
  8 25  1  0  0  0
  9 10  2  0  0  0
  9 26  1  0  0  0
 10 11  1  0  0  0
 10 27  1  0  0  0
 11 12  2  0  0  0
 11 28  1  0  0  0
 12 13  1  0  0  0
 15 16  1  0  0  0
 15 29  1  0  0  0
 16 17  2  0  0  0
 16 21  1  0  0  0
 17 18  1  0  0  0
 17 22  1  0  0  0
 18 19  2  0  0  0
 18 30  1  0  0  0
 19 20  1  0  0  0
 19 31  1  0  0  0
 20 21  2  0  0  0
 20 32  1  0  0  0
 21 33  1  0  0  0
M  END
> <s_m_entry_id>
60870

> <s_m_entry_name>
dock_pv.147

> <s_m_Source_Path>
/home/csk/Desktop/cluster/DUD-E-result/mk14

> <s_m_Source_File>
dock_pv.maegz

> <i_m_Source_File_Index>
147

> <chembl_id>
CHEMBL222109

> <chembl_pref_name>
None

> <i_lp_mmshare_version>
53161

> <i_f3d_flags>
0

> <r_lp_tautomer_probability>
0.999999999999446

> <s_lp_Force_Field>
OPLS_2005

> <r_lp_Energy>
41.607693

> <b_lp_Chiralities_Consistent>
1

> <s_lp_Variant>
CHEMBL260_lig944-1

> <s_i_glide_gridfile>
glide-grid_2qd9

> <i_i_glide_lignum>
1047

> <i_i_glide_rotatable_bonds>
3

> <r_i_docking_score>
-8.49562368530198

> <r_i_glide_ligand_efficiency>
-0.386164712968272

> <r_i_glide_ligand_efficiency_sa>
-1.08204871273346

> <r_i_glide_ligand_efficiency_ln>
-2.07664031409108

> <r_i_glide_gscore>
-8.49562368530198

> <r_i_glide_lipo>
-3.81657096671083

> <r_i_glide_hbond>
-0.32

> <r_i_glide_metal>
0

> <r_i_glide_rewards>
-2.04418544353433

> <r_i_glide_evdw>
-39.372314453125

> <r_i_glide_ecoul>
-5.72145128250122

> <r_i_glide_erotb>
0.511966139974621

> <r_i_glide_esite>
0

> <r_i_glide_emodel>
-63.3892543149786

> <r_i_glide_energy>
-45.0937657356262

> <r_i_glide_einternal>
7.49270343780518

> <i_i_glide_confnum>
26

> <i_i_glide_posenum>
337

> <r_i_glide_eff_state_penalty>
0

> <s_user_duplicate_titles>
CHEMBL260_lig944,368264

> <s_m_subgroup_title>
dock_pv

> <s_m_subgroupid>
dock_pv

> <b_m_subgroup_collapsed>
1

$$$$
CHEMBL260_lig1247
                    3D
 Schrodinger Suite 2021-1.
 41 44  0  0  1  0            999 V2000
   -1.7871   -2.1342   22.2556 C   0  0  0  0  0  0
   -1.8651   -2.2091   20.7184 C   0  0  1  0  0  0
   -2.9460   -1.2478   20.1603 C   0  0  0  0  0  0
   -1.7870   -0.8422   22.7133 N   0  0  0  0  0  0
   -2.1885    0.3117   21.9544 C   0  0  0  0  0  0
   -2.7699    0.1750   20.6669 C   0  0  0  0  0  0
   -3.1346    1.3195   19.9060 C   0  0  0  0  0  0
   -2.8350    2.5784   20.4281 C   0  0  0  0  0  0
   -2.2893    2.7166   21.6983 C   0  0  0  0  0  0
   -1.9872    1.6013   22.4599 C   0  0  0  0  0  0
   -1.6933   -3.1519   22.9520 O   0  0  0  0  0  0
   -0.5560   -1.9129   20.2760 O   0  0  0  0  0  0
   -1.4173   -0.6873   24.0789 C   0  0  0  0  0  0
   -2.3906   -0.8033   25.0837 C   0  0  0  0  0  0
   -2.0345   -0.6957   26.4283 C   0  0  0  0  0  0
   -0.7065   -0.4716   26.7848 C   0  0  0  0  0  0
    0.2674   -0.3504   25.7963 C   0  0  0  0  0  0
   -0.0760   -0.4589   24.4478 C   0  0  0  0  0  0
    1.1854   -0.3130   23.2745 Cl  0  0  0  0  0  0
   -4.0350   -1.1130   24.6760 Cl  0  0  0  0  0  0
   -3.8469    1.2678   18.5786 C   0  0  0  0  0  0
   -3.2350    1.6870   17.3842 C   0  0  0  0  0  0
   -3.8821    1.6791   16.1521 C   0  0  0  0  0  0
   -5.2005    1.2652   16.0821 C   0  0  0  0  0  0
   -5.8441    0.8870   17.2514 C   0  0  0  0  0  0
   -5.1904    0.8870   18.4820 C   0  0  0  0  0  0
   -6.1094    0.4870   19.8760 Cl  0  0  0  0  0  0
   -2.0831   -3.2379   20.4301 H   0  0  0  0  0  0
   -3.9360   -1.5921   20.4514 H   0  0  0  0  0  0
   -2.9148   -1.2676   19.0760 H   0  0  0  0  0  0
   -3.0711    3.4663   19.8635 H   0  0  0  0  0  0
   -2.0786    3.6870   22.1062 H   0  0  0  0  0  0
   -1.5472    1.7631   23.4327 H   0  0  0  0  0  0
   -0.5234   -1.9928   19.3191 H   0  0  0  0  0  0
   -2.7858   -0.7964   27.1978 H   0  0  0  0  0  0
   -0.4285   -0.3964   27.8265 H   0  0  0  0  0  0
    1.2961   -0.1819   26.0805 H   0  0  0  0  0  0
   -2.2323    2.0560   17.3607 H   0  0  0  0  0  0
   -3.3636    1.9997   15.2593 H   0  0  0  0  0  0
   -5.7171    1.2393   15.1341 H   0  0  0  0  0  0
   -6.8484    0.5353   17.2032 H   0  0  0  0  0  0
  1  4  1  0  0  0
  1 11  2  0  0  0
  1  2  1  0  0  0
  2  3  1  0  0  0
  2 12  1  0  0  0
  2 28  1  0  0  0
  3  6  1  0  0  0
  3 29  1  0  0  0
  3 30  1  0  0  0
  4 13  1  0  0  0
  4  5  1  0  0  0
  5 10  1  0  0  0
  5  6  2  0  0  0
  6  7  1  0  0  0
  7  8  2  0  0  0
  7 21  1  0  0  0
  8  9  1  0  0  0
  8 31  1  0  0  0
  9 10  2  0  0  0
  9 32  1  0  0  0
 10 33  1  0  0  0
 12 34  1  0  0  0
 13 14  2  0  0  0
 13 18  1  0  0  0
 14 15  1  0  0  0
 14 20  1  0  0  0
 15 16  2  0  0  0
 15 35  1  0  0  0
 16 17  1  0  0  0
 16 36  1  0  0  0
 17 18  2  0  0  0
 17 37  1  0  0  0
 18 19  1  0  0  0
 21 22  2  0  0  0
 21 26  1  0  0  0
 22 23  1  0  0  0
 22 38  1  0  0  0
 23 24  2  0  0  0
 23 39  1  0  0  0
 24 25  1  0  0  0
 24 40  1  0  0  0
 25 26  2  0  0  0
 25 41  1  0  0  0
 26 27  1  0  0  0
M  END
> <s_m_entry_id>
60871

> <s_m_entry_name>
dock_pv.148

> <s_m_Source_Path>
/home/csk/Desktop/cluster/DUD-E-result/mk14

> <s_m_Source_File>
dock_pv.maegz

> <i_m_Source_File_Index>
148

> <chembl_id>
CHEMBL404023

> <chembl_pref_name>
None

> <i_lp_mmshare_version>
53161

> <i_f3d_flags>
0

> <r_lp_tautomer_probability>
1

> <s_lp_Force_Field>
OPLS_2005

> <r_lp_Energy>
49.286613

> <b_lp_Chiralities_Consistent>
1

> <s_lp_Variant>
CHEMBL260_lig1247-1

> <s_i_glide_gridfile>
glide-grid_2qd9

> <i_i_glide_lignum>
1422

> <i_i_glide_rotatable_bonds>
3

> <r_i_docking_score>
-8.47612778771488

> <r_i_glide_ligand_efficiency>
-0.313930658804255

> <r_i_glide_ligand_efficiency_sa>
-0.9417919753781

> <r_i_glide_ligand_efficiency_ln>
-1.97310280909218

> <r_i_glide_gscore>
-8.47612778771488

> <r_i_glide_lipo>
-4.27355339572018

> <r_i_glide_hbond>
-0.361930609179416

> <r_i_glide_metal>
0

> <r_i_glide_rewards>
-1.30379130314476

> <r_i_glide_evdw>
-39.0343933105469

> <r_i_glide_ecoul>
-5.40501976013184

> <r_i_glide_erotb>
0.225620149876591

> <r_i_glide_esite>
0

> <r_i_glide_emodel>
-58.4384477178564

> <r_i_glide_energy>
-44.4394130706787

> <r_i_glide_einternal>
0.373933851718903

> <i_i_glide_confnum>
6

> <i_i_glide_posenum>
195

> <r_i_glide_eff_state_penalty>
0

> <s_user_duplicate_titles>
CHEMBL260_lig1247

> <s_m_subgroup_title>
dock_pv

> <s_m_subgroupid>
dock_pv

> <b_m_subgroup_collapsed>
1

$$$$
CHEMBL260_lig1637
                    3D
 Schrodinger Suite 2021-1.
 39 41  0  0  1  0            999 V2000
    0.7650   -0.1054   26.0243 C   0  0  0  0  0  0
    1.2749   -0.0464   24.7317 C   0  0  0  0  0  0
    0.5017   -0.4665   23.6595 C   0  0  0  0  0  0
   -0.8026   -0.9324   23.8526 C   0  0  0  0  0  0
   -1.3285   -0.9862   25.1657 C   0  0  0  0  0  0
   -0.5227   -0.5836   26.2412 C   0  0  0  0  0  0
   -1.6107   -1.2322   22.6248 C   0  0  0  0  0  0
   -2.1064   -0.0577   21.8018 C   0  0  0  0  0  0
   -1.8468   -2.4049   22.3241 O   0  0  0  0  0  0
   -2.0342    1.2152   22.3894 C   0  0  0  0  0  0
   -2.4323    2.3333   21.6831 C   0  0  0  0  0  0
   -2.8984    2.2102   20.4348 N   0  3  0  0  0  0
   -3.0654    1.0151   19.8100 C   0  0  0  0  0  0
   -2.6648   -0.1546   20.4988 C   0  0  0  0  0  0
   -3.2328    3.2866   19.8759 O   0  5  0  0  0  0
   -2.8296   -1.3931   19.8756 N   0  0  0  0  0  0
   -3.7659    1.0374   18.4739 C   0  0  0  0  0  0
   -5.1542    0.8799   18.4289 C   0  0  0  0  0  0
   -5.8261    0.8871   17.2111 C   0  0  0  0  0  0
   -5.1556    1.0986   16.0128 C   0  0  0  0  0  0
   -3.7824    1.2889   16.0355 C   0  0  0  0  0  0
   -3.1014    1.2566   17.2502 C   0  0  0  0  0  0
   -6.0618    0.5886   19.8670 Cl  0  0  0  0  0  0
   -2.7582   -1.4461   25.4464 C   0  0  0  0  0  0
   -2.8349   -2.7134   25.0762 F   0  0  0  0  0  0
   -3.0997   -1.3709   26.7338 F   0  0  0  0  0  0
   -3.6345   -0.7283   24.7430 F   0  0  0  0  0  0
    1.3726    0.2139   26.8599 H   0  0  0  0  0  0
    2.2733    0.3267   24.5566 H   0  0  0  0  0  0
    0.9297   -0.3922   22.6756 H   0  0  0  0  0  0
   -0.8903   -0.6215   27.2570 H   0  0  0  0  0  0
   -1.6576    1.3742   23.3905 H   0  0  0  0  0  0
   -2.3728    3.3353   22.0784 H   0  0  0  0  0  0
   -3.2999   -1.4473   18.9842 H   0  0  0  0  0  0
   -2.6049   -2.2311   20.4000 H   0  0  0  0  0  0
   -6.8738    0.7045   17.2047 H   0  0  0  0  0  0
   -5.6919    1.1010   15.0755 H   0  0  0  0  0  0
   -3.2411    1.4465   15.1132 H   0  0  0  0  0  0
   -2.0363    1.3782   17.1791 H   0  0  0  0  0  0
  1  2  2  0  0  0
  1  6  1  0  0  0
  1 28  1  0  0  0
  2  3  1  0  0  0
  2 29  1  0  0  0
  3  4  2  0  0  0
  3 30  1  0  0  0
  4  7  1  0  0  0
  4  5  1  0  0  0
  5  6  2  0  0  0
  5 24  1  0  0  0
  6 31  1  0  0  0
  7  8  1  0  0  0
  7  9  2  0  0  0
  8 14  1  0  0  0
  8 10  2  0  0  0
 10 11  1  0  0  0
 10 32  1  0  0  0
 11 12  2  0  0  0
 11 33  1  0  0  0
 12 15  1  0  0  0
 12 13  1  0  0  0
 13 14  2  0  0  0
 13 17  1  0  0  0
 14 16  1  0  0  0
 16 34  1  0  0  0
 16 35  1  0  0  0
 17 18  2  0  0  0
 17 22  1  0  0  0
 18 19  1  0  0  0
 18 23  1  0  0  0
 19 20  2  0  0  0
 19 36  1  0  0  0
 20 21  1  0  0  0
 20 37  1  0  0  0
 21 22  2  0  0  0
 21 38  1  0  0  0
 22 39  1  0  0  0
 24 25  1  0  0  0
 24 26  1  0  0  0
 24 27  1  0  0  0
M  CHG  2  12   1  15  -1
M  END
> <s_m_entry_id>
60872

> <s_m_entry_name>
dock_pv.149

> <s_m_Source_Path>
/home/csk/Desktop/cluster/DUD-E-result/mk14

> <s_m_Source_File>
dock_pv.maegz

> <i_m_Source_File_Index>
149

> <chembl_id>
CHEMBL563749

> <chembl_pref_name>
None

> <i_lp_mmshare_version>
53161

> <i_f3d_flags>
0

> <r_lp_tautomer_probability>
1

> <s_lp_Force_Field>
OPLS_2005

> <r_lp_Energy>
40.168273

> <b_lp_Chiralities_Consistent>
1

> <s_lp_Variant>
CHEMBL260_lig1637-1

> <s_i_glide_gridfile>
glide-grid_2qd9

> <i_i_glide_lignum>
1889

> <i_i_glide_rotatable_bonds>
4

> <r_i_docking_score>
-8.47542061909031

> <r_i_glide_ligand_efficiency>
-0.313904467373715

> <r_i_glide_ligand_efficiency_sa>
-0.941713401086568

> <r_i_glide_ligand_efficiency_ln>
-1.97293819189496

> <r_i_glide_gscore>
-8.47542061909031

> <r_i_glide_lipo>
-3.94666850215877

> <r_i_glide_hbond>
0

> <r_i_glide_metal>
0

> <r_i_glide_rewards>
-1.60494077820438

> <r_i_glide_evdw>
-34.4575958251953

> <r_i_glide_ecoul>
-10.5380487442017

> <r_i_glide_erotb>
0.379775764162856

> <r_i_glide_esite>
0

> <r_i_glide_emodel>
-58.7811679813075

> <r_i_glide_energy>
-44.995644569397

> <r_i_glide_einternal>
6.00929880142212

> <i_i_glide_confnum>
17

> <i_i_glide_posenum>
33

> <r_i_glide_eff_state_penalty>
0

> <s_user_duplicate_titles>
CHEMBL260_lig1637

> <s_m_subgroup_title>
dock_pv

> <s_m_subgroupid>
dock_pv

> <b_m_subgroup_collapsed>
1

$$$$
CHEMBL260_lig400
                    3D
 Schrodinger Suite 2021-1.
 51 54  0  0  1  0            999 V2000
   -1.7411   -1.4870   22.6145 N   0  0  0  0  0  0
   -1.6517   -2.2597   23.7280 C   0  0  0  0  0  0
   -2.7560    0.4819   20.8076 N   0  0  2  0  0  0
   -1.0777   -0.1808   22.4535 C   0  0  0  0  0  0
   -1.1972   -1.6370   25.0262 C   0  0  0  0  0  0
   -2.4917   -1.9591   21.4290 C   0  0  1  0  0  0
   -3.4402   -0.8035   21.0011 C   0  0  0  0  0  0
   -2.1097    0.8888   22.0729 C   0  0  2  0  0  0
   -1.6809   -1.0351   27.3229 C   0  0  0  0  0  0
   -2.0986   -1.5733   26.0969 C   0  0  0  0  0  0
   -0.1944   -0.0963   28.7319 N   0  0  0  0  0  0
   -0.3486   -0.5400   27.4356 C   0  0  0  0  0  0
   -3.6260    1.5430   20.2910 C   0  0  0  0  0  0
   -1.3614   -0.2774   29.4329 C   0  0  0  0  0  0
   -2.0352   -3.4288   23.7455 O   0  0  0  0  0  0
   -2.3043   -0.8464   28.6002 C   0  0  0  0  0  0
    0.1091   -1.1619   25.1846 C   0  0  0  0  0  0
    0.5495   -0.5713   26.3683 C   0  0  0  0  0  0
   -4.2961    1.2662   18.9520 C   0  0  0  0  0  0
   -1.5971   -2.4417   20.2800 C   0  0  0  0  0  0
   -2.9590    1.2616   23.3076 C   0  0  0  0  0  0
   -3.6348    1.4892   17.7387 C   0  0  0  0  0  0
   -5.5932    0.7545   18.9511 C   0  0  0  0  0  0
   -4.3014    1.2872   16.5322 C   0  0  0  0  0  0
   -6.2502    0.5419   17.7484 C   0  0  0  0  0  0
   -5.6196    0.8423   16.5427 C   0  0  0  0  0  0
   -0.4561    0.1562   23.2762 H   0  0  0  0  0  0
   -0.4350   -0.3219   21.5958 H   0  0  0  0  0  0
   -3.1199   -2.8148   21.6846 H   0  0  0  0  0  0
   -4.1827   -0.6665   21.7860 H   0  0  0  0  0  0
   -3.9894   -1.1063   20.1092 H   0  0  0  0  0  0
   -1.5440    1.7875   21.8343 H   0  0  0  0  0  0
   -3.1043   -1.9539   25.9921 H   0  0  0  0  0  0
    0.6433    0.2874   29.1489 H   0  0  0  0  0  0
   -4.4195    1.6869   21.0215 H   0  0  0  0  0  0
   -3.0642    2.4751   20.2138 H   0  0  0  0  0  0
   -1.4143    0.0062   30.4751 H   0  0  0  0  0  0
   -3.3100   -1.1137   28.8882 H   0  0  0  0  0  0
    0.8184   -1.2542   24.3730 H   0  0  0  0  0  0
    1.5643   -0.2126   26.4697 H   0  0  0  0  0  0
   -2.2152   -2.8373   19.4758 H   0  0  0  0  0  0
   -1.0027   -1.6333   19.8539 H   0  0  0  0  0  0
   -0.9271   -3.2390   20.6025 H   0  0  0  0  0  0
   -2.3215    1.5773   24.1345 H   0  0  0  0  0  0
   -3.6349    2.0867   23.1002 H   0  0  0  0  0  0
   -3.5538    0.4222   23.6683 H   0  0  0  0  0  0
   -2.6272    1.8632   17.7104 H   0  0  0  0  0  0
   -6.1023    0.5278   19.8756 H   0  0  0  0  0  0
   -3.8024    1.4857   15.5943 H   0  0  0  0  0  0
   -7.2350    0.1139   17.7606 H   0  0  0  0  0  0
   -6.1406    0.6764   15.6108 H   0  0  0  0  0  0
  1  2  1  0  0  0
  1  4  1  0  0  0
  1  6  1  0  0  0
  2  5  1  0  0  0
  2 15  2  0  0  0
  3  7  1  0  0  0
  3 13  1  0  0  0
  3  8  1  0  0  0
  4  8  1  0  0  0
  4 27  1  0  0  0
  4 28  1  0  0  0
  5 10  1  0  0  0
  5 17  2  0  0  0
  6  7  1  0  0  0
  6 20  1  0  0  0
  6 29  1  0  0  0
  7 30  1  0  0  0
  7 31  1  0  0  0
  8 21  1  0  0  0
  8 32  1  0  0  0
  9 10  2  0  0  0
  9 16  1  0  0  0
  9 12  1  0  0  0
 10 33  1  0  0  0
 11 12  1  0  0  0
 11 14  1  0  0  0
 11 34  1  0  0  0
 12 18  2  0  0  0
 13 19  1  0  0  0
 13 35  1  0  0  0
 13 36  1  0  0  0
 14 16  2  0  0  0
 14 37  1  0  0  0
 16 38  1  0  0  0
 17 18  1  0  0  0
 17 39  1  0  0  0
 18 40  1  0  0  0
 19 22  1  0  0  0
 19 23  2  0  0  0
 20 41  1  0  0  0
 20 42  1  0  0  0
 20 43  1  0  0  0
 21 44  1  0  0  0
 21 45  1  0  0  0
 21 46  1  0  0  0
 22 24  2  0  0  0
 22 47  1  0  0  0
 23 25  1  0  0  0
 23 48  1  0  0  0
 24 26  1  0  0  0
 24 49  1  0  0  0
 25 26  2  0  0  0
 25 50  1  0  0  0
 26 51  1  0  0  0
M  END
> <s_m_entry_id>
60873

> <s_m_entry_name>
dock_pv.150

> <s_m_Source_Path>
/home/csk/Desktop/cluster/DUD-E-result/mk14

> <s_m_Source_File>
dock_pv.maegz

> <i_m_Source_File_Index>
150

> <chembl_id>
CHEMBL106118

> <chembl_pref_name>
None

> <i_lp_mmshare_version>
53161

> <i_f3d_flags>
0

> <r_lp_tautomer_probability>
1

> <s_lp_Force_Field>
OPLS_2005

> <r_lp_Energy>
57.918381

> <b_lp_Chiralities_Consistent>
1

> <s_lp_Variant>
CHEMBL260_lig400-1

> <s_i_glide_gridfile>
glide-grid_2qd9

> <i_i_glide_lignum>
467

> <i_i_glide_rotatable_bonds>
4

> <r_i_docking_score>
-8.47456848304547

> <r_i_glide_ligand_efficiency>
-0.325944941655595

> <r_i_glide_ligand_efficiency_sa>
-0.965610607123285

> <r_i_glide_ligand_efficiency_ln>
-1.99022460091597

> <r_i_glide_gscore>
-8.47456848304547

> <r_i_glide_lipo>
-3.92971245932531

> <r_i_glide_hbond>
-0.541767063626042

> <r_i_glide_metal>
0

> <r_i_glide_rewards>
-1.67012143144922

> <r_i_glide_evdw>
-34.5145606994629

> <r_i_glide_ecoul>
-8.25059604644775

> <r_i_glide_erotb>
0.630349913295415

> <r_i_glide_esite>
0

> <r_i_glide_emodel>
-58.7113360918703

> <r_i_glide_energy>
-42.7651567459106

> <r_i_glide_einternal>
8.14947032928467

> <i_i_glide_confnum>
30

> <i_i_glide_posenum>
57

> <r_i_glide_eff_state_penalty>
0

> <s_user_duplicate_titles>
CHEMBL260_lig400

> <s_m_subgroup_title>
dock_pv

> <s_m_subgroupid>
dock_pv

> <b_m_subgroup_collapsed>
1

$$$$
CHEMBL260_lig713
                    3D
 Schrodinger Suite 2021-1.
 57 62  0  0  1  0            999 V2000
    0.4764    5.4349   23.4308 C   0  0  1  0  0  0
   -1.4579    3.6870   23.0937 C   0  0  1  0  0  0
   -1.2554    3.4741   24.6382 C   0  0  0  0  0  0
   -0.4920    4.6345   25.3366 C   0  0  1  0  0  0
    0.8029    4.7791   24.6867 N   0  0  1  0  0  0
   -0.1905    4.3875   22.4943 C   0  0  0  0  0  0
   -1.1206    6.0223   25.1531 C   0  0  0  0  0  0
   -0.4350    6.5781   23.8943 C   0  0  0  0  0  0
   -3.1445    1.4632   20.2760 C   0  0  0  0  0  0
   -2.6469    2.6005   20.9736 C   0  0  0  0  0  0
   -2.0350    2.5030   22.2553 C   0  0  0  0  0  0
   -1.8869    1.2400   22.7928 C   0  0  0  0  0  0
   -2.8350    0.2042   20.8433 C   0  0  0  0  0  0
   -2.2246    0.0828   22.1075 C   0  0  0  0  0  0
   -1.8896   -1.2050   22.6513 N   0  0  0  0  0  0
   -2.0719   -2.3929   21.9890 C   0  0  0  0  0  0
   -2.5615   -2.2315   20.6324 C   0  0  0  0  0  0
   -2.9796   -1.0627   20.1087 C   0  0  0  0  0  0
   -1.9091   -3.5130   22.4772 O   0  0  0  0  0  0
   -3.8613    1.5330   18.9248 C   0  0  0  0  0  0
   -3.2350    2.0870   17.8088 C   0  0  0  0  0  0
   -3.6576    1.9038   16.4921 C   0  0  0  0  0  0
   -4.8738    1.2827   16.2720 C   0  0  0  0  0  0
   -5.6374    0.8870   17.3543 C   0  0  0  0  0  0
   -5.1302    0.9811   18.6507 C   0  0  0  0  0  0
   -1.4274   -1.2585   23.9993 C   0  0  0  0  0  0
   -0.0754   -1.0050   24.3039 C   0  0  0  0  0  0
    0.3445   -0.9343   25.6311 C   0  0  0  0  0  0
   -0.5656   -1.1130   26.6691 C   0  0  0  0  0  0
   -1.9082   -1.3427   26.3812 C   0  0  0  0  0  0
   -2.3439   -1.3915   25.0570 C   0  0  0  0  0  0
   -4.0350   -1.5130   24.7558 Cl  0  0  0  0  0  0
    1.0752   -0.6275   23.0762 Cl  0  0  0  0  0  0
   -6.1944    0.4870   19.8760 Cl  0  0  0  0  0  0
   -5.3362    1.0978   15.0237 F   0  0  0  0  0  0
    1.3807    5.8226   22.9567 H   0  0  0  0  0  0
   -2.2934    4.3749   23.0760 H   0  0  0  0  0  0
   -2.2228    3.3658   25.1308 H   0  0  0  0  0  0
   -0.6624    2.5899   24.8643 H   0  0  0  0  0  0
   -0.3593    4.4017   26.3950 H   0  0  0  0  0  0
    1.2716    3.8931   24.5444 H   0  0  0  0  0  0
    0.5792    3.6538   22.2760 H   0  0  0  0  0  0
   -0.4350    4.8870   21.5569 H   0  0  0  0  0  0
   -2.2049    5.9706   25.0760 H   0  0  0  0  0  0
   -0.8891    6.6544   26.0121 H   0  0  0  0  0  0
   -1.1242    6.9050   23.1198 H   0  0  0  0  0  0
    0.1726    7.4451   24.1600 H   0  0  0  0  0  0
   -2.7726    3.5767   20.5317 H   0  0  0  0  0  0
   -1.4284    1.1395   23.7530 H   0  0  0  0  0  0
   -2.6265   -3.1130   20.0209 H   0  0  0  0  0  0
   -3.3361   -1.0579   19.0904 H   0  0  0  0  0  0
   -2.4350    2.7627   17.9641 H   0  0  0  0  0  0
   -3.0985    2.3139   15.6627 H   0  0  0  0  0  0
   -6.6125    0.4541   17.1817 H   0  0  0  0  0  0
    1.3795   -0.7213   25.8599 H   0  0  0  0  0  0
   -0.2313   -1.0591   27.6955 H   0  0  0  0  0  0
   -2.6163   -1.4501   27.1903 H   0  0  0  0  0  0
  1  5  1  0  0  0
  1  6  1  0  0  0
  1  8  1  0  0  0
  1 36  1  0  0  0
  2  3  1  0  0  0
  2  6  1  0  0  0
  2 11  1  0  0  0
  2 37  1  0  0  0
  3  4  1  0  0  0
  3 38  1  0  0  0
  3 39  1  0  0  0
  4  5  1  0  0  0
  4  7  1  0  0  0
  4 40  1  0  0  0
  5 41  1  0  0  0
  6 42  1  0  0  0
  6 43  1  0  0  0
  7  8  1  0  0  0
  7 44  1  0  0  0
  7 45  1  0  0  0
  8 46  1  0  0  0
  8 47  1  0  0  0
  9 13  1  0  0  0
  9 10  2  0  0  0
  9 20  1  0  0  0
 10 11  1  0  0  0
 10 48  1  0  0  0
 11 12  2  0  0  0
 12 14  1  0  0  0
 12 49  1  0  0  0
 13 14  2  0  0  0
 13 18  1  0  0  0
 14 15  1  0  0  0
 15 16  1  0  0  0
 15 26  1  0  0  0
 16 17  1  0  0  0
 16 19  2  0  0  0
 17 18  2  0  0  0
 17 50  1  0  0  0
 18 51  1  0  0  0
 20 21  2  0  0  0
 20 25  1  0  0  0
 21 22  1  0  0  0
 21 52  1  0  0  0
 22 23  2  0  0  0
 22 53  1  0  0  0
 23 24  1  0  0  0
 23 35  1  0  0  0
 24 25  2  0  0  0
 24 54  1  0  0  0
 25 34  1  0  0  0
 26 27  2  0  0  0
 26 31  1  0  0  0
 27 28  1  0  0  0
 27 33  1  0  0  0
 28 29  2  0  0  0
 28 55  1  0  0  0
 29 30  1  0  0  0
 29 56  1  0  0  0
 30 31  2  0  0  0
 30 57  1  0  0  0
 31 32  1  0  0  0
M  END
> <s_m_entry_id>
60874

> <s_m_entry_name>
dock_pv.151

> <s_m_Source_Path>
/home/csk/Desktop/cluster/DUD-E-result/mk14

> <s_m_Source_File>
dock_pv.maegz

> <i_m_Source_File_Index>
151

> <chembl_id>
CHEMBL199701

> <chembl_pref_name>
None

> <i_lp_mmshare_version>
53161

> <i_f3d_flags>
0

> <r_lp_tautomer_probability>
1

> <s_lp_Force_Field>
OPLS_2005

> <r_lp_Energy>
78.938627

> <b_lp_Chiralities_Consistent>
1

> <s_lp_Variant>
CHEMBL260_lig713-2

> <s_i_glide_gridfile>
glide-grid_2qd9

> <i_i_glide_lignum>
803

> <i_i_glide_rotatable_bonds>
3

> <r_i_docking_score>
-8.46776829555272

> <r_i_glide_ligand_efficiency>
-0.241936237015792

> <r_i_glide_ligand_efficiency_sa>
-0.791389473178271

> <r_i_glide_ligand_efficiency_ln>
-1.85886307286563

> <r_i_glide_gscore>
-8.46776829555272

> <r_i_glide_lipo>
-4.31152548418857

> <r_i_glide_hbond>
-0.32

> <r_i_glide_metal>
0

> <r_i_glide_rewards>
-1.28980231022871

> <r_i_glide_evdw>
-33.3505477905273

> <r_i_glide_ecoul>
-7.33798217773438

> <r_i_glide_erotb>
0.221784215051075

> <r_i_glide_esite>
0

> <r_i_glide_emodel>
-45.7960585951917

> <r_i_glide_energy>
-40.6885299682617

> <r_i_glide_einternal>
10.8059720993042

> <i_i_glide_confnum>
19

> <i_i_glide_posenum>
86

> <r_i_glide_eff_state_penalty>
0

> <s_user_duplicate_titles>
CHEMBL260_lig713,334408

> <s_m_subgroup_title>
dock_pv

> <s_m_subgroupid>
dock_pv

> <b_m_subgroup_collapsed>
1

$$$$
CHEMBL260_lig270
                    3D
 Schrodinger Suite 2021-1.
 38 40  0  0  1  0            999 V2000
   -1.7965   -1.9212   23.5168 C   0  0  0  0  0  0
   -0.9964   -1.3679   24.6402 C   0  0  0  0  0  0
   -3.3472    1.6166   19.3410 N   0  0  0  0  0  0
   -3.9601    1.3724   18.1003 C   0  0  0  0  0  0
   -2.2657   -0.9908   22.4394 C   0  0  0  0  0  0
   -1.4980   -1.2755   25.9507 C   0  0  0  0  0  0
   -2.0347   -3.1279   23.4769 O   0  0  0  0  0  0
   -5.2752    0.8869   17.9727 C   0  0  0  0  0  0
   -2.1339    0.3995   22.5771 C   0  0  0  0  0  0
   -2.8350   -1.5114   21.2707 C   0  0  0  0  0  0
   -3.0616    0.7226   20.3783 C   0  0  0  0  0  0
   -6.0354    0.4883   19.0761 N   0  0  0  0  0  0
   -3.2355   -1.9127   26.4264 Br  0  0  0  0  0  0
   -3.2354   -0.6563   20.2492 C   0  0  0  0  0  0
   -2.5166    1.2464   21.5453 C   0  0  0  0  0  0
    0.2649   -0.8381   24.3437 C   0  0  0  0  0  0
   -3.2371    1.6878   16.9456 C   0  0  0  0  0  0
   -0.7247   -0.6696   26.9432 C   0  0  0  0  0  0
   -5.8365    0.7395   16.7046 C   0  0  0  0  0  0
    1.0095   -0.2050   25.3311 C   0  0  0  0  0  0
   -3.7988    1.5064   15.6824 C   0  0  0  0  0  0
    0.5212   -0.1266   26.6342 C   0  0  0  0  0  0
   -5.1021    1.0353   15.5617 C   0  0  0  0  0  0
   -2.7432    2.4225   19.3497 H   0  0  0  0  0  0
   -1.7146    0.8467   23.4663 H   0  0  0  0  0  0
   -2.9573   -2.5783   21.1323 H   0  0  0  0  0  0
   -6.8769   -0.0531   18.9187 H   0  0  0  0  0  0
   -5.5864    0.5023   19.9814 H   0  0  0  0  0  0
   -3.6432   -1.0765   19.3440 H   0  0  0  0  0  0
   -2.3723    2.3117   21.6525 H   0  0  0  0  0  0
    0.6664   -0.8808   23.3396 H   0  0  0  0  0  0
   -2.2311    2.0717   17.0167 H   0  0  0  0  0  0
   -1.0975   -0.6045   27.9553 H   0  0  0  0  0  0
   -6.8327    0.3369   16.6003 H   0  0  0  0  0  0
    1.9649    0.2279   25.0755 H   0  0  0  0  0  0
   -3.2219    1.7322   14.7993 H   0  0  0  0  0  0
    1.1109    0.3530   27.4024 H   0  0  0  0  0  0
   -5.5449    0.8846   14.5893 H   0  0  0  0  0  0
  1  2  1  0  0  0
  1  5  1  0  0  0
  1  7  2  0  0  0
  2  6  2  0  0  0
  2 16  1  0  0  0
  3 11  1  0  0  0
  3  4  1  0  0  0
  3 24  1  0  0  0
  4  8  2  0  0  0
  4 17  1  0  0  0
  5  9  1  0  0  0
  5 10  2  0  0  0
  6 13  1  0  0  0
  6 18  1  0  0  0
  8 12  1  0  0  0
  8 19  1  0  0  0
  9 15  2  0  0  0
  9 25  1  0  0  0
 10 14  1  0  0  0
 10 26  1  0  0  0
 11 14  2  0  0  0
 11 15  1  0  0  0
 12 27  1  0  0  0
 12 28  1  0  0  0
 14 29  1  0  0  0
 15 30  1  0  0  0
 16 20  2  0  0  0
 16 31  1  0  0  0
 17 21  2  0  0  0
 17 32  1  0  0  0
 18 22  2  0  0  0
 18 33  1  0  0  0
 19 23  2  0  0  0
 19 34  1  0  0  0
 20 22  1  0  0  0
 20 35  1  0  0  0
 21 23  1  0  0  0
 21 36  1  0  0  0
 22 37  1  0  0  0
 23 38  1  0  0  0
M  END
> <s_m_entry_id>
60875

> <s_m_entry_name>
dock_pv.152

> <s_m_Source_Path>
/home/csk/Desktop/cluster/DUD-E-result/mk14

> <s_m_Source_File>
dock_pv.maegz

> <i_m_Source_File_Index>
152

> <chembl_id>
CHEMBL152440

> <chembl_pref_name>
None

> <i_lp_mmshare_version>
53161

> <i_f3d_flags>
0

> <r_lp_tautomer_probability>
1

> <s_lp_Force_Field>
OPLS_2005

> <r_lp_Energy>
27.503372

> <b_lp_Chiralities_Consistent>
1

> <s_lp_Variant>
CHEMBL260_lig270-1

> <s_i_glide_gridfile>
glide-grid_2qd9

> <i_i_glide_lignum>
321

> <i_i_glide_rotatable_bonds>
4

> <r_i_docking_score>
-8.44425999606026

> <r_i_glide_ligand_efficiency>
-0.367141738959142

> <r_i_glide_ligand_efficiency_sa>
-1.04410226725993

> <r_i_glide_ligand_efficiency_ln>
-2.04189863536371

> <r_i_glide_gscore>
-8.44425999606026

> <r_i_glide_lipo>
-3.96321915825943

> <r_i_glide_hbond>
-0.682952105610806

> <r_i_glide_metal>
0

> <r_i_glide_rewards>
-1.49326647279881

> <r_i_glide_evdw>
-41.292179107666

> <r_i_glide_ecoul>
-5.40897989273071

> <r_i_glide_erotb>
0.571133679901697

> <r_i_glide_esite>
0

> <r_i_glide_emodel>
-65.1780540240268

> <r_i_glide_energy>
-46.7011590003967

> <r_i_glide_einternal>
8.64885520935059

> <i_i_glide_confnum>
22

> <i_i_glide_posenum>
90

> <r_i_glide_eff_state_penalty>
0

> <s_user_duplicate_titles>
CHEMBL260_lig270,254298

> <s_m_subgroup_title>
dock_pv

> <s_m_subgroupid>
dock_pv

> <b_m_subgroup_collapsed>
1

$$$$
CHEMBL260_lig464
                    3D
 Schrodinger Suite 2021-1.
 53 57  0  0  1  0            999 V2000
   -2.7084    1.2196   21.2503 C   0  0  0  0  0  0
   -2.0957    2.1329   22.1052 N   0  0  0  0  0  0
   -2.6769    3.2250   20.2267 N   0  0  0  0  0  0
   -3.1185    1.9804   20.1410 C   0  0  0  0  0  0
   -2.0350    3.2858   21.3616 C   0  0  0  0  0  0
   -2.7524   -0.2695   21.4357 C   0  0  0  0  0  0
   -2.6738   -0.7769   22.6941 N   0  0  0  0  0  0
   -2.4574   -2.1181   22.8122 C   0  0  0  0  0  0
   -1.3079   -1.8993   24.8687 C   0  0  0  0  0  0
   -3.9216    1.5512   18.9495 C   0  0  0  0  0  0
   -2.3588   -2.9972   21.7875 N   0  0  0  0  0  0
   -1.5102    1.9150   23.4471 C   0  0  0  0  0  0
   -2.1517   -2.6265   24.0591 O   0  0  0  0  0  0
   -1.7063   -1.5269   26.1540 C   0  0  0  0  0  0
   -0.0565   -1.4983   24.3924 C   0  0  0  0  0  0
    0.7651   -0.6922   25.1688 C   0  0  0  0  0  0
   -0.8682   -0.7386   26.9446 C   0  0  0  0  0  0
   -1.9668    4.0301   25.4560 N   0  0  2  0  0  0
    0.3647   -0.3123   26.4489 C   0  0  0  0  0  0
   -2.6644   -1.1016   20.3163 C   0  0  0  0  0  0
   -3.4068    1.6870   17.6534 C   0  0  0  0  0  0
   -5.2041    1.0213   19.1205 C   0  0  0  0  0  0
   -2.4634   -2.4583   20.5439 C   0  0  0  0  0  0
   -5.4581    0.8858   16.7226 C   0  0  0  0  0  0
    1.9455   -0.2776   24.6648 F   0  0  0  0  0  0
   -1.2628   -0.3720   28.1835 F   0  0  0  0  0  0
   -0.3913    2.8871   23.8883 C   0  0  0  0  0  0
   -2.5892    1.8170   24.5464 C   0  0  0  0  0  0
   -5.9876    0.7262   18.0040 C   0  0  0  0  0  0
   -4.1654    1.3487   16.5431 C   0  0  0  0  0  0
   -6.1655    0.5100   15.6384 F   0  0  0  0  0  0
   -0.9067    4.2261   24.4633 C   0  0  0  0  0  0
   -3.0856    3.1946   25.0167 C   0  0  0  0  0  0
   -1.3984    4.0869   21.6916 H   0  0  0  0  0  0
   -1.0116    0.9559   23.3281 H   0  0  0  0  0  0
   -2.6685   -1.8355   26.5340 H   0  0  0  0  0  0
    0.2659   -1.7823   23.4027 H   0  0  0  0  0  0
   -2.2749    4.9008   25.8666 H   0  0  0  0  0  0
    1.0102    0.3080   27.0541 H   0  0  0  0  0  0
   -2.6774   -0.7196   19.3075 H   0  0  0  0  0  0
   -2.4350    2.1083   17.4759 H   0  0  0  0  0  0
   -5.6108    0.8878   20.1122 H   0  0  0  0  0  0
   -2.3652   -3.1199   19.7001 H   0  0  0  0  0  0
    0.2492    2.4016   24.6270 H   0  0  0  0  0  0
    0.3166    3.0508   23.0761 H   0  0  0  0  0  0
   -3.4333    1.2159   24.2099 H   0  0  0  0  0  0
   -2.2177    1.2425   25.3935 H   0  0  0  0  0  0
   -6.9859    0.3323   18.1263 H   0  0  0  0  0  0
   -3.7615    1.4592   15.5472 H   0  0  0  0  0  0
   -0.0828    4.7466   24.9548 H   0  0  0  0  0  0
   -1.2656    4.8880   23.6775 H   0  0  0  0  0  0
   -3.7897    3.0806   25.8423 H   0  0  0  0  0  0
   -3.6141    3.6979   24.2064 H   0  0  0  0  0  0
  1  2  1  0  0  0
  1  4  2  0  0  0
  1  6  1  0  0  0
  2  5  1  0  0  0
  2 12  1  0  0  0
  3  4  1  0  0  0
  3  5  2  0  0  0
  4 10  1  0  0  0
  5 34  1  0  0  0
  6  7  1  0  0  0
  6 20  2  0  0  0
  7  8  2  0  0  0
  8 13  1  0  0  0
  8 11  1  0  0  0
  9 13  1  0  0  0
  9 14  2  0  0  0
  9 15  1  0  0  0
 10 21  1  0  0  0
 10 22  2  0  0  0
 11 23  2  0  0  0
 12 27  1  0  0  0
 12 28  1  0  0  0
 12 35  1  0  0  0
 14 17  1  0  0  0
 14 36  1  0  0  0
 15 16  2  0  0  0
 15 37  1  0  0  0
 16 19  1  0  0  0
 16 25  1  0  0  0
 17 26  1  0  0  0
 17 19  2  0  0  0
 18 33  1  0  0  0
 18 32  1  0  0  0
 18 38  1  0  0  0
 19 39  1  0  0  0
 20 23  1  0  0  0
 20 40  1  0  0  0
 21 30  2  0  0  0
 21 41  1  0  0  0
 22 29  1  0  0  0
 22 42  1  0  0  0
 23 43  1  0  0  0
 24 29  2  0  0  0
 24 31  1  0  0  0
 24 30  1  0  0  0
 27 32  1  0  0  0
 27 44  1  0  0  0
 27 45  1  0  0  0
 28 33  1  0  0  0
 28 46  1  0  0  0
 28 47  1  0  0  0
 29 48  1  0  0  0
 30 49  1  0  0  0
 32 50  1  0  0  0
 32 51  1  0  0  0
 33 52  1  0  0  0
 33 53  1  0  0  0
M  END
> <s_m_entry_id>
60876

> <s_m_entry_name>
dock_pv.153

> <s_m_Source_Path>
/home/csk/Desktop/cluster/DUD-E-result/mk14

> <s_m_Source_File>
dock_pv.maegz

> <i_m_Source_File_Index>
153

> <chembl_id>
CHEMBL14339

> <chembl_pref_name>
None

> <i_lp_mmshare_version>
53161

> <i_f3d_flags>
0

> <r_lp_tautomer_probability>
1

> <s_lp_Force_Field>
OPLS_2005

> <r_lp_Energy>
34.402339

> <b_lp_Chiralities_Consistent>
1

> <s_lp_Variant>
CHEMBL260_lig464-1

> <s_i_glide_gridfile>
glide-grid_2qd9

> <i_i_glide_lignum>
534

> <i_i_glide_rotatable_bonds>
5

> <r_i_docking_score>
-8.40037757905194

> <r_i_glide_ligand_efficiency>
-0.254556896334907

> <r_i_glide_ligand_efficiency_sa>
-0.816499982979771

> <r_i_glide_ligand_efficiency_ln>
-1.86820047875384

> <r_i_glide_gscore>
-8.40037757905194

> <r_i_glide_lipo>
-3.67159345504579

> <r_i_glide_hbond>
-0.275523868994799

> <r_i_glide_metal>
0

> <r_i_glide_rewards>
-2.33497343540229

> <r_i_glide_evdw>
-42.0981636047363

> <r_i_glide_ecoul>
-3.09257435798645

> <r_i_glide_erotb>
0.492074995035183

> <r_i_glide_esite>
-0.0415674807094616

> <r_i_glide_emodel>
-59.6650914826592

> <r_i_glide_energy>
-45.1907379627228

> <r_i_glide_einternal>
6.45330095291138

> <i_i_glide_confnum>
134

> <i_i_glide_posenum>
320

> <r_i_glide_eff_state_penalty>
0

> <s_user_duplicate_titles>
CHEMBL260_lig464,13621

> <s_m_subgroup_title>
dock_pv

> <s_m_subgroupid>
dock_pv

> <b_m_subgroup_collapsed>
1

$$$$
CHEMBL260_lig403
                    3D
 Schrodinger Suite 2021-1.
 45 48  0  0  1  0            999 V2000
   -5.8420    0.7021   16.6843 C   0  0  0  0  0  0
   -5.0570    0.9546   15.5679 C   0  0  0  0  0  0
   -3.7538    1.4121   15.7191 C   0  0  0  0  0  0
   -3.2350    1.5954   16.9953 C   0  0  0  0  0  0
   -4.0100    1.3056   18.1258 C   0  0  0  0  0  0
   -5.3302    0.8870   17.9644 C   0  0  0  0  0  0
   -3.4604    1.5465   19.5287 C   0  0  0  0  0  0
   -3.5200    0.3849   20.4282 N   0  0  0  0  0  0
   -3.0772    0.8218   21.7512 C   0  0  0  0  0  0
   -3.2347   -0.2914   22.7939 C   0  0  0  0  0  0
   -2.4704   -1.4720   22.3429 N   0  0  0  0  0  0
   -2.6705   -1.9387   20.9543 C   0  0  0  0  0  0
   -2.6489   -0.7165   19.9938 C   0  0  0  0  0  0
   -1.9211   -2.3068   23.2618 C   0  0  0  0  0  0
   -1.5793   -1.7173   24.6028 C   0  0  0  0  0  0
   -1.6357   -3.4833   23.0374 O   0  0  0  0  0  0
   -2.3661   -2.0409   25.7127 C   0  0  0  0  0  0
   -2.1100   -1.5124   26.9743 C   0  0  0  0  0  0
   -1.0653   -0.6190   27.2004 C   0  0  0  0  0  0
   -0.5306   -0.7944   24.7896 C   0  0  0  0  0  0
   -0.2941   -0.2570   26.0928 C   0  0  0  0  0  0
    0.7652    0.6178   25.9780 N   0  0  0  0  0  0
    1.1976    0.6706   24.6763 C   0  0  0  0  0  0
    0.4382   -0.1913   23.9161 C   0  0  0  0  0  0
   -6.8322    0.3105   16.5601 H   0  0  0  0  0  0
   -5.4645    0.7877   14.5831 H   0  0  0  0  0  0
   -3.1480    1.6216   14.8502 H   0  0  0  0  0  0
   -2.2236    1.9614   17.0757 H   0  0  0  0  0  0
   -5.9454    0.6732   18.8271 H   0  0  0  0  0  0
   -4.0379    2.3745   19.9456 H   0  0  0  0  0  0
   -2.4382    1.9128   19.4819 H   0  0  0  0  0  0
   -2.0275    1.1221   21.7005 H   0  0  0  0  0  0
   -3.6350    1.6879   22.0846 H   0  0  0  0  0  0
   -4.2929   -0.5472   22.8623 H   0  0  0  0  0  0
   -2.8933    0.1268   23.7402 H   0  0  0  0  0  0
   -1.8884   -2.6266   20.6299 H   0  0  0  0  0  0
   -3.6449   -2.4086   20.8592 H   0  0  0  0  0  0
   -1.6349   -0.3252   19.9631 H   0  0  0  0  0  0
   -2.9014   -1.0359   18.9862 H   0  0  0  0  0  0
   -3.2012   -2.7176   25.6024 H   0  0  0  0  0  0
   -2.7360   -1.8077   27.8052 H   0  0  0  0  0  0
   -0.8749   -0.2184   28.1854 H   0  0  0  0  0  0
    1.2035    1.1546   26.7154 H   0  0  0  0  0  0
    2.0288    1.3120   24.4086 H   0  0  0  0  0  0
    0.5625   -0.3622   22.8580 H   0  0  0  0  0  0
  1  2  2  0  0  0
  1  6  1  0  0  0
  1 25  1  0  0  0
  2  3  1  0  0  0
  2 26  1  0  0  0
  3  4  2  0  0  0
  3 27  1  0  0  0
  4  5  1  0  0  0
  4 28  1  0  0  0
  5  7  1  0  0  0
  5  6  2  0  0  0
  6 29  1  0  0  0
  7  8  1  0  0  0
  7 30  1  0  0  0
  7 31  1  0  0  0
  8  9  1  0  0  0
  8 13  1  0  0  0
  9 10  1  0  0  0
  9 32  1  0  0  0
  9 33  1  0  0  0
 10 11  1  0  0  0
 10 34  1  0  0  0
 10 35  1  0  0  0
 11 12  1  0  0  0
 11 14  1  0  0  0
 12 13  1  0  0  0
 12 36  1  0  0  0
 12 37  1  0  0  0
 13 38  1  0  0  0
 13 39  1  0  0  0
 14 15  1  0  0  0
 14 16  2  0  0  0
 15 17  2  0  0  0
 15 20  1  0  0  0
 17 18  1  0  0  0
 17 40  1  0  0  0
 18 19  2  0  0  0
 18 41  1  0  0  0
 19 21  1  0  0  0
 19 42  1  0  0  0
 20 21  2  0  0  0
 20 24  1  0  0  0
 21 22  1  0  0  0
 22 23  1  0  0  0
 22 43  1  0  0  0
 23 24  2  0  0  0
 23 44  1  0  0  0
 24 45  1  0  0  0
M  END
> <s_m_entry_id>
60877

> <s_m_entry_name>
dock_pv.154

> <s_m_Source_Path>
/home/csk/Desktop/cluster/DUD-E-result/mk14

> <s_m_Source_File>
dock_pv.maegz

> <i_m_Source_File_Index>
154

> <chembl_id>
CHEMBL105802

> <chembl_pref_name>
None

> <i_lp_mmshare_version>
53161

> <i_f3d_flags>
0

> <r_lp_tautomer_probability>
1

> <s_lp_Force_Field>
OPLS_2005

> <r_lp_Energy>
46.811003

> <b_lp_Chiralities_Consistent>
1

> <s_lp_Variant>
CHEMBL260_lig403-1

> <s_i_glide_gridfile>
glide-grid_2qd9

> <i_i_glide_lignum>
470

> <i_i_glide_rotatable_bonds>
4

> <r_i_docking_score>
-8.40005831027573

> <r_i_glide_ligand_efficiency>
-0.350002429594822

> <r_i_glide_ligand_efficiency_sa>
-1.00958170630986

> <r_i_glide_ligand_efficiency_ln>
-2.01051940720835

> <r_i_glide_gscore>
-8.40005831027573

> <r_i_glide_lipo>
-3.64582680766122

> <r_i_glide_hbond>
-0.5547241190962

> <r_i_glide_metal>
0

> <r_i_glide_rewards>
-1.94066642051614

> <r_i_glide_evdw>
-36.5611801147461

> <r_i_glide_ecoul>
-7.74908351898193

> <r_i_glide_erotb>
0.731580570582417

> <r_i_glide_esite>
0

> <r_i_glide_emodel>
-62.8365189716091

> <r_i_glide_energy>
-44.310263633728

> <r_i_glide_einternal>
4.28541707992554

> <i_i_glide_confnum>
85

> <i_i_glide_posenum>
248

> <r_i_glide_eff_state_penalty>
0

> <s_user_duplicate_titles>
CHEMBL260_lig403

> <s_m_subgroup_title>
dock_pv

> <s_m_subgroupid>
dock_pv

> <b_m_subgroup_collapsed>
1

$$$$
CHEMBL260_lig261
                    3D
 Schrodinger Suite 2021-1.
 44 46  0  0  1  0            999 V2000
   -1.8508   -1.9073   23.7841 C   0  0  0  0  0  0
   -2.2500   -0.9718   22.6783 C   0  0  0  0  0  0
   -3.2350    1.6048   19.4734 N   0  0  0  0  0  0
   -1.3391   -1.3750   25.0847 C   0  0  0  0  0  0
   -2.9711    0.7582   20.5637 C   0  0  0  0  0  0
   -2.0790    0.4139   22.7930 C   0  0  0  0  0  0
   -3.9014    1.3699   18.2537 C   0  0  0  0  0  0
   -2.4163    1.2791   21.7488 C   0  0  0  0  0  0
   -2.0350   -3.1192   23.6730 O   0  0  0  0  0  0
   -2.8173   -1.4765   21.4991 C   0  0  0  0  0  0
   -5.2229    0.8870   18.1633 C   0  0  0  0  0  0
   -0.0626   -0.7862   25.2322 C   0  0  0  0  0  0
   -3.1762   -0.6212   20.4592 C   0  0  0  0  0  0
   -5.9636    0.4878   19.2789 N   0  0  0  0  0  0
   -2.1696   -1.5008   26.2077 C   0  0  0  0  0  0
   -2.1059    2.7623   21.9445 C   0  0  0  0  0  0
   -3.2348    1.7168   17.0711 C   0  0  0  0  0  0
    0.9396   -0.6952   24.0860 C   0  0  0  0  0  0
   -5.8367    0.7891   16.9135 C   0  0  0  0  0  0
    0.3329   -0.3113   26.4880 C   0  0  0  0  0  0
   -1.7571   -1.0306   27.4530 C   0  0  0  0  0  0
   -3.8476    1.5844   15.8301 C   0  0  0  0  0  0
   -5.1551    1.1241   15.7487 C   0  0  0  0  0  0
   -0.5072   -0.4328   27.5924 C   0  0  0  0  0  0
   -2.6006    2.3874   19.4450 H   0  0  0  0  0  0
   -1.6567    0.8406   23.6921 H   0  0  0  0  0  0
   -2.9732   -2.5387   21.3648 H   0  0  0  0  0  0
   -3.5800   -1.0471   19.5528 H   0  0  0  0  0  0
   -6.7993   -0.0614   19.1251 H   0  0  0  0  0  0
   -5.4840    0.4673   20.1678 H   0  0  0  0  0  0
   -3.1438   -1.9637   26.1259 H   0  0  0  0  0  0
   -2.8350    3.2269   22.6046 H   0  0  0  0  0  0
   -1.1390    2.8806   22.4332 H   0  0  0  0  0  0
   -2.0460    3.3182   21.0090 H   0  0  0  0  0  0
   -2.2264    2.1008   17.0761 H   0  0  0  0  0  0
    0.9093   -1.5967   23.4763 H   0  0  0  0  0  0
    0.7323    0.1635   23.4482 H   0  0  0  0  0  0
    1.9631   -0.6186   24.4562 H   0  0  0  0  0  0
   -6.8339    0.3938   16.8390 H   0  0  0  0  0  0
    1.3063    0.1388   26.6216 H   0  0  0  0  0  0
   -2.4021   -1.1379   28.3126 H   0  0  0  0  0  0
   -3.3048    1.8433   14.9338 H   0  0  0  0  0  0
   -5.6328    1.0153   14.7863 H   0  0  0  0  0  0
   -0.1813   -0.0764   28.5589 H   0  0  0  0  0  0
  1  2  1  0  0  0
  1  4  1  0  0  0
  1  9  2  0  0  0
  2  6  1  0  0  0
  2 10  2  0  0  0
  3  5  1  0  0  0
  3  7  1  0  0  0
  3 25  1  0  0  0
  4 12  2  0  0  0
  4 15  1  0  0  0
  5 13  2  0  0  0
  5  8  1  0  0  0
  6  8  2  0  0  0
  6 26  1  0  0  0
  7 11  2  0  0  0
  7 17  1  0  0  0
  8 16  1  0  0  0
 10 13  1  0  0  0
 10 27  1  0  0  0
 11 14  1  0  0  0
 11 19  1  0  0  0
 12 18  1  0  0  0
 12 20  1  0  0  0
 13 28  1  0  0  0
 14 29  1  0  0  0
 14 30  1  0  0  0
 15 21  2  0  0  0
 15 31  1  0  0  0
 16 32  1  0  0  0
 16 33  1  0  0  0
 16 34  1  0  0  0
 17 22  2  0  0  0
 17 35  1  0  0  0
 18 36  1  0  0  0
 18 37  1  0  0  0
 18 38  1  0  0  0
 19 23  2  0  0  0
 19 39  1  0  0  0
 20 24  2  0  0  0
 20 40  1  0  0  0
 21 24  1  0  0  0
 21 41  1  0  0  0
 22 23  1  0  0  0
 22 42  1  0  0  0
 23 43  1  0  0  0
 24 44  1  0  0  0
M  END
> <s_m_entry_id>
60878

> <s_m_entry_name>
dock_pv.155

> <s_m_Source_Path>
/home/csk/Desktop/cluster/DUD-E-result/mk14

> <s_m_Source_File>
dock_pv.maegz

> <i_m_Source_File_Index>
155

> <chembl_id>
CHEMBL356157

> <chembl_pref_name>
None

> <i_lp_mmshare_version>
53161

> <i_f3d_flags>
0

> <r_lp_tautomer_probability>
1

> <s_lp_Force_Field>
OPLS_2005

> <r_lp_Energy>
28.344071

> <b_lp_Chiralities_Consistent>
1

> <s_lp_Variant>
CHEMBL260_lig261-1

> <s_i_glide_gridfile>
glide-grid_2qd9

> <i_i_glide_lignum>
312

> <i_i_glide_rotatable_bonds>
4

> <r_i_docking_score>
-8.37107857066074

> <r_i_glide_ligand_efficiency>
-0.348794940444198

> <r_i_glide_ligand_efficiency_sa>
-1.00609870489627

> <r_i_glide_ligand_efficiency_ln>
-2.00358322572488

> <r_i_glide_gscore>
-8.37107857066074

> <r_i_glide_lipo>
-3.96162183291388

> <r_i_glide_hbond>
-0.59605398705779

> <r_i_glide_metal>
0

> <r_i_glide_rewards>
-1.63959358804664

> <r_i_glide_evdw>
-41.9704132080078

> <r_i_glide_ecoul>
-5.46095132827759

> <r_i_glide_erotb>
0.743854196999597

> <r_i_glide_esite>
0

> <r_i_glide_emodel>
-62.2930141823965

> <r_i_glide_energy>
-47.4313645362854

> <r_i_glide_einternal>
10.7237977981567

> <i_i_glide_confnum>
9

> <i_i_glide_posenum>
101

> <r_i_glide_eff_state_penalty>
0

> <s_user_duplicate_titles>
CHEMBL260_lig261,254692

> <s_m_subgroup_title>
dock_pv

> <s_m_subgroupid>
dock_pv

> <b_m_subgroup_collapsed>
1

$$$$
CHEMBL260_lig1796
                    3D
 Schrodinger Suite 2021-1.
 45 48  0  0  1  0            999 V2000
    0.6193    3.7012   24.4135 C   0  0  0  0  0  0
    1.5653    4.4248   25.0315 N   0  0  0  0  0  0
   -0.0113    4.1073   23.4341 O   0  0  0  0  0  0
    2.0132    5.7393   24.5941 C   0  0  0  0  0  0
    0.3530    2.3298   24.9868 C   0  0  0  0  0  0
   -0.5163    0.0578   24.6534 C   0  0  0  0  0  0
   -0.1305    1.3125   24.1563 C   0  0  0  0  0  0
    0.5442    2.0481   26.3448 C   0  0  0  0  0  0
    0.2212    0.7951   26.8542 C   0  0  0  0  0  0
   -0.3220   -0.1947   26.0302 C   0  0  0  0  0  0
   -1.0840   -0.9618   23.6879 C   0  0  0  0  0  0
   -5.1299    0.7959   15.8227 C   0  0  0  0  0  0
   -3.8569    1.3516   15.8916 C   0  0  0  0  0  0
   -3.3127    1.6828   17.1307 C   0  0  0  0  0  0
   -4.0330    1.4331   18.3067 C   0  0  0  0  0  0
   -5.3185    0.8870   18.2284 C   0  0  0  0  0  0
   -5.8682    0.5948   16.9828 C   0  0  0  0  0  0
   -3.3493    1.8908   19.8761 S   0  0  0  0  0  0
   -2.8476    0.3699   20.6523 C   0  0  0  0  0  0
   -3.0157   -0.8760   20.0456 C   0  0  0  0  0  0
   -2.6131   -2.0545   20.6756 C   0  0  0  0  0  0
   -2.2494    0.4402   21.9073 C   0  0  0  0  0  0
   -1.7842   -0.7049   22.5130 N   0  0  0  0  0  0
   -1.9875   -1.9700   21.9273 C   0  0  0  0  0  0
   -1.5080   -2.9299   22.7435 N   0  0  0  0  0  0
   -0.9285   -2.2698   23.8099 N   0  0  0  0  0  0
   -5.6353    0.4086   14.6371 F   0  0  0  0  0  0
   -6.0351    0.6311   19.3479 F   0  0  0  0  0  0
   -0.7066   -1.5151   26.6773 C   0  0  0  0  0  0
    2.1350    3.9588   25.7231 H   0  0  0  0  0  0
    2.4926    6.2629   25.4202 H   0  0  0  0  0  0
    1.1844    6.3534   24.2372 H   0  0  0  0  0  0
    2.7401    5.6382   23.7867 H   0  0  0  0  0  0
   -0.1835    1.5127   23.0980 H   0  0  0  0  0  0
    0.9320    2.7932   27.0254 H   0  0  0  0  0  0
    0.3815    0.6051   27.9060 H   0  0  0  0  0  0
   -3.2914    1.5207   14.9868 H   0  0  0  0  0  0
   -2.3392    2.1428   17.1522 H   0  0  0  0  0  0
   -6.8350    0.1299   16.9250 H   0  0  0  0  0  0
   -3.4746   -0.9547   19.0761 H   0  0  0  0  0  0
   -2.7663   -3.0152   20.2050 H   0  0  0  0  0  0
   -2.1302    1.3762   22.4272 H   0  0  0  0  0  0
   -0.6090   -1.4988   27.7637 H   0  0  0  0  0  0
   -1.7421   -1.7650   26.4453 H   0  0  0  0  0  0
   -0.0738   -2.3125   26.2880 H   0  0  0  0  0  0
  1  5  1  0  0  0
  1  3  2  0  0  0
  1  2  1  0  0  0
  2  4  1  0  0  0
  2 30  1  0  0  0
  4 31  1  0  0  0
  4 32  1  0  0  0
  4 33  1  0  0  0
  5  8  2  0  0  0
  5  7  1  0  0  0
  6 10  1  0  0  0
  6 11  1  0  0  0
  6  7  2  0  0  0
  7 34  1  0  0  0
  8  9  1  0  0  0
  8 35  1  0  0  0
  9 10  2  0  0  0
  9 36  1  0  0  0
 10 29  1  0  0  0
 11 23  1  0  0  0
 11 26  2  0  0  0
 12 17  1  0  0  0
 12 13  2  0  0  0
 12 27  1  0  0  0
 13 14  1  0  0  0
 13 37  1  0  0  0
 14 15  2  0  0  0
 14 38  1  0  0  0
 15 16  1  0  0  0
 15 18  1  0  0  0
 16 17  2  0  0  0
 16 28  1  0  0  0
 17 39  1  0  0  0
 18 19  1  0  0  0
 19 20  1  0  0  0
 19 22  2  0  0  0
 20 21  2  0  0  0
 20 40  1  0  0  0
 21 24  1  0  0  0
 21 41  1  0  0  0
 22 23  1  0  0  0
 22 42  1  0  0  0
 23 24  1  0  0  0
 24 25  2  0  0  0
 25 26  1  0  0  0
 29 43  1  0  0  0
 29 44  1  0  0  0
 29 45  1  0  0  0
M  END
> <s_m_entry_id>
60879

> <s_m_entry_name>
dock_pv.156

> <s_m_Source_Path>
/home/csk/Desktop/cluster/DUD-E-result/mk14

> <s_m_Source_File>
dock_pv.maegz

> <i_m_Source_File_Index>
156

> <chembl_id>
CHEMBL593459

> <chembl_pref_name>
None

> <i_lp_mmshare_version>
53161

> <i_f3d_flags>
0

> <r_lp_tautomer_probability>
1

> <s_lp_Force_Field>
OPLS_2005

> <r_lp_Energy>
20.66555

> <b_lp_Chiralities_Consistent>
1

> <s_lp_Variant>
CHEMBL260_lig1796-1

> <s_i_glide_gridfile>
glide-grid_2qd9

> <i_i_glide_lignum>
2094

> <i_i_glide_rotatable_bonds>
5

> <r_i_docking_score>
-8.37067345054042

> <r_i_glide_ligand_efficiency>
-0.288643912087601

> <r_i_glide_ligand_efficiency_sa>
-0.886805546743143

> <r_i_glide_ligand_efficiency_ln>
-1.91667195820951

> <r_i_glide_gscore>
-8.37067345054042

> <r_i_glide_lipo>
-3.16615978273481

> <r_i_glide_hbond>
0

> <r_i_glide_metal>
0

> <r_i_glide_rewards>
-2.27766834999143

> <r_i_glide_evdw>
-44.3956260681152

> <r_i_glide_ecoul>
-7.30799674987793

> <r_i_glide_erotb>
0.467767746106363

> <r_i_glide_esite>
-0.078632248033095

> <r_i_glide_emodel>
-76.5522804665834

> <r_i_glide_energy>
-51.7036228179932

> <r_i_glide_einternal>
1.67836928367615

> <i_i_glide_confnum>
17

> <i_i_glide_posenum>
66

> <r_i_glide_eff_state_penalty>
0

> <s_user_duplicate_titles>
CHEMBL260_lig1796,593986

> <s_m_subgroup_title>
dock_pv

> <s_m_subgroupid>
dock_pv

> <b_m_subgroup_collapsed>
1

$$$$
CHEMBL260_lig1054
                    3D
 Schrodinger Suite 2021-1.
 44 48  0  0  1  0            999 V2000
   -3.2172   -1.5603   21.6672 C   0  0  0  0  0  0
   -2.2296   -1.0371   22.6488 N   0  0  0  0  0  0
   -2.0364    0.4374   22.7442 C   0  0  0  0  0  0
   -2.9621   -0.9984   20.2469 C   0  0  0  0  0  0
   -3.2350    1.4744   19.4492 N   0  0  0  0  0  0
   -2.8530    0.5034   20.3470 C   0  0  0  0  0  0
   -2.4349    1.1672   21.4771 C   0  0  0  0  0  0
   -2.4354    2.5112   21.0994 C   0  0  0  0  0  0
   -2.9503    2.7071   19.9063 N   0  0  0  0  0  0
   -1.8024   -1.8991   23.6227 C   0  0  0  0  0  0
   -2.0351   -3.1130   23.6060 O   0  0  0  0  0  0
   -3.8580    1.3313   18.1946 C   0  0  0  0  0  0
   -5.1949    0.9184   18.0919 C   0  0  0  0  0  0
   -5.8080    0.8870   16.8408 C   0  0  0  0  0  0
   -5.1018    1.2182   15.6887 C   0  0  0  0  0  0
   -3.7718    1.6143   15.7870 C   0  0  0  0  0  0
   -3.1580    1.6845   17.0332 C   0  0  0  0  0  0
   -6.1367    0.4877   19.4746 Cl  0  0  0  0  0  0
   -1.1846   -1.3419   24.8085 C   0  0  0  0  0  0
   -0.1156   -0.4663   24.9740 C   0  0  0  0  0  0
   -1.5681   -1.7514   26.0662 N   0  0  0  0  0  0
   -0.8885   -1.0675   27.0484 C   0  0  0  0  0  0
    0.0357   -0.2178   26.3767 C   0  0  0  0  0  0
    0.8574    0.6186   27.1431 C   0  0  0  0  0  0
    0.7642    0.5724   28.5325 C   0  0  0  0  0  0
   -0.1383   -0.2784   29.1662 C   0  0  0  0  0  0
   -0.9918   -1.1128   28.4433 C   0  0  0  0  0  0
   -3.1911   -2.6478   21.5720 H   0  0  0  0  0  0
   -4.1989   -1.2466   22.0133 H   0  0  0  0  0  0
   -0.9868    0.6766   22.8999 H   0  0  0  0  0  0
   -2.5362    0.8489   23.6237 H   0  0  0  0  0  0
   -3.7638   -1.2997   19.5747 H   0  0  0  0  0  0
   -2.0472   -1.4254   19.8351 H   0  0  0  0  0  0
   -2.1028    3.3299   21.7184 H   0  0  0  0  0  0
   -6.8334    0.5683   16.7652 H   0  0  0  0  0  0
   -5.5833    1.1666   14.7239 H   0  0  0  0  0  0
   -3.2151    1.8776   14.9002 H   0  0  0  0  0  0
   -2.1342    2.0243   17.0758 H   0  0  0  0  0  0
    0.4751   -0.0259   24.1852 H   0  0  0  0  0  0
   -2.3007   -2.4323   26.2001 H   0  0  0  0  0  0
    1.5716    1.2775   26.6723 H   0  0  0  0  0  0
    1.4213    1.1937   29.1253 H   0  0  0  0  0  0
   -0.1671   -0.3000   30.2466 H   0  0  0  0  0  0
   -1.6790   -1.7787   28.9464 H   0  0  0  0  0  0
  1  4  1  0  0  0
  1  2  1  0  0  0
  1 28  1  0  0  0
  1 29  1  0  0  0
  2  3  1  0  0  0
  2 10  1  0  0  0
  3  7  1  0  0  0
  3 30  1  0  0  0
  3 31  1  0  0  0
  4  6  1  0  0  0
  4 32  1  0  0  0
  4 33  1  0  0  0
  5  6  1  0  0  0
  5  9  1  0  0  0
  5 12  1  0  0  0
  6  7  2  0  0  0
  7  8  1  0  0  0
  8  9  2  0  0  0
  8 34  1  0  0  0
 10 19  1  0  0  0
 10 11  2  0  0  0
 12 13  2  0  0  0
 12 17  1  0  0  0
 13 14  1  0  0  0
 13 18  1  0  0  0
 14 15  2  0  0  0
 14 35  1  0  0  0
 15 16  1  0  0  0
 15 36  1  0  0  0
 16 17  2  0  0  0
 16 37  1  0  0  0
 17 38  1  0  0  0
 19 20  2  0  0  0
 19 21  1  0  0  0
 20 23  1  0  0  0
 20 39  1  0  0  0
 21 22  1  0  0  0
 21 40  1  0  0  0
 22 23  2  0  0  0
 22 27  1  0  0  0
 23 24  1  0  0  0
 24 25  2  0  0  0
 24 41  1  0  0  0
 25 26  1  0  0  0
 25 42  1  0  0  0
 26 27  2  0  0  0
 26 43  1  0  0  0
 27 44  1  0  0  0
M  END
> <s_m_entry_id>
60880

> <s_m_entry_name>
dock_pv.157

> <s_m_Source_Path>
/home/csk/Desktop/cluster/DUD-E-result/mk14

> <s_m_Source_File>
dock_pv.maegz

> <i_m_Source_File_Index>
157

> <chembl_id>
CHEMBL242695

> <chembl_pref_name>
None

> <i_lp_mmshare_version>
53161

> <i_f3d_flags>
0

> <r_lp_tautomer_probability>
1

> <s_lp_Force_Field>
OPLS_2005

> <r_lp_Energy>
35.496866

> <b_lp_Chiralities_Consistent>
1

> <s_lp_Variant>
CHEMBL260_lig1054-1

> <s_i_glide_gridfile>
glide-grid_2qd9

> <i_i_glide_lignum>
1181

> <i_i_glide_rotatable_bonds>
3

> <r_i_docking_score>
-8.35337035683268

> <r_i_glide_ligand_efficiency>
-0.309384087290099

> <r_i_glide_ligand_efficiency_sa>
-0.928152260850619

> <r_i_glide_ligand_efficiency_ln>
-1.94452690299722

> <r_i_glide_gscore>
-8.35337035683268

> <r_i_glide_lipo>
-3.52868774854781

> <r_i_glide_hbond>
-0.47838071360351

> <r_i_glide_metal>
0

> <r_i_glide_rewards>
-1.70947910463922

> <r_i_glide_evdw>
-44.1903190612793

> <r_i_glide_ecoul>
-5.57561302185059

> <r_i_glide_erotb>
0.40903511629941

> <r_i_glide_esite>
0

> <r_i_glide_emodel>
-55.3608299946514

> <r_i_glide_energy>
-49.7659320831299

> <r_i_glide_einternal>
22.8265800476074

> <i_i_glide_confnum>
5

> <i_i_glide_posenum>
207

> <r_i_glide_eff_state_penalty>
0

> <s_user_duplicate_titles>
CHEMBL260_lig1054,386106

> <s_m_subgroup_title>
dock_pv

> <s_m_subgroupid>
dock_pv

> <b_m_subgroup_collapsed>
1

$$$$
CHEMBL260_lig1784
                    3D
 Schrodinger Suite 2021-1.
 45 47  0  0  1  0            999 V2000
   -5.1921    0.7240   15.9107 C   0  0  0  0  0  0
   -3.9288    1.3031   15.9195 C   0  0  0  0  0  0
   -3.3460    1.6870   17.1233 C   0  0  0  0  0  0
   -4.0064    1.4628   18.3380 C   0  0  0  0  0  0
   -5.2821    0.8870   18.3246 C   0  0  0  0  0  0
   -5.8796    0.5533   17.1101 C   0  0  0  0  0  0
   -3.2405    1.9344   19.8760 S   0  0  0  0  0  0
   -2.8169    0.3847   20.6369 C   0  0  0  0  0  0
   -2.6642   -0.7725   19.8760 C   0  0  0  0  0  0
   -2.3955   -2.0049   20.4680 C   0  0  0  0  0  0
   -2.6177    0.3282   22.0150 C   0  0  0  0  0  0
   -2.0883   -1.2808   23.9225 C   0  0  0  0  0  0
   -2.3484   -0.8816   22.6164 N   0  0  0  0  0  0
   -2.2575   -2.0673   21.8605 C   0  0  0  0  0  0
   -2.0185   -3.1130   22.6780 N   0  0  0  0  0  0
   -1.9145   -2.5915   23.9509 N   0  0  0  0  0  0
   -5.7227    0.2837   14.7505 F   0  0  0  0  0  0
   -5.9504    0.6496   19.4760 F   0  0  0  0  0  0
   -1.9161   -0.3479   25.1400 C   0  0  0  0  0  0
   -0.7352    0.6495   24.9003 C   0  0  0  0  0  0
    0.6112    0.0440   24.4269 C   0  0  1  0  0  0
    1.6545    1.1040   24.0336 C   0  0  0  0  0  0
   -3.2103    0.4536   25.3916 C   0  0  0  0  0  0
   -1.6811   -1.1737   26.4398 C   0  0  0  0  0  0
    1.1615   -0.7130   25.4760 O   0  0  0  0  0  0
    2.7949    0.4870   23.4647 O   0  0  0  0  0  0
   -3.3914    1.4470   14.9968 H   0  0  0  0  0  0
   -2.3918    2.1781   17.0760 H   0  0  0  0  0  0
   -6.8350    0.0645   17.1214 H   0  0  0  0  0  0
   -2.7372   -0.7130   18.8044 H   0  0  0  0  0  0
   -2.2881   -2.8958   19.8699 H   0  0  0  0  0  0
   -2.6787    1.2040   22.6361 H   0  0  0  0  0  0
   -0.5599    1.2291   25.8088 H   0  0  0  0  0  0
   -1.0380    1.3870   24.1586 H   0  0  0  0  0  0
    0.4525   -0.6190   23.5750 H   0  0  0  0  0  0
    1.9642    1.6881   24.9025 H   0  0  0  0  0  0
    1.2432    1.8075   23.3096 H   0  0  0  0  0  0
   -3.1463    1.0550   26.2997 H   0  0  0  0  0  0
   -3.4828    1.1271   24.5836 H   0  0  0  0  0  0
   -4.0350   -0.2396   25.5198 H   0  0  0  0  0  0
   -1.4573   -0.5333   27.2939 H   0  0  0  0  0  0
   -2.5560   -1.7717   26.6994 H   0  0  0  0  0  0
   -0.8583   -1.8820   26.3476 H   0  0  0  0  0  0
    1.9650   -1.1367   25.1565 H   0  0  0  0  0  0
    3.5013    1.1433   23.4760 H   0  0  0  0  0  0
  1  6  1  0  0  0
  1  2  2  0  0  0
  1 17  1  0  0  0
  2  3  1  0  0  0
  2 27  1  0  0  0
  3  4  2  0  0  0
  3 28  1  0  0  0
  4  7  1  0  0  0
  4  5  1  0  0  0
  5  6  2  0  0  0
  5 18  1  0  0  0
  6 29  1  0  0  0
  7  8  1  0  0  0
  8  9  1  0  0  0
  8 11  2  0  0  0
  9 10  2  0  0  0
  9 30  1  0  0  0
 10 14  1  0  0  0
 10 31  1  0  0  0
 11 13  1  0  0  0
 11 32  1  0  0  0
 12 13  1  0  0  0
 12 16  2  0  0  0
 12 19  1  0  0  0
 13 14  1  0  0  0
 14 15  2  0  0  0
 15 16  1  0  0  0
 19 20  1  0  0  0
 19 23  1  0  0  0
 19 24  1  0  0  0
 20 21  1  0  0  0
 20 33  1  0  0  0
 20 34  1  0  0  0
 21 22  1  0  0  0
 21 25  1  0  0  0
 21 35  1  0  0  0
 22 26  1  0  0  0
 22 36  1  0  0  0
 22 37  1  0  0  0
 23 38  1  0  0  0
 23 39  1  0  0  0
 23 40  1  0  0  0
 24 41  1  0  0  0
 24 42  1  0  0  0
 24 43  1  0  0  0
 25 44  1  0  0  0
 26 45  1  0  0  0
M  END
> <s_m_entry_id>
60881

> <s_m_entry_name>
dock_pv.158

> <s_m_Source_Path>
/home/csk/Desktop/cluster/DUD-E-result/mk14

> <s_m_Source_File>
dock_pv.maegz

> <i_m_Source_File_Index>
158

> <chembl_id>
CHEMBL604581

> <chembl_pref_name>
None

> <i_lp_mmshare_version>
53161

> <i_f3d_flags>
0

> <r_lp_tautomer_probability>
1

> <s_lp_Force_Field>
OPLS_2005

> <r_lp_Energy>
23.120394

> <b_lp_Chiralities_Consistent>
1

> <s_lp_Variant>
CHEMBL260_lig1784-2

> <s_i_glide_gridfile>
glide-grid_2qd9

> <i_i_glide_lignum>
2081

> <i_i_glide_rotatable_bonds>
8

> <r_i_docking_score>
-8.35312867361323

> <r_i_glide_ligand_efficiency>
-0.321274179754355

> <r_i_glide_ligand_efficiency_sa>
-0.951773493369423

> <r_i_glide_ligand_efficiency_ln>
-1.96170486014732

> <r_i_glide_gscore>
-8.35312867361323

> <r_i_glide_lipo>
-3.3235207069084

> <r_i_glide_hbond>
0

> <r_i_glide_metal>
0

> <r_i_glide_rewards>
-2.56264175739763

> <r_i_glide_evdw>
-39.9049224853516

> <r_i_glide_ecoul>
-8.27102851867676

> <r_i_glide_erotb>
0.808109802107067

> <r_i_glide_esite>
-0.0391756093451744

> <r_i_glide_emodel>
-68.2444421720234

> <r_i_glide_energy>
-48.1759510040283

> <r_i_glide_einternal>
4.82203245162964

> <i_i_glide_confnum>
32

> <i_i_glide_posenum>
143

> <r_i_glide_eff_state_penalty>
0

> <s_user_duplicate_titles>
CHEMBL260_lig1784

> <s_m_subgroup_title>
dock_pv

> <s_m_subgroupid>
dock_pv

> <b_m_subgroup_collapsed>
1

$$$$
CHEMBL260_lig1785
                    3D
 Schrodinger Suite 2021-1.
 35 38  0  0  1  0            999 V2000
   -1.9133   -0.3493   25.0879 C   0  0  0  0  0  0
   -2.8349    0.6979   25.2085 C   0  0  0  0  0  0
   -2.7712    1.5831   26.2810 C   0  0  0  0  0  0
   -1.8086    1.4086   27.2724 C   0  0  0  0  0  0
   -0.9014    0.3547   27.1806 C   0  0  0  0  0  0
   -0.9491   -0.5193   26.0946 C   0  0  0  0  0  0
   -1.9709   -1.2625   23.9020 C   0  0  0  0  0  0
   -5.1508    0.7384   15.8796 C   0  0  0  0  0  0
   -3.8862    1.3125   15.9115 C   0  0  0  0  0  0
   -3.3174    1.6865   17.1218 C   0  0  0  0  0  0
   -3.9915    1.4534   18.3279 C   0  0  0  0  0  0
   -5.2716    0.8870   18.2948 C   0  0  0  0  0  0
   -5.8583    0.5622   17.0698 C   0  0  0  0  0  0
   -3.2355    1.9093   19.8763 S   0  0  0  0  0  0
   -2.7966    0.3592   20.6301 C   0  0  0  0  0  0
   -2.6611   -0.8049   19.8762 C   0  0  0  0  0  0
   -2.3507   -2.0322   20.4663 C   0  0  0  0  0  0
   -2.5594    0.3118   21.9999 C   0  0  0  0  0  0
   -2.2627   -0.8917   22.5994 N   0  0  0  0  0  0
   -2.1632   -2.0830   21.8552 C   0  0  0  0  0  0
   -1.8717   -3.1114   22.6820 N   0  0  0  0  0  0
   -1.7463   -2.5638   23.9467 N   0  0  0  0  0  0
   -5.6550    0.3136   14.7013 F   0  0  0  0  0  0
   -5.9532    0.6509   19.4431 F   0  0  0  0  0  0
   -0.0352   -1.5131   26.0195 F   0  0  0  0  0  0
   -1.7558    2.2602   28.3199 F   0  0  0  0  0  0
   -3.6200    0.8283   24.4788 H   0  0  0  0  0  0
   -3.4730    2.4007   26.3441 H   0  0  0  0  0  0
   -0.1510    0.2189   27.9467 H   0  0  0  0  0  0
   -3.3347    1.4622   14.9969 H   0  0  0  0  0  0
   -2.3653    2.1794   17.0760 H   0  0  0  0  0  0
   -6.8255    0.0878   17.0738 H   0  0  0  0  0  0
   -2.7696   -0.7365   18.8094 H   0  0  0  0  0  0
   -2.2485   -2.9257   19.8706 H   0  0  0  0  0  0
   -2.5883    1.1925   22.6199 H   0  0  0  0  0  0
  1  2  2  0  0  0
  1  7  1  0  0  0
  1  6  1  0  0  0
  2  3  1  0  0  0
  2 27  1  0  0  0
  3  4  2  0  0  0
  3 28  1  0  0  0
  4  5  1  0  0  0
  4 26  1  0  0  0
  5  6  2  0  0  0
  5 29  1  0  0  0
  6 25  1  0  0  0
  7 19  1  0  0  0
  7 22  2  0  0  0
  8 13  1  0  0  0
  8  9  2  0  0  0
  8 23  1  0  0  0
  9 10  1  0  0  0
  9 30  1  0  0  0
 10 11  2  0  0  0
 10 31  1  0  0  0
 11 14  1  0  0  0
 11 12  1  0  0  0
 12 24  1  0  0  0
 12 13  2  0  0  0
 13 32  1  0  0  0
 14 15  1  0  0  0
 15 16  1  0  0  0
 15 18  2  0  0  0
 16 17  2  0  0  0
 16 33  1  0  0  0
 17 20  1  0  0  0
 17 34  1  0  0  0
 18 19  1  0  0  0
 18 35  1  0  0  0
 19 20  1  0  0  0
 20 21  2  0  0  0
 21 22  1  0  0  0
M  END
> <s_m_entry_id>
60882

> <s_m_entry_name>
dock_pv.159

> <s_m_Source_Path>
/home/csk/Desktop/cluster/DUD-E-result/mk14

> <s_m_Source_File>
dock_pv.maegz

> <i_m_Source_File_Index>
159

> <chembl_id>
CHEMBL592978

> <chembl_pref_name>
None

> <i_lp_mmshare_version>
53161

> <i_f3d_flags>
0

> <r_lp_tautomer_probability>
1

> <s_lp_Force_Field>
OPLS_2005

> <r_lp_Energy>
16.770959

> <b_lp_Chiralities_Consistent>
1

> <s_lp_Variant>
CHEMBL260_lig1785-1

> <s_i_glide_gridfile>
glide-grid_2qd9

> <i_i_glide_lignum>
2082

> <i_i_glide_rotatable_bonds>
3

> <r_i_docking_score>
-8.34893098062488

> <r_i_glide_ligand_efficiency>
-0.321112730024034

> <r_i_glide_ligand_efficiency_sa>
-0.95129519917862

> <r_i_glide_ligand_efficiency_ln>
-1.96071904572276

> <r_i_glide_gscore>
-8.34893098062488

> <r_i_glide_lipo>
-3.174895447594

> <r_i_glide_hbond>
0

> <r_i_glide_metal>
0

> <r_i_glide_rewards>
-2.88663199468492

> <r_i_glide_evdw>
-37.6159782409668

> <r_i_glide_ecoul>
-5.24300718307495

> <r_i_glide_erotb>
0.411955510798892

> <r_i_glide_esite>
-0.0321090596352705

> <r_i_glide_emodel>
-62.4726957550535

> <r_i_glide_energy>
-42.8589854240417

> <r_i_glide_einternal>
1.24514079093933

> <i_i_glide_confnum>
8

> <i_i_glide_posenum>
324

> <r_i_glide_eff_state_penalty>
0

> <s_user_duplicate_titles>
CHEMBL260_lig1785,593972

> <s_m_subgroup_title>
dock_pv

> <s_m_subgroupid>
dock_pv

> <b_m_subgroup_collapsed>
1

$$$$
CHEMBL260_lig495
                    3D
 Schrodinger Suite 2021-1.
 59 63  0  0  1  0            999 V2000
   -2.7866    1.2701   21.1771 C   0  0  0  0  0  0
   -2.1089    2.1905   21.9675 N   0  0  0  0  0  0
   -2.7256    3.2165   20.0559 N   0  0  0  0  0  0
   -3.1907    1.9844   20.0316 C   0  0  0  0  0  0
   -2.0356    3.2863   21.1556 C   0  0  0  0  0  0
   -2.8811   -0.1914   21.4501 C   0  0  0  0  0  0
   -2.7418   -0.6360   22.7269 N   0  0  0  0  0  0
   -2.6085   -1.9796   22.8997 C   0  0  0  0  0  0
   -3.9615    1.5362   18.8340 C   0  0  0  0  0  0
   -2.6913   -2.9107   21.9205 N   0  0  0  0  0  0
   -1.1911   -1.7656   24.7989 C   0  0  0  0  0  0
   -1.4258    2.0178   23.2688 C   0  0  0  0  0  0
   -2.1871   -2.4473   24.1298 O   0  0  0  0  0  0
   -1.6571    4.1443   25.3042 N   0  0  2  0  0  0
   -2.9101   -1.0709   20.3715 C   0  0  0  0  0  0
   -0.3673   -0.7413   26.8323 C   0  0  0  0  0  0
    0.9364   -0.5909   24.7934 C   0  0  0  0  0  0
   -5.2363    0.9896   18.9754 C   0  0  0  0  0  0
   -3.4140    1.6875   17.5538 C   0  0  0  0  0  0
   -1.3401   -1.4839   26.1556 C   0  0  0  0  0  0
   -0.0333   -1.3425   24.1332 C   0  0  0  0  0  0
    0.7609   -0.2846   26.1448 C   0  0  0  0  0  0
   -2.8318   -2.4211   20.6628 C   0  0  0  0  0  0
   -5.4382    0.8749   16.5728 C   0  0  0  0  0  0
   -0.2698    3.0029   23.5752 C   0  0  0  0  0  0
   -2.4105    1.9568   24.4590 C   0  0  0  0  0  0
   -5.9988    0.7105   17.8408 C   0  0  0  0  0  0
   -4.1448    1.3498   16.4244 C   0  0  0  0  0  0
   -6.1186    0.4916   15.4748 F   0  0  0  0  0  0
   -0.7240    4.3453   24.1958 C   0  0  0  0  0  0
   -2.8344    3.3508   24.9543 C   0  0  0  0  0  0
    2.1576   -0.0960   24.0387 C   0  0  0  0  0  0
   -0.5174   -0.4447   28.3113 C   0  0  0  0  0  0
   -1.3666    4.0863   21.4140 H   0  0  0  0  0  0
   -0.9408    1.0531   23.1385 H   0  0  0  0  0  0
   -1.9116    5.0160   25.7467 H   0  0  0  0  0  0
   -2.9455   -0.7467   19.3440 H   0  0  0  0  0  0
   -5.6630    0.8452   19.9573 H   0  0  0  0  0  0
   -2.4350    2.1127   17.4199 H   0  0  0  0  0  0
   -2.2221   -1.8286   26.6755 H   0  0  0  0  0  0
    0.0940   -1.5792   23.0884 H   0  0  0  0  0  0
    1.4878    0.3090   26.6745 H   0  0  0  0  0  0
   -2.8322   -3.1102   19.8416 H   0  0  0  0  0  0
    0.4512    2.5300   24.2424 H   0  0  0  0  0  0
    0.3346    3.1758   22.6828 H   0  0  0  0  0  0
   -3.2979    1.3779   24.2055 H   0  0  0  0  0  0
   -1.9779    1.3810   25.2789 H   0  0  0  0  0  0
   -6.9959    0.3070   17.9396 H   0  0  0  0  0  0
   -3.7181    1.4660   15.4387 H   0  0  0  0  0  0
    0.1485    4.8755   24.5804 H   0  0  0  0  0  0
   -1.1865    4.9961   23.4573 H   0  0  0  0  0  0
   -3.4811    3.2611   25.8283 H   0  0  0  0  0  0
   -3.3971    3.8752   24.1799 H   0  0  0  0  0  0
    1.9980   -0.1055   22.9603 H   0  0  0  0  0  0
    3.0268   -0.7119   24.2748 H   0  0  0  0  0  0
    2.3879    0.9342   24.3121 H   0  0  0  0  0  0
    0.4023   -0.7072   28.8387 H   0  0  0  0  0  0
   -0.6959    0.6193   28.4704 H   0  0  0  0  0  0
   -1.3278   -1.0192   28.7658 H   0  0  0  0  0  0
  1  2  1  0  0  0
  1  4  2  0  0  0
  1  6  1  0  0  0
  2  5  1  0  0  0
  2 12  1  0  0  0
  3  4  1  0  0  0
  3  5  2  0  0  0
  4  9  1  0  0  0
  5 34  1  0  0  0
  6  7  1  0  0  0
  6 15  2  0  0  0
  7  8  2  0  0  0
  8 13  1  0  0  0
  8 10  1  0  0  0
  9 18  2  0  0  0
  9 19  1  0  0  0
 10 23  2  0  0  0
 11 13  1  0  0  0
 11 20  2  0  0  0
 11 21  1  0  0  0
 12 25  1  0  0  0
 12 26  1  0  0  0
 12 35  1  0  0  0
 14 31  1  0  0  0
 14 30  1  0  0  0
 14 36  1  0  0  0
 15 23  1  0  0  0
 15 37  1  0  0  0
 16 20  1  0  0  0
 16 33  1  0  0  0
 16 22  2  0  0  0
 17 21  2  0  0  0
 17 22  1  0  0  0
 17 32  1  0  0  0
 18 27  1  0  0  0
 18 38  1  0  0  0
 19 28  2  0  0  0
 19 39  1  0  0  0
 20 40  1  0  0  0
 21 41  1  0  0  0
 22 42  1  0  0  0
 23 43  1  0  0  0
 24 28  1  0  0  0
 24 29  1  0  0  0
 24 27  2  0  0  0
 25 30  1  0  0  0
 25 44  1  0  0  0
 25 45  1  0  0  0
 26 31  1  0  0  0
 26 46  1  0  0  0
 26 47  1  0  0  0
 27 48  1  0  0  0
 28 49  1  0  0  0
 30 50  1  0  0  0
 30 51  1  0  0  0
 31 52  1  0  0  0
 31 53  1  0  0  0
 32 54  1  0  0  0
 32 55  1  0  0  0
 32 56  1  0  0  0
 33 57  1  0  0  0
 33 58  1  0  0  0
 33 59  1  0  0  0
M  END
> <s_m_entry_id>
60883

> <s_m_entry_name>
dock_pv.160

> <s_m_Source_Path>
/home/csk/Desktop/cluster/DUD-E-result/mk14

> <s_m_Source_File>
dock_pv.maegz

> <i_m_Source_File_Index>
160

> <chembl_id>
CHEMBL417255

> <chembl_pref_name>
None

> <i_lp_mmshare_version>
53161

> <i_f3d_flags>
0

> <r_lp_tautomer_probability>
1

> <s_lp_Force_Field>
OPLS_2005

> <r_lp_Energy>
35.497113

> <b_lp_Chiralities_Consistent>
1

> <s_lp_Variant>
CHEMBL260_lig495-1

> <s_i_glide_gridfile>
glide-grid_2qd9

> <i_i_glide_lignum>
565

> <i_i_glide_rotatable_bonds>
5

> <r_i_docking_score>
-8.33862239920808

> <r_i_glide_ligand_efficiency>
-0.25268552724873

> <r_i_glide_ligand_efficiency_sa>
-0.81049750239876

> <r_i_glide_ligand_efficiency_ln>
-1.85446644650777

> <r_i_glide_gscore>
-8.33862239920808

> <r_i_glide_lipo>
-3.95567991357264

> <r_i_glide_hbond>
-0.0902206842066247

> <r_i_glide_metal>
0

> <r_i_glide_rewards>
-2.09497435084531

> <r_i_glide_evdw>
-41.0997085571289

> <r_i_glide_ecoul>
-4.05114698410034

> <r_i_glide_erotb>
0.508176484982537

> <r_i_glide_esite>
-0.04326646009455

> <r_i_glide_emodel>
-41.7138580633937

> <r_i_glide_energy>
-45.1508555412292

> <r_i_glide_einternal>
8.94905567169189

> <i_i_glide_confnum>
192

> <i_i_glide_posenum>
38

> <r_i_glide_eff_state_penalty>
0

> <s_user_duplicate_titles>
CHEMBL260_lig495,13796

> <s_m_subgroup_title>
dock_pv

> <s_m_subgroupid>
dock_pv

> <b_m_subgroup_collapsed>
1

$$$$
CHEMBL260_lig1809
                    3D
 Schrodinger Suite 2021-1.
 34 36  0  0  1  0            999 V2000
   -2.3424   -1.3874   23.9998 C   0  0  0  0  0  0
   -5.4125    0.7055   16.1190 C   0  0  0  0  0  0
   -4.1494    1.2870   16.0289 C   0  0  0  0  0  0
   -3.4732    1.6768   17.1841 C   0  0  0  0  0  0
   -4.0618    1.4665   18.4386 C   0  0  0  0  0  0
   -5.3276    0.8870   18.5241 C   0  0  0  0  0  0
   -6.0055    0.5335   17.3663 C   0  0  0  0  0  0
   -3.2350    1.9631   19.9175 S   0  0  0  0  0  0
   -2.8154    0.4163   20.7076 C   0  0  0  0  0  0
   -2.5374   -0.7073   19.9273 C   0  0  0  0  0  0
   -2.2435   -1.9394   20.5004 C   0  0  0  0  0  0
   -2.7616    0.3145   22.1069 C   0  0  0  0  0  0
   -2.4707   -0.9065   22.6940 N   0  0  0  0  0  0
   -2.2185   -2.0440   21.8958 C   0  0  0  0  0  0
   -1.9682   -3.1130   22.6760 N   0  0  0  0  0  0
   -2.0350   -2.6704   23.9771 N   0  0  0  0  0  0
   -6.0350    0.2494   15.0124 F   0  0  0  0  0  0
   -5.9078    0.6549   19.7213 F   0  0  0  0  0  0
   -2.4275   -0.5683   25.2902 C   0  0  0  0  0  0
   -1.1202    0.2129   25.5271 C   0  0  0  0  0  0
   -2.7547   -1.4359   26.5251 C   0  0  0  0  0  0
   -3.0513    1.6870   23.1269 Cl  0  0  0  0  0  0
   -3.6808    1.4191   15.0679 H   0  0  0  0  0  0
   -2.4999    2.1335   17.0760 H   0  0  0  0  0  0
   -6.9383    0.0222   17.4760 H   0  0  0  0  0  0
   -2.5324   -0.6314   18.8513 H   0  0  0  0  0  0
   -2.0373   -2.8021   19.8827 H   0  0  0  0  0  0
   -3.2521    0.1399   25.2245 H   0  0  0  0  0  0
   -0.8702    0.8616   24.6880 H   0  0  0  0  0  0
   -0.2767   -0.4640   25.6732 H   0  0  0  0  0  0
   -1.1888    0.8413   26.4158 H   0  0  0  0  0  0
   -3.7016   -1.9624   26.4004 H   0  0  0  0  0  0
   -1.9804   -2.1814   26.7124 H   0  0  0  0  0  0
   -2.8350   -0.8265   27.4260 H   0  0  0  0  0  0
  1 13  1  0  0  0
  1 16  2  0  0  0
  1 19  1  0  0  0
  2  7  1  0  0  0
  2  3  2  0  0  0
  2 17  1  0  0  0
  3  4  1  0  0  0
  3 23  1  0  0  0
  4  5  2  0  0  0
  4 24  1  0  0  0
  5  8  1  0  0  0
  5  6  1  0  0  0
  6  7  2  0  0  0
  6 18  1  0  0  0
  7 25  1  0  0  0
  8  9  1  0  0  0
  9 12  2  0  0  0
  9 10  1  0  0  0
 10 11  2  0  0  0
 10 26  1  0  0  0
 11 14  1  0  0  0
 11 27  1  0  0  0
 12 13  1  0  0  0
 12 22  1  0  0  0
 13 14  1  0  0  0
 14 15  2  0  0  0
 15 16  1  0  0  0
 19 20  1  0  0  0
 19 21  1  0  0  0
 19 28  1  0  0  0
 20 29  1  0  0  0
 20 30  1  0  0  0
 20 31  1  0  0  0
 21 32  1  0  0  0
 21 33  1  0  0  0
 21 34  1  0  0  0
M  END
> <s_m_entry_id>
60884

> <s_m_entry_name>
dock_pv.161

> <s_m_Source_Path>
/home/csk/Desktop/cluster/DUD-E-result/mk14

> <s_m_Source_File>
dock_pv.maegz

> <i_m_Source_File_Index>
161

> <chembl_id>
CHEMBL594839

> <chembl_pref_name>
None

> <i_lp_mmshare_version>
53161

> <i_f3d_flags>
0

> <r_lp_tautomer_probability>
1

> <s_lp_Force_Field>
OPLS_2005

> <r_lp_Energy>
13.236377

> <b_lp_Chiralities_Consistent>
1

> <s_lp_Variant>
CHEMBL260_lig1809-1

> <s_i_glide_gridfile>
glide-grid_2qd9

> <i_i_glide_lignum>
2107

> <i_i_glide_rotatable_bonds>
3

> <r_i_docking_score>
-8.3106346909994

> <r_i_glide_ligand_efficiency>
-0.377756122318155

> <r_i_glide_ligand_efficiency_sa>
-1.05848751104073

> <r_i_glide_ligand_efficiency_ln>
-2.03142225624602

> <r_i_glide_gscore>
-8.3106346909994

> <r_i_glide_lipo>
-3.31690089233075

> <r_i_glide_hbond>
0

> <r_i_glide_metal>
0

> <r_i_glide_rewards>
-2.78393209480187

> <r_i_glide_evdw>
-33.7771377563477

> <r_i_glide_ecoul>
-5.41349220275879

> <r_i_glide_erotb>
0.327896662572245

> <r_i_glide_esite>
-0.0368176482078294

> <r_i_glide_emodel>
-56.5253239766643

> <r_i_glide_energy>
-39.1906299591064

> <r_i_glide_einternal>
2.43792176246643

> <i_i_glide_confnum>
2

> <i_i_glide_posenum>
206

> <r_i_glide_eff_state_penalty>
0

> <s_user_duplicate_titles>
CHEMBL260_lig1809,594002

> <s_m_subgroup_title>
dock_pv

> <s_m_subgroupid>
dock_pv

> <b_m_subgroup_collapsed>
1

$$$$
CHEMBL260_lig136
                    3D
 Schrodinger Suite 2021-1.
 42 45  0  0  1  0            999 V2000
   -1.4037   -1.2704   23.5015 N   0  0  0  0  0  0
   -1.4984   -2.5775   23.1209 C   0  0  0  0  0  0
   -1.7454   -0.1953   22.6624 C   0  0  0  0  0  0
   -2.0029   -0.4654   21.3098 C   0  0  0  0  0  0
   -1.0504   -1.0002   24.8552 C   0  0  0  0  0  0
   -2.4350    0.4770   20.4646 N   0  0  0  0  0  0
   -1.5175   -2.8335   21.7946 N   0  0  0  0  0  0
   -2.6234    1.7242   20.9307 C   0  0  0  0  0  0
   -1.9157    1.1209   23.1254 C   0  0  0  0  0  0
   -1.8389   -1.8630   20.7521 C   0  0  0  0  0  0
   -3.2350    2.8850   19.7903 S   0  0  0  0  0  0
   -1.6350   -3.5130   23.8760 O   0  0  0  0  0  0
   -2.0223   -1.0875   25.8731 C   0  0  0  0  0  0
    0.2582   -0.5926   25.1930 C   0  0  0  0  0  0
   -2.3593    2.1016   22.2450 C   0  0  0  0  0  0
   -3.8680    1.8568   18.4703 C   0  0  0  0  0  0
   -5.2012    0.8860   16.2361 C   0  0  0  0  0  0
   -3.6578   -1.5139   25.5303 Cl  0  0  0  0  0  0
   -5.8576    0.4192   15.1516 F   0  0  0  0  0  0
   -5.1304    1.2871   18.6142 C   0  0  0  0  0  0
   -3.2350    1.8444   17.2210 C   0  0  0  0  0  0
   -3.8958    1.3422   16.1054 C   0  0  0  0  0  0
   -5.8234    0.8757   17.4813 C   0  0  0  0  0  0
   -0.3908   -0.4326   27.5267 C   0  0  0  0  0  0
   -1.6854   -0.8169   27.1980 C   0  0  0  0  0  0
    0.5688   -0.3133   26.5277 C   0  0  0  0  0  0
    1.3654   -0.4504   24.1572 C   0  0  0  0  0  0
   -1.4275   -3.7978   21.5148 H   0  0  0  0  0  0
   -1.7337    1.3877   24.1561 H   0  0  0  0  0  0
   -1.0460   -1.8739   20.0028 H   0  0  0  0  0  0
   -2.7568   -2.1834   20.2559 H   0  0  0  0  0  0
   -2.5050    3.1163   22.5805 H   0  0  0  0  0  0
   -5.6294    1.2878   19.5722 H   0  0  0  0  0  0
   -2.2673    2.3023   17.0756 H   0  0  0  0  0  0
   -3.4201    1.3515   15.1353 H   0  0  0  0  0  0
   -6.8297    0.4953   17.5713 H   0  0  0  0  0  0
   -0.1294   -0.2234   28.5536 H   0  0  0  0  0  0
   -2.4301   -0.9007   27.9761 H   0  0  0  0  0  0
    1.5646   -0.0040   26.8051 H   0  0  0  0  0  0
    1.4279    0.5769   23.8001 H   0  0  0  0  0  0
    2.3287   -0.7233   24.5907 H   0  0  0  0  0  0
    1.2150   -1.1115   23.3069 H   0  0  0  0  0  0
  1  2  1  0  0  0
  1  3  1  0  0  0
  1  5  1  0  0  0
  2  7  1  0  0  0
  2 12  2  0  0  0
  3  4  2  0  0  0
  3  9  1  0  0  0
  4  6  1  0  0  0
  4 10  1  0  0  0
  5 13  1  0  0  0
  5 14  2  0  0  0
  6  8  2  0  0  0
  7 10  1  0  0  0
  7 28  1  0  0  0
  8 15  1  0  0  0
  8 11  1  0  0  0
  9 15  2  0  0  0
  9 29  1  0  0  0
 10 30  1  0  0  0
 10 31  1  0  0  0
 11 16  1  0  0  0
 13 18  1  0  0  0
 13 25  2  0  0  0
 14 26  1  0  0  0
 14 27  1  0  0  0
 15 32  1  0  0  0
 16 20  1  0  0  0
 16 21  2  0  0  0
 17 22  2  0  0  0
 17 19  1  0  0  0
 17 23  1  0  0  0
 20 23  2  0  0  0
 20 33  1  0  0  0
 21 22  1  0  0  0
 21 34  1  0  0  0
 22 35  1  0  0  0
 23 36  1  0  0  0
 24 26  2  0  0  0
 24 25  1  0  0  0
 24 37  1  0  0  0
 25 38  1  0  0  0
 26 39  1  0  0  0
 27 40  1  0  0  0
 27 41  1  0  0  0
 27 42  1  0  0  0
M  END
> <s_m_entry_id>
60885

> <s_m_entry_name>
dock_pv.162

> <s_m_Source_Path>
/home/csk/Desktop/cluster/DUD-E-result/mk14

> <s_m_Source_File>
dock_pv.maegz

> <i_m_Source_File_Index>
162

> <chembl_id>
CHEMBL128756

> <chembl_pref_name>
None

> <i_lp_mmshare_version>
53161

> <i_f3d_flags>
0

> <r_lp_tautomer_probability>
1

> <s_lp_Force_Field>
OPLS_2005

> <r_lp_Energy>
41.518633

> <b_lp_Chiralities_Consistent>
1

> <s_lp_Variant>
CHEMBL260_lig136-1

> <s_i_glide_gridfile>
glide-grid_2qd9

> <i_i_glide_lignum>
153

> <i_i_glide_rotatable_bonds>
3

> <r_i_docking_score>
-8.30796342580645

> <r_i_glide_ligand_efficiency>
-0.307702349103943

> <r_i_glide_ligand_efficiency_sa>
-0.923107046297691

> <r_i_glide_ligand_efficiency_ln>
-1.93395691804608

> <r_i_glide_gscore>
-8.30796342580645

> <r_i_glide_lipo>
-3.55964131159573

> <r_i_glide_hbond>
-0.466897870189944

> <r_i_glide_metal>
0

> <r_i_glide_rewards>
-1.71090806356627

> <r_i_glide_evdw>
-30.7018795013428

> <r_i_glide_ecoul>
-9.35425186157227

> <r_i_glide_erotb>
0.367715573848462

> <r_i_glide_esite>
0

> <r_i_glide_emodel>
-52.5095129350601

> <r_i_glide_energy>
-40.056131362915

> <r_i_glide_einternal>
0.487057089805603

> <i_i_glide_confnum>
14

> <i_i_glide_posenum>
5

> <r_i_glide_eff_state_penalty>
0

> <s_user_duplicate_titles>
CHEMBL260_lig136,213085

> <s_m_subgroup_title>
dock_pv

> <s_m_subgroupid>
dock_pv

> <b_m_subgroup_collapsed>
1

$$$$
CHEMBL260_lig467
                    3D
 Schrodinger Suite 2021-1.
 59 63  0  0  1  0            999 V2000
    0.2128   -0.2251   29.4745 C   0  0  0  0  0  0
   -0.8632    0.3701   28.5576 C   0  0  0  0  0  0
   -1.1509   -0.4975   27.3415 C   0  0  0  0  0  0
   -2.3998   -1.1073   27.1978 C   0  0  0  0  0  0
   -2.6732   -1.8725   26.0682 C   0  0  0  0  0  0
   -1.6954   -2.0424   25.0914 C   0  0  0  0  0  0
   -1.9584   -2.8342   23.9979 O   0  0  0  0  0  0
   -2.2002   -2.2737   22.7606 C   0  0  0  0  0  0
   -2.0338   -3.1208   21.7205 N   0  0  0  0  0  0
   -2.1850   -2.5882   20.4829 C   0  0  0  0  0  0
   -2.4869   -1.2426   20.2758 C   0  0  0  0  0  0
   -2.6226   -0.4332   21.4098 C   0  0  0  0  0  0
   -2.5088   -0.9513   22.6618 N   0  0  0  0  0  0
   -2.6465    1.0604   21.2559 C   0  0  0  0  0  0
   -3.0803    1.8418   20.1659 C   0  0  0  0  0  0
   -2.6538    3.0882   20.2766 N   0  0  0  0  0  0
   -2.0361    3.1376   21.4248 C   0  0  0  0  0  0
   -2.0834    1.9743   22.1453 N   0  0  0  0  0  0
   -1.5511    1.7669   23.5111 C   0  0  0  0  0  0
   -0.4908    2.7745   24.0171 C   0  0  0  0  0  0
   -1.0778    4.0969   24.5671 C   0  0  0  0  0  0
   -2.1875    3.8675   25.4961 N   0  0  2  0  0  0
   -3.2518    3.0049   24.9803 C   0  0  0  0  0  0
   -2.6876    1.6384   24.5475 C   0  0  0  0  0  0
   -3.8844    1.4543   18.9601 C   0  0  0  0  0  0
   -3.3862    1.6863   17.6708 C   0  0  0  0  0  0
   -4.1380    1.3900   16.5468 C   0  0  0  0  0  0
   -5.4157    0.8852   16.7035 C   0  0  0  0  0  0
   -6.0983    0.5346   15.5967 F   0  0  0  0  0  0
   -5.9465    0.6588   17.9759 C   0  0  0  0  0  0
   -5.1625    0.9044   19.1057 C   0  0  0  0  0  0
   -0.4403   -1.4491   25.2389 C   0  0  0  0  0  0
   -0.1706   -0.6688   26.3594 C   0  0  0  0  0  0
    0.3778    0.4045   30.3487 H   0  0  0  0  0  0
    1.1651   -0.3118   28.9527 H   0  0  0  0  0  0
   -0.0674   -1.2184   29.8285 H   0  0  0  0  0  0
   -1.7787    0.5310   29.1284 H   0  0  0  0  0  0
   -0.5530    1.3585   28.2137 H   0  0  0  0  0  0
   -3.1601   -0.9893   27.9559 H   0  0  0  0  0  0
   -3.6373   -2.3396   25.9522 H   0  0  0  0  0  0
   -2.0353   -3.2599   19.6492 H   0  0  0  0  0  0
   -2.5338   -0.8433   19.2742 H   0  0  0  0  0  0
   -1.4567    3.9611   21.7979 H   0  0  0  0  0  0
   -1.0112    0.8266   23.4206 H   0  0  0  0  0  0
    0.1181    2.3047   24.7920 H   0  0  0  0  0  0
    0.2596    2.9610   23.2495 H   0  0  0  0  0  0
   -0.2993    4.6384   25.1075 H   0  0  0  0  0  0
   -1.4123    4.7540   23.7671 H   0  0  0  0  0  0
   -2.5527    4.7320   25.8712 H   0  0  0  0  0  0
   -4.0130    2.8758   25.7497 H   0  0  0  0  0  0
   -3.7253    3.5007   24.1326 H   0  0  0  0  0  0
   -3.4881    1.0005   24.1711 H   0  0  0  0  0  0
   -2.3409    1.0861   25.4178 H   0  0  0  0  0  0
   -2.4353    2.1516   17.5023 H   0  0  0  0  0  0
   -3.7390    1.5630   15.5576 H   0  0  0  0  0  0
   -6.9353    0.2355   18.0779 H   0  0  0  0  0  0
   -5.5641    0.7103   20.0895 H   0  0  0  0  0  0
    0.3222   -1.5968   24.4879 H   0  0  0  0  0  0
    0.7998   -0.2053   26.4687 H   0  0  0  0  0  0
  1  2  1  0  0  0
  1 34  1  0  0  0
  1 35  1  0  0  0
  1 36  1  0  0  0
  2  3  1  0  0  0
  2 37  1  0  0  0
  2 38  1  0  0  0
  3  4  2  0  0  0
  3 33  1  0  0  0
  4  5  1  0  0  0
  4 39  1  0  0  0
  5  6  2  0  0  0
  5 40  1  0  0  0
  6  7  1  0  0  0
  6 32  1  0  0  0
  7  8  1  0  0  0
  8  9  2  0  0  0
  8 13  1  0  0  0
  9 10  1  0  0  0
 10 11  2  0  0  0
 10 41  1  0  0  0
 11 12  1  0  0  0
 11 42  1  0  0  0
 12 13  2  0  0  0
 12 14  1  0  0  0
 14 15  2  0  0  0
 14 18  1  0  0  0
 15 16  1  0  0  0
 15 25  1  0  0  0
 16 17  2  0  0  0
 17 18  1  0  0  0
 17 43  1  0  0  0
 18 19  1  0  0  0
 19 20  1  0  0  0
 19 24  1  0  0  0
 19 44  1  0  0  0
 20 21  1  0  0  0
 20 45  1  0  0  0
 20 46  1  0  0  0
 21 22  1  0  0  0
 21 47  1  0  0  0
 21 48  1  0  0  0
 22 23  1  0  0  0
 22 49  1  0  0  0
 23 24  1  0  0  0
 23 50  1  0  0  0
 23 51  1  0  0  0
 24 52  1  0  0  0
 24 53  1  0  0  0
 25 26  2  0  0  0
 25 31  1  0  0  0
 26 27  1  0  0  0
 26 54  1  0  0  0
 27 28  2  0  0  0
 27 55  1  0  0  0
 28 29  1  0  0  0
 28 30  1  0  0  0
 30 31  2  0  0  0
 30 56  1  0  0  0
 31 57  1  0  0  0
 32 33  2  0  0  0
 32 58  1  0  0  0
 33 59  1  0  0  0
M  END
> <s_m_entry_id>
60886

> <s_m_entry_name>
dock_pv.163

> <s_m_Source_Path>
/home/csk/Desktop/cluster/DUD-E-result/mk14

> <s_m_Source_File>
dock_pv.maegz

> <i_m_Source_File_Index>
163

> <chembl_id>
CHEMBL428877

> <chembl_pref_name>
None

> <i_lp_mmshare_version>
53161

> <i_f3d_flags>
0

> <r_lp_tautomer_probability>
1

> <s_lp_Force_Field>
OPLS_2005

> <r_lp_Energy>
32.571173

> <b_lp_Chiralities_Consistent>
1

> <s_lp_Variant>
CHEMBL260_lig467-1

> <s_i_glide_gridfile>
glide-grid_2qd9

> <i_i_glide_lignum>
537

> <i_i_glide_rotatable_bonds>
6

> <r_i_docking_score>
-8.30216611344258

> <r_i_glide_ligand_efficiency>
-0.251580791316442

> <r_i_glide_ligand_efficiency_sa>
-0.806954023974496

> <r_i_glide_ligand_efficiency_ln>
-1.84635875731407

> <r_i_glide_gscore>
-8.30216611344258

> <r_i_glide_lipo>
-3.62765443039144

> <r_i_glide_hbond>
-0.472749832194898

> <r_i_glide_metal>
0

> <r_i_glide_rewards>
-1.95708150009035

> <r_i_glide_evdw>
-42.2515029907227

> <r_i_glide_ecoul>
-4.02678251266479

> <r_i_glide_erotb>
0.508176484982537

> <r_i_glide_esite>
-0.0362643093125769

> <r_i_glide_emodel>
-62.6371763213459

> <r_i_glide_energy>
-46.2782855033875

> <r_i_glide_einternal>
7.50570392608643

> <i_i_glide_confnum>
81

> <i_i_glide_posenum>
208

> <r_i_glide_eff_state_penalty>
0

> <s_user_duplicate_titles>
CHEMBL260_lig467,13791

> <s_m_subgroup_title>
dock_pv

> <s_m_subgroupid>
dock_pv

> <b_m_subgroup_collapsed>
1

$$$$
CHEMBL260_lig463
                    3D
 Schrodinger Suite 2021-1.
 53 57  0  0  1  0            999 V2000
   -2.5863    1.0701   21.4027 C   0  0  0  0  0  0
   -2.0365    2.0207   22.2624 N   0  0  0  0  0  0
   -2.5989    3.0737   20.3566 N   0  0  0  0  0  0
   -3.0016    1.8193   20.2764 C   0  0  0  0  0  0
   -2.0352    3.1777   21.5289 C   0  0  0  0  0  0
   -2.5970   -0.4171   21.6391 C   0  0  0  0  0  0
   -2.5057   -0.8567   22.9231 N   0  0  0  0  0  0
   -2.2745   -2.1819   23.1255 C   0  0  0  0  0  0
   -1.8649   -0.7256   27.5595 C   0  0  0  0  0  0
   -3.8272    1.4234   19.0895 C   0  0  0  0  0  0
   -2.1386   -3.1128   22.1470 N   0  0  0  0  0  0
   -2.3679   -1.5158   26.5252 C   0  0  0  0  0  0
   -1.5212    1.8698   23.6380 C   0  0  0  0  0  0
   -2.0599   -2.6372   24.4113 O   0  0  0  0  0  0
   -1.5895   -1.7914   25.3966 C   0  0  0  0  0  0
   -0.5785   -0.1767   27.4548 C   0  0  0  0  0  0
   -2.1589    4.0275   25.5490 N   0  0  2  0  0  0
   -2.5013   -1.3128   20.5669 C   0  0  0  0  0  0
   -3.3882    1.6872   17.7800 C   0  0  0  0  0  0
   -5.1037    0.8894   19.2932 C   0  0  0  0  0  0
    0.1930   -0.4339   26.3206 C   0  0  0  0  0  0
   -2.8348   -0.4653   28.9673 Cl  0  0  0  0  0  0
   -2.2485   -2.6542   20.8724 C   0  0  0  0  0  0
   -0.3042   -1.2468   25.3016 C   0  0  0  0  0  0
   -5.4786    0.8896   16.9099 C   0  0  0  0  0  0
    0.0918    0.8068   28.7052 Cl  0  0  0  0  0  0
   -0.4579    2.8863   24.1045 C   0  0  0  0  0  0
   -2.6682    1.7793   24.6718 C   0  0  0  0  0  0
   -5.9425    0.6452   18.2048 C   0  0  0  0  0  0
   -4.2017    1.3925   16.6964 C   0  0  0  0  0  0
   -6.2528    0.5938   15.8460 F   0  0  0  0  0  0
   -1.0399    4.2242   24.6218 C   0  0  0  0  0  0
   -3.2324    3.1559   25.0632 C   0  0  0  0  0  0
   -1.4803    4.0237   21.9030 H   0  0  0  0  0  0
   -3.3553   -1.9411   26.6076 H   0  0  0  0  0  0
   -0.9828    0.9233   23.5831 H   0  0  0  0  0  0
   -2.5107    4.9084   25.9031 H   0  0  0  0  0  0
   -2.5253   -0.9777   19.5417 H   0  0  0  0  0  0
   -2.4351    2.1517   17.5703 H   0  0  0  0  0  0
   -5.4596    0.7013   20.2917 H   0  0  0  0  0  0
    1.1873   -0.0176   26.2402 H   0  0  0  0  0  0
   -2.0850   -3.3776   20.0836 H   0  0  0  0  0  0
    0.3087   -1.4727   24.4396 H   0  0  0  0  0  0
    0.1592    2.4356   24.8837 H   0  0  0  0  0  0
    0.2810    3.0484   23.3196 H   0  0  0  0  0  0
   -3.4735    1.1444   24.3017 H   0  0  0  0  0  0
   -2.3313    1.2436   25.5594 H   0  0  0  0  0  0
   -6.9292    0.2427   18.3562 H   0  0  0  0  0  0
   -3.8567    1.5711   15.6874 H   0  0  0  0  0  0
   -0.2584    4.7702   25.1554 H   0  0  0  0  0  0
   -1.3628    4.8675   23.8060 H   0  0  0  0  0  0
   -3.9860    3.0535   25.8444 H   0  0  0  0  0  0
   -3.7087    3.6212   24.2021 H   0  0  0  0  0  0
  1  2  1  0  0  0
  1  4  2  0  0  0
  1  6  1  0  0  0
  2  5  1  0  0  0
  2 13  1  0  0  0
  3  4  1  0  0  0
  3  5  2  0  0  0
  4 10  1  0  0  0
  5 34  1  0  0  0
  6  7  1  0  0  0
  6 18  2  0  0  0
  7  8  2  0  0  0
  8 14  1  0  0  0
  8 11  1  0  0  0
  9 12  2  0  0  0
  9 22  1  0  0  0
  9 16  1  0  0  0
 10 19  1  0  0  0
 10 20  2  0  0  0
 11 23  2  0  0  0
 12 15  1  0  0  0
 12 35  1  0  0  0
 13 27  1  0  0  0
 13 28  1  0  0  0
 13 36  1  0  0  0
 14 15  1  0  0  0
 15 24  2  0  0  0
 16 21  2  0  0  0
 16 26  1  0  0  0
 17 33  1  0  0  0
 17 32  1  0  0  0
 17 37  1  0  0  0
 18 23  1  0  0  0
 18 38  1  0  0  0
 19 30  2  0  0  0
 19 39  1  0  0  0
 20 29  1  0  0  0
 20 40  1  0  0  0
 21 24  1  0  0  0
 21 41  1  0  0  0
 23 42  1  0  0  0
 24 43  1  0  0  0
 25 29  2  0  0  0
 25 31  1  0  0  0
 25 30  1  0  0  0
 27 32  1  0  0  0
 27 44  1  0  0  0
 27 45  1  0  0  0
 28 33  1  0  0  0
 28 46  1  0  0  0
 28 47  1  0  0  0
 29 48  1  0  0  0
 30 49  1  0  0  0
 32 50  1  0  0  0
 32 51  1  0  0  0
 33 52  1  0  0  0
 33 53  1  0  0  0
M  END
> <s_m_entry_id>
60887

> <s_m_entry_name>
dock_pv.164

> <s_m_Source_Path>
/home/csk/Desktop/cluster/DUD-E-result/mk14

> <s_m_Source_File>
dock_pv.maegz

> <i_m_Source_File_Index>
164

> <chembl_id>
CHEMBL275271

> <chembl_pref_name>
None

> <i_lp_mmshare_version>
53161

> <i_f3d_flags>
0

> <r_lp_tautomer_probability>
1

> <s_lp_Force_Field>
OPLS_2005

> <r_lp_Energy>
35.636688

> <b_lp_Chiralities_Consistent>
1

> <s_lp_Variant>
CHEMBL260_lig463-1

> <s_i_glide_gridfile>
glide-grid_2qd9

> <i_i_glide_lignum>
533

> <i_i_glide_rotatable_bonds>
5

> <r_i_docking_score>
-8.28833932143475

> <r_i_glide_ligand_efficiency>
-0.251161797619235

> <r_i_glide_ligand_efficiency_sa>
-0.80561008730822

> <r_i_glide_ligand_efficiency_ln>
-1.84328375036283

> <r_i_glide_gscore>
-8.28833932143475

> <r_i_glide_lipo>
-3.62204539132513

> <r_i_glide_hbond>
-0.542112347409607

> <r_i_glide_metal>
0

> <r_i_glide_rewards>
-1.84675387580423

> <r_i_glide_evdw>
-42.2331924438477

> <r_i_glide_ecoul>
-3.74430751800537

> <r_i_glide_erotb>
0.43281266401155

> <r_i_glide_esite>
-0.0369346210141463

> <r_i_glide_emodel>
-63.8221170368276

> <r_i_glide_energy>
-45.977499961853

> <r_i_glide_einternal>
6.03800773620605

> <i_i_glide_confnum>
169

> <i_i_glide_posenum>
166

> <r_i_glide_eff_state_penalty>
0

> <s_user_duplicate_titles>
CHEMBL260_lig463,13525

> <s_m_subgroup_title>
dock_pv

> <s_m_subgroupid>
dock_pv

> <b_m_subgroup_collapsed>
1

$$$$
CHEMBL260_lig127
                    3D
 Schrodinger Suite 2021-1.
 39 42  0  0  1  0            999 V2000
   -1.4944   -1.3036   23.3794 N   0  0  0  0  0  0
   -1.5581   -2.6258   23.0603 C   0  0  0  0  0  0
   -1.8602   -0.2745   22.4967 C   0  0  0  0  0  0
   -1.1227   -0.9778   24.7148 C   0  0  0  0  0  0
   -2.1497   -0.6125   21.1649 C   0  0  0  0  0  0
   -2.5744    0.2913   20.2757 N   0  0  0  0  0  0
   -1.6350   -2.9505   21.7507 N   0  0  0  0  0  0
   -2.7208    1.5642   20.6793 C   0  0  0  0  0  0
   -3.2350    2.6912   19.4762 S   0  0  0  0  0  0
   -2.0017    1.0658   22.8936 C   0  0  0  0  0  0
   -2.0151   -2.0385   20.6768 C   0  0  0  0  0  0
   -4.0466    1.6869   18.2395 C   0  0  0  0  0  0
   -2.0690   -1.0405   25.7581 C   0  0  0  0  0  0
    0.2010   -0.6031   25.0129 C   0  0  0  0  0  0
   -1.6347   -3.5129   23.8761 O   0  0  0  0  0  0
   -3.6239    1.6840   16.8957 C   0  0  0  0  0  0
   -2.4335    2.0066   21.9665 C   0  0  0  0  0  0
    1.4220   -0.5071   23.7900 Cl  0  0  0  0  0  0
   -3.7052   -1.5131   25.4713 Cl  0  0  0  0  0  0
   -2.1835    2.4893   16.3812 Cl  0  0  0  0  0  0
   -0.3838   -0.3662   27.3526 C   0  0  0  0  0  0
   -5.2346    1.0444   18.5897 C   0  0  0  0  0  0
    0.5549   -0.2966   26.3276 C   0  0  0  0  0  0
   -1.6938   -0.7376   27.0667 C   0  0  0  0  0  0
   -4.4169    1.0763   15.9209 C   0  0  0  0  0  0
   -6.0469    0.4961   17.6019 C   0  0  0  0  0  0
   -5.6390    0.5038   16.2679 C   0  0  0  0  0  0
   -1.5105   -3.9205   21.5066 H   0  0  0  0  0  0
   -1.7892    1.3854   23.9034 H   0  0  0  0  0  0
   -1.2615   -2.0902   19.8894 H   0  0  0  0  0  0
   -2.9577   -2.3835   20.2469 H   0  0  0  0  0  0
   -2.5324    3.0446   22.2410 H   0  0  0  0  0  0
   -0.0924   -0.1356   28.3676 H   0  0  0  0  0  0
   -5.5784    1.0552   19.6143 H   0  0  0  0  0  0
    1.5649   -0.0065   26.5659 H   0  0  0  0  0  0
   -2.4186   -0.7991   27.8654 H   0  0  0  0  0  0
   -4.1023    1.0821   14.8873 H   0  0  0  0  0  0
   -7.0028    0.0738   17.8740 H   0  0  0  0  0  0
   -6.2691    0.0640   15.5084 H   0  0  0  0  0  0
  1  2  1  0  0  0
  1  3  1  0  0  0
  1  4  1  0  0  0
  2  7  1  0  0  0
  2 15  2  0  0  0
  3  5  2  0  0  0
  3 10  1  0  0  0
  4 13  2  0  0  0
  4 14  1  0  0  0
  5  6  1  0  0  0
  5 11  1  0  0  0
  6  8  2  0  0  0
  7 11  1  0  0  0
  7 28  1  0  0  0
  8 17  1  0  0  0
  8  9  1  0  0  0
  9 12  1  0  0  0
 10 17  2  0  0  0
 10 29  1  0  0  0
 11 30  1  0  0  0
 11 31  1  0  0  0
 12 16  2  0  0  0
 12 22  1  0  0  0
 13 19  1  0  0  0
 13 24  1  0  0  0
 14 18  1  0  0  0
 14 23  2  0  0  0
 16 20  1  0  0  0
 16 25  1  0  0  0
 17 32  1  0  0  0
 21 23  1  0  0  0
 21 24  2  0  0  0
 21 33  1  0  0  0
 22 26  2  0  0  0
 22 34  1  0  0  0
 23 35  1  0  0  0
 24 36  1  0  0  0
 25 27  2  0  0  0
 25 37  1  0  0  0
 26 27  1  0  0  0
 26 38  1  0  0  0
 27 39  1  0  0  0
M  END
> <s_m_entry_id>
60888

> <s_m_entry_name>
dock_pv.165

> <s_m_Source_Path>
/home/csk/Desktop/cluster/DUD-E-result/mk14

> <s_m_Source_File>
dock_pv.maegz

> <i_m_Source_File_Index>
165

> <chembl_id>
CHEMBL340687

> <chembl_pref_name>
None

> <i_lp_mmshare_version>
53161

> <i_f3d_flags>
0

> <r_lp_tautomer_probability>
1

> <s_lp_Force_Field>
OPLS_2005

> <r_lp_Energy>
40.364823

> <b_lp_Chiralities_Consistent>
1

> <s_lp_Variant>
CHEMBL260_lig127-1

> <s_i_glide_gridfile>
glide-grid_2qd9

> <i_i_glide_lignum>
144

> <i_i_glide_rotatable_bonds>
3

> <r_i_docking_score>
-8.28465759370489

> <r_i_glide_ligand_efficiency>
-0.306839170137218

> <r_i_glide_ligand_efficiency_sa>
-0.920517509400363

> <r_i_glide_ligand_efficiency_ln>
-1.92853170455951

> <r_i_glide_gscore>
-8.28465759370489

> <r_i_glide_lipo>
-4.08239536849486

> <r_i_glide_hbond>
-0.466784014950059

> <r_i_glide_metal>
0

> <r_i_glide_rewards>
-1.03366559497113

> <r_i_glide_evdw>
-32.686653137207

> <r_i_glide_ecoul>
-9.20681667327881

> <r_i_glide_erotb>
0.313542542563326

> <r_i_glide_esite>
0

> <r_i_glide_emodel>
-53.9267102086015

> <r_i_glide_energy>
-41.8934698104858

> <r_i_glide_einternal>
0.495430499315262

> <i_i_glide_confnum>
5

> <i_i_glide_posenum>
44

> <r_i_glide_eff_state_penalty>
0

> <s_user_duplicate_titles>
CHEMBL260_lig127,213263

> <s_m_subgroup_title>
dock_pv

> <s_m_subgroupid>
dock_pv

> <b_m_subgroup_collapsed>
1

$$$$
CHEMBL260_lig161
                    3D
 Schrodinger Suite 2021-1.
 39 42  0  0  1  0            999 V2000
   -1.4870   -1.3222   23.3325 N   0  0  0  0  0  0
   -1.4152   -2.6517   23.0508 C   0  0  0  0  0  0
   -1.9503   -0.3537   22.4292 C   0  0  0  0  0  0
   -1.0962   -0.9168   24.6397 C   0  0  0  0  0  0
   -2.3768   -0.7701   21.1557 C   0  0  0  0  0  0
   -2.8240    0.0913   20.2307 N   0  0  0  0  0  0
   -4.0445    1.5881   18.0110 C   0  0  0  0  0  0
   -1.6366   -3.0335   21.7743 N   0  0  0  0  0  0
   -3.2351    2.5088   19.3016 S   0  0  0  0  0  0
   -2.8299    1.3972   20.5475 C   0  0  0  0  0  0
   -2.0004    1.0130   22.7415 C   0  0  0  0  0  0
   -2.3198   -2.2303   20.7653 C   0  0  0  0  0  0
    0.2089   -0.4440   24.8803 C   0  0  0  0  0  0
   -2.0111   -0.9789   25.7089 C   0  0  0  0  0  0
   -1.2349   -3.5130   23.8760 O   0  0  0  0  0  0
   -3.5496    1.6364   16.6932 C   0  0  0  0  0  0
   -5.2817    0.9714   18.2582 C   0  0  0  0  0  0
   -2.4350    1.9079   21.7786 C   0  0  0  0  0  0
    1.3830   -0.3145   23.6130 Cl  0  0  0  0  0  0
   -3.6354   -1.5149   25.4796 Cl  0  0  0  0  0  0
   -5.9669    0.8608   19.8477 Cl  0  0  0  0  0  0
   -2.0730    2.4414   16.2760 Cl  0  0  0  0  0  0
   -5.5414    0.5189   15.8914 C   0  0  0  0  0  0
   -0.3273   -0.1388   27.2237 C   0  0  0  0  0  0
   -6.0350    0.4872   17.1925 C   0  0  0  0  0  0
   -1.6190   -0.6013   26.9929 C   0  0  0  0  0  0
   -4.2888    1.0756   15.6537 C   0  0  0  0  0  0
    0.5751   -0.0504   26.1683 C   0  0  0  0  0  0
   -1.4025   -3.9825   21.5298 H   0  0  0  0  0  0
   -1.6824    1.3947   23.7005 H   0  0  0  0  0  0
   -1.7822   -2.3419   19.8234 H   0  0  0  0  0  0
   -3.3251   -2.6256   20.6116 H   0  0  0  0  0  0
   -2.4355    2.9689   21.9764 H   0  0  0  0  0  0
   -6.1201    0.1024   15.0794 H   0  0  0  0  0  0
   -0.0246    0.1576   28.2182 H   0  0  0  0  0  0
   -6.9872    0.0248   17.3990 H   0  0  0  0  0  0
   -2.3183   -0.6636   27.8138 H   0  0  0  0  0  0
   -3.8924    1.1043   14.6537 H   0  0  0  0  0  0
    1.5650    0.3271   26.3618 H   0  0  0  0  0  0
  1  2  1  0  0  0
  1  3  1  0  0  0
  1  4  1  0  0  0
  2  8  1  0  0  0
  2 15  2  0  0  0
  3  5  2  0  0  0
  3 11  1  0  0  0
  4 13  2  0  0  0
  4 14  1  0  0  0
  5  6  1  0  0  0
  5 12  1  0  0  0
  6 10  2  0  0  0
  7  9  1  0  0  0
  7 16  2  0  0  0
  7 17  1  0  0  0
  8 12  1  0  0  0
  8 29  1  0  0  0
  9 10  1  0  0  0
 10 18  1  0  0  0
 11 18  2  0  0  0
 11 30  1  0  0  0
 12 31  1  0  0  0
 12 32  1  0  0  0
 13 19  1  0  0  0
 13 28  1  0  0  0
 14 20  1  0  0  0
 14 26  2  0  0  0
 16 22  1  0  0  0
 16 27  1  0  0  0
 17 21  1  0  0  0
 17 25  2  0  0  0
 18 33  1  0  0  0
 23 25  1  0  0  0
 23 27  2  0  0  0
 23 34  1  0  0  0
 24 26  1  0  0  0
 24 28  2  0  0  0
 24 35  1  0  0  0
 25 36  1  0  0  0
 26 37  1  0  0  0
 27 38  1  0  0  0
 28 39  1  0  0  0
M  END
> <s_m_entry_id>
60889

> <s_m_entry_name>
dock_pv.166

> <s_m_Source_Path>
/home/csk/Desktop/cluster/DUD-E-result/mk14

> <s_m_Source_File>
dock_pv.maegz

> <i_m_Source_File_Index>
166

> <chembl_id>
CHEMBL341029

> <chembl_pref_name>
None

> <i_lp_mmshare_version>
53161

> <i_f3d_flags>
0

> <r_lp_tautomer_probability>
1

> <s_lp_Force_Field>
OPLS_2005

> <r_lp_Energy>
39.335321

> <b_lp_Chiralities_Consistent>
1

> <s_lp_Variant>
CHEMBL260_lig161-1

> <s_i_glide_gridfile>
glide-grid_2qd9

> <i_i_glide_lignum>
178

> <i_i_glide_rotatable_bonds>
3

> <r_i_docking_score>
-8.27725126126889

> <r_i_glide_ligand_efficiency>
-0.295616116473889

> <r_i_glide_ligand_efficiency_sa>
-0.897664638196255

> <r_i_glide_ligand_efficiency_ln>
-1.91063262175823

> <r_i_glide_gscore>
-8.27725126126889

> <r_i_glide_lipo>
-4.32830381005243

> <r_i_glide_hbond>
-0.429023822069006

> <r_i_glide_metal>
0

> <r_i_glide_rewards>
-0.803523990135896

> <r_i_glide_evdw>
-34.2141418457031

> <r_i_glide_ecoul>
-8.52525901794434

> <r_i_glide_erotb>
0.273096305965253

> <r_i_glide_esite>
0

> <r_i_glide_emodel>
-47.925749231043

> <r_i_glide_energy>
-42.7394008636475

> <r_i_glide_einternal>
6.54347705841064

> <i_i_glide_confnum>
7

> <i_i_glide_posenum>
5

> <r_i_glide_eff_state_penalty>
0

> <s_user_duplicate_titles>
CHEMBL260_lig161,213340

> <s_m_subgroup_title>
dock_pv

> <s_m_subgroupid>
dock_pv

> <b_m_subgroup_collapsed>
1

$$$$
CHEMBL260_lig1780
                    3D
 Schrodinger Suite 2021-1.
 34 36  0  0  1  0            999 V2000
   -5.4161    0.7132   16.1291 C   0  0  0  0  0  0
   -4.1563    1.2997   16.0391 C   0  0  0  0  0  0
   -3.4800    1.6869   17.1951 C   0  0  0  0  0  0
   -4.0661    1.4663   18.4510 C   0  0  0  0  0  0
   -5.3341    0.8870   18.5365 C   0  0  0  0  0  0
   -6.0098    0.5362   17.3755 C   0  0  0  0  0  0
   -3.2350    1.9398   19.9358 S   0  0  0  0  0  0
   -2.8270    0.3801   20.6834 C   0  0  0  0  0  0
   -2.5401   -0.7450   19.9044 C   0  0  0  0  0  0
   -2.2420   -1.9785   20.4865 C   0  0  0  0  0  0
   -2.7790    0.2834   22.0734 C   0  0  0  0  0  0
   -2.3643   -1.3445   23.9670 C   0  0  0  0  0  0
   -2.4797   -0.9251   22.6542 N   0  0  0  0  0  0
   -2.2136   -2.0729   21.8858 C   0  0  0  0  0  0
   -1.9566   -3.1130   22.7084 N   0  0  0  0  0  0
   -2.0349   -2.6228   23.9990 N   0  0  0  0  0  0
   -6.0349    0.2581   15.0206 F   0  0  0  0  0  0
   -2.5089   -0.4240   25.1765 C   0  0  0  0  0  0
   -1.2968    0.5189   25.2980 C   0  0  0  0  0  0
   -2.7275   -1.2018   26.4909 C   0  0  0  0  0  0
   -5.9208    0.6604   19.7355 F   0  0  0  0  0  0
   -3.6920    1.4377   15.0760 H   0  0  0  0  0  0
   -2.5075    2.1438   17.0781 H   0  0  0  0  0  0
   -6.9425    0.0233   17.4760 H   0  0  0  0  0  0
   -2.5300   -0.6683   18.8287 H   0  0  0  0  0  0
   -2.0348   -2.8450   19.8760 H   0  0  0  0  0  0
   -2.9741    1.1138   22.7345 H   0  0  0  0  0  0
   -3.3962    0.1958   25.0348 H   0  0  0  0  0  0
   -1.1763    1.1438   24.4130 H   0  0  0  0  0  0
   -0.3711   -0.0434   25.4305 H   0  0  0  0  0  0
   -1.3965    1.1855   26.1555 H   0  0  0  0  0  0
   -3.6281   -1.8154   26.4434 H   0  0  0  0  0  0
   -1.8866   -1.8613   26.7128 H   0  0  0  0  0  0
   -2.8350   -0.5244   27.3384 H   0  0  0  0  0  0
  1  6  1  0  0  0
  1  2  2  0  0  0
  1 17  1  0  0  0
  2  3  1  0  0  0
  2 22  1  0  0  0
  3  4  2  0  0  0
  3 23  1  0  0  0
  4  7  1  0  0  0
  4  5  1  0  0  0
  5  6  2  0  0  0
  5 21  1  0  0  0
  6 24  1  0  0  0
  7  8  1  0  0  0
  8 11  2  0  0  0
  8  9  1  0  0  0
  9 10  2  0  0  0
  9 25  1  0  0  0
 10 14  1  0  0  0
 10 26  1  0  0  0
 11 13  1  0  0  0
 11 27  1  0  0  0
 12 13  1  0  0  0
 12 16  2  0  0  0
 12 18  1  0  0  0
 13 14  1  0  0  0
 14 15  2  0  0  0
 15 16  1  0  0  0
 18 19  1  0  0  0
 18 20  1  0  0  0
 18 28  1  0  0  0
 19 29  1  0  0  0
 19 30  1  0  0  0
 19 31  1  0  0  0
 20 32  1  0  0  0
 20 33  1  0  0  0
 20 34  1  0  0  0
M  END
> <s_m_entry_id>
60890

> <s_m_entry_name>
dock_pv.167

> <s_m_Source_Path>
/home/csk/Desktop/cluster/DUD-E-result/mk14

> <s_m_Source_File>
dock_pv.maegz

> <i_m_Source_File_Index>
167

> <chembl_id>
CHEMBL593422

> <chembl_pref_name>
None

> <i_lp_mmshare_version>
53161

> <i_f3d_flags>
0

> <r_lp_tautomer_probability>
1

> <s_lp_Force_Field>
OPLS_2005

> <r_lp_Energy>
8.902359

> <b_lp_Chiralities_Consistent>
1

> <s_lp_Variant>
CHEMBL260_lig1780-1

> <s_i_glide_gridfile>
glide-grid_2qd9

> <i_i_glide_lignum>
2076

> <i_i_glide_rotatable_bonds>
3

> <r_i_docking_score>
-8.27119038442727

> <r_i_glide_ligand_efficiency>
-0.393866208782251

> <r_i_glide_ligand_efficiency_sa>
-1.08664700456615

> <r_i_glide_ligand_efficiency_ln>
-2.04503510903575

> <r_i_glide_gscore>
-8.27119038442727

> <r_i_glide_lipo>
-3.1737188565786

> <r_i_glide_hbond>
0

> <r_i_glide_metal>
0

> <r_i_glide_rewards>
-3.02080061674097

> <r_i_glide_evdw>
-32.9058609008789

> <r_i_glide_ecoul>
-5.27093839645386

> <r_i_glide_erotb>
0.3958916957844

> <r_i_glide_esite>
-0.0366288023800798

> <r_i_glide_emodel>
-55.8933853521401

> <r_i_glide_energy>
-38.1767992973328

> <r_i_glide_einternal>
0.370903551578522

> <i_i_glide_confnum>
2

> <i_i_glide_posenum>
3

> <r_i_glide_eff_state_penalty>
0

> <s_user_duplicate_titles>
CHEMBL260_lig1780,595251

> <s_m_subgroup_title>
dock_pv

> <s_m_subgroupid>
dock_pv

> <b_m_subgroup_collapsed>
1

$$$$
CHEMBL260_lig1606
                    3D
 Schrodinger Suite 2021-1.
 40 43  0  0  1  0            999 V2000
   -0.9014    1.2529   23.7782 C   0  0  0  0  0  0
    0.0144    0.4116   24.6795 C   0  0  0  0  0  0
   -1.8928   -1.7642   23.9112 C   0  0  0  0  0  0
   -1.7519    0.5477   22.7158 C   0  0  0  0  0  0
   -2.1532   -0.8099   22.7678 C   0  0  0  0  0  0
   -2.8664   -1.3550   21.6810 C   0  0  0  0  0  0
   -3.2352   -0.5639   20.5952 C   0  0  0  0  0  0
   -2.9109    0.7916   20.5752 C   0  0  0  0  0  0
   -2.1855    1.3239   21.6356 C   0  0  0  0  0  0
   -1.7319   -1.2957   25.3247 C   0  0  0  0  0  0
   -0.7710   -0.3533   25.7254 C   0  0  0  0  0  0
   -0.6376   -0.0608   27.0881 C   0  0  0  0  0  0
   -1.4597   -0.6667   28.0354 C   0  0  0  0  0  0
   -2.4331   -1.5735   27.6285 C   0  0  0  0  0  0
   -2.5585   -1.9042   26.2808 C   0  0  0  0  0  0
   -2.0349   -2.9834   23.7326 O   0  0  0  0  0  0
   -3.2354    1.6473   19.5124 N   0  0  0  0  0  0
   -3.8842    1.3654   18.3028 C   0  0  0  0  0  0
   -3.2356    1.6836   17.1007 C   0  0  0  0  0  0
   -3.8387    1.4030   15.8793 C   0  0  0  0  0  0
   -5.1201    0.8695   15.8496 C   0  0  0  0  0  0
   -5.8297    0.6784   17.0320 C   0  0  0  0  0  0
   -5.2054    0.8874   18.2621 C   0  0  0  0  0  0
   -5.8908    0.6357   19.4036 F   0  0  0  0  0  0
   -5.6466    0.4873   14.6745 F   0  0  0  0  0  0
   -1.5727    1.8437   24.4018 H   0  0  0  0  0  0
   -0.2710    1.9830   23.2675 H   0  0  0  0  0  0
    0.7174    1.0759   25.1833 H   0  0  0  0  0  0
    0.6434   -0.2675   24.1029 H   0  0  0  0  0  0
   -3.1734   -2.3925   21.6595 H   0  0  0  0  0  0
   -3.7785   -1.0139   19.7787 H   0  0  0  0  0  0
   -1.9232    2.3713   21.6084 H   0  0  0  0  0  0
    0.0970    0.6600   27.4163 H   0  0  0  0  0  0
   -1.3457   -0.4265   29.0820 H   0  0  0  0  0  0
   -3.0670   -2.0463   28.3637 H   0  0  0  0  0  0
   -3.3019   -2.6360   25.9962 H   0  0  0  0  0  0
   -2.6736    2.4889   19.5000 H   0  0  0  0  0  0
   -2.2408    2.1003   17.0760 H   0  0  0  0  0  0
   -3.3062    1.5810   14.9567 H   0  0  0  0  0  0
   -6.8301    0.2747   17.0029 H   0  0  0  0  0  0
  1  4  1  0  0  0
  1  2  1  0  0  0
  1 26  1  0  0  0
  1 27  1  0  0  0
  2 11  1  0  0  0
  2 28  1  0  0  0
  2 29  1  0  0  0
  3 16  2  0  0  0
  3  5  1  0  0  0
  3 10  1  0  0  0
  4  9  1  0  0  0
  4  5  2  0  0  0
  5  6  1  0  0  0
  6  7  2  0  0  0
  6 30  1  0  0  0
  7  8  1  0  0  0
  7 31  1  0  0  0
  8 17  1  0  0  0
  8  9  2  0  0  0
  9 32  1  0  0  0
 10 15  1  0  0  0
 10 11  2  0  0  0
 11 12  1  0  0  0
 12 13  2  0  0  0
 12 33  1  0  0  0
 13 14  1  0  0  0
 13 34  1  0  0  0
 14 15  2  0  0  0
 14 35  1  0  0  0
 15 36  1  0  0  0
 17 18  1  0  0  0
 17 37  1  0  0  0
 18 19  2  0  0  0
 18 23  1  0  0  0
 19 20  1  0  0  0
 19 38  1  0  0  0
 20 21  2  0  0  0
 20 39  1  0  0  0
 21 22  1  0  0  0
 21 25  1  0  0  0
 22 23  2  0  0  0
 22 40  1  0  0  0
 23 24  1  0  0  0
M  END
> <s_m_entry_id>
60891

> <s_m_entry_name>
dock_pv.168

> <s_m_Source_Path>
/home/csk/Desktop/cluster/DUD-E-result/mk14

> <s_m_Source_File>
dock_pv.maegz

> <i_m_Source_File_Index>
168

> <chembl_id>
CHEMBL515407

> <chembl_pref_name>
None

> <i_lp_mmshare_version>
53161

> <i_f3d_flags>
0

> <r_lp_tautomer_probability>
1

> <s_lp_Force_Field>
OPLS_2005

> <r_lp_Energy>
36.895472

> <b_lp_Chiralities_Consistent>
1

> <s_lp_Variant>
CHEMBL260_lig1606-1

> <s_i_glide_gridfile>
glide-grid_2qd9

> <i_i_glide_lignum>
1855

> <i_i_glide_rotatable_bonds>
2

> <r_i_docking_score>
-8.26550469152805

> <r_i_glide_ligand_efficiency>
-0.330620187661122

> <r_i_glide_ligand_efficiency_sa>
-0.966739292295116

> <r_i_glide_ligand_efficiency_ln>
-1.95917230907982

> <r_i_glide_gscore>
-8.26550469152805

> <r_i_glide_lipo>
-3.47011844295895

> <r_i_glide_hbond>
-0.367291027689702

> <r_i_glide_metal>
0

> <r_i_glide_rewards>
-2.20910508540004

> <r_i_glide_evdw>
-37.6497459411621

> <r_i_glide_ecoul>
-4.48091650009155

> <r_i_glide_erotb>
0.335634636592482

> <r_i_glide_esite>
0

> <r_i_glide_emodel>
-58.571227418072

> <r_i_glide_energy>
-42.1306624412537

> <r_i_glide_einternal>
5.47816848754883

> <i_i_glide_confnum>
56

> <i_i_glide_posenum>
204

> <r_i_glide_eff_state_penalty>
0

> <s_user_duplicate_titles>
CHEMBL260_lig1606,458657

> <s_m_subgroup_title>
dock_pv

> <s_m_subgroupid>
dock_pv

> <b_m_subgroup_collapsed>
1

$$$$
CHEMBL260_lig1805
                    3D
 Schrodinger Suite 2021-1.
 46 49  0  0  1  0            999 V2000
    1.0775    2.2496   25.1309 C   0  0  0  0  0  0
   -0.6352    0.3054   24.7747 C   0  0  0  0  0  0
    0.7380    0.9325   24.3970 C   0  0  0  0  0  0
   -0.1210    3.0953   25.0938 N   0  0  0  0  0  0
   -1.1760    2.5791   25.9787 C   0  0  0  0  0  0
   -1.7154    1.2579   25.3755 C   0  0  0  0  0  0
   -1.1249   -0.7725   23.8239 C   0  0  0  0  0  0
   -5.2335    0.6967   15.9750 C   0  0  0  0  0  0
   -3.9762    1.2881   15.9514 C   0  0  0  0  0  0
   -3.3731    1.6870   17.1406 C   0  0  0  0  0  0
   -4.0117    1.4760   18.3689 C   0  0  0  0  0  0
   -5.2807    0.8877   18.3895 C   0  0  0  0  0  0
   -5.8926    0.5308   17.1899 C   0  0  0  0  0  0
   -3.2351    2.0093   19.8760 S   0  0  0  0  0  0
   -2.6841    0.5179   20.6773 C   0  0  0  0  0  0
   -2.8158   -0.7378   20.0796 C   0  0  0  0  0  0
   -2.4279   -1.9055   20.7407 C   0  0  0  0  0  0
   -2.0962    0.6145   21.9379 C   0  0  0  0  0  0
   -1.7187   -0.5301   22.5993 N   0  0  0  0  0  0
   -1.8947   -1.8057   22.0345 C   0  0  0  0  0  0
   -1.4724   -2.7484   22.9083 N   0  0  0  0  0  0
   -0.9859   -2.0705   24.0139 N   0  0  0  0  0  0
   -5.7877    0.2376   14.8331 F   0  0  0  0  0  0
   -5.9294    0.6701   19.5570 F   0  0  0  0  0  0
   -0.4008    3.9230   24.0499 C   0  0  0  0  0  0
    0.7836    4.4256   23.1780 C   0  0  0  0  0  0
   -1.5367    4.3790   23.8764 O   0  0  0  0  0  0
    0.3650    5.3780   22.2052 O   0  0  0  0  0  0
    1.9649    2.7667   24.7731 H   0  0  0  0  0  0
    1.3122    2.0552   26.1791 H   0  0  0  0  0  0
   -0.3184   -0.1451   25.7189 H   0  0  0  0  0  0
    0.7096    1.2030   23.3411 H   0  0  0  0  0  0
    1.5548    0.2209   24.5300 H   0  0  0  0  0  0
   -0.7191    2.3936   26.9522 H   0  0  0  0  0  0
   -1.9356    3.3342   26.1905 H   0  0  0  0  0  0
   -2.3477    0.7449   26.1018 H   0  0  0  0  0  0
   -2.3695    1.5963   24.5741 H   0  0  0  0  0  0
   -3.4589    1.4272   15.0167 H   0  0  0  0  0  0
   -2.4233    2.1848   17.0760 H   0  0  0  0  0  0
   -6.8350    0.0260   17.2239 H   0  0  0  0  0  0
   -3.2127   -0.8195   19.0828 H   0  0  0  0  0  0
   -2.5285   -2.8670   20.2652 H   0  0  0  0  0  0
   -1.9227    1.5573   22.4332 H   0  0  0  0  0  0
    1.2630    3.5873   22.6759 H   0  0  0  0  0  0
    1.5318    4.8942   23.8183 H   0  0  0  0  0  0
    0.8888    5.2873   21.3937 H   0  0  0  0  0  0
  1  4  1  0  0  0
  1  3  1  0  0  0
  1 29  1  0  0  0
  1 30  1  0  0  0
  2  7  1  0  0  0
  2  3  1  0  0  0
  2  6  1  0  0  0
  2 31  1  0  0  0
  3 32  1  0  0  0
  3 33  1  0  0  0
  4  5  1  0  0  0
  4 25  1  0  0  0
  5  6  1  0  0  0
  5 34  1  0  0  0
  5 35  1  0  0  0
  6 36  1  0  0  0
  6 37  1  0  0  0
  7 19  1  0  0  0
  7 22  2  0  0  0
  8  9  2  0  0  0
  8 23  1  0  0  0
  8 13  1  0  0  0
  9 10  1  0  0  0
  9 38  1  0  0  0
 10 11  2  0  0  0
 10 39  1  0  0  0
 11 14  1  0  0  0
 11 12  1  0  0  0
 12 24  1  0  0  0
 12 13  2  0  0  0
 13 40  1  0  0  0
 14 15  1  0  0  0
 15 16  1  0  0  0
 15 18  2  0  0  0
 16 17  2  0  0  0
 16 41  1  0  0  0
 17 20  1  0  0  0
 17 42  1  0  0  0
 18 19  1  0  0  0
 18 43  1  0  0  0
 19 20  1  0  0  0
 20 21  2  0  0  0
 21 22  1  0  0  0
 25 26  1  0  0  0
 25 27  2  0  0  0
 26 28  1  0  0  0
 26 44  1  0  0  0
 26 45  1  0  0  0
 28 46  1  0  0  0
M  END
> <s_m_entry_id>
60892

> <s_m_entry_name>
dock_pv.169

> <s_m_Source_Path>
/home/csk/Desktop/cluster/DUD-E-result/mk14

> <s_m_Source_File>
dock_pv.maegz

> <i_m_Source_File_Index>
169

> <chembl_id>
CHEMBL596469

> <chembl_pref_name>
None

> <i_lp_mmshare_version>
53161

> <i_f3d_flags>
0

> <r_lp_tautomer_probability>
1

> <s_lp_Force_Field>
OPLS_2005

> <r_lp_Energy>
34.540028

> <b_lp_Chiralities_Consistent>
1

> <s_lp_Variant>
CHEMBL260_lig1805-1

> <s_i_glide_gridfile>
glide-grid_2qd9

> <i_i_glide_lignum>
2103

> <i_i_glide_rotatable_bonds>
6

> <r_i_docking_score>
-8.25935130753711

> <r_i_glide_ligand_efficiency>
-0.294976832412039

> <r_i_glide_ligand_efficiency_sa>
-0.895723395266303

> <r_i_glide_ligand_efficiency_ln>
-1.90650078687146

> <r_i_glide_gscore>
-8.25935130753711

> <r_i_glide_lipo>
-2.96896985185337

> <r_i_glide_hbond>
0

> <r_i_glide_metal>
0

> <r_i_glide_rewards>
-2.26064212131367

> <r_i_glide_evdw>
-37.833625793457

> <r_i_glide_ecoul>
-11.2700061798096

> <r_i_glide_erotb>
0.600458320843365

> <r_i_glide_esite>
-0.0480154385691427

> <r_i_glide_emodel>
-69.2984539409879

> <r_i_glide_energy>
-49.1036319732666

> <r_i_glide_einternal>
5.20704698562622

> <i_i_glide_confnum>
32

> <i_i_glide_posenum>
125

> <r_i_glide_eff_state_penalty>
0

> <s_user_duplicate_titles>
CHEMBL260_lig1805,594001

> <s_m_subgroup_title>
dock_pv

> <s_m_subgroupid>
dock_pv

> <b_m_subgroup_collapsed>
1

$$$$
CHEMBL260_lig1527
                    3D
 Schrodinger Suite 2021-1.
 34 36  0  0  1  0            999 V2000
   -5.5100    0.8878   16.6662 C   0  0  0  0  0  0
   -6.1804    0.6067   17.8585 C   0  0  0  0  0  0
   -5.4834    0.6383   19.0653 C   0  0  0  0  0  0
   -4.1240    0.9586   19.0680 C   0  0  0  0  0  0
   -3.4844    1.2872   17.8714 C   0  0  0  0  0  0
   -4.1774    1.2689   16.6697 C   0  0  0  0  0  0
   -6.1246    0.7422   15.4768 F   0  0  0  0  0  0
   -3.3527    0.9189   20.3349 C   0  0  0  0  0  0
   -2.8109    2.0200   20.9871 C   0  0  0  0  0  0
   -2.0543    1.5133   22.4664 S   0  0  0  0  0  0
   -2.3899   -0.1444   22.0231 C   0  0  0  0  0  0
   -3.1100   -0.2420   20.9202 N   0  0  0  0  0  0
   -1.8837   -1.2349   22.7796 N   0  0  0  0  0  0
   -1.4533   -1.0051   24.1142 C   0  0  0  0  0  0
   -2.3594   -1.1445   25.1836 C   0  0  0  0  0  0
   -1.9197   -0.9911   26.4973 C   0  0  0  0  0  0
   -0.5881   -0.6825   26.7645 C   0  0  0  0  0  0
    0.3067   -0.5045   25.7132 C   0  0  0  0  0  0
   -0.1139   -0.6614   24.3923 C   0  0  0  0  0  0
    1.0435   -0.3860   23.1381 Cl  0  0  0  0  0  0
   -4.0282   -1.5121   24.9172 Cl  0  0  0  0  0  0
   -1.9222   -2.5351   22.3424 C   0  0  0  0  0  0
   -2.0210   -3.5085   23.0887 O   0  0  0  0  0  0
   -1.7132   -2.7474   21.0383 N   0  0  0  0  0  0
   -7.2186    0.3068   17.8542 H   0  0  0  0  0  0
   -5.9951    0.3880   19.9822 H   0  0  0  0  0  0
   -2.4376    1.5089   17.8458 H   0  0  0  0  0  0
   -3.6726    1.4818   15.7377 H   0  0  0  0  0  0
   -2.8415    3.0578   20.6961 H   0  0  0  0  0  0
   -2.6088   -1.1149   27.3195 H   0  0  0  0  0  0
   -0.2530   -0.5654   27.7843 H   0  0  0  0  0  0
    1.3342   -0.2467   25.9265 H   0  0  0  0  0  0
   -1.8085   -3.6793   20.6642 H   0  0  0  0  0  0
   -1.5516   -1.9761   20.4080 H   0  0  0  0  0  0
  1  6  1  0  0  0
  1  2  2  0  0  0
  1  7  1  0  0  0
  2  3  1  0  0  0
  2 25  1  0  0  0
  3  4  2  0  0  0
  3 26  1  0  0  0
  4  8  1  0  0  0
  4  5  1  0  0  0
  5  6  2  0  0  0
  5 27  1  0  0  0
  6 28  1  0  0  0
  8 12  1  0  0  0
  8  9  2  0  0  0
  9 10  1  0  0  0
  9 29  1  0  0  0
 10 11  1  0  0  0
 11 13  1  0  0  0
 11 12  2  0  0  0
 13 14  1  0  0  0
 13 22  1  0  0  0
 14 15  2  0  0  0
 14 19  1  0  0  0
 15 16  1  0  0  0
 15 21  1  0  0  0
 16 17  2  0  0  0
 16 30  1  0  0  0
 17 18  1  0  0  0
 17 31  1  0  0  0
 18 19  2  0  0  0
 18 32  1  0  0  0
 19 20  1  0  0  0
 22 23  2  0  0  0
 22 24  1  0  0  0
 24 33  1  0  0  0
 24 34  1  0  0  0
M  END
> <s_m_entry_id>
60893

> <s_m_entry_name>
dock_pv.170

> <s_m_Source_Path>
/home/csk/Desktop/cluster/DUD-E-result/mk14

> <s_m_Source_File>
dock_pv.maegz

> <i_m_Source_File_Index>
170

> <chembl_id>
CHEMBL516760

> <chembl_pref_name>
None

> <i_lp_mmshare_version>
53161

> <i_f3d_flags>
0

> <r_lp_tautomer_probability>
1

> <s_lp_Force_Field>
OPLS_2005

> <r_lp_Energy>
28.993746

> <b_lp_Chiralities_Consistent>
1

> <s_lp_Variant>
CHEMBL260_lig1527-1

> <s_i_glide_gridfile>
glide-grid_2qd9

> <i_i_glide_lignum>
1768

> <i_i_glide_rotatable_bonds>
4

> <r_i_docking_score>
-8.24799649055278

> <r_i_glide_ligand_efficiency>
-0.343666520439699

> <r_i_glide_ligand_efficiency_sa>
-0.991305781816256

> <r_i_glide_ligand_efficiency_ln>
-1.97412403608641

> <r_i_glide_gscore>
-8.24799649055278

> <r_i_glide_lipo>
-3.37047176114959

> <r_i_glide_hbond>
-0.609132134267129

> <r_i_glide_metal>
0

> <r_i_glide_rewards>
-1.68343601984037

> <r_i_glide_evdw>
-35.0494232177734

> <r_i_glide_ecoul>
-8.20815944671631

> <r_i_glide_erotb>
0.398738502600426

> <r_i_glide_esite>
0

> <r_i_glide_emodel>
-60.653339668128

> <r_i_glide_energy>
-43.2575826644897

> <r_i_glide_einternal>
5.67577505111694

> <i_i_glide_confnum>
4

> <i_i_glide_posenum>
253

> <r_i_glide_eff_state_penalty>
0

> <s_user_duplicate_titles>
CHEMBL260_lig1527,468302

> <s_m_subgroup_title>
dock_pv

> <s_m_subgroupid>
dock_pv

> <b_m_subgroup_collapsed>
1

$$$$
CHEMBL260_lig453
                    3D
 Schrodinger Suite 2021-1.
 56 60  0  0  1  0            999 V2000
   -2.5979    1.0527   21.2345 C   0  0  0  0  0  0
   -2.0537    1.9717   22.1295 N   0  0  0  0  0  0
   -2.6599    3.0909   20.2760 N   0  0  0  0  0  0
   -3.0528    1.8350   20.1551 C   0  0  0  0  0  0
   -2.0352    3.1439   21.4196 C   0  0  0  0  0  0
   -2.5693   -0.4415   21.3859 C   0  0  0  0  0  0
   -2.4756   -0.9590   22.6398 N   0  0  0  0  0  0
   -0.6424    0.2009   28.5846 C   0  0  0  0  0  0
   -2.2055   -2.2892   22.7443 C   0  0  0  0  0  0
   -3.8680    1.4460   18.9598 C   0  0  0  0  0  0
   -2.0450   -3.1427   21.7089 N   0  0  0  0  0  0
   -1.0042   -0.6009   27.3353 C   0  0  0  0  0  0
   -1.5044    1.7610   23.4866 C   0  0  0  0  0  0
   -2.0351   -2.8566   23.9898 O   0  0  0  0  0  0
   -2.1447    3.8295   25.4998 N   0  0  2  0  0  0
   -0.6524   -0.6047   29.6466 F   0  0  0  0  0  0
   -1.5439    1.1665   28.7720 F   0  0  0  0  0  0
    0.5626    0.7665   28.4963 F   0  0  0  0  0  0
   -2.4382   -1.2560   20.2548 C   0  0  0  0  0  0
   -5.1386    0.8876   19.1361 C   0  0  0  0  0  0
   -3.3962    1.6870   17.6608 C   0  0  0  0  0  0
   -0.0843   -0.7675   26.2930 C   0  0  0  0  0  0
   -2.2773   -1.1735   27.2340 C   0  0  0  0  0  0
   -1.7041   -2.0816   25.0769 C   0  0  0  0  0  0
   -2.1673   -2.6079   20.4690 C   0  0  0  0  0  0
   -5.4574    0.8853   16.7439 C   0  0  0  0  0  0
   -0.4329   -1.5125   25.1701 C   0  0  0  0  0  0
   -2.6277   -1.9102   26.1057 C   0  0  0  0  0  0
   -0.4532    2.7834   23.9774 C   0  0  0  0  0  0
   -2.6223    1.6054   24.5400 C   0  0  0  0  0  0
   -5.9511    0.6467   18.0278 C   0  0  0  0  0  0
   -4.1813    1.3919   16.5559 C   0  0  0  0  0  0
   -6.1856    0.5503   15.6602 F   0  0  0  0  0  0
   -1.0539    4.0867   24.5560 C   0  0  0  0  0  0
   -3.2041    2.9547   24.9955 C   0  0  0  0  0  0
   -1.4774    3.9815   21.7962 H   0  0  0  0  0  0
   -0.9535    0.8288   23.3797 H   0  0  0  0  0  0
   -2.5155    4.6820   25.8959 H   0  0  0  0  0  0
   -2.4750   -0.8571   19.2525 H   0  0  0  0  0  0
   -5.5131    0.6880   20.1295 H   0  0  0  0  0  0
   -2.4350    2.1355   17.4762 H   0  0  0  0  0  0
    0.9072   -0.3404   26.3539 H   0  0  0  0  0  0
   -2.9926   -1.0553   28.0357 H   0  0  0  0  0  0
   -2.0352   -3.2879   19.6393 H   0  0  0  0  0  0
    0.2874   -1.6601   24.3785 H   0  0  0  0  0  0
   -3.6092   -2.3533   26.0324 H   0  0  0  0  0  0
    0.1878    2.3200   24.7300 H   0  0  0  0  0  0
    0.2671    2.9965   23.1859 H   0  0  0  0  0  0
   -3.4191    0.9609   24.1689 H   0  0  0  0  0  0
   -2.2557    1.0478   25.3999 H   0  0  0  0  0  0
   -6.9386    0.2270   18.1543 H   0  0  0  0  0  0
   -3.8097    1.5680   15.5566 H   0  0  0  0  0  0
   -0.2746    4.6288   25.0938 H   0  0  0  0  0  0
   -1.4073    4.7528   23.7715 H   0  0  0  0  0  0
   -3.9487    2.8027   25.7789 H   0  0  0  0  0  0
   -3.7043    3.4501   24.1625 H   0  0  0  0  0  0
  1  2  1  0  0  0
  1  4  2  0  0  0
  1  6  1  0  0  0
  2  5  1  0  0  0
  2 13  1  0  0  0
  3  4  1  0  0  0
  3  5  2  0  0  0
  4 10  1  0  0  0
  5 36  1  0  0  0
  6  7  1  0  0  0
  6 19  2  0  0  0
  7  9  2  0  0  0
  8 12  1  0  0  0
  8 16  1  0  0  0
  8 17  1  0  0  0
  8 18  1  0  0  0
  9 14  1  0  0  0
  9 11  1  0  0  0
 10 20  2  0  0  0
 10 21  1  0  0  0
 11 25  2  0  0  0
 12 23  1  0  0  0
 12 22  2  0  0  0
 13 29  1  0  0  0
 13 30  1  0  0  0
 13 37  1  0  0  0
 14 24  1  0  0  0
 15 35  1  0  0  0
 15 34  1  0  0  0
 15 38  1  0  0  0
 19 25  1  0  0  0
 19 39  1  0  0  0
 20 31  1  0  0  0
 20 40  1  0  0  0
 21 32  2  0  0  0
 21 41  1  0  0  0
 22 27  1  0  0  0
 22 42  1  0  0  0
 23 28  2  0  0  0
 23 43  1  0  0  0
 24 27  2  0  0  0
 24 28  1  0  0  0
 25 44  1  0  0  0
 26 32  1  0  0  0
 26 33  1  0  0  0
 26 31  2  0  0  0
 27 45  1  0  0  0
 28 46  1  0  0  0
 29 34  1  0  0  0
 29 47  1  0  0  0
 29 48  1  0  0  0
 30 35  1  0  0  0
 30 49  1  0  0  0
 30 50  1  0  0  0
 31 51  1  0  0  0
 32 52  1  0  0  0
 34 53  1  0  0  0
 34 54  1  0  0  0
 35 55  1  0  0  0
 35 56  1  0  0  0
M  END
> <s_m_entry_id>
60894

> <s_m_entry_name>
dock_pv.171

> <s_m_Source_Path>
/home/csk/Desktop/cluster/DUD-E-result/mk14

> <s_m_Source_File>
dock_pv.maegz

> <i_m_Source_File_Index>
171

> <chembl_id>
CHEMBL264227

> <chembl_pref_name>
None

> <i_lp_mmshare_version>
53161

> <i_f3d_flags>
0

> <r_lp_tautomer_probability>
1

> <s_lp_Force_Field>
OPLS_2005

> <r_lp_Energy>
33.691523

> <b_lp_Chiralities_Consistent>
1

> <s_lp_Variant>
CHEMBL260_lig453-1

> <s_i_glide_gridfile>
glide-grid_2qd9

> <i_i_glide_lignum>
522

> <i_i_glide_rotatable_bonds>
6

> <r_i_docking_score>
-8.20649706833794

> <r_i_glide_ligand_efficiency>
-0.234471344809655

> <r_i_glide_ligand_efficiency_sa>
-0.766971315802526

> <r_i_glide_ligand_efficiency_ln>
-1.80150823988952

> <r_i_glide_gscore>
-8.20649706833794

> <r_i_glide_lipo>
-3.64617509010864

> <r_i_glide_hbond>
-0.483754550345245

> <r_i_glide_metal>
0

> <r_i_glide_rewards>
-1.78666277338986

> <r_i_glide_evdw>
-44.0861396789551

> <r_i_glide_ecoul>
-3.22235655784607

> <r_i_glide_erotb>
0.434273389161164

> <r_i_glide_esite>
-0.036517576030693

> <r_i_glide_emodel>
-60.7543255670037

> <r_i_glide_energy>
-47.3084962368011

> <r_i_glide_einternal>
6.80863285064697

> <i_i_glide_confnum>
125

> <i_i_glide_posenum>
285

> <r_i_glide_eff_state_penalty>
0

> <s_user_duplicate_titles>
CHEMBL260_lig453,13606

> <s_m_subgroup_title>
dock_pv

> <s_m_subgroupid>
dock_pv

> <b_m_subgroup_collapsed>
1

$$$$
CHEMBL260_lig1781
                    3D
 Schrodinger Suite 2021-1.
 37 39  0  0  1  0            999 V2000
   -5.3960    0.7742   16.1655 C   0  0  0  0  0  0
   -4.1233    1.3328   16.0925 C   0  0  0  0  0  0
   -3.4485    1.6791   17.2632 C   0  0  0  0  0  0
   -4.0483    1.4514   18.5121 C   0  0  0  0  0  0
   -5.3231    0.8870   18.5775 C   0  0  0  0  0  0
   -5.9954    0.5758   17.4037 C   0  0  0  0  0  0
   -3.2350    1.9105   20.0140 S   0  0  0  0  0  0
   -2.7334    0.3587   20.7247 C   0  0  0  0  0  0
   -2.5409   -0.7760   19.9341 C   0  0  0  0  0  0
   -2.1720   -1.9992   20.4928 C   0  0  0  0  0  0
   -2.5073    0.2834   22.0988 C   0  0  0  0  0  0
   -1.8215   -1.3236   23.9569 C   0  0  0  0  0  0
   -2.1303   -0.9142   22.6638 N   0  0  0  0  0  0
   -1.9750   -2.0733   21.8784 C   0  0  0  0  0  0
   -1.6351   -3.1130   22.6657 N   0  0  0  0  0  0
   -1.5426   -2.6158   23.9484 N   0  0  0  0  0  0
   -6.0292    0.3682   15.0474 F   0  0  0  0  0  0
   -1.7999   -0.4315   25.2137 C   0  0  0  0  0  0
   -1.3576   -1.2444   26.4600 C   0  0  0  0  0  0
   -3.2130    0.1248   25.4958 C   0  0  0  0  0  0
   -5.9220    0.6447   19.7672 F   0  0  0  0  0  0
   -0.7899    0.7267   25.0369 C   0  0  0  0  0  0
   -3.6581    1.4869   15.1297 H   0  0  0  0  0  0
   -2.4744    2.1343   17.1658 H   0  0  0  0  0  0
   -6.9375    0.0785   17.4763 H   0  0  0  0  0  0
   -2.6616   -0.7129   18.8664 H   0  0  0  0  0  0
   -2.0353   -2.8752   19.8764 H   0  0  0  0  0  0
   -2.6236    1.1337   22.7492 H   0  0  0  0  0  0
   -1.3308   -0.6285   27.3599 H   0  0  0  0  0  0
   -0.3606   -1.6693   26.3299 H   0  0  0  0  0  0
   -2.0341   -2.0768   26.6588 H   0  0  0  0  0  0
   -3.5900    0.7542   24.6920 H   0  0  0  0  0  0
   -3.9272   -0.6897   25.6219 H   0  0  0  0  0  0
   -3.2351    0.7225   26.4080 H   0  0  0  0  0  0
   -1.0616    1.4123   24.2372 H   0  0  0  0  0  0
   -0.6980    1.3208   25.9473 H   0  0  0  0  0  0
    0.2056    0.3465   24.8010 H   0  0  0  0  0  0
  1  6  1  0  0  0
  1  2  2  0  0  0
  1 17  1  0  0  0
  2  3  1  0  0  0
  2 23  1  0  0  0
  3  4  2  0  0  0
  3 24  1  0  0  0
  4  7  1  0  0  0
  4  5  1  0  0  0
  5  6  2  0  0  0
  5 21  1  0  0  0
  6 25  1  0  0  0
  7  8  1  0  0  0
  8 11  2  0  0  0
  8  9  1  0  0  0
  9 10  2  0  0  0
  9 26  1  0  0  0
 10 14  1  0  0  0
 10 27  1  0  0  0
 11 13  1  0  0  0
 11 28  1  0  0  0
 12 13  1  0  0  0
 12 16  2  0  0  0
 12 18  1  0  0  0
 13 14  1  0  0  0
 14 15  2  0  0  0
 15 16  1  0  0  0
 18 19  1  0  0  0
 18 20  1  0  0  0
 18 22  1  0  0  0
 19 29  1  0  0  0
 19 30  1  0  0  0
 19 31  1  0  0  0
 20 32  1  0  0  0
 20 33  1  0  0  0
 20 34  1  0  0  0
 22 35  1  0  0  0
 22 36  1  0  0  0
 22 37  1  0  0  0
M  END
> <s_m_entry_id>
60895

> <s_m_entry_name>
dock_pv.172

> <s_m_Source_Path>
/home/csk/Desktop/cluster/DUD-E-result/mk14

> <s_m_Source_File>
dock_pv.maegz

> <i_m_Source_File_Index>
172

> <chembl_id>
CHEMBL609275

> <chembl_pref_name>
None

> <i_lp_mmshare_version>
53161

> <i_f3d_flags>
0

> <r_lp_tautomer_probability>
1

> <s_lp_Force_Field>
OPLS_2005

> <r_lp_Energy>
15.196523

> <b_lp_Chiralities_Consistent>
1

> <s_lp_Variant>
CHEMBL260_lig1781-1

> <s_i_glide_gridfile>
glide-grid_2qd9

> <i_i_glide_lignum>
2077

> <i_i_glide_rotatable_bonds>
3

> <r_i_docking_score>
-8.20334936196352

> <r_i_glide_ligand_efficiency>
-0.372879516452887

> <r_i_glide_ligand_efficiency_sa>
-1.04482306962022

> <r_i_glide_ligand_efficiency_ln>
-2.00519780850219

> <r_i_glide_gscore>
-8.20334936196352

> <r_i_glide_lipo>
-3.22118644263578

> <r_i_glide_hbond>
0

> <r_i_glide_metal>
0

> <r_i_glide_rewards>
-2.86163644200271

> <r_i_glide_evdw>
-33.538028717041

> <r_i_glide_ecoul>
-5.2556529045105

> <r_i_glide_erotb>
0.365844830247253

> <r_i_glide_esite>
-0.0211219360436553

> <r_i_glide_emodel>
-56.751194959598

> <r_i_glide_energy>
-38.7936816215515

> <r_i_glide_einternal>
0.331928610801697

> <i_i_glide_confnum>
1

> <i_i_glide_posenum>
191

> <r_i_glide_eff_state_penalty>
0

> <s_user_duplicate_titles>
CHEMBL260_lig1781,595252

> <s_m_subgroup_title>
dock_pv

> <s_m_subgroupid>
dock_pv

> <b_m_subgroup_collapsed>
1

$$$$
CHEMBL260_lig1818
                    3D
 Schrodinger Suite 2021-1.
 38 40  0  0  1  0            999 V2000
   -2.2908   -1.4584   23.8462 C   0  0  0  0  0  0
   -2.7811    0.3030   20.6360 C   0  0  0  0  0  0
   -2.4353   -0.8690   19.8351 C   0  0  0  0  0  0
   -1.8024   -1.9322   20.3654 C   0  0  0  0  0  0
   -2.6133    0.2022   21.9767 C   0  0  0  0  0  0
   -2.0942   -0.9412   22.5787 N   0  0  0  0  0  0
   -1.3548   -1.9537   21.8236 C   0  0  1  0  0  0
   -1.7700   -3.1130   22.5717 N   0  0  1  0  0  0
   -2.0444   -2.7035   23.8758 N   0  0  0  0  0  0
   -2.7689   -0.5729   25.0076 C   0  0  0  0  0  0
   -1.6753    0.4386   25.4110 C   0  0  0  0  0  0
   -3.2218   -1.4123   26.2233 C   0  0  0  0  0  0
   -5.3758    0.8867   16.2451 C   0  0  0  0  0  0
   -4.0870    1.4163   16.2367 C   0  0  0  0  0  0
   -3.4350    1.6815   17.4417 C   0  0  0  0  0  0
   -4.0547    1.3786   18.6628 C   0  0  0  0  0  0
   -5.3643    0.8870   18.6571 C   0  0  0  0  0  0
   -6.0335    0.6746   17.4546 C   0  0  0  0  0  0
   -5.9607    0.5119   15.0866 F   0  0  0  0  0  0
   -5.9894    0.5971   19.8184 F   0  0  0  0  0  0
   -3.3244    1.5800   19.9911 C   0  0  0  0  0  0
   -2.6929   -0.8956   18.7885 H   0  0  0  0  0  0
   -1.5584   -2.7726   19.7346 H   0  0  0  0  0  0
   -2.8916    1.0101   22.6372 H   0  0  0  0  0  0
   -0.2796   -1.8007   21.9182 H   0  0  0  0  0  0
   -2.6765   -3.3195   22.1744 H   0  0  0  0  0  0
   -3.6396   -0.0089   24.6707 H   0  0  0  0  0  0
   -1.3988    1.0975   24.5872 H   0  0  0  0  0  0
   -0.7668   -0.0650   25.7466 H   0  0  0  0  0  0
   -2.0141    1.0755   26.2287 H   0  0  0  0  0  0
   -4.0338   -2.0899   25.9617 H   0  0  0  0  0  0
   -2.4067   -2.0104   26.6345 H   0  0  0  0  0  0
   -3.5935   -0.7772   27.0236 H   0  0  0  0  0  0
   -3.5861    1.5944   15.2960 H   0  0  0  0  0  0
   -2.4351    2.0831   17.4138 H   0  0  0  0  0  0
   -7.0194    0.2393   17.4765 H   0  0  0  0  0  0
   -4.0201    2.0631   20.6753 H   0  0  0  0  0  0
   -2.5076    2.2931   19.8758 H   0  0  0  0  0  0
  1  6  1  0  0  0
  1  9  2  0  0  0
  1 10  1  0  0  0
  2  3  1  0  0  0
  2  5  2  0  0  0
  2 21  1  0  0  0
  3  4  2  0  0  0
  3 22  1  0  0  0
  4  7  1  0  0  0
  4 23  1  0  0  0
  5  6  1  0  0  0
  5 24  1  0  0  0
  6  7  1  0  0  0
  7  8  1  0  0  0
  7 25  1  0  0  0
  8  9  1  0  0  0
  8 26  1  0  0  0
 10 11  1  0  0  0
 10 12  1  0  0  0
 10 27  1  0  0  0
 11 28  1  0  0  0
 11 29  1  0  0  0
 11 30  1  0  0  0
 12 31  1  0  0  0
 12 32  1  0  0  0
 12 33  1  0  0  0
 13 14  2  0  0  0
 13 18  1  0  0  0
 13 19  1  0  0  0
 14 15  1  0  0  0
 14 34  1  0  0  0
 15 16  2  0  0  0
 15 35  1  0  0  0
 16 17  1  0  0  0
 16 21  1  0  0  0
 17 18  2  0  0  0
 17 20  1  0  0  0
 18 36  1  0  0  0
 21 37  1  0  0  0
 21 38  1  0  0  0
M  END
> <s_m_entry_id>
60896

> <s_m_entry_name>
dock_pv.173

> <s_m_Source_Path>
/home/csk/Desktop/cluster/DUD-E-result/mk14

> <s_m_Source_File>
dock_pv.maegz

> <i_m_Source_File_Index>
173

> <chembl_id>
CHEMBL607557

> <chembl_pref_name>
None

> <i_lp_mmshare_version>
53161

> <i_f3d_flags>
0

> <r_lp_tautomer_probability>
1

> <s_lp_Force_Field>
OPLS_2005

> <r_lp_Energy>
26.364456

> <b_lp_Chiralities_Consistent>
1

> <s_lp_Variant>
CHEMBL260_lig1818-1

> <s_i_glide_gridfile>
glide-grid_2qd9

> <i_i_glide_lignum>
2117

> <i_i_glide_rotatable_bonds>
3

> <r_i_docking_score>
-8.1997760086512

> <r_i_glide_ligand_efficiency>
-0.390465524221486

> <r_i_glide_ligand_efficiency_sa>
-1.07726477372473

> <r_i_glide_ligand_efficiency_ln>
-2.02737804893145

> <r_i_glide_gscore>
-8.1997760086512

> <r_i_glide_lipo>
-3.25314220300671

> <r_i_glide_hbond>
-0.196878882850618

> <r_i_glide_metal>
0

> <r_i_glide_rewards>
-3.20236245016789

> <r_i_glide_evdw>
-31.2704524993896

> <r_i_glide_ecoul>
-2.6240131855011

> <r_i_glide_erotb>
0.435013599401668

> <r_i_glide_esite>
-0.0252814692330108

> <r_i_glide_emodel>
-48.7071030630531

> <r_i_glide_energy>
-33.8944656848907

> <r_i_glide_einternal>
0.738103806972504

> <i_i_glide_confnum>
9

> <i_i_glide_posenum>
46

> <r_i_glide_eff_state_penalty>
0

> <s_user_duplicate_titles>
CHEMBL260_lig1818,591288

> <s_m_subgroup_title>
dock_pv

> <s_m_subgroupid>
dock_pv

> <b_m_subgroup_collapsed>
1

$$$$
CHEMBL260_lig1036
                    3D
 Schrodinger Suite 2021-1.
 64 69  0  0  1  0            999 V2000
   -3.0379   -1.3955   21.7751 C   0  0  0  0  0  0
   -2.1939   -0.6112   22.7109 N   0  0  0  0  0  0
   -2.6294    0.7824   22.9009 C   0  0  0  0  0  0
   -3.1749   -0.7154   20.3760 C   0  0  0  0  0  0
   -3.2984    1.7014   19.4651 C   0  0  0  0  0  0
   -3.1205    0.7507   20.4535 N   0  0  0  0  0  0
   -2.6812    1.4444   21.5481 C   0  0  0  0  0  0
   -2.4349    2.7185   21.0716 C   0  0  0  0  0  0
   -2.8578    2.8860   19.8340 N   0  0  0  0  0  0
   -1.2910   -1.2350   23.5218 C   0  0  0  0  0  0
   -1.0879   -2.4526   23.4753 O   0  0  0  0  0  0
   -0.5517   -0.4069   24.5552 C   0  0  0  0  0  0
   -3.9564    1.4039   18.1489 C   0  0  0  0  0  0
   -5.2582    0.8872   18.1760 C   0  0  0  0  0  0
   -5.8831    0.4966   16.9972 C   0  0  0  0  0  0
   -5.2302    0.6130   15.7784 C   0  0  0  0  0  0
   -3.9748    1.2100   15.7199 C   0  0  0  0  0  0
   -3.3414    1.6139   16.9025 C   0  0  0  0  0  0
   -5.7950    0.0924   14.6694 F   0  0  0  0  0  0
   -5.9107    0.7077   19.3493 F   0  0  0  0  0  0
    0.1144    0.7793   24.1867 C   0  0  0  0  0  0
    0.0118   -0.0373   26.9023 N   0  0  0  0  0  0
   -0.6035   -0.7568   25.9180 C   0  0  0  0  0  0
    1.1647    2.0294   27.3344 N   0  0  0  0  0  0
    0.5545    1.1152   26.5183 C   0  0  0  0  0  0
    0.5901    1.6334   25.1979 C   0  0  0  0  0  0
    1.0836    2.9949   25.2841 C   0  0  0  0  0  0
    1.4901    3.1449   26.6070 C   0  0  0  0  0  0
    1.1044    3.9851   24.1882 C   0  0  0  0  0  0
    0.6777    3.6755   23.0750 O   0  0  0  0  0  0
    1.5894    5.5016   24.4798 C   0  0  0  0  0  0
    1.4293    6.4331   23.4951 N   0  0  0  0  0  0
    2.0551    5.7948   25.5841 O   0  0  0  0  0  0
   -1.3901   -1.8260   26.3206 O   0  0  0  0  0  0
   -1.8848   -1.8492   27.6625 C   0  0  0  0  0  0
    0.9929    6.2494   22.1020 C   0  0  0  0  0  0
    1.0745    7.6609   21.4983 C   0  0  0  0  0  0
    0.9277    8.5982   22.6838 C   0  0  2  0  0  0
    1.7406    7.8490   23.7433 C   0  0  0  0  0  0
   -0.4330    8.6953   23.0812 O   0  0  0  0  0  0
   -2.7542   -2.4461   21.6877 H   0  0  0  0  0  0
   -4.0250   -1.3733   22.2358 H   0  0  0  0  0  0
   -3.6346    0.6840   23.2988 H   0  0  0  0  0  0
   -2.1021    1.3709   23.6448 H   0  0  0  0  0  0
   -2.3238   -1.0069   19.7578 H   0  0  0  0  0  0
   -4.0755   -1.0330   19.8562 H   0  0  0  0  0  0
   -2.0070    3.5176   21.6509 H   0  0  0  0  0  0
   -6.8309    0.0021   17.0611 H   0  0  0  0  0  0
   -3.4974    1.3120   14.7509 H   0  0  0  0  0  0
   -2.3636    2.0603   16.8350 H   0  0  0  0  0  0
    0.1413    1.1011   23.1547 H   0  0  0  0  0  0
    1.3841    1.9311   28.3150 H   0  0  0  0  0  0
    1.9696    3.9639   27.1220 H   0  0  0  0  0  0
   -2.5361   -2.7083   27.8098 H   0  0  0  0  0  0
   -1.0768   -1.9132   28.3931 H   0  0  0  0  0  0
   -2.4745   -0.9568   27.8748 H   0  0  0  0  0  0
   -0.0374    5.9011   22.0622 H   0  0  0  0  0  0
    1.6491    5.5713   21.5526 H   0  0  0  0  0  0
    0.3647    7.8243   20.6890 H   0  0  0  0  0  0
    2.0597    7.8046   21.0505 H   0  0  0  0  0  0
    1.3103    9.6091   22.5344 H   0  0  0  0  0  0
    2.8056    8.0170   23.5806 H   0  0  0  0  0  0
    1.4908    8.1967   24.7479 H   0  0  0  0  0  0
   -0.9489    9.0523   22.3530 H   0  0  0  0  0  0
  1  2  1  0  0  0
  1  4  1  0  0  0
  1 41  1  0  0  0
  1 42  1  0  0  0
  2 10  1  0  0  0
  2  3  1  0  0  0
  3  7  1  0  0  0
  3 43  1  0  0  0
  3 44  1  0  0  0
  4  6  1  0  0  0
  4 45  1  0  0  0
  4 46  1  0  0  0
  5  9  2  0  0  0
  5 13  1  0  0  0
  5  6  1  0  0  0
  6  7  1  0  0  0
  7  8  2  0  0  0
  8  9  1  0  0  0
  8 47  1  0  0  0
 10 11  2  0  0  0
 10 12  1  0  0  0
 12 21  2  0  0  0
 12 23  1  0  0  0
 13 14  2  0  0  0
 13 18  1  0  0  0
 14 20  1  0  0  0
 14 15  1  0  0  0
 15 16  2  0  0  0
 15 48  1  0  0  0
 16 17  1  0  0  0
 16 19  1  0  0  0
 17 18  2  0  0  0
 17 49  1  0  0  0
 18 50  1  0  0  0
 21 26  1  0  0  0
 21 51  1  0  0  0
 22 25  1  0  0  0
 22 23  2  0  0  0
 23 34  1  0  0  0
 24 25  1  0  0  0
 24 28  1  0  0  0
 24 52  1  0  0  0
 25 26  2  0  0  0
 26 27  1  0  0  0
 27 28  2  0  0  0
 27 29  1  0  0  0
 28 53  1  0  0  0
 29 30  2  0  0  0
 29 31  1  0  0  0
 31 32  1  0  0  0
 31 33  2  0  0  0
 32 36  1  0  0  0
 32 39  1  0  0  0
 34 35  1  0  0  0
 35 54  1  0  0  0
 35 55  1  0  0  0
 35 56  1  0  0  0
 36 37  1  0  0  0
 36 57  1  0  0  0
 36 58  1  0  0  0
 37 38  1  0  0  0
 37 59  1  0  0  0
 37 60  1  0  0  0
 38 39  1  0  0  0
 38 40  1  0  0  0
 38 61  1  0  0  0
 39 62  1  0  0  0
 39 63  1  0  0  0
 40 64  1  0  0  0
M  END
> <s_m_entry_id>
60897

> <s_m_entry_name>
dock_pv.174

> <s_m_Source_Path>
/home/csk/Desktop/cluster/DUD-E-result/mk14

> <s_m_Source_File>
dock_pv.maegz

> <i_m_Source_File_Index>
174

> <chembl_id>
CHEMBL244172

> <chembl_pref_name>
None

> <i_lp_mmshare_version>
53161

> <i_f3d_flags>
0

> <r_lp_tautomer_probability>
1

> <s_lp_Force_Field>
OPLS_2005

> <r_lp_Energy>
63.137907

> <b_lp_Chiralities_Consistent>
1

> <s_lp_Variant>
CHEMBL260_lig1036-1

> <s_i_glide_gridfile>
glide-grid_2qd9

> <i_i_glide_lignum>
1162

> <i_i_glide_rotatable_bonds>
8

> <r_i_docking_score>
-8.16889670253416

> <r_i_glide_ligand_efficiency>
-0.204222417563354

> <r_i_glide_ligand_efficiency_sa>
-0.698430842752191

> <r_i_glide_ligand_efficiency_ln>
-1.74218526675215

> <r_i_glide_gscore>
-8.16889670253416

> <r_i_glide_lipo>
-2.97384305301956

> <r_i_glide_hbond>
-0.14423453462798

> <r_i_glide_metal>
0

> <r_i_glide_rewards>
-1.90001084431757

> <r_i_glide_evdw>
-46.2183151245117

> <r_i_glide_ecoul>
-6.81267070770264

> <r_i_glide_erotb>
0.341364969213141

> <r_i_glide_esite>
-0.15935687740122

> <r_i_glide_emodel>
-58.7096176403627

> <r_i_glide_energy>
-53.0309858322144

> <r_i_glide_einternal>
11.9827556610107

> <i_i_glide_confnum>
2

> <i_i_glide_posenum>
29

> <r_i_glide_eff_state_penalty>
0

> <s_user_duplicate_titles>
CHEMBL260_lig1036,386142

> <s_m_subgroup_title>
dock_pv

> <s_m_subgroupid>
dock_pv

> <b_m_subgroup_collapsed>
1

$$$$
CHEMBL260_lig1793
                    3D
 Schrodinger Suite 2021-1.
 44 47  0  0  1  0            999 V2000
   -0.4243    0.0296   24.6529 C   0  0  0  0  0  0
    0.0115    1.2576   24.1341 C   0  0  0  0  0  0
    0.5547    2.2690   24.9420 C   0  0  0  0  0  0
    0.7447    1.9969   26.3011 C   0  0  0  0  0  0
    0.3634    0.7696   26.8361 C   0  0  0  0  0  0
   -0.2299   -0.2063   26.0318 C   0  0  0  0  0  0
   -1.0333   -0.9850   23.7038 C   0  0  0  0  0  0
   -5.1116    0.8128   15.8534 C   0  0  0  0  0  0
   -3.8335    1.3548   15.8947 C   0  0  0  0  0  0
   -3.2578    1.6855   17.1180 C   0  0  0  0  0  0
   -3.9534    1.4316   18.3149 C   0  0  0  0  0  0
   -5.2453    0.8882   18.2636 C   0  0  0  0  0  0
   -5.8346    0.6251   17.0277 C   0  0  0  0  0  0
   -3.2357    1.8864   19.8764 S   0  0  0  0  0  0
   -2.7675    0.3624   20.6629 C   0  0  0  0  0  0
   -2.9588   -0.8846   20.0593 C   0  0  0  0  0  0
   -2.5881   -2.0673   20.6989 C   0  0  0  0  0  0
   -2.1703    0.4272   21.9174 C   0  0  0  0  0  0
   -1.7323   -0.7244   22.5295 N   0  0  0  0  0  0
   -1.9694   -1.9885   21.9542 C   0  0  0  0  0  0
   -1.5165   -2.9515   22.7821 N   0  0  0  0  0  0
   -0.9180   -2.2956   23.8420 N   0  0  0  0  0  0
   -5.6353    0.4309   14.6749 F   0  0  0  0  0  0
   -5.9425    0.6393   19.3966 F   0  0  0  0  0  0
   -0.6397   -1.5098   26.6965 C   0  0  0  0  0  0
    0.9324    3.6154   24.3936 C   0  0  0  0  0  0
    1.4688    4.4996   25.0667 O   0  0  0  0  0  0
    0.5797    3.7732   23.0921 O   0  0  0  0  0  0
    0.8878    4.9656   22.3858 C   0  0  0  0  0  0
   -0.0516    1.4262   23.0745 H   0  0  0  0  0  0
    1.1960    2.7299   26.9581 H   0  0  0  0  0  0
    0.5338    0.5864   27.8887 H   0  0  0  0  0  0
   -3.2861    1.5127   14.9788 H   0  0  0  0  0  0
   -2.2758    2.1310   17.0949 H   0  0  0  0  0  0
   -6.8227    0.1930   16.9866 H   0  0  0  0  0  0
   -3.4102   -0.9566   19.0829 H   0  0  0  0  0  0
   -2.7600   -3.0258   20.2318 H   0  0  0  0  0  0
   -2.0235    1.3609   22.4355 H   0  0  0  0  0  0
   -0.5030   -1.4999   27.7788 H   0  0  0  0  0  0
   -1.6868   -1.7341   26.4932 H   0  0  0  0  0  0
   -0.0350   -2.3119   26.2829 H   0  0  0  0  0  0
    0.3899    4.9516   21.4172 H   0  0  0  0  0  0
    1.9638    5.0574   22.2178 H   0  0  0  0  0  0
    0.5436    5.8498   22.9266 H   0  0  0  0  0  0
  1  7  1  0  0  0
  1  6  1  0  0  0
  1  2  2  0  0  0
  2  3  1  0  0  0
  2 30  1  0  0  0
  3  4  2  0  0  0
  3 26  1  0  0  0
  4  5  1  0  0  0
  4 31  1  0  0  0
  5  6  2  0  0  0
  5 32  1  0  0  0
  6 25  1  0  0  0
  7 19  1  0  0  0
  7 22  2  0  0  0
  8  9  2  0  0  0
  8 23  1  0  0  0
  8 13  1  0  0  0
  9 10  1  0  0  0
  9 33  1  0  0  0
 10 11  2  0  0  0
 10 34  1  0  0  0
 11 12  1  0  0  0
 11 14  1  0  0  0
 12 24  1  0  0  0
 12 13  2  0  0  0
 13 35  1  0  0  0
 14 15  1  0  0  0
 15 16  1  0  0  0
 15 18  2  0  0  0
 16 17  2  0  0  0
 16 36  1  0  0  0
 17 20  1  0  0  0
 17 37  1  0  0  0
 18 19  1  0  0  0
 18 38  1  0  0  0
 19 20  1  0  0  0
 20 21  2  0  0  0
 21 22  1  0  0  0
 25 39  1  0  0  0
 25 40  1  0  0  0
 25 41  1  0  0  0
 26 27  2  0  0  0
 26 28  1  0  0  0
 28 29  1  0  0  0
 29 42  1  0  0  0
 29 43  1  0  0  0
 29 44  1  0  0  0
M  END
> <s_m_entry_id>
60898

> <s_m_entry_name>
dock_pv.175

> <s_m_Source_Path>
/home/csk/Desktop/cluster/DUD-E-result/mk14

> <s_m_Source_File>
dock_pv.maegz

> <i_m_Source_File_Index>
175

> <chembl_id>
CHEMBL595338

> <chembl_pref_name>
None

> <i_lp_mmshare_version>
53161

> <i_f3d_flags>
0

> <r_lp_tautomer_probability>
1

> <s_lp_Force_Field>
OPLS_2005

> <r_lp_Energy>
20.178764

> <b_lp_Chiralities_Consistent>
1

> <s_lp_Variant>
CHEMBL260_lig1793-1

> <s_i_glide_gridfile>
glide-grid_2qd9

> <i_i_glide_lignum>
2091

> <i_i_glide_rotatable_bonds>
5

> <r_i_docking_score>
-8.16335229929168

> <r_i_glide_ligand_efficiency>
-0.281494906872127

> <r_i_glide_ligand_efficiency_sa>
-0.86484153775738

> <r_i_glide_ligand_efficiency_ln>
-1.86920067178434

> <r_i_glide_gscore>
-8.16335229929168

> <r_i_glide_lipo>
-3.16049096893704

> <r_i_glide_hbond>
0

> <r_i_glide_metal>
0

> <r_i_glide_rewards>
-2.30790046821313

> <r_i_glide_evdw>
-44.9664535522461

> <r_i_glide_ecoul>
-5.80787324905396

> <r_i_glide_erotb>
0.465749588898468

> <r_i_glide_esite>
-0.0412067860695704

> <r_i_glide_emodel>
-73.2996826658478

> <r_i_glide_energy>
-50.7743268013

> <r_i_glide_einternal>
2.19041395187378

> <i_i_glide_confnum>
5

> <i_i_glide_posenum>
17

> <r_i_glide_eff_state_penalty>
0

> <s_user_duplicate_titles>
CHEMBL260_lig1793,593991

> <s_m_subgroup_title>
dock_pv

> <s_m_subgroupid>
dock_pv

> <b_m_subgroup_collapsed>
1

$$$$
CHEMBL260_lig153
                    3D
 Schrodinger Suite 2021-1.
 39 42  0  0  1  0            999 V2000
   -1.4760   -1.3068   23.3853 N   0  0  0  0  0  0
   -1.4097   -2.6299   23.0717 C   0  0  0  0  0  0
   -1.9437   -0.3152   22.5089 C   0  0  0  0  0  0
   -1.0901   -0.9348   24.7041 C   0  0  0  0  0  0
   -2.3785   -0.6989   21.2282 C   0  0  0  0  0  0
   -2.8349    0.1861   20.3296 N   0  0  0  0  0  0
   -1.6350   -2.9786   21.7863 N   0  0  0  0  0  0
   -2.8336    1.4846   20.6761 C   0  0  0  0  0  0
   -3.2351    2.6289   19.4588 S   0  0  0  0  0  0
   -3.8319    1.6870   18.0459 C   0  0  0  0  0  0
   -3.2359    1.8404   16.7758 C   0  0  0  0  0  0
   -1.9926    1.0435   22.8561 C   0  0  0  0  0  0
   -2.3172   -2.1482   20.7981 C   0  0  0  0  0  0
   -3.8360    1.2672   15.6541 C   0  0  0  0  0  0
   -2.0127   -1.0123   25.7652 C   0  0  0  0  0  0
    0.2158   -0.4760   24.9636 C   0  0  0  0  0  0
   -1.2350   -3.5130   23.8760 O   0  0  0  0  0  0
   -5.0647    1.0349   18.1454 C   0  0  0  0  0  0
   -2.4350    1.9624   21.9194 C   0  0  0  0  0  0
   -5.0699    0.6334   15.7639 C   0  0  0  0  0  0
   -1.8816    2.8870   16.5090 Cl  0  0  0  0  0  0
    1.4008   -0.3314   23.7081 Cl  0  0  0  0  0  0
   -3.6375   -1.5316   25.5118 Cl  0  0  0  0  0  0
   -5.7055    0.5628   16.9988 C   0  0  0  0  0  0
   -5.6527    0.0871   14.6760 F   0  0  0  0  0  0
   -0.3361   -0.2136   27.3090 C   0  0  0  0  0  0
   -1.6284   -0.6639   27.0595 C   0  0  0  0  0  0
    0.5744   -0.1092   26.2618 C   0  0  0  0  0  0
   -1.4134   -3.9255   21.5216 H   0  0  0  0  0  0
   -1.6678    1.4006   23.8222 H   0  0  0  0  0  0
   -1.7763   -2.2315   19.8550 H   0  0  0  0  0  0
   -3.3205   -2.5420   20.6300 H   0  0  0  0  0  0
   -3.3766    1.3664   14.6816 H   0  0  0  0  0  0
   -5.5650    0.9622   19.1006 H   0  0  0  0  0  0
   -2.4344    3.0179   22.1442 H   0  0  0  0  0  0
   -6.6728    0.0871   17.0771 H   0  0  0  0  0  0
   -0.0389    0.0604   28.3113 H   0  0  0  0  0  0
   -2.3345   -0.7388   27.8737 H   0  0  0  0  0  0
    1.5650    0.2592   26.4699 H   0  0  0  0  0  0
  1  2  1  0  0  0
  1  3  1  0  0  0
  1  4  1  0  0  0
  2  7  1  0  0  0
  2 17  2  0  0  0
  3  5  2  0  0  0
  3 12  1  0  0  0
  4 15  2  0  0  0
  4 16  1  0  0  0
  5  6  1  0  0  0
  5 13  1  0  0  0
  6  8  2  0  0  0
  7 13  1  0  0  0
  7 29  1  0  0  0
  8 19  1  0  0  0
  8  9  1  0  0  0
  9 10  1  0  0  0
 10 11  1  0  0  0
 10 18  2  0  0  0
 11 14  2  0  0  0
 11 21  1  0  0  0
 12 19  2  0  0  0
 12 30  1  0  0  0
 13 31  1  0  0  0
 13 32  1  0  0  0
 14 20  1  0  0  0
 14 33  1  0  0  0
 15 23  1  0  0  0
 15 27  1  0  0  0
 16 22  1  0  0  0
 16 28  2  0  0  0
 18 24  1  0  0  0
 18 34  1  0  0  0
 19 35  1  0  0  0
 20 24  2  0  0  0
 20 25  1  0  0  0
 24 36  1  0  0  0
 26 28  1  0  0  0
 26 27  2  0  0  0
 26 37  1  0  0  0
 27 38  1  0  0  0
 28 39  1  0  0  0
M  END
> <s_m_entry_id>
60899

> <s_m_entry_name>
dock_pv.176

> <s_m_Source_Path>
/home/csk/Desktop/cluster/DUD-E-result/mk14

> <s_m_Source_File>
dock_pv.maegz

> <i_m_Source_File_Index>
176

> <chembl_id>
CHEMBL128813

> <chembl_pref_name>
None

> <i_lp_mmshare_version>
53161

> <i_f3d_flags>
0

> <r_lp_tautomer_probability>
1

> <s_lp_Force_Field>
OPLS_2005

> <r_lp_Energy>
40.561437

> <b_lp_Chiralities_Consistent>
1

> <s_lp_Variant>
CHEMBL260_lig153-1

> <s_i_glide_gridfile>
glide-grid_2qd9

> <i_i_glide_lignum>
170

> <i_i_glide_rotatable_bonds>
3

> <r_i_docking_score>
-8.16176854008632

> <r_i_glide_ligand_efficiency>
-0.291491733574512

> <r_i_glide_ligand_efficiency_sa>
-0.885140582582124

> <r_i_glide_ligand_efficiency_ln>
-1.88397581898927

> <r_i_glide_gscore>
-8.16176854008632

> <r_i_glide_lipo>
-3.79318701053897

> <r_i_glide_hbond>
-0.429021100711367

> <r_i_glide_metal>
0

> <r_i_glide_rewards>
-1.29990484297989

> <r_i_glide_evdw>
-33.734188079834

> <r_i_glide_ecoul>
-8.29545307159424

> <r_i_glide_erotb>
0.291371778874745

> <r_i_glide_esite>
0

> <r_i_glide_emodel>
-54.031287456333

> <r_i_glide_energy>
-42.0296411514282

> <r_i_glide_einternal>
0.769736647605896

> <i_i_glide_confnum>
8

> <i_i_glide_posenum>
265

> <r_i_glide_eff_state_penalty>
0

> <s_user_duplicate_titles>
CHEMBL260_lig153,213532

> <s_m_subgroup_title>
dock_pv

> <s_m_subgroupid>
dock_pv

> <b_m_subgroup_collapsed>
1

$$$$
CHEMBL260_lig258
                    3D
 Schrodinger Suite 2021-1.
 39 41  0  0  1  0            999 V2000
   -1.6562   -1.9453   23.4062 C   0  0  0  0  0  0
   -2.1266   -1.0821   22.2778 C   0  0  0  0  0  0
   -2.1956   -1.5200   20.9398 C   0  0  0  0  0  0
   -0.8331   -1.3027   24.4777 C   0  0  0  0  0  0
   -2.7103   -0.6673   19.9561 C   0  0  0  0  0  0
   -2.5000    0.2344   22.5762 C   0  0  0  0  0  0
   -3.1033    0.6369   20.2736 C   0  0  0  0  0  0
   -2.0350   -3.1130   23.5060 O   0  0  0  0  0  0
   -3.6350    1.5353   19.3383 N   0  0  0  0  0  0
   -1.2012   -1.2867   25.8437 C   0  0  0  0  0  0
   -1.6350   -3.0849   20.4485 Cl  0  0  0  0  0  0
   -2.9570    1.0846   21.5801 C   0  0  0  0  0  0
   -4.0745    1.2870   18.0368 C   0  0  0  0  0  0
    0.3392   -0.6438   24.0778 C   0  0  0  0  0  0
   -2.4915   -1.8987   26.3825 C   0  0  0  0  0  0
   -0.3834   -0.6233   26.7649 C   0  0  0  0  0  0
   -3.2350    1.5171   16.9449 C   0  0  0  0  0  0
   -5.3919    0.8870   17.8360 C   0  0  0  0  0  0
    1.1248    0.0350   25.0035 C   0  0  0  0  0  0
    0.7650    0.0442   26.3484 C   0  0  0  0  0  0
   -5.8443    0.6455   16.5440 C   0  0  0  0  0  0
   -3.6952    1.2870   15.6531 C   0  0  0  0  0  0
   -4.9970    0.8379   15.4614 C   0  0  0  0  0  0
   -2.7772   -1.0157   18.9387 H   0  0  0  0  0  0
   -2.4456    0.6185   23.5862 H   0  0  0  0  0  0
   -3.8313    2.4577   19.6916 H   0  0  0  0  0  0
   -3.2350    2.0870   21.8487 H   0  0  0  0  0  0
    0.6456   -0.6336   23.0408 H   0  0  0  0  0  0
   -2.8772   -2.7130   25.7774 H   0  0  0  0  0  0
   -2.3281   -2.3130   27.3783 H   0  0  0  0  0  0
   -3.2638   -1.1334   26.4623 H   0  0  0  0  0  0
   -0.6486   -0.6006   27.8122 H   0  0  0  0  0  0
   -2.2249    1.8696   17.0760 H   0  0  0  0  0  0
   -6.0529    0.7222   18.6749 H   0  0  0  0  0  0
    2.0130    0.5553   24.6760 H   0  0  0  0  0  0
    1.3816    0.5638   27.0692 H   0  0  0  0  0  0
   -6.8350    0.2643   16.3835 H   0  0  0  0  0  0
   -3.0455    1.4480   14.8061 H   0  0  0  0  0  0
   -5.3557    0.6263   14.4653 H   0  0  0  0  0  0
  1  2  1  0  0  0
  1  4  1  0  0  0
  1  8  2  0  0  0
  2  3  1  0  0  0
  2  6  2  0  0  0
  3  5  2  0  0  0
  3 11  1  0  0  0
  4 10  2  0  0  0
  4 14  1  0  0  0
  5  7  1  0  0  0
  5 24  1  0  0  0
  6 12  1  0  0  0
  6 25  1  0  0  0
  7 12  2  0  0  0
  7  9  1  0  0  0
  9 13  1  0  0  0
  9 26  1  0  0  0
 10 15  1  0  0  0
 10 16  1  0  0  0
 12 27  1  0  0  0
 13 17  2  0  0  0
 13 18  1  0  0  0
 14 19  2  0  0  0
 14 28  1  0  0  0
 15 29  1  0  0  0
 15 30  1  0  0  0
 15 31  1  0  0  0
 16 20  2  0  0  0
 16 32  1  0  0  0
 17 22  1  0  0  0
 17 33  1  0  0  0
 18 21  2  0  0  0
 18 34  1  0  0  0
 19 20  1  0  0  0
 19 35  1  0  0  0
 20 36  1  0  0  0
 21 23  1  0  0  0
 21 37  1  0  0  0
 22 23  2  0  0  0
 22 38  1  0  0  0
 23 39  1  0  0  0
M  END
> <s_m_entry_id>
60900

> <s_m_entry_name>
dock_pv.177

> <s_m_Source_Path>
/home/csk/Desktop/cluster/DUD-E-result/mk14

> <s_m_Source_File>
dock_pv.maegz

> <i_m_Source_File_Index>
177

> <chembl_id>
CHEMBL155567

> <chembl_pref_name>
None

> <i_lp_mmshare_version>
53161

> <i_f3d_flags>
0

> <r_lp_tautomer_probability>
1

> <s_lp_Force_Field>
OPLS_2005

> <r_lp_Energy>
32.399449

> <b_lp_Chiralities_Consistent>
1

> <s_lp_Variant>
CHEMBL260_lig258-1

> <s_i_glide_gridfile>
glide-grid_2qd9

> <i_i_glide_lignum>
309

> <i_i_glide_rotatable_bonds>
4

> <r_i_docking_score>
-8.16128086912133

> <r_i_glide_ligand_efficiency>
-0.354838298657449

> <r_i_glide_ligand_efficiency_sa>
-1.00911291968394

> <r_i_glide_ligand_efficiency_ln>
-1.97347171655702

> <r_i_glide_gscore>
-8.16128086912133

> <r_i_glide_lipo>
-4.07901901450695

> <r_i_glide_hbond>
-0.503945351710314

> <r_i_glide_metal>
0

> <r_i_glide_rewards>
-1.71641813656794

> <r_i_glide_evdw>
-41.6968574523926

> <r_i_glide_ecoul>
-3.32699942588806

> <r_i_glide_erotb>
0.721994420166712

> <r_i_glide_esite>
0

> <r_i_glide_emodel>
-54.5703320148645

> <r_i_glide_energy>
-45.0238568782806

> <r_i_glide_einternal>
19.2780609130859

> <i_i_glide_confnum>
59

> <i_i_glide_posenum>
82

> <r_i_glide_eff_state_penalty>
0

> <s_user_duplicate_titles>
CHEMBL260_lig258,254976

> <s_m_subgroup_title>
dock_pv

> <s_m_subgroupid>
dock_pv

> <b_m_subgroup_collapsed>
1

$$$$
CHEMBL260_lig253
                    3D
 Schrodinger Suite 2021-1.
 38 40  0  0  1  0            999 V2000
   -1.7648   -1.9086   23.6520 C   0  0  0  0  0  0
   -3.3166    1.5804   19.4090 N   0  0  0  0  0  0
   -3.9461    1.3539   18.1722 C   0  0  0  0  0  0
   -2.2149   -0.9909   22.5449 C   0  0  0  0  0  0
   -5.2675    0.8870   18.0452 C   0  0  0  0  0  0
   -2.0350   -3.1126   23.6228 O   0  0  0  0  0  0
   -1.0745   -1.3462   24.8531 C   0  0  0  0  0  0
   -2.8041   -1.5236   21.3877 C   0  0  0  0  0  0
   -2.0931    0.4032   22.6558 C   0  0  0  0  0  0
   -3.0333    0.6957   20.4567 C   0  0  0  0  0  0
   -6.0346    0.4877   19.1428 N   0  0  0  0  0  0
   -3.2149   -0.6843   20.3538 C   0  0  0  0  0  0
   -2.4792    1.2347   21.6124 C   0  0  0  0  0  0
   -3.2346    1.6870   17.0148 C   0  0  0  0  0  0
   -5.8385    0.7707   16.7775 C   0  0  0  0  0  0
   -1.5618   -1.6350   26.1335 C   0  0  0  0  0  0
    0.0783   -0.5620   24.7115 C   0  0  0  0  0  0
   -3.8063    1.5446   15.7543 C   0  0  0  0  0  0
   -0.9260   -1.1129   27.2574 C   0  0  0  0  0  0
    0.6983   -0.0250   25.8352 C   0  0  0  0  0  0
   -5.1137    1.0888   15.6347 C   0  0  0  0  0  0
    0.1982   -0.3059   27.1034 C   0  0  0  0  0  0
   -2.6853    2.3653   19.4022 H   0  0  0  0  0  0
   -2.9355   -2.5909   21.2662 H   0  0  0  0  0  0
   -1.6904    0.8746   23.5395 H   0  0  0  0  0  0
   -6.8567   -0.0770   18.9734 H   0  0  0  0  0  0
   -5.5731    0.4695   20.0409 H   0  0  0  0  0  0
   -3.6416   -1.1158   19.4632 H   0  0  0  0  0  0
   -2.3380    2.3012   21.7070 H   0  0  0  0  0  0
   -2.2255    2.0635   17.0758 H   0  0  0  0  0  0
   -6.8348    0.3782   16.6698 H   0  0  0  0  0  0
   -2.4369   -2.2554   26.2677 H   0  0  0  0  0  0
    0.4918   -0.3481   23.7350 H   0  0  0  0  0  0
   -3.2347    1.7877   14.8716 H   0  0  0  0  0  0
   -1.2996   -1.3385   28.2459 H   0  0  0  0  0  0
    1.5649    0.6080   25.7247 H   0  0  0  0  0  0
   -5.5652    0.9679   14.6626 H   0  0  0  0  0  0
    0.6926    0.1002   27.9751 H   0  0  0  0  0  0
  1  4  1  0  0  0
  1  6  2  0  0  0
  1  7  1  0  0  0
  2 10  1  0  0  0
  2  3  1  0  0  0
  2 23  1  0  0  0
  3  5  2  0  0  0
  3 14  1  0  0  0
  4  8  1  0  0  0
  4  9  2  0  0  0
  5 11  1  0  0  0
  5 15  1  0  0  0
  7 16  1  0  0  0
  7 17  2  0  0  0
  8 12  2  0  0  0
  8 24  1  0  0  0
  9 13  1  0  0  0
  9 25  1  0  0  0
 10 13  2  0  0  0
 10 12  1  0  0  0
 11 26  1  0  0  0
 11 27  1  0  0  0
 12 28  1  0  0  0
 13 29  1  0  0  0
 14 18  2  0  0  0
 14 30  1  0  0  0
 15 21  2  0  0  0
 15 31  1  0  0  0
 16 19  2  0  0  0
 16 32  1  0  0  0
 17 20  1  0  0  0
 17 33  1  0  0  0
 18 21  1  0  0  0
 18 34  1  0  0  0
 19 22  1  0  0  0
 19 35  1  0  0  0
 20 22  2  0  0  0
 20 36  1  0  0  0
 21 37  1  0  0  0
 22 38  1  0  0  0
M  END
> <s_m_entry_id>
60901

> <s_m_entry_name>
dock_pv.178

> <s_m_Source_Path>
/home/csk/Desktop/cluster/DUD-E-result/mk14

> <s_m_Source_File>
dock_pv.maegz

> <i_m_Source_File_Index>
178

> <chembl_id>
CHEMBL152596

> <chembl_pref_name>
None

> <i_lp_mmshare_version>
53161

> <i_f3d_flags>
0

> <r_lp_tautomer_probability>
1

> <s_lp_Force_Field>
OPLS_2005

> <r_lp_Energy>
25.988693

> <b_lp_Chiralities_Consistent>
1

> <s_lp_Variant>
CHEMBL260_lig253-1

> <s_i_glide_gridfile>
glide-grid_2qd9

> <i_i_glide_lignum>
304

> <i_i_glide_rotatable_bonds>
4

> <r_i_docking_score>
-8.15670674535144

> <r_i_glide_ligand_efficiency>
-0.370759397515974

> <r_i_glide_ligand_efficiency_sa>
-1.03888241297945

> <r_i_glide_ligand_efficiency_ln>
-1.99379665167142

> <r_i_glide_gscore>
-8.15670674535144

> <r_i_glide_lipo>
-3.78030352014745

> <r_i_glide_hbond>
-0.646475542615565

> <r_i_glide_metal>
0

> <r_i_glide_rewards>
-1.82616161445704

> <r_i_glide_evdw>
-39.1100959777832

> <r_i_glide_ecoul>
-5.48965454101562

> <r_i_glide_erotb>
0.875186911910122

> <r_i_glide_esite>
0

> <r_i_glide_emodel>
-60.1433130722827

> <r_i_glide_energy>
-44.5997505187988

> <r_i_glide_einternal>
9.91977214813232

> <i_i_glide_confnum>
3

> <i_i_glide_posenum>
213

> <r_i_glide_eff_state_penalty>
0

> <s_user_duplicate_titles>
CHEMBL260_lig253,255234

> <s_m_subgroup_title>
dock_pv

> <s_m_subgroupid>
dock_pv

> <b_m_subgroup_collapsed>
1

$$$$
CHEMBL260_lig1803
                    3D
 Schrodinger Suite 2021-1.
 40 43  0  0  1  0            999 V2000
   -0.5188    0.0342   27.5959 C   0  0  0  0  0  0
   -1.0584   -0.2961   25.0872 C   0  0  0  0  0  0
   -1.0689   -0.9123   26.5101 C   0  0  0  0  0  0
    0.7975    0.5399   27.2226 N   0  0  1  0  0  0
    0.7626    1.3044   25.9798 C   0  0  0  0  0  0
    0.2780    0.4315   24.8046 C   0  0  0  0  0  0
   -1.4614   -1.2589   23.9811 C   0  0  0  0  0  0
   -5.4148    0.7984   16.2763 C   0  0  0  0  0  0
   -4.1409    1.3536   16.2132 C   0  0  0  0  0  0
   -3.4684    1.6870   17.3872 C   0  0  0  0  0  0
   -4.0669    1.4552   18.6339 C   0  0  0  0  0  0
   -5.3422    0.8870   18.6917 C   0  0  0  0  0  0
   -6.0178    0.5844   17.5150 C   0  0  0  0  0  0
   -3.2345    1.9035   20.1343 S   0  0  0  0  0  0
   -2.7287    0.3546   20.8505 C   0  0  0  0  0  0
   -2.7565   -0.8285   20.1094 C   0  0  0  0  0  0
   -2.4053   -2.0537   20.6708 C   0  0  0  0  0  0
   -2.2858    0.3218   22.1749 C   0  0  0  0  0  0
   -1.9334   -0.8835   22.7361 N   0  0  0  0  0  0
   -2.0049   -2.0861   22.0115 C   0  0  0  0  0  0
   -1.6350   -3.1131   22.8031 N   0  0  0  0  0  0
   -1.2763   -2.5636   24.0177 N   0  0  0  0  0  0
   -6.0333    0.4133   15.1413 F   0  0  0  0  0  0
   -5.9414    0.6325   19.8760 F   0  0  0  0  0  0
   -0.4322   -0.4948   28.5466 H   0  0  0  0  0  0
   -1.1980    0.8742   27.7526 H   0  0  0  0  0  0
   -1.7809    0.5180   25.1758 H   0  0  0  0  0  0
   -0.4377   -1.8017   26.5525 H   0  0  0  0  0  0
   -2.0826   -1.1933   26.7960 H   0  0  0  0  0  0
    1.2137    1.0943   27.9621 H   0  0  0  0  0  0
    1.7641    1.6874   25.7775 H   0  0  0  0  0  0
    0.1088    2.1689   26.1101 H   0  0  0  0  0  0
    0.1863    1.0780   23.9316 H   0  0  0  0  0  0
    1.0771   -0.2881   24.6172 H   0  0  0  0  0  0
   -3.6739    1.5200   15.2531 H   0  0  0  0  0  0
   -2.5019    2.1546   17.2956 H   0  0  0  0  0  0
   -6.9627    0.0870   17.5889 H   0  0  0  0  0  0
   -3.0485   -0.8114   19.0760 H   0  0  0  0  0  0
   -2.4345   -2.9582   20.0845 H   0  0  0  0  0  0
   -2.2163    1.1971   22.8025 H   0  0  0  0  0  0
  1  4  1  0  0  0
  1  3  1  0  0  0
  1 25  1  0  0  0
  1 26  1  0  0  0
  2  6  1  0  0  0
  2  7  1  0  0  0
  2  3  1  0  0  0
  2 27  1  0  0  0
  3 28  1  0  0  0
  3 29  1  0  0  0
  4  5  1  0  0  0
  4 30  1  0  0  0
  5  6  1  0  0  0
  5 31  1  0  0  0
  5 32  1  0  0  0
  6 33  1  0  0  0
  6 34  1  0  0  0
  7 19  1  0  0  0
  7 22  2  0  0  0
  8 13  1  0  0  0
  8  9  2  0  0  0
  8 23  1  0  0  0
  9 10  1  0  0  0
  9 35  1  0  0  0
 10 11  2  0  0  0
 10 36  1  0  0  0
 11 14  1  0  0  0
 11 12  1  0  0  0
 12 13  2  0  0  0
 12 24  1  0  0  0
 13 37  1  0  0  0
 14 15  1  0  0  0
 15 16  1  0  0  0
 15 18  2  0  0  0
 16 17  2  0  0  0
 16 38  1  0  0  0
 17 20  1  0  0  0
 17 39  1  0  0  0
 18 19  1  0  0  0
 18 40  1  0  0  0
 19 20  1  0  0  0
 20 21  2  0  0  0
 21 22  1  0  0  0
M  END
> <s_m_entry_id>
60902

> <s_m_entry_name>
dock_pv.179

> <s_m_Source_Path>
/home/csk/Desktop/cluster/DUD-E-result/mk14

> <s_m_Source_File>
dock_pv.maegz

> <i_m_Source_File_Index>
179

> <chembl_id>
CHEMBL594602

> <chembl_pref_name>
None

> <i_lp_mmshare_version>
53161

> <i_f3d_flags>
0

> <r_lp_tautomer_probability>
1

> <s_lp_Force_Field>
OPLS_2005

> <r_lp_Energy>
18.637612

> <b_lp_Chiralities_Consistent>
1

> <s_lp_Variant>
CHEMBL260_lig1803-1

> <s_i_glide_gridfile>
glide-grid_2qd9

> <i_i_glide_lignum>
2101

> <i_i_glide_rotatable_bonds>
3

> <r_i_docking_score>
-8.15235118707227

> <r_i_glide_ligand_efficiency>
-0.339681299461345

> <r_i_glide_ligand_efficiency_sa>
-0.979810415341209

> <r_i_glide_ligand_efficiency_ln>
-1.95123172608653

> <r_i_glide_gscore>
-8.15235118707227

> <r_i_glide_lipo>
-3.10746296835462

> <r_i_glide_hbond>
0

> <r_i_glide_metal>
0

> <r_i_glide_rewards>
-2.73197811121596

> <r_i_glide_evdw>
-37.3134269714355

> <r_i_glide_ecoul>
-5.99459314346313

> <r_i_glide_erotb>
0.475322647372467

> <r_i_glide_esite>
-0.023372434782912

> <r_i_glide_emodel>
-62.6313175063902

> <r_i_glide_energy>
-43.3080201148987

> <r_i_glide_einternal>
0.596836745738983

> <i_i_glide_confnum>
11

> <i_i_glide_posenum>
340

> <r_i_glide_eff_state_penalty>
0

> <s_user_duplicate_titles>
CHEMBL260_lig1803

> <s_m_subgroup_title>
dock_pv

> <s_m_subgroupid>
dock_pv

> <b_m_subgroup_collapsed>
1

$$$$
CHEMBL260_lig1790
                    3D
 Schrodinger Suite 2021-1.
 41 44  0  0  1  0            999 V2000
    1.0883    3.3196   24.8077 C   0  0  0  0  0  0
    0.9616    3.5632   23.4767 O   0  0  0  0  0  0
    1.5473    4.1397   25.6079 O   0  0  0  0  0  0
    1.4325    4.7772   22.9080 C   0  0  0  0  0  0
    0.6145    1.9506   25.2027 C   0  0  0  0  0  0
   -0.4556   -0.1886   24.6688 C   0  0  0  0  0  0
   -0.2796   -0.5864   26.0006 C   0  0  0  0  0  0
    0.3309    0.2602   26.9229 C   0  0  0  0  0  0
    0.7651    1.5239   26.5300 C   0  0  0  0  0  0
    0.0249    1.0693   24.2801 C   0  0  0  0  0  0
   -1.0922   -1.1366   23.6913 C   0  0  0  0  0  0
   -5.1083    0.8587   15.8495 C   0  0  0  0  0  0
   -3.8179    1.3726   15.8929 C   0  0  0  0  0  0
   -3.2363    1.6858   17.1178 C   0  0  0  0  0  0
   -3.9402    1.4413   18.3101 C   0  0  0  0  0  0
   -5.2441    0.9359   18.2539 C   0  0  0  0  0  0
   -5.8374    0.6855   17.0200 C   0  0  0  0  0  0
   -3.2351    1.8617   19.8825 S   0  0  0  0  0  0
   -2.7651    0.3180   20.6513 C   0  0  0  0  0  0
   -2.9928   -0.9167   20.0414 C   0  0  0  0  0  0
   -2.6448   -2.1175   20.6618 C   0  0  0  0  0  0
   -2.1413    0.3504   21.9002 C   0  0  0  0  0  0
   -1.7570   -0.8253   22.5096 N   0  0  0  0  0  0
   -2.0353   -2.0751   21.9221 C   0  0  0  0  0  0
   -1.6352   -3.0682   22.7440 N   0  0  0  0  0  0
   -1.0498   -2.4508   23.8327 N   0  0  0  0  0  0
   -5.6351    0.4789   14.6736 F   0  0  0  0  0  0
   -5.9474    0.6986   19.3860 F   0  0  0  0  0  0
    1.2419    4.7826   21.8344 H   0  0  0  0  0  0
    2.5073    4.8891   23.0614 H   0  0  0  0  0  0
    0.9295    5.6400   23.3473 H   0  0  0  0  0  0
   -0.6100   -1.5613   26.3297 H   0  0  0  0  0  0
    0.4727   -0.0637   27.9439 H   0  0  0  0  0  0
    1.2445    2.1562   27.2668 H   0  0  0  0  0  0
   -0.0337    1.3535   23.2420 H   0  0  0  0  0  0
   -3.2664    1.5203   14.9757 H   0  0  0  0  0  0
   -2.2432    2.1078   17.0853 H   0  0  0  0  0  0
   -6.8349    0.2754   16.9804 H   0  0  0  0  0  0
   -3.4617   -0.9671   19.0760 H   0  0  0  0  0  0
   -2.8378   -3.0667   20.1834 H   0  0  0  0  0  0
   -1.9582    1.2734   22.4247 H   0  0  0  0  0  0
  1  5  1  0  0  0
  1  3  2  0  0  0
  1  2  1  0  0  0
  2  4  1  0  0  0
  4 29  1  0  0  0
  4 30  1  0  0  0
  4 31  1  0  0  0
  5  9  1  0  0  0
  5 10  2  0  0  0
  6 10  1  0  0  0
  6 11  1  0  0  0
  6  7  2  0  0  0
  7  8  1  0  0  0
  7 32  1  0  0  0
  8  9  2  0  0  0
  8 33  1  0  0  0
  9 34  1  0  0  0
 10 35  1  0  0  0
 11 23  1  0  0  0
 11 26  2  0  0  0
 12 17  1  0  0  0
 12 13  2  0  0  0
 12 27  1  0  0  0
 13 14  1  0  0  0
 13 36  1  0  0  0
 14 15  2  0  0  0
 14 37  1  0  0  0
 15 16  1  0  0  0
 15 18  1  0  0  0
 16 17  2  0  0  0
 16 28  1  0  0  0
 17 38  1  0  0  0
 18 19  1  0  0  0
 19 20  1  0  0  0
 19 22  2  0  0  0
 20 21  2  0  0  0
 20 39  1  0  0  0
 21 24  1  0  0  0
 21 40  1  0  0  0
 22 23  1  0  0  0
 22 41  1  0  0  0
 23 24  1  0  0  0
 24 25  2  0  0  0
 25 26  1  0  0  0
M  END
> <s_m_entry_id>
60903

> <s_m_entry_name>
dock_pv.180

> <s_m_Source_Path>
/home/csk/Desktop/cluster/DUD-E-result/mk14

> <s_m_Source_File>
dock_pv.maegz

> <i_m_Source_File_Index>
180

> <chembl_id>
CHEMBL593218

> <chembl_pref_name>
None

> <i_lp_mmshare_version>
53161

> <i_f3d_flags>
0

> <r_lp_tautomer_probability>
1

> <s_lp_Force_Field>
OPLS_2005

> <r_lp_Energy>
18.511023

> <b_lp_Chiralities_Consistent>
1

> <s_lp_Variant>
CHEMBL260_lig1790-1

> <s_i_glide_gridfile>
glide-grid_2qd9

> <i_i_glide_lignum>
2088

> <i_i_glide_rotatable_bonds>
5

> <r_i_docking_score>
-8.14953280136331

> <r_i_glide_ligand_efficiency>
-0.291054742905833

> <r_i_glide_ligand_efficiency_sa>
-0.883813621538275

> <r_i_glide_ligand_efficiency_ln>
-1.8811514512351

> <r_i_glide_gscore>
-8.14953280136331

> <r_i_glide_lipo>
-2.99655213711066

> <r_i_glide_hbond>
0

> <r_i_glide_metal>
0

> <r_i_glide_rewards>
-2.40995747604779

> <r_i_glide_evdw>
-44.1095695495605

> <r_i_glide_ecoul>
-6.49745845794678

> <r_i_glide_erotb>
0.495786324709436

> <r_i_glide_esite>
-0.0587122667442496

> <r_i_glide_emodel>
-73.370801481944

> <r_i_glide_energy>
-50.6070280075073

> <r_i_glide_einternal>
1.93634331226349

> <i_i_glide_confnum>
24

> <i_i_glide_posenum>
218

> <r_i_glide_eff_state_penalty>
0

> <s_user_duplicate_titles>
CHEMBL260_lig1790,593975

> <s_m_subgroup_title>
dock_pv

> <s_m_subgroupid>
dock_pv

> <b_m_subgroup_collapsed>
1

$$$$
CHEMBL260_lig949
                    3D
 Schrodinger Suite 2021-1.
 37 39  0  0  1  0            999 V2000
   -1.9334   -2.1412   22.2280 C   0  0  0  0  0  0
   -2.4136   -2.3122   20.8689 C   0  0  0  0  0  0
   -2.8130   -1.2767   20.0970 C   0  0  0  0  0  0
   -2.7577    0.0772   20.5823 C   0  0  0  0  0  0
   -2.2842    0.2927   21.7620 N   0  0  0  0  0  0
   -1.8822   -0.7970   22.5733 N   0  0  0  0  0  0
   -1.3926   -0.4333   23.8494 C   0  0  0  0  0  0
   -0.1693    0.2497   23.9353 C   0  0  0  0  0  0
    0.3789    0.5750   25.1752 C   0  0  0  0  0  0
   -0.2948    0.2349   26.3456 C   0  0  0  0  0  0
   -1.5259   -0.4152   26.2755 C   0  0  0  0  0  0
   -2.0849   -0.7443   25.0386 C   0  0  0  0  0  0
   -3.6350   -1.5130   25.0288 Cl  0  0  0  0  0  0
   -1.6352   -3.1130   22.9334 O   0  0  0  0  0  0
   -3.1564    1.1252   19.7606 N   0  0  0  0  0  0
   -4.1004    1.0520   18.7151 C   0  0  0  0  0  0
   -3.7931    1.4267   17.3816 C   0  0  0  0  0  0
   -4.7765    1.2870   16.3934 C   0  0  0  0  0  0
   -6.0350    0.8178   16.7184 C   0  0  0  0  0  0
   -6.3554    0.4870   18.0324 C   0  0  0  0  0  0
   -5.3898    0.6028   19.0258 C   0  0  0  0  0  0
   -2.5507    1.9478   17.0760 O   0  0  0  0  0  0
   -2.2150    2.3038   15.7396 C   0  0  0  0  0  0
   -2.4350   -3.3150   20.4732 H   0  0  0  0  0  0
   -3.1318   -1.4841   19.0886 H   0  0  0  0  0  0
    0.3800    0.5132   23.0461 H   0  0  0  0  0  0
    1.3307    1.0850   25.2296 H   0  0  0  0  0  0
    0.1356    0.4811   27.3059 H   0  0  0  0  0  0
   -2.0486   -0.6638   27.1875 H   0  0  0  0  0  0
   -2.4536    1.8346   19.6223 H   0  0  0  0  0  0
   -4.5920    1.5457   15.3619 H   0  0  0  0  0  0
   -6.7736    0.7095   15.9390 H   0  0  0  0  0  0
   -7.3396    0.1158   18.2760 H   0  0  0  0  0  0
   -5.6448    0.3367   20.0399 H   0  0  0  0  0  0
   -1.1908    2.6754   15.7078 H   0  0  0  0  0  0
   -2.2791    1.4413   15.0760 H   0  0  0  0  0  0
   -2.8635    3.0955   15.3680 H   0  0  0  0  0  0
  1  6  1  0  0  0
  1  2  1  0  0  0
  1 14  2  0  0  0
  2  3  2  0  0  0
  2 24  1  0  0  0
  3  4  1  0  0  0
  3 25  1  0  0  0
  4 15  1  0  0  0
  4  5  2  0  0  0
  5  6  1  0  0  0
  6  7  1  0  0  0
  7 12  1  0  0  0
  7  8  2  0  0  0
  8  9  1  0  0  0
  8 26  1  0  0  0
  9 10  2  0  0  0
  9 27  1  0  0  0
 10 11  1  0  0  0
 10 28  1  0  0  0
 11 12  2  0  0  0
 11 29  1  0  0  0
 12 13  1  0  0  0
 15 16  1  0  0  0
 15 30  1  0  0  0
 16 17  2  0  0  0
 16 21  1  0  0  0
 17 18  1  0  0  0
 17 22  1  0  0  0
 18 19  2  0  0  0
 18 31  1  0  0  0
 19 20  1  0  0  0
 19 32  1  0  0  0
 20 21  2  0  0  0
 20 33  1  0  0  0
 21 34  1  0  0  0
 22 23  1  0  0  0
 23 35  1  0  0  0
 23 36  1  0  0  0
 23 37  1  0  0  0
M  END
> <s_m_entry_id>
60904

> <s_m_entry_name>
dock_pv.181

> <s_m_Source_Path>
/home/csk/Desktop/cluster/DUD-E-result/mk14

> <s_m_Source_File>
dock_pv.maegz

> <i_m_Source_File_Index>
181

> <chembl_id>
CHEMBL373767

> <chembl_pref_name>
None

> <i_lp_mmshare_version>
53161

> <i_f3d_flags>
0

> <r_lp_tautomer_probability>
0.999999999999446

> <s_lp_Force_Field>
OPLS_2005

> <r_lp_Energy>
42.157632

> <b_lp_Chiralities_Consistent>
1

> <s_lp_Variant>
CHEMBL260_lig949-1

> <s_i_glide_gridfile>
glide-grid_2qd9

> <i_i_glide_lignum>
1052

> <i_i_glide_rotatable_bonds>
4

> <r_i_docking_score>
-8.1448137850486

> <r_i_glide_ligand_efficiency>
-0.354122338480374

> <r_i_glide_ligand_efficiency_sa>
-1.00707682417959

> <r_i_glide_ligand_efficiency_ln>
-1.96948982631297

> <r_i_glide_gscore>
-8.1448137850486

> <r_i_glide_lipo>
-3.62084200091947

> <r_i_glide_hbond>
-0.291519546457747

> <r_i_glide_metal>
0

> <r_i_glide_rewards>
-1.93890448604081

> <r_i_glide_evdw>
-34.9199409484863

> <r_i_glide_ecoul>
-7.14519214630127

> <r_i_glide_erotb>
0.524228117738936

> <r_i_glide_esite>
0

> <r_i_glide_emodel>
-56.8588224529278

> <r_i_glide_energy>
-42.0651330947876

> <r_i_glide_einternal>
7.19884872436523

> <i_i_glide_confnum>
33

> <i_i_glide_posenum>
123

> <r_i_glide_eff_state_penalty>
0

> <s_user_duplicate_titles>
CHEMBL260_lig949

> <s_m_subgroup_title>
dock_pv

> <s_m_subgroupid>
dock_pv

> <b_m_subgroup_collapsed>
1

$$$$
CHEMBL260_lig1229
                    3D
 Schrodinger Suite 2021-1.
 57 60  0  0  1  0            999 V2000
    0.3905    4.9772   24.9040 N   0  0  0  0  0  0
   -1.7880   -2.4616   22.1500 C   0  0  0  0  0  0
   -2.1794   -2.4859   20.7561 C   0  0  0  0  0  0
   -2.6571   -1.4135   20.0926 C   0  0  0  0  0  0
   -1.6964   -1.1985   22.6793 N   0  0  0  0  0  0
   -2.1226   -0.0093   21.9987 C   0  0  0  0  0  0
   -2.6565   -0.0747   20.6885 C   0  0  0  0  0  0
   -3.0821    1.0877   19.9964 C   0  0  0  0  0  0
   -2.8359    2.3201   20.6293 C   0  0  0  0  0  0
   -2.3173    2.3924   21.9278 C   0  0  0  0  0  0
   -2.0067    1.2338   22.6092 C   0  0  0  0  0  0
   -1.6351   -3.5124   22.7759 O   0  0  0  0  0  0
   -1.2581   -1.0901   24.0288 C   0  0  0  0  0  0
   -2.1709   -1.2622   25.0887 C   0  0  0  0  0  0
   -1.7338   -1.1785   26.4116 C   0  0  0  0  0  0
   -0.4008   -0.8885   26.6927 C   0  0  0  0  0  0
    0.4959   -0.6579   25.6506 C   0  0  0  0  0  0
    0.0752   -0.7416   24.3241 C   0  0  0  0  0  0
    1.2111   -0.3135   23.0907 Cl  0  0  0  0  0  0
   -3.8573   -1.5124   24.7970 Cl  0  0  0  0  0  0
   -3.7781    1.0700   18.6479 C   0  0  0  0  0  0
   -3.0936    1.2592   17.4365 C   0  0  0  0  0  0
   -3.7153    1.2933   16.1916 C   0  0  0  0  0  0
   -5.0842    1.1138   16.1111 C   0  0  0  0  0  0
   -5.7912    0.8870   17.2807 C   0  0  0  0  0  0
   -5.1624    0.8737   18.5261 C   0  0  0  0  0  0
   -6.1416    0.4878   19.8760 Cl  0  0  0  0  0  0
   -2.1395    3.5878   22.5755 O   0  0  0  0  0  0
   -0.8081    3.8753   23.0128 C   0  0  0  0  0  0
   -0.8210    4.2675   24.4996 C   0  0  0  0  0  0
    0.6291    6.2690   24.6259 C   0  0  0  0  0  0
    1.9832    6.8241   25.0765 C   0  0  0  0  0  0
   -0.1885    6.9892   24.0470 O   0  0  0  0  0  0
    2.6697    7.6706   23.9892 C   0  0  0  0  0  0
    3.9768    8.0871   24.4602 N   0  0  0  0  0  0
    1.1024    4.4417   25.3826 H   0  0  0  0  0  0
   -2.1242   -3.4430   20.2575 H   0  0  0  0  0  0
   -2.9653   -1.5301   19.0759 H   0  0  0  0  0  0
   -3.1069    3.2356   20.1285 H   0  0  0  0  0  0
   -1.6336    1.3342   23.6162 H   0  0  0  0  0  0
   -2.4295   -1.3254   27.2245 H   0  0  0  0  0  0
   -0.0630   -0.8254   27.7174 H   0  0  0  0  0  0
    1.5258   -0.4049   25.8745 H   0  0  0  0  0  0
   -2.0350    1.3390   17.4053 H   0  0  0  0  0  0
   -3.1354    1.4390   15.2912 H   0  0  0  0  0  0
   -5.5866    1.1144   15.1534 H   0  0  0  0  0  0
   -6.8352    0.6815   17.2196 H   0  0  0  0  0  0
   -0.0924    3.0660   22.8599 H   0  0  0  0  0  0
   -0.4355    4.6989   22.4010 H   0  0  0  0  0  0
   -1.7100    4.8536   24.7385 H   0  0  0  0  0  0
   -0.9058    3.3629   25.1019 H   0  0  0  0  0  0
    1.8118    7.4241   25.9707 H   0  0  0  0  0  0
    2.6376    6.0021   25.3739 H   0  0  0  0  0  0
    2.7896    7.0972   23.0674 H   0  0  0  0  0  0
    2.0737    8.5531   23.7480 H   0  0  0  0  0  0
    3.8747    8.5892   25.3307 H   0  0  0  0  0  0
    4.5329    7.2631   24.6751 H   0  0  0  0  0  0
  1 30  1  0  0  0
  1 31  1  0  0  0
  1 36  1  0  0  0
  2 12  2  0  0  0
  2  3  1  0  0  0
  2  5  1  0  0  0
  3  4  2  0  0  0
  3 37  1  0  0  0
  4  7  1  0  0  0
  4 38  1  0  0  0
  5  6  1  0  0  0
  5 13  1  0  0  0
  6 11  1  0  0  0
  6  7  2  0  0  0
  7  8  1  0  0  0
  8  9  2  0  0  0
  8 21  1  0  0  0
  9 10  1  0  0  0
  9 39  1  0  0  0
 10 11  2  0  0  0
 10 28  1  0  0  0
 11 40  1  0  0  0
 13 18  1  0  0  0
 13 14  2  0  0  0
 14 20  1  0  0  0
 14 15  1  0  0  0
 15 16  2  0  0  0
 15 41  1  0  0  0
 16 17  1  0  0  0
 16 42  1  0  0  0
 17 18  2  0  0  0
 17 43  1  0  0  0
 18 19  1  0  0  0
 21 22  2  0  0  0
 21 26  1  0  0  0
 22 23  1  0  0  0
 22 44  1  0  0  0
 23 24  2  0  0  0
 23 45  1  0  0  0
 24 25  1  0  0  0
 24 46  1  0  0  0
 25 26  2  0  0  0
 25 47  1  0  0  0
 26 27  1  0  0  0
 28 29  1  0  0  0
 29 30  1  0  0  0
 29 48  1  0  0  0
 29 49  1  0  0  0
 30 50  1  0  0  0
 30 51  1  0  0  0
 31 32  1  0  0  0
 31 33  2  0  0  0
 32 34  1  0  0  0
 32 52  1  0  0  0
 32 53  1  0  0  0
 34 35  1  0  0  0
 34 54  1  0  0  0
 34 55  1  0  0  0
 35 56  1  0  0  0
 35 57  1  0  0  0
M  END
> <s_m_entry_id>
60905

> <s_m_entry_name>
dock_pv.182

> <s_m_Source_Path>
/home/csk/Desktop/cluster/DUD-E-result/mk14

> <s_m_Source_File>
dock_pv.maegz

> <i_m_Source_File_Index>
182

> <chembl_id>
CHEMBL403389

> <chembl_pref_name>
None

> <i_lp_mmshare_version>
53161

> <i_f3d_flags>
0

> <r_lp_tautomer_probability>
1

> <s_lp_Force_Field>
OPLS_2005

> <r_lp_Energy>
50.741092

> <b_lp_Chiralities_Consistent>
1

> <s_lp_Variant>
CHEMBL260_lig1229-1

> <s_i_glide_gridfile>
glide-grid_2qd9

> <i_i_glide_lignum>
1401

> <i_i_glide_rotatable_bonds>
9

> <r_i_docking_score>
-8.13756329216719

> <r_i_glide_ligand_efficiency>
-0.232501808347634

> <r_i_glide_ligand_efficiency_sa>
-0.760528831442555

> <r_i_glide_ligand_efficiency_ln>
-1.78637574611731

> <r_i_glide_gscore>
-8.13756329216719

> <r_i_glide_lipo>
-4.77756979801842

> <r_i_glide_hbond>
-0.570061837720159

> <r_i_glide_metal>
0

> <r_i_glide_rewards>
0.690481881528603

> <r_i_glide_evdw>
-39.1847305297852

> <r_i_glide_ecoul>
-13.7869300842285

> <r_i_glide_erotb>
0.585314601474965

> <r_i_glide_esite>
-0.0384521003086462

> <r_i_glide_emodel>
-60.8048050843106

> <r_i_glide_energy>
-52.9716606140137

> <r_i_glide_einternal>
10.8711185455322

> <i_i_glide_confnum>
32

> <i_i_glide_posenum>
98

> <r_i_glide_eff_state_penalty>
0

> <s_user_duplicate_titles>
CHEMBL260_lig1229,433989

> <s_m_subgroup_title>
dock_pv

> <s_m_subgroupid>
dock_pv

> <b_m_subgroup_collapsed>
1

$$$$
CHEMBL260_lig267
                    3D
 Schrodinger Suite 2021-1.
 36 38  0  0  1  0            999 V2000
   -1.7634   -1.9085   23.4406 C   0  0  0  0  0  0
   -2.2305   -1.0007   22.3362 C   0  0  0  0  0  0
   -3.6298    1.5758   19.3246 N   0  0  0  0  0  0
   -2.0348   -3.1130   23.4286 O   0  0  0  0  0  0
   -1.0173   -1.3268   24.5987 C   0  0  0  0  0  0
   -2.3294    0.3842   22.5409 C   0  0  0  0  0  0
   -2.6378   -1.5336   21.1047 C   0  0  0  0  0  0
   -3.1762    0.6866   20.3060 C   0  0  0  0  0  0
   -4.0778    1.2932   18.0333 C   0  0  0  0  0  0
   -2.7882    1.2193   21.5301 C   0  0  0  0  0  0
   -3.0957   -0.6912   20.0928 C   0  0  0  0  0  0
   -1.3814   -1.6633   25.9073 C   0  0  0  0  0  0
    0.0682   -0.4667   24.3819 C   0  0  0  0  0  0
   -3.2351    1.5129   16.9417 C   0  0  0  0  0  0
   -5.3941    0.8870   17.8379 C   0  0  0  0  0  0
   -0.6956   -1.1130   26.9875 C   0  0  0  0  0  0
    0.7462    0.0876   25.4628 C   0  0  0  0  0  0
   -5.8447    0.6339   16.5476 C   0  0  0  0  0  0
   -3.6960    1.2760   15.6517 C   0  0  0  0  0  0
    0.3647   -0.2391   26.7611 C   0  0  0  0  0  0
   -4.9972    0.8220   15.4641 C   0  0  0  0  0  0
   -3.6968    2.5385   19.6107 H   0  0  0  0  0  0
   -2.0636    0.8382   23.4849 H   0  0  0  0  0  0
   -2.5945   -2.5981   20.9148 H   0  0  0  0  0  0
   -2.8348    2.2828   21.7076 H   0  0  0  0  0  0
   -3.3853   -1.1123   19.1437 H   0  0  0  0  0  0
   -2.2067   -2.3345   26.0976 H   0  0  0  0  0  0
    0.3864   -0.2108   23.3806 H   0  0  0  0  0  0
   -2.2267    1.8696   17.0760 H   0  0  0  0  0  0
   -6.0547    0.7321   18.6788 H   0  0  0  0  0  0
   -0.9772   -1.3714   27.9988 H   0  0  0  0  0  0
    1.5665    0.7690   25.2955 H   0  0  0  0  0  0
   -6.8350    0.2503   16.3891 H   0  0  0  0  0  0
   -3.0474    1.4330   14.8031 H   0  0  0  0  0  0
    0.9030    0.1830   27.5982 H   0  0  0  0  0  0
   -5.3549    0.6032   14.4691 H   0  0  0  0  0  0
  1  2  1  0  0  0
  1  4  2  0  0  0
  1  5  1  0  0  0
  2  6  1  0  0  0
  2  7  2  0  0  0
  3  8  1  0  0  0
  3  9  1  0  0  0
  3 22  1  0  0  0
  5 12  1  0  0  0
  5 13  2  0  0  0
  6 10  2  0  0  0
  6 23  1  0  0  0
  7 11  1  0  0  0
  7 24  1  0  0  0
  8 11  2  0  0  0
  8 10  1  0  0  0
  9 14  2  0  0  0
  9 15  1  0  0  0
 10 25  1  0  0  0
 11 26  1  0  0  0
 12 16  2  0  0  0
 12 27  1  0  0  0
 13 17  1  0  0  0
 13 28  1  0  0  0
 14 19  1  0  0  0
 14 29  1  0  0  0
 15 18  2  0  0  0
 15 30  1  0  0  0
 16 20  1  0  0  0
 16 31  1  0  0  0
 17 20  2  0  0  0
 17 32  1  0  0  0
 18 21  1  0  0  0
 18 33  1  0  0  0
 19 21  2  0  0  0
 19 34  1  0  0  0
 20 35  1  0  0  0
 21 36  1  0  0  0
M  END
> <s_m_entry_id>
60906

> <s_m_entry_name>
dock_pv.183

> <s_m_Source_Path>
/home/csk/Desktop/cluster/DUD-E-result/mk14

> <s_m_Source_File>
dock_pv.maegz

> <i_m_Source_File_Index>
183

> <chembl_id>
CHEMBL152349

> <chembl_pref_name>
None

> <i_lp_mmshare_version>
53161

> <i_f3d_flags>
0

> <r_lp_tautomer_probability>
1

> <s_lp_Force_Field>
OPLS_2005

> <r_lp_Energy>
27.527499

> <b_lp_Chiralities_Consistent>
1

> <s_lp_Variant>
CHEMBL260_lig267-1

> <s_i_glide_gridfile>
glide-grid_2qd9

> <i_i_glide_lignum>
318

> <i_i_glide_rotatable_bonds>
4

> <r_i_docking_score>
-8.13675671476656

> <r_i_glide_ligand_efficiency>
-0.387464605465074

> <r_i_glide_ligand_efficiency_sa>
-1.06898546642472

> <r_i_glide_ligand_efficiency_ln>
-2.01179665586095

> <r_i_glide_gscore>
-8.13675671476656

> <r_i_glide_lipo>
-3.90623209645103

> <r_i_glide_hbond>
-0.494471815996885

> <r_i_glide_metal>
0

> <r_i_glide_rewards>
-2.18941074237159

> <r_i_glide_evdw>
-38.0357055664062

> <r_i_glide_ecoul>
-4.0350136756897

> <r_i_glide_erotb>
0.960395269726713

> <r_i_glide_esite>
0

> <r_i_glide_emodel>
-57.2121959940042

> <r_i_glide_energy>
-42.0707192420959

> <r_i_glide_einternal>
9.88442611694336

> <i_i_glide_confnum>
63

> <i_i_glide_posenum>
185

> <r_i_glide_eff_state_penalty>
0

> <s_user_duplicate_titles>
CHEMBL260_lig267,254313

> <s_m_subgroup_title>
dock_pv

> <s_m_subgroupid>
dock_pv

> <b_m_subgroup_collapsed>
1

$$$$
CHEMBL260_lig1814
                    3D
 Schrodinger Suite 2021-1.
 35 37  0  0  1  0            999 V2000
   -1.1584   -0.8914   23.5483 C   0  0  0  0  0  0
   -4.9441    0.5784   15.5675 C   0  0  0  0  0  0
   -3.6962    1.1374   15.8341 C   0  0  0  0  0  0
   -3.3812    1.5393   17.1320 C   0  0  0  0  0  0
   -4.3022    1.3734   18.1661 C   0  0  0  0  0  0
   -5.5777    0.8870   17.8825 C   0  0  0  0  0  0
   -5.8881    0.4870   16.5835 C   0  0  0  0  0  0
   -3.8862    1.8683   19.8760 S   0  0  1  0  0  0
   -3.0652    0.3782   20.5772 C   0  0  0  0  0  0
   -3.2220   -0.8749   19.9890 C   0  0  0  0  0  0
   -2.7009   -2.0288   20.5746 C   0  0  0  0  0  0
   -2.3561    0.4880   21.7779 C   0  0  0  0  0  0
   -1.8549   -0.6477   22.3746 N   0  0  0  0  0  0
   -2.0288   -1.9201   21.7985 C   0  0  0  0  0  0
   -1.4873   -2.8624   22.6002 N   0  0  0  0  0  0
   -0.9341   -2.1883   23.6732 N   0  0  0  0  0  0
   -5.2350    0.0870   14.3439 F   0  0  0  0  0  0
   -6.4940    0.7398   18.8666 F   0  0  0  0  0  0
   -0.6853    0.1866   24.5251 C   0  0  0  0  0  0
    0.4171    1.0669   23.9074 C   0  0  0  0  0  0
   -0.2125   -0.3973   25.8743 C   0  0  0  0  0  0
   -2.8350    2.9770   19.7949 O   0  0  0  0  0  0
   -2.9690    1.2396   15.0426 H   0  0  0  0  0  0
   -2.4350    1.9958   17.3367 H   0  0  0  0  0  0
   -6.8350    0.0282   16.3731 H   0  0  0  0  0  0
   -3.7794   -0.9729   19.0760 H   0  0  0  0  0  0
   -2.8350   -2.9960   20.1118 H   0  0  0  0  0  0
   -2.2084    1.4243   22.2947 H   0  0  0  0  0  0
   -1.5328    0.8366   24.7487 H   0  0  0  0  0  0
    0.0404    1.6584   23.0760 H   0  0  0  0  0  0
    1.2513    0.4653   23.5430 H   0  0  0  0  0  0
    0.8220    1.7701   24.6366 H   0  0  0  0  0  0
   -1.0017   -0.9748   26.3573 H   0  0  0  0  0  0
    0.6489   -1.0555   25.7469 H   0  0  0  0  0  0
    0.0850    0.3906   26.5674 H   0  0  0  0  0  0
  1 13  1  0  0  0
  1 16  2  0  0  0
  1 19  1  0  0  0
  2  7  1  0  0  0
  2  3  2  0  0  0
  2 17  1  0  0  0
  3  4  1  0  0  0
  3 23  1  0  0  0
  4  5  2  0  0  0
  4 24  1  0  0  0
  5  8  1  0  0  0
  5  6  1  0  0  0
  6  7  2  0  0  0
  6 18  1  0  0  0
  7 25  1  0  0  0
  8  9  1  0  0  0
  8 22  2  0  0  0
  9 12  2  0  0  0
  9 10  1  0  0  0
 10 11  2  0  0  0
 10 26  1  0  0  0
 11 14  1  0  0  0
 11 27  1  0  0  0
 12 13  1  0  0  0
 12 28  1  0  0  0
 13 14  1  0  0  0
 14 15  2  0  0  0
 15 16  1  0  0  0
 19 20  1  0  0  0
 19 21  1  0  0  0
 19 29  1  0  0  0
 20 30  1  0  0  0
 20 31  1  0  0  0
 20 32  1  0  0  0
 21 33  1  0  0  0
 21 34  1  0  0  0
 21 35  1  0  0  0
M  END
> <s_m_entry_id>
60907

> <s_m_entry_name>
dock_pv.184

> <s_m_Source_Path>
/home/csk/Desktop/cluster/DUD-E-result/mk14

> <s_m_Source_File>
dock_pv.maegz

> <i_m_Source_File_Index>
184

> <chembl_id>
CHEMBL608674

> <chembl_pref_name>
None

> <i_lp_mmshare_version>
53161

> <i_f3d_flags>
0

> <r_lp_tautomer_probability>
1

> <s_lp_Force_Field>
OPLS_2005

> <r_lp_Energy>
8.286317

> <b_lp_Chiralities_Consistent>
1

> <s_lp_Variant>
CHEMBL260_lig1814-1

> <s_i_glide_gridfile>
glide-grid_2qd9

> <i_i_glide_lignum>
2112

> <i_i_glide_rotatable_bonds>
3

> <r_i_docking_score>
-8.13509853925285

> <r_i_glide_ligand_efficiency>
-0.369777206329675

> <r_i_glide_ligand_efficiency_sa>
-1.03613027464805

> <r_i_glide_ligand_efficiency_ln>
-1.98851481792246

> <r_i_glide_gscore>
-8.13509853925285

> <r_i_glide_lipo>
-2.82201818958283

> <r_i_glide_hbond>
0

> <r_i_glide_metal>
0

> <r_i_glide_rewards>
-2.95090907007306

> <r_i_glide_evdw>
-35.3013114929199

> <r_i_glide_ecoul>
-6.39334726333618

> <r_i_glide_erotb>
0.361896384549454

> <r_i_glide_esite>
0

> <r_i_glide_emodel>
-55.5289519136837

> <r_i_glide_energy>
-41.6946587562561

> <r_i_glide_einternal>
6.16233491897583

> <i_i_glide_confnum>
1

> <i_i_glide_posenum>
206

> <r_i_glide_eff_state_penalty>
0

> <s_user_duplicate_titles>
CHEMBL260_lig1814

> <s_m_subgroup_title>
dock_pv

> <s_m_subgroupid>
dock_pv

> <b_m_subgroup_collapsed>
1

$$$$
CHEMBL260_lig1614
                    3D
 Schrodinger Suite 2021-1.
 41 44  0  0  1  0            999 V2000
   -1.1936    1.1550   23.7498 C   0  0  0  0  0  0
   -0.2896    0.3123   24.6652 C   0  0  0  0  0  0
   -2.0534   -1.8985   23.7160 C   0  0  0  0  0  0
   -1.9555    0.4589   22.6174 C   0  0  0  0  0  0
   -2.2920   -0.9168   22.5974 C   0  0  0  0  0  0
   -2.8958   -1.4625   21.4477 C   0  0  0  0  0  0
   -3.2390   -0.6517   20.3699 C   0  0  0  0  0  0
   -3.0022    0.7184   20.4257 C   0  0  0  0  0  0
   -2.3626    1.2519   21.5400 C   0  0  0  0  0  0
   -2.0075   -1.4902   25.1522 C   0  0  0  0  0  0
   -1.1002   -0.5281   25.6343 C   0  0  0  0  0  0
   -1.0686   -0.2932   27.0152 C   0  0  0  0  0  0
   -1.9342   -0.9776   27.8669 C   0  0  0  0  0  0
   -2.8349   -1.8786   27.3047 C   0  0  0  0  0  0
   -2.8751   -2.1405   25.9749 N   0  0  0  0  0  0
   -2.0343   -3.1133   23.4764 O   0  0  0  0  0  0
   -3.3005    1.5902   19.3729 N   0  0  0  0  0  0
   -3.9451    1.3582   18.1461 C   0  0  0  0  0  0
   -3.2349    1.6870   16.9892 C   0  0  0  0  0  0
   -3.8057    1.5335   15.7288 C   0  0  0  0  0  0
   -5.1126    1.0745   15.6130 C   0  0  0  0  0  0
   -5.8382    0.7632   16.7580 C   0  0  0  0  0  0
   -5.2666    0.8869   18.0250 C   0  0  0  0  0  0
   -6.0349    0.4877   19.1235 N   0  0  0  0  0  0
   -1.9199    1.6913   24.3625 H   0  0  0  0  0  0
   -0.5694    1.9302   23.3006 H   0  0  0  0  0  0
    0.3555    0.9825   25.2359 H   0  0  0  0  0  0
    0.3962   -0.3180   24.0967 H   0  0  0  0  0  0
   -3.1333   -2.5154   21.3689 H   0  0  0  0  0  0
   -3.6939   -1.0945   19.4966 H   0  0  0  0  0  0
   -2.1408    2.3087   21.5576 H   0  0  0  0  0  0
   -0.3867    0.4355   27.4302 H   0  0  0  0  0  0
   -1.9145   -0.8042   28.9332 H   0  0  0  0  0  0
   -3.5282   -2.4250   27.9281 H   0  0  0  0  0  0
   -2.6848    2.3884   19.3597 H   0  0  0  0  0  0
   -2.2256    2.0636   17.0576 H   0  0  0  0  0  0
   -3.2351    1.7706   14.8437 H   0  0  0  0  0  0
   -5.5641    0.9450   14.6414 H   0  0  0  0  0  0
   -6.8347    0.3699   16.6526 H   0  0  0  0  0  0
   -6.8688   -0.0607   18.9569 H   0  0  0  0  0  0
   -5.5879    0.4833   20.0291 H   0  0  0  0  0  0
  1  4  1  0  0  0
  1  2  1  0  0  0
  1 25  1  0  0  0
  1 26  1  0  0  0
  2 11  1  0  0  0
  2 27  1  0  0  0
  2 28  1  0  0  0
  3 16  2  0  0  0
  3  5  1  0  0  0
  3 10  1  0  0  0
  4  5  2  0  0  0
  4  9  1  0  0  0
  5  6  1  0  0  0
  6  7  2  0  0  0
  6 29  1  0  0  0
  7  8  1  0  0  0
  7 30  1  0  0  0
  8 17  1  0  0  0
  8  9  2  0  0  0
  9 31  1  0  0  0
 10 15  1  0  0  0
 10 11  2  0  0  0
 11 12  1  0  0  0
 12 13  2  0  0  0
 12 32  1  0  0  0
 13 14  1  0  0  0
 13 33  1  0  0  0
 14 15  2  0  0  0
 14 34  1  0  0  0
 17 18  1  0  0  0
 17 35  1  0  0  0
 18 19  2  0  0  0
 18 23  1  0  0  0
 19 20  1  0  0  0
 19 36  1  0  0  0
 20 21  2  0  0  0
 20 37  1  0  0  0
 21 22  1  0  0  0
 21 38  1  0  0  0
 22 23  2  0  0  0
 22 39  1  0  0  0
 23 24  1  0  0  0
 24 40  1  0  0  0
 24 41  1  0  0  0
M  END
> <s_m_entry_id>
60908

> <s_m_entry_name>
dock_pv.185

> <s_m_Source_Path>
/home/csk/Desktop/cluster/DUD-E-result/mk14

> <s_m_Source_File>
dock_pv.maegz

> <i_m_Source_File_Index>
185

> <chembl_id>
CHEMBL473598

> <chembl_pref_name>
None

> <i_lp_mmshare_version>
53161

> <i_f3d_flags>
0

> <r_lp_tautomer_probability>
1

> <s_lp_Force_Field>
OPLS_2005

> <r_lp_Energy>
36.314871

> <b_lp_Chiralities_Consistent>
1

> <s_lp_Variant>
CHEMBL260_lig1614-1

> <s_i_glide_gridfile>
glide-grid_2qd9

> <i_i_glide_lignum>
1863

> <i_i_glide_rotatable_bonds>
2

> <r_i_docking_score>
-8.13180546165044

> <r_i_glide_ligand_efficiency>
-0.338825227568768

> <r_i_glide_ligand_efficiency_sa>
-0.977341076705384

> <r_i_glide_ligand_efficiency_ln>
-1.94631419121118

> <r_i_glide_gscore>
-8.13180546165044

> <r_i_glide_lipo>
-3.37972621154868

> <r_i_glide_hbond>
-0.668251015261247

> <r_i_glide_metal>
0

> <r_i_glide_rewards>
-1.62329648746104

> <r_i_glide_evdw>
-39.2126426696777

> <r_i_glide_ecoul>
-5.82641458511353

> <r_i_glide_erotb>
0.374062573871442

> <r_i_glide_esite>
0

> <r_i_glide_emodel>
-61.3620813640932

> <r_i_glide_energy>
-45.0390572547913

> <r_i_glide_einternal>
8.9816312789917

> <i_i_glide_confnum>
35

> <i_i_glide_posenum>
292

> <r_i_glide_eff_state_penalty>
0

> <s_user_duplicate_titles>
CHEMBL260_lig1614,458769

> <s_m_subgroup_title>
dock_pv

> <s_m_subgroupid>
dock_pv

> <b_m_subgroup_collapsed>
1

$$$$
CHEMBL260_lig485
                    3D
 Schrodinger Suite 2021-1.
 59 63  0  0  1  0            999 V2000
   -2.4780    1.0962   21.6651 C   0  0  0  0  0  0
   -2.0181    2.0397   22.5850 N   0  0  0  0  0  0
   -2.4417    3.1189   20.6646 N   0  0  0  0  0  0
   -2.8547    1.8701   20.5461 C   0  0  0  0  0  0
   -2.0347    3.2167   21.8952 C   0  0  0  0  0  0
   -2.4950   -0.3989   21.8597 C   0  0  0  0  0  0
   -2.3957   -0.8563   23.1337 N   0  0  0  0  0  0
   -2.1525   -2.1811   23.3146 C   0  0  0  0  0  0
   -1.4103   -1.7691   25.5697 C   0  0  0  0  0  0
   -1.8492   -2.6381   24.5834 O   0  0  0  0  0  0
   -3.6566    1.4868   19.3393 C   0  0  0  0  0  0
   -2.0737   -3.1082   22.3291 N   0  0  0  0  0  0
   -1.5373    1.8770   23.9731 C   0  0  0  0  0  0
   -2.2117    3.9973   25.9176 N   0  0  2  0  0  0
   -0.1429   -1.1591   25.4824 C   0  0  0  0  0  0
   -2.2206   -1.5174   26.6903 C   0  0  0  0  0  0
   -2.4330   -1.2851   20.7756 C   0  0  0  0  0  0
   -4.8711    0.8223   19.5292 C   0  0  0  0  0  0
   -3.2810    1.8562   18.0413 C   0  0  0  0  0  0
   -2.2229   -2.6384   21.0626 C   0  0  0  0  0  0
   -5.2815    0.8871   17.1550 C   0  0  0  0  0  0
   -0.4840    2.8954   24.4737 C   0  0  0  0  0  0
   -2.6982    1.7625   24.9772 C   0  0  0  0  0  0
   -4.0655    1.5182   16.9469 C   0  0  0  0  0  0
   -5.7039    0.5591   18.4446 C   0  0  0  0  0  0
   -6.0355    0.5658   16.0843 F   0  0  0  0  0  0
   -1.0724    4.2175   25.0237 C   0  0  0  0  0  0
   -3.2633    3.1345   25.3787 C   0  0  0  0  0  0
   -0.5019   -0.0924   27.6260 C   0  0  0  0  0  0
   -1.7556   -0.6915   27.7175 C   0  0  0  0  0  0
    0.2976   -0.3192   26.5097 C   0  0  0  0  0  0
   -3.5876   -2.1650   26.8316 C   0  0  0  0  0  0
    0.7801   -1.4237   24.3016 C   0  0  0  0  0  0
   -1.5922    4.0856   22.3457 H   0  0  0  0  0  0
   -0.9873    0.9437   23.9208 H   0  0  0  0  0  0
   -2.5861    4.8659   26.2741 H   0  0  0  0  0  0
   -2.4767   -0.9408   19.7532 H   0  0  0  0  0  0
   -5.1918    0.5481   20.5231 H   0  0  0  0  0  0
   -2.4351    2.4867   17.8564 H   0  0  0  0  0  0
   -2.1185   -3.3617   20.2669 H   0  0  0  0  0  0
    0.1314    2.4345   25.2484 H   0  0  0  0  0  0
    0.2565    3.0861   23.6951 H   0  0  0  0  0  0
   -3.4893    1.1244   24.5827 H   0  0  0  0  0  0
   -2.3776    1.2208   25.8640 H   0  0  0  0  0  0
   -3.7636    1.7950   15.9471 H   0  0  0  0  0  0
   -6.6601    0.0796   18.5917 H   0  0  0  0  0  0
   -0.3024    4.7287   25.6036 H   0  0  0  0  0  0
   -1.3585    4.9052   24.2308 H   0  0  0  0  0  0
   -4.0355    3.0086   26.1349 H   0  0  0  0  0  0
   -3.7216    3.6241   24.5187 H   0  0  0  0  0  0
   -0.1462    0.5456   28.4221 H   0  0  0  0  0  0
   -2.3654   -0.5098   28.5905 H   0  0  0  0  0  0
    1.2700    0.1488   26.4580 H   0  0  0  0  0  0
   -3.6349   -3.0965   26.2760 H   0  0  0  0  0  0
   -3.7991   -2.4095   27.8732 H   0  0  0  0  0  0
   -4.3733   -1.5127   26.4599 H   0  0  0  0  0  0
    0.7728   -2.4851   24.0530 H   0  0  0  0  0  0
    0.4588   -0.8727   23.4185 H   0  0  0  0  0  0
    1.8119   -1.1497   24.5281 H   0  0  0  0  0  0
  1  2  1  0  0  0
  1  4  2  0  0  0
  1  6  1  0  0  0
  2  5  1  0  0  0
  2 13  1  0  0  0
  3  4  1  0  0  0
  3  5  2  0  0  0
  4 11  1  0  0  0
  5 34  1  0  0  0
  6  7  1  0  0  0
  6 17  2  0  0  0
  7  8  2  0  0  0
  8 10  1  0  0  0
  8 12  1  0  0  0
  9 10  1  0  0  0
  9 15  2  0  0  0
  9 16  1  0  0  0
 11 18  2  0  0  0
 11 19  1  0  0  0
 12 20  2  0  0  0
 13 22  1  0  0  0
 13 23  1  0  0  0
 13 35  1  0  0  0
 14 28  1  0  0  0
 14 27  1  0  0  0
 14 36  1  0  0  0
 15 31  1  0  0  0
 15 33  1  0  0  0
 16 30  2  0  0  0
 16 32  1  0  0  0
 17 20  1  0  0  0
 17 37  1  0  0  0
 18 25  1  0  0  0
 18 38  1  0  0  0
 19 24  2  0  0  0
 19 39  1  0  0  0
 20 40  1  0  0  0
 21 24  1  0  0  0
 21 26  1  0  0  0
 21 25  2  0  0  0
 22 27  1  0  0  0
 22 41  1  0  0  0
 22 42  1  0  0  0
 23 28  1  0  0  0
 23 43  1  0  0  0
 23 44  1  0  0  0
 24 45  1  0  0  0
 25 46  1  0  0  0
 27 47  1  0  0  0
 27 48  1  0  0  0
 28 49  1  0  0  0
 28 50  1  0  0  0
 29 30  1  0  0  0
 29 31  2  0  0  0
 29 51  1  0  0  0
 30 52  1  0  0  0
 31 53  1  0  0  0
 32 54  1  0  0  0
 32 55  1  0  0  0
 32 56  1  0  0  0
 33 57  1  0  0  0
 33 58  1  0  0  0
 33 59  1  0  0  0
M  END
> <s_m_entry_id>
60909

> <s_m_entry_name>
dock_pv.186

> <s_m_Source_Path>
/home/csk/Desktop/cluster/DUD-E-result/mk14

> <s_m_Source_File>
dock_pv.maegz

> <i_m_Source_File_Index>
186

> <chembl_id>
CHEMBL277521

> <chembl_pref_name>
None

> <i_lp_mmshare_version>
53161

> <i_f3d_flags>
0

> <r_lp_tautomer_probability>
1

> <s_lp_Force_Field>
OPLS_2005

> <r_lp_Energy>
35.062437

> <b_lp_Chiralities_Consistent>
1

> <s_lp_Variant>
CHEMBL260_lig485-1

> <s_i_glide_gridfile>
glide-grid_2qd9

> <i_i_glide_lignum>
555

> <i_i_glide_rotatable_bonds>
5

> <r_i_docking_score>
-8.11338836653818

> <r_i_glide_ligand_efficiency>
-0.24586025353146

> <r_i_glide_ligand_efficiency_sa>
-0.788605202664514

> <r_i_glide_ligand_efficiency_ln>
-1.8043755638414

> <r_i_glide_gscore>
-8.11338836653818

> <r_i_glide_lipo>
-3.33436390682279

> <r_i_glide_hbond>
-0.573780097854979

> <r_i_glide_metal>
0

> <r_i_glide_rewards>
-2.13130296812875

> <r_i_glide_evdw>
-38.7014999389648

> <r_i_glide_ecoul>
-4.07351636886597

> <r_i_glide_erotb>
0.508176484982537

> <r_i_glide_esite>
-0.0360154264360529

> <r_i_glide_emodel>
-54.2659169304198

> <r_i_glide_energy>
-42.7750163078308

> <r_i_glide_einternal>
6.52534532546997

> <i_i_glide_confnum>
139

> <i_i_glide_posenum>
158

> <r_i_glide_eff_state_penalty>
0

> <s_user_duplicate_titles>
CHEMBL260_lig485,13735

> <s_m_subgroup_title>
dock_pv

> <s_m_subgroupid>
dock_pv

> <b_m_subgroup_collapsed>
1

$$$$
CHEMBL260_lig1641
                    3D
 Schrodinger Suite 2021-1.
 40 42  0  0  1  0            999 V2000
   -0.4563   -0.7686   26.6129 C   0  0  0  0  0  0
    0.4324   -0.7136   25.5410 C   0  0  0  0  0  0
   -0.0149   -0.9658   24.2449 C   0  0  0  0  0  0
   -1.3671   -1.2493   24.0149 C   0  0  0  0  0  0
   -2.2632   -1.2831   25.0933 C   0  0  0  0  0  0
   -1.8014   -1.0551   26.3889 C   0  0  0  0  0  0
   -1.8511   -1.4438   22.6229 C   0  0  0  0  0  0
   -2.2397   -0.2231   21.8036 C   0  0  0  0  0  0
   -1.9824   -2.6001   22.2122 O   0  0  0  0  0  0
   -2.0355    1.0494   22.3597 C   0  0  0  0  0  0
   -2.3847    2.1878   21.6499 C   0  0  0  0  0  0
   -2.9394    2.0875   20.4321 N   0  3  0  0  0  0
   -3.2331    0.8962   19.8469 C   0  0  0  0  0  0
   -2.8346   -0.2855   20.5167 C   0  0  0  0  0  0
   -3.2350    3.1779   19.8760 O   0  5  0  0  0  0
   -3.0489   -1.5129   19.8923 N   0  0  0  0  0  0
   -4.1392    0.9049   18.6455 C   0  0  0  0  0  0
   -5.4589    0.5037   18.8881 C   0  0  0  0  0  0
   -6.4035    0.4904   17.8714 C   0  0  0  0  0  0
   -6.0350    0.8710   16.5866 C   0  0  0  0  0  0
   -4.7435    1.2838   16.3180 C   0  0  0  0  0  0
   -3.7791    1.3185   17.3355 C   0  0  0  0  0  0
   -3.5840   -1.5085   24.8977 F   0  0  0  0  0  0
   -0.0154   -0.5429   27.8696 F   0  0  0  0  0  0
   -2.5036    1.7748   17.0760 O   0  0  0  0  0  0
   -2.1320    2.2257   15.7818 C   0  0  0  0  0  0
    1.4749   -0.4944   25.7216 H   0  0  0  0  0  0
    0.6929   -0.9254   23.4277 H   0  0  0  0  0  0
   -2.4873   -1.0889   27.2217 H   0  0  0  0  0  0
   -1.5936    1.1865   23.3372 H   0  0  0  0  0  0
   -2.2244    3.1899   22.0192 H   0  0  0  0  0  0
   -3.4297   -1.5404   18.9572 H   0  0  0  0  0  0
   -2.7551   -2.3613   20.3656 H   0  0  0  0  0  0
   -5.7609    0.1927   19.8767 H   0  0  0  0  0  0
   -7.4065    0.1520   18.0792 H   0  0  0  0  0  0
   -6.7586    0.8429   15.7873 H   0  0  0  0  0  0
   -4.5163    1.5771   15.3047 H   0  0  0  0  0  0
   -1.1012    2.5797   15.7972 H   0  0  0  0  0  0
   -2.1950    1.4009   15.0777 H   0  0  0  0  0  0
   -2.7585    3.0521   15.4459 H   0  0  0  0  0  0
  1  2  2  0  0  0
  1 24  1  0  0  0
  1  6  1  0  0  0
  2  3  1  0  0  0
  2 27  1  0  0  0
  3  4  2  0  0  0
  3 28  1  0  0  0
  4  7  1  0  0  0
  4  5  1  0  0  0
  5 23  1  0  0  0
  5  6  2  0  0  0
  6 29  1  0  0  0
  7  8  1  0  0  0
  7  9  2  0  0  0
  8 14  1  0  0  0
  8 10  2  0  0  0
 10 11  1  0  0  0
 10 30  1  0  0  0
 11 12  2  0  0  0
 11 31  1  0  0  0
 12 13  1  0  0  0
 12 15  1  0  0  0
 13 14  2  0  0  0
 13 17  1  0  0  0
 14 16  1  0  0  0
 16 32  1  0  0  0
 16 33  1  0  0  0
 17 18  2  0  0  0
 17 22  1  0  0  0
 18 19  1  0  0  0
 18 34  1  0  0  0
 19 20  2  0  0  0
 19 35  1  0  0  0
 20 21  1  0  0  0
 20 36  1  0  0  0
 21 22  2  0  0  0
 21 37  1  0  0  0
 22 25  1  0  0  0
 25 26  1  0  0  0
 26 38  1  0  0  0
 26 39  1  0  0  0
 26 40  1  0  0  0
M  CHG  2  12   1  15  -1
M  END
> <s_m_entry_id>
60910

> <s_m_entry_name>
dock_pv.187

> <s_m_Source_Path>
/home/csk/Desktop/cluster/DUD-E-result/mk14

> <s_m_Source_File>
dock_pv.maegz

> <i_m_Source_File_Index>
187

> <chembl_id>
CHEMBL551716

> <chembl_pref_name>
None

> <i_lp_mmshare_version>
53161

> <i_f3d_flags>
0

> <r_lp_tautomer_probability>
1

> <s_lp_Force_Field>
OPLS_2005

> <r_lp_Energy>
41.758809

> <b_lp_Chiralities_Consistent>
1

> <s_lp_Variant>
CHEMBL260_lig1641-1

> <s_i_glide_gridfile>
glide-grid_2qd9

> <i_i_glide_lignum>
1893

> <i_i_glide_rotatable_bonds>
4

> <r_i_docking_score>
-8.10596971448615

> <r_i_glide_ligand_efficiency>
-0.311768065941775

> <r_i_glide_ligand_efficiency_sa>
-0.923611668604407

> <r_i_glide_ligand_efficiency_ln>
-1.90366038959102

> <r_i_glide_gscore>
-8.10596971448615

> <r_i_glide_lipo>
-3.80055980048091

> <r_i_glide_hbond>
0

> <r_i_glide_metal>
0

> <r_i_glide_rewards>
-1.63562512509486

> <r_i_glide_evdw>
-32.4456176757812

> <r_i_glide_ecoul>
-9.99692153930664

> <r_i_glide_erotb>
0.452034325774669

> <r_i_glide_esite>
0

> <r_i_glide_emodel>
-52.0602528566161

> <r_i_glide_energy>
-42.4425392150879

> <r_i_glide_einternal>
1.92971777915955

> <i_i_glide_confnum>
6

> <i_i_glide_posenum>
149

> <r_i_glide_eff_state_penalty>
0

> <s_user_duplicate_titles>
CHEMBL260_lig1641,563742

> <s_m_subgroup_title>
dock_pv

> <s_m_subgroupid>
dock_pv

> <b_m_subgroup_collapsed>
1

$$$$
CHEMBL260_lig407
                    3D
 Schrodinger Suite 2021-1.
 45 48  0  0  1  0            999 V2000
   -1.0455   -1.5490   24.0341 C   0  0  0  0  0  0
   -1.8233   -2.0904   22.9446 C   0  0  0  0  0  0
    0.2844   -1.1440   23.9762 C   0  0  0  0  0  0
   -1.9005   -1.4086   21.7658 N   0  0  0  0  0  0
   -1.4026   -1.4504   25.4284 C   0  0  0  0  0  0
    0.7106   -0.7126   25.2058 N   0  0  0  0  0  0
   -3.0724    0.4653   19.9291 N   0  0  0  0  0  0
   -0.2885   -0.8980   26.1331 C   0  0  0  0  0  0
   -2.4342   -3.1374   23.1497 O   0  0  0  0  0  0
   -2.7702   -1.9067   20.6759 C   0  0  0  0  0  0
   -1.2354   -0.1236   21.4910 C   0  0  0  0  0  0
   -4.0073    1.4981   19.4643 C   0  0  0  0  0  0
   -3.7584   -0.7782   20.2815 C   0  0  0  0  0  0
   -2.2883    0.9293   21.0708 C   0  0  0  0  0  0
   -4.3663    1.2939   17.9978 C   0  0  0  0  0  0
   -2.5676   -1.7528   26.1555 C   0  0  0  0  0  0
   -0.3175   -0.6507   27.5096 C   0  0  0  0  0  0
   -5.6426    0.8863   17.6185 C   0  0  0  0  0  0
   -3.3921    1.5043   17.0215 C   0  0  0  0  0  0
   -2.5957   -1.5135   27.5282 C   0  0  0  0  0  0
   -1.4935   -0.9749   28.1860 C   0  0  0  0  0  0
   -5.8917    0.5788   16.2825 C   0  0  0  0  0  0
   -3.6531    1.2385   15.6834 C   0  0  0  0  0  0
   -4.9012    0.7469   15.3248 C   0  0  0  0  0  0
    0.9719   -1.1128   23.1428 H   0  0  0  0  0  0
    1.6450   -0.3671   25.3747 H   0  0  0  0  0  0
   -2.1663   -2.1819   19.8107 H   0  0  0  0  0  0
   -3.3441   -2.7895   20.9621 H   0  0  0  0  0  0
   -0.6939    0.2975   22.3320 H   0  0  0  0  0  0
   -0.5405   -0.3130   20.6745 H   0  0  0  0  0  0
   -4.9041    1.5079   20.0874 H   0  0  0  0  0  0
   -3.5593    2.4897   19.5481 H   0  0  0  0  0  0
   -4.3935   -0.5500   21.1383 H   0  0  0  0  0  0
   -4.4094   -1.1089   19.4759 H   0  0  0  0  0  0
   -2.9600    1.1342   21.9075 H   0  0  0  0  0  0
   -1.7901    1.8632   20.8138 H   0  0  0  0  0  0
   -3.4303   -2.1688   25.6566 H   0  0  0  0  0  0
    0.5345   -0.2433   28.0361 H   0  0  0  0  0  0
   -6.4140    0.7196   18.3568 H   0  0  0  0  0  0
   -2.4346    1.8795   17.3121 H   0  0  0  0  0  0
   -3.4829   -1.7553   28.0955 H   0  0  0  0  0  0
   -1.5472   -0.8132   29.2533 H   0  0  0  0  0  0
   -6.8345    0.1646   15.9830 H   0  0  0  0  0  0
   -2.8891    1.3901   14.9355 H   0  0  0  0  0  0
   -5.1075    0.4870   14.2971 H   0  0  0  0  0  0
  1  2  1  0  0  0
  1  3  2  0  0  0
  1  5  1  0  0  0
  2  4  1  0  0  0
  2  9  2  0  0  0
  3  6  1  0  0  0
  3 25  1  0  0  0
  4 10  1  0  0  0
  4 11  1  0  0  0
  5  8  1  0  0  0
  5 16  2  0  0  0
  6  8  1  0  0  0
  6 26  1  0  0  0
  7 14  1  0  0  0
  7 12  1  0  0  0
  7 13  1  0  0  0
  8 17  2  0  0  0
 10 13  1  0  0  0
 10 27  1  0  0  0
 10 28  1  0  0  0
 11 14  1  0  0  0
 11 29  1  0  0  0
 11 30  1  0  0  0
 12 15  1  0  0  0
 12 31  1  0  0  0
 12 32  1  0  0  0
 13 33  1  0  0  0
 13 34  1  0  0  0
 14 35  1  0  0  0
 14 36  1  0  0  0
 15 18  1  0  0  0
 15 19  2  0  0  0
 16 20  1  0  0  0
 16 37  1  0  0  0
 17 21  1  0  0  0
 17 38  1  0  0  0
 18 22  2  0  0  0
 18 39  1  0  0  0
 19 23  1  0  0  0
 19 40  1  0  0  0
 20 21  2  0  0  0
 20 41  1  0  0  0
 21 42  1  0  0  0
 22 24  1  0  0  0
 22 43  1  0  0  0
 23 24  2  0  0  0
 23 44  1  0  0  0
 24 45  1  0  0  0
M  END
> <s_m_entry_id>
60911

> <s_m_entry_name>
dock_pv.188

> <s_m_Source_Path>
/home/csk/Desktop/cluster/DUD-E-result/mk14

> <s_m_Source_File>
dock_pv.maegz

> <i_m_Source_File_Index>
188

> <chembl_id>
CHEMBL318990

> <chembl_pref_name>
None

> <i_lp_mmshare_version>
53161

> <i_f3d_flags>
0

> <r_lp_tautomer_probability>
1

> <s_lp_Force_Field>
OPLS_2005

> <r_lp_Energy>
47.281339

> <b_lp_Chiralities_Consistent>
1

> <s_lp_Variant>
CHEMBL260_lig407-1

> <s_i_glide_gridfile>
glide-grid_2qd9

> <i_i_glide_lignum>
474

> <i_i_glide_rotatable_bonds>
4

> <r_i_docking_score>
-8.09109074313466

> <r_i_glide_ligand_efficiency>
-0.337128780963944

> <r_i_glide_ligand_efficiency_sa>
-0.972447677936854

> <r_i_glide_ligand_efficiency_ln>
-1.93656929079366

> <r_i_glide_gscore>
-8.09109074313466

> <r_i_glide_lipo>
-3.74051142124706

> <r_i_glide_hbond>
-0.36285431795077

> <r_i_glide_metal>
0

> <r_i_glide_rewards>
-2.01478704176625

> <r_i_glide_evdw>
-38.2071914672852

> <r_i_glide_ecoul>
-5.29439306259155

> <r_i_glide_erotb>
0.731580570582417

> <r_i_glide_esite>
0

> <r_i_glide_emodel>
-60.5199558783649

> <r_i_glide_energy>
-43.5015845298767

> <r_i_glide_einternal>
5.27077484130859

> <i_i_glide_confnum>
84

> <i_i_glide_posenum>
118

> <r_i_glide_eff_state_penalty>
0

> <s_user_duplicate_titles>
CHEMBL260_lig407

> <s_m_subgroup_title>
dock_pv

> <s_m_subgroupid>
dock_pv

> <b_m_subgroup_collapsed>
1

$$$$
CHEMBL260_lig1813
                    3D
 Schrodinger Suite 2021-1.
 35 37  0  0  1  0            999 V2000
   -0.8953   -0.6486   23.8637 C   0  0  0  0  0  0
   -5.3694    0.8711   16.2924 C   0  0  0  0  0  0
   -4.0942    1.4215   16.2422 C   0  0  0  0  0  0
   -3.4059    1.6870   17.4258 C   0  0  0  0  0  0
   -3.9773    1.3817   18.6750 C   0  0  0  0  0  0
   -5.2835    0.8869   18.7081 C   0  0  0  0  0  0
   -5.9698    0.6422   17.5260 C   0  0  0  0  0  0
   -3.2350    1.6049   19.9543 C   0  0  0  0  0  0
   -2.7901    0.4207   20.7858 C   0  0  0  0  0  0
   -3.0568   -0.8930   20.3755 C   0  0  0  0  0  0
   -2.6244   -2.0042   21.0973 C   0  0  0  0  0  0
   -2.0549    0.6017   21.9718 C   0  0  0  0  0  0
   -1.6215   -0.4911   22.6920 N   0  0  0  0  0  0
   -1.9012   -1.8050   22.2768 C   0  0  0  0  0  0
   -1.3818   -2.6884   23.1570 N   0  0  0  0  0  0
   -0.7453   -1.9361   24.1265 N   0  0  0  0  0  0
   -5.9926    0.4872   15.1570 F   0  0  0  0  0  0
   -5.8882    0.5862   19.8760 F   0  0  0  0  0  0
   -0.3107    0.4947   24.6968 C   0  0  0  0  0  0
    0.8169    1.2278   23.9467 C   0  0  0  0  0  0
    0.1869    0.0283   26.0826 C   0  0  0  0  0  0
   -2.9174    2.7533   20.2752 O   0  0  0  0  0  0
   -3.6301    1.6190   15.2869 H   0  0  0  0  0  0
   -2.4350    2.1424   17.3271 H   0  0  0  0  0  0
   -6.9152    0.1445   17.5855 H   0  0  0  0  0  0
   -3.6137   -1.0857   19.4760 H   0  0  0  0  0  0
   -2.8364   -3.0035   20.7527 H   0  0  0  0  0  0
   -1.7926    1.5729   22.3652 H   0  0  0  0  0  0
   -1.1046    1.2202   24.8820 H   0  0  0  0  0  0
    0.4404    1.7589   23.0763 H   0  0  0  0  0  0
    1.5911    0.5357   23.6118 H   0  0  0  0  0  0
    1.3033    1.9702   24.5814 H   0  0  0  0  0  0
   -0.6132   -0.4407   26.6566 H   0  0  0  0  0  0
    0.9989   -0.6958   25.9941 H   0  0  0  0  0  0
    0.5653    0.8637   26.6732 H   0  0  0  0  0  0
  1 13  1  0  0  0
  1 16  2  0  0  0
  1 19  1  0  0  0
  2  7  1  0  0  0
  2  3  2  0  0  0
  2 17  1  0  0  0
  3  4  1  0  0  0
  3 23  1  0  0  0
  4  5  2  0  0  0
  4 24  1  0  0  0
  5  8  1  0  0  0
  5  6  1  0  0  0
  6  7  2  0  0  0
  6 18  1  0  0  0
  7 25  1  0  0  0
  8  9  1  0  0  0
  8 22  2  0  0  0
  9 12  2  0  0  0
  9 10  1  0  0  0
 10 11  2  0  0  0
 10 26  1  0  0  0
 11 14  1  0  0  0
 11 27  1  0  0  0
 12 13  1  0  0  0
 12 28  1  0  0  0
 13 14  1  0  0  0
 14 15  2  0  0  0
 15 16  1  0  0  0
 19 20  1  0  0  0
 19 21  1  0  0  0
 19 29  1  0  0  0
 20 30  1  0  0  0
 20 31  1  0  0  0
 20 32  1  0  0  0
 21 33  1  0  0  0
 21 34  1  0  0  0
 21 35  1  0  0  0
M  END
> <s_m_entry_id>
60912

> <s_m_entry_name>
dock_pv.189

> <s_m_Source_Path>
/home/csk/Desktop/cluster/DUD-E-result/mk14

> <s_m_Source_File>
dock_pv.maegz

> <i_m_Source_File_Index>
189

> <chembl_id>
CHEMBL595558

> <chembl_pref_name>
None

> <i_lp_mmshare_version>
53161

> <i_f3d_flags>
0

> <r_lp_tautomer_probability>
1

> <s_lp_Force_Field>
OPLS_2005

> <r_lp_Energy>
18.635559

> <b_lp_Chiralities_Consistent>
1

> <s_lp_Variant>
CHEMBL260_lig1813-1

> <s_i_glide_gridfile>
glide-grid_2qd9

> <i_i_glide_lignum>
2111

> <i_i_glide_rotatable_bonds>
3

> <r_i_docking_score>
-8.0610947501115

> <r_i_glide_ligand_efficiency>
-0.366413397732341

> <r_i_glide_ligand_efficiency_sa>
-1.02670475066723

> <r_i_glide_ligand_efficiency_ln>
-1.97042559250251

> <r_i_glide_gscore>
-8.0610947501115

> <r_i_glide_lipo>
-2.82468505426602

> <r_i_glide_hbond>
0

> <r_i_glide_metal>
0

> <r_i_glide_rewards>
-3.24656073623369

> <r_i_glide_evdw>
-32.208137512207

> <r_i_glide_ecoul>
-5.23145580291748

> <r_i_glide_erotb>
0.405276286436188

> <r_i_glide_esite>
0

> <r_i_glide_emodel>
-52.0582929719573

> <r_i_glide_energy>
-37.4395933151245

> <r_i_glide_einternal>
3.98131728172302

> <i_i_glide_confnum>
5

> <i_i_glide_posenum>
338

> <r_i_glide_eff_state_penalty>
0

> <s_user_duplicate_titles>
CHEMBL260_lig1813

> <s_m_subgroup_title>
dock_pv

> <s_m_subgroupid>
dock_pv

> <b_m_subgroup_collapsed>
1

$$$$
CHEMBL260_lig1829
                    3D
 Schrodinger Suite 2021-1.
 58 60  0  0  1  0            999 V2000
   -5.1177    0.7428   15.7766 C   0  0  0  0  0  0
   -3.8379    1.2844   15.8353 C   0  0  0  0  0  0
   -3.2922    1.6296   17.0685 C   0  0  0  0  0  0
   -4.0271    1.4193   18.2454 C   0  0  0  0  0  0
   -5.3162    0.8870   18.1701 C   0  0  0  0  0  0
   -5.8640    0.5720   16.9336 C   0  0  0  0  0  0
   -5.6316    0.3382   14.5987 F   0  0  0  0  0  0
   -3.4580    1.8228   19.6032 C   0  0  0  0  0  0
   -3.4275    0.6954   20.6685 C   0  0  0  0  0  0
   -2.6741   -0.5758   20.2389 C   0  0  0  0  0  0
   -2.7712   -1.6875   21.3077 C   0  0  0  0  0  0
   -2.2579   -1.1396   22.5898 N   0  0  0  0  0  0
   -2.8393    0.1325   23.0886 C   0  0  0  0  0  0
   -2.7436    1.1728   21.9592 C   0  0  0  0  0  0
   -1.4905   -1.9301   23.3871 C   0  0  0  0  0  0
   -0.9416   -1.3357   24.6583 C   0  0  0  0  0  0
   -1.2475   -3.1131   23.1374 O   0  0  0  0  0  0
    0.2416   -0.5745   24.6666 C   0  0  0  0  0  0
    0.6491    0.0075   25.8765 C   0  0  0  0  0  0
   -1.6709   -1.5173   25.8361 C   0  0  0  0  0  0
    0.9275   -0.3943   23.4771 O   0  0  0  0  0  0
   -1.2791   -0.9164   27.0417 C   0  0  0  0  0  0
   -0.1044   -0.1512   27.0374 C   0  0  0  0  0  0
    2.2403    0.1599   23.5027 C   0  0  0  0  0  0
   -2.0973   -0.9755   28.3091 C   0  0  0  0  0  0
   -3.2418   -2.0862   28.4808 C   0  0  0  0  0  0
   -1.8948   -0.2113   29.2588 O   0  0  0  0  0  0
   -4.0102   -2.3132   27.5457 O   0  0  0  0  0  0
   -3.3376   -2.6928   29.6989 N   0  0  0  0  0  0
   -2.3199   -2.6902   30.7551 C   0  0  0  0  0  0
   -4.4691   -3.5673   30.0179 C   0  0  0  0  0  0
   -3.2657    1.4229   14.9298 H   0  0  0  0  0  0
   -2.3041    2.0607   17.0763 H   0  0  0  0  0  0
   -5.9040    0.7219   19.0632 H   0  0  0  0  0  0
   -6.8351    0.1173   16.8801 H   0  0  0  0  0  0
   -4.0758    2.6433   19.9665 H   0  0  0  0  0  0
   -2.4721    2.2662   19.4840 H   0  0  0  0  0  0
   -4.4524    0.4093   20.9037 H   0  0  0  0  0  0
   -1.6352   -0.3468   20.0079 H   0  0  0  0  0  0
   -3.0808   -0.9510   19.2994 H   0  0  0  0  0  0
   -2.1774   -2.5287   20.9457 H   0  0  0  0  0  0
   -3.8092   -1.9855   21.4398 H   0  0  0  0  0  0
   -3.8826   -0.0443   23.3508 H   0  0  0  0  0  0
   -2.3026    0.5582   23.9374 H   0  0  0  0  0  0
   -3.2214    2.0858   22.3054 H   0  0  0  0  0  0
   -1.7065    1.4629   21.7740 H   0  0  0  0  0  0
    1.5393    0.6148   25.9355 H   0  0  0  0  0  0
   -2.5694   -2.1059   25.7663 H   0  0  0  0  0  0
    0.2450    0.3360   27.9385 H   0  0  0  0  0  0
    2.6687    0.1193   22.5014 H   0  0  0  0  0  0
    2.2241    1.2063   23.8131 H   0  0  0  0  0  0
    2.9031   -0.4037   24.1626 H   0  0  0  0  0  0
   -2.6663   -2.0732   31.5800 H   0  0  0  0  0  0
   -1.3482   -2.3128   30.4329 H   0  0  0  0  0  0
   -2.1467   -3.7005   31.1274 H   0  0  0  0  0  0
   -5.2786   -3.5005   29.2864 H   0  0  0  0  0  0
   -4.1350   -4.6066   30.0650 H   0  0  0  0  0  0
   -4.8895   -3.2966   30.9870 H   0  0  0  0  0  0
  1  6  1  0  0  0
  1  2  2  0  0  0
  1  7  1  0  0  0
  2  3  1  0  0  0
  2 32  1  0  0  0
  3  4  2  0  0  0
  3 33  1  0  0  0
  4  8  1  0  0  0
  4  5  1  0  0  0
  5  6  2  0  0  0
  5 34  1  0  0  0
  6 35  1  0  0  0
  8  9  1  0  0  0
  8 36  1  0  0  0
  8 37  1  0  0  0
  9 10  1  0  0  0
  9 14  1  0  0  0
  9 38  1  0  0  0
 10 11  1  0  0  0
 10 39  1  0  0  0
 10 40  1  0  0  0
 11 12  1  0  0  0
 11 41  1  0  0  0
 11 42  1  0  0  0
 12 15  1  0  0  0
 12 13  1  0  0  0
 13 14  1  0  0  0
 13 43  1  0  0  0
 13 44  1  0  0  0
 14 45  1  0  0  0
 14 46  1  0  0  0
 15 16  1  0  0  0
 15 17  2  0  0  0
 16 18  2  0  0  0
 16 20  1  0  0  0
 18 19  1  0  0  0
 18 21  1  0  0  0
 19 23  2  0  0  0
 19 47  1  0  0  0
 20 22  2  0  0  0
 20 48  1  0  0  0
 21 24  1  0  0  0
 22 23  1  0  0  0
 22 25  1  0  0  0
 23 49  1  0  0  0
 24 50  1  0  0  0
 24 51  1  0  0  0
 24 52  1  0  0  0
 25 26  1  0  0  0
 25 27  2  0  0  0
 26 28  2  0  0  0
 26 29  1  0  0  0
 29 30  1  0  0  0
 29 31  1  0  0  0
 30 53  1  0  0  0
 30 54  1  0  0  0
 30 55  1  0  0  0
 31 56  1  0  0  0
 31 57  1  0  0  0
 31 58  1  0  0  0
M  END
> <s_m_entry_id>
60913

> <s_m_entry_name>
dock_pv.190

> <s_m_Source_Path>
/home/csk/Desktop/cluster/DUD-E-result/mk14

> <s_m_Source_File>
dock_pv.maegz

> <i_m_Source_File_Index>
190

> <chembl_id>
CHEMBL592777

> <chembl_pref_name>
None

> <i_lp_mmshare_version>
53161

> <i_f3d_flags>
0

> <r_lp_tautomer_probability>
1

> <s_lp_Force_Field>
OPLS_2005

> <r_lp_Energy>
57.214803

> <b_lp_Chiralities_Consistent>
1

> <s_lp_Variant>
CHEMBL260_lig1829-1

> <s_i_glide_gridfile>
glide-grid_2qd9

> <i_i_glide_lignum>
2135

> <i_i_glide_rotatable_bonds>
8

> <r_i_docking_score>
-8.05615661007891

> <r_i_glide_ligand_efficiency>
-0.259876019679965

> <r_i_glide_ligand_efficiency_sa>
-0.816369499308659

> <r_i_glide_ligand_efficiency_ln>
-1.81691020712234

> <r_i_glide_gscore>
-8.05615661007891

> <r_i_glide_lipo>
-4.14398134327391

> <r_i_glide_hbond>
-0.256097667243692

> <r_i_glide_metal>
0

> <r_i_glide_rewards>
-1.45442486295979

> <r_i_glide_evdw>
-42.7518768310547

> <r_i_glide_ecoul>
-4.79165935516357

> <r_i_glide_erotb>
0.654690008225754

> <r_i_glide_esite>
0

> <r_i_glide_emodel>
-62.3141945173953

> <r_i_glide_energy>
-47.5435361862183

> <r_i_glide_einternal>
5.15364360809326

> <i_i_glide_confnum>
2

> <i_i_glide_posenum>
82

> <r_i_glide_eff_state_penalty>
0

> <s_user_duplicate_titles>
CHEMBL260_lig1829,600228

> <s_m_subgroup_title>
dock_pv

> <s_m_subgroupid>
dock_pv

> <b_m_subgroup_collapsed>
1

$$$$
CHEMBL260_lig1538
                    3D
 Schrodinger Suite 2021-1.
 48 51  0  0  1  0            999 V2000
   -3.1624    1.7001   20.0530 C   0  0  0  0  0  0
   -2.6566    0.8886   21.0891 C   0  0  0  0  0  0
   -2.1490    1.7753   22.0246 N   0  0  0  0  0  0
   -2.4326    2.9911   21.4929 C   0  0  0  0  0  0
   -2.9097    2.9731   20.2781 N   0  0  0  0  0  0
   -1.4888    1.5080   23.3170 C   0  0  0  0  0  0
   -0.6546    2.5937   24.0250 C   0  0  0  0  0  0
    0.0857    3.5785   23.3500 C   0  0  0  0  0  0
    0.9142    4.4524   24.0497 C   0  0  0  0  0  0
    1.0248    4.3560   25.4340 C   0  0  0  0  0  0
    0.2906    3.3909   26.1366 C   0  0  0  0  0  0
   -0.5482    2.5243   25.4205 C   0  0  0  0  0  0
   -3.9499    1.3565   18.8393 C   0  0  0  0  0  0
   -3.4227    1.5927   17.5658 C   0  0  0  0  0  0
   -4.1785    1.3316   16.4317 C   0  0  0  0  0  0
   -5.4778    0.8674   16.5762 C   0  0  0  0  0  0
   -6.0352    0.6727   17.8390 C   0  0  0  0  0  0
   -5.2568    0.8868   18.9752 C   0  0  0  0  0  0
   -2.5636   -0.5899   21.2182 C   0  0  0  0  0  0
   -2.3634   -1.3810   20.0881 C   0  0  0  0  0  0
   -2.0343   -2.7133   20.3140 C   0  0  0  0  0  0
   -1.9345   -3.2516   21.5582 N   0  0  0  0  0  0
   -2.1827   -2.4185   22.5942 C   0  0  0  0  0  0
   -2.5113   -1.1045   22.4768 N   0  0  0  0  0  0
   -6.1727    0.5258   15.4758 F   0  0  0  0  0  0
    0.3791    3.2824   27.6374 C   0  0  0  0  0  0
    1.5618    3.5389   28.1961 N   0  0  0  0  0  0
   -0.5984    2.9756   28.3155 O   0  0  0  0  0  0
   -2.0348   -2.9859   23.8477 O   0  0  0  0  0  0
   -2.1616   -2.1472   24.9978 C   0  0  0  0  0  0
   -2.1692    3.8328   22.0913 H   0  0  0  0  0  0
   -2.2740    1.1638   23.9917 H   0  0  0  0  0  0
   -0.8026    0.6748   23.1639 H   0  0  0  0  0  0
    0.0618    3.6858   22.2765 H   0  0  0  0  0  0
    1.4900    5.1925   23.5139 H   0  0  0  0  0  0
    1.6812    5.0416   25.9519 H   0  0  0  0  0  0
   -1.1018    1.7632   25.9547 H   0  0  0  0  0  0
   -2.4350    1.9950   17.4429 H   0  0  0  0  0  0
   -3.7619    1.4839   15.4465 H   0  0  0  0  0  0
   -7.0436    0.2958   17.9305 H   0  0  0  0  0  0
   -5.6774    0.7144   19.9549 H   0  0  0  0  0  0
   -2.3968   -0.9757   19.0878 H   0  0  0  0  0  0
   -1.8623   -3.3901   19.4894 H   0  0  0  0  0  0
    1.6355    3.4849   29.1994 H   0  0  0  0  0  0
    2.4097    3.4472   27.6495 H   0  0  0  0  0  0
   -1.9461   -2.7127   25.9017 H   0  0  0  0  0  0
   -1.4554   -1.3156   24.9657 H   0  0  0  0  0  0
   -3.1732   -1.7486   25.0880 H   0  0  0  0  0  0
  1 13  1  0  0  0
  1  5  1  0  0  0
  1  2  2  0  0  0
  2  3  1  0  0  0
  2 19  1  0  0  0
  3  4  1  0  0  0
  3  6  1  0  0  0
  4  5  2  0  0  0
  4 31  1  0  0  0
  6  7  1  0  0  0
  6 32  1  0  0  0
  6 33  1  0  0  0
  7  8  2  0  0  0
  7 12  1  0  0  0
  8  9  1  0  0  0
  8 34  1  0  0  0
  9 10  2  0  0  0
  9 35  1  0  0  0
 10 11  1  0  0  0
 10 36  1  0  0  0
 11 12  2  0  0  0
 11 26  1  0  0  0
 12 37  1  0  0  0
 13 18  1  0  0  0
 13 14  2  0  0  0
 14 15  1  0  0  0
 14 38  1  0  0  0
 15 16  2  0  0  0
 15 39  1  0  0  0
 16 17  1  0  0  0
 16 25  1  0  0  0
 17 18  2  0  0  0
 17 40  1  0  0  0
 18 41  1  0  0  0
 19 20  2  0  0  0
 19 24  1  0  0  0
 20 21  1  0  0  0
 20 42  1  0  0  0
 21 22  2  0  0  0
 21 43  1  0  0  0
 22 23  1  0  0  0
 23 24  2  0  0  0
 23 29  1  0  0  0
 26 27  1  0  0  0
 26 28  2  0  0  0
 27 44  1  0  0  0
 27 45  1  0  0  0
 29 30  1  0  0  0
 30 46  1  0  0  0
 30 47  1  0  0  0
 30 48  1  0  0  0
M  END
> <s_m_entry_id>
60914

> <s_m_entry_name>
dock_pv.191

> <s_m_Source_Path>
/home/csk/Desktop/cluster/DUD-E-result/mk14

> <s_m_Source_File>
dock_pv.maegz

> <i_m_Source_File_Index>
191

> <chembl_id>
CHEMBL480944

> <chembl_pref_name>
None

> <i_lp_mmshare_version>
53161

> <i_f3d_flags>
0

> <r_lp_tautomer_probability>
1

> <s_lp_Force_Field>
OPLS_2005

> <r_lp_Energy>
16.214549

> <b_lp_Chiralities_Consistent>
1

> <s_lp_Variant>
CHEMBL260_lig1538-1

> <s_i_glide_gridfile>
glide-grid_2qd9

> <i_i_glide_lignum>
1787

> <i_i_glide_rotatable_bonds>
6

> <r_i_docking_score>
-8.04288805649672

> <r_i_glide_ligand_efficiency>
-0.268096268549891

> <r_i_glide_ligand_efficiency_sa>
-0.833037439418714

> <r_i_glide_ligand_efficiency_ln>
-1.82743180072038

> <r_i_glide_gscore>
-8.04288805649672

> <r_i_glide_lipo>
-2.91662596897561

> <r_i_glide_hbond>
-0.533570900389511

> <r_i_glide_metal>
0

> <r_i_glide_rewards>
-2.46288317985983

> <r_i_glide_evdw>
-33.4720306396484

> <r_i_glide_ecoul>
-5.99011993408203

> <r_i_glide_erotb>
0.48256905867792

> <r_i_glide_esite>
-0.0402575438549604

> <r_i_glide_emodel>
-50.6032034887701

> <r_i_glide_energy>
-39.4621505737305

> <r_i_glide_einternal>
12.2960901260376

> <i_i_glide_confnum>
50

> <i_i_glide_posenum>
83

> <r_i_glide_eff_state_penalty>
0

> <s_user_duplicate_titles>
CHEMBL260_lig1538,468075

> <s_m_subgroup_title>
dock_pv

> <s_m_subgroupid>
dock_pv

> <b_m_subgroup_collapsed>
1

$$$$
CHEMBL260_lig171
                    3D
 Schrodinger Suite 2021-1.
 46 49  0  0  1  0            999 V2000
   -2.0351    3.0430   21.6920 C   0  0  0  0  0  0
   -2.6311    3.0276   20.5294 N   0  0  0  0  0  0
   -2.9598    1.7650   20.3229 C   0  0  0  0  0  0
   -2.4832    0.9419   21.3667 C   0  0  0  0  0  0
   -1.8895    1.8138   22.2762 N   0  0  0  0  0  0
   -2.2127   -2.4001   22.8618 C   0  0  0  0  0  0
   -2.4745   -1.0700   22.7485 N   0  0  0  0  0  0
   -2.4937   -0.5479   21.4931 C   0  0  0  0  0  0
   -2.3510   -1.3563   20.3619 C   0  0  0  0  0  0
   -2.1170   -2.7128   20.5834 C   0  0  0  0  0  0
   -2.0348   -3.2523   21.8269 N   0  0  0  0  0  0
   -2.0352   -2.9667   24.1093 O   0  0  0  0  0  0
   -2.0846   -2.1266   25.2622 C   0  0  0  0  0  0
   -3.8044    1.4231   19.1296 C   0  0  0  0  0  0
   -5.0776    0.8819   19.3290 C   0  0  0  0  0  0
   -5.9133    0.6329   18.2404 C   0  0  0  0  0  0
   -5.4560    0.8870   16.9464 C   0  0  0  0  0  0
   -4.1874    1.3993   16.7320 C   0  0  0  0  0  0
   -3.3762    1.6869   17.8203 C   0  0  0  0  0  0
   -6.2176    0.5809   15.8774 F   0  0  0  0  0  0
   -0.3346    2.6864   26.1379 N   0  0  1  0  0  0
    0.6759    2.3247   25.1449 C   0  0  0  0  0  0
    0.0939    2.4061   23.7216 C   0  0  0  0  0  0
   -1.1860    1.5416   23.5559 C   0  0  0  0  0  0
   -2.1736    1.8299   24.7097 C   0  0  0  0  0  0
   -1.4972    1.8007   26.0954 C   0  0  0  0  0  0
   -1.6237    3.9049   22.1841 H   0  0  0  0  0  0
   -2.3554   -0.9496   19.3616 H   0  0  0  0  0  0
   -1.9850   -3.3947   19.7551 H   0  0  0  0  0  0
   -1.8885   -2.7128   26.1578 H   0  0  0  0  0  0
   -3.0647   -1.6617   25.3759 H   0  0  0  0  0  0
   -1.3239   -1.3471   25.2153 H   0  0  0  0  0  0
   -5.4285    0.6714   20.3270 H   0  0  0  0  0  0
   -6.8976    0.2136   18.3887 H   0  0  0  0  0  0
   -3.8459    1.5949   15.7257 H   0  0  0  0  0  0
   -2.4350    2.1593   17.6085 H   0  0  0  0  0  0
    0.0864    2.6531   27.0580 H   0  0  0  0  0  0
    1.0631    1.3249   25.3513 H   0  0  0  0  0  0
    1.5146    3.0159   25.2437 H   0  0  0  0  0  0
    0.8640    1.9852   23.0767 H   0  0  0  0  0  0
    0.0205    3.4389   23.3909 H   0  0  0  0  0  0
   -0.8631    0.5056   23.5420 H   0  0  0  0  0  0
   -2.7695    2.7315   24.5622 H   0  0  0  0  0  0
   -2.9110    1.0258   24.7277 H   0  0  0  0  0  0
   -1.1953    0.7863   26.3619 H   0  0  0  0  0  0
   -2.2025    2.1351   26.8570 H   0  0  0  0  0  0
  1  2  2  0  0  0
  1  5  1  0  0  0
  1 27  1  0  0  0
  2  3  1  0  0  0
  3  4  2  0  0  0
  3 14  1  0  0  0
  4  5  1  0  0  0
  4  8  1  0  0  0
  5 24  1  0  0  0
  6  7  1  0  0  0
  6 11  2  0  0  0
  6 12  1  0  0  0
  7  8  2  0  0  0
  8  9  1  0  0  0
  9 10  2  0  0  0
  9 28  1  0  0  0
 10 11  1  0  0  0
 10 29  1  0  0  0
 12 13  1  0  0  0
 13 30  1  0  0  0
 13 31  1  0  0  0
 13 32  1  0  0  0
 14 15  1  0  0  0
 14 19  2  0  0  0
 15 16  2  0  0  0
 15 33  1  0  0  0
 16 17  1  0  0  0
 16 34  1  0  0  0
 17 18  2  0  0  0
 17 20  1  0  0  0
 18 19  1  0  0  0
 18 35  1  0  0  0
 19 36  1  0  0  0
 21 22  1  0  0  0
 21 26  1  0  0  0
 21 37  1  0  0  0
 22 23  1  0  0  0
 22 38  1  0  0  0
 22 39  1  0  0  0
 23 24  1  0  0  0
 23 40  1  0  0  0
 23 41  1  0  0  0
 24 25  1  0  0  0
 24 42  1  0  0  0
 25 26  1  0  0  0
 25 43  1  0  0  0
 25 44  1  0  0  0
 26 45  1  0  0  0
 26 46  1  0  0  0
M  END
> <s_m_entry_id>
60915

> <s_m_entry_name>
dock_pv.192

> <s_m_Source_Path>
/home/csk/Desktop/cluster/DUD-E-result/mk14

> <s_m_Source_File>
dock_pv.maegz

> <i_m_Source_File_Index>
192

> <chembl_id>
CHEMBL95692

> <chembl_pref_name>
SB-242235

> <i_lp_mmshare_version>
53161

> <i_f3d_flags>
0

> <r_lp_tautomer_probability>
1

> <s_lp_Force_Field>
OPLS_2005

> <r_lp_Energy>
27.8208

> <b_lp_Chiralities_Consistent>
1

> <s_lp_Variant>
CHEMBL260_lig171-1

> <s_i_glide_gridfile>
glide-grid_2qd9

> <i_i_glide_lignum>
188

> <i_i_glide_rotatable_bonds>
4

> <r_i_docking_score>
-8.03408848213327

> <r_i_glide_ligand_efficiency>
-0.309003403158972

> <r_i_glide_ligand_efficiency_sa>
-0.915421365988774

> <r_i_glide_ligand_efficiency_ln>
-1.88677931803451

> <r_i_glide_gscore>
-8.03408848213327

> <r_i_glide_lipo>
-2.81623534806876

> <r_i_glide_hbond>
-0.58789371700033

> <r_i_glide_metal>
0

> <r_i_glide_rewards>
-2.77291719570242

> <r_i_glide_evdw>
-28.864330291748

> <r_i_glide_ecoul>
-5.60271406173706

> <r_i_glide_erotb>
0.458726367842866

> <r_i_glide_esite>
-0.0321449653566558

> <r_i_glide_emodel>
-47.1335292378834

> <r_i_glide_energy>
-34.4670443534851

> <r_i_glide_einternal>
6.32213068008423

> <i_i_glide_confnum>
17

> <i_i_glide_posenum>
113

> <r_i_glide_eff_state_penalty>
0

> <s_user_duplicate_titles>
CHEMBL260_lig171,158564

> <s_m_subgroup_title>
dock_pv

> <s_m_subgroupid>
dock_pv

> <b_m_subgroup_collapsed>
1

$$$$
CHEMBL260_lig1808
                    3D
 Schrodinger Suite 2021-1.
 34 36  0  0  1  0            999 V2000
   -5.0912    0.6994   15.7792 C   0  0  0  0  0  0
   -3.8363    1.2905   15.8618 C   0  0  0  0  0  0
   -3.3304    1.6830   17.0955 C   0  0  0  0  0  0
   -4.0514    1.4392   18.2753 C   0  0  0  0  0  0
   -5.3389    0.8870   18.1725 C   0  0  0  0  0  0
   -5.8608    0.5437   16.9264 C   0  0  0  0  0  0
   -3.3593    1.8890   19.8612 S   0  0  0  0  0  0
   -2.9011    0.3458   20.6247 C   0  0  0  0  0  0
   -2.5898   -0.7826   19.8635 C   0  0  0  0  0  0
   -2.2632   -2.0030   20.4610 C   0  0  0  0  0  0
   -2.8352    0.2673   22.0166 C   0  0  0  0  0  0
   -2.5125   -0.9290   22.6130 N   0  0  0  0  0  0
   -2.2317   -2.0828   21.8597 C   0  0  0  0  0  0
   -1.9581   -3.1128   22.6924 N   0  0  0  0  0  0
   -2.0349   -2.6048   23.9765 N   0  0  0  0  0  0
   -5.6526    0.0864   14.2761 Cl  0  0  0  0  0  0
   -6.3079    0.5320   19.5511 Cl  0  0  0  0  0  0
   -2.3824   -1.3310   23.9303 C   0  0  0  0  0  0
   -1.3228    0.5579   25.2312 C   0  0  0  0  0  0
   -2.5271   -0.3970   25.1295 C   0  0  0  0  0  0
   -2.7311   -1.1596   26.4550 C   0  0  0  0  0  0
   -3.2383    1.4314   14.9759 H   0  0  0  0  0  0
   -2.3779    2.1787   17.0760 H   0  0  0  0  0  0
   -6.8247    0.0568   16.8823 H   0  0  0  0  0  0
   -2.5771   -0.7125   18.7877 H   0  0  0  0  0  0
   -2.0347   -2.8757   19.8694 H   0  0  0  0  0  0
   -3.0444    1.1018   22.6679 H   0  0  0  0  0  0
   -1.2155    1.1737   24.3382 H   0  0  0  0  0  0
   -0.3911    0.0058   25.3626 H   0  0  0  0  0  0
   -1.4221    1.2330   26.0825 H   0  0  0  0  0  0
   -3.4204    0.2138   24.9852 H   0  0  0  0  0  0
   -3.6290   -1.7772   26.4219 H   0  0  0  0  0  0
   -1.8861   -1.8128   26.6781 H   0  0  0  0  0  0
   -2.8344   -0.4727   27.2951 H   0  0  0  0  0  0
  1  2  2  0  0  0
  1  6  1  0  0  0
  1 16  1  0  0  0
  2  3  1  0  0  0
  2 22  1  0  0  0
  3  4  2  0  0  0
  3 23  1  0  0  0
  4  5  1  0  0  0
  4  7  1  0  0  0
  5  6  2  0  0  0
  5 17  1  0  0  0
  6 24  1  0  0  0
  7  8  1  0  0  0
  8  9  1  0  0  0
  8 11  2  0  0  0
  9 10  2  0  0  0
  9 25  1  0  0  0
 10 13  1  0  0  0
 10 26  1  0  0  0
 11 12  1  0  0  0
 11 27  1  0  0  0
 12 13  1  0  0  0
 12 18  1  0  0  0
 13 14  2  0  0  0
 14 15  1  0  0  0
 15 18  2  0  0  0
 18 20  1  0  0  0
 19 20  1  0  0  0
 19 28  1  0  0  0
 19 29  1  0  0  0
 19 30  1  0  0  0
 20 21  1  0  0  0
 20 31  1  0  0  0
 21 32  1  0  0  0
 21 33  1  0  0  0
 21 34  1  0  0  0
M  END
> <s_m_entry_id>
60916

> <s_m_entry_name>
dock_pv.193

> <s_m_Source_Path>
/home/csk/Desktop/cluster/DUD-E-result/mk14

> <s_m_Source_File>
dock_pv.maegz

> <i_m_Source_File_Index>
193

> <chembl_id>
CHEMBL608376

> <chembl_pref_name>
None

> <i_lp_mmshare_version>
53161

> <i_f3d_flags>
0

> <r_lp_tautomer_probability>
1

> <s_lp_Force_Field>
OPLS_2005

> <r_lp_Energy>
8.600138

> <b_lp_Chiralities_Consistent>
1

> <s_lp_Variant>
CHEMBL260_lig1808-1

> <s_i_glide_gridfile>
glide-grid_2qd9

> <i_i_glide_lignum>
2106

> <i_i_glide_rotatable_bonds>
3

> <r_i_docking_score>
-8.02269662736235

> <r_i_glide_ligand_efficiency>
-0.382033172731541

> <r_i_glide_ligand_efficiency_sa>
-1.05400055535899

> <r_i_glide_ligand_efficiency_ln>
-1.98359552973037

> <r_i_glide_gscore>
-8.02269662736235

> <r_i_glide_lipo>
-3.59383374602344

> <r_i_glide_hbond>
0

> <r_i_glide_metal>
0

> <r_i_glide_rewards>
-2.15452450460689

> <r_i_glide_evdw>
-35.5445976257324

> <r_i_glide_ecoul>
-5.27442216873169

> <r_i_glide_erotb>
0.330540344197361

> <r_i_glide_esite>
-0.0364855143330144

> <r_i_glide_emodel>
-57.8335844643312

> <r_i_glide_energy>
-40.8190197944641

> <r_i_glide_einternal>
0.83048152923584

> <i_i_glide_confnum>
1

> <i_i_glide_posenum>
184

> <r_i_glide_eff_state_penalty>
0

> <s_user_duplicate_titles>
CHEMBL260_lig1808

> <s_m_subgroup_title>
dock_pv

> <s_m_subgroupid>
dock_pv

> <b_m_subgroup_collapsed>
1

$$$$
CHEMBL260_lig311
                    3D
 Schrodinger Suite 2021-1.
 45 47  0  0  1  0            999 V2000
   -1.7418   -1.3152   22.7182 N   0  0  0  0  0  0
   -2.1315   -0.1939   21.9484 C   0  0  0  0  0  0
   -3.1596    0.8761   19.9890 C   0  0  0  0  0  0
   -1.6492   -1.1981   24.1365 C   0  0  0  0  0  0
   -1.7089   -2.5701   22.2221 C   0  0  0  0  0  0
   -3.8340    0.8481   18.6343 C   0  0  0  0  0  0
   -2.8149   -0.2752   20.7028 C   0  0  0  0  0  0
   -5.2265    0.8870   18.4823 C   0  0  0  0  0  0
   -3.0912    0.8870   17.4488 C   0  0  0  0  0  0
   -2.8350    2.0910   20.5971 C   0  0  0  0  0  0
   -2.8247   -1.1537   24.9091 C   0  0  0  0  0  0
   -0.3955   -1.1424   24.7745 C   0  0  0  0  0  0
   -1.8478    1.0564   22.4975 C   0  0  0  0  0  0
   -2.0352   -3.5130   22.9092 O   0  0  0  0  0  0
   -5.8065    0.8870   17.2159 C   0  0  0  0  0  0
   -2.2190    2.1928   21.8382 C   0  0  0  0  0  0
   -1.2351   -2.7588   20.9887 N   0  0  0  0  0  0
   -5.0402    0.8870   16.0656 C   0  0  0  0  0  0
   -3.6636    0.9095   16.1794 C   0  0  0  0  0  0
   -4.3887   -1.1214   24.1623 Cl  0  0  0  0  0  0
    1.0835   -1.1129   23.8762 Cl  0  0  0  0  0  0
   -5.6342    0.8238   14.8573 F   0  0  0  0  0  0
   -6.1309    0.8871   19.6753 C   0  0  0  0  0  0
   -2.0422    3.6890   19.0493 O   0  0  0  0  0  0
   -3.1024    3.3563   19.9057 C   0  0  0  0  0  0
   -1.4949   -1.0985   26.9296 C   0  0  0  0  0  0
   -0.3293   -1.0945   26.1670 C   0  0  0  0  0  0
   -2.7383   -1.1210   26.3010 C   0  0  0  0  0  0
   -3.0945   -1.2255   20.2723 H   0  0  0  0  0  0
   -2.0350    0.8868   17.4760 H   0  0  0  0  0  0
   -1.3258    1.1761   23.4357 H   0  0  0  0  0  0
   -6.8603    0.8695   17.1139 H   0  0  0  0  0  0
   -1.9715    3.1501   22.2735 H   0  0  0  0  0  0
   -1.2693   -3.6826   20.5847 H   0  0  0  0  0  0
   -0.8930   -1.9796   20.4480 H   0  0  0  0  0  0
   -3.0453    0.9173   15.2938 H   0  0  0  0  0  0
   -7.1753    0.6831   19.4421 H   0  0  0  0  0  0
   -5.7706    0.0870   20.2762 H   0  0  0  0  0  0
   -6.0180    1.7825   20.2758 H   0  0  0  0  0  0
   -1.2004    3.6429   19.5160 H   0  0  0  0  0  0
   -4.0693    3.2870   19.4240 H   0  0  0  0  0  0
   -3.2350    4.0870   20.6758 H   0  0  0  0  0  0
   -1.4322   -1.0739   28.0084 H   0  0  0  0  0  0
    0.6324   -1.0595   26.6593 H   0  0  0  0  0  0
   -3.6357   -1.1132   26.8994 H   0  0  0  0  0  0
  1  2  1  0  0  0
  1  4  1  0  0  0
  1  5  1  0  0  0
  2  7  1  0  0  0
  2 13  2  0  0  0
  3  7  2  0  0  0
  3  6  1  0  0  0
  3 10  1  0  0  0
  4 11  1  0  0  0
  4 12  2  0  0  0
  5 14  2  0  0  0
  5 17  1  0  0  0
  6  8  1  0  0  0
  6  9  2  0  0  0
  7 29  1  0  0  0
  8 15  2  0  0  0
  8 23  1  0  0  0
  9 19  1  0  0  0
  9 30  1  0  0  0
 10 16  2  0  0  0
 10 25  1  0  0  0
 11 20  1  0  0  0
 11 28  2  0  0  0
 12 21  1  0  0  0
 12 27  1  0  0  0
 13 16  1  0  0  0
 13 31  1  0  0  0
 15 18  1  0  0  0
 15 32  1  0  0  0
 16 33  1  0  0  0
 17 34  1  0  0  0
 17 35  1  0  0  0
 18 19  2  0  0  0
 18 22  1  0  0  0
 19 36  1  0  0  0
 23 37  1  0  0  0
 23 38  1  0  0  0
 23 39  1  0  0  0
 24 25  1  0  0  0
 24 40  1  0  0  0
 25 41  1  0  0  0
 25 42  1  0  0  0
 26 27  2  0  0  0
 26 28  1  0  0  0
 26 43  1  0  0  0
 27 44  1  0  0  0
 28 45  1  0  0  0
M  END
> <s_m_entry_id>
60917

> <s_m_entry_name>
dock_pv.194

> <s_m_Source_Path>
/home/csk/Desktop/cluster/DUD-E-result/mk14

> <s_m_Source_File>
dock_pv.maegz

> <i_m_Source_File_Index>
194

> <chembl_id>
CHEMBL62794

> <chembl_pref_name>
None

> <i_lp_mmshare_version>
53161

> <i_f3d_flags>
0

> <r_lp_tautomer_probability>
1

> <s_lp_Force_Field>
OPLS_2005

> <r_lp_Energy>
41.979767

> <b_lp_Chiralities_Consistent>
1

> <s_lp_Variant>
CHEMBL260_lig311-1

> <s_i_glide_gridfile>
glide-grid_2qd9

> <i_i_glide_lignum>
364

> <i_i_glide_rotatable_bonds>
6

> <r_i_docking_score>
-8.01549538053613

> <r_i_glide_ligand_efficiency>
-0.286267692162005

> <r_i_glide_ligand_efficiency_sa>
-0.869277316057904

> <r_i_glide_ligand_efficiency_ln>
-1.8502116789985

> <r_i_glide_gscore>
-8.01549538053613

> <r_i_glide_lipo>
-3.88918284863257

> <r_i_glide_hbond>
-0.518767817656257

> <r_i_glide_metal>
0

> <r_i_glide_rewards>
-1.33050465515709

> <r_i_glide_evdw>
-28.2931861877441

> <r_i_glide_ecoul>
-8.7500057220459

> <r_i_glide_erotb>
0.450120108603872

> <r_i_glide_esite>
0

> <r_i_glide_emodel>
-56.6433776194444

> <r_i_glide_energy>
-37.04319190979

> <r_i_glide_einternal>
1.60055637359619

> <i_i_glide_confnum>
63

> <i_i_glide_posenum>
129

> <r_i_glide_eff_state_penalty>
0

> <s_user_duplicate_titles>
CHEMBL260_lig311,98610

> <s_m_subgroup_title>
dock_pv

> <s_m_subgroupid>
dock_pv

> <b_m_subgroup_collapsed>
1

$$$$
CHEMBL260_lig188
                    3D
 Schrodinger Suite 2021-1.
 54 58  0  0  1  0            999 V2000
   -1.1802   -0.7131   27.4793 C   0  0  0  0  0  0
   -0.0341   -0.7136   26.6868 C   0  0  0  0  0  0
   -0.0661   -1.3113   25.4287 C   0  0  0  0  0  0
   -1.2467   -1.8941   24.9675 C   0  0  0  0  0  0
   -2.4023   -1.8627   25.7493 C   0  0  0  0  0  0
   -2.3662   -1.2787   27.0135 C   0  0  0  0  0  0
   -1.2461   -2.5805   23.7498 N   0  0  0  0  0  0
   -1.7434   -2.1771   22.5081 C   0  0  0  0  0  0
   -2.1980   -0.9054   22.3465 N   0  0  0  0  0  0
   -2.5288   -0.5062   21.0860 C   0  0  0  0  0  0
   -2.4812   -1.4087   20.0190 C   0  0  0  0  0  0
   -2.0359   -2.7041   20.2870 C   0  0  0  0  0  0
   -1.6475   -3.1009   21.5237 N   0  0  0  0  0  0
   -2.7313    0.9669   20.8216 C   0  0  0  0  0  0
   -3.2417    1.6316   19.6775 C   0  0  0  0  0  0
   -3.0465    2.9202   19.7395 N   0  0  0  0  0  0
   -2.4346    3.1228   20.8501 C   0  0  0  0  0  0
   -2.2965    2.0114   21.6448 N   0  0  0  0  0  0
   -3.9593    1.2062   18.4500 C   0  0  0  0  0  0
   -5.3123    0.8865   18.5419 C   0  0  0  0  0  0
   -6.0350    0.6005   17.3862 C   0  0  0  0  0  0
   -5.3902    0.6086   16.1479 C   0  0  0  0  0  0
   -4.0543    0.9737   16.0447 C   0  0  0  0  0  0
   -3.3396    1.2850   17.1938 C   0  0  0  0  0  0
   -6.0359    0.2031   15.0378 F   0  0  0  0  0  0
   -1.6927    1.9784   23.0041 C   0  0  0  0  0  0
   -0.8517    3.2463   23.3237 C   0  0  0  0  0  0
   -0.4096    3.2868   24.7962 C   0  0  0  0  0  0
   -1.5849    3.2631   25.6667 N   0  0  1  0  0  0
   -2.3764    2.0481   25.4833 C   0  0  0  0  0  0
   -2.8487    1.8871   24.0272 C   0  0  0  0  0  0
   -1.1476   -0.2677   28.4632 H   0  0  0  0  0  0
    0.8829   -0.2752   27.0554 H   0  0  0  0  0  0
    0.8328   -1.3439   24.8297 H   0  0  0  0  0  0
   -3.3160   -2.3133   25.3927 H   0  0  0  0  0  0
   -3.2470   -1.2766   27.6371 H   0  0  0  0  0  0
   -0.6730   -3.4080   23.7157 H   0  0  0  0  0  0
   -2.7190   -1.1094   19.0127 H   0  0  0  0  0  0
   -1.9774   -3.4444   19.5014 H   0  0  0  0  0  0
   -1.9735    4.0579   21.0906 H   0  0  0  0  0  0
   -5.8060    0.8574   19.5030 H   0  0  0  0  0  0
   -7.0638    0.2920   17.4763 H   0  0  0  0  0  0
   -3.5717    0.9948   15.0785 H   0  0  0  0  0  0
   -2.3093    1.5838   17.0794 H   0  0  0  0  0  0
   -1.0272    1.1178   23.0215 H   0  0  0  0  0  0
    0.0573    3.2240   22.7186 H   0  0  0  0  0  0
   -1.3370    4.1859   23.0756 H   0  0  0  0  0  0
    0.2395    2.4400   25.0298 H   0  0  0  0  0  0
    0.1618    4.1943   24.9960 H   0  0  0  0  0  0
   -1.2854    3.3210   26.6317 H   0  0  0  0  0  0
   -1.7780    1.1886   25.7745 H   0  0  0  0  0  0
   -3.2356    2.0893   26.1542 H   0  0  0  0  0  0
   -3.6828    2.5483   23.7970 H   0  0  0  0  0  0
   -3.2816    0.8881   23.9740 H   0  0  0  0  0  0
  1  6  1  0  0  0
  1  2  2  0  0  0
  1 32  1  0  0  0
  2  3  1  0  0  0
  2 33  1  0  0  0
  3  4  2  0  0  0
  3 34  1  0  0  0
  4  5  1  0  0  0
  4  7  1  0  0  0
  5  6  2  0  0  0
  5 35  1  0  0  0
  6 36  1  0  0  0
  7  8  1  0  0  0
  7 37  1  0  0  0
  8  9  2  0  0  0
  8 13  1  0  0  0
  9 10  1  0  0  0
 10 11  2  0  0  0
 10 14  1  0  0  0
 11 12  1  0  0  0
 11 38  1  0  0  0
 12 13  2  0  0  0
 12 39  1  0  0  0
 14 18  1  0  0  0
 14 15  2  0  0  0
 15 19  1  0  0  0
 15 16  1  0  0  0
 16 17  2  0  0  0
 17 18  1  0  0  0
 17 40  1  0  0  0
 18 26  1  0  0  0
 19 20  2  0  0  0
 19 24  1  0  0  0
 20 21  1  0  0  0
 20 41  1  0  0  0
 21 22  2  0  0  0
 21 42  1  0  0  0
 22 23  1  0  0  0
 22 25  1  0  0  0
 23 24  2  0  0  0
 23 43  1  0  0  0
 24 44  1  0  0  0
 26 27  1  0  0  0
 26 31  1  0  0  0
 26 45  1  0  0  0
 27 28  1  0  0  0
 27 46  1  0  0  0
 27 47  1  0  0  0
 28 29  1  0  0  0
 28 48  1  0  0  0
 28 49  1  0  0  0
 29 30  1  0  0  0
 29 50  1  0  0  0
 30 31  1  0  0  0
 30 51  1  0  0  0
 30 52  1  0  0  0
 31 53  1  0  0  0
 31 54  1  0  0  0
M  END
> <s_m_entry_id>
60918

> <s_m_entry_name>
dock_pv.195

> <s_m_Source_Path>
/home/csk/Desktop/cluster/DUD-E-result/mk14

> <s_m_Source_File>
dock_pv.maegz

> <i_m_Source_File_Index>
195

> <chembl_id>
CHEMBL97550

> <chembl_pref_name>
None

> <i_lp_mmshare_version>
53161

> <i_f3d_flags>
0

> <r_lp_tautomer_probability>
0.999999987636

> <s_lp_Force_Field>
OPLS_2005

> <r_lp_Energy>
29.133657

> <b_lp_Chiralities_Consistent>
1

> <s_lp_Variant>
CHEMBL260_lig188-1

> <s_i_glide_gridfile>
glide-grid_2qd9

> <i_i_glide_lignum>
205

> <i_i_glide_rotatable_bonds>
5

> <r_i_docking_score>
-8.01507337745764

> <r_i_glide_ligand_efficiency>
-0.258550754111537

> <r_i_glide_ligand_efficiency_sa>
-0.812206335697484

> <r_i_glide_ligand_efficiency_ln>
-1.80764467911637

> <r_i_glide_gscore>
-8.01507337745764

> <r_i_glide_lipo>
-3.87666540111518

> <r_i_glide_hbond>
-0.0362754547965122

> <r_i_glide_metal>
0

> <r_i_glide_rewards>
-2.17263147434012

> <r_i_glide_evdw>
-42.622142791748

> <r_i_glide_ecoul>
-2.24512434005737

> <r_i_glide_erotb>
0.574470528269953

> <r_i_glide_esite>
-0.0360957848797724

> <r_i_glide_emodel>
-53.2641373960885

> <r_i_glide_energy>
-44.8672671318054

> <r_i_glide_einternal>
11.4035673141479

> <i_i_glide_confnum>
126

> <i_i_glide_posenum>
10

> <r_i_glide_eff_state_penalty>
0

> <s_user_duplicate_titles>
CHEMBL260_lig188,158552

> <s_m_subgroup_title>
dock_pv

> <s_m_subgroupid>
dock_pv

> <b_m_subgroup_collapsed>
1

$$$$
CHEMBL260_lig1233
                    3D
 Schrodinger Suite 2021-1.
 58 61  0  0  1  0            999 V2000
    1.1714    4.5399   23.9582 N   0  0  0  0  0  0
   -1.7544   -2.4733   22.1665 C   0  0  0  0  0  0
   -2.1320   -2.5097   20.7672 C   0  0  0  0  0  0
   -2.5987   -1.4344   20.0986 C   0  0  0  0  0  0
   -1.6594   -1.2120   22.6988 N   0  0  0  0  0  0
   -2.0577   -0.0197   22.0060 C   0  0  0  0  0  0
   -2.6093   -0.0921   20.7012 C   0  0  0  0  0  0
   -3.0709    1.0645   20.0280 C   0  0  0  0  0  0
   -2.8387    2.2941   20.6714 C   0  0  0  0  0  0
   -2.2852    2.3865   21.9545 C   0  0  0  0  0  0
   -1.9120    1.2269   22.6098 C   0  0  0  0  0  0
   -1.6406   -3.5139   22.8115 O   0  0  0  0  0  0
   -1.3683   -1.1261   24.0929 C   0  0  0  0  0  0
   -2.4018   -1.2701   25.0395 C   0  0  0  0  0  0
   -2.1259   -1.1934   26.4055 C   0  0  0  0  0  0
   -0.8272   -0.9502   26.8453 C   0  0  0  0  0  0
    0.1941   -0.7626   25.9188 C   0  0  0  0  0  0
   -0.0636   -0.8470   24.5501 C   0  0  0  0  0  0
    1.2451   -0.5425   23.4674 Cl  0  0  0  0  0  0
   -4.0375   -1.5122   24.5513 Cl  0  0  0  0  0  0
   -3.7783    1.0524   18.6812 C   0  0  0  0  0  0
   -3.0912    1.2563   17.4767 C   0  0  0  0  0  0
   -3.7041    1.3199   16.2274 C   0  0  0  0  0  0
   -5.0729    1.1387   16.1355 C   0  0  0  0  0  0
   -5.7880    0.8931   17.2974 C   0  0  0  0  0  0
   -5.1634    0.8651   18.5452 C   0  0  0  0  0  0
   -6.1609    0.4902   19.8759 Cl  0  0  0  0  0  0
   -2.1738    3.6231   22.5525 O   0  0  0  0  0  0
   -1.2505    3.8587   23.6212 C   0  0  0  0  0  0
    0.2266    3.7472   23.1685 C   0  0  0  0  0  0
    1.3489    5.8767   23.9544 C   0  0  0  0  0  0
   -0.5329    7.4201   23.9263 N   0  0  0  0  0  0
    0.4684    6.7818   23.0429 C   0  0  1  0  0  0
    1.2873    7.8396   22.2547 C   0  0  0  0  0  0
    2.3385    7.2879   21.4788 O   0  0  0  0  0  0
    2.1758    6.4075   24.6957 O   0  0  0  0  0  0
    1.8072    4.0107   24.5409 H   0  0  0  0  0  0
   -2.1027   -3.4779   20.2793 H   0  0  0  0  0  0
   -2.8905   -1.5590   19.0749 H   0  0  0  0  0  0
   -3.1501    3.2045   20.1828 H   0  0  0  0  0  0
   -1.5083    1.3013   23.6051 H   0  0  0  0  0  0
   -2.9192   -1.3172   27.1296 H   0  0  0  0  0  0
   -0.6141   -0.8955   27.9038 H   0  0  0  0  0  0
    1.1952   -0.5527   26.2669 H   0  0  0  0  0  0
   -2.0367    1.3386   17.4727 H   0  0  0  0  0  0
   -3.1143    1.4857   15.3370 H   0  0  0  0  0  0
   -5.5708    1.1599   15.1767 H   0  0  0  0  0  0
   -6.8355    0.6956   17.2255 H   0  0  0  0  0  0
   -1.4572    4.8742   23.9506 H   0  0  0  0  0  0
   -1.4508    3.2534   24.5056 H   0  0  0  0  0  0
    0.5339    2.7026   23.1146 H   0  0  0  0  0  0
    0.3079    4.0878   22.1344 H   0  0  0  0  0  0
   -0.8304    6.7652   24.6346 H   0  0  0  0  0  0
   -0.0977    8.1834   24.4286 H   0  0  0  0  0  0
   -0.0526    6.1784   22.3039 H   0  0  0  0  0  0
    0.6266    8.3964   21.5877 H   0  0  0  0  0  0
    1.7248    8.5719   22.9349 H   0  0  0  0  0  0
    1.9652    6.7324   20.7705 H   0  0  0  0  0  0
  1 30  1  0  0  0
  1 31  1  0  0  0
  1 37  1  0  0  0
  2 12  2  0  0  0
  2  3  1  0  0  0
  2  5  1  0  0  0
  3  4  2  0  0  0
  3 38  1  0  0  0
  4  7  1  0  0  0
  4 39  1  0  0  0
  5  6  1  0  0  0
  5 13  1  0  0  0
  6 11  1  0  0  0
  6  7  2  0  0  0
  7  8  1  0  0  0
  8 21  1  0  0  0
  8  9  2  0  0  0
  9 10  1  0  0  0
  9 40  1  0  0  0
 10 11  2  0  0  0
 10 28  1  0  0  0
 11 41  1  0  0  0
 13 18  1  0  0  0
 13 14  2  0  0  0
 14 20  1  0  0  0
 14 15  1  0  0  0
 15 16  2  0  0  0
 15 42  1  0  0  0
 16 17  1  0  0  0
 16 43  1  0  0  0
 17 18  2  0  0  0
 17 44  1  0  0  0
 18 19  1  0  0  0
 21 22  2  0  0  0
 21 26  1  0  0  0
 22 23  1  0  0  0
 22 45  1  0  0  0
 23 24  2  0  0  0
 23 46  1  0  0  0
 24 25  1  0  0  0
 24 47  1  0  0  0
 25 26  2  0  0  0
 25 48  1  0  0  0
 26 27  1  0  0  0
 28 29  1  0  0  0
 29 30  1  0  0  0
 29 49  1  0  0  0
 29 50  1  0  0  0
 30 51  1  0  0  0
 30 52  1  0  0  0
 31 36  2  0  0  0
 31 33  1  0  0  0
 32 33  1  0  0  0
 32 53  1  0  0  0
 32 54  1  0  0  0
 33 34  1  0  0  0
 33 55  1  0  0  0
 34 35  1  0  0  0
 34 56  1  0  0  0
 34 57  1  0  0  0
 35 58  1  0  0  0
M  END
> <s_m_entry_id>
60919

> <s_m_entry_name>
dock_pv.196

> <s_m_Source_Path>
/home/csk/Desktop/cluster/DUD-E-result/mk14

> <s_m_Source_File>
dock_pv.maegz

> <i_m_Source_File_Index>
196

> <chembl_id>
CHEMBL257697

> <chembl_pref_name>
None

> <i_lp_mmshare_version>
53161

> <i_f3d_flags>
0

> <r_lp_tautomer_probability>
1

> <s_lp_Force_Field>
OPLS_2005

> <r_lp_Energy>
49.926402

> <b_lp_Chiralities_Consistent>
1

> <s_lp_Variant>
CHEMBL260_lig1233-2

> <s_i_glide_gridfile>
glide-grid_2qd9

> <i_i_glide_lignum>
1406

> <i_i_glide_rotatable_bonds>
10

> <r_i_docking_score>
-8.01039633426454

> <r_i_glide_ligand_efficiency>
-0.222511009285126

> <r_i_glide_ligand_efficiency_sa>
-0.734715163859981

> <r_i_glide_ligand_efficiency_ln>
-1.74765206423751

> <r_i_glide_gscore>
-8.01039633426454

> <r_i_glide_lipo>
-4.90615676428383

> <r_i_glide_hbond>
-0.410794954834095

> <r_i_glide_metal>
0

> <r_i_glide_rewards>
1.00913506940625

> <r_i_glide_evdw>
-40.2903633117676

> <r_i_glide_ecoul>
-15.0047836303711

> <r_i_glide_erotb>
0.623401785001863

> <r_i_glide_esite>
-0.0607457594106904

> <r_i_glide_emodel>
-64.0750219564411

> <r_i_glide_energy>
-55.2951469421387

> <r_i_glide_einternal>
13.1947574615479

> <i_i_glide_confnum>
97

> <i_i_glide_posenum>
157

> <r_i_glide_eff_state_penalty>
0

> <s_user_duplicate_titles>
CHEMBL260_lig1233

> <s_m_subgroup_title>
dock_pv

> <s_m_subgroupid>
dock_pv

> <b_m_subgroup_collapsed>
1

$$$$
CHEMBL260_lig1536
                    3D
 Schrodinger Suite 2021-1.
 48 51  0  0  1  0            999 V2000
   -3.0852    1.4046   20.0939 C   0  0  0  0  0  0
   -2.5304    0.6507   21.1513 C   0  0  0  0  0  0
   -2.0457    1.6063   22.0386 N   0  0  0  0  0  0
   -2.2884    2.7941   21.4114 C   0  0  0  0  0  0
   -2.8927    2.6970   20.2706 N   0  0  0  0  0  0
   -1.2902    1.4778   23.2985 C   0  0  0  0  0  0
   -1.4589    2.6694   24.2352 C   0  0  0  0  0  0
   -0.5481    3.7265   24.1908 C   0  0  0  0  0  0
   -0.7709    4.8659   24.9574 C   0  0  0  0  0  0
   -1.8882    4.9445   25.7974 C   0  0  0  0  0  0
   -2.7688    3.8573   25.8750 C   0  0  0  0  0  0
   -2.5600    2.7289   25.0900 C   0  0  0  0  0  0
   -3.8483    1.0353   18.8700 C   0  0  0  0  0  0
   -5.2358    0.9267   18.9582 C   0  0  0  0  0  0
   -6.0002    0.8863   17.7939 C   0  0  0  0  0  0
   -5.3667    0.8753   16.5522 C   0  0  0  0  0  0
   -3.9889    0.9145   16.4552 C   0  0  0  0  0  0
   -3.2352    0.9984   17.6121 C   0  0  0  0  0  0
   -2.3801   -0.8213   21.3405 C   0  0  0  0  0  0
   -2.0574   -1.6664   20.2763 C   0  0  0  0  0  0
   -1.7170   -2.9820   20.6021 C   0  0  0  0  0  0
   -1.7188   -3.4518   21.8753 N   0  0  0  0  0  0
   -2.0755   -2.5687   22.8356 C   0  0  0  0  0  0
   -2.4241   -1.2735   22.6199 N   0  0  0  0  0  0
   -6.0714    0.7434   15.4200 F   0  0  0  0  0  0
   -2.0338   -3.0621   24.1246 O   0  0  0  0  0  0
   -2.2701   -2.1687   25.2146 C   0  0  0  0  0  0
   -2.1528    6.2109   26.5679 C   0  0  0  0  0  0
   -2.6849    6.0811   27.7820 N   0  0  0  0  0  0
   -1.9085    7.3120   26.0822 O   0  0  0  0  0  0
   -1.9119    3.6873   21.8580 H   0  0  0  0  0  0
   -0.2397    1.3142   23.0602 H   0  0  0  0  0  0
   -1.6144    0.6079   23.8557 H   0  0  0  0  0  0
    0.3116    3.6829   23.5363 H   0  0  0  0  0  0
   -0.0702    5.6877   24.8907 H   0  0  0  0  0  0
   -3.6347    3.8903   26.5170 H   0  0  0  0  0  0
   -3.2684    1.9134   25.1295 H   0  0  0  0  0  0
   -5.7281    0.9615   19.9186 H   0  0  0  0  0  0
   -7.0751    0.8215   17.8604 H   0  0  0  0  0  0
   -3.5098    0.8832   15.4869 H   0  0  0  0  0  0
   -2.1717    1.0529   17.4760 H   0  0  0  0  0  0
   -2.0217   -1.3111   19.2575 H   0  0  0  0  0  0
   -1.4580   -3.6952   19.8340 H   0  0  0  0  0  0
   -2.1573   -2.6924   26.1607 H   0  0  0  0  0  0
   -1.5514   -1.3485   25.2200 H   0  0  0  0  0  0
   -3.2799   -1.7553   25.1805 H   0  0  0  0  0  0
   -2.8888    6.9080   28.3209 H   0  0  0  0  0  0
   -2.8149    5.1675   28.1880 H   0  0  0  0  0  0
  1 13  1  0  0  0
  1  5  1  0  0  0
  1  2  2  0  0  0
  2  3  1  0  0  0
  2 19  1  0  0  0
  3  4  1  0  0  0
  3  6  1  0  0  0
  4  5  2  0  0  0
  4 31  1  0  0  0
  6  7  1  0  0  0
  6 32  1  0  0  0
  6 33  1  0  0  0
  7  8  2  0  0  0
  7 12  1  0  0  0
  8  9  1  0  0  0
  8 34  1  0  0  0
  9 10  2  0  0  0
  9 35  1  0  0  0
 10 11  1  0  0  0
 10 28  1  0  0  0
 11 12  2  0  0  0
 11 36  1  0  0  0
 12 37  1  0  0  0
 13 18  1  0  0  0
 13 14  2  0  0  0
 14 15  1  0  0  0
 14 38  1  0  0  0
 15 16  2  0  0  0
 15 39  1  0  0  0
 16 17  1  0  0  0
 16 25  1  0  0  0
 17 18  2  0  0  0
 17 40  1  0  0  0
 18 41  1  0  0  0
 19 20  2  0  0  0
 19 24  1  0  0  0
 20 21  1  0  0  0
 20 42  1  0  0  0
 21 22  2  0  0  0
 21 43  1  0  0  0
 22 23  1  0  0  0
 23 24  2  0  0  0
 23 26  1  0  0  0
 26 27  1  0  0  0
 27 44  1  0  0  0
 27 45  1  0  0  0
 27 46  1  0  0  0
 28 29  1  0  0  0
 28 30  2  0  0  0
 29 47  1  0  0  0
 29 48  1  0  0  0
M  END
> <s_m_entry_id>
60920

> <s_m_entry_name>
dock_pv.197

> <s_m_Source_Path>
/home/csk/Desktop/cluster/DUD-E-result/mk14

> <s_m_Source_File>
dock_pv.maegz

> <i_m_Source_File_Index>
197

> <chembl_id>
CHEMBL480933

> <chembl_pref_name>
None

> <i_lp_mmshare_version>
53161

> <i_f3d_flags>
0

> <r_lp_tautomer_probability>
1

> <s_lp_Force_Field>
OPLS_2005

> <r_lp_Energy>
19.829466

> <b_lp_Chiralities_Consistent>
1

> <s_lp_Variant>
CHEMBL260_lig1536-1

> <s_i_glide_gridfile>
glide-grid_2qd9

> <i_i_glide_lignum>
1785

> <i_i_glide_rotatable_bonds>
6

> <r_i_docking_score>
-8.00807925191676

> <r_i_glide_ligand_efficiency>
-0.266935975063892

> <r_i_glide_ligand_efficiency_sa>
-0.82943213778666

> <r_i_glide_ligand_efficiency_ln>
-1.81952286104752

> <r_i_glide_gscore>
-8.00807925191676

> <r_i_glide_lipo>
-2.70044216111185

> <r_i_glide_hbond>
-0.608

> <r_i_glide_metal>
0

> <r_i_glide_rewards>
-2.35981516514859

> <r_i_glide_evdw>
-34.6699066162109

> <r_i_glide_ecoul>
-6.96659851074219

> <r_i_glide_erotb>
0.48256905867792

> <r_i_glide_esite>
-0.043905876912364

> <r_i_glide_emodel>
-38.5091515622931

> <r_i_glide_energy>
-41.6365051269531

> <r_i_glide_einternal>
12.9431161880493

> <i_i_glide_confnum>
14

> <i_i_glide_posenum>
151

> <r_i_glide_eff_state_penalty>
0

> <s_user_duplicate_titles>
CHEMBL260_lig1536,468139

> <s_m_subgroup_title>
dock_pv

> <s_m_subgroupid>
dock_pv

> <b_m_subgroup_collapsed>
1

$$$$
CHEMBL260_lig402
                    3D
 Schrodinger Suite 2021-1.
 45 48  0  0  1  0            999 V2000
   -1.8501   -2.0489   22.9912 C   0  0  0  0  0  0
   -1.9832   -1.3591   21.8198 N   0  0  0  0  0  0
   -1.0124   -1.4819   24.1222 C   0  0  0  0  0  0
   -3.0957    0.4918   19.9155 N   0  0  0  0  0  0
   -0.8198   -0.8457   26.4555 C   0  0  0  0  0  0
   -1.5561   -1.4297   25.4133 C   0  0  0  0  0  0
    0.9548    0.2138   27.3544 N   0  0  0  0  0  0
    0.4745   -0.3141   26.1720 C   0  0  0  0  0  0
    0.0454    0.0147   28.3631 C   0  0  0  0  0  0
   -2.4337   -3.1153   23.1909 O   0  0  0  0  0  0
   -1.0628   -0.6295   27.8515 C   0  0  0  0  0  0
   -1.3095   -0.0848   21.5217 C   0  0  0  0  0  0
   -2.8479   -1.8724   20.7339 C   0  0  0  0  0  0
    0.2950   -1.0256   23.9092 C   0  0  0  0  0  0
    1.0469   -0.3987   24.8992 C   0  0  0  0  0  0
   -4.0104    1.5336   19.4347 C   0  0  0  0  0  0
   -2.3347    0.9707   21.0622 C   0  0  0  0  0  0
   -3.8016   -0.7346   20.2850 C   0  0  0  0  0  0
   -4.3671    1.3144   17.9734 C   0  0  0  0  0  0
   -5.6394    0.8870   17.6057 C   0  0  0  0  0  0
   -3.3954    1.5246   16.9941 C   0  0  0  0  0  0
   -5.8930    0.5681   16.2747 C   0  0  0  0  0  0
   -3.6633    1.2497   15.6598 C   0  0  0  0  0  0
   -4.9096    0.7446   15.3108 C   0  0  0  0  0  0
   -2.5472   -1.8139   25.6082 H   0  0  0  0  0  0
    1.8479    0.6670   27.5097 H   0  0  0  0  0  0
    0.2748    0.3468   29.3670 H   0  0  0  0  0  0
   -1.9337   -0.9168   28.4215 H   0  0  0  0  0  0
   -0.7915    0.3708   22.3583 H   0  0  0  0  0  0
   -0.6044   -0.3124   20.7217 H   0  0  0  0  0  0
   -2.2399   -2.1886   19.8853 H   0  0  0  0  0  0
   -3.4506   -2.7276   21.0435 H   0  0  0  0  0  0
    0.7408   -1.1140   22.9308 H   0  0  0  0  0  0
    2.0325   -0.0186   24.6762 H   0  0  0  0  0  0
   -4.9087    1.5679   20.0549 H   0  0  0  0  0  0
   -3.5452    2.5184   19.5038 H   0  0  0  0  0  0
   -1.8161    1.8909   20.7957 H   0  0  0  0  0  0
   -3.0181    1.2047   21.8818 H   0  0  0  0  0  0
   -4.4390   -1.0777   19.4738 H   0  0  0  0  0  0
   -4.4345   -0.4704   21.1305 H   0  0  0  0  0  0
   -6.4051    0.7185   18.3498 H   0  0  0  0  0  0
   -2.4348    1.9046   17.2749 H   0  0  0  0  0  0
   -6.8345    0.1428   15.9837 H   0  0  0  0  0  0
   -2.9037    1.4031   14.9086 H   0  0  0  0  0  0
   -5.1195    0.4807   14.2853 H   0  0  0  0  0  0
  1  2  1  0  0  0
  1  3  1  0  0  0
  1 10  2  0  0  0
  2 12  1  0  0  0
  2 13  1  0  0  0
  3  6  1  0  0  0
  3 14  2  0  0  0
  4 18  1  0  0  0
  4 16  1  0  0  0
  4 17  1  0  0  0
  5  6  2  0  0  0
  5 11  1  0  0  0
  5  8  1  0  0  0
  6 25  1  0  0  0
  7  8  1  0  0  0
  7  9  1  0  0  0
  7 26  1  0  0  0
  8 15  2  0  0  0
  9 11  2  0  0  0
  9 27  1  0  0  0
 11 28  1  0  0  0
 12 17  1  0  0  0
 12 29  1  0  0  0
 12 30  1  0  0  0
 13 18  1  0  0  0
 13 31  1  0  0  0
 13 32  1  0  0  0
 14 15  1  0  0  0
 14 33  1  0  0  0
 15 34  1  0  0  0
 16 19  1  0  0  0
 16 35  1  0  0  0
 16 36  1  0  0  0
 17 37  1  0  0  0
 17 38  1  0  0  0
 18 39  1  0  0  0
 18 40  1  0  0  0
 19 20  2  0  0  0
 19 21  1  0  0  0
 20 22  1  0  0  0
 20 41  1  0  0  0
 21 23  2  0  0  0
 21 42  1  0  0  0
 22 24  2  0  0  0
 22 43  1  0  0  0
 23 24  1  0  0  0
 23 44  1  0  0  0
 24 45  1  0  0  0
M  END
> <s_m_entry_id>
60921

> <s_m_entry_name>
dock_pv.198

> <s_m_Source_Path>
/home/csk/Desktop/cluster/DUD-E-result/mk14

> <s_m_Source_File>
dock_pv.maegz

> <i_m_Source_File_Index>
198

> <chembl_id>
CHEMBL320069

> <chembl_pref_name>
None

> <i_lp_mmshare_version>
53161

> <i_f3d_flags>
0

> <r_lp_tautomer_probability>
1

> <s_lp_Force_Field>
OPLS_2005

> <r_lp_Energy>
47.587187

> <b_lp_Chiralities_Consistent>
1

> <s_lp_Variant>
CHEMBL260_lig402-1

> <s_i_glide_gridfile>
glide-grid_2qd9

> <i_i_glide_lignum>
469

> <i_i_glide_rotatable_bonds>
4

> <r_i_docking_score>
-8.00713252426489

> <r_i_glide_ligand_efficiency>
-0.33363052184437

> <r_i_glide_ligand_efficiency_sa>
-0.962356952523485

> <r_i_glide_ligand_efficiency_ln>
-1.9164742364265

> <r_i_glide_gscore>
-8.00713252426489

> <r_i_glide_lipo>
-3.65291309922294

> <r_i_glide_hbond>
-0.350069271237204

> <r_i_glide_metal>
0

> <r_i_glide_rewards>
-2.00975804811

> <r_i_glide_evdw>
-38.0446662902832

> <r_i_glide_ecoul>
-5.49159574508667

> <r_i_glide_erotb>
0.731580570582417

> <r_i_glide_esite>
0

> <r_i_glide_emodel>
-62.1076550106451

> <r_i_glide_energy>
-43.5362620353699

> <r_i_glide_einternal>
3.71632623672485

> <i_i_glide_confnum>
44

> <i_i_glide_posenum>
390

> <r_i_glide_eff_state_penalty>
0

> <s_user_duplicate_titles>
CHEMBL260_lig402

> <s_m_subgroup_title>
dock_pv

> <s_m_subgroupid>
dock_pv

> <b_m_subgroup_collapsed>
1

$$$$
CHEMBL260_lig1660
                    3D
 Schrodinger Suite 2021-1.
 44 47  0  0  1  0            999 V2000
   -2.5809   -1.1880   21.0864 N   0  0  0  0  0  0
   -2.0665   -1.9478   22.1090 C   0  0  0  0  0  0
   -1.4957   -1.1861   23.2075 C   0  0  0  0  0  0
   -1.4475    0.1675   23.2893 C   0  0  0  0  0  0
   -2.5810    0.2139   21.1278 C   0  0  0  0  0  0
   -2.0330    0.9286   22.1848 C   0  0  0  0  0  0
   -2.2197    2.2693   21.8421 C   0  0  0  0  0  0
   -2.8183    2.4085   20.6768 N   0  0  0  0  0  0
   -3.0693    1.1624   20.2365 N   0  0  0  0  0  0
   -3.0348   -1.8630   19.8762 C   0  0  0  0  0  0
   -2.0421   -3.1805   22.1492 O   0  0  0  0  0  0
   -0.8483    0.8653   24.3184 N   0  0  0  0  0  0
   -3.9202    1.0272   19.1161 C   0  0  0  0  0  0
   -5.2617    0.6849   19.3186 C   0  0  0  0  0  0
   -6.1344    0.5996   18.2346 C   0  0  0  0  0  0
   -5.6822    0.8871   16.9463 C   0  0  0  0  0  0
   -4.3484    1.2281   16.7356 C   0  0  0  0  0  0
   -3.4680    1.2881   17.8141 C   0  0  0  0  0  0
   -3.9077    1.4922   15.4865 F   0  0  0  0  0  0
   -0.1979    0.3025   25.5014 C   0  0  0  0  0  0
    0.5554    1.4329   26.2331 C   0  0  0  0  0  0
    1.0850    0.9488   27.5999 C   0  0  0  0  0  0
    0.0028    0.4485   28.3817 O   0  0  0  0  0  0
   -0.6568   -0.6786   27.8040 C   0  0  0  0  0  0
   -1.2752   -0.2761   26.4521 C   0  0  0  0  0  0
   -1.0442   -1.7769   23.9879 H   0  0  0  0  0  0
   -1.9113    3.1204   22.4305 H   0  0  0  0  0  0
   -3.0680   -2.9481   19.9713 H   0  0  0  0  0  0
   -4.0346   -1.5156   19.6286 H   0  0  0  0  0  0
   -2.3733   -1.6189   19.0450 H   0  0  0  0  0  0
   -0.3469    1.6857   24.0089 H   0  0  0  0  0  0
   -5.6334    0.4875   20.3116 H   0  0  0  0  0  0
   -7.1682    0.3243   18.3901 H   0  0  0  0  0  0
   -6.3655    0.8324   16.1113 H   0  0  0  0  0  0
   -2.4418    1.5464   17.6023 H   0  0  0  0  0  0
    0.5001   -0.4767   25.1897 H   0  0  0  0  0  0
    1.3935    1.7819   25.6279 H   0  0  0  0  0  0
   -0.0994    2.2931   26.3887 H   0  0  0  0  0  0
    1.8557    0.1824   27.4819 H   0  0  0  0  0  0
    1.5530    1.7756   28.1356 H   0  0  0  0  0  0
    0.0382   -1.5118   27.6826 H   0  0  0  0  0  0
   -1.4306   -1.0203   28.4935 H   0  0  0  0  0  0
   -2.0654    0.4589   26.6258 H   0  0  0  0  0  0
   -1.7628   -1.1476   26.0164 H   0  0  0  0  0  0
  1  5  1  0  0  0
  1  2  1  0  0  0
  1 10  1  0  0  0
  2  3  1  0  0  0
  2 11  2  0  0  0
  3  4  2  0  0  0
  3 26  1  0  0  0
  4 12  1  0  0  0
  4  6  1  0  0  0
  5  9  1  0  0  0
  5  6  2  0  0  0
  6  7  1  0  0  0
  7  8  2  0  0  0
  7 27  1  0  0  0
  8  9  1  0  0  0
  9 13  1  0  0  0
 10 28  1  0  0  0
 10 29  1  0  0  0
 10 30  1  0  0  0
 12 20  1  0  0  0
 12 31  1  0  0  0
 13 14  2  0  0  0
 13 18  1  0  0  0
 14 15  1  0  0  0
 14 32  1  0  0  0
 15 16  2  0  0  0
 15 33  1  0  0  0
 16 17  1  0  0  0
 16 34  1  0  0  0
 17 18  2  0  0  0
 17 19  1  0  0  0
 18 35  1  0  0  0
 20 21  1  0  0  0
 20 25  1  0  0  0
 20 36  1  0  0  0
 21 22  1  0  0  0
 21 37  1  0  0  0
 21 38  1  0  0  0
 22 23  1  0  0  0
 22 39  1  0  0  0
 22 40  1  0  0  0
 23 24  1  0  0  0
 24 25  1  0  0  0
 24 41  1  0  0  0
 24 42  1  0  0  0
 25 43  1  0  0  0
 25 44  1  0  0  0
M  END
> <s_m_entry_id>
60922

> <s_m_entry_name>
dock_pv.199

> <s_m_Source_Path>
/home/csk/Desktop/cluster/DUD-E-result/mk14

> <s_m_Source_File>
dock_pv.maegz

> <i_m_Source_File_Index>
199

> <chembl_id>
CHEMBL556212

> <chembl_pref_name>
None

> <i_lp_mmshare_version>
53161

> <i_f3d_flags>
0

> <r_lp_tautomer_probability>
1

> <s_lp_Force_Field>
OPLS_2005

> <r_lp_Energy>
35.924567

> <b_lp_Chiralities_Consistent>
1

> <s_lp_Variant>
CHEMBL260_lig1660-1

> <s_i_glide_gridfile>
glide-grid_2qd9

> <i_i_glide_lignum>
1912

> <i_i_glide_rotatable_bonds>
3

> <r_i_docking_score>
-8.00343223348459

> <r_i_glide_ligand_efficiency>
-0.320137289339384

> <r_i_glide_ligand_efficiency_sa>
-0.93608711168736

> <r_i_glide_ligand_efficiency_ln>
-1.8970532828457

> <r_i_glide_gscore>
-8.00343223348459

> <r_i_glide_lipo>
-2.58019147480085

> <r_i_glide_hbond>
-0.32

> <r_i_glide_metal>
0

> <r_i_glide_rewards>
-3.14791046581322

> <r_i_glide_evdw>
-34.9038238525391

> <r_i_glide_ecoul>
-4.63627099990845

> <r_i_glide_erotb>
0.485301549742697

> <r_i_glide_esite>
0

> <r_i_glide_emodel>
-52.6740794822727

> <r_i_glide_energy>
-39.5400948524475

> <r_i_glide_einternal>
6.59971475601196

> <i_i_glide_confnum>
25

> <i_i_glide_posenum>
82

> <r_i_glide_eff_state_penalty>
0

> <s_user_duplicate_titles>
CHEMBL260_lig1660

> <s_m_subgroup_title>
dock_pv

> <s_m_subgroupid>
dock_pv

> <b_m_subgroup_collapsed>
1

$$$$
CHEMBL260_lig181
                    3D
 Schrodinger Suite 2021-1.
 55 59  0  0  1  0            999 V2000
   -2.6317    1.2047   21.1327 C   0  0  0  0  0  0
   -2.0674    2.1079   22.0296 N   0  0  0  0  0  0
   -2.6195    3.2461   20.1618 N   0  0  0  0  0  0
   -3.0113    1.9938   20.0226 C   0  0  0  0  0  0
   -2.0350    3.2826   21.3231 C   0  0  0  0  0  0
   -2.6782   -0.2890   21.2926 C   0  0  0  0  0  0
   -2.6185   -0.8382   22.5395 N   0  0  0  0  0  0
   -2.4340   -2.1883   22.6083 C   0  0  0  0  0  0
   -3.7715    1.6069   18.7912 C   0  0  0  0  0  0
   -1.5635    1.9092   23.4119 C   0  0  2  0  0  0
   -2.3467   -3.0278   21.5511 N   0  0  0  0  0  0
   -2.2640   -2.8097   23.8268 O   0  0  0  0  0  0
   -2.6002   -1.0861   20.1460 C   0  0  0  0  0  0
   -3.2400    1.7288   17.4959 C   0  0  0  0  0  0
   -5.0784    1.1488   18.9502 C   0  0  0  0  0  0
   -2.7282    2.2755   24.3637 C   0  0  0  0  0  0
   -0.3031    2.7636   23.7195 C   0  0  0  0  0  0
   -2.4347   -2.4532   20.3267 C   0  0  0  0  0  0
   -5.3073    0.9557   16.5554 C   0  0  0  0  0  0
   -1.8895   -2.1137   24.9504 C   0  0  0  0  0  0
   -3.9981    1.3832   16.3827 C   0  0  0  0  0  0
   -5.8628    0.8837   17.8299 C   0  0  0  0  0  0
   -6.0350    0.5949   15.4768 F   0  0  0  0  0  0
   -2.3241    2.2219   25.8484 C   0  0  0  0  0  0
    0.1321    2.6058   25.1877 C   0  0  0  0  0  0
   -1.0050    2.9582   26.1707 C   0  0  2  0  0  0
   -0.6136    2.6749   27.4969 O   0  0  0  0  0  0
   -2.8116   -1.9128   25.9771 C   0  0  0  0  0  0
   -0.5635   -1.7048   25.1006 C   0  0  0  0  0  0
   -0.1568   -1.1078   26.2894 C   0  0  0  0  0  0
   -2.4012   -1.3277   27.1722 C   0  0  0  0  0  0
   -1.0732   -0.9312   27.3244 C   0  0  0  0  0  0
   -1.4461    4.0869   21.7077 H   0  0  0  0  0  0
   -1.2682    0.8679   23.4834 H   0  0  0  0  0  0
   -2.6064   -0.6727   19.1503 H   0  0  0  0  0  0
   -2.2682    2.1473   17.3074 H   0  0  0  0  0  0
   -5.5065    1.0462   19.9376 H   0  0  0  0  0  0
   -3.1701    3.2388   24.1047 H   0  0  0  0  0  0
   -3.5245    1.5391   24.2371 H   0  0  0  0  0  0
    0.5263    2.4060   23.1061 H   0  0  0  0  0  0
   -0.4264    3.8204   23.4891 H   0  0  0  0  0  0
   -2.3636   -3.1131   19.4759 H   0  0  0  0  0  0
   -3.5826    1.4697   15.3886 H   0  0  0  0  0  0
   -6.8805    0.5437   17.9483 H   0  0  0  0  0  0
   -2.2241    1.1796   26.1358 H   0  0  0  0  0  0
   -3.1311    2.6224   26.4630 H   0  0  0  0  0  0
    0.4632    1.5808   25.3603 H   0  0  0  0  0  0
    1.0024    3.2371   25.3786 H   0  0  0  0  0  0
   -1.1919    4.0327   26.1369 H   0  0  0  0  0  0
    0.3274    2.8507   27.5880 H   0  0  0  0  0  0
   -3.8319   -2.2410   25.8591 H   0  0  0  0  0  0
    0.1521   -1.8767   24.3104 H   0  0  0  0  0  0
    0.8690   -0.7942   26.4170 H   0  0  0  0  0  0
   -3.1053   -1.1860   27.9795 H   0  0  0  0  0  0
   -0.7509   -0.4749   28.2496 H   0  0  0  0  0  0
  1  2  1  0  0  0
  1  4  2  0  0  0
  1  6  1  0  0  0
  2  5  1  0  0  0
  2 10  1  0  0  0
  3  4  1  0  0  0
  3  5  2  0  0  0
  4  9  1  0  0  0
  5 33  1  0  0  0
  6  7  2  0  0  0
  6 13  1  0  0  0
  7  8  1  0  0  0
  8 12  1  0  0  0
  8 11  2  0  0  0
  9 14  2  0  0  0
  9 15  1  0  0  0
 10 16  1  0  0  0
 10 17  1  0  0  0
 10 34  1  0  0  0
 11 18  1  0  0  0
 12 20  1  0  0  0
 13 18  2  0  0  0
 13 35  1  0  0  0
 14 21  1  0  0  0
 14 36  1  0  0  0
 15 22  2  0  0  0
 15 37  1  0  0  0
 16 24  1  0  0  0
 16 38  1  0  0  0
 16 39  1  0  0  0
 17 25  1  0  0  0
 17 40  1  0  0  0
 17 41  1  0  0  0
 18 42  1  0  0  0
 19 22  1  0  0  0
 19 23  1  0  0  0
 19 21  2  0  0  0
 20 28  2  0  0  0
 20 29  1  0  0  0
 21 43  1  0  0  0
 22 44  1  0  0  0
 24 26  1  0  0  0
 24 45  1  0  0  0
 24 46  1  0  0  0
 25 26  1  0  0  0
 25 47  1  0  0  0
 25 48  1  0  0  0
 26 27  1  0  0  0
 26 49  1  0  0  0
 27 50  1  0  0  0
 28 31  1  0  0  0
 28 51  1  0  0  0
 29 30  2  0  0  0
 29 52  1  0  0  0
 30 32  1  0  0  0
 30 53  1  0  0  0
 31 32  2  0  0  0
 31 54  1  0  0  0
 32 55  1  0  0  0
M  END
> <s_m_entry_id>
60923

> <s_m_entry_name>
dock_pv.200

> <s_m_Source_Path>
/home/csk/Desktop/cluster/DUD-E-result/mk14

> <s_m_Source_File>
dock_pv.maegz

> <i_m_Source_File_Index>
200

> <chembl_id>
CHEMBL329080

> <chembl_pref_name>
None

> <i_lp_mmshare_version>
53161

> <i_f3d_flags>
0

> <r_lp_tautomer_probability>
1

> <s_lp_Force_Field>
OPLS_2005

> <r_lp_Energy>
31.921843

> <b_lp_Chiralities_Consistent>
1

> <s_lp_Variant>
CHEMBL260_lig181-1

> <s_i_glide_gridfile>
glide-grid_2qd9

> <i_i_glide_lignum>
198

> <i_i_glide_rotatable_bonds>
6

> <r_i_docking_score>
-8.00272584666722

> <r_i_glide_ligand_efficiency>
-0.250085182708351

> <r_i_glide_ligand_efficiency_sa>
-0.793970963308559

> <r_i_glide_ligand_efficiency_ln>
-1.7920284631364

> <r_i_glide_gscore>
-8.00272584666722

> <r_i_glide_lipo>
-3.39356800209611

> <r_i_glide_hbond>
-0.249332573982374

> <r_i_glide_metal>
0

> <r_i_glide_rewards>
-2.23646572266201

> <r_i_glide_evdw>
-39.4208068847656

> <r_i_glide_ecoul>
-4.31325674057007

> <r_i_glide_erotb>
0.536444547349832

> <r_i_glide_esite>
-0.0417752399527688

> <r_i_glide_emodel>
-56.7537145666548

> <r_i_glide_energy>
-43.7340636253357

> <r_i_glide_einternal>
5.92333555221558

> <i_i_glide_confnum>
14

> <i_i_glide_posenum>
179

> <r_i_glide_eff_state_penalty>
0

> <s_user_duplicate_titles>
CHEMBL260_lig181

> <s_m_subgroup_title>
dock_pv

> <s_m_subgroupid>
dock_pv

> <b_m_subgroup_collapsed>
1

$$$$
CHEMBL260_lig271
                    3D
 Schrodinger Suite 2021-1.
 44 46  0  0  1  0            999 V2000
   -1.6995   -1.8333   23.7590 C   0  0  0  0  0  0
   -2.0714   -0.9553   22.5811 C   0  0  0  0  0  0
   -1.1521   -1.2065   25.0034 C   0  0  0  0  0  0
   -2.4022   -1.4687   21.3030 C   0  0  0  0  0  0
   -3.2386    1.6564   19.4685 N   0  0  0  0  0  0
   -3.8923    1.3969   18.2481 C   0  0  0  0  0  0
   -2.1527    0.4369   22.7673 C   0  0  0  0  0  0
   -2.8959    0.7690   20.4954 C   0  0  0  0  0  0
   -2.8355   -0.6073   20.2898 C   0  0  0  0  0  0
   -1.8937   -3.0524   23.7523 O   0  0  0  0  0  0
   -5.2046    0.8871   18.1684 C   0  0  0  0  0  0
   -1.8169   -1.2768   26.2478 C   0  0  0  0  0  0
   -2.5331    1.2870   21.7328 C   0  0  0  0  0  0
   -5.9254    0.4875   19.2959 N   0  0  0  0  0  0
    0.0760   -0.5338   24.9216 C   0  0  0  0  0  0
   -2.2689   -2.9385   20.9405 C   0  0  0  0  0  0
   -3.2349    1.7476   17.0640 C   0  0  0  0  0  0
   -3.1899   -1.9190   26.4072 C   0  0  0  0  0  0
   -5.8319    0.7840   16.9248 C   0  0  0  0  0  0
   -1.2222   -0.7086   27.3797 C   0  0  0  0  0  0
    0.6339    0.0605   26.0510 C   0  0  0  0  0  0
   -3.8524    1.5968   15.8274 C   0  0  0  0  0  0
   -5.1562    1.1207   15.7557 C   0  0  0  0  0  0
   -0.0035   -0.0416   27.2830 C   0  0  0  0  0  0
   -2.6566    2.4794   19.4610 H   0  0  0  0  0  0
   -1.9234    0.8939   23.7194 H   0  0  0  0  0  0
   -3.0838   -1.0066   19.3177 H   0  0  0  0  0  0
   -2.5604    2.3521   21.9067 H   0  0  0  0  0  0
   -6.7562   -0.0722   19.1533 H   0  0  0  0  0  0
   -5.4219    0.4519   20.1707 H   0  0  0  0  0  0
    0.6071   -0.4589   23.9822 H   0  0  0  0  0  0
   -2.3859   -3.1130   19.8704 H   0  0  0  0  0  0
   -1.2849   -3.3181   21.2170 H   0  0  0  0  0  0
   -3.0214   -3.5128   21.4758 H   0  0  0  0  0  0
   -2.2336    2.1503   17.0761 H   0  0  0  0  0  0
   -3.2350   -2.8667   25.8760 H   0  0  0  0  0  0
   -3.4262   -2.1305   27.4510 H   0  0  0  0  0  0
   -3.9617   -1.2716   25.9911 H   0  0  0  0  0  0
   -6.8350    0.3913   16.8612 H   0  0  0  0  0  0
   -1.7116   -0.7662   28.3411 H   0  0  0  0  0  0
    1.5648    0.5990   25.9746 H   0  0  0  0  0  0
   -3.3177    1.8583   14.9271 H   0  0  0  0  0  0
   -5.6345    1.0048   14.7949 H   0  0  0  0  0  0
    0.4451    0.4039   28.1596 H   0  0  0  0  0  0
  1  2  1  0  0  0
  1  3  1  0  0  0
  1 10  2  0  0  0
  2  4  1  0  0  0
  2  7  2  0  0  0
  3 12  2  0  0  0
  3 15  1  0  0  0
  4  9  2  0  0  0
  4 16  1  0  0  0
  5  8  1  0  0  0
  5  6  1  0  0  0
  5 25  1  0  0  0
  6 11  2  0  0  0
  6 17  1  0  0  0
  7 13  1  0  0  0
  7 26  1  0  0  0
  8 13  2  0  0  0
  8  9  1  0  0  0
  9 27  1  0  0  0
 11 14  1  0  0  0
 11 19  1  0  0  0
 12 18  1  0  0  0
 12 20  1  0  0  0
 13 28  1  0  0  0
 14 29  1  0  0  0
 14 30  1  0  0  0
 15 21  2  0  0  0
 15 31  1  0  0  0
 16 32  1  0  0  0
 16 33  1  0  0  0
 16 34  1  0  0  0
 17 22  2  0  0  0
 17 35  1  0  0  0
 18 36  1  0  0  0
 18 37  1  0  0  0
 18 38  1  0  0  0
 19 23  2  0  0  0
 19 39  1  0  0  0
 20 24  2  0  0  0
 20 40  1  0  0  0
 21 24  1  0  0  0
 21 41  1  0  0  0
 22 23  1  0  0  0
 22 42  1  0  0  0
 23 43  1  0  0  0
 24 44  1  0  0  0
M  END
> <s_m_entry_id>
60924

> <s_m_entry_name>
dock_pv.201

> <s_m_Source_Path>
/home/csk/Desktop/cluster/DUD-E-result/mk14

> <s_m_Source_File>
dock_pv.maegz

> <i_m_Source_File_Index>
201

> <chembl_id>
CHEMBL152820

> <chembl_pref_name>
None

> <i_lp_mmshare_version>
53161

> <i_f3d_flags>
0

> <r_lp_tautomer_probability>
1

> <s_lp_Force_Field>
OPLS_2005

> <r_lp_Energy>
32.154537

> <b_lp_Chiralities_Consistent>
1

> <s_lp_Variant>
CHEMBL260_lig271-1

> <s_i_glide_gridfile>
glide-grid_2qd9

> <i_i_glide_lignum>
322

> <i_i_glide_rotatable_bonds>
4

> <r_i_docking_score>
-8.00086192966287

> <r_i_glide_ligand_efficiency>
-0.333369247069286

> <r_i_glide_ligand_efficiency_sa>
-0.961603305660089

> <r_i_glide_ligand_efficiency_ln>
-1.9149733953994

> <r_i_glide_gscore>
-8.00086192966287

> <r_i_glide_lipo>
-3.75501169521328

> <r_i_glide_hbond>
-0.51738119718792

> <r_i_glide_metal>
0

> <r_i_glide_rewards>
-1.63945303696512

> <r_i_glide_evdw>
-41.2759895324707

> <r_i_glide_ecoul>
-5.12713813781738

> <r_i_glide_erotb>
0.743854196999598

> <r_i_glide_esite>
0

> <r_i_glide_emodel>
-59.1404822740546

> <r_i_glide_energy>
-46.4031276702881

> <r_i_glide_einternal>
14.3898038864136

> <i_i_glide_confnum>
2

> <i_i_glide_posenum>
271

> <r_i_glide_eff_state_penalty>
0

> <s_user_duplicate_titles>
CHEMBL260_lig271,254843

> <s_m_subgroup_title>
dock_pv

> <s_m_subgroupid>
dock_pv

> <b_m_subgroup_collapsed>
1

$$$$
CHEMBL260_lig137
                    3D
 Schrodinger Suite 2021-1.
 42 45  0  0  1  0            999 V2000
   -1.5830   -1.2960   23.5851 N   0  0  0  0  0  0
   -1.7542   -2.5800   23.1613 C   0  0  0  0  0  0
   -1.8078   -0.1743   22.7711 C   0  0  0  0  0  0
   -2.0224   -0.3941   21.4054 C   0  0  0  0  0  0
   -2.3462    0.5968   20.5759 N   0  0  0  0  0  0
   -1.6682   -2.7978   21.8309 N   0  0  0  0  0  0
   -1.2405   -1.0883   24.9432 C   0  0  0  0  0  0
   -2.4350    1.8504   21.0538 C   0  0  0  0  0  0
   -2.8350    3.0664   19.8760 S   0  0  0  0  0  0
   -3.6447    2.0870   18.6032 C   0  0  0  0  0  0
   -3.2350    2.0725   17.2486 C   0  0  0  0  0  0
   -1.8909    1.1432   23.2610 C   0  0  0  0  0  0
   -1.9222   -1.7838   20.8106 C   0  0  0  0  0  0
   -4.0298    1.4547   16.2815 C   0  0  0  0  0  0
   -2.0350   -3.5130   23.8760 O   0  0  0  0  0  0
    0.0767   -0.7509   25.3125 C   0  0  0  0  0  0
   -4.8350    1.4401   18.9507 C   0  0  0  0  0  0
   -2.1981    2.1814   22.3851 C   0  0  0  0  0  0
   -5.2477    0.8870   16.6345 C   0  0  0  0  0  0
   -1.8425    2.9131   16.6760 Cl  0  0  0  0  0  0
   -5.6498    0.8870   17.9668 C   0  0  0  0  0  0
   -6.0327    0.3264   15.6878 F   0  0  0  0  0  0
   -2.2405   -1.1726   25.9241 C   0  0  0  0  0  0
    1.1998   -0.6691   24.2843 C   0  0  0  0  0  0
    0.3650   -0.5040   26.6586 C   0  0  0  0  0  0
   -1.9322   -0.9400   27.2631 C   0  0  0  0  0  0
   -0.6303   -0.6048   27.6296 C   0  0  0  0  0  0
   -1.6458   -3.7580   21.5239 H   0  0  0  0  0  0
   -1.7309    1.3691   24.3054 H   0  0  0  0  0  0
   -1.1155   -1.8149   20.0764 H   0  0  0  0  0  0
   -2.8452   -2.0409   20.2873 H   0  0  0  0  0  0
   -3.7279    1.4605   15.2439 H   0  0  0  0  0  0
   -5.1761    1.4417   19.9762 H   0  0  0  0  0  0
   -2.2616    3.2008   22.7330 H   0  0  0  0  0  0
   -6.5937    0.4338   18.2357 H   0  0  0  0  0  0
   -3.2543   -1.4261   25.6486 H   0  0  0  0  0  0
    1.1202    0.2472   23.6989 H   0  0  0  0  0  0
    2.1862   -0.7130   24.7448 H   0  0  0  0  0  0
    1.1469   -1.5129   23.5970 H   0  0  0  0  0  0
    1.3706   -0.2484   26.9631 H   0  0  0  0  0  0
   -2.7008   -1.0202   28.0177 H   0  0  0  0  0  0
   -0.3875   -0.4275   28.6675 H   0  0  0  0  0  0
  1  2  1  0  0  0
  1  3  1  0  0  0
  1  7  1  0  0  0
  2  6  1  0  0  0
  2 15  2  0  0  0
  3  4  2  0  0  0
  3 12  1  0  0  0
  4  5  1  0  0  0
  4 13  1  0  0  0
  5  8  2  0  0  0
  6 13  1  0  0  0
  6 28  1  0  0  0
  7 16  1  0  0  0
  7 23  2  0  0  0
  8 18  1  0  0  0
  8  9  1  0  0  0
  9 10  1  0  0  0
 10 11  2  0  0  0
 10 17  1  0  0  0
 11 14  1  0  0  0
 11 20  1  0  0  0
 12 18  2  0  0  0
 12 29  1  0  0  0
 13 30  1  0  0  0
 13 31  1  0  0  0
 14 19  2  0  0  0
 14 32  1  0  0  0
 16 24  1  0  0  0
 16 25  2  0  0  0
 17 21  2  0  0  0
 17 33  1  0  0  0
 18 34  1  0  0  0
 19 21  1  0  0  0
 19 22  1  0  0  0
 21 35  1  0  0  0
 23 26  1  0  0  0
 23 36  1  0  0  0
 24 37  1  0  0  0
 24 38  1  0  0  0
 24 39  1  0  0  0
 25 27  1  0  0  0
 25 40  1  0  0  0
 26 27  2  0  0  0
 26 41  1  0  0  0
 27 42  1  0  0  0
M  END
> <s_m_entry_id>
60925

> <s_m_entry_name>
dock_pv.202

> <s_m_Source_Path>
/home/csk/Desktop/cluster/DUD-E-result/mk14

> <s_m_Source_File>
dock_pv.maegz

> <i_m_Source_File_Index>
202

> <chembl_id>
CHEMBL128516

> <chembl_pref_name>
None

> <i_lp_mmshare_version>
53161

> <i_f3d_flags>
0

> <r_lp_tautomer_probability>
1

> <s_lp_Force_Field>
OPLS_2005

> <r_lp_Energy>
41.277239

> <b_lp_Chiralities_Consistent>
1

> <s_lp_Variant>
CHEMBL260_lig137-1

> <s_i_glide_gridfile>
glide-grid_2qd9

> <i_i_glide_lignum>
154

> <i_i_glide_rotatable_bonds>
3

> <r_i_docking_score>
-7.9949345317065

> <r_i_glide_ligand_efficiency>
-0.2961086863595

> <r_i_glide_ligand_efficiency_sa>
-0.888326058102574

> <r_i_glide_ligand_efficiency_ln>
-1.86108895218426

> <r_i_glide_gscore>
-7.9949345317065

> <r_i_glide_lipo>
-3.18080488235709

> <r_i_glide_hbond>
-0.502834362797427

> <r_i_glide_metal>
0

> <r_i_glide_rewards>
-1.87163933940435

> <r_i_glide_evdw>
-31.7213497161865

> <r_i_glide_ecoul>
-8.14202690124512

> <r_i_glide_erotb>
0.367715573848463

> <r_i_glide_esite>
0

> <r_i_glide_emodel>
-50.5155283806077

> <r_i_glide_energy>
-39.8633766174316

> <r_i_glide_einternal>
0.468883126974106

> <i_i_glide_confnum>
7

> <i_i_glide_posenum>
301

> <r_i_glide_eff_state_penalty>
0

> <s_user_duplicate_titles>
CHEMBL260_lig137,213753

> <s_m_subgroup_title>
dock_pv

> <s_m_subgroupid>
dock_pv

> <b_m_subgroup_collapsed>
1

$$$$
CHEMBL260_lig1772
                    3D
 Schrodinger Suite 2021-1.
 52 55  0  0  1  0            999 V2000
   -2.3929   -2.6390   21.0822 C   0  0  0  0  0  0
   -2.3850   -3.0529   22.3767 N   0  0  0  0  0  0
   -2.4523   -2.1109   23.3505 C   0  0  0  0  0  0
   -2.5982   -0.7565   23.0450 C   0  0  0  0  0  0
   -2.6008   -0.3294   21.7130 C   0  0  0  0  0  0
   -2.5024   -1.2983   20.7098 C   0  0  0  0  0  0
   -2.5854    1.1305   21.3956 C   0  0  0  0  0  0
   -2.0363    2.1352   22.1997 C   0  0  0  0  0  0
   -2.0682    3.2871   21.5059 O   0  0  0  0  0  0
   -2.6791    3.0931   20.2785 N   0  0  0  0  0  0
   -3.0471    1.8346   20.2503 C   0  0  0  0  0  0
   -3.8470    1.4185   19.0529 C   0  0  0  0  0  0
   -5.1300    0.8832   19.2059 C   0  0  0  0  0  0
   -4.1306    1.4000   16.6410 C   0  0  0  0  0  0
   -3.3702    1.6868   17.7599 C   0  0  0  0  0  0
   -5.4028    0.8865   16.8049 C   0  0  0  0  0  0
   -5.9210    0.6410   18.0802 C   0  0  0  0  0  0
   -1.4182    2.2413   23.5944 C   0  0  0  0  0  0
   -2.4757    2.6788   24.6252 C   0  0  0  0  0  0
   -0.1829    3.1632   23.6521 C   0  0  0  0  0  0
   -2.4203   -2.5907   24.6717 N   0  0  0  0  0  0
   -1.8315   -1.9135   25.8331 C   0  0  0  0  0  0
   -6.0893    0.5453   15.6986 F   0  0  0  0  0  0
   -0.4506   -1.2913   25.5166 C   0  0  0  0  0  0
    0.0488   -0.4218   26.6843 C   0  0  0  0  0  0
   -0.9652    0.5142   27.0475 O   0  0  0  0  0  0
   -2.1378   -0.0962   27.5811 C   0  0  0  0  0  0
   -2.8318   -0.9398   26.4940 C   0  0  0  0  0  0
   -2.2711   -3.4049   20.3321 H   0  0  0  0  0  0
   -2.6996   -0.0411   23.8339 H   0  0  0  0  0  0
   -2.4710   -1.0197   19.6664 H   0  0  0  0  0  0
   -5.5270    0.6860   20.1914 H   0  0  0  0  0  0
   -3.7463    1.5920   15.6499 H   0  0  0  0  0  0
   -2.4339    2.1768   17.5809 H   0  0  0  0  0  0
   -6.9084    0.2138   18.1866 H   0  0  0  0  0  0
   -1.0425    1.2698   23.8975 H   0  0  0  0  0  0
   -3.3376    2.0127   24.6300 H   0  0  0  0  0  0
   -2.0630    2.6833   25.6351 H   0  0  0  0  0  0
   -2.8414    3.6840   24.4178 H   0  0  0  0  0  0
    0.6474    2.7542   23.0783 H   0  0  0  0  0  0
   -0.3965    4.1629   23.2722 H   0  0  0  0  0  0
    0.1768    3.2755   24.6771 H   0  0  0  0  0  0
   -2.7967   -3.5110   24.8237 H   0  0  0  0  0  0
   -1.6822   -2.7019   26.5694 H   0  0  0  0  0  0
    0.2746   -2.0832   25.3267 H   0  0  0  0  0  0
   -0.4642   -0.6933   24.6108 H   0  0  0  0  0  0
    0.3241   -1.0405   27.5416 H   0  0  0  0  0  0
    0.9486    0.1242   26.3969 H   0  0  0  0  0  0
   -1.8848   -0.7075   28.4496 H   0  0  0  0  0  0
   -2.8063    0.6873   27.9392 H   0  0  0  0  0  0
   -3.3073   -0.2737   25.7804 H   0  0  0  0  0  0
   -3.6452   -1.5075   26.9469 H   0  0  0  0  0  0
  1  6  1  0  0  0
  1  2  2  0  0  0
  1 29  1  0  0  0
  2  3  1  0  0  0
  3  4  2  0  0  0
  3 21  1  0  0  0
  4  5  1  0  0  0
  4 30  1  0  0  0
  5  6  2  0  0  0
  5  7  1  0  0  0
  6 31  1  0  0  0
  7 11  1  0  0  0
  7  8  2  0  0  0
  8 18  1  0  0  0
  8  9  1  0  0  0
  9 10  1  0  0  0
 10 11  2  0  0  0
 11 12  1  0  0  0
 12 13  2  0  0  0
 12 15  1  0  0  0
 13 17  1  0  0  0
 13 32  1  0  0  0
 14 16  1  0  0  0
 14 15  2  0  0  0
 14 33  1  0  0  0
 15 34  1  0  0  0
 16 17  2  0  0  0
 16 23  1  0  0  0
 17 35  1  0  0  0
 18 19  1  0  0  0
 18 20  1  0  0  0
 18 36  1  0  0  0
 19 37  1  0  0  0
 19 38  1  0  0  0
 19 39  1  0  0  0
 20 40  1  0  0  0
 20 41  1  0  0  0
 20 42  1  0  0  0
 21 22  1  0  0  0
 21 43  1  0  0  0
 22 24  1  0  0  0
 22 28  1  0  0  0
 22 44  1  0  0  0
 24 25  1  0  0  0
 24 45  1  0  0  0
 24 46  1  0  0  0
 25 26  1  0  0  0
 25 47  1  0  0  0
 25 48  1  0  0  0
 26 27  1  0  0  0
 27 28  1  0  0  0
 27 49  1  0  0  0
 27 50  1  0  0  0
 28 51  1  0  0  0
 28 52  1  0  0  0
M  END
> <s_m_entry_id>
60926

> <s_m_entry_name>
dock_pv.203

> <s_m_Source_Path>
/home/csk/Desktop/cluster/DUD-E-result/mk14

> <s_m_Source_File>
dock_pv.maegz

> <i_m_Source_File_Index>
203

> <chembl_id>
CHEMBL569552

> <chembl_pref_name>
None

> <i_lp_mmshare_version>
53161

> <i_f3d_flags>
0

> <r_lp_tautomer_probability>
0.999999772200052

> <s_lp_Force_Field>
OPLS_2005

> <r_lp_Energy>
19.271083

> <b_lp_Chiralities_Consistent>
1

> <s_lp_Variant>
CHEMBL260_lig1772-1

> <s_i_glide_gridfile>
glide-grid_2qd9

> <i_i_glide_lignum>
2066

> <i_i_glide_rotatable_bonds>
5

> <r_i_docking_score>
-7.99404805886692

> <r_i_glide_ligand_efficiency>
-0.285501716388104

> <r_i_glide_ligand_efficiency_sa>
-0.866951362472738

> <r_i_glide_ligand_efficiency_ln>
-1.84526100743652

> <r_i_glide_gscore>
-7.99404805886692

> <r_i_glide_lipo>
-3.71819717030712

> <r_i_glide_hbond>
-0.26480340576577

> <r_i_glide_metal>
0

> <r_i_glide_rewards>
-2.10536077713265

> <r_i_glide_evdw>
-35.7608108520508

> <r_i_glide_ecoul>
-3.87275552749634

> <r_i_glide_erotb>
0.533643240835381

> <r_i_glide_esite>
-0.0703760747697726

> <r_i_glide_emodel>
-45.7783301271819

> <r_i_glide_energy>
-39.6335663795471

> <r_i_glide_einternal>
9.44690132141113

> <i_i_glide_confnum>
38

> <i_i_glide_posenum>
165

> <r_i_glide_eff_state_penalty>
0

> <s_user_duplicate_titles>
CHEMBL260_lig1772,577832

> <s_m_subgroup_title>
dock_pv

> <s_m_subgroupid>
dock_pv

> <b_m_subgroup_collapsed>
1

$$$$
CHEMBL260_lig967
                    3D
 Schrodinger Suite 2021-1.
 36 38  0  0  1  0            999 V2000
   -2.0369   -2.5849   20.6731 C   0  0  0  0  0  0
   -2.2371   -3.1120   21.9076 N   0  0  0  0  0  0
   -2.6830   -2.2768   22.8788 C   0  0  0  0  0  0
   -2.9216   -0.9199   22.6670 C   0  0  0  0  0  0
   -2.6632   -0.3763   21.4040 C   0  0  0  0  0  0
   -2.2448   -1.2351   20.3799 C   0  0  0  0  0  0
   -2.7139    1.0944   21.1634 C   0  0  0  0  0  0
   -2.2253    2.1180   22.0028 C   0  0  0  0  0  0
   -2.2755    3.2868   21.4002 N   0  0  0  0  0  0
   -2.8831    3.0867   20.1691 O   0  0  0  0  0  0
   -3.2079    1.7767   20.0551 C   0  0  0  0  0  0
   -3.9551    1.4197   18.8247 C   0  0  0  0  0  0
   -5.2404    0.8878   18.9219 C   0  0  0  0  0  0
   -5.9826    0.6635   17.7636 C   0  0  0  0  0  0
   -5.3954    0.8858   16.5169 C   0  0  0  0  0  0
   -4.1126    1.4023   16.4127 C   0  0  0  0  0  0
   -3.4022    1.6866   17.5695 C   0  0  0  0  0  0
   -6.0364    0.5237   15.3906 F   0  0  0  0  0  0
   -1.6767    2.0392   23.4314 C   0  0  0  0  0  0
   -2.7542    2.4587   24.4515 C   0  0  0  0  0  0
   -0.3734    2.8384   23.6498 C   0  0  0  0  0  0
   -1.7055   -3.2720   19.9072 H   0  0  0  0  0  0
   -2.8350   -2.7040   23.8575 H   0  0  0  0  0  0
   -3.2641   -0.3032   23.4831 H   0  0  0  0  0  0
   -2.0464   -0.8602   19.3868 H   0  0  0  0  0  0
   -5.6821    0.6851   19.8870 H   0  0  0  0  0  0
   -6.9768    0.2460   17.8361 H   0  0  0  0  0  0
   -3.6749    1.5819   15.4408 H   0  0  0  0  0  0
   -2.4355    2.1447   17.4757 H   0  0  0  0  0  0
   -1.4065    1.0066   23.6495 H   0  0  0  0  0  0
   -3.6546    1.8515   24.3583 H   0  0  0  0  0  0
   -2.3946    2.3508   25.4758 H   0  0  0  0  0  0
   -3.0458    3.5011   24.3172 H   0  0  0  0  0  0
    0.4535    2.4263   23.0750 H   0  0  0  0  0  0
   -0.4837    3.8881   23.3783 H   0  0  0  0  0  0
   -0.0660    2.8106   24.6955 H   0  0  0  0  0  0
  1  6  1  0  0  0
  1  2  2  0  0  0
  1 22  1  0  0  0
  2  3  1  0  0  0
  3  4  2  0  0  0
  3 23  1  0  0  0
  4  5  1  0  0  0
  4 24  1  0  0  0
  5  7  1  0  0  0
  5  6  2  0  0  0
  6 25  1  0  0  0
  7 11  2  0  0  0
  7  8  1  0  0  0
  8 19  1  0  0  0
  8  9  2  0  0  0
  9 10  1  0  0  0
 10 11  1  0  0  0
 11 12  1  0  0  0
 12 13  2  0  0  0
 12 17  1  0  0  0
 13 14  1  0  0  0
 13 26  1  0  0  0
 14 15  2  0  0  0
 14 27  1  0  0  0
 15 16  1  0  0  0
 15 18  1  0  0  0
 16 17  2  0  0  0
 16 28  1  0  0  0
 17 29  1  0  0  0
 19 20  1  0  0  0
 19 21  1  0  0  0
 19 30  1  0  0  0
 20 31  1  0  0  0
 20 32  1  0  0  0
 20 33  1  0  0  0
 21 34  1  0  0  0
 21 35  1  0  0  0
 21 36  1  0  0  0
M  END
> <s_m_entry_id>
60927

> <s_m_entry_name>
dock_pv.204

> <s_m_Source_Path>
/home/csk/Desktop/cluster/DUD-E-result/mk14

> <s_m_Source_File>
dock_pv.maegz

> <i_m_Source_File_Index>
204

> <chembl_id>
CHEMBL375428

> <chembl_pref_name>
None

> <i_lp_mmshare_version>
53161

> <i_f3d_flags>
0

> <r_lp_tautomer_probability>
1

> <s_lp_Force_Field>
OPLS_2005

> <r_lp_Energy>
9.635267

> <b_lp_Chiralities_Consistent>
1

> <s_lp_Variant>
CHEMBL260_lig967-1

> <s_i_glide_gridfile>
glide-grid_2qd9

> <i_i_glide_lignum>
1073

> <i_i_glide_rotatable_bonds>
3

> <r_i_docking_score>
-7.98886385732255

> <r_i_glide_ligand_efficiency>
-0.380422088443931

> <r_i_glide_ligand_efficiency_sa>
-1.04955569597223

> <r_i_glide_ligand_efficiency_ln>
-1.97523044570358

> <r_i_glide_gscore>
-7.98886385732255

> <r_i_glide_lipo>
-3.43815769590262

> <r_i_glide_hbond>
-0.220740417807168

> <r_i_glide_metal>
0

> <r_i_glide_rewards>
-2.86848149706672

> <r_i_glide_evdw>
-28.7543449401855

> <r_i_glide_ecoul>
-2.78821635246277

> <r_i_glide_erotb>
0.45399207163745

> <r_i_glide_esite>
-0.0595266183047992

> <r_i_glide_emodel>
-43.3338383863755

> <r_i_glide_energy>
-31.5425612926483

> <r_i_glide_einternal>
3.67053890228271

> <i_i_glide_confnum>
14

> <i_i_glide_posenum>
320

> <r_i_glide_eff_state_penalty>
0

> <s_user_duplicate_titles>
CHEMBL260_lig967

> <s_m_subgroup_title>
dock_pv

> <s_m_subgroupid>
dock_pv

> <b_m_subgroup_collapsed>
1

$$$$
CHEMBL260_lig12
                    3D
 Schrodinger Suite 2021-1.
 40 42  0  0  1  0            999 V2000
   -2.5586   -0.4063   21.7042 C   0  0  0  0  0  0
   -2.1829   -1.6348   22.1330 C   0  0  0  0  0  0
   -1.8779   -1.9363   23.5351 C   0  0  0  0  0  0
   -1.9823   -0.8631   24.4045 N   0  0  0  0  0  0
   -2.3884    0.4152   23.9937 C   0  0  0  0  0  0
   -2.6592    0.6638   22.6936 C   0  0  0  0  0  0
   -1.5686   -1.0392   25.7454 C   0  0  0  0  0  0
   -1.5767   -3.0879   23.8762 O   0  0  0  0  0  0
   -0.2688   -0.6736   26.1302 C   0  0  0  0  0  0
    0.0922   -0.7035   27.4760 C   0  0  0  0  0  0
   -0.8277   -1.1124   28.4424 C   0  0  0  0  0  0
   -2.1083   -1.5126   28.0590 C   0  0  0  0  0  0
   -2.4773   -1.4883   26.7142 C   0  0  0  0  0  0
   -2.5821    1.4886   25.0950 C   0  0  0  0  0  0
   -2.0330   -2.9678   20.9742 Cl  0  0  0  0  0  0
   -2.8462   -0.2415   20.3786 O   0  0  0  0  0  0
   -3.2741    1.0414   19.9302 C   0  0  0  0  0  0
   -3.8933    0.9377   18.5485 C   0  0  0  0  0  0
   -5.2771    0.8890   18.4098 C   0  0  0  0  0  0
   -5.8406    0.8867   17.1447 C   0  0  0  0  0  0
   -5.0561    0.8822   15.9997 C   0  0  0  0  0  0
   -3.6747    0.9063   16.1229 C   0  0  0  0  0  0
   -3.1039    0.9217   17.3963 C   0  0  0  0  0  0
   -3.7236   -1.8752   26.3647 F   0  0  0  0  0  0
    0.6321   -0.2541   25.2104 F   0  0  0  0  0  0
   -5.6333    0.7821   14.7853 F   0  0  0  0  0  0
   -6.0875    0.8690   19.4890 F   0  0  0  0  0  0
   -3.2353    2.6622   24.6308 O   0  0  0  0  0  0
   -2.9697    1.6559   22.4129 H   0  0  0  0  0  0
    1.0899   -0.4089   27.7710 H   0  0  0  0  0  0
   -0.5362   -1.1471   29.4814 H   0  0  0  0  0  0
   -2.8093   -1.8520   28.8081 H   0  0  0  0  0  0
   -3.1920    1.0906   25.9071 H   0  0  0  0  0  0
   -1.6144    1.7682   25.5171 H   0  0  0  0  0  0
   -2.4360    1.7377   19.9212 H   0  0  0  0  0  0
   -4.0322    1.4669   20.5912 H   0  0  0  0  0  0
   -6.8942    0.8278   17.0752 H   0  0  0  0  0  0
   -3.0512    0.8840   15.2418 H   0  0  0  0  0  0
   -2.0361    0.8878   17.4753 H   0  0  0  0  0  0
   -3.4220    3.2165   25.3932 H   0  0  0  0  0  0
  1  2  2  0  0  0
  1 16  1  0  0  0
  1  6  1  0  0  0
  2 15  1  0  0  0
  2  3  1  0  0  0
  3  8  2  0  0  0
  3  4  1  0  0  0
  4  7  1  0  0  0
  4  5  1  0  0  0
  5 14  1  0  0  0
  5  6  2  0  0  0
  6 29  1  0  0  0
  7  9  2  0  0  0
  7 13  1  0  0  0
  9 10  1  0  0  0
  9 25  1  0  0  0
 10 11  2  0  0  0
 10 30  1  0  0  0
 11 12  1  0  0  0
 11 31  1  0  0  0
 12 13  2  0  0  0
 12 32  1  0  0  0
 13 24  1  0  0  0
 14 28  1  0  0  0
 14 33  1  0  0  0
 14 34  1  0  0  0
 16 17  1  0  0  0
 17 18  1  0  0  0
 17 35  1  0  0  0
 17 36  1  0  0  0
 18 19  2  0  0  0
 18 23  1  0  0  0
 19 20  1  0  0  0
 19 27  1  0  0  0
 20 21  2  0  0  0
 20 37  1  0  0  0
 21 22  1  0  0  0
 21 26  1  0  0  0
 22 23  2  0  0  0
 22 38  1  0  0  0
 23 39  1  0  0  0
 28 40  1  0  0  0
M  END
> <s_m_entry_id>
60928

> <s_m_entry_name>
dock_pv.205

> <s_m_Source_Path>
/home/csk/Desktop/cluster/DUD-E-result/mk14

> <s_m_Source_File>
dock_pv.maegz

> <i_m_Source_File_Index>
205

> <chembl_id>
CHEMBL1797211

> <chembl_pref_name>
None

> <i_lp_mmshare_version>
53161

> <i_f3d_flags>
0

> <r_lp_tautomer_probability>
1

> <s_lp_Force_Field>
OPLS_2005

> <r_lp_Energy>
37.069839

> <b_lp_Chiralities_Consistent>
1

> <s_lp_Variant>
CHEMBL260_lig12-1

> <s_i_glide_gridfile>
glide-grid_2qd9

> <i_i_glide_lignum>
15

> <i_i_glide_rotatable_bonds>
6

> <r_i_docking_score>
-7.98304916615878

> <r_i_glide_ligand_efficiency>
-0.285108898791385

> <r_i_glide_ligand_efficiency_sa>
-0.865758536891906

> <r_i_glide_ligand_efficiency_ln>
-1.84272214005796

> <r_i_glide_gscore>
-7.98304916615878

> <r_i_glide_lipo>
-3.43614659878565

> <r_i_glide_hbond>
-0.336371078906945

> <r_i_glide_metal>
0

> <r_i_glide_rewards>
-1.85697637753273

> <r_i_glide_evdw>
-38.3686676025391

> <r_i_glide_ecoul>
-6.74279403686523

> <r_i_glide_erotb>
0.576297374723277

> <r_i_glide_esite>
0

> <r_i_glide_emodel>
-64.0429921984454

> <r_i_glide_energy>
-45.1114616394043

> <r_i_glide_einternal>
2.70237517356873

> <i_i_glide_confnum>
57

> <i_i_glide_posenum>
225

> <r_i_glide_eff_state_penalty>
0

> <s_user_duplicate_titles>
CHEMBL260_lig12

> <s_m_subgroup_title>
dock_pv

> <s_m_subgroupid>
dock_pv

> <b_m_subgroup_collapsed>
1

$$$$
CHEMBL260_lig1671
                    3D
 Schrodinger Suite 2021-1.
 53 57  0  0  1  0            999 V2000
   -2.5071   -1.1516   21.0585 N   0  0  0  0  0  0
   -1.9831   -1.8963   22.0913 C   0  0  0  0  0  0
   -1.3279   -1.1182   23.1317 C   0  0  0  0  0  0
   -1.3035    0.2306   23.1842 C   0  0  0  0  0  0
   -2.5348    0.2522   21.0873 C   0  0  0  0  0  0
   -1.9702    0.9940   22.1172 C   0  0  0  0  0  0
   -2.2104    2.3260   21.7714 C   0  0  0  0  0  0
   -2.8350    2.4375   20.6235 N   0  0  0  0  0  0
   -3.0645    1.1814   20.2020 N   0  0  0  0  0  0
   -3.0045   -1.8475   19.8765 C   0  0  0  0  0  0
   -2.0354   -3.1236   22.1871 O   0  0  0  0  0  0
   -0.6263    0.8638   24.1820 O   0  0  0  0  0  0
   -3.9301    1.0250   19.0999 C   0  0  0  0  0  0
   -5.2653    0.6787   19.3263 C   0  0  0  0  0  0
   -6.1555    0.5893   18.2568 C   0  0  0  0  0  0
   -5.7269    0.8871   16.9623 C   0  0  0  0  0  0
   -4.3974    1.2296   16.7297 C   0  0  0  0  0  0
   -3.4968    1.2869   17.7914 C   0  0  0  0  0  0
   -1.0736    2.0735   24.6564 C   0  0  0  0  0  0
   -0.3234    3.2130   24.3682 C   0  0  0  0  0  0
   -0.7732    4.4873   24.7498 C   0  0  0  0  0  0
   -1.9664    4.5841   25.4812 C   0  0  0  0  0  0
   -2.7009    3.4440   25.8046 C   0  0  0  0  0  0
   -2.2595    2.1842   25.3956 C   0  0  0  0  0  0
   -0.0355    5.7393   24.3365 C   0  0  0  0  0  0
   -0.6297    6.8190   24.2740 O   0  0  0  0  0  0
   -3.0536    0.9478   25.7741 C   0  0  0  0  0  0
   -3.9767    1.4995   15.4755 F   0  0  0  0  0  0
    1.2609    5.5867   24.0143 N   0  0  0  0  0  0
    2.1417    6.6450   23.5395 C   0  0  0  0  0  0
    2.9236    6.3800   22.2768 C   0  0  0  0  0  0
    1.8029    7.3910   22.2655 C   0  0  0  0  0  0
   -0.8158   -1.6700   23.9056 H   0  0  0  0  0  0
   -1.9108    3.2034   22.3206 H   0  0  0  0  0  0
   -4.0349   -1.5483   19.6985 H   0  0  0  0  0  0
   -2.4153   -1.5647   19.0042 H   0  0  0  0  0  0
   -2.9713   -2.9344   19.9591 H   0  0  0  0  0  0
   -5.6199    0.4869   20.3264 H   0  0  0  0  0  0
   -7.1857    0.3117   18.4282 H   0  0  0  0  0  0
   -6.4233    0.8340   16.1378 H   0  0  0  0  0  0
   -2.4739    1.5484   17.5664 H   0  0  0  0  0  0
    0.5805    3.0861   23.7883 H   0  0  0  0  0  0
   -2.3350    5.5462   25.8091 H   0  0  0  0  0  0
   -3.6196    3.5445   26.3674 H   0  0  0  0  0  0
   -3.6348    1.1250   26.6758 H   0  0  0  0  0  0
   -3.7167    0.6509   24.9615 H   0  0  0  0  0  0
   -2.3864    0.1130   25.9956 H   0  0  0  0  0  0
    1.7135    4.7238   24.2783 H   0  0  0  0  0  0
    2.6293    7.2009   24.3419 H   0  0  0  0  0  0
    2.7652    5.4351   21.7548 H   0  0  0  0  0  0
    3.9586    6.7163   22.2296 H   0  0  0  0  0  0
    2.0390    8.4528   22.2095 H   0  0  0  0  0  0
    0.8830    7.1440   21.7338 H   0  0  0  0  0  0
  1 10  1  0  0  0
  1  5  1  0  0  0
  1  2  1  0  0  0
  2  3  1  0  0  0
  2 11  2  0  0  0
  3  4  2  0  0  0
  3 33  1  0  0  0
  4 12  1  0  0  0
  4  6  1  0  0  0
  5  9  1  0  0  0
  5  6  2  0  0  0
  6  7  1  0  0  0
  7  8  2  0  0  0
  7 34  1  0  0  0
  8  9  1  0  0  0
  9 13  1  0  0  0
 10 35  1  0  0  0
 10 36  1  0  0  0
 10 37  1  0  0  0
 12 19  1  0  0  0
 13 18  1  0  0  0
 13 14  2  0  0  0
 14 15  1  0  0  0
 14 38  1  0  0  0
 15 16  2  0  0  0
 15 39  1  0  0  0
 16 17  1  0  0  0
 16 40  1  0  0  0
 17 18  2  0  0  0
 17 28  1  0  0  0
 18 41  1  0  0  0
 19 20  2  0  0  0
 19 24  1  0  0  0
 20 21  1  0  0  0
 20 42  1  0  0  0
 21 22  2  0  0  0
 21 25  1  0  0  0
 22 23  1  0  0  0
 22 43  1  0  0  0
 23 24  2  0  0  0
 23 44  1  0  0  0
 24 27  1  0  0  0
 25 26  2  0  0  0
 25 29  1  0  0  0
 27 45  1  0  0  0
 27 46  1  0  0  0
 27 47  1  0  0  0
 29 30  1  0  0  0
 29 48  1  0  0  0
 30 31  1  0  0  0
 30 32  1  0  0  0
 30 49  1  0  0  0
 31 32  1  0  0  0
 31 50  1  0  0  0
 31 51  1  0  0  0
 32 52  1  0  0  0
 32 53  1  0  0  0
M  END
> <s_m_entry_id>
60929

> <s_m_entry_name>
dock_pv.206

> <s_m_Source_Path>
/home/csk/Desktop/cluster/DUD-E-result/mk14

> <s_m_Source_File>
dock_pv.maegz

> <i_m_Source_File_Index>
206

> <chembl_id>
CHEMBL564121

> <chembl_pref_name>
None

> <i_lp_mmshare_version>
53161

> <i_f3d_flags>
0

> <r_lp_tautomer_probability>
1

> <s_lp_Force_Field>
OPLS_2005

> <r_lp_Energy>
56.923114

> <b_lp_Chiralities_Consistent>
1

> <s_lp_Variant>
CHEMBL260_lig1671-1

> <s_i_glide_gridfile>
glide-grid_2qd9

> <i_i_glide_lignum>
1923

> <i_i_glide_rotatable_bonds>
6

> <r_i_docking_score>
-7.97297543055231

> <r_i_glide_ligand_efficiency>
-0.24915548220476

> <r_i_glide_ligand_efficiency_sa>
-0.791019348197138

> <r_i_glide_ligand_efficiency_ln>
-1.78536653400255

> <r_i_glide_gscore>
-7.97297543055231

> <r_i_glide_lipo>
-2.70485328518202

> <r_i_glide_hbond>
-0.313618750379422

> <r_i_glide_metal>
0

> <r_i_glide_rewards>
-2.55430425378145

> <r_i_glide_evdw>
-41.4622840881348

> <r_i_glide_ecoul>
-6.06900119781494

> <r_i_glide_erotb>
0.638422471976201

> <r_i_glide_esite>
-0.0551572291066448

> <r_i_glide_emodel>
-63.2438244354697

> <r_i_glide_energy>
-47.5312852859497

> <r_i_glide_einternal>
7.16429996490479

> <i_i_glide_confnum>
1

> <i_i_glide_posenum>
177

> <r_i_glide_eff_state_penalty>
0

> <s_user_duplicate_titles>
CHEMBL260_lig1671,558808

> <s_m_subgroup_title>
dock_pv

> <s_m_subgroupid>
dock_pv

> <b_m_subgroup_collapsed>
1

$$$$
CHEMBL260_lig813
                    3D
 Schrodinger Suite 2021-1.
 39 42  0  0  1  0            999 V2000
   -2.0348   -3.5049   22.9740 N   0  0  0  0  0  0
   -2.0348   -3.0425   24.2752 N   0  0  0  0  0  0
   -2.3848   -1.7790   24.3114 C   0  0  0  0  0  0
   -2.3386   -2.4519   22.1982 C   0  0  0  0  0  0
   -2.5548   -1.3356   23.0232 N   0  0  0  0  0  0
   -2.8312   -0.1080   22.5100 C   0  0  0  0  0  0
   -2.8432    0.0474   21.1320 C   0  0  0  0  0  0
   -2.6888   -1.0466   20.2823 C   0  0  0  0  0  0
   -2.4387   -2.3131   20.8050 C   0  0  0  0  0  0
   -2.8349    1.4095   20.6148 C   0  0  0  0  0  0
   -2.1034    2.2895   21.3316 O   0  0  0  0  0  0
   -2.0587    3.3680   20.5346 C   0  0  0  0  0  0
   -2.8142    3.2868   19.4757 N   0  0  0  0  0  0
   -3.2572    2.0458   19.4603 C   0  0  0  0  0  0
   -2.4708   -0.8839   25.5461 C   0  0  0  0  0  0
   -1.2171    0.0021   25.6698 C   0  0  0  0  0  0
   -2.7030   -1.6783   26.8450 C   0  0  0  0  0  0
   -4.0342    1.5122   18.3032 C   0  0  0  0  0  0
   -5.2614    0.8872   18.5477 C   0  0  0  0  0  0
   -6.0852    0.5347   17.4842 C   0  0  0  0  0  0
   -5.6651    0.7209   16.1682 C   0  0  0  0  0  0
   -4.4205    1.2841   15.9129 C   0  0  0  0  0  0
   -3.6097    1.6869   16.9706 C   0  0  0  0  0  0
   -5.6964    0.6863   19.8123 F   0  0  0  0  0  0
   -2.4347    2.2896   16.6761 F   0  0  0  0  0  0
   -2.9286    0.7089   23.2097 H   0  0  0  0  0  0
   -2.6932   -0.9061   19.2102 H   0  0  0  0  0  0
   -2.2791   -3.1544   20.1491 H   0  0  0  0  0  0
   -1.3477    4.1227   20.8234 H   0  0  0  0  0  0
   -3.3323   -0.2229   25.4364 H   0  0  0  0  0  0
   -1.0836    0.6433   24.7984 H   0  0  0  0  0  0
   -0.3143   -0.6024   25.7724 H   0  0  0  0  0  0
   -1.2739    0.6507   26.5449 H   0  0  0  0  0  0
   -3.5873   -2.3125   26.7732 H   0  0  0  0  0  0
   -1.8489   -2.3129   27.0792 H   0  0  0  0  0  0
   -2.8471   -1.0113   27.6955 H   0  0  0  0  0  0
   -7.0455    0.0842   17.6876 H   0  0  0  0  0  0
   -6.3054    0.4201   15.3518 H   0  0  0  0  0  0
   -4.0879    1.4302   14.8958 H   0  0  0  0  0  0
  1  2  1  0  0  0
  1  4  2  0  0  0
  2  3  2  0  0  0
  3 15  1  0  0  0
  3  5  1  0  0  0
  4  9  1  0  0  0
  4  5  1  0  0  0
  5  6  1  0  0  0
  6  7  2  0  0  0
  6 26  1  0  0  0
  7 10  1  0  0  0
  7  8  1  0  0  0
  8  9  2  0  0  0
  8 27  1  0  0  0
  9 28  1  0  0  0
 10 11  1  0  0  0
 10 14  2  0  0  0
 11 12  1  0  0  0
 12 13  2  0  0  0
 12 29  1  0  0  0
 13 14  1  0  0  0
 14 18  1  0  0  0
 15 16  1  0  0  0
 15 17  1  0  0  0
 15 30  1  0  0  0
 16 31  1  0  0  0
 16 32  1  0  0  0
 16 33  1  0  0  0
 17 34  1  0  0  0
 17 35  1  0  0  0
 17 36  1  0  0  0
 18 19  2  0  0  0
 18 23  1  0  0  0
 19 20  1  0  0  0
 19 24  1  0  0  0
 20 21  2  0  0  0
 20 37  1  0  0  0
 21 22  1  0  0  0
 21 38  1  0  0  0
 22 23  2  0  0  0
 22 39  1  0  0  0
 23 25  1  0  0  0
M  END
> <s_m_entry_id>
60930

> <s_m_entry_name>
dock_pv.207

> <s_m_Source_Path>
/home/csk/Desktop/cluster/DUD-E-result/mk14

> <s_m_Source_File>
dock_pv.maegz

> <i_m_Source_File_Index>
207

> <chembl_id>
CHEMBL212038

> <chembl_pref_name>
None

> <i_lp_mmshare_version>
53161

> <i_f3d_flags>
0

> <r_lp_tautomer_probability>
1

> <s_lp_Force_Field>
OPLS_2005

> <r_lp_Energy>
15.287845

> <b_lp_Chiralities_Consistent>
1

> <s_lp_Variant>
CHEMBL260_lig813-1

> <s_i_glide_gridfile>
glide-grid_2qd9

> <i_i_glide_lignum>
911

> <i_i_glide_rotatable_bonds>
3

> <r_i_docking_score>
-7.96499718892254

> <r_i_glide_ligand_efficiency>
-0.318599887556902

> <r_i_glide_ligand_efficiency_sa>
-0.931591721609446

> <r_i_glide_ligand_efficiency_ln>
-1.88794302547916

> <r_i_glide_gscore>
-7.96499718892254

> <r_i_glide_lipo>
-3.35946011049206

> <r_i_glide_hbond>
0

> <r_i_glide_metal>
0

> <r_i_glide_rewards>
-2.6025836845538

> <r_i_glide_evdw>
-21.2509460449219

> <r_i_glide_ecoul>
-7.52646446228027

> <r_i_glide_erotb>
0.326982784344939

> <r_i_glide_esite>
-0.138419206633488

> <r_i_glide_emodel>
-42.4000007238664

> <r_i_glide_energy>
-28.7774105072021

> <r_i_glide_einternal>
1.84624075889587

> <i_i_glide_confnum>
6

> <i_i_glide_posenum>
146

> <r_i_glide_eff_state_penalty>
0

> <s_user_duplicate_titles>
CHEMBL260_lig813,355840

> <s_m_subgroup_title>
dock_pv

> <s_m_subgroupid>
dock_pv

> <b_m_subgroup_collapsed>
1

$$$$
CHEMBL260_lig969
                    3D
 Schrodinger Suite 2021-1.
 36 38  0  0  1  0            999 V2000
   -2.0413   -2.5635   20.6547 C   0  0  0  0  0  0
   -2.2446   -3.1130   21.8789 N   0  0  0  0  0  0
   -2.6779   -2.2940   22.8684 C   0  0  0  0  0  0
   -2.9019   -0.9307   22.6844 C   0  0  0  0  0  0
   -2.6489   -0.3664   21.4291 C   0  0  0  0  0  0
   -2.2381   -1.2067   20.3874 C   0  0  0  0  0  0
   -2.6915    1.1096   21.2319 C   0  0  0  0  0  0
   -2.2231    2.0688   22.1258 C   0  0  0  0  0  0
   -2.2948    3.2868   21.5381 O   0  0  0  0  0  0
   -2.8349    3.1387   20.2676 N   0  0  0  0  0  0
   -3.1530    1.8674   20.1369 C   0  0  0  0  0  0
   -3.9055    1.4433   18.9138 C   0  0  0  0  0  0
   -3.3932    1.6869   17.6312 C   0  0  0  0  0  0
   -4.1401    1.3908   16.5008 C   0  0  0  0  0  0
   -5.4223    0.8868   16.6460 C   0  0  0  0  0  0
   -5.9613    0.6551   17.9128 C   0  0  0  0  0  0
   -5.1835    0.8883   19.0477 C   0  0  0  0  0  0
   -6.1114    0.5534   15.5368 F   0  0  0  0  0  0
   -1.6544    2.0379   23.5395 C   0  0  0  0  0  0
   -2.7350    2.4327   24.5644 C   0  0  0  0  0  0
   -0.3892    2.9060   23.6949 C   0  0  0  0  0  0
   -1.7151   -3.2390   19.8765 H   0  0  0  0  0  0
   -2.8336   -2.7415   23.8372 H   0  0  0  0  0  0
   -3.2301   -0.3248   23.5150 H   0  0  0  0  0  0
   -2.0343   -0.8124   19.4027 H   0  0  0  0  0  0
   -2.4350    2.1493   17.4762 H   0  0  0  0  0  0
   -3.7367    1.5680   15.5139 H   0  0  0  0  0  0
   -6.9547    0.2400   18.0066 H   0  0  0  0  0  0
   -5.5963    0.6948   20.0274 H   0  0  0  0  0  0
   -1.3455    1.0178   23.7694 H   0  0  0  0  0  0
   -3.6049    1.7767   24.5034 H   0  0  0  0  0  0
   -2.3531    2.3738   25.5843 H   0  0  0  0  0  0
   -3.0824    3.4544   24.4050 H   0  0  0  0  0  0
    0.4285    2.5356   23.0762 H   0  0  0  0  0  0
   -0.5702    3.9465   23.4211 H   0  0  0  0  0  0
   -0.0305    2.8997   24.7251 H   0  0  0  0  0  0
  1  6  1  0  0  0
  1  2  2  0  0  0
  1 22  1  0  0  0
  2  3  1  0  0  0
  3  4  2  0  0  0
  3 23  1  0  0  0
  4  5  1  0  0  0
  4 24  1  0  0  0
  5  7  1  0  0  0
  5  6  2  0  0  0
  6 25  1  0  0  0
  7 11  1  0  0  0
  7  8  2  0  0  0
  8 19  1  0  0  0
  8  9  1  0  0  0
  9 10  1  0  0  0
 10 11  2  0  0  0
 11 12  1  0  0  0
 12 13  2  0  0  0
 12 17  1  0  0  0
 13 14  1  0  0  0
 13 26  1  0  0  0
 14 15  2  0  0  0
 14 27  1  0  0  0
 15 16  1  0  0  0
 15 18  1  0  0  0
 16 17  2  0  0  0
 16 28  1  0  0  0
 17 29  1  0  0  0
 19 20  1  0  0  0
 19 21  1  0  0  0
 19 30  1  0  0  0
 20 31  1  0  0  0
 20 32  1  0  0  0
 20 33  1  0  0  0
 21 34  1  0  0  0
 21 35  1  0  0  0
 21 36  1  0  0  0
M  END
> <s_m_entry_id>
60931

> <s_m_entry_name>
dock_pv.208

> <s_m_Source_Path>
/home/csk/Desktop/cluster/DUD-E-result/mk14

> <s_m_Source_File>
dock_pv.maegz

> <i_m_Source_File_Index>
208

> <chembl_id>
CHEMBL220227

> <chembl_pref_name>
None

> <i_lp_mmshare_version>
53161

> <i_f3d_flags>
0

> <r_lp_tautomer_probability>
1

> <s_lp_Force_Field>
OPLS_2005

> <r_lp_Energy>
13.741849

> <b_lp_Chiralities_Consistent>
1

> <s_lp_Variant>
CHEMBL260_lig969-1

> <s_i_glide_gridfile>
glide-grid_2qd9

> <i_i_glide_lignum>
1075

> <i_i_glide_rotatable_bonds>
3

> <r_i_docking_score>
-7.96248119380036

> <r_i_glide_ligand_efficiency>
-0.37916577113335

> <r_i_glide_ligand_efficiency_sa>
-1.04608961177438

> <r_i_glide_ligand_efficiency_ln>
-1.96870738545891

> <r_i_glide_gscore>
-7.96248119380036

> <r_i_glide_lipo>
-3.42996222279012

> <r_i_glide_hbond>
-0.212850759356413

> <r_i_glide_metal>
0

> <r_i_glide_rewards>
-2.86079789563605

> <r_i_glide_evdw>
-29.9785804748535

> <r_i_glide_ecoul>
-2.34131574630737

> <r_i_glide_erotb>
0.45399207163745

> <r_i_glide_esite>
-0.0627360019664438

> <r_i_glide_emodel>
-45.4810139831194

> <r_i_glide_energy>
-32.3198962211609

> <r_i_glide_einternal>
3.73423075675964

> <i_i_glide_confnum>
10

> <i_i_glide_posenum>
110

> <r_i_glide_eff_state_penalty>
0

> <s_user_duplicate_titles>
CHEMBL260_lig969,370216

> <s_m_subgroup_title>
dock_pv

> <s_m_subgroupid>
dock_pv

> <b_m_subgroup_collapsed>
1

$$$$
CHEMBL260_lig1758
                    3D
 Schrodinger Suite 2021-1.
 42 45  0  0  1  0            999 V2000
    0.6731    0.7803   27.5271 C   0  0  0  0  0  0
    1.0124    1.0880   26.2120 C   0  0  0  0  0  0
    0.5514    0.2801   25.1769 C   0  0  0  0  0  0
   -0.2645   -0.8205   25.4594 C   0  0  0  0  0  0
   -0.6098   -1.1130   26.7790 C   0  0  0  0  0  0
   -0.1409   -0.3114   27.8161 C   0  0  0  0  0  0
   -0.7279   -1.6589   24.4354 N   0  0  0  0  0  0
   -1.2587   -1.3049   23.1918 C   0  0  0  0  0  0
   -1.5816   -0.0026   22.9678 N   0  0  0  0  0  0
   -1.9227   -1.9830   21.0835 C   0  0  0  0  0  0
   -1.4237   -2.3184   22.3028 N   0  0  0  0  0  0
   -2.2546   -0.6646   20.7607 C   0  0  0  0  0  0
   -2.0813    0.3132   21.7426 C   0  0  0  0  0  0
   -2.4504    1.6623   21.4554 N   0  0  0  0  0  0
   -2.9949    2.0918   20.2642 C   0  0  0  0  0  0
   -3.2350    1.0368   19.2684 C   0  0  0  0  0  0
   -2.8350   -0.2406   19.4917 C   0  0  0  0  0  0
   -2.1854    2.6672   22.5048 C   0  0  0  0  0  0
   -3.2255    3.2745   20.0042 O   0  0  0  0  0  0
   -3.9593    1.2870   17.9892 C   0  0  0  0  0  0
   -5.3016    0.8870   17.9186 C   0  0  0  0  0  0
   -5.8955    0.6673   16.6789 C   0  0  0  0  0  0
   -5.2303    0.9379   15.4964 C   0  0  0  0  0  0
   -3.9766    1.5124   15.5661 C   0  0  0  0  0  0
   -3.3558    1.7258   16.7862 C   0  0  0  0  0  0
   -1.9256    2.6721   16.6760 Cl  0  0  0  0  0  0
   -6.2126    0.4870   19.3373 Cl  0  0  0  0  0  0
    1.1650    1.5443   28.5468 O   0  0  0  0  0  0
    1.6539    1.9308   25.9961 H   0  0  0  0  0  0
    0.8362    0.5063   24.1598 H   0  0  0  0  0  0
   -1.2366   -1.9616   27.0072 H   0  0  0  0  0  0
   -0.3916   -0.5445   28.8406 H   0  0  0  0  0  0
   -0.4830   -2.6313   24.5264 H   0  0  0  0  0  0
   -2.0626   -2.7891   20.3755 H   0  0  0  0  0  0
   -2.9796   -0.9858   18.7309 H   0  0  0  0  0  0
   -2.7608    2.4306   23.4008 H   0  0  0  0  0  0
   -1.1289    2.6546   22.7771 H   0  0  0  0  0  0
   -2.4323    3.6870   22.2155 H   0  0  0  0  0  0
   -6.8350    0.1721   16.6366 H   0  0  0  0  0  0
   -5.6811    0.7215   14.5409 H   0  0  0  0  0  0
   -3.4540    1.7978   14.6760 H   0  0  0  0  0  0
    2.0976    1.7700   28.3950 H   0  0  0  0  0  0
  1  2  2  0  0  0
  1  6  1  0  0  0
  1 28  1  0  0  0
  2  3  1  0  0  0
  2 29  1  0  0  0
  3  4  2  0  0  0
  3 30  1  0  0  0
  4  7  1  0  0  0
  4  5  1  0  0  0
  5  6  2  0  0  0
  5 31  1  0  0  0
  6 32  1  0  0  0
  7  8  1  0  0  0
  7 33  1  0  0  0
  8  9  1  0  0  0
  8 11  2  0  0  0
  9 13  2  0  0  0
 10 12  2  0  0  0
 10 11  1  0  0  0
 10 34  1  0  0  0
 12 17  1  0  0  0
 12 13  1  0  0  0
 13 14  1  0  0  0
 14 15  1  0  0  0
 14 18  1  0  0  0
 15 16  1  0  0  0
 15 19  2  0  0  0
 16 17  2  0  0  0
 16 20  1  0  0  0
 17 35  1  0  0  0
 18 36  1  0  0  0
 18 37  1  0  0  0
 18 38  1  0  0  0
 20 21  2  0  0  0
 20 25  1  0  0  0
 21 22  1  0  0  0
 21 27  1  0  0  0
 22 23  2  0  0  0
 22 39  1  0  0  0
 23 24  1  0  0  0
 23 40  1  0  0  0
 24 25  2  0  0  0
 24 41  1  0  0  0
 25 26  1  0  0  0
 28 42  1  0  0  0
M  END
> <s_m_entry_id>
60932

> <s_m_entry_name>
dock_pv.209

> <s_m_Source_Path>
/home/csk/Desktop/cluster/DUD-E-result/mk14

> <s_m_Source_File>
dock_pv.maegz

> <i_m_Source_File_Index>
209

> <chembl_id>
CHEMBL323405

> <chembl_pref_name>
None

> <i_lp_mmshare_version>
53161

> <i_f3d_flags>
0

> <r_lp_tautomer_probability>
1

> <s_lp_Force_Field>
OPLS_2005

> <r_lp_Energy>
25.574862

> <b_lp_Chiralities_Consistent>
1

> <s_lp_Variant>
CHEMBL260_lig1758-1

> <s_i_glide_gridfile>
glide-grid_2qd9

> <i_i_glide_lignum>
2020

> <i_i_glide_rotatable_bonds>
4

> <r_i_docking_score>
-7.95688299868218

> <r_i_glide_ligand_efficiency>
-0.284174392810078

> <r_i_glide_ligand_efficiency_sa>
-0.862920826338068

> <r_i_glide_ligand_efficiency_ln>
-1.83668222033229

> <r_i_glide_gscore>
-7.95688299868218

> <r_i_glide_lipo>
-3.56720310174244

> <r_i_glide_hbond>
-0.16

> <r_i_glide_metal>
0

> <r_i_glide_rewards>
-1.44933510531681

> <r_i_glide_evdw>
-39.6362342834473

> <r_i_glide_ecoul>
-7.63371658325195

> <r_i_glide_erotb>
0.346524410037229

> <r_i_glide_esite>
0

> <r_i_glide_emodel>
-60.6379660880737

> <r_i_glide_energy>
-47.2699508666992

> <r_i_glide_einternal>
3.67129397392273

> <i_i_glide_confnum>
4

> <i_i_glide_posenum>
23

> <r_i_glide_eff_state_penalty>
0

> <s_user_duplicate_titles>
CHEMBL260_lig1758,183101

> <s_m_subgroup_title>
dock_pv

> <s_m_subgroupid>
dock_pv

> <b_m_subgroup_collapsed>
1

$$$$
CHEMBL260_lig490
                    3D
 Schrodinger Suite 2021-1.
 57 61  0  0  1  0            999 V2000
   -2.8230    1.1571   20.9411 C   0  0  0  0  0  0
   -2.3008    2.1205   21.8023 N   0  0  0  0  0  0
   -2.8363    3.1461   19.8792 N   0  0  0  0  0  0
   -3.2351    1.8896   19.8113 C   0  0  0  0  0  0
   -2.2412    3.2509   21.0268 C   0  0  0  0  0  0
   -2.7786   -0.3340   21.1454 C   0  0  0  0  0  0
   -2.7811   -0.8290   22.4133 N   0  0  0  0  0  0
   -2.5155   -2.1611   22.5597 C   0  0  0  0  0  0
    0.7653    0.5200   25.7511 C   0  0  0  0  0  0
   -3.9653    1.4519   18.5883 C   0  0  0  0  0  0
   -2.2598   -3.0315   21.5558 N   0  0  0  0  0  0
   -0.4201   -0.3979   25.8831 C   0  0  0  0  0  0
   -1.7253    1.9647   23.1545 C   0  0  0  0  0  0
   -2.4348   -2.7061   23.8279 O   0  0  0  0  0  0
   -0.8370   -1.2047   24.8168 C   0  0  0  0  0  0
   -2.2576    4.0068   25.2303 N   0  0  2  0  0  0
    0.9763    1.4129   26.5664 O   0  0  0  0  0  0
   -2.0211   -1.9387   24.8938 C   0  0  0  0  0  0
   -2.5358   -1.1661   20.0459 C   0  0  0  0  0  0
   -3.4031    1.6843   17.3269 C   0  0  0  0  0  0
   -5.2381    0.8870   18.6901 C   0  0  0  0  0  0
    1.5511    0.3778   24.6761 N   0  0  0  0  0  0
   -2.2717   -2.5127   20.3022 C   0  0  0  0  0  0
   -5.3856    0.8342   16.2816 C   0  0  0  0  0  0
   -0.6663    3.0190   23.5766 C   0  0  0  0  0  0
   -2.8098    1.8101   24.2447 C   0  0  0  0  0  0
   -5.9707    0.6295   17.5319 C   0  0  0  0  0  0
   -4.1058    1.3591   16.1748 C   0  0  0  0  0  0
   -6.0347    0.4677   15.1584 F   0  0  0  0  0  0
   -1.2348    4.2972   24.2250 C   0  0  0  0  0  0
   -3.3494    3.1526   24.7668 C   0  0  0  0  0  0
   -1.1762   -0.4000   27.0643 C   0  0  0  0  0  0
   -2.3420   -1.1561   27.1591 C   0  0  0  0  0  0
   -2.7673   -1.9140   26.0708 C   0  0  0  0  0  0
   -1.6374    4.0850   21.3389 H   0  0  0  0  0  0
   -1.1743    1.0317   23.0493 H   0  0  0  0  0  0
   -0.2808   -1.2408   23.8919 H   0  0  0  0  0  0
   -2.5920    4.8388   25.6951 H   0  0  0  0  0  0
   -2.4868   -0.7830   19.0378 H   0  0  0  0  0  0
   -2.4299    2.1360   17.2289 H   0  0  0  0  0  0
   -5.6808    0.7028   19.6588 H   0  0  0  0  0  0
    2.3227    1.0204   24.5635 H   0  0  0  0  0  0
    1.4726   -0.4301   24.0801 H   0  0  0  0  0  0
   -2.0511   -3.2001   19.4970 H   0  0  0  0  0  0
    0.0407    2.5892   24.2760 H   0  0  0  0  0  0
   -0.0068    3.2664   22.7443 H   0  0  0  0  0  0
   -3.6339    1.1953   23.8857 H   0  0  0  0  0  0
   -2.4343    1.2268   25.0818 H   0  0  0  0  0  0
   -6.9560    0.1968   17.6042 H   0  0  0  0  0  0
   -3.6666    1.5216   15.2010 H   0  0  0  0  0  0
   -0.4272    4.8360   24.7224 H   0  0  0  0  0  0
   -1.6393    4.9692   23.4766 H   0  0  0  0  0  0
   -4.0378    2.9794   25.5963 H   0  0  0  0  0  0
   -3.9201    3.6681   23.9926 H   0  0  0  0  0  0
   -0.8763    0.2036   27.9109 H   0  0  0  0  0  0
   -2.9160   -1.1516   28.0736 H   0  0  0  0  0  0
   -3.6676   -2.4989   26.1470 H   0  0  0  0  0  0
  1  2  1  0  0  0
  1  4  2  0  0  0
  1  6  1  0  0  0
  2  5  1  0  0  0
  2 13  1  0  0  0
  3  4  1  0  0  0
  3  5  2  0  0  0
  4 10  1  0  0  0
  5 35  1  0  0  0
  6  7  1  0  0  0
  6 19  2  0  0  0
  7  8  2  0  0  0
  8 14  1  0  0  0
  8 11  1  0  0  0
  9 12  1  0  0  0
  9 17  2  0  0  0
  9 22  1  0  0  0
 10 20  1  0  0  0
 10 21  2  0  0  0
 11 23  2  0  0  0
 12 15  2  0  0  0
 12 32  1  0  0  0
 13 25  1  0  0  0
 13 26  1  0  0  0
 13 36  1  0  0  0
 14 18  1  0  0  0
 15 18  1  0  0  0
 15 37  1  0  0  0
 16 31  1  0  0  0
 16 30  1  0  0  0
 16 38  1  0  0  0
 18 34  2  0  0  0
 19 23  1  0  0  0
 19 39  1  0  0  0
 20 28  2  0  0  0
 20 40  1  0  0  0
 21 27  1  0  0  0
 21 41  1  0  0  0
 22 42  1  0  0  0
 22 43  1  0  0  0
 23 44  1  0  0  0
 24 27  2  0  0  0
 24 29  1  0  0  0
 24 28  1  0  0  0
 25 30  1  0  0  0
 25 45  1  0  0  0
 25 46  1  0  0  0
 26 31  1  0  0  0
 26 47  1  0  0  0
 26 48  1  0  0  0
 27 49  1  0  0  0
 28 50  1  0  0  0
 30 51  1  0  0  0
 30 52  1  0  0  0
 31 53  1  0  0  0
 31 54  1  0  0  0
 32 33  2  0  0  0
 32 55  1  0  0  0
 33 34  1  0  0  0
 33 56  1  0  0  0
 34 57  1  0  0  0
M  END
> <s_m_entry_id>
60933

> <s_m_entry_name>
dock_pv.210

> <s_m_Source_Path>
/home/csk/Desktop/cluster/DUD-E-result/mk14

> <s_m_Source_File>
dock_pv.maegz

> <i_m_Source_File_Index>
210

> <chembl_id>
CHEMBL268946

> <chembl_pref_name>
None

> <i_lp_mmshare_version>
53161

> <i_f3d_flags>
0

> <r_lp_tautomer_probability>
1

> <s_lp_Force_Field>
OPLS_2005

> <r_lp_Energy>
36.964708

> <b_lp_Chiralities_Consistent>
1

> <s_lp_Variant>
CHEMBL260_lig490-1

> <s_i_glide_gridfile>
glide-grid_2qd9

> <i_i_glide_lignum>
560

> <i_i_glide_rotatable_bonds>
6

> <r_i_docking_score>
-7.94799051037568

> <r_i_glide_ligand_efficiency>
-0.233764426775755

> <r_i_glide_ligand_efficiency_sa>
-0.757305994811425

> <r_i_glide_ligand_efficiency_ln>
-1.75593403732454

> <r_i_glide_gscore>
-7.94799051037568

> <r_i_glide_lipo>
-3.54948712780306

> <r_i_glide_hbond>
-0.146197537347597

> <r_i_glide_metal>
0

> <r_i_glide_rewards>
-2.0560731860014

> <r_i_glide_evdw>
-44.3522415161133

> <r_i_glide_ecoul>
-2.78254103660583

> <r_i_glide_erotb>
0.478404319289098

> <r_i_glide_esite>
-0.0396437472161764

> <r_i_glide_emodel>
-56.1071882085586

> <r_i_glide_energy>
-47.1347825527191

> <r_i_glide_einternal>
8.45133399963379

> <i_i_glide_confnum>
142

> <i_i_glide_posenum>
398

> <r_i_glide_eff_state_penalty>
0

> <s_user_duplicate_titles>
CHEMBL260_lig490,13788

> <s_m_subgroup_title>
dock_pv

> <s_m_subgroupid>
dock_pv

> <b_m_subgroup_collapsed>
1

$$$$
CHEMBL260_lig1782
                    3D
 Schrodinger Suite 2021-1.
 35 38  0  0  1  0            999 V2000
   -0.7454   -0.5951   26.1842 C   0  0  0  0  0  0
   -1.8431   -0.4012   25.1554 C   0  0  0  0  0  0
   -0.7164    0.6049   25.2658 C   0  0  0  0  0  0
   -5.3993    0.7890   16.1829 C   0  0  0  0  0  0
   -4.1264    1.3465   16.1102 C   0  0  0  0  0  0
   -3.4505    1.6869   17.2816 C   0  0  0  0  0  0
   -4.0491    1.4543   18.5299 C   0  0  0  0  0  0
   -5.3229    0.8870   18.5949 C   0  0  0  0  0  0
   -5.9970    0.5827   17.4206 C   0  0  0  0  0  0
   -3.2350    1.9124   20.0306 S   0  0  0  0  0  0
   -2.7296    0.3604   20.7354 C   0  0  0  0  0  0
   -2.5423   -0.7760   19.9428 C   0  0  0  0  0  0
   -2.1710   -2.0024   20.4969 C   0  0  0  0  0  0
   -2.4965    0.2835   22.1079 C   0  0  0  0  0  0
   -1.8225   -1.3180   23.9462 C   0  0  0  0  0  0
   -2.1270   -0.9184   22.6603 N   0  0  0  0  0  0
   -1.9732   -2.0793   21.8828 C   0  0  0  0  0  0
   -1.6351   -3.1130   22.6837 N   0  0  0  0  0  0
   -1.5484   -2.6072   23.9680 N   0  0  0  0  0  0
   -6.0349    0.3914   15.0636 F   0  0  0  0  0  0
   -3.2293    0.0108   25.6723 C   0  0  0  0  0  0
   -5.9193    0.6371   19.7844 F   0  0  0  0  0  0
   -0.0110   -1.3890   26.0377 H   0  0  0  0  0  0
   -0.9812   -0.4522   27.2394 H   0  0  0  0  0  0
   -0.9268    1.5919   25.6791 H   0  0  0  0  0  0
    0.0360    0.6447   24.4767 H   0  0  0  0  0  0
   -3.6625    1.5061   15.1477 H   0  0  0  0  0  0
   -2.4781    2.1456   17.1854 H   0  0  0  0  0  0
   -6.9398    0.0868   17.4914 H   0  0  0  0  0  0
   -2.6685   -0.7129   18.8757 H   0  0  0  0  0  0
   -2.0355   -2.8761   19.8760 H   0  0  0  0  0  0
   -2.5953    1.1230   22.7796 H   0  0  0  0  0  0
   -3.1670    0.7078   26.5090 H   0  0  0  0  0  0
   -3.8156    0.4886   24.8876 H   0  0  0  0  0  0
   -3.7786   -0.8661   26.0152 H   0  0  0  0  0  0
  1  3  1  0  0  0
  1  2  1  0  0  0
  1 23  1  0  0  0
  1 24  1  0  0  0
  2  3  1  0  0  0
  2 15  1  0  0  0
  2 21  1  0  0  0
  3 25  1  0  0  0
  3 26  1  0  0  0
  4  9  1  0  0  0
  4  5  2  0  0  0
  4 20  1  0  0  0
  5  6  1  0  0  0
  5 27  1  0  0  0
  6  7  2  0  0  0
  6 28  1  0  0  0
  7  8  1  0  0  0
  7 10  1  0  0  0
  8  9  2  0  0  0
  8 22  1  0  0  0
  9 29  1  0  0  0
 10 11  1  0  0  0
 11 12  1  0  0  0
 11 14  2  0  0  0
 12 13  2  0  0  0
 12 30  1  0  0  0
 13 17  1  0  0  0
 13 31  1  0  0  0
 14 16  1  0  0  0
 14 32  1  0  0  0
 15 16  1  0  0  0
 15 19  2  0  0  0
 16 17  1  0  0  0
 17 18  2  0  0  0
 18 19  1  0  0  0
 21 33  1  0  0  0
 21 34  1  0  0  0
 21 35  1  0  0  0
M  END
> <s_m_entry_id>
60934

> <s_m_entry_name>
dock_pv.211

> <s_m_Source_Path>
/home/csk/Desktop/cluster/DUD-E-result/mk14

> <s_m_Source_File>
dock_pv.maegz

> <i_m_Source_File_Index>
211

> <chembl_id>
CHEMBL593423

> <chembl_pref_name>
None

> <i_lp_mmshare_version>
53161

> <i_f3d_flags>
0

> <r_lp_tautomer_probability>
1

> <s_lp_Force_Field>
OPLS_2005

> <r_lp_Energy>
15.425262

> <b_lp_Chiralities_Consistent>
1

> <s_lp_Variant>
CHEMBL260_lig1782-1

> <s_i_glide_gridfile>
glide-grid_2qd9

> <i_i_glide_lignum>
2078

> <i_i_glide_rotatable_bonds>
3

> <r_i_docking_score>
-7.93414245373237

> <r_i_glide_ligand_efficiency>
-0.360642838806017

> <r_i_glide_ligand_efficiency_sa>
-1.01053541761247

> <r_i_glide_ligand_efficiency_ln>
-1.93939382056993

> <r_i_glide_gscore>
-7.93414245373237

> <r_i_glide_lipo>
-3.15232450924426

> <r_i_glide_hbond>
0

> <r_i_glide_metal>
0

> <r_i_glide_rewards>
-2.88246029812283

> <r_i_glide_evdw>
-32.9484062194824

> <r_i_glide_ecoul>
-5.23604297637939

> <r_i_glide_erotb>
0.554920500986299

> <r_i_glide_esite>
-0.0214513899205423

> <r_i_glide_emodel>
-55.3688863596923

> <r_i_glide_energy>
-38.1844491958618

> <r_i_glide_einternal>
0.330710768699646

> <i_i_glide_confnum>
1

> <i_i_glide_posenum>
383

> <r_i_glide_eff_state_penalty>
0

> <s_user_duplicate_titles>
CHEMBL260_lig1782,595253

> <s_m_subgroup_title>
dock_pv

> <s_m_subgroupid>
dock_pv

> <b_m_subgroup_collapsed>
1

$$$$
CHEMBL260_lig933
                    3D
 Schrodinger Suite 2021-1.
 42 45  0  0  1  0            999 V2000
   -2.4350   -1.5730   27.6158 C   0  0  0  0  0  0
   -1.4834   -0.6373   28.0089 C   0  0  0  0  0  0
   -0.6891   -0.0124   27.0503 C   0  0  0  0  0  0
   -2.5656   -1.9129   26.2703 C   0  0  0  0  0  0
   -1.7671   -1.2863   25.3021 C   0  0  0  0  0  0
   -0.8281   -0.3157   25.6904 C   0  0  0  0  0  0
   -0.0725    0.4653   24.6345 C   0  0  0  0  0  0
   -1.9264   -1.7716   23.8912 C   0  0  0  0  0  0
   -1.0237    1.2739   23.7412 C   0  0  0  0  0  0
   -2.2001   -0.8337   22.7360 C   0  0  0  0  0  0
   -1.8387    0.5348   22.6767 C   0  0  0  0  0  0
   -2.2724    1.2869   21.5812 C   0  0  0  0  0  0
   -2.9544    0.7217   20.5115 C   0  0  0  0  0  0
   -3.2350   -0.6416   20.5327 C   0  0  0  0  0  0
   -2.8715   -1.4104   21.6377 C   0  0  0  0  0  0
   -2.0351   -2.9951   23.7257 O   0  0  0  0  0  0
   -3.2351    1.5612   19.4265 N   0  0  0  0  0  0
   -3.9119    1.3432   18.2145 C   0  0  0  0  0  0
   -5.2388    0.8870   18.1184 C   0  0  0  0  0  0
   -5.8403    0.7894   16.8628 C   0  0  0  0  0  0
   -5.1478    1.1171   15.7023 C   0  0  0  0  0  0
   -3.8368    1.5658   15.7937 C   0  0  0  0  0  0
   -3.2341    1.6871   17.0409 C   0  0  0  0  0  0
   -5.9863    0.4875   19.2293 N   0  0  0  0  0  0
   -3.0491   -2.0608   28.3585 H   0  0  0  0  0  0
   -1.3650   -0.3906   29.0540 H   0  0  0  0  0  0
    0.0276    0.7313   27.3686 H   0  0  0  0  0  0
   -3.2903   -2.6664   25.9954 H   0  0  0  0  0  0
    0.6145    1.1545   25.1295 H   0  0  0  0  0  0
    0.5719   -0.1977   24.0547 H   0  0  0  0  0  0
   -1.7186    1.8351   24.3683 H   0  0  0  0  0  0
   -0.4234    2.0320   23.2342 H   0  0  0  0  0  0
   -2.0347    2.3399   21.5450 H   0  0  0  0  0  0
   -3.7302   -1.1125   19.6965 H   0  0  0  0  0  0
   -3.1383   -2.4587   21.6158 H   0  0  0  0  0  0
   -2.5867    2.3321   19.3816 H   0  0  0  0  0  0
   -6.8350    0.3957   16.7798 H   0  0  0  0  0  0
   -5.6213    1.0090   14.7376 H   0  0  0  0  0  0
   -3.2832    1.8188   14.9019 H   0  0  0  0  0  0
   -2.2205    2.0552   17.0759 H   0  0  0  0  0  0
   -6.8333   -0.0444   19.0760 H   0  0  0  0  0  0
   -5.5234    0.4787   20.1271 H   0  0  0  0  0  0
  1  2  2  0  0  0
  1  4  1  0  0  0
  1 25  1  0  0  0
  2  3  1  0  0  0
  2 26  1  0  0  0
  3  6  2  0  0  0
  3 27  1  0  0  0
  4  5  2  0  0  0
  4 28  1  0  0  0
  5  6  1  0  0  0
  5  8  1  0  0  0
  6  7  1  0  0  0
  7  9  1  0  0  0
  7 29  1  0  0  0
  7 30  1  0  0  0
  8 16  2  0  0  0
  8 10  1  0  0  0
  9 11  1  0  0  0
  9 31  1  0  0  0
  9 32  1  0  0  0
 10 15  1  0  0  0
 10 11  2  0  0  0
 11 12  1  0  0  0
 12 13  2  0  0  0
 12 33  1  0  0  0
 13 14  1  0  0  0
 13 17  1  0  0  0
 14 15  2  0  0  0
 14 34  1  0  0  0
 15 35  1  0  0  0
 17 18  1  0  0  0
 17 36  1  0  0  0
 18 19  2  0  0  0
 18 23  1  0  0  0
 19 20  1  0  0  0
 19 24  1  0  0  0
 20 21  2  0  0  0
 20 37  1  0  0  0
 21 22  1  0  0  0
 21 38  1  0  0  0
 22 23  2  0  0  0
 22 39  1  0  0  0
 23 40  1  0  0  0
 24 41  1  0  0  0
 24 42  1  0  0  0
M  END
> <s_m_entry_id>
60935

> <s_m_entry_name>
dock_pv.212

> <s_m_Source_Path>
/home/csk/Desktop/cluster/DUD-E-result/mk14

> <s_m_Source_File>
dock_pv.maegz

> <i_m_Source_File_Index>
212

> <chembl_id>
CHEMBL218962

> <chembl_pref_name>
None

> <i_lp_mmshare_version>
53161

> <i_f3d_flags>
0

> <r_lp_tautomer_probability>
1

> <s_lp_Force_Field>
OPLS_2005

> <r_lp_Energy>
37.416627

> <b_lp_Chiralities_Consistent>
1

> <s_lp_Variant>
CHEMBL260_lig933-1

> <s_i_glide_gridfile>
glide-grid_2qd9

> <i_i_glide_lignum>
1036

> <i_i_glide_rotatable_bonds>
2

> <r_i_docking_score>
-7.9193539607

> <r_i_glide_ligand_efficiency>
-0.329973081695833

> <r_i_glide_ligand_efficiency_sa>
-0.951807069569356

> <r_i_glide_ligand_efficiency_ln>
-1.8954647982696

> <r_i_glide_gscore>
-7.9193539607

> <r_i_glide_lipo>
-3.45392389016977

> <r_i_glide_hbond>
-0.520879996354541

> <r_i_glide_metal>
0

> <r_i_glide_rewards>
-1.62225721649875

> <r_i_glide_evdw>
-38.958984375

> <r_i_glide_ecoul>
-5.00317716598511

> <r_i_glide_erotb>
0.376132935970819

> <r_i_glide_esite>
0

> <r_i_glide_emodel>
-58.2766649861345

> <r_i_glide_energy>
-43.9621615409851

> <r_i_glide_einternal>
9.10828685760498

> <i_i_glide_confnum>
49

> <i_i_glide_posenum>
267

> <r_i_glide_eff_state_penalty>
0

> <s_user_duplicate_titles>
CHEMBL260_lig933,365310

> <s_m_subgroup_title>
dock_pv

> <s_m_subgroupid>
dock_pv

> <b_m_subgroup_collapsed>
1

$$$$
CHEMBL260_lig945
                    3D
 Schrodinger Suite 2021-1.
 39 41  0  0  1  0            999 V2000
   -1.7467   -2.4243   22.9491 C   0  0  0  0  0  0
   -1.8276   -3.0209   21.6262 C   0  0  0  0  0  0
   -2.1711   -2.3128   20.5312 C   0  0  0  0  0  0
   -2.4350   -0.9121   20.6313 C   0  0  0  0  0  0
   -2.3111   -0.3156   21.7646 N   0  0  0  0  0  0
   -1.8986   -1.0485   22.8905 N   0  0  0  0  0  0
   -1.7341   -0.2716   24.0584 C   0  0  0  0  0  0
   -2.8352    0.4340   24.5682 C   0  0  0  0  0  0
   -2.7068    1.2121   25.7181 C   0  0  0  0  0  0
   -1.4753    1.3038   26.3636 C   0  0  0  0  0  0
   -0.3678    0.6280   25.8536 C   0  0  0  0  0  0
   -0.4830   -0.1520   24.7014 C   0  0  0  0  0  0
   -1.6342   -3.1130   23.9609 O   0  0  0  0  0  0
    0.9505   -0.9107   24.0896 Cl  0  0  0  0  0  0
   -2.8353   -0.2784   19.4887 N   0  0  0  0  0  0
   -3.2679    1.1031   19.4162 C   0  0  0  0  0  0
   -3.8942    1.2870   18.0485 C   0  0  0  0  0  0
   -5.2546    1.0183   17.8333 C   0  0  0  0  0  0
   -5.7927    1.2167   16.5634 C   0  0  0  0  0  0
   -5.0022    1.6603   15.5120 C   0  0  0  0  0  0
   -3.6445    1.8781   15.7114 C   0  0  0  0  0  0
   -3.0946    1.6938   16.9717 C   0  0  0  0  0  0
   -6.1602    0.4993   18.9414 C   0  0  0  0  0  0
   -1.6351   -4.0738   21.5231 H   0  0  0  0  0  0
   -2.2446   -2.8263   19.5833 H   0  0  0  0  0  0
   -3.7971    0.3696   24.0794 H   0  0  0  0  0  0
   -3.5619    1.7432   26.1101 H   0  0  0  0  0  0
   -1.3738    1.9056   27.2552 H   0  0  0  0  0  0
    0.5886    0.7181   26.3492 H   0  0  0  0  0  0
   -2.5947   -0.6940   18.6029 H   0  0  0  0  0  0
   -2.4351    1.7883   19.5528 H   0  0  0  0  0  0
   -3.9791    1.3422   20.2091 H   0  0  0  0  0  0
   -6.8350    1.0292   16.3832 H   0  0  0  0  0  0
   -5.4542    1.8322   14.5515 H   0  0  0  0  0  0
   -3.0096    2.1995   14.9006 H   0  0  0  0  0  0
   -2.0356    1.8775   17.0760 H   0  0  0  0  0  0
   -6.3816    1.2845   19.6640 H   0  0  0  0  0  0
   -7.0958    0.1030   18.5452 H   0  0  0  0  0  0
   -5.6730   -0.3133   19.4758 H   0  0  0  0  0  0
  1  6  1  0  0  0
  1 13  2  0  0  0
  1  2  1  0  0  0
  2  3  2  0  0  0
  2 24  1  0  0  0
  3  4  1  0  0  0
  3 25  1  0  0  0
  4 15  1  0  0  0
  4  5  2  0  0  0
  5  6  1  0  0  0
  6  7  1  0  0  0
  7 12  1  0  0  0
  7  8  2  0  0  0
  8  9  1  0  0  0
  8 26  1  0  0  0
  9 10  2  0  0  0
  9 27  1  0  0  0
 10 11  1  0  0  0
 10 28  1  0  0  0
 11 12  2  0  0  0
 11 29  1  0  0  0
 12 14  1  0  0  0
 15 16  1  0  0  0
 15 30  1  0  0  0
 16 17  1  0  0  0
 16 31  1  0  0  0
 16 32  1  0  0  0
 17 18  2  0  0  0
 17 22  1  0  0  0
 18 19  1  0  0  0
 18 23  1  0  0  0
 19 20  2  0  0  0
 19 33  1  0  0  0
 20 21  1  0  0  0
 20 34  1  0  0  0
 21 22  2  0  0  0
 21 35  1  0  0  0
 22 36  1  0  0  0
 23 37  1  0  0  0
 23 38  1  0  0  0
 23 39  1  0  0  0
M  END
> <s_m_entry_id>
60936

> <s_m_entry_name>
dock_pv.213

> <s_m_Source_Path>
/home/csk/Desktop/cluster/DUD-E-result/mk14

> <s_m_Source_File>
dock_pv.maegz

> <i_m_Source_File_Index>
213

> <chembl_id>
CHEMBL374312

> <chembl_pref_name>
None

> <i_lp_mmshare_version>
53161

> <i_f3d_flags>
0

> <r_lp_tautomer_probability>
0.999999999999446

> <s_lp_Force_Field>
OPLS_2005

> <r_lp_Energy>
38.389698

> <b_lp_Chiralities_Consistent>
1

> <s_lp_Variant>
CHEMBL260_lig945-1

> <s_i_glide_gridfile>
glide-grid_2qd9

> <i_i_glide_lignum>
1048

> <i_i_glide_rotatable_bonds>
4

> <r_i_docking_score>
-7.91896105684663

> <r_i_glide_ligand_efficiency>
-0.344302654645505

> <r_i_glide_ligand_efficiency_sa>
-0.979150949598216

> <r_i_glide_ligand_efficiency_ln>
-1.91487658871442

> <r_i_glide_gscore>
-7.91896105684663

> <r_i_glide_lipo>
-3.49323330645921

> <r_i_glide_hbond>
-0.33156104016893

> <r_i_glide_metal>
0

> <r_i_glide_rewards>
-2.13923608701128

> <r_i_glide_evdw>
-38.2263603210449

> <r_i_glide_ecoul>
-5.00049448013306

> <r_i_glide_erotb>
0.706461564865002

> <r_i_glide_esite>
0

> <r_i_glide_emodel>
-59.4917138418495

> <r_i_glide_energy>
-43.226854801178

> <r_i_glide_einternal>
4.96259546279907

> <i_i_glide_confnum>
57

> <i_i_glide_posenum>
167

> <r_i_glide_eff_state_penalty>
0

> <s_user_duplicate_titles>
CHEMBL260_lig945

> <s_m_subgroup_title>
dock_pv

> <s_m_subgroupid>
dock_pv

> <b_m_subgroup_collapsed>
1

$$$$
CHEMBL260_lig624
                    3D
 Schrodinger Suite 2021-1.
 55 58  0  0  1  0            999 V2000
   -2.6271    1.1007   21.3463 C   0  0  0  0  0  0
   -2.9880    1.8422   20.2760 C   0  0  0  0  0  0
   -2.0407    1.9467   22.2886 N   0  0  0  0  0  0
   -2.4541    3.1688   20.4746 C   0  0  0  0  0  0
   -2.0346    3.2464   21.7265 O   0  0  0  0  0  0
   -2.5299   -0.3765   21.4359 C   0  0  0  0  0  0
   -1.9747   -0.8746   22.5785 N   0  0  0  0  0  0
   -1.5970   -2.1796   22.5732 C   0  0  0  0  0  0
   -0.8815   -2.7128   23.6504 N   0  0  0  0  0  0
   -3.8117    1.4780   19.0822 C   0  0  0  0  0  0
   -1.7755   -3.0365   21.5382 N   0  0  0  0  0  0
   -2.4249    4.0871   19.6725 O   0  0  0  0  0  0
   -2.6074    2.0813   23.6256 C   0  0  0  0  0  0
   -0.2307   -1.9392   24.7116 C   0  0  2  0  0  0
   -2.7496   -1.1972   20.3286 C   0  0  0  0  0  0
   -5.0945    0.9479   19.2773 C   0  0  0  0  0  0
   -3.3740    1.6870   17.7649 C   0  0  0  0  0  0
   -1.1232   -1.5136   25.8809 C   0  0  0  0  0  0
   -2.3437   -2.5140   20.4237 C   0  0  0  0  0  0
   -5.4526    0.8870   16.8938 C   0  0  0  0  0  0
   -5.9228    0.6762   18.1890 C   0  0  0  0  0  0
   -4.1773    1.3784   16.6771 C   0  0  0  0  0  0
   -6.2074    0.5544   15.8281 F   0  0  0  0  0  0
   -1.9380    2.9819   24.4578 O   0  0  0  0  0  0
    0.7386   -0.8495   24.2010 C   0  0  0  0  0  0
   -2.4990   -1.7705   25.8999 C   0  0  0  0  0  0
   -0.5114   -0.9664   27.0172 C   0  0  0  0  0  0
   -0.6358    2.5691   24.8608 C   0  0  0  0  0  0
   -0.0425    3.6356   25.7826 C   0  0  0  0  0  0
   -1.2518   -0.7092   28.1647 C   0  0  0  0  0  0
   -3.2351   -1.5235   27.0516 C   0  0  0  0  0  0
   -2.6098   -1.0039   28.1813 C   0  0  0  0  0  0
   -0.5588   -3.6598   23.5382 H   0  0  0  0  0  0
   -3.6349    2.4377   23.5477 H   0  0  0  0  0  0
   -2.6461    1.1131   24.1277 H   0  0  0  0  0  0
    0.3724   -2.7093   25.1803 H   0  0  0  0  0  0
   -3.1184   -0.8500   19.3811 H   0  0  0  0  0  0
   -5.4660    0.7734   20.2756 H   0  0  0  0  0  0
   -2.4358    2.1525   17.5399 H   0  0  0  0  0  0
   -2.4353   -3.1178   19.5408 H   0  0  0  0  0  0
   -6.9129    0.2708   18.3404 H   0  0  0  0  0  0
   -3.8237    1.5434   15.6695 H   0  0  0  0  0  0
    1.3460   -0.4299   25.0017 H   0  0  0  0  0  0
    1.4353   -1.2607   23.4766 H   0  0  0  0  0  0
    0.2171   -0.0227   23.7235 H   0  0  0  0  0  0
   -3.0003   -2.2022   25.0475 H   0  0  0  0  0  0
    0.5525   -0.7812   27.0406 H   0  0  0  0  0  0
   -0.6889    1.6160   25.3900 H   0  0  0  0  0  0
    0.0154    2.4332   23.9951 H   0  0  0  0  0  0
    0.9543    3.3473   26.1185 H   0  0  0  0  0  0
    0.0438    4.5932   25.2688 H   0  0  0  0  0  0
   -0.6643    3.7806   26.6666 H   0  0  0  0  0  0
   -0.7681   -0.3098   29.0441 H   0  0  0  0  0  0
   -4.2893   -1.7549   27.0730 H   0  0  0  0  0  0
   -3.1839   -0.8258   29.0784 H   0  0  0  0  0  0
  1  2  2  0  0  0
  1  3  1  0  0  0
  1  6  1  0  0  0
  2  4  1  0  0  0
  2 10  1  0  0  0
  3  5  1  0  0  0
  3 13  1  0  0  0
  4 12  2  0  0  0
  4  5  1  0  0  0
  6  7  1  0  0  0
  6 15  2  0  0  0
  7  8  2  0  0  0
  8  9  1  0  0  0
  8 11  1  0  0  0
  9 14  1  0  0  0
  9 33  1  0  0  0
 10 16  2  0  0  0
 10 17  1  0  0  0
 11 19  2  0  0  0
 13 24  1  0  0  0
 13 34  1  0  0  0
 13 35  1  0  0  0
 14 18  1  0  0  0
 14 25  1  0  0  0
 14 36  1  0  0  0
 15 19  1  0  0  0
 15 37  1  0  0  0
 16 21  1  0  0  0
 16 38  1  0  0  0
 17 22  2  0  0  0
 17 39  1  0  0  0
 18 26  2  0  0  0
 18 27  1  0  0  0
 19 40  1  0  0  0
 20 22  1  0  0  0
 20 23  1  0  0  0
 20 21  2  0  0  0
 21 41  1  0  0  0
 22 42  1  0  0  0
 24 28  1  0  0  0
 25 43  1  0  0  0
 25 44  1  0  0  0
 25 45  1  0  0  0
 26 31  1  0  0  0
 26 46  1  0  0  0
 27 30  2  0  0  0
 27 47  1  0  0  0
 28 29  1  0  0  0
 28 48  1  0  0  0
 28 49  1  0  0  0
 29 50  1  0  0  0
 29 51  1  0  0  0
 29 52  1  0  0  0
 30 32  1  0  0  0
 30 53  1  0  0  0
 31 32  2  0  0  0
 31 54  1  0  0  0
 32 55  1  0  0  0
M  END
> <s_m_entry_id>
60937

> <s_m_entry_name>
dock_pv.214

> <s_m_Source_Path>
/home/csk/Desktop/cluster/DUD-E-result/mk14

> <s_m_Source_File>
dock_pv.maegz

> <i_m_Source_File_Index>
214

> <chembl_id>
CHEMBL436102

> <chembl_pref_name>
None

> <i_lp_mmshare_version>
53161

> <i_f3d_flags>
0

> <r_lp_tautomer_probability>
0.999999987636

> <s_lp_Force_Field>
OPLS_2005

> <r_lp_Energy>
11.984827

> <b_lp_Chiralities_Consistent>
1

> <s_lp_Variant>
CHEMBL260_lig624-1

> <s_i_glide_gridfile>
glide-grid_2qd9

> <i_i_glide_lignum>
710

> <i_i_glide_rotatable_bonds>
8

> <r_i_docking_score>
-7.89899607470078

> <r_i_glide_ligand_efficiency>
-0.246843627334399

> <r_i_glide_ligand_efficiency_sa>
-0.783679666499201

> <r_i_glide_ligand_efficiency_ln>
-1.76880053962632

> <r_i_glide_gscore>
-7.89899607470078

> <r_i_glide_lipo>
-3.64644650794707

> <r_i_glide_hbond>
-0.0166566752270715

> <r_i_glide_metal>
0

> <r_i_glide_rewards>
-2.33276085779736

> <r_i_glide_evdw>
-39.2160301208496

> <r_i_glide_ecoul>
-4.53936338424683

> <r_i_glide_erotb>
0.738573979950234

> <r_i_glide_esite>
0

> <r_i_glide_emodel>
-59.5876815147947

> <r_i_glide_energy>
-43.7553935050964

> <r_i_glide_einternal>
10.9093370437622

> <i_i_glide_confnum>
30

> <i_i_glide_posenum>
209

> <r_i_glide_eff_state_penalty>
0

> <s_user_duplicate_titles>
CHEMBL260_lig624,325699

> <s_m_subgroup_title>
dock_pv

> <s_m_subgroupid>
dock_pv

> <b_m_subgroup_collapsed>
1

$$$$
CHEMBL260_lig268
                    3D
 Schrodinger Suite 2021-1.
 44 46  0  0  1  0            999 V2000
   -2.2036   -0.9688   22.7793 C   0  0  0  0  0  0
   -1.7659   -1.8776   23.9212 C   0  0  0  0  0  0
   -3.2341    1.6812   19.5669 N   0  0  0  0  0  0
   -2.4952   -1.4409   21.4837 C   0  0  0  0  0  0
   -2.9501    0.8136   20.6586 C   0  0  0  0  0  0
   -2.8635   -0.5652   20.4550 C   0  0  0  0  0  0
   -1.3801   -1.2925   25.2375 C   0  0  0  0  0  0
   -3.8712    1.3836   18.3339 C   0  0  0  0  0  0
   -2.3305    0.4164   22.9873 C   0  0  0  0  0  0
   -1.7908   -3.1127   23.8404 O   0  0  0  0  0  0
   -2.6821    1.2859   21.9525 C   0  0  0  0  0  0
   -5.1864    0.8868   18.2743 C   0  0  0  0  0  0
   -0.1212   -0.6909   25.4702 C   0  0  0  0  0  0
   -2.4042   -3.1132   21.0736 Cl  0  0  0  0  0  0
   -5.8932    0.4977   19.4149 N   0  0  0  0  0  0
   -2.8489    3.0910   19.7096 C   0  0  0  0  0  0
   -2.2943   -1.4145   26.2910 C   0  0  0  0  0  0
   -3.2271    1.6771   17.1127 C   0  0  0  0  0  0
    0.9431   -0.5609   24.3825 C   0  0  0  0  0  0
   -5.8402    0.7706   17.0409 C   0  0  0  0  0  0
    0.1807   -0.2238   26.7583 C   0  0  0  0  0  0
   -1.9741   -0.9426   27.5642 C   0  0  0  0  0  0
   -3.8608    1.5067   15.8880 C   0  0  0  0  0  0
   -5.1778    1.0697   15.8550 C   0  0  0  0  0  0
   -0.7327   -0.3499   27.8000 C   0  0  0  0  0  0
   -3.0528   -0.9698   19.4763 H   0  0  0  0  0  0
   -2.1314    0.8530   23.9554 H   0  0  0  0  0  0
   -2.7375    2.3347   22.1816 H   0  0  0  0  0  0
   -6.7954    0.0529   19.3067 H   0  0  0  0  0  0
   -5.4231    0.5383   20.3078 H   0  0  0  0  0  0
   -2.8194    3.6056   18.7548 H   0  0  0  0  0  0
   -3.5840    3.6234   20.3013 H   0  0  0  0  0  0
   -1.8759    3.2072   20.1858 H   0  0  0  0  0  0
   -3.2548   -1.8893   26.1449 H   0  0  0  0  0  0
   -2.2209    2.0628   17.0755 H   0  0  0  0  0  0
    1.4460   -1.5147   24.2341 H   0  0  0  0  0  0
    0.5148   -0.2413   23.4298 H   0  0  0  0  0  0
    1.6974    0.1791   24.6548 H   0  0  0  0  0  0
   -6.8333    0.3860   17.0071 H   0  0  0  0  0  0
    1.1460    0.2240   26.9588 H   0  0  0  0  0  0
   -2.6819   -1.0501   28.3693 H   0  0  0  0  0  0
   -3.3414    1.7315   14.9741 H   0  0  0  0  0  0
   -5.6782    0.9231   14.9080 H   0  0  0  0  0  0
   -0.4830    0.0086   28.7873 H   0  0  0  0  0  0
  1  2  1  0  0  0
  1  4  1  0  0  0
  1  9  2  0  0  0
  2  7  1  0  0  0
  2 10  2  0  0  0
  3  5  1  0  0  0
  3  8  1  0  0  0
  3 16  1  0  0  0
  4  6  2  0  0  0
  4 14  1  0  0  0
  5 11  2  0  0  0
  5  6  1  0  0  0
  6 26  1  0  0  0
  7 13  2  0  0  0
  7 17  1  0  0  0
  8 12  2  0  0  0
  8 18  1  0  0  0
  9 11  1  0  0  0
  9 27  1  0  0  0
 11 28  1  0  0  0
 12 15  1  0  0  0
 12 20  1  0  0  0
 13 19  1  0  0  0
 13 21  1  0  0  0
 15 29  1  0  0  0
 15 30  1  0  0  0
 16 31  1  0  0  0
 16 32  1  0  0  0
 16 33  1  0  0  0
 17 22  2  0  0  0
 17 34  1  0  0  0
 18 23  2  0  0  0
 18 35  1  0  0  0
 19 36  1  0  0  0
 19 37  1  0  0  0
 19 38  1  0  0  0
 20 24  2  0  0  0
 20 39  1  0  0  0
 21 25  2  0  0  0
 21 40  1  0  0  0
 22 25  1  0  0  0
 22 41  1  0  0  0
 23 24  1  0  0  0
 23 42  1  0  0  0
 24 43  1  0  0  0
 25 44  1  0  0  0
M  END
> <s_m_entry_id>
60938

> <s_m_entry_name>
dock_pv.215

> <s_m_Source_Path>
/home/csk/Desktop/cluster/DUD-E-result/mk14

> <s_m_Source_File>
dock_pv.maegz

> <i_m_Source_File_Index>
215

> <chembl_id>
CHEMBL347770

> <chembl_pref_name>
None

> <i_lp_mmshare_version>
53161

> <i_f3d_flags>
0

> <r_lp_tautomer_probability>
1

> <s_lp_Force_Field>
OPLS_2005

> <r_lp_Energy>
36.052364

> <b_lp_Chiralities_Consistent>
1

> <s_lp_Variant>
CHEMBL260_lig268-1

> <s_i_glide_gridfile>
glide-grid_2qd9

> <i_i_glide_lignum>
319

> <i_i_glide_rotatable_bonds>
4

> <r_i_docking_score>
-7.88451721979834

> <r_i_glide_ligand_efficiency>
-0.315380688791934

> <r_i_glide_ligand_efficiency_sa>
-0.922178727327946

> <r_i_glide_ligand_efficiency_ln>
-1.86886686100667

> <r_i_glide_gscore>
-7.88451721979834

> <r_i_glide_lipo>
-3.85057052907154

> <r_i_glide_hbond>
-0.439705901628469

> <r_i_glide_metal>
0

> <r_i_glide_rewards>
-1.37763634388755

> <r_i_glide_evdw>
-43.1780891418457

> <r_i_glide_ecoul>
-4.51515054702759

> <r_i_glide_erotb>
0.619572593935633

> <r_i_glide_esite>
0

> <r_i_glide_emodel>
-60.9357385814668

> <r_i_glide_energy>
-47.6932396888733

> <r_i_glide_einternal>
7.87554693222046

> <i_i_glide_confnum>
37

> <i_i_glide_posenum>
24

> <r_i_glide_eff_state_penalty>
0

> <s_user_duplicate_titles>
CHEMBL260_lig268,254977

> <s_m_subgroup_title>
dock_pv

> <s_m_subgroupid>
dock_pv

> <b_m_subgroup_collapsed>
1

$$$$
CHEMBL260_lig178
                    3D
 Schrodinger Suite 2021-1.
 56 60  0  0  1  0            999 V2000
   -2.8265    1.2043   21.0180 C   0  0  0  0  0  0
   -2.2628    2.1745   21.8450 N   0  0  0  0  0  0
   -2.8345    3.1710   19.9092 N   0  0  0  0  0  0
   -3.2361    1.9172   19.8714 C   0  0  0  0  0  0
   -2.1934    3.2800   21.0311 C   0  0  0  0  0  0
   -2.7919   -0.2819   21.2515 C   0  0  0  0  0  0
   -2.5038   -0.7530   22.4977 N   0  0  0  0  0  0
   -2.1103   -2.0509   22.6001 C   0  0  0  0  0  0
   -3.9802    1.4730   18.6568 C   0  0  0  0  0  0
   -1.7409    2.0556   23.2311 C   0  0  2  0  0  0
   -2.0495   -2.9303   21.5721 N   0  0  0  0  0  0
   -1.6082   -2.5253   23.8142 N   0  0  0  0  0  0
   -2.7883   -1.1347   20.1449 C   0  0  0  0  0  0
   -5.2499    0.8980   18.7618 C   0  0  0  0  0  0
   -3.4127    1.6854   17.3934 C   0  0  0  0  0  0
   -2.9792    2.0594   24.1654 C   0  0  0  0  0  0
   -0.7806    3.2149   23.6206 C   0  0  0  0  0  0
   -2.4166   -2.4552   20.3558 C   0  0  0  0  0  0
   -5.3921    0.8226   16.3536 C   0  0  0  0  0  0
   -1.5947   -1.9134   25.0709 C   0  0  0  0  0  0
   -5.9798    0.6257   17.6048 C   0  0  0  0  0  0
   -4.1125    1.3480   16.2433 C   0  0  0  0  0  0
   -6.0351    0.4426   15.2316 F   0  0  0  0  0  0
   -2.6032    2.0297   25.6563 C   0  0  0  0  0  0
   -0.3665    3.1410   25.1037 C   0  0  0  0  0  0
   -1.5878    3.1199   26.0450 C   0  0  2  0  0  0
   -1.1844    2.9632   27.3871 O   0  0  0  0  0  0
   -2.7467   -1.9121   25.8579 C   0  0  0  0  0  0
   -0.4018   -1.3891   25.5679 C   0  0  0  0  0  0
   -0.3577   -0.8731   26.8615 C   0  0  0  0  0  0
   -2.6959   -1.4239   27.1609 C   0  0  0  0  0  0
   -1.5013   -0.9056   27.6573 C   0  0  0  0  0  0
   -1.5468    4.0869   21.2976 H   0  0  0  0  0  0
   -1.1774    1.1253   23.2514 H   0  0  0  0  0  0
   -1.0443   -3.3541   23.7246 H   0  0  0  0  0  0
   -2.9643   -0.7925   19.1389 H   0  0  0  0  0  0
   -5.6921    0.7207   19.7316 H   0  0  0  0  0  0
   -2.4346    2.1297   17.2933 H   0  0  0  0  0  0
   -3.6367    2.8988   23.9395 H   0  0  0  0  0  0
   -3.5743    1.1630   23.9875 H   0  0  0  0  0  0
    0.1394    3.1279   23.0407 H   0  0  0  0  0  0
   -1.1992    4.1966   23.4018 H   0  0  0  0  0  0
   -2.3579   -3.1338   19.5190 H   0  0  0  0  0  0
   -6.9642    0.1895   17.6792 H   0  0  0  0  0  0
   -3.6688    1.4956   15.2693 H   0  0  0  0  0  0
   -2.1838    1.0526   25.8834 H   0  0  0  0  0  0
   -3.5030    2.1221   26.2661 H   0  0  0  0  0  0
    0.2412    2.2489   25.2666 H   0  0  0  0  0  0
    0.2751    3.9888   25.3493 H   0  0  0  0  0  0
   -2.0863    4.0900   26.0013 H   0  0  0  0  0  0
   -0.6991    2.1380   27.4681 H   0  0  0  0  0  0
   -3.6716   -2.3136   25.4772 H   0  0  0  0  0  0
    0.4963   -1.4004   24.9660 H   0  0  0  0  0  0
    0.5690   -0.4800   27.2557 H   0  0  0  0  0  0
   -3.5759   -1.4587   27.7858 H   0  0  0  0  0  0
   -1.4582   -0.5327   28.6703 H   0  0  0  0  0  0
  1  2  1  0  0  0
  1  4  2  0  0  0
  1  6  1  0  0  0
  2  5  1  0  0  0
  2 10  1  0  0  0
  3  4  1  0  0  0
  3  5  2  0  0  0
  4  9  1  0  0  0
  5 33  1  0  0  0
  6  7  2  0  0  0
  6 13  1  0  0  0
  7  8  1  0  0  0
  8 12  1  0  0  0
  8 11  2  0  0  0
  9 14  2  0  0  0
  9 15  1  0  0  0
 10 16  1  0  0  0
 10 17  1  0  0  0
 10 34  1  0  0  0
 11 18  1  0  0  0
 12 20  1  0  0  0
 12 35  1  0  0  0
 13 18  2  0  0  0
 13 36  1  0  0  0
 14 21  1  0  0  0
 14 37  1  0  0  0
 15 22  2  0  0  0
 15 38  1  0  0  0
 16 24  1  0  0  0
 16 39  1  0  0  0
 16 40  1  0  0  0
 17 25  1  0  0  0
 17 41  1  0  0  0
 17 42  1  0  0  0
 18 43  1  0  0  0
 19 22  1  0  0  0
 19 23  1  0  0  0
 19 21  2  0  0  0
 20 28  2  0  0  0
 20 29  1  0  0  0
 21 44  1  0  0  0
 22 45  1  0  0  0
 24 26  1  0  0  0
 24 46  1  0  0  0
 24 47  1  0  0  0
 25 26  1  0  0  0
 25 48  1  0  0  0
 25 49  1  0  0  0
 26 27  1  0  0  0
 26 50  1  0  0  0
 27 51  1  0  0  0
 28 31  1  0  0  0
 28 52  1  0  0  0
 29 30  2  0  0  0
 29 53  1  0  0  0
 30 32  1  0  0  0
 30 54  1  0  0  0
 31 32  2  0  0  0
 31 55  1  0  0  0
 32 56  1  0  0  0
M  END
> <s_m_entry_id>
60939

> <s_m_entry_name>
dock_pv.216

> <s_m_Source_Path>
/home/csk/Desktop/cluster/DUD-E-result/mk14

> <s_m_Source_File>
dock_pv.maegz

> <i_m_Source_File_Index>
216

> <chembl_id>
CHEMBL408876

> <chembl_pref_name>
None

> <i_lp_mmshare_version>
53161

> <i_f3d_flags>
0

> <r_lp_tautomer_probability>
0.999999987636

> <s_lp_Force_Field>
OPLS_2005

> <r_lp_Energy>
23.299784

> <b_lp_Chiralities_Consistent>
1

> <s_lp_Variant>
CHEMBL260_lig178-1

> <s_i_glide_gridfile>
glide-grid_2qd9

> <i_i_glide_lignum>
195

> <i_i_glide_rotatable_bonds>
6

> <r_i_docking_score>
-7.87688115037683

> <r_i_glide_ligand_efficiency>
-0.246152535949276

> <r_i_glide_ligand_efficiency_sa>
-0.781485588118234

> <r_i_glide_ligand_efficiency_ln>
-1.76384840524012

> <r_i_glide_gscore>
-7.87688115037683

> <r_i_glide_lipo>
-3.78874857202245

> <r_i_glide_hbond>
0

> <r_i_glide_metal>
0

> <r_i_glide_rewards>
-2.16101354253529

> <r_i_glide_evdw>
-43.3764724731445

> <r_i_glide_ecoul>
-1.70389461517334

> <r_i_glide_erotb>
0.53867452390385

> <r_i_glide_esite>
-0.041385743789716

> <r_i_glide_emodel>
-54.5245385580342

> <r_i_glide_energy>
-45.0803670883179

> <r_i_glide_einternal>
11.3761882781982

> <i_i_glide_confnum>
84

> <i_i_glide_posenum>
274

> <r_i_glide_eff_state_penalty>
0

> <s_user_duplicate_titles>
CHEMBL260_lig178

> <s_m_subgroup_title>
dock_pv

> <s_m_subgroupid>
dock_pv

> <b_m_subgroup_collapsed>
1

$$$$
CHEMBL260_lig37
                    3D
 Schrodinger Suite 2021-1.
 41 43  0  0  1  0            999 V2000
   -2.4106   -0.1536   22.7702 C   0  0  0  0  0  0
   -1.9146   -1.3825   22.3004 C   0  0  0  0  0  0
   -2.0372   -1.6682   20.9313 C   0  0  0  0  0  0
   -2.5299   -0.6965   20.0558 C   0  0  0  0  0  0
   -2.9481    0.5361   20.5748 C   0  0  0  0  0  0
   -2.9601    0.7416   21.9232 N   0  0  0  0  0  0
   -3.2443    1.6318   19.6999 N   0  0  0  0  0  0
   -4.0493    1.3938   18.5190 C   0  0  0  0  0  0
   -2.7847    2.8870   20.0572 C   0  0  0  0  0  0
   -2.4350    3.2667   21.1742 O   0  0  0  0  0  0
   -2.4350    3.6870   19.0760 N   0  0  0  0  0  0
   -5.3481    0.8870   18.6703 C   0  0  0  0  0  0
   -6.1767    0.6538   17.5811 C   0  0  0  0  0  0
   -5.7291    0.8870   16.2891 C   0  0  0  0  0  0
   -4.4465    1.3696   16.0936 C   0  0  0  0  0  0
   -3.6214    1.6277   17.1863 C   0  0  0  0  0  0
   -2.4350    2.1754   16.8932 F   0  0  0  0  0  0
   -5.8443    0.5995   19.8760 F   0  0  0  0  0  0
   -1.2350   -2.3656   23.2032 C   0  0  0  0  0  0
   -0.1765   -1.9276   23.8867 N   0  0  0  0  0  0
   -1.6422   -3.5130   23.2956 O   0  0  0  0  0  0
   -2.3077    0.3416   24.1764 C   0  0  0  0  0  0
   -2.8350   -0.3791   25.2589 C   0  0  0  0  0  0
   -2.6489    0.0661   26.5660 C   0  0  0  0  0  0
   -1.9739    1.2579   26.8118 C   0  0  0  0  0  0
   -1.4680    2.0000   25.7481 C   0  0  0  0  0  0
   -1.6310    1.5424   24.4409 C   0  0  0  0  0  0
   -3.5408   -1.5130   25.0529 F   0  0  0  0  0  0
   -1.8184    1.6970   28.0802 F   0  0  0  0  0  0
   -1.6860   -2.6095   20.5299 H   0  0  0  0  0  0
   -2.5271   -0.8842   18.9925 H   0  0  0  0  0  0
   -1.7911    4.4282   19.3104 H   0  0  0  0  0  0
   -2.3937    3.2870   18.1466 H   0  0  0  0  0  0
   -7.1649    0.2513   17.7546 H   0  0  0  0  0  0
   -6.3774    0.6851   15.4497 H   0  0  0  0  0  0
   -4.0929    1.5666   15.0911 H   0  0  0  0  0  0
    0.3201   -2.5543   24.5033 H   0  0  0  0  0  0
    0.1251   -0.9689   23.8032 H   0  0  0  0  0  0
   -3.0379   -0.5110   27.3907 H   0  0  0  0  0  0
   -0.9397    2.9221   25.9401 H   0  0  0  0  0  0
   -1.2161    2.1195   23.6255 H   0  0  0  0  0  0
  1 22  1  0  0  0
  1  6  1  0  0  0
  1  2  2  0  0  0
  2 19  1  0  0  0
  2  3  1  0  0  0
  3  4  2  0  0  0
  3 30  1  0  0  0
  4  5  1  0  0  0
  4 31  1  0  0  0
  5  7  1  0  0  0
  5  6  2  0  0  0
  7  8  1  0  0  0
  7  9  1  0  0  0
  8 16  1  0  0  0
  8 12  2  0  0  0
  9 10  2  0  0  0
  9 11  1  0  0  0
 11 32  1  0  0  0
 11 33  1  0  0  0
 12 18  1  0  0  0
 12 13  1  0  0  0
 13 14  2  0  0  0
 13 34  1  0  0  0
 14 15  1  0  0  0
 14 35  1  0  0  0
 15 16  2  0  0  0
 15 36  1  0  0  0
 16 17  1  0  0  0
 19 20  1  0  0  0
 19 21  2  0  0  0
 20 37  1  0  0  0
 20 38  1  0  0  0
 22 23  2  0  0  0
 22 27  1  0  0  0
 23 24  1  0  0  0
 23 28  1  0  0  0
 24 25  2  0  0  0
 24 39  1  0  0  0
 25 26  1  0  0  0
 25 29  1  0  0  0
 26 27  2  0  0  0
 26 40  1  0  0  0
 27 41  1  0  0  0
M  END
> <s_m_entry_id>
60940

> <s_m_entry_name>
dock_pv.217

> <s_m_Source_Path>
/home/csk/Desktop/cluster/DUD-E-result/mk14

> <s_m_Source_File>
dock_pv.maegz

> <i_m_Source_File_Index>
217

> <chembl_id>
CHEMBL1090090

> <chembl_pref_name>
VX-702

> <i_lp_mmshare_version>
53161

> <i_f3d_flags>
0

> <r_lp_tautomer_probability>
1

> <s_lp_Force_Field>
OPLS_2005

> <r_lp_Energy>
40.783957

> <b_lp_Chiralities_Consistent>
1

> <s_lp_Variant>
CHEMBL260_lig37-1

> <s_i_glide_gridfile>
glide-grid_2qd9

> <i_i_glide_lignum>
41

> <i_i_glide_rotatable_bonds>
5

> <r_i_docking_score>
-7.8743342753229

> <r_i_glide_ligand_efficiency>
-0.271528768114583

> <r_i_glide_ligand_efficiency_sa>
-0.834222401999825

> <r_i_glide_ligand_efficiency_ln>
-1.80302287316023

> <r_i_glide_gscore>
-7.8743342753229

> <r_i_glide_lipo>
-3.18378145846892

> <r_i_glide_hbond>
-0.585791166371092

> <r_i_glide_metal>
0

> <r_i_glide_rewards>
-1.60480615954842

> <r_i_glide_evdw>
-26.1190071105957

> <r_i_glide_ecoul>
-9.91533851623535

> <r_i_glide_erotb>
0.360462587739777

> <r_i_glide_esite>
-0.0671669457091474

> <r_i_glide_emodel>
-47.4214518937674

> <r_i_glide_energy>
-36.0343456268311

> <r_i_glide_einternal>
11.4469776153564

> <i_i_glide_confnum>
2

> <i_i_glide_posenum>
52

> <r_i_glide_eff_state_penalty>
0

> <s_user_duplicate_titles>
CHEMBL260_lig37,619385

> <s_m_subgroup_title>
dock_pv

> <s_m_subgroupid>
dock_pv

> <b_m_subgroup_collapsed>
1

$$$$
CHEMBL260_lig1761
                    3D
 Schrodinger Suite 2021-1.
 41 44  0  0  1  0            999 V2000
   -5.3470    0.4955   15.8291 C   0  0  0  0  0  0
   -4.0445    0.9562   15.6598 C   0  0  0  0  0  0
   -3.3297    1.4175   16.7608 C   0  0  0  0  0  0
   -3.9092    1.3865   18.0305 C   0  0  0  0  0  0
   -5.2048    0.9018   18.2045 C   0  0  0  0  0  0
   -5.9356    0.4925   17.0930 C   0  0  0  0  0  0
   -3.2366    2.0065   19.0846 N   0  0  0  0  0  0
   -2.8656    1.5689   20.3512 C   0  0  0  0  0  0
   -2.9146    0.2462   20.6724 N   0  0  0  0  0  0
   -2.1040    2.2289   22.4244 C   0  0  0  0  0  0
   -2.4350    2.5704   21.1583 N   0  0  0  0  0  0
   -2.1607    0.9106   22.8595 C   0  0  0  0  0  0
   -2.5141   -0.0830   21.9378 C   0  0  0  0  0  0
   -2.4103   -1.4544   22.3391 N   0  0  0  0  0  0
   -1.9993   -1.8842   23.5862 C   0  0  0  0  0  0
   -1.7463   -0.7992   24.5546 C   0  0  0  0  0  0
   -1.8174    0.5043   24.2076 C   0  0  0  0  0  0
   -2.7096   -2.4792   21.3170 C   0  0  0  0  0  0
   -1.8532   -3.0773   23.8769 O   0  0  0  0  0  0
   -1.4008   -1.0537   25.9773 C   0  0  0  0  0  0
   -2.3779   -1.4666   26.9045 C   0  0  0  0  0  0
   -2.0883   -1.5007   28.2685 C   0  0  0  0  0  0
   -0.8351   -1.1116   28.7315 C   0  0  0  0  0  0
    0.1457   -0.7130   27.8274 C   0  0  0  0  0  0
   -0.1193   -0.7137   26.4576 C   0  0  0  0  0  0
    1.1622   -0.2563   25.3844 Cl  0  0  0  0  0  0
   -3.9734   -1.9130   26.4113 Cl  0  0  0  0  0  0
   -6.0351    0.0376   14.7624 F   0  0  0  0  0  0
   -3.5984    0.9638   14.6762 H   0  0  0  0  0  0
   -2.3331    1.8107   16.6220 H   0  0  0  0  0  0
   -5.6607    0.8877   19.1838 H   0  0  0  0  0  0
   -6.9218    0.0887   17.2319 H   0  0  0  0  0  0
   -3.0455    2.9852   18.9532 H   0  0  0  0  0  0
   -1.7855    3.0258   23.0805 H   0  0  0  0  0  0
   -1.6242    1.2669   24.9510 H   0  0  0  0  0  0
   -3.6350   -2.2415   20.7933 H   0  0  0  0  0  0
   -1.9127   -2.5059   20.5725 H   0  0  0  0  0  0
   -2.8229   -3.4887   21.7138 H   0  0  0  0  0  0
   -2.8398   -1.8229   28.9742 H   0  0  0  0  0  0
   -0.6166   -1.1376   29.7889 H   0  0  0  0  0  0
    1.1245   -0.4305   28.1902 H   0  0  0  0  0  0
  1  2  2  0  0  0
  1  6  1  0  0  0
  1 28  1  0  0  0
  2  3  1  0  0  0
  2 29  1  0  0  0
  3  4  2  0  0  0
  3 30  1  0  0  0
  4  7  1  0  0  0
  4  5  1  0  0  0
  5  6  2  0  0  0
  5 31  1  0  0  0
  6 32  1  0  0  0
  7  8  1  0  0  0
  7 33  1  0  0  0
  8  9  1  0  0  0
  8 11  2  0  0  0
  9 13  2  0  0  0
 10 12  2  0  0  0
 10 11  1  0  0  0
 10 34  1  0  0  0
 12 17  1  0  0  0
 12 13  1  0  0  0
 13 14  1  0  0  0
 14 15  1  0  0  0
 14 18  1  0  0  0
 15 16  1  0  0  0
 15 19  2  0  0  0
 16 17  2  0  0  0
 16 20  1  0  0  0
 17 35  1  0  0  0
 18 36  1  0  0  0
 18 37  1  0  0  0
 18 38  1  0  0  0
 20 21  2  0  0  0
 20 25  1  0  0  0
 21 22  1  0  0  0
 21 27  1  0  0  0
 22 23  2  0  0  0
 22 39  1  0  0  0
 23 24  1  0  0  0
 23 40  1  0  0  0
 24 25  2  0  0  0
 24 41  1  0  0  0
 25 26  1  0  0  0
M  END
> <s_m_entry_id>
60941

> <s_m_entry_name>
dock_pv.218

> <s_m_Source_Path>
/home/csk/Desktop/cluster/DUD-E-result/mk14

> <s_m_Source_File>
dock_pv.maegz

> <i_m_Source_File_Index>
218

> <chembl_id>
CHEMBL574059

> <chembl_pref_name>
None

> <i_lp_mmshare_version>
53161

> <i_f3d_flags>
0

> <r_lp_tautomer_probability>
1

> <s_lp_Force_Field>
OPLS_2005

> <r_lp_Energy>
26.347679

> <b_lp_Chiralities_Consistent>
1

> <s_lp_Variant>
CHEMBL260_lig1761-1

> <s_i_glide_gridfile>
glide-grid_2qd9

> <i_i_glide_lignum>
2054

> <i_i_glide_rotatable_bonds>
3

> <r_i_docking_score>
-7.85978871077457

> <r_i_glide_ligand_efficiency>
-0.280706739670521

> <r_i_glide_ligand_efficiency_sa>
-0.852390989067895

> <r_i_glide_ligand_efficiency_ln>
-1.81427000787105

> <r_i_glide_gscore>
-7.85978871077457

> <r_i_glide_lipo>
-3.1385214605919

> <r_i_glide_hbond>
-0.363360956046577

> <r_i_glide_metal>
0

> <r_i_glide_rewards>
-1.82540787710468

> <r_i_glide_evdw>
-39.4058570861816

> <r_i_glide_ecoul>
-6.03823852539062

> <r_i_glide_erotb>
0.343530216086257

> <r_i_glide_esite>
0

> <r_i_glide_emodel>
-59.2290253650351

> <r_i_glide_energy>
-45.4440956115723

> <r_i_glide_einternal>
4.77168989181519

> <i_i_glide_confnum>
6

> <i_i_glide_posenum>
87

> <r_i_glide_eff_state_penalty>
0

> <s_user_duplicate_titles>
CHEMBL260_lig1761,568350

> <s_m_subgroup_title>
dock_pv

> <s_m_subgroupid>
dock_pv

> <b_m_subgroup_collapsed>
1

$$$$
CHEMBL260_lig683
                    3D
 Schrodinger Suite 2021-1.
 54 56  0  0  1  0            999 V2000
   -5.8913    0.4871   16.2207 C   0  0  0  0  0  0
   -4.8663    0.5662   15.2884 C   0  0  0  0  0  0
   -3.6225    1.0637   15.6538 C   0  0  0  0  0  0
   -3.3930    1.4284   16.9758 C   0  0  0  0  0  0
   -4.4090    1.3088   17.9230 C   0  0  0  0  0  0
   -5.6774    0.8870   17.5365 C   0  0  0  0  0  0
   -4.1741    1.6703   19.2277 O   0  0  0  0  0  0
   -3.5019    0.8074   20.0691 C   0  0  0  0  0  0
   -3.4988   -0.5810   19.9000 C   0  0  0  0  0  0
   -2.8350   -1.4112   20.7982 C   0  0  0  0  0  0
   -2.1571   -0.8581   21.8877 C   0  0  0  0  0  0
   -2.1700    0.5368   22.0617 C   0  0  0  0  0  0
   -2.8350    1.3575   21.1578 C   0  0  0  0  0  0
   -1.4365   -1.7562   22.8641 C   0  0  0  0  0  0
   -1.7880   -2.9221   23.0692 O   0  0  0  0  0  0
   -0.3980   -1.1706   23.4759 N   0  0  0  0  0  0
    0.3650   -1.6776   24.6037 C   0  0  0  0  0  0
    0.2868   -0.7130   25.7792 C   0  0  0  0  0  0
   -0.2763   -1.1123   26.9890 C   0  0  0  0  0  0
   -0.3113   -0.2477   28.0833 C   0  0  0  0  0  0
    0.1875    1.0736   27.9808 C   0  0  0  0  0  0
    0.7540    1.4531   26.7493 C   0  0  0  0  0  0
    0.7976    0.5788   25.6665 C   0  0  0  0  0  0
   -0.8420   -0.7515   29.2434 O   0  0  0  0  0  0
    0.1056    2.0853   29.1681 C   0  0  0  0  0  0
    0.9918    1.6079   30.3664 C   0  0  0  0  0  0
    0.5230    3.5344   28.7654 C   0  0  0  0  0  0
   -1.3705    2.2245   29.6394 C   0  0  0  0  0  0
    2.3650    1.9524   30.2760 O   0  0  0  0  0  0
   -6.8350    0.0775   15.9182 H   0  0  0  0  0  0
   -5.0419    0.2376   14.2760 H   0  0  0  0  0  0
   -2.8350    1.1472   14.9211 H   0  0  0  0  0  0
   -2.4351    1.8134   17.2693 H   0  0  0  0  0  0
   -6.4739    0.8119   18.2626 H   0  0  0  0  0  0
   -4.0279   -1.0215   19.0765 H   0  0  0  0  0  0
   -2.8540   -2.4816   20.6393 H   0  0  0  0  0  0
   -1.6757    1.0037   22.9019 H   0  0  0  0  0  0
   -2.8349    2.4268   21.3025 H   0  0  0  0  0  0
   -0.1017   -0.2757   23.1193 H   0  0  0  0  0  0
    1.4018   -1.7611   24.2763 H   0  0  0  0  0  0
    0.0529   -2.6809   24.9039 H   0  0  0  0  0  0
   -0.6760   -2.1093   27.0842 H   0  0  0  0  0  0
    1.1811    2.4318   26.5984 H   0  0  0  0  0  0
    1.2542    0.9073   24.7441 H   0  0  0  0  0  0
   -0.9923   -1.7004   29.2128 H   0  0  0  0  0  0
    0.9285    0.5311   30.5169 H   0  0  0  0  0  0
    0.6259    2.0480   31.2935 H   0  0  0  0  0  0
    0.4372    4.2224   29.6074 H   0  0  0  0  0  0
    1.5603    3.5926   28.4324 H   0  0  0  0  0  0
   -0.1032    3.9305   27.9646 H   0  0  0  0  0  0
   -1.4899    3.0368   30.3579 H   0  0  0  0  0  0
   -2.0391    2.4329   28.8033 H   0  0  0  0  0  0
   -1.7448    1.3352   30.1426 H   0  0  0  0  0  0
    2.7283    1.6872   29.4147 H   0  0  0  0  0  0
  1  6  1  0  0  0
  1  2  2  0  0  0
  1 30  1  0  0  0
  2  3  1  0  0  0
  2 31  1  0  0  0
  3  4  2  0  0  0
  3 32  1  0  0  0
  4  5  1  0  0  0
  4 33  1  0  0  0
  5  7  1  0  0  0
  5  6  2  0  0  0
  6 34  1  0  0  0
  7  8  1  0  0  0
  8  9  2  0  0  0
  8 13  1  0  0  0
  9 10  1  0  0  0
  9 35  1  0  0  0
 10 11  2  0  0  0
 10 36  1  0  0  0
 11 14  1  0  0  0
 11 12  1  0  0  0
 12 13  2  0  0  0
 12 37  1  0  0  0
 13 38  1  0  0  0
 14 15  2  0  0  0
 14 16  1  0  0  0
 16 17  1  0  0  0
 16 39  1  0  0  0
 17 18  1  0  0  0
 17 40  1  0  0  0
 17 41  1  0  0  0
 18 19  2  0  0  0
 18 23  1  0  0  0
 19 20  1  0  0  0
 19 42  1  0  0  0
 20 21  2  0  0  0
 20 24  1  0  0  0
 21 22  1  0  0  0
 21 25  1  0  0  0
 22 23  2  0  0  0
 22 43  1  0  0  0
 23 44  1  0  0  0
 24 45  1  0  0  0
 25 26  1  0  0  0
 25 27  1  0  0  0
 25 28  1  0  0  0
 26 29  1  0  0  0
 26 46  1  0  0  0
 26 47  1  0  0  0
 27 48  1  0  0  0
 27 49  1  0  0  0
 27 50  1  0  0  0
 28 51  1  0  0  0
 28 52  1  0  0  0
 28 53  1  0  0  0
 29 54  1  0  0  0
M  END
> <s_m_entry_id>
60942

> <s_m_entry_name>
dock_pv.219

> <s_m_Source_Path>
/home/csk/Desktop/cluster/DUD-E-result/mk14

> <s_m_Source_File>
dock_pv.maegz

> <i_m_Source_File_Index>
219

> <chembl_id>
CHEMBL199229

> <chembl_pref_name>
None

> <i_lp_mmshare_version>
53161

> <i_f3d_flags>
0

> <r_lp_tautomer_probability>
0.999999999997365

> <s_lp_Force_Field>
OPLS_2005

> <r_lp_Energy>
29.774536

> <b_lp_Chiralities_Consistent>
1

> <s_lp_Variant>
CHEMBL260_lig683-1

> <s_i_glide_gridfile>
glide-grid_2qd9

> <i_i_glide_lignum>
769

> <i_i_glide_rotatable_bonds>
10

> <r_i_docking_score>
-7.85257308350573

> <r_i_glide_ligand_efficiency>
-0.270778382189853

> <r_i_glide_ligand_efficiency_sa>
-0.831916978700107

> <r_i_glide_ligand_efficiency_ln>
-1.79804011205031

> <r_i_glide_gscore>
-7.85257308350573

> <r_i_glide_lipo>
-3.66439261758773

> <r_i_glide_hbond>
-0.445481224978003

> <r_i_glide_metal>
0

> <r_i_glide_rewards>
-1.20903100542819

> <r_i_glide_evdw>
-41.0289192199707

> <r_i_glide_ecoul>
-10.0066957473755

> <r_i_glide_erotb>
1.01878208759305

> <r_i_glide_esite>
0

> <r_i_glide_emodel>
-69.6948459187507

> <r_i_glide_energy>
-51.0356149673462

> <r_i_glide_einternal>
10.8425216674805

> <i_i_glide_confnum>
21

> <i_i_glide_posenum>
138

> <r_i_glide_eff_state_penalty>
0

> <s_user_duplicate_titles>
CHEMBL260_lig683

> <s_m_subgroup_title>
dock_pv

> <s_m_subgroupid>
dock_pv

> <b_m_subgroup_collapsed>
1

$$$$
CHEMBL260_lig1812
                    3D
 Schrodinger Suite 2021-1.
 34 36  0  0  1  0            999 V2000
   -2.4046   -1.2682   24.5761 C   0  0  0  0  0  0
   -5.3938    0.8394   16.2989 C   0  0  0  0  0  0
   -4.0896    1.3211   16.2699 C   0  0  0  0  0  0
   -3.4250    1.5853   17.4673 C   0  0  0  0  0  0
   -4.0350    1.3322   18.7016 C   0  0  0  0  0  0
   -5.3561    0.8862   18.7167 C   0  0  0  0  0  0
   -6.0350    0.6608   17.5217 C   0  0  0  0  0  0
   -3.1659    1.7124   20.2096 S   0  0  0  0  0  0
   -2.8058    0.1852   21.0915 C   0  0  0  0  0  0
   -2.3959   -1.0005   20.4489 C   0  0  0  0  0  0
   -2.1577   -2.1657   21.1673 C   0  0  0  0  0  0
   -2.8350    0.2108   22.5018 C   0  0  0  0  0  0
   -2.5266   -0.9302   23.2244 N   0  0  0  0  0  0
   -2.2141   -2.1326   22.5589 C   0  0  0  0  0  0
   -1.9661   -3.1130   23.4456 N   0  0  0  0  0  0
   -2.0619   -2.5353   24.6882 N   0  0  0  0  0  0
   -6.0150    0.4869   15.1526 F   0  0  0  0  0  0
   -5.9939    0.6478   19.8760 F   0  0  0  0  0  0
   -2.4996   -0.3327   25.7844 C   0  0  0  0  0  0
   -1.2143    0.5077   25.9240 C   0  0  0  0  0  0
   -2.7667   -1.0920   27.1034 C   0  0  0  0  0  0
   -2.0350   -1.1130   18.7700 Cl  0  0  0  0  0  0
   -3.2350    1.8136   23.4730 Br  0  0  0  0  0  0
   -3.5942    1.4810   15.3229 H   0  0  0  0  0  0
   -2.4350    1.9929   17.4246 H   0  0  0  0  0  0
   -7.0374    0.2644   17.5521 H   0  0  0  0  0  0
   -1.8741   -3.0749   20.6557 H   0  0  0  0  0  0
   -3.3530    0.3335   25.6741 H   0  0  0  0  0  0
   -0.9801    1.0621   25.0160 H   0  0  0  0  0  0
   -0.3519   -0.1244   26.1426 H   0  0  0  0  0  0
   -1.2998    1.2310   26.7356 H   0  0  0  0  0  0
   -3.7003   -1.6541   27.0569 H   0  0  0  0  0  0
   -1.9665   -1.7972   27.3348 H   0  0  0  0  0  0
   -2.8350   -0.4057   27.9482 H   0  0  0  0  0  0
  1 13  1  0  0  0
  1 16  2  0  0  0
  1 19  1  0  0  0
  2  7  1  0  0  0
  2  3  2  0  0  0
  2 17  1  0  0  0
  3  4  1  0  0  0
  3 24  1  0  0  0
  4  5  2  0  0  0
  4 25  1  0  0  0
  5  8  1  0  0  0
  5  6  1  0  0  0
  6  7  2  0  0  0
  6 18  1  0  0  0
  7 26  1  0  0  0
  8  9  1  0  0  0
  9 12  2  0  0  0
  9 10  1  0  0  0
 10 11  2  0  0  0
 10 22  1  0  0  0
 11 14  1  0  0  0
 11 27  1  0  0  0
 12 13  1  0  0  0
 12 23  1  0  0  0
 13 14  1  0  0  0
 14 15  2  0  0  0
 15 16  1  0  0  0
 19 20  1  0  0  0
 19 21  1  0  0  0
 19 28  1  0  0  0
 20 29  1  0  0  0
 20 30  1  0  0  0
 20 31  1  0  0  0
 21 32  1  0  0  0
 21 33  1  0  0  0
 21 34  1  0  0  0
M  END
> <s_m_entry_id>
60943

> <s_m_entry_name>
dock_pv.220

> <s_m_Source_Path>
/home/csk/Desktop/cluster/DUD-E-result/mk14

> <s_m_Source_File>
dock_pv.maegz

> <i_m_Source_File_Index>
220

> <chembl_id>
CHEMBL609596

> <chembl_pref_name>
None

> <i_lp_mmshare_version>
53161

> <i_f3d_flags>
0

> <r_lp_tautomer_probability>
1

> <s_lp_Force_Field>
OPLS_2005

> <r_lp_Energy>
13.993104

> <b_lp_Chiralities_Consistent>
1

> <s_lp_Variant>
CHEMBL260_lig1812-1

> <s_i_glide_gridfile>
glide-grid_2qd9

> <i_i_glide_lignum>
2110

> <i_i_glide_rotatable_bonds>
3

> <r_i_docking_score>
-7.84969621803867

> <r_i_glide_ligand_efficiency>
-0.341291139914725

> <r_i_glide_ligand_efficiency_sa>
-0.970586602304963

> <r_i_glide_ligand_efficiency_ln>
-1.89812772263182

> <r_i_glide_gscore>
-7.84969621803867

> <r_i_glide_lipo>
-3.28752663278738

> <r_i_glide_hbond>
0

> <r_i_glide_metal>
0

> <r_i_glide_rewards>
-2.33698841117451

> <r_i_glide_evdw>
-32.3137245178223

> <r_i_glide_ecoul>
-5.26722145080566

> <r_i_glide_erotb>
0.225631849953536

> <r_i_glide_esite>
-0.045043580518349

> <r_i_glide_emodel>
-50.240447186258

> <r_i_glide_energy>
-37.5809459686279

> <r_i_glide_einternal>
7.44165849685669

> <i_i_glide_confnum>
4

> <i_i_glide_posenum>
340

> <r_i_glide_eff_state_penalty>
0

> <s_user_duplicate_titles>
CHEMBL260_lig1812

> <s_m_subgroup_title>
dock_pv

> <s_m_subgroupid>
dock_pv

> <b_m_subgroup_collapsed>
1

$$$$
CHEMBL260_lig404
                    3D
 Schrodinger Suite 2021-1.
 45 48  0  0  1  0            999 V2000
   -1.3084   -1.9260   23.4998 C   0  0  0  0  0  0
   -1.4177   -1.2673   22.3078 N   0  0  0  0  0  0
   -0.7508   -1.2078   24.7158 C   0  0  0  0  0  0
   -0.6465   -0.9352   27.1001 C   0  0  0  0  0  0
   -3.2896   -0.1325   20.4576 N   0  0  0  0  0  0
   -0.8560   -1.1117   28.4531 N   0  0  0  0  0  0
   -1.2247   -1.5599   25.9900 C   0  0  0  0  0  0
   -0.0352   -0.2765   29.1702 C   0  0  0  0  0  0
    0.3634    0.0614   26.9710 C   0  0  0  0  0  0
   -1.6350   -3.1130   23.6242 O   0  0  0  0  0  0
   -1.8151   -2.0199   21.0992 C   0  0  0  0  0  0
   -1.5443    0.2085   22.2031 C   0  0  0  0  0  0
    0.2697   -0.2536   24.5887 C   0  0  0  0  0  0
    0.7261    0.4688   28.2941 C   0  0  0  0  0  0
    0.7935    0.4164   25.6893 C   0  0  0  0  0  0
   -4.5853    0.2944   19.8953 C   0  0  0  0  0  0
   -2.9426    0.5884   21.6848 C   0  0  0  0  0  0
   -3.2380   -1.5756   20.7156 C   0  0  0  0  0  0
   -4.5460    0.7665   18.4453 C   0  0  0  0  0  0
   -5.7509    0.8870   17.7528 C   0  0  0  0  0  0
   -3.3511    1.0476   17.7867 C   0  0  0  0  0  0
   -5.7485    1.2556   16.4129 C   0  0  0  0  0  0
   -3.3439    1.4521   16.4552 C   0  0  0  0  0  0
   -4.5508    1.5514   15.7716 C   0  0  0  0  0  0
   -1.4755   -1.7756   28.8968 H   0  0  0  0  0  0
   -1.9891   -2.3130   26.1146 H   0  0  0  0  0  0
   -0.0456   -0.3018   30.2515 H   0  0  0  0  0  0
   -1.1340   -1.8074   20.2743 H   0  0  0  0  0  0
   -1.8064   -3.1006   21.2499 H   0  0  0  0  0  0
   -1.4012    0.7441   23.1389 H   0  0  0  0  0  0
   -0.8350    0.5758   21.4761 H   0  0  0  0  0  0
    0.6803   -0.0158   23.6173 H   0  0  0  0  0  0
    1.4810    1.1923   28.5732 H   0  0  0  0  0  0
    1.5650    1.1611   25.5611 H   0  0  0  0  0  0
   -5.2913   -0.5287   19.8760 H   0  0  0  0  0  0
   -5.0309    1.0922   20.4913 H   0  0  0  0  0  0
   -3.6376    0.3141   22.4720 H   0  0  0  0  0  0
   -3.0067    1.6655   21.5240 H   0  0  0  0  0  0
   -3.9053   -1.8018   21.5486 H   0  0  0  0  0  0
   -3.5972   -2.1583   19.8760 H   0  0  0  0  0  0
   -6.6898    0.6520   18.2350 H   0  0  0  0  0  0
   -2.4350    0.8870   18.3134 H   0  0  0  0  0  0
   -6.6812    1.2870   15.8760 H   0  0  0  0  0  0
   -2.4114    1.6575   15.9497 H   0  0  0  0  0  0
   -4.5585    1.8412   14.7321 H   0  0  0  0  0  0
  1  2  1  0  0  0
  1  3  1  0  0  0
  1 10  2  0  0  0
  2 11  1  0  0  0
  2 12  1  0  0  0
  3  7  1  0  0  0
  3 13  2  0  0  0
  4  7  2  0  0  0
  4  6  1  0  0  0
  4  9  1  0  0  0
  5 17  1  0  0  0
  5 16  1  0  0  0
  5 18  1  0  0  0
  6  8  1  0  0  0
  6 25  1  0  0  0
  7 26  1  0  0  0
  8 14  2  0  0  0
  8 27  1  0  0  0
  9 15  2  0  0  0
  9 14  1  0  0  0
 11 18  1  0  0  0
 11 28  1  0  0  0
 11 29  1  0  0  0
 12 17  1  0  0  0
 12 30  1  0  0  0
 12 31  1  0  0  0
 13 15  1  0  0  0
 13 32  1  0  0  0
 14 33  1  0  0  0
 15 34  1  0  0  0
 16 19  1  0  0  0
 16 35  1  0  0  0
 16 36  1  0  0  0
 17 37  1  0  0  0
 17 38  1  0  0  0
 18 39  1  0  0  0
 18 40  1  0  0  0
 19 20  2  0  0  0
 19 21  1  0  0  0
 20 22  1  0  0  0
 20 41  1  0  0  0
 21 23  2  0  0  0
 21 42  1  0  0  0
 22 24  2  0  0  0
 22 43  1  0  0  0
 23 24  1  0  0  0
 23 44  1  0  0  0
 24 45  1  0  0  0
M  END
> <s_m_entry_id>
60944

> <s_m_entry_name>
dock_pv.221

> <s_m_Source_Path>
/home/csk/Desktop/cluster/DUD-E-result/mk14

> <s_m_Source_File>
dock_pv.maegz

> <i_m_Source_File_Index>
221

> <chembl_id>
CHEMBL419355

> <chembl_pref_name>
None

> <i_lp_mmshare_version>
53161

> <i_f3d_flags>
0

> <r_lp_tautomer_probability>
1

> <s_lp_Force_Field>
OPLS_2005

> <r_lp_Energy>
47.47872

> <b_lp_Chiralities_Consistent>
1

> <s_lp_Variant>
CHEMBL260_lig404-1

> <s_i_glide_gridfile>
glide-grid_2qd9

> <i_i_glide_lignum>
471

> <i_i_glide_rotatable_bonds>
4

> <r_i_docking_score>
-7.84282254122405

> <r_i_glide_ligand_efficiency>
-0.326784272551002

> <r_i_glide_ligand_efficiency_sa>
-0.94260895234125

> <r_i_glide_ligand_efficiency_ln>
-1.877147317791

> <r_i_glide_gscore>
-7.84282254122405

> <r_i_glide_lipo>
-3.50673333519805

> <r_i_glide_hbond>
-0.438217982691265

> <r_i_glide_metal>
0

> <r_i_glide_rewards>
-1.83484253335808

> <r_i_glide_evdw>
-36.0432777404785

> <r_i_glide_ecoul>
-6.61630249023438

> <r_i_glide_erotb>
0.731580570582417

> <r_i_glide_esite>
0

> <r_i_glide_emodel>
-53.3775329475765

> <r_i_glide_energy>
-42.6595802307129

> <r_i_glide_einternal>
11.4158773422241

> <i_i_glide_confnum>
102

> <i_i_glide_posenum>
115

> <r_i_glide_eff_state_penalty>
0

> <s_user_duplicate_titles>
CHEMBL260_lig404

> <s_m_subgroup_title>
dock_pv

> <s_m_subgroupid>
dock_pv

> <b_m_subgroup_collapsed>
1

$$$$
CHEMBL260_lig1755
                    3D
 Schrodinger Suite 2021-1.
 56 59  0  0  1  0            999 V2000
    0.7439    1.0767   27.5763 C   0  0  0  0  0  0
    0.8400    1.5405   26.2609 C   0  0  0  0  0  0
    0.4618    0.6955   25.2112 C   0  0  0  0  0  0
   -0.0548   -0.5821   25.4695 C   0  0  0  0  0  0
   -0.1603   -1.0168   26.7910 C   0  0  0  0  0  0
    0.2472   -0.1974   27.8422 C   0  0  0  0  0  0
   -0.4594   -1.4521   24.4428 N   0  0  0  0  0  0
   -1.0746   -1.1646   23.2195 C   0  0  0  0  0  0
   -1.4770    0.1093   22.9831 N   0  0  0  0  0  0
   -1.8069   -1.9208   21.1570 C   0  0  0  0  0  0
   -1.2350   -2.2047   22.3593 N   0  0  0  0  0  0
   -2.2148   -0.6262   20.8220 C   0  0  0  0  0  0
   -2.0394    0.3765   21.7768 C   0  0  0  0  0  0
   -2.4350    1.7104   21.4724 N   0  0  0  0  0  0
   -2.9876    2.1117   20.2760 C   0  0  0  0  0  0
   -3.2350    1.0359   19.3081 C   0  0  0  0  0  0
   -2.8350   -0.2384   19.5573 C   0  0  0  0  0  0
   -2.2072    2.7283   22.5180 C   0  0  0  0  0  0
   -3.2344    3.2870   20.0017 O   0  0  0  0  0  0
   -3.9603    1.2870   18.0276 C   0  0  0  0  0  0
   -5.2984    0.8870   17.9264 C   0  0  0  0  0  0
   -5.8781    0.7125   16.6724 C   0  0  0  0  0  0
   -5.1904    1.0212   15.5087 C   0  0  0  0  0  0
   -3.9416    1.6090   15.6094 C   0  0  0  0  0  0
   -3.3550    1.7927   16.8564 C   0  0  0  0  0  0
   -2.0350    2.8870   16.8882 Cl  0  0  0  0  0  0
   -6.2335    0.4870   19.3274 Cl  0  0  0  0  0  0
    1.3872    2.9420   26.0136 C   0  0  0  0  0  0
    1.1650    3.3848   24.6736 O   0  0  0  0  0  0
    1.5947    4.7277   24.4555 C   0  0  0  0  0  0
    1.8320    5.0220   22.9576 C   0  0  2  0  0  0
    2.5782    6.3652   22.7588 C   0  0  0  0  0  0
    0.5870    5.0835   22.2760 O   0  0  0  0  0  0
    3.1650    6.4870   21.4760 O   0  0  0  0  0  0
    1.0668    1.7017   28.3970 H   0  0  0  0  0  0
    0.5763    1.0369   24.1934 H   0  0  0  0  0  0
   -0.5538   -1.9960   27.0119 H   0  0  0  0  0  0
    0.1823   -0.5503   28.8614 H   0  0  0  0  0  0
   -0.1765   -2.4122   24.5542 H   0  0  0  0  0  0
   -1.9313   -2.7460   20.4687 H   0  0  0  0  0  0
   -3.0029   -1.0059   18.8237 H   0  0  0  0  0  0
   -2.6610    3.6870   22.2916 H   0  0  0  0  0  0
   -2.6317    2.3971   23.4668 H   0  0  0  0  0  0
   -1.1384    2.8859   22.6738 H   0  0  0  0  0  0
   -6.8350    0.2472   16.6010 H   0  0  0  0  0  0
   -5.6350    0.8488   14.5412 H   0  0  0  0  0  0
   -3.4326    1.9503   14.7218 H   0  0  0  0  0  0
    2.4568    2.9293   26.2302 H   0  0  0  0  0  0
    0.9073    3.6304   26.7123 H   0  0  0  0  0  0
    2.5396    4.8931   24.9785 H   0  0  0  0  0  0
    0.8784    5.4288   24.8875 H   0  0  0  0  0  0
    2.4112    4.2038   22.5272 H   0  0  0  0  0  0
    3.3985    6.4493   23.4733 H   0  0  0  0  0  0
    1.9152    7.2129   22.9394 H   0  0  0  0  0  0
    0.7650    5.1615   21.3284 H   0  0  0  0  0  0
    2.5049    6.2916   20.7892 H   0  0  0  0  0  0
  1  6  1  0  0  0
  1  2  2  0  0  0
  1 35  1  0  0  0
  2  3  1  0  0  0
  2 28  1  0  0  0
  3  4  2  0  0  0
  3 36  1  0  0  0
  4  5  1  0  0  0
  4  7  1  0  0  0
  5  6  2  0  0  0
  5 37  1  0  0  0
  6 38  1  0  0  0
  7  8  1  0  0  0
  7 39  1  0  0  0
  8  9  1  0  0  0
  8 11  2  0  0  0
  9 13  2  0  0  0
 10 12  2  0  0  0
 10 11  1  0  0  0
 10 40  1  0  0  0
 12 17  1  0  0  0
 12 13  1  0  0  0
 13 14  1  0  0  0
 14 18  1  0  0  0
 14 15  1  0  0  0
 15 19  2  0  0  0
 15 16  1  0  0  0
 16 17  2  0  0  0
 16 20  1  0  0  0
 17 41  1  0  0  0
 18 42  1  0  0  0
 18 43  1  0  0  0
 18 44  1  0  0  0
 20 21  2  0  0  0
 20 25  1  0  0  0
 21 22  1  0  0  0
 21 27  1  0  0  0
 22 23  2  0  0  0
 22 45  1  0  0  0
 23 24  1  0  0  0
 23 46  1  0  0  0
 24 25  2  0  0  0
 24 47  1  0  0  0
 25 26  1  0  0  0
 28 29  1  0  0  0
 28 48  1  0  0  0
 28 49  1  0  0  0
 29 30  1  0  0  0
 30 31  1  0  0  0
 30 50  1  0  0  0
 30 51  1  0  0  0
 31 32  1  0  0  0
 31 33  1  0  0  0
 31 52  1  0  0  0
 32 34  1  0  0  0
 32 53  1  0  0  0
 32 54  1  0  0  0
 33 55  1  0  0  0
 34 56  1  0  0  0
M  END
> <s_m_entry_id>
60945

> <s_m_entry_name>
dock_pv.222

> <s_m_Source_Path>
/home/csk/Desktop/cluster/DUD-E-result/mk14

> <s_m_Source_File>
dock_pv.maegz

> <i_m_Source_File_Index>
222

> <chembl_id>
CHEMBL566834

> <chembl_pref_name>
None

> <i_lp_mmshare_version>
53161

> <i_f3d_flags>
0

> <r_lp_tautomer_probability>
1

> <s_lp_Force_Field>
OPLS_2005

> <r_lp_Energy>
33.488026

> <b_lp_Chiralities_Consistent>
1

> <s_lp_Variant>
CHEMBL260_lig1755-1

> <s_i_glide_gridfile>
glide-grid_2qd9

> <i_i_glide_lignum>
2016

> <i_i_glide_rotatable_bonds>
10

> <r_i_docking_score>
-7.84154386505931

> <r_i_glide_ligand_efficiency>
-0.23063364308998

> <r_i_glide_ligand_efficiency_sa>
-0.747163471047661

> <r_i_glide_ligand_efficiency_ln>
-1.73241698764689

> <r_i_glide_gscore>
-7.84154386505931

> <r_i_glide_lipo>
-3.48458535841585

> <r_i_glide_hbond>
0

> <r_i_glide_metal>
0

> <r_i_glide_rewards>
-0.807351866038793

> <r_i_glide_evdw>
-45.1934967041016

> <r_i_glide_ecoul>
-12.9334421157837

> <r_i_glide_erotb>
0.650084511967968

> <r_i_glide_esite>
0

> <r_i_glide_emodel>
-63.098130476284

> <r_i_glide_energy>
-58.1269388198853

> <r_i_glide_einternal>
4.38950204849243

> <i_i_glide_confnum>
8

> <i_i_glide_posenum>
297

> <r_i_glide_eff_state_penalty>
0

> <s_user_duplicate_titles>
CHEMBL260_lig1755,583099

> <s_m_subgroup_title>
dock_pv

> <s_m_subgroupid>
dock_pv

> <b_m_subgroup_collapsed>
1

$$$$
CHEMBL260_lig138
                    3D
 Schrodinger Suite 2021-1.
 41 44  0  0  1  0            999 V2000
   -1.4501   -1.2585   23.5347 N   0  0  0  0  0  0
   -1.5494   -2.5603   23.1353 C   0  0  0  0  0  0
   -1.7490   -0.1580   22.7093 C   0  0  0  0  0  0
   -1.0861   -1.0076   24.8858 C   0  0  0  0  0  0
   -2.0860   -0.4102   21.3727 C   0  0  0  0  0  0
   -2.4350    0.5675   20.5331 N   0  0  0  0  0  0
   -1.6350   -2.7933   21.8079 N   0  0  0  0  0  0
   -2.4350    1.8383   20.9739 C   0  0  0  0  0  0
   -2.8350    3.0489   19.7870 S   0  0  0  0  0  0
   -3.6350    2.0835   18.4884 C   0  0  0  0  0  0
   -3.2148    2.0870   17.1322 C   0  0  0  0  0  0
   -1.7577    1.1765   23.1594 C   0  0  0  0  0  0
   -2.0753   -1.8177   20.8157 C   0  0  0  0  0  0
   -3.9933    1.4663   16.1552 C   0  0  0  0  0  0
   -2.0482   -1.0747   25.9130 C   0  0  0  0  0  0
    0.2336   -0.6346   25.2061 C   0  0  0  0  0  0
   -1.6350   -3.5130   23.8760 O   0  0  0  0  0  0
   -4.8312    1.4324   18.8152 C   0  0  0  0  0  0
   -2.0962    2.1976   22.2760 C   0  0  0  0  0  0
   -5.2107    0.8870   16.4925 C   0  0  0  0  0  0
   -2.1189    2.8331   16.6760 N   0  0  0  0  0  0
    1.4737   -0.5389   24.0000 Cl  0  0  0  0  0  0
   -3.6865   -1.5130   25.5934 Cl  0  0  0  0  0  0
   -5.6350    0.8870   17.8177 C   0  0  0  0  0  0
   -5.9783    0.3224   15.5339 F   0  0  0  0  0  0
   -0.3916   -0.3953   27.5349 C   0  0  0  0  0  0
   -1.6931   -0.7803   27.2290 C   0  0  0  0  0  0
    0.5616   -0.3130   26.5244 C   0  0  0  0  0  0
   -1.5509   -3.7516   21.5058 H   0  0  0  0  0  0
   -1.5033    1.4347   24.1768 H   0  0  0  0  0  0
   -3.0708   -2.0956   20.4643 H   0  0  0  0  0  0
   -1.4039   -1.8710   19.9569 H   0  0  0  0  0  0
   -3.6919    1.4813   15.1176 H   0  0  0  0  0  0
   -5.1842    1.4261   19.8367 H   0  0  0  0  0  0
   -2.0910    3.2292   22.5923 H   0  0  0  0  0  0
   -1.4428    3.2008   17.3365 H   0  0  0  0  0  0
   -1.9288    2.8704   15.6840 H   0  0  0  0  0  0
   -6.5818    0.4319   18.0722 H   0  0  0  0  0  0
   -0.1177   -0.1631   28.5542 H   0  0  0  0  0  0
   -2.4297   -0.8444   28.0167 H   0  0  0  0  0  0
    1.5650   -0.0121   26.7781 H   0  0  0  0  0  0
  1  2  1  0  0  0
  1  3  1  0  0  0
  1  4  1  0  0  0
  2  7  1  0  0  0
  2 17  2  0  0  0
  3  5  2  0  0  0
  3 12  1  0  0  0
  4 15  2  0  0  0
  4 16  1  0  0  0
  5  6  1  0  0  0
  5 13  1  0  0  0
  6  8  2  0  0  0
  7 13  1  0  0  0
  7 29  1  0  0  0
  8 19  1  0  0  0
  8  9  1  0  0  0
  9 10  1  0  0  0
 10 11  1  0  0  0
 10 18  2  0  0  0
 11 14  2  0  0  0
 11 21  1  0  0  0
 12 19  2  0  0  0
 12 30  1  0  0  0
 13 31  1  0  0  0
 13 32  1  0  0  0
 14 20  1  0  0  0
 14 33  1  0  0  0
 15 23  1  0  0  0
 15 27  1  0  0  0
 16 22  1  0  0  0
 16 28  2  0  0  0
 18 24  1  0  0  0
 18 34  1  0  0  0
 19 35  1  0  0  0
 20 24  2  0  0  0
 20 25  1  0  0  0
 21 36  1  0  0  0
 21 37  1  0  0  0
 24 38  1  0  0  0
 26 28  1  0  0  0
 26 27  2  0  0  0
 26 39  1  0  0  0
 27 40  1  0  0  0
 28 41  1  0  0  0
M  END
> <s_m_entry_id>
60946

> <s_m_entry_name>
dock_pv.223

> <s_m_Source_Path>
/home/csk/Desktop/cluster/DUD-E-result/mk14

> <s_m_Source_File>
dock_pv.maegz

> <i_m_Source_File_Index>
223

> <chembl_id>
CHEMBL128239

> <chembl_pref_name>
None

> <i_lp_mmshare_version>
53161

> <i_f3d_flags>
0

> <r_lp_tautomer_probability>
1

> <s_lp_Force_Field>
OPLS_2005

> <r_lp_Energy>
42.938747

> <b_lp_Chiralities_Consistent>
1

> <s_lp_Variant>
CHEMBL260_lig138-1

> <s_i_glide_gridfile>
glide-grid_2qd9

> <i_i_glide_lignum>
155

> <i_i_glide_rotatable_bonds>
3

> <r_i_docking_score>
-7.82306809642604

> <r_i_glide_ligand_efficiency>
-0.279395289158073

> <r_i_glide_ligand_efficiency_sa>
-0.848408652909059

> <r_i_glide_ligand_efficiency_ln>
-1.80579381191532

> <r_i_glide_gscore>
-7.82306809642604

> <r_i_glide_lipo>
-3.22517483612

> <r_i_glide_hbond>
-0.466877776468691

> <r_i_glide_metal>
0

> <r_i_glide_rewards>
-1.44313120455973

> <r_i_glide_evdw>
-28.2105293273926

> <r_i_glide_ecoul>
-10.3376369476318

> <r_i_glide_erotb>
0.315425546692532

> <r_i_glide_esite>
-0.0421378174557575

> <r_i_glide_emodel>
-54.1375670522071

> <r_i_glide_energy>
-38.5481662750244

> <r_i_glide_einternal>
0.793061673641205

> <i_i_glide_confnum>
11

> <i_i_glide_posenum>
368

> <r_i_glide_eff_state_penalty>
0

> <s_user_duplicate_titles>
CHEMBL260_lig138,213320

> <s_m_subgroup_title>
dock_pv

> <s_m_subgroupid>
dock_pv

> <b_m_subgroup_collapsed>
1

$$$$
CHEMBL260_lig1756
                    3D
 Schrodinger Suite 2021-1.
 43 46  0  0  1  0            999 V2000
    0.7038    0.8903   27.5165 C   0  0  0  0  0  0
    0.8874    1.2596   26.1848 C   0  0  0  0  0  0
    0.4279    0.4346   25.1620 C   0  0  0  0  0  0
   -0.2466   -0.7547   25.4625 C   0  0  0  0  0  0
   -0.4351   -1.1130   26.7984 C   0  0  0  0  0  0
    0.0427   -0.2979   27.8248 C   0  0  0  0  0  0
   -0.7161   -1.6099   24.4532 N   0  0  0  0  0  0
   -1.2694   -1.2810   23.2112 C   0  0  0  0  0  0
   -1.6283    0.0097   22.9840 N   0  0  0  0  0  0
   -1.9112   -1.9752   21.0994 C   0  0  0  0  0  0
   -1.4096   -2.2990   22.3222 N   0  0  0  0  0  0
   -2.2667   -0.6633   20.7717 C   0  0  0  0  0  0
   -2.1194    0.3163   21.7552 C   0  0  0  0  0  0
   -2.4918    1.6620   21.4641 N   0  0  0  0  0  0
   -3.0099    2.0909   20.2621 C   0  0  0  0  0  0
   -3.2350    1.0344   19.2659 C   0  0  0  0  0  0
   -2.8350   -0.2430   19.4947 C   0  0  0  0  0  0
   -2.2459    2.6660   22.5184 C   0  0  0  0  0  0
   -3.2304    3.2740   19.9947 O   0  0  0  0  0  0
   -3.9565    1.2870   17.9865 C   0  0  0  0  0  0
   -5.2990    0.8870   17.9156 C   0  0  0  0  0  0
   -5.8931    0.6699   16.6761 C   0  0  0  0  0  0
   -5.2259    0.9409   15.4947 C   0  0  0  0  0  0
   -3.9723    1.5155   15.5652 C   0  0  0  0  0  0
   -3.3519    1.7279   16.7851 C   0  0  0  0  0  0
   -1.9218    2.6753   16.6760 Cl  0  0  0  0  0  0
   -6.2113    0.4870   19.3336 Cl  0  0  0  0  0  0
    1.5650    2.4334   25.8766 N   0  0  0  0  0  0
    1.0840    1.5141   28.3128 H   0  0  0  0  0  0
    0.6042    0.7153   24.1344 H   0  0  0  0  0  0
   -0.9502   -2.0271   27.0491 H   0  0  0  0  0  0
   -0.0929   -0.5890   28.8563 H   0  0  0  0  0  0
   -0.4550   -2.5769   24.5535 H   0  0  0  0  0  0
   -2.0276   -2.7842   20.3905 H   0  0  0  0  0  0
   -2.9689   -0.9909   18.7340 H   0  0  0  0  0  0
   -2.8642    2.4507   23.3906 H   0  0  0  0  0  0
   -1.2024    2.6314   22.8354 H   0  0  0  0  0  0
   -2.4522    3.6869   22.2095 H   0  0  0  0  0  0
   -6.8350    0.1784   16.6328 H   0  0  0  0  0  0
   -5.6741    0.7261   14.5377 H   0  0  0  0  0  0
   -3.4492    1.8026   14.6760 H   0  0  0  0  0  0
    2.1973    2.7427   26.6059 H   0  0  0  0  0  0
    1.9170    2.4958   24.9311 H   0  0  0  0  0  0
  1  2  2  0  0  0
  1  6  1  0  0  0
  1 29  1  0  0  0
  2  3  1  0  0  0
  2 28  1  0  0  0
  3  4  2  0  0  0
  3 30  1  0  0  0
  4  7  1  0  0  0
  4  5  1  0  0  0
  5  6  2  0  0  0
  5 31  1  0  0  0
  6 32  1  0  0  0
  7  8  1  0  0  0
  7 33  1  0  0  0
  8  9  1  0  0  0
  8 11  2  0  0  0
  9 13  2  0  0  0
 10 12  2  0  0  0
 10 11  1  0  0  0
 10 34  1  0  0  0
 12 17  1  0  0  0
 12 13  1  0  0  0
 13 14  1  0  0  0
 14 15  1  0  0  0
 14 18  1  0  0  0
 15 16  1  0  0  0
 15 19  2  0  0  0
 16 17  2  0  0  0
 16 20  1  0  0  0
 17 35  1  0  0  0
 18 36  1  0  0  0
 18 37  1  0  0  0
 18 38  1  0  0  0
 20 21  2  0  0  0
 20 25  1  0  0  0
 21 22  1  0  0  0
 21 27  1  0  0  0
 22 23  2  0  0  0
 22 39  1  0  0  0
 23 24  1  0  0  0
 23 40  1  0  0  0
 24 25  2  0  0  0
 24 41  1  0  0  0
 25 26  1  0  0  0
 28 42  1  0  0  0
 28 43  1  0  0  0
M  END
> <s_m_entry_id>
60947

> <s_m_entry_name>
dock_pv.224

> <s_m_Source_Path>
/home/csk/Desktop/cluster/DUD-E-result/mk14

> <s_m_Source_File>
dock_pv.maegz

> <i_m_Source_File_Index>
224

> <chembl_id>
CHEMBL577269

> <chembl_pref_name>
None

> <i_lp_mmshare_version>
53161

> <i_f3d_flags>
0

> <r_lp_tautomer_probability>
1

> <s_lp_Force_Field>
OPLS_2005

> <r_lp_Energy>
29.150254

> <b_lp_Chiralities_Consistent>
1

> <s_lp_Variant>
CHEMBL260_lig1756-1

> <s_i_glide_gridfile>
glide-grid_2qd9

> <i_i_glide_lignum>
2018

> <i_i_glide_rotatable_bonds>
3

> <r_i_docking_score>
-7.80864820611518

> <r_i_glide_ligand_efficiency>
-0.278880293075542

> <r_i_glide_ligand_efficiency_sa>
-0.846844821486024

> <r_i_glide_ligand_efficiency_ln>
-1.8024652778452

> <r_i_glide_gscore>
-7.80864820611518

> <r_i_glide_lipo>
-3.5254606720548

> <r_i_glide_hbond>
-0.0637738153504389

> <r_i_glide_metal>
0

> <r_i_glide_rewards>
-1.45476962332472

> <r_i_glide_evdw>
-40.4924049377441

> <r_i_glide_ecoul>
-6.90852785110474

> <r_i_glide_erotb>
0.34801985443435

> <r_i_glide_esite>
-0.0517645252666518

> <r_i_glide_emodel>
-61.9800872176682

> <r_i_glide_energy>
-47.4009327888489

> <r_i_glide_einternal>
2.30159163475037

> <i_i_glide_confnum>
4

> <i_i_glide_posenum>
122

> <r_i_glide_eff_state_penalty>
0

> <s_user_duplicate_titles>
CHEMBL260_lig1756,583100

> <s_m_subgroup_title>
dock_pv

> <s_m_subgroupid>
dock_pv

> <b_m_subgroup_collapsed>
1

$$$$
CHEMBL260_lig930
                    3D
 Schrodinger Suite 2021-1.
 40 43  0  0  1  0            999 V2000
   -2.8130   -1.6288   27.5111 C   0  0  0  0  0  0
   -1.8930   -0.7138   28.0145 C   0  0  0  0  0  0
   -1.0105   -0.0699   27.1498 C   0  0  0  0  0  0
   -2.8357   -1.9130   26.1470 C   0  0  0  0  0  0
   -1.9489   -1.2676   25.2718 C   0  0  0  0  0  0
   -1.0309   -0.3313   25.7745 C   0  0  0  0  0  0
   -0.1276    0.4144   24.8197 C   0  0  0  0  0  0
   -2.0083   -1.6927   23.8342 C   0  0  0  0  0  0
   -1.0911    1.5886   23.8509 S   0  0  0  0  0  0
   -2.0350   -2.9141   23.6262 O   0  0  0  0  0  0
   -2.2941   -0.7334   22.6938 C   0  0  0  0  0  0
   -2.0131    0.6570   22.6448 C   0  0  0  0  0  0
   -2.4346    1.3990   21.5405 C   0  0  0  0  0  0
   -3.0528    0.8068   20.4473 C   0  0  0  0  0  0
   -3.2793   -0.5665   20.4605 C   0  0  0  0  0  0
   -2.9138   -1.3256   21.5719 C   0  0  0  0  0  0
   -3.3185    1.6264   19.3438 N   0  0  0  0  0  0
   -3.9489    1.3655   18.1150 C   0  0  0  0  0  0
   -5.2674    0.8870   17.9912 C   0  0  0  0  0  0
   -5.8359    0.7447   16.7241 C   0  0  0  0  0  0
   -5.1052    1.0407   15.5791 C   0  0  0  0  0  0
   -3.8007    1.5092   15.6947 C   0  0  0  0  0  0
   -3.2351    1.6870   16.9549 C   0  0  0  0  0  0
   -6.0347    0.4872   19.0880 N   0  0  0  0  0  0
   -3.4943   -2.1323   28.1816 H   0  0  0  0  0  0
   -1.8633   -0.5030   29.0736 H   0  0  0  0  0  0
   -0.3104    0.6474   27.5538 H   0  0  0  0  0  0
   -3.5474   -2.6416   25.7875 H   0  0  0  0  0  0
    0.6353    0.9666   25.3709 H   0  0  0  0  0  0
    0.4089   -0.2727   24.1640 H   0  0  0  0  0  0
   -2.2185    2.4570   21.5100 H   0  0  0  0  0  0
   -3.7269   -1.0552   19.6076 H   0  0  0  0  0  0
   -3.1346   -2.3843   21.5310 H   0  0  0  0  0  0
   -2.6801    2.4053   19.3013 H   0  0  0  0  0  0
   -6.8349    0.3505   16.6212 H   0  0  0  0  0  0
   -5.5508    0.8919   14.6077 H   0  0  0  0  0  0
   -3.2281    1.7341   14.8076 H   0  0  0  0  0  0
   -2.2287    2.0714   17.0176 H   0  0  0  0  0  0
   -6.8649   -0.0677   18.9221 H   0  0  0  0  0  0
   -5.5926    0.4928   19.9958 H   0  0  0  0  0  0
  1  2  2  0  0  0
  1  4  1  0  0  0
  1 25  1  0  0  0
  2  3  1  0  0  0
  2 26  1  0  0  0
  3  6  2  0  0  0
  3 27  1  0  0  0
  4  5  2  0  0  0
  4 28  1  0  0  0
  5  6  1  0  0  0
  5  8  1  0  0  0
  6  7  1  0  0  0
  7  9  1  0  0  0
  7 29  1  0  0  0
  7 30  1  0  0  0
  8 11  1  0  0  0
  8 10  2  0  0  0
  9 12  1  0  0  0
 11 12  2  0  0  0
 11 16  1  0  0  0
 12 13  1  0  0  0
 13 14  2  0  0  0
 13 31  1  0  0  0
 14 15  1  0  0  0
 14 17  1  0  0  0
 15 16  2  0  0  0
 15 32  1  0  0  0
 16 33  1  0  0  0
 17 18  1  0  0  0
 17 34  1  0  0  0
 18 19  2  0  0  0
 18 23  1  0  0  0
 19 20  1  0  0  0
 19 24  1  0  0  0
 20 21  2  0  0  0
 20 35  1  0  0  0
 21 22  1  0  0  0
 21 36  1  0  0  0
 22 23  2  0  0  0
 22 37  1  0  0  0
 23 38  1  0  0  0
 24 39  1  0  0  0
 24 40  1  0  0  0
M  END
> <s_m_entry_id>
60948

> <s_m_entry_name>
dock_pv.225

> <s_m_Source_Path>
/home/csk/Desktop/cluster/DUD-E-result/mk14

> <s_m_Source_File>
dock_pv.maegz

> <i_m_Source_File_Index>
225

> <chembl_id>
CHEMBL220074

> <chembl_pref_name>
None

> <i_lp_mmshare_version>
53161

> <i_f3d_flags>
0

> <r_lp_tautomer_probability>
1

> <s_lp_Force_Field>
OPLS_2005

> <r_lp_Energy>
39.306244

> <b_lp_Chiralities_Consistent>
1

> <s_lp_Variant>
CHEMBL260_lig930-1

> <s_i_glide_gridfile>
glide-grid_2qd9

> <i_i_glide_lignum>
1033

> <i_i_glide_rotatable_bonds>
2

> <r_i_docking_score>
-7.80471697058582

> <r_i_glide_ligand_efficiency>
-0.325196540441076

> <r_i_glide_ligand_efficiency_sa>
-0.938029140439492

> <r_i_glide_ligand_efficiency_ln>
-1.86802690618657

> <r_i_glide_gscore>
-7.80471697058582

> <r_i_glide_lipo>
-3.44485759494513

> <r_i_glide_hbond>
-0.477376634507765

> <r_i_glide_metal>
0

> <r_i_glide_rewards>
-1.49157639955104

> <r_i_glide_evdw>
-40.3491287231445

> <r_i_glide_ecoul>
-4.76220989227295

> <r_i_glide_erotb>
0.340881578416285

> <r_i_glide_esite>
0

> <r_i_glide_emodel>
-60.8682792200623

> <r_i_glide_energy>
-45.1113386154175

> <r_i_glide_einternal>
8.8832426071167

> <i_i_glide_confnum>
21

> <i_i_glide_posenum>
254

> <r_i_glide_eff_state_penalty>
0

> <s_user_duplicate_titles>
CHEMBL260_lig930

> <s_m_subgroup_title>
dock_pv

> <s_m_subgroupid>
dock_pv

> <b_m_subgroup_collapsed>
1

$$$$
CHEMBL260_lig1605
                    3D
 Schrodinger Suite 2021-1.
 42 45  0  0  1  0            999 V2000
   -1.0737    1.3612   23.8414 C   0  0  0  0  0  0
   -0.1178    0.5537   24.7299 C   0  0  0  0  0  0
   -1.9375   -1.6996   23.9403 C   0  0  0  0  0  0
   -1.8607    0.6261   22.7539 C   0  0  0  0  0  0
   -2.2148   -0.7453   22.7989 C   0  0  0  0  0  0
   -2.8783   -1.3152   21.6935 C   0  0  0  0  0  0
   -3.2345   -0.5404   20.5927 C   0  0  0  0  0  0
   -2.9512    0.8232   20.5755 C   0  0  0  0  0  0
   -2.2782    1.3838   21.6543 C   0  0  0  0  0  0
   -1.7839   -1.2411   25.3604 C   0  0  0  0  0  0
   -0.8655   -0.2590   25.7681 C   0  0  0  0  0  0
   -0.7333    0.0198   27.1339 C   0  0  0  0  0  0
   -1.5081   -0.6465   28.0796 C   0  0  0  0  0  0
   -2.4343   -1.6000   27.6685 C   0  0  0  0  0  0
   -2.5612   -1.9129   26.3164 C   0  0  0  0  0  0
   -2.0351   -2.9213   23.7531 O   0  0  0  0  0  0
   -3.2353    1.6577   19.4853 N   0  0  0  0  0  0
   -3.9103    1.3890   18.2824 C   0  0  0  0  0  0
   -3.2396    1.6859   17.0862 C   0  0  0  0  0  0
   -3.8291    1.4033   15.8589 C   0  0  0  0  0  0
   -5.1118    0.8711   15.8135 C   0  0  0  0  0  0
   -5.8324    0.6726   16.9846 C   0  0  0  0  0  0
   -5.2286    0.8871   18.2234 C   0  0  0  0  0  0
   -5.9707    0.5716   19.3640 N   0  0  0  0  0  0
   -5.6350    0.4871   14.6361 F   0  0  0  0  0  0
   -1.7865    1.8962   24.4705 H   0  0  0  0  0  0
   -0.4845    2.1412   23.3573 H   0  0  0  0  0  0
    0.5543    1.2461   25.2398 H   0  0  0  0  0  0
    0.5420   -0.0884   24.1440 H   0  0  0  0  0  0
   -3.1425   -2.3638   21.6606 H   0  0  0  0  0  0
   -3.7227   -1.0125   19.7538 H   0  0  0  0  0  0
   -2.0355    2.4359   21.6241 H   0  0  0  0  0  0
   -0.0340    0.7733   27.4672 H   0  0  0  0  0  0
   -1.3931   -0.4187   29.1296 H   0  0  0  0  0  0
   -3.0311   -2.1196   28.4032 H   0  0  0  0  0  0
   -3.2663   -2.6796   26.0255 H   0  0  0  0  0  0
   -2.5920    2.4325   19.4263 H   0  0  0  0  0  0
   -2.2421    2.0983   17.0760 H   0  0  0  0  0  0
   -3.2840    1.5748   14.9429 H   0  0  0  0  0  0
   -6.8308    0.2598   16.9292 H   0  0  0  0  0  0
   -6.8178    0.0301   19.2545 H   0  0  0  0  0  0
   -5.5071    0.6377   20.2591 H   0  0  0  0  0  0
  1  4  1  0  0  0
  1  2  1  0  0  0
  1 26  1  0  0  0
  1 27  1  0  0  0
  2 11  1  0  0  0
  2 28  1  0  0  0
  2 29  1  0  0  0
  3 16  2  0  0  0
  3  5  1  0  0  0
  3 10  1  0  0  0
  4  9  1  0  0  0
  4  5  2  0  0  0
  5  6  1  0  0  0
  6  7  2  0  0  0
  6 30  1  0  0  0
  7  8  1  0  0  0
  7 31  1  0  0  0
  8 17  1  0  0  0
  8  9  2  0  0  0
  9 32  1  0  0  0
 10 15  1  0  0  0
 10 11  2  0  0  0
 11 12  1  0  0  0
 12 13  2  0  0  0
 12 33  1  0  0  0
 13 14  1  0  0  0
 13 34  1  0  0  0
 14 15  2  0  0  0
 14 35  1  0  0  0
 15 36  1  0  0  0
 17 18  1  0  0  0
 17 37  1  0  0  0
 18 19  2  0  0  0
 18 23  1  0  0  0
 19 20  1  0  0  0
 19 38  1  0  0  0
 20 21  2  0  0  0
 20 39  1  0  0  0
 21 22  1  0  0  0
 21 25  1  0  0  0
 22 23  2  0  0  0
 22 40  1  0  0  0
 23 24  1  0  0  0
 24 41  1  0  0  0
 24 42  1  0  0  0
M  END
> <s_m_entry_id>
60949

> <s_m_entry_name>
dock_pv.226

> <s_m_Source_Path>
/home/csk/Desktop/cluster/DUD-E-result/mk14

> <s_m_Source_File>
dock_pv.maegz

> <i_m_Source_File_Index>
226

> <chembl_id>
CHEMBL473581

> <chembl_pref_name>
None

> <i_lp_mmshare_version>
53161

> <i_f3d_flags>
0

> <r_lp_tautomer_probability>
1

> <s_lp_Force_Field>
OPLS_2005

> <r_lp_Energy>
37.509958

> <b_lp_Chiralities_Consistent>
1

> <s_lp_Variant>
CHEMBL260_lig1605-1

> <s_i_glide_gridfile>
glide-grid_2qd9

> <i_i_glide_lignum>
1854

> <i_i_glide_rotatable_bonds>
2

> <r_i_docking_score>
-7.80326397044365

> <r_i_glide_ligand_efficiency>
-0.312130558817746

> <r_i_glide_ligand_efficiency_sa>
-0.912675289642121

> <r_i_glide_ligand_efficiency_ln>
-1.84960740594621

> <r_i_glide_gscore>
-7.80326397044365

> <r_i_glide_lipo>
-3.4002166733213

> <r_i_glide_hbond>
-0.391148672666788

> <r_i_glide_metal>
0

> <r_i_glide_rewards>
-1.76846919751815

> <r_i_glide_evdw>
-37.9981460571289

> <r_i_glide_ecoul>
-4.56328344345093

> <r_i_glide_erotb>
0.340970392436678

> <r_i_glide_esite>
0

> <r_i_glide_emodel>
-56.4189515173737

> <r_i_glide_energy>
-42.5614295005798

> <r_i_glide_einternal>
9.00924205780029

> <i_i_glide_confnum>
49

> <i_i_glide_posenum>
298

> <r_i_glide_eff_state_penalty>
0

> <s_user_duplicate_titles>
CHEMBL260_lig1605,458656

> <s_m_subgroup_title>
dock_pv

> <s_m_subgroupid>
dock_pv

> <b_m_subgroup_collapsed>
1

$$$$
CHEMBL260_lig940
                    3D
 Schrodinger Suite 2021-1.
 40 43  0  0  1  0            999 V2000
   -1.3118    1.3335   23.5417 O   0  0  0  0  0  0
   -0.2605    0.6981   24.2534 C   0  0  0  0  0  0
   -1.9264   -1.7068   23.7329 C   0  0  0  0  0  0
   -2.0062    0.6216   22.5869 C   0  0  0  0  0  0
   -2.2397   -0.7759   22.5846 C   0  0  0  0  0  0
   -2.8422   -1.3646   21.4561 C   0  0  0  0  0  0
   -3.2355   -0.5827   20.3713 C   0  0  0  0  0  0
   -3.0410    0.7978   20.3967 C   0  0  0  0  0  0
   -2.4343    1.3790   21.5010 C   0  0  0  0  0  0
   -1.6734   -1.1967   25.1224 C   0  0  0  0  0  0
   -0.8351   -0.1037   25.4021 C   0  0  0  0  0  0
   -0.5940    0.2488   26.7355 C   0  0  0  0  0  0
   -1.1942   -0.4547   27.7781 C   0  0  0  0  0  0
   -2.0537   -1.5127   27.4966 C   0  0  0  0  0  0
   -2.2879   -1.8911   26.1747 C   0  0  0  0  0  0
   -2.0354   -2.9312   23.5799 O   0  0  0  0  0  0
   -3.3355    1.6414   19.3213 N   0  0  0  0  0  0
   -3.9558    1.3732   18.0914 C   0  0  0  0  0  0
   -3.2355    1.6891   16.9332 C   0  0  0  0  0  0
   -3.8019    1.5025   15.6745 C   0  0  0  0  0  0
   -5.1061    1.0321   15.5598 C   0  0  0  0  0  0
   -5.8375    0.7359   16.7046 C   0  0  0  0  0  0
   -5.2722    0.8869   17.9728 C   0  0  0  0  0  0
   -6.0344    0.4873   19.0759 N   0  0  0  0  0  0
    0.4048    1.4738   24.6368 H   0  0  0  0  0  0
    0.3553    0.0726   23.6048 H   0  0  0  0  0  0
   -3.0271   -2.4289   21.3927 H   0  0  0  0  0  0
   -3.6767   -1.0553   19.5051 H   0  0  0  0  0  0
   -2.2384    2.4412   21.5059 H   0  0  0  0  0  0
    0.0543    1.0807   26.9695 H   0  0  0  0  0  0
   -0.9976   -0.1755   28.8040 H   0  0  0  0  0  0
   -2.5218   -2.0544   28.3048 H   0  0  0  0  0  0
   -2.9604   -2.7132   25.9792 H   0  0  0  0  0  0
   -2.7295    2.4486   19.2975 H   0  0  0  0  0  0
   -2.2300    2.0744   16.9973 H   0  0  0  0  0  0
   -3.2304    1.7268   14.7875 H   0  0  0  0  0  0
   -5.5494    0.8823   14.5871 H   0  0  0  0  0  0
   -6.8344    0.3377   16.6003 H   0  0  0  0  0  0
   -6.8571   -0.0782   18.9113 H   0  0  0  0  0  0
   -5.5730    0.4726   19.9727 H   0  0  0  0  0  0
  1  4  1  0  0  0
  1  2  1  0  0  0
  2 11  1  0  0  0
  2 25  1  0  0  0
  2 26  1  0  0  0
  3 16  2  0  0  0
  3  5  1  0  0  0
  3 10  1  0  0  0
  4  5  2  0  0  0
  4  9  1  0  0  0
  5  6  1  0  0  0
  6  7  2  0  0  0
  6 27  1  0  0  0
  7  8  1  0  0  0
  7 28  1  0  0  0
  8 17  1  0  0  0
  8  9  2  0  0  0
  9 29  1  0  0  0
 10 15  1  0  0  0
 10 11  2  0  0  0
 11 12  1  0  0  0
 12 13  2  0  0  0
 12 30  1  0  0  0
 13 14  1  0  0  0
 13 31  1  0  0  0
 14 15  2  0  0  0
 14 32  1  0  0  0
 15 33  1  0  0  0
 17 18  1  0  0  0
 17 34  1  0  0  0
 18 19  2  0  0  0
 18 23  1  0  0  0
 19 20  1  0  0  0
 19 35  1  0  0  0
 20 21  2  0  0  0
 20 36  1  0  0  0
 21 22  1  0  0  0
 21 37  1  0  0  0
 22 23  2  0  0  0
 22 38  1  0  0  0
 23 24  1  0  0  0
 24 39  1  0  0  0
 24 40  1  0  0  0
M  END
> <s_m_entry_id>
60950

> <s_m_entry_name>
dock_pv.227

> <s_m_Source_Path>
/home/csk/Desktop/cluster/DUD-E-result/mk14

> <s_m_Source_File>
dock_pv.maegz

> <i_m_Source_File_Index>
227

> <chembl_id>
CHEMBL375978

> <chembl_pref_name>
None

> <i_lp_mmshare_version>
53161

> <i_f3d_flags>
0

> <r_lp_tautomer_probability>
1

> <s_lp_Force_Field>
OPLS_2005

> <r_lp_Energy>
36.926402

> <b_lp_Chiralities_Consistent>
1

> <s_lp_Variant>
CHEMBL260_lig940-1

> <s_i_glide_gridfile>
glide-grid_2qd9

> <i_i_glide_lignum>
1043

> <i_i_glide_rotatable_bonds>
2

> <r_i_docking_score>
-7.79973504243996

> <r_i_glide_ligand_efficiency>
-0.324988960101665

> <r_i_glide_ligand_efficiency_sa>
-0.937430375129487

> <r_i_glide_ligand_efficiency_ln>
-1.86683450217548

> <r_i_glide_gscore>
-7.79973504243996

> <r_i_glide_lipo>
-3.38375622258716

> <r_i_glide_hbond>
-0.483543224741369

> <r_i_glide_metal>
0

> <r_i_glide_rewards>
-1.60653683057709

> <r_i_glide_evdw>
-38.7907905578613

> <r_i_glide_ecoul>
-5.05583620071411

> <r_i_glide_erotb>
0.372016193465849

> <r_i_glide_esite>
0

> <r_i_glide_emodel>
-59.0187126872729

> <r_i_glide_energy>
-43.8466267585754

> <r_i_glide_einternal>
8.92372608184814

> <i_i_glide_confnum>
21

> <i_i_glide_posenum>
128

> <r_i_glide_eff_state_penalty>
0

> <s_user_duplicate_titles>
CHEMBL260_lig940,365361

> <s_m_subgroup_title>
dock_pv

> <s_m_subgroupid>
dock_pv

> <b_m_subgroup_collapsed>
1

$$$$
CHEMBL260_lig1232
                    3D
 Schrodinger Suite 2021-1.
 60 63  0  0  1  0            999 V2000
    0.7998    5.4674   23.7492 N   0  0  0  0  0  0
   -1.8921   -2.4641   22.1594 C   0  0  0  0  0  0
   -2.3212   -2.4827   20.7750 C   0  0  0  0  0  0
   -2.7598   -1.4003   20.1012 C   0  0  0  0  0  0
   -1.8447   -1.2111   22.7142 N   0  0  0  0  0  0
   -2.2524   -0.0157   22.0373 C   0  0  0  0  0  0
   -2.7391   -0.0666   20.7088 C   0  0  0  0  0  0
   -3.1122    1.1047   20.0094 C   0  0  0  0  0  0
   -2.8368    2.3319   20.6411 C   0  0  0  0  0  0
   -2.4130    2.3848   21.9739 C   0  0  0  0  0  0
   -2.1569    1.2211   22.6657 C   0  0  0  0  0  0
   -1.6425   -3.5129   22.7544 O   0  0  0  0  0  0
   -1.4201   -1.1170   24.0697 C   0  0  0  0  0  0
   -2.3503   -1.2760   25.1136 C   0  0  0  0  0  0
   -1.9332   -1.1976   26.4426 C   0  0  0  0  0  0
   -0.6000   -0.9295   26.7462 C   0  0  0  0  0  0
    0.3162   -0.7138   25.7197 C   0  0  0  0  0  0
   -0.0848   -0.7974   24.3863 C   0  0  0  0  0  0
    1.0793   -0.4230   23.1644 Cl  0  0  0  0  0  0
   -4.0302   -1.5128   24.7905 Cl  0  0  0  0  0  0
   -3.7962    1.0863   18.6577 C   0  0  0  0  0  0
   -3.0953    1.2574   17.4558 C   0  0  0  0  0  0
   -3.7042    1.2901   16.2039 C   0  0  0  0  0  0
   -5.0739    1.1122   16.1118 C   0  0  0  0  0  0
   -5.7939    0.8870   17.2757 C   0  0  0  0  0  0
   -5.1769    0.8801   18.5271 C   0  0  0  0  0  0
   -6.1595    0.4915   19.8764 Cl  0  0  0  0  0  0
   -2.1696    3.5566   22.6391 O   0  0  0  0  0  0
   -0.7846    3.9037   22.6773 C   0  0  0  0  0  0
   -0.4682    4.7631   23.9107 C   0  0  0  0  0  0
    0.9449    6.6248   23.0738 C   0  0  0  0  0  0
    2.3980    7.1511   22.8338 C   0  0  0  0  0  0
   -0.0364    7.2592   22.6758 O   0  0  0  0  0  0
    2.4887    7.6857   21.4805 N   0  0  0  0  0  0
    2.7553    8.2798   23.8189 C   0  0  0  0  0  0
    3.4521    6.0202   22.8950 C   0  0  0  0  0  0
    1.6285    5.0037   24.0951 H   0  0  0  0  0  0
   -2.3094   -3.4425   20.2840 H   0  0  0  0  0  0
   -3.0691   -1.5112   19.0770 H   0  0  0  0  0  0
   -3.0453    3.2565   20.1250 H   0  0  0  0  0  0
   -1.8127    1.3173   23.6843 H   0  0  0  0  0  0
   -2.6460   -1.3330   27.2432 H   0  0  0  0  0  0
   -0.2801   -0.8701   27.7771 H   0  0  0  0  0  0
    1.3426   -0.4780   25.9620 H   0  0  0  0  0  0
   -2.0357    1.3089   17.4559 H   0  0  0  0  0  0
   -3.1127    1.4228   15.3094 H   0  0  0  0  0  0
   -5.5656    1.1085   15.1502 H   0  0  0  0  0  0
   -6.8358    0.6757   17.2036 H   0  0  0  0  0  0
   -0.1249    3.0338   22.7054 H   0  0  0  0  0  0
   -0.5359    4.4374   21.7559 H   0  0  0  0  0  0
   -1.2814    5.4558   24.1277 H   0  0  0  0  0  0
   -0.3957    4.1178   24.7880 H   0  0  0  0  0  0
    3.4428    7.6268   21.1667 H   0  0  0  0  0  0
    1.9846    7.0604   20.8499 H   0  0  0  0  0  0
    2.7272    7.9297   24.8519 H   0  0  0  0  0  0
    3.7581    8.6695   23.6376 H   0  0  0  0  0  0
    2.0610    9.1186   23.7380 H   0  0  0  0  0  0
    3.5766    5.6443   23.9117 H   0  0  0  0  0  0
    3.1634    5.1695   22.2762 H   0  0  0  0  0  0
    4.4339    6.3481   22.5608 H   0  0  0  0  0  0
  1 30  1  0  0  0
  1 31  1  0  0  0
  1 37  1  0  0  0
  2 12  2  0  0  0
  2  3  1  0  0  0
  2  5  1  0  0  0
  3  4  2  0  0  0
  3 38  1  0  0  0
  4  7  1  0  0  0
  4 39  1  0  0  0
  5  6  1  0  0  0
  5 13  1  0  0  0
  6 11  1  0  0  0
  6  7  2  0  0  0
  7  8  1  0  0  0
  8 21  1  0  0  0
  8  9  2  0  0  0
  9 10  1  0  0  0
  9 40  1  0  0  0
 10 11  2  0  0  0
 10 28  1  0  0  0
 11 41  1  0  0  0
 13 18  1  0  0  0
 13 14  2  0  0  0
 14 20  1  0  0  0
 14 15  1  0  0  0
 15 16  2  0  0  0
 15 42  1  0  0  0
 16 17  1  0  0  0
 16 43  1  0  0  0
 17 18  2  0  0  0
 17 44  1  0  0  0
 18 19  1  0  0  0
 21 22  2  0  0  0
 21 26  1  0  0  0
 22 23  1  0  0  0
 22 45  1  0  0  0
 23 24  2  0  0  0
 23 46  1  0  0  0
 24 25  1  0  0  0
 24 47  1  0  0  0
 25 26  2  0  0  0
 25 48  1  0  0  0
 26 27  1  0  0  0
 28 29  1  0  0  0
 29 30  1  0  0  0
 29 49  1  0  0  0
 29 50  1  0  0  0
 30 51  1  0  0  0
 30 52  1  0  0  0
 31 32  1  0  0  0
 31 33  2  0  0  0
 32 34  1  0  0  0
 32 35  1  0  0  0
 32 36  1  0  0  0
 34 53  1  0  0  0
 34 54  1  0  0  0
 35 55  1  0  0  0
 35 56  1  0  0  0
 35 57  1  0  0  0
 36 58  1  0  0  0
 36 59  1  0  0  0
 36 60  1  0  0  0
M  END
> <s_m_entry_id>
60951

> <s_m_entry_name>
dock_pv.228

> <s_m_Source_Path>
/home/csk/Desktop/cluster/DUD-E-result/mk14

> <s_m_Source_File>
dock_pv.maegz

> <i_m_Source_File_Index>
228

> <chembl_id>
CHEMBL270004

> <chembl_pref_name>
None

> <i_lp_mmshare_version>
53161

> <i_f3d_flags>
0

> <r_lp_tautomer_probability>
1

> <s_lp_Force_Field>
OPLS_2005

> <r_lp_Energy>
51.719311

> <b_lp_Chiralities_Consistent>
1

> <s_lp_Variant>
CHEMBL260_lig1232-1

> <s_i_glide_gridfile>
glide-grid_2qd9

> <i_i_glide_lignum>
1404

> <i_i_glide_rotatable_bonds>
8

> <r_i_docking_score>
-7.77183200865395

> <r_i_glide_ligand_efficiency>
-0.21588422246261

> <r_i_glide_ligand_efficiency_sa>
-0.712833995904236

> <r_i_glide_ligand_efficiency_ln>
-1.69560377365251

> <r_i_glide_gscore>
-7.77183200865395

> <r_i_glide_lipo>
-4.70057255452289

> <r_i_glide_hbond>
-0.511442301934198

> <r_i_glide_metal>
0

> <r_i_glide_rewards>
1.03185614472392

> <r_i_glide_evdw>
-41.8676300048828

> <r_i_glide_ecoul>
-12.877197265625

> <r_i_glide_erotb>
0.488112407710756

> <r_i_glide_esite>
-0.0548246145436487

> <r_i_glide_emodel>
-62.6764640635873

> <r_i_glide_energy>
-54.7448272705078

> <r_i_glide_einternal>
10.8328533172607

> <i_i_glide_confnum>
2

> <i_i_glide_posenum>
152

> <r_i_glide_eff_state_penalty>
0

> <s_user_duplicate_titles>
CHEMBL260_lig1232,434044

> <s_m_subgroup_title>
dock_pv

> <s_m_subgroupid>
dock_pv

> <b_m_subgroup_collapsed>
1

$$$$
CHEMBL260_lig208
                    3D
 Schrodinger Suite 2021-1.
 49 52  0  0  1  0            999 V2000
   -2.4092    1.0951   21.5932 C   0  0  0  0  0  0
   -2.0038    2.0221   22.5599 N   0  0  0  0  0  0
   -2.4527    3.1545   20.6711 N   0  0  0  0  0  0
   -2.8440    1.9027   20.5187 C   0  0  0  0  0  0
   -2.0349    3.2198   21.9010 C   0  0  0  0  0  0
   -2.3148   -0.4097   21.6641 C   0  0  0  0  0  0
   -1.9274   -0.9447   22.8461 N   0  0  0  0  0  0
   -1.5909   -2.2599   22.8765 C   0  0  0  0  0  0
   -3.6636    1.5328   19.3184 C   0  0  0  0  0  0
   -1.6795   -3.1130   21.8317 N   0  0  0  0  0  0
   -1.5523    1.8895   23.9683 C   0  0  0  0  0  0
   -0.7466    3.4603   26.3284 N   0  0  2  0  0  0
   -2.4207   -1.2197   20.5236 C   0  0  0  0  0  0
   -3.2840    1.8696   18.0141 C   0  0  0  0  0  0
   -4.8806    0.8753   19.5195 C   0  0  0  0  0  0
   -2.0946   -2.5712   20.6590 C   0  0  0  0  0  0
   -1.0225   -2.7896   24.0183 O   0  0  0  0  0  0
   -5.2852    0.8870   17.1434 C   0  0  0  0  0  0
   -0.1305    2.4940   24.1338 C   0  0  0  0  0  0
   -2.5646    2.6349   24.8724 C   0  0  0  0  0  0
   -4.0704    1.5173   16.9255 C   0  0  0  0  0  0
   -5.7073    0.5801   18.4381 C   0  0  0  0  0  0
   -6.0349    0.5405   16.0779 F   0  0  0  0  0  0
   -2.0546    2.8077   26.3154 C   0  0  0  0  0  0
    0.2648    2.6845   25.6107 C   0  0  0  0  0  0
   -0.5100   -1.9126   25.0287 C   0  0  0  0  0  0
    0.7233   -1.1131   24.5601 C   0  0  0  0  0  0
   -1.6348    4.0869   22.4049 H   0  0  0  0  0  0
   -1.5373    0.8523   24.2597 H   0  0  0  0  0  0
   -0.4403    3.5910   27.2839 H   0  0  0  0  0  0
   -2.6738   -0.8287   19.5517 H   0  0  0  0  0  0
   -2.4350    2.4867   17.8166 H   0  0  0  0  0  0
   -5.1991    0.6150   20.5175 H   0  0  0  0  0  0
   -2.1204   -3.2301   19.8038 H   0  0  0  0  0  0
    0.5864    1.7793   23.7303 H   0  0  0  0  0  0
    0.0680    3.3941   23.5537 H   0  0  0  0  0  0
   -2.9369    3.5717   24.4582 H   0  0  0  0  0  0
   -3.4569    2.0113   24.9493 H   0  0  0  0  0  0
   -3.7660    1.7752   15.9213 H   0  0  0  0  0  0
   -6.6561    0.0867   18.5915 H   0  0  0  0  0  0
   -1.9946    1.8437   26.8238 H   0  0  0  0  0  0
   -2.7496    3.4288   26.8822 H   0  0  0  0  0  0
    0.4156    1.7216   26.1029 H   0  0  0  0  0  0
    1.2115    3.2239   25.6722 H   0  0  0  0  0  0
   -0.2250   -2.5307   25.8759 H   0  0  0  0  0  0
   -1.2931   -1.2492   25.3993 H   0  0  0  0  0  0
    1.0952   -0.4702   25.3577 H   0  0  0  0  0  0
    0.5113   -0.4874   23.6960 H   0  0  0  0  0  0
    1.5390   -1.7775   24.2761 H   0  0  0  0  0  0
  1  2  1  0  0  0
  1  4  2  0  0  0
  1  6  1  0  0  0
  2  5  1  0  0  0
  2 11  1  0  0  0
  3  4  1  0  0  0
  3  5  2  0  0  0
  4  9  1  0  0  0
  5 28  1  0  0  0
  6  7  2  0  0  0
  6 13  1  0  0  0
  7  8  1  0  0  0
  8 17  1  0  0  0
  8 10  2  0  0  0
  9 14  2  0  0  0
  9 15  1  0  0  0
 10 16  1  0  0  0
 11 19  1  0  0  0
 11 20  1  0  0  0
 11 29  1  0  0  0
 12 24  1  0  0  0
 12 25  1  0  0  0
 12 30  1  0  0  0
 13 16  2  0  0  0
 13 31  1  0  0  0
 14 21  1  0  0  0
 14 32  1  0  0  0
 15 22  2  0  0  0
 15 33  1  0  0  0
 16 34  1  0  0  0
 17 26  1  0  0  0
 18 22  1  0  0  0
 18 23  1  0  0  0
 18 21  2  0  0  0
 19 25  1  0  0  0
 19 35  1  0  0  0
 19 36  1  0  0  0
 20 24  1  0  0  0
 20 37  1  0  0  0
 20 38  1  0  0  0
 21 39  1  0  0  0
 22 40  1  0  0  0
 24 41  1  0  0  0
 24 42  1  0  0  0
 25 43  1  0  0  0
 25 44  1  0  0  0
 26 27  1  0  0  0
 26 45  1  0  0  0
 26 46  1  0  0  0
 27 47  1  0  0  0
 27 48  1  0  0  0
 27 49  1  0  0  0
M  END
> <s_m_entry_id>
60952

> <s_m_entry_name>
dock_pv.229

> <s_m_Source_Path>
/home/csk/Desktop/cluster/DUD-E-result/mk14

> <s_m_Source_File>
dock_pv.maegz

> <i_m_Source_File_Index>
229

> <chembl_id>
CHEMBL327949

> <chembl_pref_name>
None

> <i_lp_mmshare_version>
53161

> <i_f3d_flags>
0

> <r_lp_tautomer_probability>
1

> <s_lp_Force_Field>
OPLS_2005

> <r_lp_Energy>
28.252061

> <b_lp_Chiralities_Consistent>
1

> <s_lp_Variant>
CHEMBL260_lig208-1

> <s_i_glide_gridfile>
glide-grid_2qd9

> <i_i_glide_lignum>
225

> <i_i_glide_rotatable_bonds>
5

> <r_i_docking_score>
-7.76468500246601

> <r_i_glide_ligand_efficiency>
-0.28758092601726

> <r_i_glide_ligand_efficiency_sa>
-0.862742777103959

> <r_i_glide_ligand_efficiency_ln>
-1.80749065773723

> <r_i_glide_gscore>
-7.76468500246601

> <r_i_glide_lipo>
-2.82530013922938

> <r_i_glide_hbond>
-0.395918173250929

> <r_i_glide_metal>
0

> <r_i_glide_rewards>
-2.68294999655791

> <r_i_glide_evdw>
-33.3931007385254

> <r_i_glide_ecoul>
-4.83588075637817

> <r_i_glide_erotb>
0.570631875474872

> <r_i_glide_esite>
-0.0361114185196659

> <r_i_glide_emodel>
-49.1760906494453

> <r_i_glide_energy>
-38.2289814949036

> <r_i_glide_einternal>
4.53470897674561

> <i_i_glide_confnum>
4

> <i_i_glide_posenum>
330

> <r_i_glide_eff_state_penalty>
0

> <s_user_duplicate_titles>
CHEMBL260_lig208,158577

> <s_m_subgroup_title>
dock_pv

> <s_m_subgroupid>
dock_pv

> <b_m_subgroup_collapsed>
1

$$$$
CHEMBL260_lig1764
                    3D
 Schrodinger Suite 2021-1.
 43 46  0  0  1  0            999 V2000
    0.5130    0.3570   27.7911 C   0  0  0  0  0  0
   -0.3526   -0.7130   28.0049 C   0  0  0  0  0  0
   -0.9183   -1.3685   26.9142 C   0  0  0  0  0  0
   -0.6107   -0.9637   25.6158 C   0  0  0  0  0  0
    0.2219    0.1402   25.4090 C   0  0  0  0  0  0
    0.7692    0.8098   26.4994 C   0  0  0  0  0  0
   -1.0928   -1.7308   24.5461 N   0  0  0  0  0  0
   -1.5041   -1.3427   23.2698 C   0  0  0  0  0  0
   -1.7649   -0.0297   23.0334 N   0  0  0  0  0  0
   -2.0389   -1.9928   21.1167 C   0  0  0  0  0  0
   -1.6350   -2.3474   22.3649 N   0  0  0  0  0  0
   -2.3095   -0.6643   20.7804 C   0  0  0  0  0  0
   -2.1699    0.3046   21.7776 C   0  0  0  0  0  0
   -2.5046    1.6599   21.4808 N   0  0  0  0  0  0
   -3.0091    2.0994   20.2760 C   0  0  0  0  0  0
   -3.2350    1.0499   19.2718 C   0  0  0  0  0  0
   -2.8350   -0.2277   19.4919 C   0  0  0  0  0  0
   -2.2499    2.6590   22.5383 C   0  0  0  0  0  0
   -3.2133    3.2869   20.0143 O   0  0  0  0  0  0
   -3.9548    1.3055   17.9894 C   0  0  0  0  0  0
   -5.2896    0.8870   17.8909 C   0  0  0  0  0  0
   -5.8742    0.7098   16.6402 C   0  0  0  0  0  0
   -5.1892    1.0206   15.4760 C   0  0  0  0  0  0
   -3.9419    1.6141   15.5713 C   0  0  0  0  0  0
   -3.3516    1.8108   16.8151 C   0  0  0  0  0  0
   -2.0131    2.8870   16.8294 Cl  0  0  0  0  0  0
   -6.2218    0.4870   19.2942 Cl  0  0  0  0  0  0
    1.1650    0.9466   28.8704 N   0  0  0  0  0  0
   -0.5588   -1.0626   29.0062 H   0  0  0  0  0  0
   -1.5647   -2.2165   27.0850 H   0  0  0  0  0  0
    0.4787    0.4590   24.4099 H   0  0  0  0  0  0
    1.4426    1.6396   26.3363 H   0  0  0  0  0  0
   -0.8950   -2.7134   24.6182 H   0  0  0  0  0  0
   -2.1653   -2.7932   20.3997 H   0  0  0  0  0  0
   -2.9657   -0.9674   18.7223 H   0  0  0  0  0  0
   -2.8802    2.4536   23.4046 H   0  0  0  0  0  0
   -1.2102    2.6020   22.8643 H   0  0  0  0  0  0
   -2.4342    3.6870   22.2317 H   0  0  0  0  0  0
   -6.8350    0.2474   16.5724 H   0  0  0  0  0  0
   -5.6350    0.8433   14.5099 H   0  0  0  0  0  0
   -3.4348    1.9460   14.6789 H   0  0  0  0  0  0
    2.0269    1.4277   28.6171 H   0  0  0  0  0  0
    1.2422    0.3543   29.6861 H   0  0  0  0  0  0
  1  2  2  0  0  0
  1  6  1  0  0  0
  1 28  1  0  0  0
  2  3  1  0  0  0
  2 29  1  0  0  0
  3  4  2  0  0  0
  3 30  1  0  0  0
  4  7  1  0  0  0
  4  5  1  0  0  0
  5  6  2  0  0  0
  5 31  1  0  0  0
  6 32  1  0  0  0
  7  8  1  0  0  0
  7 33  1  0  0  0
  8  9  1  0  0  0
  8 11  2  0  0  0
  9 13  2  0  0  0
 10 12  2  0  0  0
 10 11  1  0  0  0
 10 34  1  0  0  0
 12 17  1  0  0  0
 12 13  1  0  0  0
 13 14  1  0  0  0
 14 15  1  0  0  0
 14 18  1  0  0  0
 15 16  1  0  0  0
 15 19  2  0  0  0
 16 17  2  0  0  0
 16 20  1  0  0  0
 17 35  1  0  0  0
 18 36  1  0  0  0
 18 37  1  0  0  0
 18 38  1  0  0  0
 20 21  2  0  0  0
 20 25  1  0  0  0
 21 22  1  0  0  0
 21 27  1  0  0  0
 22 23  2  0  0  0
 22 39  1  0  0  0
 23 24  1  0  0  0
 23 40  1  0  0  0
 24 25  2  0  0  0
 24 41  1  0  0  0
 25 26  1  0  0  0
 28 42  1  0  0  0
 28 43  1  0  0  0
M  END
> <s_m_entry_id>
60953

> <s_m_entry_name>
dock_pv.230

> <s_m_Source_Path>
/home/csk/Desktop/cluster/DUD-E-result/mk14

> <s_m_Source_File>
dock_pv.maegz

> <i_m_Source_File_Index>
230

> <chembl_id>
CHEMBL566636

> <chembl_pref_name>
None

> <i_lp_mmshare_version>
53161

> <i_f3d_flags>
0

> <r_lp_tautomer_probability>
1

> <s_lp_Force_Field>
OPLS_2005

> <r_lp_Energy>
27.444291

> <b_lp_Chiralities_Consistent>
1

> <s_lp_Variant>
CHEMBL260_lig1764-1

> <s_i_glide_gridfile>
glide-grid_2qd9

> <i_i_glide_lignum>
2057

> <i_i_glide_rotatable_bonds>
3

> <r_i_docking_score>
-7.75700367561473

> <r_i_glide_ligand_efficiency>
-0.277035845557669

> <r_i_glide_ligand_efficiency_sa>
-0.841243992500268

> <r_i_glide_ligand_efficiency_ln>
-1.79054420385639

> <r_i_glide_gscore>
-7.75700367561473

> <r_i_glide_lipo>
-3.48711231309591

> <r_i_glide_hbond>
-0.187288010146086

> <r_i_glide_metal>
0

> <r_i_glide_rewards>
-1.41902471513839

> <r_i_glide_evdw>
-39.7002563476562

> <r_i_glide_ecoul>
-6.84390449523926

> <r_i_glide_erotb>
0.34801985443435

> <r_i_glide_esite>
0

> <r_i_glide_emodel>
-61.5304644542293

> <r_i_glide_energy>
-46.5441608428955

> <r_i_glide_einternal>
2.88897490501404

> <i_i_glide_confnum>
1

> <i_i_glide_posenum>
31

> <r_i_glide_eff_state_penalty>
0

> <s_user_duplicate_titles>
CHEMBL260_lig1764,583144

> <s_m_subgroup_title>
dock_pv

> <s_m_subgroupid>
dock_pv

> <b_m_subgroup_collapsed>
1

$$$$
CHEMBL260_lig133
                    3D
 Schrodinger Suite 2021-1.
 43 46  0  0  1  0            999 V2000
   -1.4314   -1.2520   23.5784 N   0  0  0  0  0  0
   -1.5409   -2.5469   23.1582 C   0  0  0  0  0  0
   -1.7315   -0.1399   22.7710 C   0  0  0  0  0  0
   -1.0718   -1.0169   24.9329 C   0  0  0  0  0  0
   -2.0799   -0.3775   21.4359 C   0  0  0  0  0  0
   -2.4350    0.6068   20.6142 N   0  0  0  0  0  0
   -1.6350   -2.7632   21.8295 N   0  0  0  0  0  0
   -2.4350    1.8724   21.0646 C   0  0  0  0  0  0
   -2.8350    3.0770   19.8760 S   0  0  0  0  0  0
   -1.7337    1.1913   23.2347 C   0  0  0  0  0  0
   -2.0787   -1.7742   20.8558 C   0  0  0  0  0  0
   -3.6485    2.0870   18.6073 C   0  0  0  0  0  0
    0.2454   -0.6410   25.2604 C   0  0  0  0  0  0
   -2.0396   -1.0838   25.9546 C   0  0  0  0  0  0
   -1.6350   -3.5130   23.8760 O   0  0  0  0  0  0
   -3.2350    2.0870   17.2542 C   0  0  0  0  0  0
   -2.0808    2.2223   22.3646 C   0  0  0  0  0  0
   -3.6779   -1.5130   25.6244 Cl  0  0  0  0  0  0
    1.4920   -0.5442   24.0612 Cl  0  0  0  0  0  0
   -2.1605    2.8870   16.9040 O   0  0  0  0  0  0
   -0.3938   -0.3981   27.5850 C   0  0  0  0  0  0
    0.5644   -0.3130   26.5796 C   0  0  0  0  0  0
   -1.6922   -0.7885   27.2725 C   0  0  0  0  0  0
   -4.8350    1.4372   18.9584 C   0  0  0  0  0  0
   -4.0323    1.4516   16.2877 C   0  0  0  0  0  0
   -1.5456    2.7247   15.6311 C   0  0  0  0  0  0
   -5.6515    0.8870   17.9773 C   0  0  0  0  0  0
   -5.2514    0.8870   16.6453 C   0  0  0  0  0  0
   -1.5582   -3.7181   21.5153 H   0  0  0  0  0  0
   -1.4686    1.4389   24.2519 H   0  0  0  0  0  0
   -3.0778   -2.0437   20.5081 H   0  0  0  0  0  0
   -1.4134   -1.8167   19.9916 H   0  0  0  0  0  0
   -2.0701    3.2513   22.6892 H   0  0  0  0  0  0
   -0.1266   -0.1628   28.6053 H   0  0  0  0  0  0
    1.5650   -0.0068   26.8381 H   0  0  0  0  0  0
   -2.4333   -0.8522   28.0560 H   0  0  0  0  0  0
   -5.1741    1.4394   19.9844 H   0  0  0  0  0  0
   -3.7634    1.4602   15.2424 H   0  0  0  0  0  0
   -0.6406    3.3306   15.5899 H   0  0  0  0  0  0
   -1.2548    1.6870   15.4639 H   0  0  0  0  0  0
   -2.1945    3.0533   14.8204 H   0  0  0  0  0  0
   -6.5955    0.4367   18.2516 H   0  0  0  0  0  0
   -5.8862    0.4425   15.8919 H   0  0  0  0  0  0
  1  2  1  0  0  0
  1  3  1  0  0  0
  1  4  1  0  0  0
  2  7  1  0  0  0
  2 15  2  0  0  0
  3  5  2  0  0  0
  3 10  1  0  0  0
  4 13  2  0  0  0
  4 14  1  0  0  0
  5  6  1  0  0  0
  5 11  1  0  0  0
  6  8  2  0  0  0
  7 11  1  0  0  0
  7 29  1  0  0  0
  8 17  1  0  0  0
  8  9  1  0  0  0
  9 12  1  0  0  0
 10 17  2  0  0  0
 10 30  1  0  0  0
 11 31  1  0  0  0
 11 32  1  0  0  0
 12 16  1  0  0  0
 12 24  2  0  0  0
 13 19  1  0  0  0
 13 22  1  0  0  0
 14 18  1  0  0  0
 14 23  2  0  0  0
 16 20  1  0  0  0
 16 25  2  0  0  0
 17 33  1  0  0  0
 20 26  1  0  0  0
 21 23  1  0  0  0
 21 22  2  0  0  0
 21 34  1  0  0  0
 22 35  1  0  0  0
 23 36  1  0  0  0
 24 27  1  0  0  0
 24 37  1  0  0  0
 25 28  1  0  0  0
 25 38  1  0  0  0
 26 39  1  0  0  0
 26 40  1  0  0  0
 26 41  1  0  0  0
 27 28  2  0  0  0
 27 42  1  0  0  0
 28 43  1  0  0  0
M  END
> <s_m_entry_id>
60954

> <s_m_entry_name>
dock_pv.231

> <s_m_Source_Path>
/home/csk/Desktop/cluster/DUD-E-result/mk14

> <s_m_Source_File>
dock_pv.maegz

> <i_m_Source_File_Index>
231

> <chembl_id>
CHEMBL339095

> <chembl_pref_name>
None

> <i_lp_mmshare_version>
53161

> <i_f3d_flags>
0

> <r_lp_tautomer_probability>
1

> <s_lp_Force_Field>
OPLS_2005

> <r_lp_Energy>
43.767216

> <b_lp_Chiralities_Consistent>
1

> <s_lp_Variant>
CHEMBL260_lig133-1

> <s_i_glide_gridfile>
glide-grid_2qd9

> <i_i_glide_lignum>
150

> <i_i_glide_rotatable_bonds>
4

> <r_i_docking_score>
-7.74687178647117

> <r_i_glide_ligand_efficiency>
-0.27667399237397

> <r_i_glide_ligand_efficiency_sa>
-0.840145193114431

> <r_i_glide_ligand_efficiency_ln>
-1.78820546635687

> <r_i_glide_gscore>
-7.74687178647117

> <r_i_glide_lipo>
-3.46787651732169

> <r_i_glide_hbond>
-0.482550894743193

> <r_i_glide_metal>
0

> <r_i_glide_rewards>
-1.02525801861255

> <r_i_glide_evdw>
-31.5644264221191

> <r_i_glide_ecoul>
-10.0822772979736

> <r_i_glide_erotb>
0.319376560008269

> <r_i_glide_esite>
0

> <r_i_glide_emodel>
-54.1376778075352

> <r_i_glide_energy>
-41.6467037200928

> <r_i_glide_einternal>
0.4563869535923

> <i_i_glide_confnum>
9

> <i_i_glide_posenum>
80

> <r_i_glide_eff_state_penalty>
0

> <s_user_duplicate_titles>
CHEMBL260_lig133

> <s_m_subgroup_title>
dock_pv

> <s_m_subgroupid>
dock_pv

> <b_m_subgroup_collapsed>
1

$$$$
CHEMBL260_lig1763
                    3D
 Schrodinger Suite 2021-1.
 48 51  0  0  1  0            999 V2000
    0.4506    0.8461   27.7786 C   0  0  0  0  0  0
   -0.3177   -0.2816   28.0869 C   0  0  0  0  0  0
   -0.7871   -1.1130   27.0726 C   0  0  0  0  0  0
   -0.4835   -0.8308   25.7419 C   0  0  0  0  0  0
    0.3109    0.2755   25.4327 C   0  0  0  0  0  0
    0.7650    1.1145   26.4431 C   0  0  0  0  0  0
   -0.9730   -1.6769   24.7351 N   0  0  0  0  0  0
   -1.4889   -1.3368   23.4794 C   0  0  0  0  0  0
   -1.7267   -0.0249   23.2076 N   0  0  0  0  0  0
   -2.2227   -2.0410   21.4023 C   0  0  0  0  0  0
   -1.7277   -2.3681   22.6269 N   0  0  0  0  0  0
   -2.4769   -0.7150   21.0384 C   0  0  0  0  0  0
   -2.2152    0.2836   21.9765 C   0  0  0  0  0  0
   -2.4350    1.6505   21.6224 N   0  0  0  0  0  0
   -2.8499    2.0881   20.3823 C   0  0  0  0  0  0
   -3.2350    1.0159   19.4496 C   0  0  0  0  0  0
   -3.0182   -0.2916   19.7536 C   0  0  0  0  0  0
   -2.0888    2.6614   22.6417 C   0  0  0  0  0  0
   -2.8860    3.2818   20.0652 O   0  0  0  0  0  0
   -3.9572    1.2870   18.1678 C   0  0  0  0  0  0
   -5.2970    0.8870   18.0599 C   0  0  0  0  0  0
   -5.8811    0.7381   16.8051 C   0  0  0  0  0  0
   -5.2001    1.0668   15.6446 C   0  0  0  0  0  0
   -3.9497    1.6462   15.7515 C   0  0  0  0  0  0
   -3.3547    1.8001   16.9976 C   0  0  0  0  0  0
   -2.0350    2.8870   17.0249 Cl  0  0  0  0  0  0
   -6.2419    0.4870   19.4547 Cl  0  0  0  0  0  0
    0.9717    1.7257   28.9195 C   0  0  0  0  0  0
    0.9770    3.2576   28.6941 C   0  0  0  0  0  0
    1.9650    3.6870   27.7771 O   0  0  0  0  0  0
   -0.5529   -0.5204   29.1141 H   0  0  0  0  0  0
   -1.3914   -1.9700   27.3282 H   0  0  0  0  0  0
    0.5812    0.4911   24.4097 H   0  0  0  0  0  0
    1.3854    1.9524   26.1681 H   0  0  0  0  0  0
   -0.8033   -2.6590   24.8740 H   0  0  0  0  0  0
   -2.4162   -2.8582   20.7199 H   0  0  0  0  0  0
   -3.3393   -1.0642   19.0760 H   0  0  0  0  0  0
   -2.2146    3.6870   22.3059 H   0  0  0  0  0  0
   -2.7111    2.5253   23.5272 H   0  0  0  0  0  0
   -1.0476    2.5468   22.9478 H   0  0  0  0  0  0
   -6.8350    0.2720   16.7311 H   0  0  0  0  0  0
   -5.6493    0.9159   14.6760 H   0  0  0  0  0  0
   -3.4476    2.0119   14.8699 H   0  0  0  0  0  0
    1.9650    1.3772   29.2024 H   0  0  0  0  0  0
    0.3437    1.5421   29.7925 H   0  0  0  0  0  0
    1.1491    3.7654   29.6438 H   0  0  0  0  0  0
    0.0040    3.5929   28.3330 H   0  0  0  0  0  0
    2.7397    3.1043   27.8760 H   0  0  0  0  0  0
  1  6  1  0  0  0
  1 28  1  0  0  0
  1  2  2  0  0  0
  2  3  1  0  0  0
  2 31  1  0  0  0
  3  4  2  0  0  0
  3 32  1  0  0  0
  4  7  1  0  0  0
  4  5  1  0  0  0
  5  6  2  0  0  0
  5 33  1  0  0  0
  6 34  1  0  0  0
  7  8  1  0  0  0
  7 35  1  0  0  0
  8  9  1  0  0  0
  8 11  2  0  0  0
  9 13  2  0  0  0
 10 12  2  0  0  0
 10 11  1  0  0  0
 10 36  1  0  0  0
 12 17  1  0  0  0
 12 13  1  0  0  0
 13 14  1  0  0  0
 14 15  1  0  0  0
 14 18  1  0  0  0
 15 16  1  0  0  0
 15 19  2  0  0  0
 16 17  2  0  0  0
 16 20  1  0  0  0
 17 37  1  0  0  0
 18 38  1  0  0  0
 18 39  1  0  0  0
 18 40  1  0  0  0
 20 21  2  0  0  0
 20 25  1  0  0  0
 21 22  1  0  0  0
 21 27  1  0  0  0
 22 23  2  0  0  0
 22 41  1  0  0  0
 23 24  1  0  0  0
 23 42  1  0  0  0
 24 25  2  0  0  0
 24 43  1  0  0  0
 25 26  1  0  0  0
 28 29  1  0  0  0
 28 44  1  0  0  0
 28 45  1  0  0  0
 29 30  1  0  0  0
 29 46  1  0  0  0
 29 47  1  0  0  0
 30 48  1  0  0  0
M  END
> <s_m_entry_id>
60955

> <s_m_entry_name>
dock_pv.232

> <s_m_Source_Path>
/home/csk/Desktop/cluster/DUD-E-result/mk14

> <s_m_Source_File>
dock_pv.maegz

> <i_m_Source_File_Index>
232

> <chembl_id>
CHEMBL576218

> <chembl_pref_name>
None

> <i_lp_mmshare_version>
53161

> <i_f3d_flags>
0

> <r_lp_tautomer_probability>
1

> <s_lp_Force_Field>
OPLS_2005

> <r_lp_Energy>
27.751223

> <b_lp_Chiralities_Consistent>
1

> <s_lp_Variant>
CHEMBL260_lig1763-1

> <s_i_glide_gridfile>
glide-grid_2qd9

> <i_i_glide_lignum>
2056

> <i_i_glide_rotatable_bonds>
6

> <r_i_docking_score>
-7.74190514703089

> <r_i_glide_ligand_efficiency>
-0.25806350490103

> <r_i_glide_ligand_efficiency_sa>
-0.801863310119764

> <r_i_glide_ligand_efficiency_ln>
-1.75904520421829

> <r_i_glide_gscore>
-7.74190514703089

> <r_i_glide_lipo>
-3.52751630063845

> <r_i_glide_hbond>
-0.16

> <r_i_glide_metal>
0

> <r_i_glide_rewards>
-1.17340946514065

> <r_i_glide_evdw>
-41.6098709106445

> <r_i_glide_ecoul>
-8.75523471832275

> <r_i_glide_erotb>
0.51279937202885

> <r_i_glide_esite>
0

> <r_i_glide_emodel>
-48.1794735465995

> <r_i_glide_energy>
-50.3651056289673

> <r_i_glide_einternal>
6.28668642044067

> <i_i_glide_confnum>
5

> <i_i_glide_posenum>
51

> <r_i_glide_eff_state_penalty>
0

> <s_user_duplicate_titles>
CHEMBL260_lig1763,583139

> <s_m_subgroup_title>
dock_pv

> <s_m_subgroupid>
dock_pv

> <b_m_subgroup_collapsed>
1

$$$$
CHEMBL260_lig1804
                    3D
 Schrodinger Suite 2021-1.
 51 54  0  0  1  0            999 V2000
    1.0493    2.1733   25.3560 C   0  0  0  0  0  0
   -0.6605    0.2732   24.8189 C   0  0  0  0  0  0
    0.7137    0.9308   24.4991 C   0  0  0  0  0  0
   -0.1438    3.0309   25.3729 N   0  0  0  0  0  0
   -1.2378    2.4468   26.1612 C   0  0  0  0  0  0
   -1.7635    1.1957   25.4186 C   0  0  0  0  0  0
   -1.1166   -0.7836   23.8298 C   0  0  0  0  0  0
   -5.3608    0.6949   16.1045 C   0  0  0  0  0  0
   -4.0984    1.2782   16.0185 C   0  0  0  0  0  0
   -3.4310    1.6775   17.1753 C   0  0  0  0  0  0
   -4.0352    1.4836   18.4249 C   0  0  0  0  0  0
   -5.2950    0.8872   18.5126 C   0  0  0  0  0  0
   -5.9608    0.5270   17.3499 C   0  0  0  0  0  0
   -3.2349    2.0334   19.8947 S   0  0  0  0  0  0
   -2.6686    0.5392   20.6886 C   0  0  0  0  0  0
   -2.7831   -0.7127   20.0756 C   0  0  0  0  0  0
   -2.3873   -1.8853   20.7205 C   0  0  0  0  0  0
   -2.0898    0.6237   21.9559 C   0  0  0  0  0  0
   -1.7025   -0.5269   22.6028 N   0  0  0  0  0  0
   -1.8616   -1.7977   22.0177 C   0  0  0  0  0  0
   -1.4351   -2.7495   22.8784 N   0  0  0  0  0  0
   -0.9649   -2.0839   23.9980 N   0  0  0  0  0  0
   -5.9748    0.2358   14.9944 F   0  0  0  0  0  0
   -5.8871    0.6712   19.7116 F   0  0  0  0  0  0
   -0.3708    3.9937   24.4407 C   0  0  0  0  0  0
    0.8552    4.5964   23.7134 C   0  0  0  0  0  0
   -1.4914    4.4875   24.2737 O   0  0  0  0  0  0
    0.4694    5.7081   22.8957 O   0  0  0  0  0  0
    1.3842    6.6104   22.4710 C   0  0  0  0  0  0
    0.7685    7.6938   21.5982 C   0  0  0  0  0  0
    2.5892    6.6121   22.7323 O   0  0  0  0  0  0
    1.9620    2.6992   25.0747 H   0  0  0  0  0  0
    1.2488    1.8792   26.3884 H   0  0  0  0  0  0
   -0.3642   -0.2087   25.7535 H   0  0  0  0  0  0
    0.6994    1.2829   23.4666 H   0  0  0  0  0  0
    1.5287    0.2113   24.5933 H   0  0  0  0  0  0
   -0.8161    2.1645   27.1261 H   0  0  0  0  0  0
   -1.9990    3.1859   26.4170 H   0  0  0  0  0  0
   -2.4313    0.6406   26.0802 H   0  0  0  0  0  0
   -2.3711    1.6032   24.6127 H   0  0  0  0  0  0
   -3.6244    1.4036   15.0596 H   0  0  0  0  0  0
   -2.4548    2.1358   17.0760 H   0  0  0  0  0  0
   -6.8930    0.0185   17.4598 H   0  0  0  0  0  0
   -3.1780   -0.7909   19.0766 H   0  0  0  0  0  0
   -2.4794   -2.8434   20.2334 H   0  0  0  0  0  0
   -1.9315    1.5603   22.4678 H   0  0  0  0  0  0
    1.2839    3.8265   23.0692 H   0  0  0  0  0  0
    1.6107    4.8891   24.4467 H   0  0  0  0  0  0
    0.3652    7.2554   20.6847 H   0  0  0  0  0  0
    1.5272    8.4240   21.3152 H   0  0  0  0  0  0
   -0.0310    8.2085   22.1309 H   0  0  0  0  0  0
  1  4  1  0  0  0
  1  3  1  0  0  0
  1 32  1  0  0  0
  1 33  1  0  0  0
  2  3  1  0  0  0
  2  6  1  0  0  0
  2  7  1  0  0  0
  2 34  1  0  0  0
  3 35  1  0  0  0
  3 36  1  0  0  0
  4  5  1  0  0  0
  4 25  1  0  0  0
  5  6  1  0  0  0
  5 37  1  0  0  0
  5 38  1  0  0  0
  6 39  1  0  0  0
  6 40  1  0  0  0
  7 19  1  0  0  0
  7 22  2  0  0  0
  8  9  2  0  0  0
  8 23  1  0  0  0
  8 13  1  0  0  0
  9 10  1  0  0  0
  9 41  1  0  0  0
 10 11  2  0  0  0
 10 42  1  0  0  0
 11 12  1  0  0  0
 11 14  1  0  0  0
 12 24  1  0  0  0
 12 13  2  0  0  0
 13 43  1  0  0  0
 14 15  1  0  0  0
 15 16  1  0  0  0
 15 18  2  0  0  0
 16 17  2  0  0  0
 16 44  1  0  0  0
 17 20  1  0  0  0
 17 45  1  0  0  0
 18 19  1  0  0  0
 18 46  1  0  0  0
 19 20  1  0  0  0
 20 21  2  0  0  0
 21 22  1  0  0  0
 25 26  1  0  0  0
 25 27  2  0  0  0
 26 28  1  0  0  0
 26 47  1  0  0  0
 26 48  1  0  0  0
 28 29  1  0  0  0
 29 30  1  0  0  0
 29 31  2  0  0  0
 30 49  1  0  0  0
 30 50  1  0  0  0
 30 51  1  0  0  0
M  END
> <s_m_entry_id>
60956

> <s_m_entry_name>
dock_pv.233

> <s_m_Source_Path>
/home/csk/Desktop/cluster/DUD-E-result/mk14

> <s_m_Source_File>
dock_pv.maegz

> <i_m_Source_File_Index>
233

> <chembl_id>
CHEMBL604053

> <chembl_pref_name>
None

> <i_lp_mmshare_version>
53161

> <i_f3d_flags>
0

> <r_lp_tautomer_probability>
1

> <s_lp_Force_Field>
OPLS_2005

> <r_lp_Energy>
29.982118

> <b_lp_Chiralities_Consistent>
1

> <s_lp_Variant>
CHEMBL260_lig1804-1

> <s_i_glide_gridfile>
glide-grid_2qd9

> <i_i_glide_lignum>
2102

> <i_i_glide_rotatable_bonds>
7

> <r_i_docking_score>
-7.73521410287606

> <r_i_glide_ligand_efficiency>
-0.249523035576647

> <r_i_glide_ligand_efficiency_sa>
-0.783846835389209

> <r_i_glide_ligand_efficiency_ln>
-1.74452783604148

> <r_i_glide_gscore>
-7.73521410287606

> <r_i_glide_lipo>
-2.98548952367858

> <r_i_glide_hbond>
0

> <r_i_glide_metal>
0

> <r_i_glide_rewards>
-1.90951528474517

> <r_i_glide_evdw>
-42.0846557617188

> <r_i_glide_ecoul>
-8.2800817489624

> <r_i_glide_erotb>
0.602499122880093

> <r_i_glide_esite>
-0.096463366902114

> <r_i_glide_emodel>
-72.1115217220828

> <r_i_glide_energy>
-50.3647375106812

> <r_i_glide_einternal>
2.45928001403809

> <i_i_glide_confnum>
9

> <i_i_glide_posenum>
278

> <r_i_glide_eff_state_penalty>
0

> <s_user_duplicate_titles>
CHEMBL260_lig1804,593996

> <s_m_subgroup_title>
dock_pv

> <s_m_subgroupid>
dock_pv

> <b_m_subgroup_collapsed>
1

$$$$
CHEMBL260_lig1755
                    3D
 Schrodinger Suite 2021-1.
 56 59  0  0  1  0            999 V2000
    0.4868    0.8198   27.8804 C   0  0  0  0  0  0
    0.7649    1.1901   26.5616 C   0  0  0  0  0  0
    0.3158    0.3835   25.5099 C   0  0  0  0  0  0
   -0.4338   -0.7715   25.7682 C   0  0  0  0  0  0
   -0.7194   -1.1130   27.0911 C   0  0  0  0  0  0
   -0.2562   -0.3278   28.1450 C   0  0  0  0  0  0
   -0.8859   -1.6151   24.7394 N   0  0  0  0  0  0
   -1.4119   -1.2918   23.4836 C   0  0  0  0  0  0
   -1.6812    0.0108   23.2098 N   0  0  0  0  0  0
   -2.1514   -2.0202   21.4135 C   0  0  0  0  0  0
   -1.6357   -2.3308   22.6349 N   0  0  0  0  0  0
   -2.4415   -0.7021   21.0470 C   0  0  0  0  0  0
   -2.1895    0.3029   21.9821 C   0  0  0  0  0  0
   -2.4346    1.6632   21.6279 N   0  0  0  0  0  0
   -2.8523    2.0926   20.3866 C   0  0  0  0  0  0
   -3.2349    1.0160   19.4588 C   0  0  0  0  0  0
   -3.0015   -0.2891   19.7620 C   0  0  0  0  0  0
   -2.0972    2.6807   22.6416 C   0  0  0  0  0  0
   -2.8957    3.2840   20.0636 O   0  0  0  0  0  0
   -3.9573    1.2872   18.1768 C   0  0  0  0  0  0
   -5.2963    0.8870   18.0644 C   0  0  0  0  0  0
   -5.8787    0.7441   16.8076 C   0  0  0  0  0  0
   -5.1949    1.0762   15.6487 C   0  0  0  0  0  0
   -3.9433    1.6521   15.7604 C   0  0  0  0  0  0
   -3.3511    1.7978   17.0085 C   0  0  0  0  0  0
   -2.0350    2.8872   17.0450 Cl  0  0  0  0  0  0
   -6.2437    0.4869   19.4571 Cl  0  0  0  0  0  0
    1.5652    2.4523   26.2800 C   0  0  0  0  0  0
    0.8544    3.2747   25.3605 O   0  0  0  0  0  0
    1.3091    4.6249   25.3387 C   0  0  0  0  0  0
    0.5457    5.4093   24.2563 C   0  0  1  0  0  0
    0.9189    4.9687   22.8244 C   0  0  0  0  0  0
   -0.8425    5.2468   24.5049 O   0  0  0  0  0  0
    0.3652    5.8592   21.8760 O   0  0  0  0  0  0
    0.8510    1.4172   28.7041 H   0  0  0  0  0  0
    0.5574    0.6585   24.4936 H   0  0  0  0  0  0
   -1.2963   -1.9976   27.3120 H   0  0  0  0  0  0
   -0.4676   -0.6118   29.1657 H   0  0  0  0  0  0
   -0.6983   -2.5948   24.8744 H   0  0  0  0  0  0
   -2.3310   -2.8442   20.7359 H   0  0  0  0  0  0
   -3.3096   -1.0619   19.0761 H   0  0  0  0  0  0
   -2.0511    3.6872   22.2402 H   0  0  0  0  0  0
   -2.8344    2.6666   23.4456 H   0  0  0  0  0  0
   -1.1190    2.4786   23.0822 H   0  0  0  0  0  0
   -6.8350    0.2829   16.7302 H   0  0  0  0  0  0
   -5.6404    0.9323   14.6771 H   0  0  0  0  0  0
   -3.4389    2.0214   14.8816 H   0  0  0  0  0  0
    2.5410    2.1847   25.8739 H   0  0  0  0  0  0
    1.7443    2.9844   27.2172 H   0  0  0  0  0  0
    2.3818    4.6614   25.1393 H   0  0  0  0  0  0
    1.1418    5.0842   26.3153 H   0  0  0  0  0  0
    0.7731    6.4710   24.3670 H   0  0  0  0  0  0
    0.5836    3.9530   22.6155 H   0  0  0  0  0  0
    2.0027    4.9733   22.6980 H   0  0  0  0  0  0
   -0.9486    4.3434   24.8243 H   0  0  0  0  0  0
    0.7640    5.6873   21.0004 H   0  0  0  0  0  0
  1  6  1  0  0  0
  1  2  2  0  0  0
  1 35  1  0  0  0
  2  3  1  0  0  0
  2 28  1  0  0  0
  3  4  2  0  0  0
  3 36  1  0  0  0
  4  5  1  0  0  0
  4  7  1  0  0  0
  5  6  2  0  0  0
  5 37  1  0  0  0
  6 38  1  0  0  0
  7  8  1  0  0  0
  7 39  1  0  0  0
  8  9  1  0  0  0
  8 11  2  0  0  0
  9 13  2  0  0  0
 10 12  2  0  0  0
 10 11  1  0  0  0
 10 40  1  0  0  0
 12 17  1  0  0  0
 12 13  1  0  0  0
 13 14  1  0  0  0
 14 18  1  0  0  0
 14 15  1  0  0  0
 15 19  2  0  0  0
 15 16  1  0  0  0
 16 17  2  0  0  0
 16 20  1  0  0  0
 17 41  1  0  0  0
 18 42  1  0  0  0
 18 43  1  0  0  0
 18 44  1  0  0  0
 20 21  2  0  0  0
 20 25  1  0  0  0
 21 22  1  0  0  0
 21 27  1  0  0  0
 22 23  2  0  0  0
 22 45  1  0  0  0
 23 24  1  0  0  0
 23 46  1  0  0  0
 24 25  2  0  0  0
 24 47  1  0  0  0
 25 26  1  0  0  0
 28 29  1  0  0  0
 28 48  1  0  0  0
 28 49  1  0  0  0
 29 30  1  0  0  0
 30 31  1  0  0  0
 30 50  1  0  0  0
 30 51  1  0  0  0
 31 32  1  0  0  0
 31 33  1  0  0  0
 31 52  1  0  0  0
 32 34  1  0  0  0
 32 53  1  0  0  0
 32 54  1  0  0  0
 33 55  1  0  0  0
 34 56  1  0  0  0
M  END
> <s_m_entry_id>
60957

> <s_m_entry_name>
dock_pv.234

> <s_m_Source_Path>
/home/csk/Desktop/cluster/DUD-E-result/mk14

> <s_m_Source_File>
dock_pv.maegz

> <i_m_Source_File_Index>
234

> <chembl_id>
CHEMBL566834

> <chembl_pref_name>
None

> <i_lp_mmshare_version>
53161

> <i_f3d_flags>
0

> <r_lp_tautomer_probability>
1

> <s_lp_Force_Field>
OPLS_2005

> <r_lp_Energy>
33.089722

> <b_lp_Chiralities_Consistent>
1

> <s_lp_Variant>
CHEMBL260_lig1755-2

> <s_i_glide_gridfile>
glide-grid_2qd9

> <i_i_glide_lignum>
2017

> <i_i_glide_rotatable_bonds>
10

> <r_i_docking_score>
-7.72596205816732

> <r_i_glide_ligand_efficiency>
-0.227234178181392

> <r_i_glide_ligand_efficiency_sa>
-0.736150524424717

> <r_i_glide_ligand_efficiency_ln>
-1.70688172454457

> <r_i_glide_gscore>
-7.72596205816732

> <r_i_glide_lipo>
-3.49668155131518

> <r_i_glide_hbond>
0

> <r_i_glide_metal>
0

> <r_i_glide_rewards>
-0.76793742558891

> <r_i_glide_evdw>
-46.7637634277344

> <r_i_glide_ecoul>
-11.8215961456299

> <r_i_glide_erotb>
0.650084511967968

> <r_i_glide_esite>
0

> <r_i_glide_emodel>
-62.4997008413387

> <r_i_glide_energy>
-58.5853595733643

> <r_i_glide_einternal>
6.29097318649292

> <i_i_glide_confnum>
52

> <i_i_glide_posenum>
280

> <r_i_glide_eff_state_penalty>
0

> <s_user_duplicate_titles>
CHEMBL260_lig1755

> <s_m_subgroup_title>
dock_pv

> <s_m_subgroupid>
dock_pv

> <b_m_subgroup_collapsed>
1

$$$$
CHEMBL260_lig723
                    3D
 Schrodinger Suite 2021-1.
 41 43  0  0  1  0            999 V2000
   -0.4739   -1.1137   26.7881 C   0  0  0  0  0  0
    0.3031    0.0327   26.6816 C   0  0  0  0  0  0
    0.3817    0.7316   25.4721 C   0  0  0  0  0  0
   -0.2951    0.2115   24.3557 C   0  0  0  0  0  0
   -1.0856   -0.9461   24.4476 C   0  0  0  0  0  0
   -1.1556   -1.6082   25.6791 C   0  0  0  0  0  0
   -1.8002   -1.5180   23.2572 C   0  0  0  0  0  0
   -2.3867   -0.6034   22.2642 C   0  0  0  0  0  0
   -2.0210   -2.7312   23.1691 O   0  0  0  0  0  0
   -2.6619    0.7692   22.3969 C   0  0  0  0  0  0
   -3.2349    1.2870   21.3379 N   0  0  0  0  0  0
   -3.3814    0.2673   20.4849 N   0  0  0  0  0  0
   -2.8384   -0.9054   20.9811 C   0  0  0  0  0  0
   -2.8350   -2.0760   20.2758 N   0  0  0  0  0  0
   -4.0082    0.5221   19.2487 C   0  0  0  0  0  0
   -3.2350    0.6671   18.0983 C   0  0  0  0  0  0
   -3.8362    0.9554   16.8782 C   0  0  0  0  0  0
   -5.2203    1.0548   16.8049 C   0  0  0  0  0  0
   -6.0036    0.8870   17.9446 C   0  0  0  0  0  0
   -5.3987    0.6355   19.1758 C   0  0  0  0  0  0
   -5.7987    1.2869   15.6090 F   0  0  0  0  0  0
    1.2405    2.0060   25.3654 C   0  0  2  0  0  0
    0.9386    3.1159   26.4115 C   0  0  0  0  0  0
    1.1650    2.6343   24.0942 O   0  0  0  0  0  0
    1.1650    2.7414   27.7587 O   0  0  0  0  0  0
   -0.5288   -1.6409   27.7297 H   0  0  0  0  0  0
    0.8498    0.3555   27.5539 H   0  0  0  0  0  0
   -0.1901    0.7069   23.4019 H   0  0  0  0  0  0
   -1.7405   -2.5097   25.7891 H   0  0  0  0  0  0
   -2.4694    1.3801   23.2671 H   0  0  0  0  0  0
   -2.4938   -2.9373   20.6824 H   0  0  0  0  0  0
   -3.2328   -2.1468   19.3504 H   0  0  0  0  0  0
   -2.1777    0.4870   18.1181 H   0  0  0  0  0  0
   -3.2394    1.0545   15.9825 H   0  0  0  0  0  0
   -7.0792    0.9404   17.8757 H   0  0  0  0  0  0
   -6.0115    0.5043   20.0548 H   0  0  0  0  0  0
    2.2790    1.6916   25.4787 H   0  0  0  0  0  0
    1.5658    3.9882   26.2177 H   0  0  0  0  0  0
   -0.0944    3.4527   26.3132 H   0  0  0  0  0  0
    2.0603    2.9306   23.8756 H   0  0  0  0  0  0
    2.1044    2.5202   27.8758 H   0  0  0  0  0  0
  1  2  2  0  0  0
  1  6  1  0  0  0
  1 26  1  0  0  0
  2  3  1  0  0  0
  2 27  1  0  0  0
  3  4  2  0  0  0
  3 22  1  0  0  0
  4  5  1  0  0  0
  4 28  1  0  0  0
  5  7  1  0  0  0
  5  6  2  0  0  0
  6 29  1  0  0  0
  7  8  1  0  0  0
  7  9  2  0  0  0
  8 13  2  0  0  0
  8 10  1  0  0  0
 10 11  2  0  0  0
 10 30  1  0  0  0
 11 12  1  0  0  0
 12 13  1  0  0  0
 12 15  1  0  0  0
 13 14  1  0  0  0
 14 31  1  0  0  0
 14 32  1  0  0  0
 15 16  2  0  0  0
 15 20  1  0  0  0
 16 17  1  0  0  0
 16 33  1  0  0  0
 17 18  2  0  0  0
 17 34  1  0  0  0
 18 19  1  0  0  0
 18 21  1  0  0  0
 19 20  2  0  0  0
 19 35  1  0  0  0
 20 36  1  0  0  0
 22 23  1  0  0  0
 22 24  1  0  0  0
 22 37  1  0  0  0
 23 25  1  0  0  0
 23 38  1  0  0  0
 23 39  1  0  0  0
 24 40  1  0  0  0
 25 41  1  0  0  0
M  END
> <s_m_entry_id>
60958

> <s_m_entry_name>
dock_pv.235

> <s_m_Source_Path>
/home/csk/Desktop/cluster/DUD-E-result/mk14

> <s_m_Source_File>
dock_pv.maegz

> <i_m_Source_File_Index>
235

> <chembl_id>
CHEMBL203508

> <chembl_pref_name>
None

> <i_lp_mmshare_version>
53161

> <i_f3d_flags>
0

> <r_lp_tautomer_probability>
1

> <s_lp_Force_Field>
OPLS_2005

> <r_lp_Energy>
30.556156

> <b_lp_Chiralities_Consistent>
1

> <s_lp_Variant>
CHEMBL260_lig723-1

> <s_i_glide_gridfile>
glide-grid_2qd9

> <i_i_glide_lignum>
813

> <i_i_glide_rotatable_bonds>
7

> <r_i_docking_score>
-7.7164744262561

> <r_i_glide_ligand_efficiency>
-0.308658977050244

> <r_i_glide_ligand_efficiency_sa>
-0.902524322985181

> <r_i_glide_ligand_efficiency_ln>
-1.829035683101

> <r_i_glide_gscore>
-7.7164744262561

> <r_i_glide_lipo>
-2.68902159116116

> <r_i_glide_hbond>
-0.456

> <r_i_glide_metal>
0

> <r_i_glide_rewards>
-2.17758785871354

> <r_i_glide_evdw>
-33.5633964538574

> <r_i_glide_ecoul>
-10.1924657821655

> <r_i_glide_erotb>
0.813174713636298

> <r_i_glide_esite>
0

> <r_i_glide_emodel>
-60.387496567159

> <r_i_glide_energy>
-43.7558622360229

> <r_i_glide_einternal>
7.99449920654297

> <i_i_glide_confnum>
45

> <i_i_glide_posenum>
266

> <r_i_glide_eff_state_penalty>
0

> <s_user_duplicate_titles>
CHEMBL260_lig723

> <s_m_subgroup_title>
dock_pv

> <s_m_subgroupid>
dock_pv

> <b_m_subgroup_collapsed>
1

$$$$
CHEMBL260_lig1752
                    3D
 Schrodinger Suite 2021-1.
 42 45  0  0  1  0            999 V2000
    0.6836    0.7850   27.8513 C   0  0  0  0  0  0
    0.8387    1.2168   26.5360 C   0  0  0  0  0  0
    0.2961    0.4786   25.4853 C   0  0  0  0  0  0
   -0.4130   -0.7002   25.7450 C   0  0  0  0  0  0
   -0.5825   -1.1130   27.0684 C   0  0  0  0  0  0
   -0.0358   -0.3770   28.1195 C   0  0  0  0  0  0
   -0.9138   -1.5184   24.7200 N   0  0  0  0  0  0
   -1.4130   -1.1993   23.4529 C   0  0  0  0  0  0
   -1.6691    0.1012   23.1509 N   0  0  0  0  0  0
   -2.1367   -1.9667   21.3923 C   0  0  0  0  0  0
   -1.6353   -2.2530   22.6237 N   0  0  0  0  0  0
   -2.4222   -0.6564   20.9996 C   0  0  0  0  0  0
   -2.1794    0.3669   21.9166 C   0  0  0  0  0  0
   -2.4350    1.7158   21.5294 N   0  0  0  0  0  0
   -2.8522    2.1121   20.2760 C   0  0  0  0  0  0
   -3.2350    1.0198   19.3733 C   0  0  0  0  0  0
   -2.9888   -0.2762   19.7092 C   0  0  0  0  0  0
   -2.1646    2.7620   22.5332 C   0  0  0  0  0  0
   -2.8846    3.2879   19.9136 O   0  0  0  0  0  0
   -4.0242    1.2695   18.1267 C   0  0  0  0  0  0
   -5.3656    0.8736   18.1486 C   0  0  0  0  0  0
   -6.0350    0.6198   16.9642 C   0  0  0  0  0  0
   -5.4668    0.8870   15.7317 C   0  0  0  0  0  0
   -4.2144    1.4724   15.6962 C   0  0  0  0  0  0
   -3.5039    1.6870   16.8758 C   0  0  0  0  0  0
   -2.0350    2.5419   16.6760 Cl  0  0  0  0  0  0
   -6.1964    0.4870   19.6119 Cl  0  0  0  0  0  0
    1.5650    2.3441   26.2760 O   0  0  0  0  0  0
    1.1251    1.3425   28.6650 H   0  0  0  0  0  0
    0.4644    0.8101   24.4721 H   0  0  0  0  0  0
   -1.1287   -2.0163   27.2914 H   0  0  0  0  0  0
   -0.1544   -0.7165   29.1384 H   0  0  0  0  0  0
   -0.7612   -2.5030   24.8599 H   0  0  0  0  0  0
   -2.3160   -2.8039   20.7307 H   0  0  0  0  0  0
   -3.3299   -1.0754   19.0760 H   0  0  0  0  0  0
   -2.5090    2.4537   23.5214 H   0  0  0  0  0  0
   -1.0955    2.9666   22.6009 H   0  0  0  0  0  0
   -2.6836    3.6870   22.3086 H   0  0  0  0  0  0
   -6.9772    0.1123   17.0369 H   0  0  0  0  0  0
   -5.9966    0.6534   14.8206 H   0  0  0  0  0  0
   -3.7781    1.7349   14.7445 H   0  0  0  0  0  0
    2.2422    2.4870   26.9506 H   0  0  0  0  0  0
  1  2  2  0  0  0
  1  6  1  0  0  0
  1 29  1  0  0  0
  2  3  1  0  0  0
  2 28  1  0  0  0
  3  4  2  0  0  0
  3 30  1  0  0  0
  4  7  1  0  0  0
  4  5  1  0  0  0
  5  6  2  0  0  0
  5 31  1  0  0  0
  6 32  1  0  0  0
  7  8  1  0  0  0
  7 33  1  0  0  0
  8  9  1  0  0  0
  8 11  2  0  0  0
  9 13  2  0  0  0
 10 12  2  0  0  0
 10 11  1  0  0  0
 10 34  1  0  0  0
 12 17  1  0  0  0
 12 13  1  0  0  0
 13 14  1  0  0  0
 14 15  1  0  0  0
 14 18  1  0  0  0
 15 16  1  0  0  0
 15 19  2  0  0  0
 16 17  2  0  0  0
 16 20  1  0  0  0
 17 35  1  0  0  0
 18 36  1  0  0  0
 18 37  1  0  0  0
 18 38  1  0  0  0
 20 21  2  0  0  0
 20 25  1  0  0  0
 21 22  1  0  0  0
 21 27  1  0  0  0
 22 23  2  0  0  0
 22 39  1  0  0  0
 23 24  1  0  0  0
 23 40  1  0  0  0
 24 25  2  0  0  0
 24 41  1  0  0  0
 25 26  1  0  0  0
 28 42  1  0  0  0
M  END
> <s_m_entry_id>
60959

> <s_m_entry_name>
dock_pv.236

> <s_m_Source_Path>
/home/csk/Desktop/cluster/DUD-E-result/mk14

> <s_m_Source_File>
dock_pv.maegz

> <i_m_Source_File_Index>
236

> <chembl_id>
CHEMBL321193

> <chembl_pref_name>
None

> <i_lp_mmshare_version>
53161

> <i_f3d_flags>
0

> <r_lp_tautomer_probability>
1

> <s_lp_Force_Field>
OPLS_2005

> <r_lp_Energy>
26.889088

> <b_lp_Chiralities_Consistent>
1

> <s_lp_Variant>
CHEMBL260_lig1752-1

> <s_i_glide_gridfile>
glide-grid_2qd9

> <i_i_glide_lignum>
2013

> <i_i_glide_rotatable_bonds>
4

> <r_i_docking_score>
-7.71064429092895

> <r_i_glide_ligand_efficiency>
-0.275380153247463

> <r_i_glide_ligand_efficiency_sa>
-0.83621633549586

> <r_i_glide_ligand_efficiency_ln>
-1.77984309670023

> <r_i_glide_gscore>
-7.71064429092895

> <r_i_glide_lipo>
-3.53908679588215

> <r_i_glide_hbond>
-0.126502188955261

> <r_i_glide_metal>
0

> <r_i_glide_rewards>
-1.35334250204033

> <r_i_glide_evdw>
-41.2099571228027

> <r_i_glide_ecoul>
-6.51826238632202

> <r_i_glide_erotb>
0.346524410037229

> <r_i_glide_esite>
0

> <r_i_glide_emodel>
-46.9090728464066

> <r_i_glide_energy>
-47.7282195091248

> <r_i_glide_einternal>
3.89699053764343

> <i_i_glide_confnum>
4

> <i_i_glide_posenum>
201

> <r_i_glide_eff_state_penalty>
0

> <s_user_duplicate_titles>
CHEMBL260_lig1752,183102

> <s_m_subgroup_title>
dock_pv

> <s_m_subgroupid>
dock_pv

> <b_m_subgroup_collapsed>
1

$$$$
CHEMBL260_lig197
                    3D
 Schrodinger Suite 2021-1.
 48 51  0  0  1  0            999 V2000
   -2.2548    1.1327   21.7385 C   0  0  0  0  0  0
   -1.6359    1.9606   22.6760 N   0  0  0  0  0  0
   -2.4350    3.2520   21.0167 N   0  0  0  0  0  0
   -2.7638    1.9987   20.7528 C   0  0  0  0  0  0
   -1.8518    3.2273   22.1913 C   0  0  0  0  0  0
   -2.2774   -0.3643   21.7729 C   0  0  0  0  0  0
   -2.2879   -0.9432   22.9992 N   0  0  0  0  0  0
   -2.1523   -2.2947   23.0501 C   0  0  0  0  0  0
   -3.5882    1.6554   19.5449 C   0  0  0  0  0  0
   -0.8501    1.6026   23.8845 C   0  0  1  0  0  0
   -2.0634   -3.1133   21.9753 N   0  0  0  0  0  0
   -2.1999   -1.1324   20.6046 C   0  0  0  0  0  0
   -3.2371    2.0870   18.2590 C   0  0  0  0  0  0
   -4.7322    0.8703   19.7080 C   0  0  0  0  0  0
    0.4710    2.4049   23.9701 C   0  0  0  0  0  0
   -1.7168    1.8359   25.1416 C   0  0  0  0  0  0
   -2.1003   -2.5157   20.7564 C   0  0  0  0  0  0
   -2.0349   -2.9215   24.2756 O   0  0  0  0  0  0
   -5.1375    0.9289   17.3387 C   0  0  0  0  0  0
   -3.9845    1.6870   17.1519 C   0  0  0  0  0  0
   -5.5260    0.5360   18.6180 C   0  0  0  0  0  0
   -5.8888    0.5822   16.2699 F   0  0  0  0  0  0
    1.2718    1.9950   25.2260 C   0  0  0  0  0  0
   -0.9489    1.5048   26.4435 C   0  0  0  0  0  0
    0.4666    2.1257   26.5358 C   0  0  1  0  0  0
    1.1650    1.5194   27.6090 O   0  0  0  0  0  0
   -1.8846   -2.1058   25.4392 C   0  0  0  0  0  0
   -1.4454    4.0792   22.7165 H   0  0  0  0  0  0
   -0.5806    0.5591   23.7563 H   0  0  0  0  0  0
   -2.1811   -0.6828   19.6238 H   0  0  0  0  0  0
   -2.4350    2.7868   18.1006 H   0  0  0  0  0  0
   -5.0202    0.5152   20.6796 H   0  0  0  0  0  0
    1.0962    2.1628   23.1094 H   0  0  0  0  0  0
    0.3119    3.4827   23.9451 H   0  0  0  0  0  0
   -2.1183    2.8499   25.1636 H   0  0  0  0  0  0
   -2.5762    1.1641   25.1100 H   0  0  0  0  0  0
   -2.0344   -3.1654   19.8949 H   0  0  0  0  0  0
   -3.7101    2.0123   16.1587 H   0  0  0  0  0  0
   -6.4245   -0.0501   18.7530 H   0  0  0  0  0  0
    1.6105    0.9635   25.1091 H   0  0  0  0  0  0
    2.1750    2.5999   25.3052 H   0  0  0  0  0  0
   -0.8628    0.4236   26.5439 H   0  0  0  0  0  0
   -1.5409    1.8255   27.3018 H   0  0  0  0  0  0
    0.3615    3.1797   26.7975 H   0  0  0  0  0  0
    2.1183    1.6890   27.5413 H   0  0  0  0  0  0
   -1.7944   -2.7130   26.3339 H   0  0  0  0  0  0
   -2.7388   -1.4421   25.5835 H   0  0  0  0  0  0
   -0.9749   -1.5085   25.3672 H   0  0  0  0  0  0
  1  2  1  0  0  0
  1  4  2  0  0  0
  1  6  1  0  0  0
  2  5  1  0  0  0
  2 10  1  0  0  0
  3  4  1  0  0  0
  3  5  2  0  0  0
  4  9  1  0  0  0
  5 28  1  0  0  0
  6  7  2  0  0  0
  6 12  1  0  0  0
  7  8  1  0  0  0
  8 18  1  0  0  0
  8 11  2  0  0  0
  9 13  1  0  0  0
  9 14  2  0  0  0
 10 15  1  0  0  0
 10 16  1  0  0  0
 10 29  1  0  0  0
 11 17  1  0  0  0
 12 17  2  0  0  0
 12 30  1  0  0  0
 13 20  2  0  0  0
 13 31  1  0  0  0
 14 21  1  0  0  0
 14 32  1  0  0  0
 15 23  1  0  0  0
 15 33  1  0  0  0
 15 34  1  0  0  0
 16 24  1  0  0  0
 16 35  1  0  0  0
 16 36  1  0  0  0
 17 37  1  0  0  0
 18 27  1  0  0  0
 19 21  2  0  0  0
 19 22  1  0  0  0
 19 20  1  0  0  0
 20 38  1  0  0  0
 21 39  1  0  0  0
 23 25  1  0  0  0
 23 40  1  0  0  0
 23 41  1  0  0  0
 24 25  1  0  0  0
 24 42  1  0  0  0
 24 43  1  0  0  0
 25 26  1  0  0  0
 25 44  1  0  0  0
 26 45  1  0  0  0
 27 46  1  0  0  0
 27 47  1  0  0  0
 27 48  1  0  0  0
M  END
> <s_m_entry_id>
60960

> <s_m_entry_name>
dock_pv.237

> <s_m_Source_Path>
/home/csk/Desktop/cluster/DUD-E-result/mk14

> <s_m_Source_File>
dock_pv.maegz

> <i_m_Source_File_Index>
237

> <chembl_id>
CHEMBL97162

> <chembl_pref_name>
None

> <i_lp_mmshare_version>
53161

> <i_f3d_flags>
0

> <r_lp_tautomer_probability>
1

> <s_lp_Force_Field>
OPLS_2005

> <r_lp_Energy>
23.500563

> <b_lp_Chiralities_Consistent>
1

> <s_lp_Variant>
CHEMBL260_lig197-1

> <s_i_glide_gridfile>
glide-grid_2qd9

> <i_i_glide_lignum>
214

> <i_i_glide_rotatable_bonds>
5

> <r_i_docking_score>
-7.7060856486589

> <r_i_glide_ligand_efficiency>
-0.285410579579959

> <r_i_glide_ligand_efficiency_sa>
-0.856231737799211

> <r_i_glide_ligand_efficiency_ln>
-1.79384969425679

> <r_i_glide_gscore>
-7.7060856486589

> <r_i_glide_lipo>
-2.42021645329473

> <r_i_glide_hbond>
-0.656361059219878

> <r_i_glide_metal>
0

> <r_i_glide_rewards>
-2.61693377977287

> <r_i_glide_evdw>
-25.2661781311035

> <r_i_glide_ecoul>
-7.62682437896729

> <r_i_glide_erotb>
0.425932561610475

> <r_i_glide_esite>
-0.0311743545816243

> <r_i_glide_emodel>
-41.2808101746457

> <r_i_glide_energy>
-32.8930025100708

> <r_i_glide_einternal>
7.83324098587036

> <i_i_glide_confnum>
15

> <i_i_glide_posenum>
196

> <r_i_glide_eff_state_penalty>
0

> <s_user_duplicate_titles>
CHEMBL260_lig197

> <s_m_subgroup_title>
dock_pv

> <s_m_subgroupid>
dock_pv

> <b_m_subgroup_collapsed>
1

$$$$
CHEMBL260_lig200
                    3D
 Schrodinger Suite 2021-1.
 53 57  0  0  1  0            999 V2000
   -5.6344    0.8205   15.2524 F   0  0  0  0  0  0
   -4.9783    1.1415   16.3887 C   0  0  0  0  0  0
   -3.7138    1.7125   16.3098 C   0  0  0  0  0  0
   -3.0325    2.0506   17.4768 C   0  0  0  0  0  0
   -3.5871    1.7276   18.7407 C   0  0  0  0  0  0
   -4.8471    1.1348   18.7989 C   0  0  0  0  0  0
   -5.5612    0.8873   17.6276 C   0  0  0  0  0  0
   -2.8984    2.0305   20.0523 C   0  0  0  0  0  0
   -2.5195    3.2749   20.2760 N   0  0  0  0  0  0
   -2.0352    3.2692   21.4851 C   0  0  0  0  0  0
   -2.0451    2.0574   22.1165 N   0  0  0  0  0  0
   -1.6167    1.8528   23.5259 C   0  0  0  0  0  0
   -0.2711    2.5753   23.8360 C   0  0  0  0  0  0
   -0.0063    2.7435   25.3432 C   0  0  0  0  0  0
   -1.1391    3.3919   26.0019 N   0  0  1  0  0  0
   -2.3554    2.5886   25.8920 C   0  0  0  0  0  0
   -2.7589    2.4014   24.4183 C   0  0  0  0  0  0
   -2.5548    1.1901   21.1489 C   0  0  0  0  0  0
   -2.6057   -0.3091   21.2591 C   0  0  0  0  0  0
   -2.5960   -1.0932   20.1032 C   0  0  0  0  0  0
   -2.4304   -2.4640   20.2677 C   0  0  0  0  0  0
   -2.2696   -3.0570   21.4763 N   0  0  0  0  0  0
   -2.2988   -2.2295   22.5441 C   0  0  0  0  0  0
   -2.0371   -2.8470   23.7515 O   0  0  0  0  0  0
   -1.6958   -2.1125   24.8630 C   0  0  0  0  0  0
   -2.6402   -1.8990   25.8671 C   0  0  0  0  0  0
   -2.2821   -1.1983   27.0155 C   0  0  0  0  0  0
   -0.9806   -0.7141   27.1508 C   0  0  0  0  0  0
   -0.0365   -0.9209   26.1475 C   0  0  0  0  0  0
   -0.3945   -1.6272   25.0033 C   0  0  0  0  0  0
   -2.4902   -0.8805   22.4901 N   0  0  0  0  0  0
   -3.2750    1.9172   15.3442 H   0  0  0  0  0  0
   -2.0479    2.5141   17.3634 H   0  0  0  0  0  0
   -5.2947    0.8928   19.7533 H   0  0  0  0  0  0
   -6.5452    0.4421   17.6752 H   0  0  0  0  0  0
   -1.5822    4.0870   22.0085 H   0  0  0  0  0  0
   -1.4535    0.8035   23.7264 H   0  0  0  0  0  0
    0.5330    1.9324   23.4718 H   0  0  0  0  0  0
   -0.0875    3.5087   23.3111 H   0  0  0  0  0  0
    0.2039    1.7837   25.8149 H   0  0  0  0  0  0
    0.8752    3.3692   25.4942 H   0  0  0  0  0  0
   -0.9129    3.5260   26.9780 H   0  0  0  0  0  0
   -2.2179    1.6248   26.3814 H   0  0  0  0  0  0
   -3.1498    3.1086   26.4284 H   0  0  0  0  0  0
   -3.2495    3.2898   24.0197 H   0  0  0  0  0  0
   -3.5531    1.6515   24.4256 H   0  0  0  0  0  0
   -2.6575   -0.6718   19.1130 H   0  0  0  0  0  0
   -2.4222   -3.1133   19.4070 H   0  0  0  0  0  0
   -3.6408   -2.2869   25.7591 H   0  0  0  0  0  0
   -3.0055   -1.0414   27.8030 H   0  0  0  0  0  0
   -0.7008   -0.1773   28.0468 H   0  0  0  0  0  0
    0.9739   -0.5564   26.2653 H   0  0  0  0  0  0
    0.3375   -1.8079   24.2291 H   0  0  0  0  0  0
  1  2  1  0  0  0
  2  3  2  0  0  0
  2  7  1  0  0  0
  3  4  1  0  0  0
  3 32  1  0  0  0
  4  5  2  0  0  0
  4 33  1  0  0  0
  5  6  1  0  0  0
  5  8  1  0  0  0
  6  7  2  0  0  0
  6 34  1  0  0  0
  7 35  1  0  0  0
  8  9  1  0  0  0
  8 18  2  0  0  0
  9 10  2  0  0  0
 10 11  1  0  0  0
 10 36  1  0  0  0
 11 12  1  0  0  0
 11 18  1  0  0  0
 12 13  1  0  0  0
 12 17  1  0  0  0
 12 37  1  0  0  0
 13 14  1  0  0  0
 13 38  1  0  0  0
 13 39  1  0  0  0
 14 15  1  0  0  0
 14 40  1  0  0  0
 14 41  1  0  0  0
 15 16  1  0  0  0
 15 42  1  0  0  0
 16 17  1  0  0  0
 16 43  1  0  0  0
 16 44  1  0  0  0
 17 45  1  0  0  0
 17 46  1  0  0  0
 18 19  1  0  0  0
 19 20  2  0  0  0
 19 31  1  0  0  0
 20 21  1  0  0  0
 20 47  1  0  0  0
 21 22  2  0  0  0
 21 48  1  0  0  0
 22 23  1  0  0  0
 23 24  1  0  0  0
 23 31  2  0  0  0
 24 25  1  0  0  0
 25 26  2  0  0  0
 25 30  1  0  0  0
 26 27  1  0  0  0
 26 49  1  0  0  0
 27 28  2  0  0  0
 27 50  1  0  0  0
 28 29  1  0  0  0
 28 51  1  0  0  0
 29 30  2  0  0  0
 29 52  1  0  0  0
 30 53  1  0  0  0
M  END
> <s_m_entry_id>
60961

> <s_m_entry_name>
dock_pv.238

> <s_m_Source_Path>
/home/csk/Desktop/cluster/DUD-E-result/mk14

> <s_m_Source_File>
dock_pv.maegz

> <i_m_Source_File_Index>
238

> <chembl_id>
CHEMBL275798

> <chembl_pref_name>
None

> <i_lp_mmshare_version>
53161

> <i_f3d_flags>
0

> <r_lp_tautomer_probability>
1

> <s_lp_Force_Field>
OPLS_2005

> <r_lp_Energy>
33.563598

> <b_lp_Chiralities_Consistent>
1

> <s_lp_Variant>
CHEMBL260_lig200-1

> <s_i_glide_gridfile>
glide-grid_2qd9

> <i_i_glide_lignum>
217

> <i_i_glide_rotatable_bonds>
5

> <r_i_docking_score>
-7.69288848489031

> <r_i_glide_ligand_efficiency>
-0.248157693060978

> <r_i_glide_ligand_efficiency_sa>
-0.779557774831506

> <r_i_glide_ligand_efficiency_ln>
-1.73498211206127

> <r_i_glide_gscore>
-7.69288848489031

> <r_i_glide_lipo>
-3.09477344066174

> <r_i_glide_hbond>
-0.281888607350883

> <r_i_glide_metal>
0

> <r_i_glide_rewards>
-2.42654295412342

> <r_i_glide_evdw>
-34.9253120422363

> <r_i_glide_ecoul>
-4.50267505645752

> <r_i_glide_erotb>
0.572013987265011

> <r_i_glide_esite>
-0.0400306094388229

> <r_i_glide_emodel>
-52.0539209897584

> <r_i_glide_energy>
-39.4279870986938

> <r_i_glide_einternal>
7.15297174453735

> <i_i_glide_confnum>
22

> <i_i_glide_posenum>
109

> <r_i_glide_eff_state_penalty>
0

> <s_user_duplicate_titles>
CHEMBL260_lig200,13513

> <s_m_subgroup_title>
dock_pv

> <s_m_subgroupid>
dock_pv

> <b_m_subgroup_collapsed>
1

$$$$
CHEMBL260_lig934
                    3D
 Schrodinger Suite 2021-1.
 40 43  0  0  1  0            999 V2000
   -2.0982   -1.5132   27.4665 C   0  0  0  0  0  0
   -1.2110   -0.4768   27.7502 C   0  0  0  0  0  0
   -0.5878    0.2067   26.7076 C   0  0  0  0  0  0
   -2.3320   -1.8953   26.1447 C   0  0  0  0  0  0
   -1.7019   -1.2109   25.0956 C   0  0  0  0  0  0
   -0.8465   -0.1407   25.3801 C   0  0  0  0  0  0
   -0.2896    0.5827   24.3642 O   0  0  0  0  0  0
   -1.9303   -1.7032   23.7015 C   0  0  0  0  0  0
   -1.2407    1.3708   23.6640 C   0  0  0  0  0  0
   -2.0358   -2.9280   23.5411 O   0  0  0  0  0  0
   -2.2447   -0.7609   22.5578 C   0  0  0  0  0  0
   -1.9940    0.6337   22.5540 C   0  0  0  0  0  0
   -2.4344    1.3897   21.4643 C   0  0  0  0  0  0
   -3.0412    0.8067   20.3592 C   0  0  0  0  0  0
   -3.2350   -0.5731   20.3378 C   0  0  0  0  0  0
   -2.8478   -1.3501   21.4286 C   0  0  0  0  0  0
   -3.3400    1.6481   19.2821 N   0  0  0  0  0  0
   -3.9643    1.3771   18.0546 C   0  0  0  0  0  0
   -5.2796    0.8868   17.9427 C   0  0  0  0  0  0
   -5.8418    0.7118   16.6759 C   0  0  0  0  0  0
   -5.1117    0.9924   15.5254 C   0  0  0  0  0  0
   -3.8124    1.4765   15.6333 C   0  0  0  0  0  0
   -3.2503    1.6867   16.8911 C   0  0  0  0  0  0
   -6.0351    0.4899   19.0531 N   0  0  0  0  0  0
   -2.5844   -2.0403   28.2745 H   0  0  0  0  0  0
   -1.0108   -0.1980   28.7748 H   0  0  0  0  0  0
    0.0887    1.0211   26.9254 H   0  0  0  0  0  0
   -3.0108   -2.7123   25.9484 H   0  0  0  0  0  0
   -1.9581    1.8453   24.3384 H   0  0  0  0  0  0
   -0.6732    2.1905   23.2193 H   0  0  0  0  0  0
   -2.2555    2.4551   21.4595 H   0  0  0  0  0  0
   -3.6762   -1.0518   19.4761 H   0  0  0  0  0  0
   -3.0382   -2.4139   21.3702 H   0  0  0  0  0  0
   -2.7256    2.4467   19.2506 H   0  0  0  0  0  0
   -6.8330    0.3009   16.5758 H   0  0  0  0  0  0
   -5.5553    0.8201   14.5557 H   0  0  0  0  0  0
   -3.2363    1.6874   14.7447 H   0  0  0  0  0  0
   -2.2455    2.0783   16.9465 H   0  0  0  0  0  0
   -6.8573   -0.0788   18.8967 H   0  0  0  0  0  0
   -5.5739    0.4901   19.9504 H   0  0  0  0  0  0
  1  2  2  0  0  0
  1  4  1  0  0  0
  1 25  1  0  0  0
  2  3  1  0  0  0
  2 26  1  0  0  0
  3  6  2  0  0  0
  3 27  1  0  0  0
  4  5  2  0  0  0
  4 28  1  0  0  0
  5  6  1  0  0  0
  5  8  1  0  0  0
  6  7  1  0  0  0
  7  9  1  0  0  0
  8 11  1  0  0  0
  8 10  2  0  0  0
  9 12  1  0  0  0
  9 29  1  0  0  0
  9 30  1  0  0  0
 11 12  2  0  0  0
 11 16  1  0  0  0
 12 13  1  0  0  0
 13 14  2  0  0  0
 13 31  1  0  0  0
 14 15  1  0  0  0
 14 17  1  0  0  0
 15 16  2  0  0  0
 15 32  1  0  0  0
 16 33  1  0  0  0
 17 18  1  0  0  0
 17 34  1  0  0  0
 18 19  2  0  0  0
 18 23  1  0  0  0
 19 20  1  0  0  0
 19 24  1  0  0  0
 20 21  2  0  0  0
 20 35  1  0  0  0
 21 22  1  0  0  0
 21 36  1  0  0  0
 22 23  2  0  0  0
 22 37  1  0  0  0
 23 38  1  0  0  0
 24 39  1  0  0  0
 24 40  1  0  0  0
M  END
> <s_m_entry_id>
60962

> <s_m_entry_name>
dock_pv.239

> <s_m_Source_Path>
/home/csk/Desktop/cluster/DUD-E-result/mk14

> <s_m_Source_File>
dock_pv.maegz

> <i_m_Source_File_Index>
239

> <chembl_id>
CHEMBL219259

> <chembl_pref_name>
None

> <i_lp_mmshare_version>
53161

> <i_f3d_flags>
0

> <r_lp_tautomer_probability>
1

> <s_lp_Force_Field>
OPLS_2005

> <r_lp_Energy>
38.818779

> <b_lp_Chiralities_Consistent>
1

> <s_lp_Variant>
CHEMBL260_lig934-1

> <s_i_glide_gridfile>
glide-grid_2qd9

> <i_i_glide_lignum>
1037

> <i_i_glide_rotatable_bonds>
2

> <r_i_docking_score>
-7.68982681263931

> <r_i_glide_ligand_efficiency>
-0.320409450526638

> <r_i_glide_ligand_efficiency_sa>
-0.924220783709879

> <r_i_glide_ligand_efficiency_ln>
-1.84052841942415

> <r_i_glide_gscore>
-7.68982681263931

> <r_i_glide_lipo>
-3.39657636568518

> <r_i_glide_hbond>
-0.474783600474232

> <r_i_glide_metal>
0

> <r_i_glide_rewards>
-1.60713524255196

> <r_i_glide_evdw>
-38.7012062072754

> <r_i_glide_ecoul>
-4.3219165802002

> <r_i_glide_erotb>
0.372016193465849

> <r_i_glide_esite>
0

> <r_i_glide_emodel>
-57.2471417349442

> <r_i_glide_energy>
-43.0231227874756

> <r_i_glide_einternal>
8.92837142944336

> <i_i_glide_confnum>
35

> <i_i_glide_posenum>
341

> <r_i_glide_eff_state_penalty>
0

> <s_user_duplicate_titles>
CHEMBL260_lig934

> <s_m_subgroup_title>
dock_pv

> <s_m_subgroupid>
dock_pv

> <b_m_subgroup_collapsed>
1

$$$$
CHEMBL260_lig513
                    3D
 Schrodinger Suite 2021-1.
 57 61  0  0  1  0            999 V2000
   -2.6265    0.9151   21.0982 C   0  0  0  0  0  0
   -3.0066    1.4454   19.8724 N   0  0  0  0  0  0
   -2.4349    3.1620   21.2047 N   0  0  0  0  0  0
   -2.3592    2.0463   21.8989 C   0  0  0  0  0  0
   -2.8350    2.8004   20.0282 C   0  0  0  0  0  0
   -2.5021   -0.5346   21.4407 C   0  0  0  0  0  0
   -2.6646   -0.8219   22.7593 N   0  0  0  0  0  0
   -2.4038   -2.0960   23.1457 C   0  0  0  0  0  0
   -2.0660    2.1631   23.3560 C   0  0  0  0  0  0
   -2.0356   -3.1136   22.3349 N   0  0  0  0  0  0
   -3.6023    0.8053   18.6657 C   0  0  0  0  0  0
   -2.4342   -2.3769   24.4925 O   0  0  0  0  0  0
   -5.1760    1.6872   16.2774 N   0  0  2  0  0  0
   -2.0845   -1.5142   20.5284 C   0  0  0  0  0  0
   -0.8244    2.6346   23.7928 C   0  0  0  0  0  0
   -3.0656    1.8651   24.2866 C   0  0  0  0  0  0
   -1.6375   -1.6626   25.3658 C   0  0  0  0  0  0
   -1.8841   -2.8028   21.0231 C   0  0  0  0  0  0
   -1.5933    2.5203   26.0743 C   0  0  0  0  0  0
   -0.0326   -0.3306   27.2351 C   0  0  0  0  0  0
   -5.1063    1.1330   18.7214 C   0  0  0  0  0  0
   -2.9879    1.3954   17.3561 C   0  0  0  0  0  0
   -2.8290    2.0433   25.6459 C   0  0  0  0  0  0
   -0.5875    2.8103   25.1545 C   0  0  0  0  0  0
   -1.3714    2.7039   27.3950 F   0  0  0  0  0  0
   -2.0737   -1.5130   26.6813 C   0  0  0  0  0  0
   -0.3942   -1.1401   24.9877 C   0  0  0  0  0  0
    0.3919   -0.4705   25.9164 C   0  0  0  0  0  0
   -1.2783   -0.8527   27.6150 C   0  0  0  0  0  0
    0.8341    0.3246   28.0834 O   0  0  0  0  0  0
   -3.8340    1.1478   16.0969 C   0  0  0  0  0  0
   -5.8808    1.0468   17.3809 C   0  0  0  0  0  0
    0.5038    0.4486   29.4606 C   0  0  0  0  0  0
   -3.0410    3.4665   19.2139 H   0  0  0  0  0  0
   -3.4619   -0.2687   18.6963 H   0  0  0  0  0  0
   -5.7074    1.5731   15.4243 H   0  0  0  0  0  0
   -1.8612   -1.2988   19.4964 H   0  0  0  0  0  0
   -0.0477    2.8704   23.0792 H   0  0  0  0  0  0
   -4.0302    1.5088   23.9578 H   0  0  0  0  0  0
   -1.5738   -3.6029   20.3657 H   0  0  0  0  0  0
   -5.5837    0.4254   19.4014 H   0  0  0  0  0  0
   -5.2350    2.0870   19.2143 H   0  0  0  0  0  0
   -2.6888    2.4404   17.4032 H   0  0  0  0  0  0
   -2.0499    0.8871   17.1571 H   0  0  0  0  0  0
   -3.5994    1.8175   26.3675 H   0  0  0  0  0  0
    0.3713    3.1696   25.4994 H   0  0  0  0  0  0
   -3.0259   -1.9233   26.9818 H   0  0  0  0  0  0
   -0.0278   -1.2580   23.9787 H   0  0  0  0  0  0
    1.3508   -0.0730   25.6193 H   0  0  0  0  0  0
   -1.6368   -0.7636   28.6286 H   0  0  0  0  0  0
   -3.8852    0.0855   15.8574 H   0  0  0  0  0  0
   -3.3791    1.6472   15.2400 H   0  0  0  0  0  0
   -6.1371    0.0332   17.1018 H   0  0  0  0  0  0
   -6.8349    1.5601   17.4761 H   0  0  0  0  0  0
    1.3212    0.9496   29.9792 H   0  0  0  0  0  0
    0.3665   -0.5270   29.9294 H   0  0  0  0  0  0
   -0.3973    1.0467   29.6025 H   0  0  0  0  0  0
  1  2  1  0  0  0
  1  4  2  0  0  0
  1  6  1  0  0  0
  2  5  1  0  0  0
  2 11  1  0  0  0
  3  4  1  0  0  0
  3  5  2  0  0  0
  4  9  1  0  0  0
  5 34  1  0  0  0
  6  7  1  0  0  0
  6 14  2  0  0  0
  7  8  2  0  0  0
  8 12  1  0  0  0
  8 10  1  0  0  0
  9 15  1  0  0  0
  9 16  2  0  0  0
 10 18  2  0  0  0
 11 21  1  0  0  0
 11 22  1  0  0  0
 11 35  1  0  0  0
 12 17  1  0  0  0
 13 31  1  0  0  0
 13 32  1  0  0  0
 13 36  1  0  0  0
 14 18  1  0  0  0
 14 37  1  0  0  0
 15 24  2  0  0  0
 15 38  1  0  0  0
 16 23  1  0  0  0
 16 39  1  0  0  0
 17 26  2  0  0  0
 17 27  1  0  0  0
 18 40  1  0  0  0
 19 23  2  0  0  0
 19 25  1  0  0  0
 19 24  1  0  0  0
 20 28  1  0  0  0
 20 30  1  0  0  0
 20 29  2  0  0  0
 21 32  1  0  0  0
 21 41  1  0  0  0
 21 42  1  0  0  0
 22 31  1  0  0  0
 22 43  1  0  0  0
 22 44  1  0  0  0
 23 45  1  0  0  0
 24 46  1  0  0  0
 26 29  1  0  0  0
 26 47  1  0  0  0
 27 28  2  0  0  0
 27 48  1  0  0  0
 28 49  1  0  0  0
 29 50  1  0  0  0
 30 33  1  0  0  0
 31 51  1  0  0  0
 31 52  1  0  0  0
 32 53  1  0  0  0
 32 54  1  0  0  0
 33 55  1  0  0  0
 33 56  1  0  0  0
 33 57  1  0  0  0
M  END
> <s_m_entry_id>
60963

> <s_m_entry_name>
dock_pv.240

> <s_m_Source_Path>
/home/csk/Desktop/cluster/DUD-E-result/mk14

> <s_m_Source_File>
dock_pv.maegz

> <i_m_Source_File_Index>
240

> <chembl_id>
CHEMBL14478

> <chembl_pref_name>
None

> <i_lp_mmshare_version>
53161

> <i_f3d_flags>
0

> <r_lp_tautomer_probability>
1

> <s_lp_Force_Field>
OPLS_2005

> <r_lp_Energy>
36.935845

> <b_lp_Chiralities_Consistent>
1

> <s_lp_Variant>
CHEMBL260_lig513-1

> <s_i_glide_gridfile>
glide-grid_2qd9

> <i_i_glide_lignum>
583

> <i_i_glide_rotatable_bonds>
6

> <r_i_docking_score>
-7.68022927778483

> <r_i_glide_ligand_efficiency>
-0.232734220538934

> <r_i_glide_ligand_efficiency_sa>
-0.7465030012734

> <r_i_glide_ligand_efficiency_ln>
-1.70804322528038

> <r_i_glide_gscore>
-7.68022927778483

> <r_i_glide_lipo>
-3.42637607025017

> <r_i_glide_hbond>
-0.329066278409789

> <r_i_glide_metal>
0

> <r_i_glide_rewards>
-1.68356901179582

> <r_i_glide_evdw>
-44.4504470825195

> <r_i_glide_ecoul>
-3.47120213508606

> <r_i_glide_erotb>
0.504096319075929

> <r_i_glide_esite>
-0.00211156201608633

> <r_i_glide_emodel>
-60.6879675072856

> <r_i_glide_energy>
-47.9216492176056

> <r_i_glide_einternal>
4.2306079864502

> <i_i_glide_confnum>
2

> <i_i_glide_posenum>
7

> <r_i_glide_eff_state_penalty>
0

> <s_user_duplicate_titles>
CHEMBL260_lig513,13647

> <s_m_subgroup_title>
dock_pv

> <s_m_subgroupid>
dock_pv

> <b_m_subgroup_collapsed>
1

$$$$
CHEMBL260_lig445
                    3D
 Schrodinger Suite 2021-1.
 32 34  0  0  1  0            999 V2000
   -2.6143   -1.4299   22.2457 C   0  0  0  0  0  0
   -2.6705   -0.1102   22.7213 C   0  0  0  0  0  0
   -3.2338    0.6343   21.7126 N   0  0  0  0  0  0
   -3.2299   -1.4369   20.9798 C   0  0  0  0  0  0
   -3.5914   -0.1482   20.6497 C   0  0  0  0  0  0
   -2.0770   -2.5802   22.9161 C   0  0  0  0  0  0
   -4.1574    0.3833   19.3995 C   0  0  0  0  0  0
   -2.2180    0.5329   23.9901 C   0  0  0  0  0  0
   -2.0349   -2.7130   24.1364 O   0  0  0  0  0  0
   -1.3781    1.7573   26.3770 N   0  0  0  0  0  0
   -5.5295    0.4870   19.1772 C   0  0  0  0  0  0
   -3.2575    0.6927   18.3866 C   0  0  0  0  0  0
   -1.6354   -3.5129   22.0286 O   0  0  0  0  0  0
   -5.0758    1.2870   16.9545 C   0  0  0  0  0  0
   -5.9881    0.8870   17.9288 C   0  0  0  0  0  0
   -3.7071    1.1897   17.1717 C   0  0  0  0  0  0
   -5.6346    1.9169   15.4646 Cl  0  0  0  0  0  0
   -0.5816    0.8720   25.7252 C   0  0  0  0  0  0
   -2.5930    2.0309   25.8387 C   0  0  0  0  0  0
   -0.9621    0.2424   24.5382 C   0  0  0  0  0  0
   -3.0463    1.4471   24.6548 C   0  0  0  0  0  0
   -3.3591    1.6345   21.7485 H   0  0  0  0  0  0
   -3.3779   -2.2970   20.3398 H   0  0  0  0  0  0
   -6.2422    0.2033   19.9344 H   0  0  0  0  0  0
   -2.2185    0.4870   18.5351 H   0  0  0  0  0  0
   -1.7378   -3.2187   21.1212 H   0  0  0  0  0  0
   -7.0487    0.9400   17.7442 H   0  0  0  0  0  0
   -3.0055    1.4520   16.3926 H   0  0  0  0  0  0
    0.3814    0.6700   26.1732 H   0  0  0  0  0  0
   -3.2114    2.7312   26.3815 H   0  0  0  0  0  0
   -0.2927   -0.4567   24.0584 H   0  0  0  0  0  0
   -4.0281    1.6887   24.2755 H   0  0  0  0  0  0
  1  2  2  0  0  0
  1  4  1  0  0  0
  1  6  1  0  0  0
  2  3  1  0  0  0
  2  8  1  0  0  0
  3  5  1  0  0  0
  3 22  1  0  0  0
  4  5  2  0  0  0
  4 23  1  0  0  0
  5  7  1  0  0  0
  6  9  2  0  0  0
  6 13  1  0  0  0
  7 11  2  0  0  0
  7 12  1  0  0  0
  8 20  1  0  0  0
  8 21  2  0  0  0
 10 19  2  0  0  0
 10 18  1  0  0  0
 11 15  1  0  0  0
 11 24  1  0  0  0
 12 16  2  0  0  0
 12 25  1  0  0  0
 13 26  1  0  0  0
 14 16  1  0  0  0
 14 17  1  0  0  0
 14 15  2  0  0  0
 15 27  1  0  0  0
 16 28  1  0  0  0
 18 20  2  0  0  0
 18 29  1  0  0  0
 19 21  1  0  0  0
 19 30  1  0  0  0
 20 31  1  0  0  0
 21 32  1  0  0  0
M  END
> <s_m_entry_id>
60964

> <s_m_entry_name>
dock_pv.241

> <s_m_Source_Path>
/home/csk/Desktop/cluster/DUD-E-result/mk14

> <s_m_Source_File>
dock_pv.maegz

> <i_m_Source_File_Index>
241

> <chembl_id>
CHEMBL156961

> <chembl_pref_name>
None

> <i_lp_mmshare_version>
53161

> <i_f3d_flags>
0

> <r_lp_tautomer_probability>
1

> <s_lp_Force_Field>
OPLS_2005

> <r_lp_Energy>
8.885623

> <b_lp_Chiralities_Consistent>
1

> <s_lp_Variant>
CHEMBL260_lig445-1

> <s_i_glide_gridfile>
glide-grid_2qd9

> <i_i_glide_lignum>
514

> <i_i_glide_rotatable_bonds>
4

> <r_i_docking_score>
-7.67311385126002

> <r_i_glide_ligand_efficiency>
-0.365386373869525

> <r_i_glide_ligand_efficiency_sa>
-1.00807329956583

> <r_i_glide_ligand_efficiency_ln>
-1.89716189473758

> <r_i_glide_gscore>
-7.67311385126002

> <r_i_glide_lipo>
-3.01351209693267

> <r_i_glide_hbond>
-0.271830665555542

> <r_i_glide_metal>
0

> <r_i_glide_rewards>
-2.71470669280892

> <r_i_glide_evdw>
-28.9004440307617

> <r_i_glide_ecoul>
-5.63419342041016

> <r_i_glide_erotb>
0.617086818636721

> <r_i_glide_esite>
0

> <r_i_glide_emodel>
-42.8958579516322

> <r_i_glide_energy>
-34.5346374511719

> <r_i_glide_einternal>
7.07332563400269

> <i_i_glide_confnum>
9

> <i_i_glide_posenum>
160

> <r_i_glide_eff_state_penalty>
0

> <s_user_duplicate_titles>
CHEMBL260_lig445

> <s_m_subgroup_title>
dock_pv

> <s_m_subgroupid>
dock_pv

> <b_m_subgroup_collapsed>
1

$$$$
CHEMBL260_lig1646
                    3D
 Schrodinger Suite 2021-1.
 42 44  0  0  1  0            999 V2000
   -5.6880    0.7247   16.4982 C   0  0  0  0  0  0
   -6.1585    0.5495   17.7973 C   0  0  0  0  0  0
   -5.3544    0.8867   18.8825 C   0  0  0  0  0  0
   -4.0774    1.4272   18.6791 C   0  0  0  0  0  0
   -3.6352    1.6533   17.3568 C   0  0  0  0  0  0
   -4.4379    1.2882   16.2775 C   0  0  0  0  0  0
   -3.2354    1.7388   19.8755 C   0  0  0  0  0  0
   -2.8941    0.6430   20.8793 C   0  0  0  0  0  0
   -2.8395    2.8997   20.0205 O   0  0  0  0  0  0
   -3.1200   -0.6972   20.5218 C   0  0  0  0  0  0
   -2.8323   -1.7245   21.4135 C   0  0  0  0  0  0
   -2.3088   -1.4502   22.6219 N   0  3  0  0  0  0
   -2.0170   -0.1801   23.0307 C   0  0  0  0  0  0
   -2.3151    0.8896   22.1537 C   0  0  0  0  0  0
   -2.1120   -2.4432   23.3812 O   0  5  0  0  0  0
   -2.0067    2.1922   22.5635 N   0  0  0  0  0  0
   -1.3502    0.0050   24.3794 C   0  0  0  0  0  0
   -0.0451   -0.4841   24.6177 C   0  0  0  0  0  0
    0.5684   -0.3095   25.8596 C   0  0  0  0  0  0
   -0.0889    0.3529   26.8861 C   0  0  0  0  0  0
   -1.3668    0.8520   26.6725 C   0  0  0  0  0  0
   -1.9969    0.6904   25.4336 C   0  0  0  0  0  0
   -2.4627    2.2663   17.0758 F   0  0  0  0  0  0
   -6.4300    0.3000   15.4559 F   0  0  0  0  0  0
   -3.4031    1.2460   25.2929 C   0  0  0  0  0  0
    0.7603   -1.1795   23.5370 C   0  0  0  0  0  0
   -7.1325    0.1052   17.9564 H   0  0  0  0  0  0
   -5.7342    0.7126   19.8794 H   0  0  0  0  0  0
   -4.0894    1.4421   15.2663 H   0  0  0  0  0  0
   -3.5167   -0.9694   19.5529 H   0  0  0  0  0  0
   -3.0011   -2.7703   21.1923 H   0  0  0  0  0  0
   -1.3879    2.2896   23.3569 H   0  0  0  0  0  0
   -1.9989    2.8883   21.8283 H   0  0  0  0  0  0
    1.5649   -0.6892   26.0353 H   0  0  0  0  0  0
    0.3954    0.4863   27.8441 H   0  0  0  0  0  0
   -1.8652    1.3695   27.4800 H   0  0  0  0  0  0
   -3.8699    1.3159   26.2721 H   0  0  0  0  0  0
   -3.3961    2.2434   24.8618 H   0  0  0  0  0  0
   -4.0316    0.6003   24.6798 H   0  0  0  0  0  0
    1.8326   -1.1104   23.7296 H   0  0  0  0  0  0
    0.4776   -2.2291   23.4760 H   0  0  0  0  0  0
    0.5868   -0.7125   22.5718 H   0  0  0  0  0  0
  1  2  2  0  0  0
  1 24  1  0  0  0
  1  6  1  0  0  0
  2  3  1  0  0  0
  2 27  1  0  0  0
  3  4  2  0  0  0
  3 28  1  0  0  0
  4  7  1  0  0  0
  4  5  1  0  0  0
  5 23  1  0  0  0
  5  6  2  0  0  0
  6 29  1  0  0  0
  7  8  1  0  0  0
  7  9  2  0  0  0
  8 14  1  0  0  0
  8 10  2  0  0  0
 10 11  1  0  0  0
 10 30  1  0  0  0
 11 12  2  0  0  0
 11 31  1  0  0  0
 12 13  1  0  0  0
 12 15  1  0  0  0
 13 14  2  0  0  0
 13 17  1  0  0  0
 14 16  1  0  0  0
 16 32  1  0  0  0
 16 33  1  0  0  0
 17 18  2  0  0  0
 17 22  1  0  0  0
 18 19  1  0  0  0
 18 26  1  0  0  0
 19 20  2  0  0  0
 19 34  1  0  0  0
 20 21  1  0  0  0
 20 35  1  0  0  0
 21 22  2  0  0  0
 21 36  1  0  0  0
 22 25  1  0  0  0
 25 37  1  0  0  0
 25 38  1  0  0  0
 25 39  1  0  0  0
 26 40  1  0  0  0
 26 41  1  0  0  0
 26 42  1  0  0  0
M  CHG  2  12   1  15  -1
M  END
> <s_m_entry_id>
60965

> <s_m_entry_name>
dock_pv.242

> <s_m_Source_Path>
/home/csk/Desktop/cluster/DUD-E-result/mk14

> <s_m_Source_File>
dock_pv.maegz

> <i_m_Source_File_Index>
242

> <chembl_id>
CHEMBL554485

> <chembl_pref_name>
None

> <i_lp_mmshare_version>
53161

> <i_f3d_flags>
0

> <r_lp_tautomer_probability>
1

> <s_lp_Force_Field>
OPLS_2005

> <r_lp_Energy>
39.156817

> <b_lp_Chiralities_Consistent>
1

> <s_lp_Variant>
CHEMBL260_lig1646-1

> <s_i_glide_gridfile>
glide-grid_2qd9

> <i_i_glide_lignum>
1898

> <i_i_glide_rotatable_bonds>
3

> <r_i_docking_score>
-7.66083376616925

> <r_i_glide_ligand_efficiency>
-0.294647452544971

> <r_i_glide_ligand_efficiency_sa>
-0.872891918782735

> <r_i_glide_ligand_efficiency_ln>
-1.79912167273897

> <r_i_glide_gscore>
-7.66083376616925

> <r_i_glide_lipo>
-3.35581119470384

> <r_i_glide_hbond>
0

> <r_i_glide_metal>
0

> <r_i_glide_rewards>
-1.96749566086994

> <r_i_glide_evdw>
-30.3652820587158

> <r_i_glide_ecoul>
-8.4534740447998

> <r_i_glide_erotb>
0.456524688959886

> <r_i_glide_esite>
-0.00776638989958529

> <r_i_glide_emodel>
-49.5671998508748

> <r_i_glide_energy>
-38.8187561035156

> <r_i_glide_einternal>
7.88078165054321

> <i_i_glide_confnum>
30

> <i_i_glide_posenum>
205

> <r_i_glide_eff_state_penalty>
0

> <s_user_duplicate_titles>
CHEMBL260_lig1646,562088

> <s_m_subgroup_title>
dock_pv

> <s_m_subgroupid>
dock_pv

> <b_m_subgroup_collapsed>
1

$$$$
CHEMBL260_lig943
                    3D
 Schrodinger Suite 2021-1.
 38 41  0  0  1  0            999 V2000
   -1.2152    1.7285   23.4165 O   0  0  0  0  0  0
    0.0048    1.1707   23.8760 C   0  0  0  0  0  0
   -1.7565   -1.2825   23.7987 C   0  0  0  0  0  0
   -1.9540    0.9839   22.5298 C   0  0  0  0  0  0
   -2.1811   -0.4072   22.6318 C   0  0  0  0  0  0
   -2.8782   -1.0496   21.5881 C   0  0  0  0  0  0
   -3.3297   -0.3335   20.4788 C   0  0  0  0  0  0
   -3.1084    1.0407   20.3889 C   0  0  0  0  0  0
   -2.4350    1.6817   21.4225 C   0  0  0  0  0  0
   -1.1132   -0.7608   25.0656 C   0  0  0  0  0  0
   -0.2421    0.3455   25.1194 C   0  0  0  0  0  0
    0.3640    0.6852   26.3355 C   0  0  0  0  0  0
    0.1007   -0.0388   27.4941 C   0  0  0  0  0  0
   -0.7807   -1.1131   27.4503 C   0  0  0  0  0  0
   -1.3730   -1.4838   26.2441 C   0  0  0  0  0  0
   -2.0351   -2.4901   23.7611 O   0  0  0  0  0  0
   -3.4740    1.8101   19.2742 N   0  0  0  0  0  0
   -4.0232    1.3760   18.0591 C   0  0  0  0  0  0
   -3.2887    1.5396   16.8775 C   0  0  0  0  0  0
   -3.8198    1.1293   15.6527 C   0  0  0  0  0  0
   -5.0986    0.5791   15.5989 C   0  0  0  0  0  0
   -5.8610    0.4944   16.7578 C   0  0  0  0  0  0
   -5.3322    0.8870   17.9875 C   0  0  0  0  0  0
   -6.0792    0.7391   19.1073 F   0  0  0  0  0  0
   -5.5895    0.0871   14.4411 F   0  0  0  0  0  0
    0.6806    1.9968   24.1034 H   0  0  0  0  0  0
    0.5097    0.5737   23.1132 H   0  0  0  0  0  0
   -3.0816   -2.1121   21.6056 H   0  0  0  0  0  0
   -3.8423   -0.8596   19.6875 H   0  0  0  0  0  0
   -2.2337    2.7401   21.3556 H   0  0  0  0  0  0
    1.0450    1.5231   26.3908 H   0  0  0  0  0  0
    0.5806    0.2336   28.4235 H   0  0  0  0  0  0
   -0.9846   -1.6789   28.3483 H   0  0  0  0  0  0
   -2.0390   -2.3345   26.2491 H   0  0  0  0  0  0
   -2.9081    2.6403   19.1935 H   0  0  0  0  0  0
   -2.2939    1.9581   16.9028 H   0  0  0  0  0  0
   -3.2349    1.2151   14.7485 H   0  0  0  0  0  0
   -6.8350    0.0445   16.7178 H   0  0  0  0  0  0
  1  4  1  0  0  0
  1  2  1  0  0  0
  2 11  1  0  0  0
  2 26  1  0  0  0
  2 27  1  0  0  0
  3 16  2  0  0  0
  3  5  1  0  0  0
  3 10  1  0  0  0
  4  9  1  0  0  0
  4  5  2  0  0  0
  5  6  1  0  0  0
  6  7  2  0  0  0
  6 28  1  0  0  0
  7  8  1  0  0  0
  7 29  1  0  0  0
  8 17  1  0  0  0
  8  9  2  0  0  0
  9 30  1  0  0  0
 10 15  1  0  0  0
 10 11  2  0  0  0
 11 12  1  0  0  0
 12 13  2  0  0  0
 12 31  1  0  0  0
 13 14  1  0  0  0
 13 32  1  0  0  0
 14 15  2  0  0  0
 14 33  1  0  0  0
 15 34  1  0  0  0
 17 18  1  0  0  0
 17 35  1  0  0  0
 18 19  2  0  0  0
 18 23  1  0  0  0
 19 20  1  0  0  0
 19 36  1  0  0  0
 20 21  2  0  0  0
 20 37  1  0  0  0
 21 22  1  0  0  0
 21 25  1  0  0  0
 22 23  2  0  0  0
 22 38  1  0  0  0
 23 24  1  0  0  0
M  END
> <s_m_entry_id>
60966

> <s_m_entry_name>
dock_pv.243

> <s_m_Source_Path>
/home/csk/Desktop/cluster/DUD-E-result/mk14

> <s_m_Source_File>
dock_pv.maegz

> <i_m_Source_File_Index>
243

> <chembl_id>
CHEMBL376855

> <chembl_pref_name>
None

> <i_lp_mmshare_version>
53161

> <i_f3d_flags>
0

> <r_lp_tautomer_probability>
1

> <s_lp_Force_Field>
OPLS_2005

> <r_lp_Energy>
38.006016

> <b_lp_Chiralities_Consistent>
1

> <s_lp_Variant>
CHEMBL260_lig943-1

> <s_i_glide_gridfile>
glide-grid_2qd9

> <i_i_glide_lignum>
1046

> <i_i_glide_rotatable_bonds>
2

> <r_i_docking_score>
-7.66033974903788

> <r_i_glide_ligand_efficiency>
-0.306413589961515

> <r_i_glide_ligand_efficiency_sa>
-0.895958771315628

> <r_i_glide_ligand_efficiency_ln>
-1.81573008237975

> <r_i_glide_gscore>
-7.66033974903788

> <r_i_glide_lipo>
-3.4283992187057

> <r_i_glide_hbond>
-0.00711585215105124

> <r_i_glide_metal>
0

> <r_i_glide_rewards>
-2.16628091437401

> <r_i_glide_evdw>
-37.3805122375488

> <r_i_glide_ecoul>
-3.47789716720581

> <r_i_glide_erotb>
0.332166423151187

> <r_i_glide_esite>
0

> <r_i_glide_emodel>
-52.1885339703337

> <r_i_glide_energy>
-40.8584094047546

> <r_i_glide_einternal>
9.04639339447021

> <i_i_glide_confnum>
48

> <i_i_glide_posenum>
69

> <r_i_glide_eff_state_penalty>
0

> <s_user_duplicate_titles>
CHEMBL260_lig943,365344

> <s_m_subgroup_title>
dock_pv

> <s_m_subgroupid>
dock_pv

> <b_m_subgroup_collapsed>
1

$$$$
CHEMBL260_lig134
                    3D
 Schrodinger Suite 2021-1.
 44 47  0  0  1  0            999 V2000
   -1.4112   -1.2611   23.5658 N   0  0  0  0  0  0
   -1.5357   -2.5550   23.1501 C   0  0  0  0  0  0
   -0.0970    0.0304   28.9823 N   0  3  0  0  0  0
   -1.0554   -1.0286   24.9231 C   0  0  0  0  0  0
   -1.7114   -0.1500   22.7583 C   0  0  0  0  0  0
   -2.0704   -0.3888   21.4258 C   0  0  0  0  0  0
   -2.0342   -1.0885   25.9320 C   0  0  0  0  0  0
   -0.4155   -0.3650   27.5910 C   0  0  0  0  0  0
   -2.4350    0.5945   20.6067 N   0  0  0  0  0  0
   -1.6350   -2.7761   21.8226 N   0  0  0  0  0  0
    0.2590   -0.6471   25.2622 C   0  0  0  0  0  0
   -1.7070   -0.7770   27.2488 C   0  0  0  0  0  0
   -2.4350    1.8591   21.0593 C   0  0  0  0  0  0
    0.5594   -0.3130   26.5870 C   0  0  0  0  0  0
   -1.7128    1.1803   23.2229 C   0  0  0  0  0  0
   -2.0749   -1.7865   20.8476 C   0  0  0  0  0  0
    0.8955    0.7234   29.1765 O   0  5  0  0  0  0
   -0.8601   -0.3212   29.8778 O   0  0  0  0  0  0
   -2.8350    3.0657   19.8760 S   0  0  0  0  0  0
   -1.6350   -3.5130   23.8760 O   0  0  0  0  0  0
   -3.6712   -1.5130   25.5865 Cl  0  0  0  0  0  0
   -2.0711    2.2098   22.3564 C   0  0  0  0  0  0
   -3.6350    2.0870   18.5997 C   0  0  0  0  0  0
   -5.0883    0.8991   16.5434 C   0  0  0  0  0  0
   -5.8053    0.3384   15.5442 F   0  0  0  0  0  0
   -3.1358    2.0870   17.2901 C   0  0  0  0  0  0
   -4.8350    1.4373   18.8835 C   0  0  0  0  0  0
   -5.5833    0.8870   17.8460 C   0  0  0  0  0  0
   -3.8559    1.4814   16.2642 C   0  0  0  0  0  0
    1.3730   -0.5832   24.2237 C   0  0  0  0  0  0
   -1.5709   -3.7332   21.5119 H   0  0  0  0  0  0
   -2.4770   -0.8284   28.0059 H   0  0  0  0  0  0
    1.5650   -0.0073   26.8433 H   0  0  0  0  0  0
   -1.4419    1.4280   24.2387 H   0  0  0  0  0  0
   -1.4112   -1.8328   19.9824 H   0  0  0  0  0  0
   -3.0755   -2.0527   20.5016 H   0  0  0  0  0  0
   -2.0604    3.2389   22.6811 H   0  0  0  0  0  0
   -2.2075    2.5907   17.0611 H   0  0  0  0  0  0
   -5.2316    1.4345   19.8886 H   0  0  0  0  0  0
   -6.5403    0.4272   18.0491 H   0  0  0  0  0  0
   -3.4786    1.4908   15.2518 H   0  0  0  0  0  0
    1.3755    0.3825   23.7175 H   0  0  0  0  0  0
    2.3517   -0.7475   24.6760 H   0  0  0  0  0  0
    1.2519   -1.3657   23.4760 H   0  0  0  0  0  0
  1  2  1  0  0  0
  1  4  1  0  0  0
  1  5  1  0  0  0
  2 10  1  0  0  0
  2 20  2  0  0  0
  3  8  1  0  0  0
  3 17  1  0  0  0
  3 18  2  0  0  0
  4  7  1  0  0  0
  4 11  2  0  0  0
  5  6  2  0  0  0
  5 15  1  0  0  0
  6  9  1  0  0  0
  6 16  1  0  0  0
  7 12  2  0  0  0
  7 21  1  0  0  0
  8 14  2  0  0  0
  8 12  1  0  0  0
  9 13  2  0  0  0
 10 16  1  0  0  0
 10 31  1  0  0  0
 11 14  1  0  0  0
 11 30  1  0  0  0
 12 32  1  0  0  0
 13 22  1  0  0  0
 13 19  1  0  0  0
 14 33  1  0  0  0
 15 22  2  0  0  0
 15 34  1  0  0  0
 16 35  1  0  0  0
 16 36  1  0  0  0
 19 23  1  0  0  0
 22 37  1  0  0  0
 23 26  2  0  0  0
 23 27  1  0  0  0
 24 28  1  0  0  0
 24 25  1  0  0  0
 24 29  2  0  0  0
 26 29  1  0  0  0
 26 38  1  0  0  0
 27 28  2  0  0  0
 27 39  1  0  0  0
 28 40  1  0  0  0
 29 41  1  0  0  0
 30 42  1  0  0  0
 30 43  1  0  0  0
 30 44  1  0  0  0
M  CHG  2   3   1  17  -1
M  END
> <s_m_entry_id>
60967

> <s_m_entry_name>
dock_pv.244

> <s_m_Source_Path>
/home/csk/Desktop/cluster/DUD-E-result/mk14

> <s_m_Source_File>
dock_pv.maegz

> <i_m_Source_File_Index>
244

> <chembl_id>
CHEMBL127275

> <chembl_pref_name>
None

> <i_lp_mmshare_version>
53161

> <i_f3d_flags>
0

> <r_lp_tautomer_probability>
1

> <s_lp_Force_Field>
OPLS_2005

> <r_lp_Energy>
43.866493

> <b_lp_Chiralities_Consistent>
1

> <s_lp_Variant>
CHEMBL260_lig134-1

> <s_i_glide_gridfile>
glide-grid_2qd9

> <i_i_glide_lignum>
151

> <i_i_glide_rotatable_bonds>
4

> <r_i_docking_score>
-7.65989598681905

> <r_i_glide_ligand_efficiency>
-0.255329866227302

> <r_i_glide_ligand_efficiency_sa>
-0.793369259182853

> <r_i_glide_ligand_efficiency_ln>
-1.74041182945679

> <r_i_glide_gscore>
-7.65989598681905

> <r_i_glide_lipo>
-3.16763685168797

> <r_i_glide_hbond>
-0.466876018824659

> <r_i_glide_metal>
0

> <r_i_glide_rewards>
-1.44680303729791

> <r_i_glide_evdw>
-33.6196098327637

> <r_i_glide_ecoul>
-8.00550270080566

> <r_i_glide_erotb>
0.303225817750531

> <r_i_glide_esite>
0

> <r_i_glide_emodel>
-52.9244650751862

> <r_i_glide_energy>
-41.6251125335693

> <r_i_glide_einternal>
2.0185854434967

> <i_i_glide_confnum>
3

> <i_i_glide_posenum>
273

> <r_i_glide_eff_state_penalty>
0

> <s_user_duplicate_titles>
CHEMBL260_lig134,213120

> <s_m_subgroup_title>
dock_pv

> <s_m_subgroupid>
dock_pv

> <b_m_subgroup_collapsed>
1

$$$$
CHEMBL260_lig913
                    3D
 Schrodinger Suite 2021-1.
 31 33  0  0  1  0            999 V2000
   -1.3591   -2.6284   22.5991 N   0  0  0  0  0  0
   -1.1498   -1.5687   23.4156 C   0  0  0  0  0  0
   -1.4838   -0.2759   23.1724 N   0  0  0  0  0  0
   -1.9362   -2.3420   21.4070 C   0  0  0  0  0  0
   -2.3111   -1.0351   21.0154 C   0  0  0  0  0  0
   -2.0668   -0.0053   21.9674 C   0  0  0  0  0  0
   -2.4350    1.3212   21.6415 C   0  0  0  0  0  0
   -3.0098    1.6061   20.4006 C   0  0  0  0  0  0
   -3.2374    0.6048   19.4524 C   0  0  0  0  0  0
   -2.8924   -0.7127   19.7705 C   0  0  0  0  0  0
   -3.8625    0.9397   18.1368 C   0  0  0  0  0  0
   -3.0722    1.2871   17.0332 C   0  0  0  0  0  0
   -3.6065    1.6428   15.8035 C   0  0  0  0  0  0
   -4.9779    1.6442   15.6355 C   0  0  0  0  0  0
   -5.7841    1.2847   16.7048 C   0  0  0  0  0  0
   -5.2525    0.9319   17.9492 C   0  0  0  0  0  0
   -6.2012    0.5524   19.0714 C   0  0  0  0  0  0
   -0.5057   -1.8252   24.6149 N   0  0  0  0  0  0
   -2.1007   -3.1721   20.7333 H   0  0  0  0  0  0
   -2.2540    2.1082   22.3587 H   0  0  0  0  0  0
   -3.2771    2.6261   20.1670 H   0  0  0  0  0  0
   -3.0649   -1.5131   19.0760 H   0  0  0  0  0  0
   -2.0137    1.2869   17.0760 H   0  0  0  0  0  0
   -2.9521    1.9110   14.9877 H   0  0  0  0  0  0
   -5.4103    1.9189   14.6838 H   0  0  0  0  0  0
   -6.8350    1.2865   16.5527 H   0  0  0  0  0  0
   -6.1395    1.2842   19.8756 H   0  0  0  0  0  0
   -7.2345    0.4870   18.7317 H   0  0  0  0  0  0
   -5.9229   -0.4169   19.4759 H   0  0  0  0  0  0
   -0.0431   -2.7129   24.7337 H   0  0  0  0  0  0
   -0.2361   -1.0267   25.1693 H   0  0  0  0  0  0
  1  4  2  0  0  0
  1  2  1  0  0  0
  2  3  2  0  0  0
  2 18  1  0  0  0
  3  6  1  0  0  0
  4  5  1  0  0  0
  4 19  1  0  0  0
  5 10  2  0  0  0
  5  6  1  0  0  0
  6  7  2  0  0  0
  7  8  1  0  0  0
  7 20  1  0  0  0
  8  9  2  0  0  0
  8 21  1  0  0  0
  9 10  1  0  0  0
  9 11  1  0  0  0
 10 22  1  0  0  0
 11 12  2  0  0  0
 11 16  1  0  0  0
 12 13  1  0  0  0
 12 23  1  0  0  0
 13 14  2  0  0  0
 13 24  1  0  0  0
 14 15  1  0  0  0
 14 25  1  0  0  0
 15 16  2  0  0  0
 15 26  1  0  0  0
 16 17  1  0  0  0
 17 27  1  0  0  0
 17 28  1  0  0  0
 17 29  1  0  0  0
 18 30  1  0  0  0
 18 31  1  0  0  0
M  END
> <s_m_entry_id>
60968

> <s_m_entry_name>
dock_pv.245

> <s_m_Source_Path>
/home/csk/Desktop/cluster/DUD-E-result/mk14

> <s_m_Source_File>
dock_pv.maegz

> <i_m_Source_File_Index>
245

> <chembl_id>
CHEMBL215952

> <chembl_pref_name>
None

> <i_lp_mmshare_version>
53161

> <i_f3d_flags>
0

> <r_lp_tautomer_probability>
1

> <s_lp_Force_Field>
OPLS_2005

> <r_lp_Energy>
10.810174

> <b_lp_Chiralities_Consistent>
1

> <s_lp_Variant>
CHEMBL260_lig913-1

> <s_i_glide_gridfile>
glide-grid_2qd9

> <i_i_glide_lignum>
1015

> <i_i_glide_rotatable_bonds>
1

> <r_i_docking_score>
-7.65551297470533

> <r_i_glide_ligand_efficiency>
-0.425306276372518

> <r_i_glide_ligand_efficiency_sa>
-1.11461776263242

> <r_i_glide_ligand_efficiency_ln>
-1.9678101351541

> <r_i_glide_gscore>
-7.65551297470533

> <r_i_glide_lipo>
-3.66383841870583

> <r_i_glide_hbond>
0

> <r_i_glide_metal>
0

> <r_i_glide_rewards>
-2.30710525997757

> <r_i_glide_evdw>
-32.4653053283691

> <r_i_glide_ecoul>
-2.4791693687439

> <r_i_glide_erotb>
0.310571375708116

> <r_i_glide_esite>
0

> <r_i_glide_emodel>
-47.6027818067472

> <r_i_glide_energy>
-34.944474697113

> <r_i_glide_einternal>
2.17563581466675

> <i_i_glide_confnum>
3

> <i_i_glide_posenum>
68

> <r_i_glide_eff_state_penalty>
0

> <s_user_duplicate_titles>
CHEMBL260_lig913

> <s_m_subgroup_title>
dock_pv

> <s_m_subgroupid>
dock_pv

> <b_m_subgroup_collapsed>
1

$$$$
CHEMBL260_lig1537
                    3D
 Schrodinger Suite 2021-1.
 62 66  0  0  1  0            999 V2000
   -3.1239    1.8579   20.1231 C   0  0  0  0  0  0
   -2.5761    1.0754   21.1633 C   0  0  0  0  0  0
   -2.0349    2.0071   22.0438 N   0  0  0  0  0  0
   -2.1440    3.1987   21.3874 C   0  0  0  0  0  0
   -2.8205    3.1358   20.2760 N   0  0  0  0  0  0
   -1.2596    1.7425   23.2642 C   0  0  0  0  0  0
   -0.5682    2.8545   24.0561 C   0  0  0  0  0  0
   -0.7306    2.8827   25.4441 C   0  0  0  0  0  0
    0.0557    3.7216   26.2269 C   0  0  0  0  0  0
    1.0129    4.5531   25.6296 C   0  0  0  0  0  0
    1.1354    4.5654   24.2361 C   0  0  0  0  0  0
    0.3620    3.7101   23.4569 C   0  0  0  0  0  0
   -3.9229    1.4634   18.9222 C   0  0  0  0  0  0
   -5.2013    0.9155   19.0717 C   0  0  0  0  0  0
   -5.9838    0.6686   17.9430 C   0  0  0  0  0  0
   -5.4501    0.8849   16.6712 C   0  0  0  0  0  0
   -4.1660    1.3828   16.5132 C   0  0  0  0  0  0
   -3.4105    1.6870   17.6359 C   0  0  0  0  0  0
   -2.4137   -0.4193   21.2891 C   0  0  0  0  0  0
   -2.5650   -1.2531   20.1771 C   0  0  0  0  0  0
   -2.1628   -2.5799   20.3135 C   0  0  0  0  0  0
   -1.6469   -3.0778   21.4638 N   0  0  0  0  0  0
   -1.5201   -2.2045   22.4898 C   0  0  0  0  0  0
   -1.9163   -0.9092   22.4605 N   0  0  0  0  0  0
   -6.1458    0.5366   15.5699 F   0  0  0  0  0  0
   -0.8351   -2.7131   23.5962 N   0  0  0  0  0  0
   -0.2088   -1.9478   24.6768 C   0  0  2  0  0  0
   -1.1200   -1.5319   25.8358 C   0  0  0  0  0  0
   -0.5313   -0.9375   26.9593 C   0  0  0  0  0  0
   -1.2822   -0.6944   28.1036 C   0  0  0  0  0  0
   -2.6271   -1.0481   28.1262 C   0  0  0  0  0  0
   -3.2342   -1.6083   27.0051 C   0  0  0  0  0  0
   -2.4847   -1.8452   25.8586 C   0  0  0  0  0  0
    0.8400   -0.9015   24.2287 C   0  0  0  0  0  0
    1.9252    5.4150   26.4636 C   0  0  0  0  0  0
    2.3662    4.8880   27.6065 N   0  0  0  0  0  0
    2.2594    6.5405   26.1014 O   0  0  0  0  0  0
   -1.6249    4.0547   21.7737 H   0  0  0  0  0  0
   -0.4451    1.0964   22.9474 H   0  0  0  0  0  0
   -1.8991    1.1650   23.9331 H   0  0  0  0  0  0
   -1.4216    2.2088   25.9315 H   0  0  0  0  0  0
   -0.0659    3.6977   27.3010 H   0  0  0  0  0  0
    1.8734    5.1902   23.7523 H   0  0  0  0  0  0
    0.5407    3.6868   22.3928 H   0  0  0  0  0  0
   -5.6045    0.7307   20.0570 H   0  0  0  0  0  0
   -6.9771    0.2558   18.0470 H   0  0  0  0  0  0
   -3.7640    1.5408   15.5224 H   0  0  0  0  0  0
   -2.4351    2.1184   17.4764 H   0  0  0  0  0  0
   -2.9087   -0.8914   19.2223 H   0  0  0  0  0  0
   -2.2202   -3.2577   19.4764 H   0  0  0  0  0  0
   -0.5047   -3.6590   23.4942 H   0  0  0  0  0  0
    0.3653   -2.7373   25.1544 H   0  0  0  0  0  0
    0.5247   -0.7060   26.9690 H   0  0  0  0  0  0
   -0.8161   -0.2604   28.9764 H   0  0  0  0  0  0
   -3.2068   -0.8805   29.0220 H   0  0  0  0  0  0
   -4.2800   -1.8779   27.0314 H   0  0  0  0  0  0
   -2.9649   -2.3100   25.0109 H   0  0  0  0  0  0
    1.8267   -1.1455   24.6230 H   0  0  0  0  0  0
    0.9368   -0.8382   23.1452 H   0  0  0  0  0  0
    0.6074    0.0941   24.6034 H   0  0  0  0  0  0
    2.9712    5.4375   28.1956 H   0  0  0  0  0  0
    2.2782    3.8946   27.7767 H   0  0  0  0  0  0
  1 13  1  0  0  0
  1  5  1  0  0  0
  1  2  2  0  0  0
  2 19  1  0  0  0
  2  3  1  0  0  0
  3  6  1  0  0  0
  3  4  1  0  0  0
  4  5  2  0  0  0
  4 38  1  0  0  0
  6  7  1  0  0  0
  6 39  1  0  0  0
  6 40  1  0  0  0
  7 12  1  0  0  0
  7  8  2  0  0  0
  8  9  1  0  0  0
  8 41  1  0  0  0
  9 10  2  0  0  0
  9 42  1  0  0  0
 10 11  1  0  0  0
 10 35  1  0  0  0
 11 12  2  0  0  0
 11 43  1  0  0  0
 12 44  1  0  0  0
 13 18  1  0  0  0
 13 14  2  0  0  0
 14 15  1  0  0  0
 14 45  1  0  0  0
 15 16  2  0  0  0
 15 46  1  0  0  0
 16 25  1  0  0  0
 16 17  1  0  0  0
 17 18  2  0  0  0
 17 47  1  0  0  0
 18 48  1  0  0  0
 19 20  2  0  0  0
 19 24  1  0  0  0
 20 21  1  0  0  0
 20 49  1  0  0  0
 21 22  2  0  0  0
 21 50  1  0  0  0
 22 23  1  0  0  0
 23 24  2  0  0  0
 23 26  1  0  0  0
 26 27  1  0  0  0
 26 51  1  0  0  0
 27 28  1  0  0  0
 27 34  1  0  0  0
 27 52  1  0  0  0
 28 29  2  0  0  0
 28 33  1  0  0  0
 29 30  1  0  0  0
 29 53  1  0  0  0
 30 31  2  0  0  0
 30 54  1  0  0  0
 31 32  1  0  0  0
 31 55  1  0  0  0
 32 33  2  0  0  0
 32 56  1  0  0  0
 33 57  1  0  0  0
 34 58  1  0  0  0
 34 59  1  0  0  0
 34 60  1  0  0  0
 35 36  1  0  0  0
 35 37  2  0  0  0
 36 61  1  0  0  0
 36 62  1  0  0  0
M  END
> <s_m_entry_id>
60969

> <s_m_entry_name>
dock_pv.246

> <s_m_Source_Path>
/home/csk/Desktop/cluster/DUD-E-result/mk14

> <s_m_Source_File>
dock_pv.maegz

> <i_m_Source_File_Index>
246

> <chembl_id>
CHEMBL480945

> <chembl_pref_name>
None

> <i_lp_mmshare_version>
53161

> <i_f3d_flags>
0

> <r_lp_tautomer_probability>
0.999999987636

> <s_lp_Force_Field>
OPLS_2005

> <r_lp_Energy>
19.129692

> <b_lp_Chiralities_Consistent>
1

> <s_lp_Variant>
CHEMBL260_lig1537-1

> <s_i_glide_gridfile>
glide-grid_2qd9

> <i_i_glide_lignum>
1786

> <i_i_glide_rotatable_bonds>
8

> <r_i_docking_score>
-7.65494771069825

> <r_i_glide_ligand_efficiency>
-0.20689047866752

> <r_i_glide_ligand_efficiency_sa>
-0.689404973083607

> <r_i_glide_ligand_efficiency_ln>
-1.66017870101452

> <r_i_glide_gscore>
-7.65494771069825

> <r_i_glide_lipo>
-3.66459940878469

> <r_i_glide_hbond>
0

> <r_i_glide_metal>
0

> <r_i_glide_rewards>
-1.83983988264993

> <r_i_glide_evdw>
-43.6818962097168

> <r_i_glide_ecoul>
-3.16564536094666

> <r_i_glide_erotb>
0.587616470897943

> <r_i_glide_esite>
-0.079183275533736

> <r_i_glide_emodel>
-56.2911623116105

> <r_i_glide_energy>
-46.8475415706635

> <r_i_glide_einternal>
12.1325521469116

> <i_i_glide_confnum>
53

> <i_i_glide_posenum>
48

> <r_i_glide_eff_state_penalty>
0

> <s_user_duplicate_titles>
CHEMBL260_lig1537,468076

> <s_m_subgroup_title>
dock_pv

> <s_m_subgroupid>
dock_pv

> <b_m_subgroup_collapsed>
1

$$$$
CHEMBL260_lig625
                    3D
 Schrodinger Suite 2021-1.
 55 58  0  0  1  0            999 V2000
   -2.7733    1.1121   21.2037 C   0  0  0  0  0  0
   -3.0951    1.8526   20.1214 C   0  0  0  0  0  0
   -2.0355    1.9366   22.0544 N   0  0  0  0  0  0
   -2.5074    3.1766   20.2963 C   0  0  0  0  0  0
   -2.0354    3.2419   21.5237 O   0  0  0  0  0  0
   -2.7361   -0.3672   21.3144 C   0  0  0  0  0  0
   -2.6687   -0.8629   22.5783 N   0  0  0  0  0  0
   -2.3062   -2.1634   22.7202 C   0  0  0  0  0  0
   -2.0350   -2.6860   23.9908 N   0  0  0  0  0  0
   -3.8731    1.4673   18.9105 C   0  0  0  0  0  0
   -2.0743   -3.0233   21.6987 N   0  0  0  0  0  0
   -2.4346    4.0870   19.4802 O   0  0  0  0  0  0
   -2.0641    2.0532   23.4996 C   0  0  0  0  0  0
   -2.0277   -1.9224   25.2454 C   0  0  1  0  0  0
   -2.5587   -1.1968   20.2005 C   0  0  0  0  0  0
   -5.1627    0.9364   19.0374 C   0  0  0  0  0  0
   -3.3613    1.6850   17.6229 C   0  0  0  0  0  0
   -0.8673   -0.9081   25.3597 C   0  0  0  0  0  0
   -2.2228   -2.5265   20.4457 C   0  0  0  0  0  0
   -5.3841    0.8887   16.6344 C   0  0  0  0  0  0
   -5.9383    0.7027   17.9003 C   0  0  0  0  0  0
   -4.0975    1.3767   16.4898 C   0  0  0  0  0  0
   -6.0676    0.5437   15.5262 F   0  0  0  0  0  0
   -3.2374    2.6057   24.0052 O   0  0  0  0  0  0
   -3.4029   -1.2763   25.5592 C   0  0  0  0  0  0
    0.1229   -0.7682   24.3708 C   0  0  0  0  0  0
   -0.8013   -0.0910   26.4973 C   0  0  0  0  0  0
   -3.1925    2.8704   25.4041 C   0  0  0  0  0  0
   -3.2954    4.3782   25.6279 C   0  0  0  0  0  0
    0.1808    0.8901   26.6139 C   0  0  0  0  0  0
    1.1010    0.2160   24.4826 C   0  0  0  0  0  0
    1.1105    1.0548   25.5932 C   0  0  0  0  0  0
   -1.4150   -3.4774   23.9488 H   0  0  0  0  0  0
   -1.9091    1.0819   23.9616 H   0  0  0  0  0  0
   -1.2249    2.6851   23.8028 H   0  0  0  0  0  0
   -1.8322   -2.6848   26.0059 H   0  0  0  0  0  0
   -2.5858   -0.8225   19.1895 H   0  0  0  0  0  0
   -5.5898    0.7714   20.0165 H   0  0  0  0  0  0
   -2.4083    2.1502   17.4702 H   0  0  0  0  0  0
   -2.0392   -3.2145   19.6320 H   0  0  0  0  0  0
   -6.9425    0.3160   17.9937 H   0  0  0  0  0  0
   -3.6842    1.5368   15.5045 H   0  0  0  0  0  0
   -3.5302   -1.0720   26.6225 H   0  0  0  0  0  0
   -3.5377   -0.3323   25.0311 H   0  0  0  0  0  0
   -4.2323   -1.9124   25.2687 H   0  0  0  0  0  0
    0.1412   -1.3991   23.4949 H   0  0  0  0  0  0
   -1.5182   -0.1987   27.2974 H   0  0  0  0  0  0
   -4.0339    2.3707   25.8791 H   0  0  0  0  0  0
   -2.2981    2.4827   25.8961 H   0  0  0  0  0  0
   -3.2781    4.6123   26.6928 H   0  0  0  0  0  0
   -2.4675    4.9055   25.1515 H   0  0  0  0  0  0
   -4.2303    4.7636   25.2241 H   0  0  0  0  0  0
    0.2246    1.5244   27.4893 H   0  0  0  0  0  0
    1.8497    0.3298   23.7128 H   0  0  0  0  0  0
    1.8790    1.8105   25.6892 H   0  0  0  0  0  0
  1  2  2  0  0  0
  1  3  1  0  0  0
  1  6  1  0  0  0
  2  4  1  0  0  0
  2 10  1  0  0  0
  3  5  1  0  0  0
  3 13  1  0  0  0
  4 12  2  0  0  0
  4  5  1  0  0  0
  6  7  1  0  0  0
  6 15  2  0  0  0
  7  8  2  0  0  0
  8  9  1  0  0  0
  8 11  1  0  0  0
  9 14  1  0  0  0
  9 33  1  0  0  0
 10 16  2  0  0  0
 10 17  1  0  0  0
 11 19  2  0  0  0
 13 24  1  0  0  0
 13 34  1  0  0  0
 13 35  1  0  0  0
 14 18  1  0  0  0
 14 25  1  0  0  0
 14 36  1  0  0  0
 15 19  1  0  0  0
 15 37  1  0  0  0
 16 21  1  0  0  0
 16 38  1  0  0  0
 17 22  2  0  0  0
 17 39  1  0  0  0
 18 26  2  0  0  0
 18 27  1  0  0  0
 19 40  1  0  0  0
 20 22  1  0  0  0
 20 23  1  0  0  0
 20 21  2  0  0  0
 21 41  1  0  0  0
 22 42  1  0  0  0
 24 28  1  0  0  0
 25 43  1  0  0  0
 25 44  1  0  0  0
 25 45  1  0  0  0
 26 31  1  0  0  0
 26 46  1  0  0  0
 27 30  2  0  0  0
 27 47  1  0  0  0
 28 29  1  0  0  0
 28 48  1  0  0  0
 28 49  1  0  0  0
 29 50  1  0  0  0
 29 51  1  0  0  0
 29 52  1  0  0  0
 30 32  1  0  0  0
 30 53  1  0  0  0
 31 32  2  0  0  0
 31 54  1  0  0  0
 32 55  1  0  0  0
M  END
> <s_m_entry_id>
60970

> <s_m_entry_name>
dock_pv.247

> <s_m_Source_Path>
/home/csk/Desktop/cluster/DUD-E-result/mk14

> <s_m_Source_File>
dock_pv.maegz

> <i_m_Source_File_Index>
247

> <chembl_id>
CHEMBL366003

> <chembl_pref_name>
None

> <i_lp_mmshare_version>
53161

> <i_f3d_flags>
0

> <r_lp_tautomer_probability>
0.999999987636

> <s_lp_Force_Field>
OPLS_2005

> <r_lp_Energy>
10.332828

> <b_lp_Chiralities_Consistent>
1

> <s_lp_Variant>
CHEMBL260_lig625-1

> <s_i_glide_gridfile>
glide-grid_2qd9

> <i_i_glide_lignum>
711

> <i_i_glide_rotatable_bonds>
8

> <r_i_docking_score>
-7.6516265947153

> <r_i_glide_ligand_efficiency>
-0.239113331084853

> <r_i_glide_ligand_efficiency_sa>
-0.759137505730443

> <r_i_glide_ligand_efficiency_ln>
-1.71340777002022

> <r_i_glide_gscore>
-7.6516265947153

> <r_i_glide_lipo>
-3.46366235995688

> <r_i_glide_hbond>
-0.103528374734111

> <r_i_glide_metal>
0

> <r_i_glide_rewards>
-2.24038827749361

> <r_i_glide_evdw>
-40.8283081054688

> <r_i_glide_ecoul>
-3.60804104804993

> <r_i_glide_erotb>
0.738573979950234

> <r_i_glide_esite>
0

> <r_i_glide_emodel>
-58.3998388525184

> <r_i_glide_energy>
-44.4363491535187

> <r_i_glide_einternal>
11.309136390686

> <i_i_glide_confnum>
125

> <i_i_glide_posenum>
337

> <r_i_glide_eff_state_penalty>
0

> <s_user_duplicate_titles>
CHEMBL260_lig625

> <s_m_subgroup_title>
dock_pv

> <s_m_subgroupid>
dock_pv

> <b_m_subgroup_collapsed>
1

$$$$
CHEMBL260_lig729
                    3D
 Schrodinger Suite 2021-1.
 43 46  0  0  1  0            999 V2000
   -0.1631   -0.9336   26.4263 C   0  0  0  0  0  0
    0.2209    0.4053   26.4277 C   0  0  0  0  0  0
    0.0810    1.1897   25.2777 C   0  0  0  0  0  0
   -0.4308    0.5865   24.1215 C   0  0  0  0  0  0
   -0.8842   -0.7428   24.1149 C   0  0  0  0  0  0
   -0.7104   -1.5041   25.2775 C   0  0  0  0  0  0
   -1.5223   -1.3621   22.9010 C   0  0  0  0  0  0
   -2.2477   -0.5064   21.9428 C   0  0  0  0  0  0
   -1.5453   -2.5876   22.7506 O   0  0  0  0  0  0
   -2.7660    0.7858   22.1406 C   0  0  0  0  0  0
   -3.3477    1.2837   21.0809 N   0  0  0  0  0  0
   -3.3185    0.3039   20.1759 N   0  0  0  0  0  0
   -2.6288   -0.8054   20.6354 C   0  0  0  0  0  0
   -2.4348   -1.9248   19.8760 N   0  0  0  0  0  0
   -3.9253    0.5498   18.9292 C   0  0  0  0  0  0
   -5.3131    0.6580   18.8081 C   0  0  0  0  0  0
   -5.8854    0.8874   17.5595 C   0  0  0  0  0  0
   -5.0811    1.0545   16.4338 C   0  0  0  0  0  0
   -3.6996    0.9648   16.5508 C   0  0  0  0  0  0
   -3.1322    0.6913   17.7940 C   0  0  0  0  0  0
   -5.6347    1.2735   15.2254 F   0  0  0  0  0  0
   -6.1146    0.4880   19.8758 F   0  0  0  0  0  0
    0.4309    2.6382   25.2845 C   0  0  0  0  0  0
   -0.3814    3.5749   24.6297 C   0  0  0  0  0  0
   -0.0654    4.8864   24.6479 N   0  3  0  0  0  0
    1.0260    5.3626   25.2786 C   0  0  0  0  0  0
    1.8737    4.4806   25.9509 C   0  0  0  0  0  0
    1.5650    3.1177   25.9513 C   0  0  0  0  0  0
   -0.8345    5.6989   24.0619 O   0  5  0  0  0  0
   -0.0467   -1.5241   27.3224 H   0  0  0  0  0  0
    0.6183    0.8367   27.3361 H   0  0  0  0  0  0
   -0.4757    1.1838   23.2231 H   0  0  0  0  0  0
   -1.0155   -2.5409   25.3124 H   0  0  0  0  0  0
   -2.7219    1.3629   23.0527 H   0  0  0  0  0  0
   -1.9965   -2.7470   20.2700 H   0  0  0  0  0  0
   -2.8270   -2.0219   18.9503 H   0  0  0  0  0  0
   -6.9548    0.9497   17.4768 H   0  0  0  0  0  0
   -3.0775    1.0564   15.6728 H   0  0  0  0  0  0
   -2.0746    0.4946   17.8613 H   0  0  0  0  0  0
   -1.2871    3.3216   24.0981 H   0  0  0  0  0  0
    1.1826    6.4307   25.2172 H   0  0  0  0  0  0
    2.7643    4.8320   26.4550 H   0  0  0  0  0  0
    2.2327    2.4355   26.4588 H   0  0  0  0  0  0
  1  6  2  0  0  0
  1  2  1  0  0  0
  1 30  1  0  0  0
  2  3  2  0  0  0
  2 31  1  0  0  0
  3  4  1  0  0  0
  3 23  1  0  0  0
  4  5  2  0  0  0
  4 32  1  0  0  0
  5  7  1  0  0  0
  5  6  1  0  0  0
  6 33  1  0  0  0
  7  8  1  0  0  0
  7  9  2  0  0  0
  8 10  1  0  0  0
  8 13  2  0  0  0
 10 11  2  0  0  0
 10 34  1  0  0  0
 11 12  1  0  0  0
 12 15  1  0  0  0
 12 13  1  0  0  0
 13 14  1  0  0  0
 14 35  1  0  0  0
 14 36  1  0  0  0
 15 16  2  0  0  0
 15 20  1  0  0  0
 16 17  1  0  0  0
 16 22  1  0  0  0
 17 18  2  0  0  0
 17 37  1  0  0  0
 18 19  1  0  0  0
 18 21  1  0  0  0
 19 20  2  0  0  0
 19 38  1  0  0  0
 20 39  1  0  0  0
 23 24  2  0  0  0
 23 28  1  0  0  0
 24 25  1  0  0  0
 24 40  1  0  0  0
 25 26  2  0  0  0
 25 29  1  0  0  0
 26 27  1  0  0  0
 26 41  1  0  0  0
 27 28  2  0  0  0
 27 42  1  0  0  0
 28 43  1  0  0  0
M  CHG  2  25   1  29  -1
M  END
> <s_m_entry_id>
60971

> <s_m_entry_name>
dock_pv.248

> <s_m_Source_Path>
/home/csk/Desktop/cluster/DUD-E-result/mk14

> <s_m_Source_File>
dock_pv.maegz

> <i_m_Source_File_Index>
248

> <chembl_id>
CHEMBL380755

> <chembl_pref_name>
None

> <i_lp_mmshare_version>
53161

> <i_f3d_flags>
0

> <r_lp_tautomer_probability>
1

> <s_lp_Force_Field>
OPLS_2005

> <r_lp_Energy>
33.358477

> <b_lp_Chiralities_Consistent>
1

> <s_lp_Variant>
CHEMBL260_lig729-1

> <s_i_glide_gridfile>
glide-grid_2qd9

> <i_i_glide_lignum>
820

> <i_i_glide_rotatable_bonds>
4

> <r_i_docking_score>
-7.64905464237037

> <r_i_glide_ligand_efficiency>
-0.263760504909323

> <r_i_glide_ligand_efficiency_sa>
-0.810355836274739

> <r_i_glide_ligand_efficiency_ln>
-1.75143954981269

> <r_i_glide_gscore>
-7.64905464237037

> <r_i_glide_lipo>
-2.69106213829857

> <r_i_glide_hbond>
0

> <r_i_glide_metal>
0

> <r_i_glide_rewards>
-2.2277778693876

> <r_i_glide_evdw>
-32.5648574829102

> <r_i_glide_ecoul>
-10.5487756729126

> <r_i_glide_erotb>
0.507296698179708

> <r_i_glide_esite>
-0.026952107781505

> <r_i_glide_emodel>
-60.2493495742593

> <r_i_glide_energy>
-43.1136331558228

> <r_i_glide_einternal>
2.58476710319519

> <i_i_glide_confnum>
47

> <i_i_glide_posenum>
390

> <r_i_glide_eff_state_penalty>
0

> <s_user_duplicate_titles>
CHEMBL260_lig729,340810

> <s_m_subgroup_title>
dock_pv

> <s_m_subgroupid>
dock_pv

> <b_m_subgroup_collapsed>
1

$$$$
CHEMBL260_lig1665
                    3D
 Schrodinger Suite 2021-1.
 47 50  0  0  1  0            999 V2000
   -2.7797   -0.9764   20.9914 N   0  0  0  0  0  0
   -2.3001   -1.6337   22.1015 C   0  0  0  0  0  0
   -1.7350   -0.7630   23.1204 C   0  0  0  0  0  0
   -1.7189    0.5929   23.0791 C   0  0  0  0  0  0
   -2.7892    0.4250   20.8898 C   0  0  0  0  0  0
   -2.2740    1.2361   21.8937 C   0  0  0  0  0  0
   -2.4350    2.5376   21.4300 C   0  0  0  0  0  0
   -2.9779    2.5794   20.2384 N   0  0  0  0  0  0
   -3.2298    1.3005   19.8983 N   0  0  0  0  0  0
   -3.2348   -1.7886   19.8760 C   0  0  0  0  0  0
   -2.3159   -2.8562   22.2767 O   0  0  0  0  0  0
   -1.1360    1.4198   24.0178 N   0  0  0  0  0  0
   -3.9267    1.1085   18.6842 C   0  0  0  0  0  0
   -3.2950    1.2832   17.4430 C   0  0  0  0  0  0
   -4.0241    1.2338   16.2578 C   0  0  0  0  0  0
   -5.4011    1.0462   16.2948 C   0  0  0  0  0  0
   -6.0350    0.8865   17.5241 C   0  0  0  0  0  0
   -5.3047    0.8870   18.7098 C   0  0  0  0  0  0
   -0.7231    1.1384   25.3334 C   0  0  0  0  0  0
   -5.9541    0.7099   19.8757 F   0  0  0  0  0  0
   -1.4141    0.2155   26.1314 C   0  0  0  0  0  0
   -1.0083   -0.0707   27.4434 C   0  0  0  0  0  0
    0.0954    0.6225   27.9630 C   0  0  0  0  0  0
    0.7648    1.5674   27.1925 C   0  0  0  0  0  0
    0.3721    1.8298   25.8789 C   0  0  0  0  0  0
   -1.7591   -1.1028   28.2551 C   0  0  0  0  0  0
   -2.8352   -1.5626   27.8784 O   0  0  0  0  0  0
   -1.2009   -1.5129   29.3940 N   0  0  0  0  0  0
    1.1646    2.8517   25.0702 C   0  0  0  0  0  0
   -3.3882    1.3615   15.0761 F   0  0  0  0  0  0
   -1.2699   -1.2720   23.9501 H   0  0  0  0  0  0
   -2.1266    3.4308   21.9501 H   0  0  0  0  0  0
   -2.4870   -1.7874   19.0820 H   0  0  0  0  0  0
   -3.4361   -2.8234   20.1518 H   0  0  0  0  0  0
   -4.1609   -1.3854   19.4761 H   0  0  0  0  0  0
   -0.8109    2.3197   23.7018 H   0  0  0  0  0  0
   -2.2416    1.4491   17.3500 H   0  0  0  0  0  0
   -5.9701    1.0105   15.3780 H   0  0  0  0  0  0
   -7.0974    0.7177   17.5736 H   0  0  0  0  0  0
   -2.2822   -0.2843   25.7257 H   0  0  0  0  0  0
    0.4521    0.4524   28.9688 H   0  0  0  0  0  0
    1.6016    2.0928   27.6267 H   0  0  0  0  0  0
   -1.6455   -2.2574   29.9097 H   0  0  0  0  0  0
   -0.2799   -1.2017   29.6593 H   0  0  0  0  0  0
    2.0379    3.2190   25.6115 H   0  0  0  0  0  0
    1.5234    2.4043   24.1423 H   0  0  0  0  0  0
    0.5376    3.7036   24.8075 H   0  0  0  0  0  0
  1  2  1  0  0  0
  1 10  1  0  0  0
  1  5  1  0  0  0
  2  3  1  0  0  0
  2 11  2  0  0  0
  3  4  2  0  0  0
  3 31  1  0  0  0
  4 12  1  0  0  0
  4  6  1  0  0  0
  5  9  1  0  0  0
  5  6  2  0  0  0
  6  7  1  0  0  0
  7  8  2  0  0  0
  7 32  1  0  0  0
  8  9  1  0  0  0
  9 13  1  0  0  0
 10 33  1  0  0  0
 10 34  1  0  0  0
 10 35  1  0  0  0
 12 19  1  0  0  0
 12 36  1  0  0  0
 13 18  1  0  0  0
 13 14  2  0  0  0
 14 15  1  0  0  0
 14 37  1  0  0  0
 15 16  2  0  0  0
 15 30  1  0  0  0
 16 17  1  0  0  0
 16 38  1  0  0  0
 17 18  2  0  0  0
 17 39  1  0  0  0
 18 20  1  0  0  0
 19 21  2  0  0  0
 19 25  1  0  0  0
 21 22  1  0  0  0
 21 40  1  0  0  0
 22 23  2  0  0  0
 22 26  1  0  0  0
 23 24  1  0  0  0
 23 41  1  0  0  0
 24 25  2  0  0  0
 24 42  1  0  0  0
 25 29  1  0  0  0
 26 27  2  0  0  0
 26 28  1  0  0  0
 28 43  1  0  0  0
 28 44  1  0  0  0
 29 45  1  0  0  0
 29 46  1  0  0  0
 29 47  1  0  0  0
M  END
> <s_m_entry_id>
60972

> <s_m_entry_name>
dock_pv.249

> <s_m_Source_Path>
/home/csk/Desktop/cluster/DUD-E-result/mk14

> <s_m_Source_File>
dock_pv.maegz

> <i_m_Source_File_Index>
249

> <chembl_id>
CHEMBL550798

> <chembl_pref_name>
None

> <i_lp_mmshare_version>
53161

> <i_f3d_flags>
0

> <r_lp_tautomer_probability>
1

> <s_lp_Force_Field>
OPLS_2005

> <r_lp_Energy>
44.20564

> <b_lp_Chiralities_Consistent>
1

> <s_lp_Variant>
CHEMBL260_lig1665-1

> <s_i_glide_gridfile>
glide-grid_2qd9

> <i_i_glide_lignum>
1917

> <i_i_glide_rotatable_bonds>
4

> <r_i_docking_score>
-7.60912169861378

> <r_i_glide_ligand_efficiency>
-0.253637389953793

> <r_i_glide_ligand_efficiency_sa>
-0.788110341896213

> <r_i_glide_ligand_efficiency_ln>
-1.72887535794637

> <r_i_glide_gscore>
-7.60912169861378

> <r_i_glide_lipo>
-2.4645246846551

> <r_i_glide_hbond>
-0.114704069379231

> <r_i_glide_metal>
0

> <r_i_glide_rewards>
-2.38895351079496

> <r_i_glide_evdw>
-39.4609603881836

> <r_i_glide_ecoul>
-6.80230045318604

> <r_i_glide_erotb>
0.352453653602594

> <r_i_glide_esite>
0

> <r_i_glide_emodel>
-61.8856003013421

> <r_i_glide_energy>
-46.2632608413696

> <r_i_glide_einternal>
2.58121204376221

> <i_i_glide_confnum>
19

> <i_i_glide_posenum>
30

> <r_i_glide_eff_state_penalty>
0

> <s_user_duplicate_titles>
CHEMBL260_lig1665,560622

> <s_m_subgroup_title>
dock_pv

> <s_m_subgroupid>
dock_pv

> <b_m_subgroup_collapsed>
1

$$$$
CHEMBL260_lig942
                    3D
 Schrodinger Suite 2021-1.
 38 41  0  0  1  0            999 V2000
   -2.0352   -1.5129   27.5832 C   0  0  0  0  0  0
   -1.1986   -0.4415   27.8827 C   0  0  0  0  0  0
   -0.6110    0.2893   26.8524 C   0  0  0  0  0  0
   -2.2608   -1.8736   26.2557 C   0  0  0  0  0  0
   -1.6646   -1.1448   25.2157 C   0  0  0  0  0  0
   -0.8440   -0.0436   25.5129 C   0  0  0  0  0  0
   -0.2704    0.7799   24.3769 C   0  0  0  0  0  0
   -1.9172   -1.6308   23.8179 C   0  0  0  0  0  0
   -1.3197    1.4152   23.6627 O   0  0  0  0  0  0
   -2.0349   -2.8530   23.6469 O   0  0  0  0  0  0
   -2.2319   -0.6863   22.6814 C   0  0  0  0  0  0
   -2.0028    0.7110   22.6941 C   0  0  0  0  0  0
   -2.4351    1.4787   21.6140 C   0  0  0  0  0  0
   -3.0520    0.9064   20.5090 C   0  0  0  0  0  0
   -3.2366   -0.4765   20.4756 C   0  0  0  0  0  0
   -2.8367   -1.2665   21.5505 C   0  0  0  0  0  0
   -3.3924    1.7523   19.4444 N   0  0  0  0  0  0
   -3.9806    1.3923   18.2244 C   0  0  0  0  0  0
   -5.2908    0.8870   18.1340 C   0  0  0  0  0  0
   -5.8358    0.5851   16.8906 C   0  0  0  0  0  0
   -5.0633    0.7222   15.7468 C   0  0  0  0  0  0
   -3.7932    1.2874   15.8122 C   0  0  0  0  0  0
   -3.2627    1.6463   17.0485 C   0  0  0  0  0  0
   -6.2845    0.6103   19.5159 Cl  0  0  0  0  0  0
   -5.6567    0.0869   14.2760 Cl  0  0  0  0  0  0
   -2.4897   -2.0805   28.3823 H   0  0  0  0  0  0
   -1.0082   -0.1746   28.9120 H   0  0  0  0  0  0
    0.0259    1.1264   27.1003 H   0  0  0  0  0  0
   -2.9098   -2.7127   26.0493 H   0  0  0  0  0  0
    0.3809    1.5587   24.7761 H   0  0  0  0  0  0
    0.3580    0.1692   23.7248 H   0  0  0  0  0  0
   -2.2501    2.5423   21.6332 H   0  0  0  0  0  0
   -3.6915   -0.9509   19.6188 H   0  0  0  0  0  0
   -3.0247   -2.3302   21.4813 H   0  0  0  0  0  0
   -2.6999    2.4794   19.3504 H   0  0  0  0  0  0
   -6.8269    0.1544   16.8303 H   0  0  0  0  0  0
   -3.2087    1.4144   14.9127 H   0  0  0  0  0  0
   -2.2742    2.0779   17.0754 H   0  0  0  0  0  0
  1  2  2  0  0  0
  1  4  1  0  0  0
  1 26  1  0  0  0
  2  3  1  0  0  0
  2 27  1  0  0  0
  3  6  2  0  0  0
  3 28  1  0  0  0
  4  5  2  0  0  0
  4 29  1  0  0  0
  5  6  1  0  0  0
  5  8  1  0  0  0
  6  7  1  0  0  0
  7  9  1  0  0  0
  7 30  1  0  0  0
  7 31  1  0  0  0
  8 11  1  0  0  0
  8 10  2  0  0  0
  9 12  1  0  0  0
 11 12  2  0  0  0
 11 16  1  0  0  0
 12 13  1  0  0  0
 13 14  2  0  0  0
 13 32  1  0  0  0
 14 15  1  0  0  0
 14 17  1  0  0  0
 15 16  2  0  0  0
 15 33  1  0  0  0
 16 34  1  0  0  0
 17 18  1  0  0  0
 17 35  1  0  0  0
 18 19  2  0  0  0
 18 23  1  0  0  0
 19 20  1  0  0  0
 19 24  1  0  0  0
 20 21  2  0  0  0
 20 36  1  0  0  0
 21 22  1  0  0  0
 21 25  1  0  0  0
 22 23  2  0  0  0
 22 37  1  0  0  0
 23 38  1  0  0  0
M  END
> <s_m_entry_id>
60973

> <s_m_entry_name>
dock_pv.250

> <s_m_Source_Path>
/home/csk/Desktop/cluster/DUD-E-result/mk14

> <s_m_Source_File>
dock_pv.maegz

> <i_m_Source_File_Index>
250

> <chembl_id>
CHEMBL375350

> <chembl_pref_name>
None

> <i_lp_mmshare_version>
53161

> <i_f3d_flags>
0

> <r_lp_tautomer_probability>
1

> <s_lp_Force_Field>
OPLS_2005

> <r_lp_Energy>
38.021264

> <b_lp_Chiralities_Consistent>
1

> <s_lp_Variant>
CHEMBL260_lig942-1

> <s_i_glide_gridfile>
glide-grid_2qd9

> <i_i_glide_lignum>
1045

> <i_i_glide_rotatable_bonds>
2

> <r_i_docking_score>
-7.60590888341859

> <r_i_glide_ligand_efficiency>
-0.304236355336744

> <r_i_glide_ligand_efficiency_sa>
-0.889592498659375

> <r_i_glide_ligand_efficiency_ln>
-1.80282833606656

> <r_i_glide_gscore>
-7.60590888341859

> <r_i_glide_lipo>
-3.81666693461764

> <r_i_glide_hbond>
-0.212353841784955

> <r_i_glide_metal>
0

> <r_i_glide_rewards>
-1.25029413689386

> <r_i_glide_evdw>
-39.3699989318848

> <r_i_glide_ecoul>
-4.26369953155518

> <r_i_glide_erotb>
0.281460906205376

> <r_i_glide_esite>
0

> <r_i_glide_emodel>
-57.8251126443305

> <r_i_glide_energy>
-43.6336984634399

> <r_i_glide_einternal>
7.36412286758423

> <i_i_glide_confnum>
32

> <i_i_glide_posenum>
227

> <r_i_glide_eff_state_penalty>
0

> <s_user_duplicate_titles>
CHEMBL260_lig942

> <s_m_subgroup_title>
dock_pv

> <s_m_subgroupid>
dock_pv

> <b_m_subgroup_collapsed>
1

$$$$
CHEMBL260_lig807
                    3D
 Schrodinger Suite 2021-1.
 42 45  0  0  1  0            999 V2000
   -1.6880   -3.1995   23.4263 N   0  0  0  0  0  0
   -0.9198   -2.6558   24.4379 N   0  0  0  0  0  0
   -0.8822   -1.3482   24.3006 C   0  0  0  0  0  0
   -2.0843   -2.1818   22.6406 C   0  0  0  0  0  0
   -1.6071   -0.9778   23.1806 N   0  0  0  0  0  0
   -1.8753    0.2232   22.5837 C   0  0  0  0  0  0
   -2.6038    0.2602   21.3908 C   0  0  0  0  0  0
   -3.0810   -0.9304   20.8402 C   0  0  0  0  0  0
   -2.8350   -2.1597   21.4550 C   0  0  0  0  0  0
   -2.7312    1.5562   20.6753 C   0  0  0  0  0  0
   -2.0440    2.5982   21.2174 O   0  0  0  0  0  0
   -2.0926    3.5592   20.2760 C   0  0  0  0  0  0
   -2.8350    3.2471   19.2579 N   0  0  0  0  0  0
   -3.2602    2.0101   19.4575 C   0  0  0  0  0  0
   -0.1234   -0.4149   25.2380 C   0  0  0  0  0  0
   -1.0582    0.5694   25.9649 C   0  0  0  0  0  0
    1.0418    0.2993   24.5277 C   0  0  0  0  0  0
   -4.0905    1.3553   18.3812 C   0  0  0  0  0  0
   -5.3833    0.8870   18.6392 C   0  0  0  0  0  0
   -6.2355    0.4921   17.6188 C   0  0  0  0  0  0
   -5.7855    0.4870   16.3055 C   0  0  0  0  0  0
   -4.4584    0.8000   16.0369 C   0  0  0  0  0  0
   -3.6274    1.2870   17.0571 C   0  0  0  0  0  0
   -3.9055    0.4543   14.6784 C   0  0  0  0  0  0
   -5.8743    0.8871   19.8760 F   0  0  0  0  0  0
   -1.4493    1.0988   23.0459 H   0  0  0  0  0  0
   -3.6257   -0.9163   19.9072 H   0  0  0  0  0  0
   -3.1997   -3.0766   21.0143 H   0  0  0  0  0  0
   -1.4558    4.4200   20.4162 H   0  0  0  0  0  0
    0.3362   -1.0233   26.0211 H   0  0  0  0  0  0
   -1.8271    0.0374   26.5266 H   0  0  0  0  0  0
   -1.5606    1.2513   25.2806 H   0  0  0  0  0  0
   -0.5020    1.1803   26.6770 H   0  0  0  0  0  0
    1.7719   -0.4192   24.1520 H   0  0  0  0  0  0
    0.7119    0.9054   23.6851 H   0  0  0  0  0  0
    1.5653    0.9654   25.2144 H   0  0  0  0  0  0
   -7.2349    0.1628   17.8633 H   0  0  0  0  0  0
   -6.4350    0.1179   15.5254 H   0  0  0  0  0  0
   -2.6111    1.5755   16.8282 H   0  0  0  0  0  0
   -3.3358    1.2869   14.2766 H   0  0  0  0  0  0
   -3.2350   -0.3813   14.8139 H   0  0  0  0  0  0
   -4.6615    0.0871   13.9788 H   0  0  0  0  0  0
  1  2  1  0  0  0
  1  4  2  0  0  0
  2  3  2  0  0  0
  3 15  1  0  0  0
  3  5  1  0  0  0
  4  9  1  0  0  0
  4  5  1  0  0  0
  5  6  1  0  0  0
  6  7  2  0  0  0
  6 26  1  0  0  0
  7 10  1  0  0  0
  7  8  1  0  0  0
  8  9  2  0  0  0
  8 27  1  0  0  0
  9 28  1  0  0  0
 10 11  1  0  0  0
 10 14  2  0  0  0
 11 12  1  0  0  0
 12 13  2  0  0  0
 12 29  1  0  0  0
 13 14  1  0  0  0
 14 18  1  0  0  0
 15 16  1  0  0  0
 15 17  1  0  0  0
 15 30  1  0  0  0
 16 31  1  0  0  0
 16 32  1  0  0  0
 16 33  1  0  0  0
 17 34  1  0  0  0
 17 35  1  0  0  0
 17 36  1  0  0  0
 18 19  2  0  0  0
 18 23  1  0  0  0
 19 20  1  0  0  0
 19 25  1  0  0  0
 20 21  2  0  0  0
 20 37  1  0  0  0
 21 22  1  0  0  0
 21 38  1  0  0  0
 22 23  2  0  0  0
 22 24  1  0  0  0
 23 39  1  0  0  0
 24 40  1  0  0  0
 24 41  1  0  0  0
 24 42  1  0  0  0
M  END
> <s_m_entry_id>
60974

> <s_m_entry_name>
dock_pv.251

> <s_m_Source_Path>
/home/csk/Desktop/cluster/DUD-E-result/mk14

> <s_m_Source_File>
dock_pv.maegz

> <i_m_Source_File_Index>
251

> <chembl_id>
CHEMBL213258

> <chembl_pref_name>
None

> <i_lp_mmshare_version>
53161

> <i_f3d_flags>
0

> <r_lp_tautomer_probability>
1

> <s_lp_Force_Field>
OPLS_2005

> <r_lp_Energy>
14.328641

> <b_lp_Chiralities_Consistent>
1

> <s_lp_Variant>
CHEMBL260_lig807-1

> <s_i_glide_gridfile>
glide-grid_2qd9

> <i_i_glide_lignum>
905

> <i_i_glide_rotatable_bonds>
3

> <r_i_docking_score>
-7.60484185721926

> <r_i_glide_ligand_efficiency>
-0.304193674288771

> <r_i_glide_ligand_efficiency_sa>
-0.88946769851815

> <r_i_glide_ligand_efficiency_ln>
-1.80257541888113

> <r_i_glide_gscore>
-7.60484185721926

> <r_i_glide_lipo>
-3.54279719513875

> <r_i_glide_hbond>
0

> <r_i_glide_metal>
0

> <r_i_glide_rewards>
-2.3318047024566

> <r_i_glide_evdw>
-21.9795894622803

> <r_i_glide_ecoul>
-6.10180997848511

> <r_i_glide_erotb>
0.333841414166631

> <r_i_glide_esite>
-0.0498304039037734

> <r_i_glide_emodel>
-33.0329064918286

> <r_i_glide_energy>
-28.0813994407654

> <r_i_glide_einternal>
4.11611604690552

> <i_i_glide_confnum>
14

> <i_i_glide_posenum>
84

> <r_i_glide_eff_state_penalty>
0

> <s_user_duplicate_titles>
CHEMBL260_lig807,355996

> <s_m_subgroup_title>
dock_pv

> <s_m_subgroupid>
dock_pv

> <b_m_subgroup_collapsed>
1

$$$$
CHEMBL260_lig1775
                    3D
 Schrodinger Suite 2021-1.
 43 45  0  0  1  0            999 V2000
   -2.0525   -2.6043   20.7317 C   0  0  0  0  0  0
   -1.9222   -2.9417   22.0442 N   0  0  0  0  0  0
   -2.2548   -2.0119   22.9770 C   0  0  0  0  0  0
   -2.7651   -0.7622   22.6098 C   0  0  0  0  0  0
   -2.7450   -0.3665   21.2733 C   0  0  0  0  0  0
   -2.4334   -1.3265   20.3050 C   0  0  0  0  0  0
   -2.8216    1.0967   20.9734 C   0  0  0  0  0  0
   -2.3714    2.1229   21.8141 C   0  0  0  0  0  0
   -2.4349    3.2870   21.1410 O   0  0  0  0  0  0
   -2.9432    3.0655   19.8775 N   0  0  0  0  0  0
   -3.2452    1.7915   19.8182 C   0  0  0  0  0  0
   -3.9500    1.3521   18.5841 C   0  0  0  0  0  0
   -5.2623    0.8871   18.6751 C   0  0  0  0  0  0
   -4.0816    1.2828   16.1682 C   0  0  0  0  0  0
   -3.3699    1.5591   17.3255 C   0  0  0  0  0  0
   -5.3855    0.8209   16.2664 C   0  0  0  0  0  0
   -5.9946    0.6556   17.5114 C   0  0  0  0  0  0
   -1.8008    2.2390   23.2315 C   0  0  0  0  0  0
   -2.9155    2.5782   24.2431 C   0  0  0  0  0  0
   -0.6543    3.2674   23.3432 C   0  0  0  0  0  0
   -1.8559   -2.2782   24.3002 N   0  0  0  0  0  0
   -6.0350    0.4830   15.1358 F   0  0  0  0  0  0
   -2.2530   -1.6436   25.4262 C   0  0  0  0  0  0
   -1.3610   -1.7930   26.6482 C   0  0  0  0  0  0
   -3.2587   -0.9454   25.5236 O   0  0  0  0  0  0
   -1.7902   -3.3679   20.0128 H   0  0  0  0  0  0
   -3.0230   -0.0408   23.3589 H   0  0  0  0  0  0
   -2.4152   -1.0740   19.2546 H   0  0  0  0  0  0
   -5.7303    0.7447   19.6389 H   0  0  0  0  0  0
   -3.6280    1.4248   15.1978 H   0  0  0  0  0  0
   -2.3840    1.9726   17.2214 H   0  0  0  0  0  0
   -7.0020    0.2766   17.5789 H   0  0  0  0  0  0
   -1.3542    1.2899   23.5252 H   0  0  0  0  0  0
   -3.7272    1.8507   24.2249 H   0  0  0  0  0  0
   -2.5294    2.6001   25.2631 H   0  0  0  0  0  0
   -3.3542    3.5549   24.0394 H   0  0  0  0  0  0
    0.1843    3.0137   22.6965 H   0  0  0  0  0  0
   -0.9799    4.2739   23.0810 H   0  0  0  0  0  0
   -0.2643    3.3109   24.3610 H   0  0  0  0  0  0
   -1.0681   -2.9005   24.3797 H   0  0  0  0  0  0
   -1.0898   -0.8056   27.0225 H   0  0  0  0  0  0
   -0.4353   -2.3128   26.4097 H   0  0  0  0  0  0
   -1.8885   -2.3135   27.4457 H   0  0  0  0  0  0
  1  6  1  0  0  0
  1  2  2  0  0  0
  1 26  1  0  0  0
  2  3  1  0  0  0
  3  4  2  0  0  0
  3 21  1  0  0  0
  4  5  1  0  0  0
  4 27  1  0  0  0
  5  6  2  0  0  0
  5  7  1  0  0  0
  6 28  1  0  0  0
  7 11  1  0  0  0
  7  8  2  0  0  0
  8  9  1  0  0  0
  8 18  1  0  0  0
  9 10  1  0  0  0
 10 11  2  0  0  0
 11 12  1  0  0  0
 12 15  1  0  0  0
 12 13  2  0  0  0
 13 17  1  0  0  0
 13 29  1  0  0  0
 14 15  2  0  0  0
 14 16  1  0  0  0
 14 30  1  0  0  0
 15 31  1  0  0  0
 16 17  2  0  0  0
 16 22  1  0  0  0
 17 32  1  0  0  0
 18 19  1  0  0  0
 18 20  1  0  0  0
 18 33  1  0  0  0
 19 34  1  0  0  0
 19 35  1  0  0  0
 19 36  1  0  0  0
 20 37  1  0  0  0
 20 38  1  0  0  0
 20 39  1  0  0  0
 21 23  1  0  0  0
 21 40  1  0  0  0
 23 24  1  0  0  0
 23 25  2  0  0  0
 24 41  1  0  0  0
 24 42  1  0  0  0
 24 43  1  0  0  0
M  END
> <s_m_entry_id>
60975

> <s_m_entry_name>
dock_pv.252

> <s_m_Source_Path>
/home/csk/Desktop/cluster/DUD-E-result/mk14

> <s_m_Source_File>
dock_pv.maegz

> <i_m_Source_File_Index>
252

> <chembl_id>
CHEMBL585533

> <chembl_pref_name>
None

> <i_lp_mmshare_version>
53161

> <i_f3d_flags>
0

> <r_lp_tautomer_probability>
1

> <s_lp_Force_Field>
OPLS_2005

> <r_lp_Energy>
15.919594

> <b_lp_Chiralities_Consistent>
1

> <s_lp_Variant>
CHEMBL260_lig1775-1

> <s_i_glide_gridfile>
glide-grid_2qd9

> <i_i_glide_lignum>
2069

> <i_i_glide_rotatable_bonds>
5

> <r_i_docking_score>
-7.60265067697789

> <r_i_glide_ligand_efficiency>
-0.304106027079115

> <r_i_glide_ligand_efficiency_sa>
-0.889211416522689

> <r_i_glide_ligand_efficiency_ln>
-1.80205604349955

> <r_i_glide_gscore>
-7.60265067697789

> <r_i_glide_lipo>
-3.62460255657662

> <r_i_glide_hbond>
-0.117218840427307

> <r_i_glide_metal>
0

> <r_i_glide_rewards>
-1.94624594096519

> <r_i_glide_evdw>
-38.304256439209

> <r_i_glide_ecoul>
-2.95112800598145

> <r_i_glide_erotb>
0.492944677186509

> <r_i_glide_esite>
-0.0496459933376209

> <r_i_glide_emodel>
-42.1362027194258

> <r_i_glide_energy>
-41.2553844451904

> <r_i_glide_einternal>
21.0763931274414

> <i_i_glide_confnum>
18

> <i_i_glide_posenum>
119

> <r_i_glide_eff_state_penalty>
0

> <s_user_duplicate_titles>
CHEMBL260_lig1775,577870

> <s_m_subgroup_title>
dock_pv

> <s_m_subgroupid>
dock_pv

> <b_m_subgroup_collapsed>
1

$$$$
CHEMBL260_lig1670
                    3D
 Schrodinger Suite 2021-1.
 54 58  0  0  1  0            999 V2000
   -2.5896   -1.1644   21.2229 N   0  0  0  0  0  0
   -2.1581   -1.8747   22.3217 C   0  0  0  0  0  0
   -1.5781   -1.0594   23.3845 C   0  0  0  0  0  0
   -1.4853    0.2944   23.3719 C   0  0  0  0  0  0
   -2.5771    0.2398   21.1951 C   0  0  0  0  0  0
   -2.0366    1.0005   22.2234 C   0  0  0  0  0  0
   -2.2219    2.3267   21.8349 C   0  0  0  0  0  0
   -2.8349    2.4207   20.6754 N   0  0  0  0  0  0
   -3.0686    1.1579   20.2740 N   0  0  0  0  0  0
   -2.9585   -1.9020   20.0156 C   0  0  0  0  0  0
   -2.2113   -3.1026   22.4419 O   0  0  0  0  0  0
   -0.8384    1.0658   24.3139 N   0  0  0  0  0  0
   -3.9316    0.9980   19.1703 C   0  0  0  0  0  0
   -5.2651    0.6510   19.3976 C   0  0  0  0  0  0
   -6.1594    0.5671   18.3298 C   0  0  0  0  0  0
   -5.7377    0.8870   17.0377 C   0  0  0  0  0  0
   -4.4123    1.2420   16.8038 C   0  0  0  0  0  0
   -3.5088    1.2869   17.8638 C   0  0  0  0  0  0
   -0.5853    0.8175   25.6756 C   0  0  0  0  0  0
   -1.4738    0.0641   26.4578 C   0  0  0  0  0  0
   -1.2642   -0.0988   27.8384 C   0  0  0  0  0  0
   -0.1420    0.4979   28.4218 C   0  0  0  0  0  0
    0.7437    1.2434   27.6545 C   0  0  0  0  0  0
    0.5349    1.4117   26.2850 C   0  0  0  0  0  0
   -2.2241   -0.8648   28.7143 C   0  0  0  0  0  0
   -2.3780   -0.5469   29.8940 O   0  0  0  0  0  0
    1.5407    2.2401   25.4910 C   0  0  0  0  0  0
   -4.0012    1.5361   15.5505 F   0  0  0  0  0  0
   -2.8362   -1.9120   28.1324 N   0  0  0  0  0  0
   -3.6937   -2.9405   28.7387 C   0  0  0  0  0  0
   -3.3930   -3.4844   30.1220 C   0  0  0  0  0  0
   -4.6214   -2.6361   29.8981 C   0  0  0  0  0  0
   -1.1332   -1.6003   24.2062 H   0  0  0  0  0  0
   -1.9168    3.1976   22.3945 H   0  0  0  0  0  0
   -2.4728   -1.4685   19.1405 H   0  0  0  0  0  0
   -2.6800   -2.9573   20.0453 H   0  0  0  0  0  0
   -4.0341   -1.8373   19.8759 H   0  0  0  0  0  0
   -0.4026    1.9165   23.9923 H   0  0  0  0  0  0
   -5.6200    0.4869   20.4025 H   0  0  0  0  0  0
   -7.1896    0.2919   18.5041 H   0  0  0  0  0  0
   -6.4349    0.8443   16.2144 H   0  0  0  0  0  0
   -2.4910    1.5605   17.6378 H   0  0  0  0  0  0
   -2.3537   -0.3551   25.9914 H   0  0  0  0  0  0
    0.0532    0.3922   29.4809 H   0  0  0  0  0  0
    1.5880    1.7028   28.1432 H   0  0  0  0  0  0
    2.3660    2.5924   26.1103 H   0  0  0  0  0  0
    1.9646    1.6454   24.6808 H   0  0  0  0  0  0
    1.0570    3.1078   25.0436 H   0  0  0  0  0  0
   -2.6278   -2.0505   27.1570 H   0  0  0  0  0  0
   -4.0421   -3.6607   28.0021 H   0  0  0  0  0  0
   -2.5455   -3.0774   30.6758 H   0  0  0  0  0  0
   -3.5008   -4.5572   30.2833 H   0  0  0  0  0  0
   -5.6008   -3.1150   29.9127 H   0  0  0  0  0  0
   -4.6547   -1.6293   30.3123 H   0  0  0  0  0  0
  1 10  1  0  0  0
  1  5  1  0  0  0
  1  2  1  0  0  0
  2  3  1  0  0  0
  2 11  2  0  0  0
  3  4  2  0  0  0
  3 33  1  0  0  0
  4 12  1  0  0  0
  4  6  1  0  0  0
  5  9  1  0  0  0
  5  6  2  0  0  0
  6  7  1  0  0  0
  7  8  2  0  0  0
  7 34  1  0  0  0
  8  9  1  0  0  0
  9 13  1  0  0  0
 10 35  1  0  0  0
 10 36  1  0  0  0
 10 37  1  0  0  0
 12 19  1  0  0  0
 12 38  1  0  0  0
 13 18  1  0  0  0
 13 14  2  0  0  0
 14 15  1  0  0  0
 14 39  1  0  0  0
 15 16  2  0  0  0
 15 40  1  0  0  0
 16 17  1  0  0  0
 16 41  1  0  0  0
 17 18  2  0  0  0
 17 28  1  0  0  0
 18 42  1  0  0  0
 19 20  2  0  0  0
 19 24  1  0  0  0
 20 21  1  0  0  0
 20 43  1  0  0  0
 21 22  2  0  0  0
 21 25  1  0  0  0
 22 23  1  0  0  0
 22 44  1  0  0  0
 23 24  2  0  0  0
 23 45  1  0  0  0
 24 27  1  0  0  0
 25 26  2  0  0  0
 25 29  1  0  0  0
 27 46  1  0  0  0
 27 47  1  0  0  0
 27 48  1  0  0  0
 29 30  1  0  0  0
 29 49  1  0  0  0
 30 31  1  0  0  0
 30 32  1  0  0  0
 30 50  1  0  0  0
 31 32  1  0  0  0
 31 51  1  0  0  0
 31 52  1  0  0  0
 32 53  1  0  0  0
 32 54  1  0  0  0
M  END
> <s_m_entry_id>
60976

> <s_m_entry_name>
dock_pv.253

> <s_m_Source_Path>
/home/csk/Desktop/cluster/DUD-E-result/mk14

> <s_m_Source_File>
dock_pv.maegz

> <i_m_Source_File_Index>
253

> <chembl_id>
CHEMBL559403

> <chembl_pref_name>
None

> <i_lp_mmshare_version>
53161

> <i_f3d_flags>
0

> <r_lp_tautomer_probability>
1

> <s_lp_Force_Field>
OPLS_2005

> <r_lp_Energy>
60.965304

> <b_lp_Chiralities_Consistent>
1

> <s_lp_Variant>
CHEMBL260_lig1670-1

> <s_i_glide_gridfile>
glide-grid_2qd9

> <i_i_glide_lignum>
1922

> <i_i_glide_rotatable_bonds>
6

> <r_i_docking_score>
-7.56638694038238

> <r_i_glide_ligand_efficiency>
-0.236449591886949

> <r_i_glide_ligand_efficiency_sa>
-0.75068066093037

> <r_i_glide_ligand_efficiency_ln>
-1.69432028786986

> <r_i_glide_gscore>
-7.56638694038238

> <r_i_glide_lipo>
-2.49747811757005

> <r_i_glide_hbond>
-0.319673473020503

> <r_i_glide_metal>
0

> <r_i_glide_rewards>
-2.5456183047266

> <r_i_glide_evdw>
-42.698787689209

> <r_i_glide_ecoul>
-4.73161935806274

> <r_i_glide_erotb>
0.641065243104642

> <r_i_glide_esite>
0

> <r_i_glide_emodel>
-63.7300931187522

> <r_i_glide_energy>
-47.4304070472717

> <r_i_glide_einternal>
5.69114112854004

> <i_i_glide_confnum>
72

> <i_i_glide_posenum>
129

> <r_i_glide_eff_state_penalty>
0

> <s_user_duplicate_titles>
CHEMBL260_lig1670,558807

> <s_m_subgroup_title>
dock_pv

> <s_m_subgroupid>
dock_pv

> <b_m_subgroup_collapsed>
1

$$$$
CHEMBL260_lig480
                    3D
 Schrodinger Suite 2021-1.
 54 58  0  0  1  0            999 V2000
   -2.5669    0.9296   21.0998 C   0  0  0  0  0  0
   -2.9894    1.4311   19.8762 N   0  0  0  0  0  0
   -2.4341    3.1790   21.1742 N   0  0  0  0  0  0
   -2.3109    2.0735   21.8786 C   0  0  0  0  0  0
   -2.8429    2.7919   20.0094 C   0  0  0  0  0  0
   -2.4706   -0.5079   21.4862 C   0  0  0  0  0  0
   -2.7209   -0.7540   22.7998 N   0  0  0  0  0  0
   -2.5879   -2.0391   23.2124 C   0  0  0  0  0  0
   -2.8331   -2.3127   24.5386 O   0  0  0  0  0  0
   -1.8390    2.1949   23.2833 C   0  0  0  0  0  0
   -2.2441   -3.1000   22.4373 N   0  0  0  0  0  0
   -2.1397   -1.6472   25.5237 C   0  0  0  0  0  0
   -3.6734    0.7616   18.7386 C   0  0  0  0  0  0
   -5.5453    1.5907   16.5457 N   0  0  2  0  0  0
   -0.7407   -1.6655   25.5868 C   0  0  0  0  0  0
   -2.0661   -1.5247   20.6118 C   0  0  0  0  0  0
   -0.6077    1.6562   23.6634 C   0  0  0  0  0  0
   -2.6170    2.8939   24.2130 C   0  0  0  0  0  0
   -1.9706   -2.8150   21.1373 C   0  0  0  0  0  0
   -0.9044    2.5768   25.8729 C   0  0  0  0  0  0
   -5.1657    1.0441   18.9561 C   0  0  0  0  0  0
   -3.2351    1.3771   17.3736 C   0  0  0  0  0  0
   -2.1506    3.0804   25.5108 C   0  0  0  0  0  0
   -0.1333    1.8642   24.9560 C   0  0  0  0  0  0
   -0.4439    2.7745   27.1283 F   0  0  0  0  0  0
   -0.0230   -2.3722   24.6636 O   0  0  0  0  0  0
   -4.2040    1.1329   16.2026 C   0  0  0  0  0  0
   -6.0762    0.8869   17.7079 C   0  0  0  0  0  0
   -2.8574   -1.0127   26.5354 C   0  0  0  0  0  0
   -0.0738   -1.0126   26.6242 C   0  0  0  0  0  0
   -2.1930   -0.3717   27.5825 C   0  0  0  0  0  0
   -0.7999   -0.3685   27.6251 C   0  0  0  0  0  0
   -3.1447    3.4427   19.2135 H   0  0  0  0  0  0
   -3.4822   -0.3064   18.7693 H   0  0  0  0  0  0
   -6.1665    1.4448   15.7604 H   0  0  0  0  0  0
   -1.7991   -1.3323   19.5846 H   0  0  0  0  0  0
   -0.0107    1.0976   22.9574 H   0  0  0  0  0  0
   -3.5788    3.2918   23.9277 H   0  0  0  0  0  0
   -1.6585   -3.6404   20.5135 H   0  0  0  0  0  0
   -5.5459    0.3601   19.7160 H   0  0  0  0  0  0
   -5.2383    2.0329   19.4074 H   0  0  0  0  0  0
   -2.9366    2.4228   17.3967 H   0  0  0  0  0  0
   -2.3122    0.8872   17.0872 H   0  0  0  0  0  0
   -2.7439    3.6206   26.2343 H   0  0  0  0  0  0
    0.8302    1.4731   25.2519 H   0  0  0  0  0  0
    0.9051   -2.4725   24.9076 H   0  0  0  0  0  0
   -4.2235    0.0836   15.9095 H   0  0  0  0  0  0
   -3.8743    1.6974   15.3290 H   0  0  0  0  0  0
   -6.3163   -0.1357   17.4375 H   0  0  0  0  0  0
   -7.0633    1.2880   17.9171 H   0  0  0  0  0  0
   -3.9373   -1.0335   26.5062 H   0  0  0  0  0  0
    1.0045   -1.0167   26.6720 H   0  0  0  0  0  0
   -2.7546    0.1220   28.3629 H   0  0  0  0  0  0
   -0.2821    0.1287   28.4328 H   0  0  0  0  0  0
  1  2  1  0  0  0
  1  4  2  0  0  0
  1  6  1  0  0  0
  2  5  1  0  0  0
  2 13  1  0  0  0
  3  4  1  0  0  0
  3  5  2  0  0  0
  4 10  1  0  0  0
  5 33  1  0  0  0
  6  7  1  0  0  0
  6 16  2  0  0  0
  7  8  2  0  0  0
  8  9  1  0  0  0
  8 11  1  0  0  0
  9 12  1  0  0  0
 10 17  1  0  0  0
 10 18  2  0  0  0
 11 19  2  0  0  0
 12 15  1  0  0  0
 12 29  2  0  0  0
 13 21  1  0  0  0
 13 22  1  0  0  0
 13 34  1  0  0  0
 14 27  1  0  0  0
 14 28  1  0  0  0
 14 35  1  0  0  0
 15 26  1  0  0  0
 15 30  2  0  0  0
 16 19  1  0  0  0
 16 36  1  0  0  0
 17 24  2  0  0  0
 17 37  1  0  0  0
 18 23  1  0  0  0
 18 38  1  0  0  0
 19 39  1  0  0  0
 20 23  2  0  0  0
 20 25  1  0  0  0
 20 24  1  0  0  0
 21 28  1  0  0  0
 21 40  1  0  0  0
 21 41  1  0  0  0
 22 27  1  0  0  0
 22 42  1  0  0  0
 22 43  1  0  0  0
 23 44  1  0  0  0
 24 45  1  0  0  0
 26 46  1  0  0  0
 27 47  1  0  0  0
 27 48  1  0  0  0
 28 49  1  0  0  0
 28 50  1  0  0  0
 29 31  1  0  0  0
 29 51  1  0  0  0
 30 32  1  0  0  0
 30 52  1  0  0  0
 31 32  2  0  0  0
 31 53  1  0  0  0
 32 54  1  0  0  0
M  END
> <s_m_entry_id>
60977

> <s_m_entry_name>
dock_pv.254

> <s_m_Source_Path>
/home/csk/Desktop/cluster/DUD-E-result/mk14

> <s_m_Source_File>
dock_pv.maegz

> <i_m_Source_File_Index>
254

> <chembl_id>
CHEMBL273432

> <chembl_pref_name>
None

> <i_lp_mmshare_version>
53161

> <i_f3d_flags>
0

> <r_lp_tautomer_probability>
1

> <s_lp_Force_Field>
OPLS_2005

> <r_lp_Energy>
34.814725

> <b_lp_Chiralities_Consistent>
1

> <s_lp_Variant>
CHEMBL260_lig480-1

> <s_i_glide_gridfile>
glide-grid_2qd9

> <i_i_glide_lignum>
550

> <i_i_glide_rotatable_bonds>
6

> <r_i_docking_score>
-7.56143740829479

> <r_i_glide_ligand_efficiency>
-0.236294919009212

> <r_i_glide_ligand_efficiency_sa>
-0.750189605153274

> <r_i_glide_ligand_efficiency_ln>
-1.69321195271629

> <r_i_glide_gscore>
-7.56143740829479

> <r_i_glide_lipo>
-3.05408130056641

> <r_i_glide_hbond>
-0.300751566384688

> <r_i_glide_metal>
0

> <r_i_glide_rewards>
-1.77187928078764

> <r_i_glide_evdw>
-40.8232498168945

> <r_i_glide_ecoul>
-6.1213264465332

> <r_i_glide_erotb>
0.534221035920535

> <r_i_glide_esite>
-0.00958483865187661

> <r_i_glide_emodel>
-60.4972634995412

> <r_i_glide_energy>
-46.9445762634277

> <r_i_glide_einternal>
2.37375044822693

> <i_i_glide_confnum>
18

> <i_i_glide_posenum>
257

> <r_i_glide_eff_state_penalty>
0

> <s_user_duplicate_titles>
CHEMBL260_lig480,13748

> <s_m_subgroup_title>
dock_pv

> <s_m_subgroupid>
dock_pv

> <b_m_subgroup_collapsed>
1

$$$$
CHEMBL260_lig1771
                    3D
 Schrodinger Suite 2021-1.
 50 52  0  0  1  0            999 V2000
   -2.3193   -2.6188   21.4673 C   0  0  0  0  0  0
   -2.4348   -2.9180   22.7883 N   0  0  0  0  0  0
   -2.7178   -1.9115   23.6574 C   0  0  0  0  0  0
   -2.9267   -0.6039   23.2112 C   0  0  0  0  0  0
   -2.7192   -0.2838   21.8664 C   0  0  0  0  0  0
   -2.4406   -1.3188   20.9698 C   0  0  0  0  0  0
   -2.6427    1.1479   21.4587 C   0  0  0  0  0  0
   -2.0454    2.1585   22.2184 C   0  0  0  0  0  0
   -2.0359    3.2869   21.4839 O   0  0  0  0  0  0
   -2.6773    3.0678   20.2758 N   0  0  0  0  0  0
   -3.0619    1.8110   20.2754 C   0  0  0  0  0  0
   -3.8722    1.3652   19.0941 C   0  0  0  0  0  0
   -5.1676    0.8778   19.2917 C   0  0  0  0  0  0
   -4.2322    1.3146   16.6937 C   0  0  0  0  0  0
   -3.4111    1.5676   17.7822 C   0  0  0  0  0  0
   -5.5317    0.8869   16.9079 C   0  0  0  0  0  0
   -6.0053    0.6552   18.1988 C   0  0  0  0  0  0
   -1.4135    2.2898   23.6069 C   0  0  0  0  0  0
   -2.1031    3.3983   24.4251 C   0  0  0  0  0  0
    0.1079    2.5145   23.5534 C   0  0  0  0  0  0
   -2.7742   -2.2561   25.0214 N   0  0  0  0  0  0
   -2.6778   -1.2795   26.1069 C   0  0  2  0  0  0
   -1.2318   -0.7444   26.2593 C   0  0  0  0  0  0
   -3.1936   -1.8789   27.4258 C   0  0  0  0  0  0
   -1.1268    0.5308   27.1098 C   0  0  0  0  0  0
   -6.3079    0.6174   15.8405 F   0  0  0  0  0  0
   -2.0852   -3.4402   20.8038 H   0  0  0  0  0  0
   -3.2010    0.1725   23.9034 H   0  0  0  0  0  0
   -2.2734   -1.1176   19.9216 H   0  0  0  0  0  0
   -5.5488    0.7193   20.2880 H   0  0  0  0  0  0
   -3.8736    1.4718   15.6866 H   0  0  0  0  0  0
   -2.4350    1.9667   17.5644 H   0  0  0  0  0  0
   -7.0118    0.2916   18.3435 H   0  0  0  0  0  0
   -1.5322    1.3720   24.1715 H   0  0  0  0  0  0
   -3.1751    3.2188   24.5178 H   0  0  0  0  0  0
   -1.6949    3.4598   25.4344 H   0  0  0  0  0  0
   -1.9649    4.3740   23.9605 H   0  0  0  0  0  0
    0.6197    1.6796   23.0762 H   0  0  0  0  0  0
    0.3701    3.4322   23.0290 H   0  0  0  0  0  0
    0.5238    2.5985   24.5586 H   0  0  0  0  0  0
   -2.6721   -3.2257   25.2688 H   0  0  0  0  0  0
   -3.3346   -0.4372   25.8843 H   0  0  0  0  0  0
   -0.5946   -1.5171   26.6903 H   0  0  0  0  0  0
   -0.8008   -0.5327   25.2793 H   0  0  0  0  0  0
   -3.2320   -1.1243   28.2118 H   0  0  0  0  0  0
   -4.2032   -2.2829   27.3135 H   0  0  0  0  0  0
   -2.5521   -2.6804   27.7903 H   0  0  0  0  0  0
   -0.1089    0.9252   27.0980 H   0  0  0  0  0  0
   -1.7876    1.3107   26.7328 H   0  0  0  0  0  0
   -1.3921    0.3447   28.1504 H   0  0  0  0  0  0
  1  6  1  0  0  0
  1  2  2  0  0  0
  1 27  1  0  0  0
  2  3  1  0  0  0
  3  4  2  0  0  0
  3 21  1  0  0  0
  4  5  1  0  0  0
  4 28  1  0  0  0
  5  6  2  0  0  0
  5  7  1  0  0  0
  6 29  1  0  0  0
  7 11  1  0  0  0
  7  8  2  0  0  0
  8 18  1  0  0  0
  8  9  1  0  0  0
  9 10  1  0  0  0
 10 11  2  0  0  0
 11 12  1  0  0  0
 12 15  1  0  0  0
 12 13  2  0  0  0
 13 17  1  0  0  0
 13 30  1  0  0  0
 14 15  2  0  0  0
 14 16  1  0  0  0
 14 31  1  0  0  0
 15 32  1  0  0  0
 16 17  2  0  0  0
 16 26  1  0  0  0
 17 33  1  0  0  0
 18 19  1  0  0  0
 18 20  1  0  0  0
 18 34  1  0  0  0
 19 35  1  0  0  0
 19 36  1  0  0  0
 19 37  1  0  0  0
 20 38  1  0  0  0
 20 39  1  0  0  0
 20 40  1  0  0  0
 21 22  1  0  0  0
 21 41  1  0  0  0
 22 23  1  0  0  0
 22 24  1  0  0  0
 22 42  1  0  0  0
 23 25  1  0  0  0
 23 43  1  0  0  0
 23 44  1  0  0  0
 24 45  1  0  0  0
 24 46  1  0  0  0
 24 47  1  0  0  0
 25 48  1  0  0  0
 25 49  1  0  0  0
 25 50  1  0  0  0
M  END
> <s_m_entry_id>
60978

> <s_m_entry_name>
dock_pv.255

> <s_m_Source_Path>
/home/csk/Desktop/cluster/DUD-E-result/mk14

> <s_m_Source_File>
dock_pv.maegz

> <i_m_Source_File_Index>
255

> <chembl_id>
CHEMBL569551

> <chembl_pref_name>
None

> <i_lp_mmshare_version>
53161

> <i_f3d_flags>
0

> <r_lp_tautomer_probability>
0.999999772200052

> <s_lp_Force_Field>
OPLS_2005

> <r_lp_Energy>
16.621915

> <b_lp_Chiralities_Consistent>
1

> <s_lp_Variant>
CHEMBL260_lig1771-1

> <s_i_glide_gridfile>
glide-grid_2qd9

> <i_i_glide_lignum>
2064

> <i_i_glide_rotatable_bonds>
6

> <r_i_docking_score>
-7.56138186475354

> <r_i_glide_ligand_efficiency>
-0.290822379413598

> <r_i_glide_ligand_efficiency_sa>
-0.861560154681978

> <r_i_glide_ligand_efficiency_ln>
-1.7757657200198

> <r_i_glide_gscore>
-7.56138186475354

> <r_i_glide_lipo>
-3.57716383622031

> <r_i_glide_hbond>
-0.172643910257472

> <r_i_glide_metal>
0

> <r_i_glide_rewards>
-2.21551186857788

> <r_i_glide_evdw>
-33.6497497558594

> <r_i_glide_ecoul>
-3.03288173675537

> <r_i_glide_erotb>
0.611512724141456

> <r_i_glide_esite>
-0.0701552255330605

> <r_i_glide_emodel>
-44.1110764978487

> <r_i_glide_energy>
-36.6826314926147

> <r_i_glide_einternal>
8.54802799224854

> <i_i_glide_confnum>
44

> <i_i_glide_posenum>
220

> <r_i_glide_eff_state_penalty>
0

> <s_user_duplicate_titles>
CHEMBL260_lig1771,577831

> <s_m_subgroup_title>
dock_pv

> <s_m_subgroupid>
dock_pv

> <b_m_subgroup_collapsed>
1

$$$$
CHEMBL260_lig456
                    3D
 Schrodinger Suite 2021-1.
 56 60  0  0  1  0            999 V2000
   -6.0507    0.5816   16.1644 F   0  0  0  0  0  0
   -5.2877    0.8870   17.2324 C   0  0  0  0  0  0
   -5.6745    0.4944   18.5165 C   0  0  0  0  0  0
   -4.8336    0.7564   19.5954 C   0  0  0  0  0  0
   -3.6349    1.4467   19.4037 C   0  0  0  0  0  0
   -3.2855    1.8561   18.1078 C   0  0  0  0  0  0
   -4.0876    1.5457   17.0196 C   0  0  0  0  0  0
   -2.8353    1.8280   20.6136 C   0  0  0  0  0  0
   -2.4364    3.0810   20.7100 N   0  0  0  0  0  0
   -2.0343    3.1949   21.9383 C   0  0  0  0  0  0
   -1.9546    2.0283   22.6391 N   0  0  0  0  0  0
   -1.4683    1.9683   24.0364 C   0  0  0  0  0  0
   -0.1335    2.7880   24.1715 C   0  0  0  0  0  0
    0.0747    3.5408   25.5026 C   0  0  0  0  0  0
   -1.1499    4.1792   25.9741 N   0  0  1  0  0  0
   -2.1682    3.1680   26.2393 C   0  0  0  0  0  0
   -2.6206    2.5462   24.9107 C   0  0  0  0  0  0
   -2.4331    1.0718   21.7456 C   0  0  0  0  0  0
   -2.4476   -0.4091   21.9730 C   0  0  0  0  0  0
   -2.3458   -1.2929   20.8901 C   0  0  0  0  0  0
   -2.1744   -2.6476   21.1833 C   0  0  0  0  0  0
   -2.1161   -3.1134   22.4557 N   0  0  0  0  0  0
   -2.2379   -2.1912   23.4414 C   0  0  0  0  0  0
   -2.1536   -2.7081   24.7192 O   0  0  0  0  0  0
   -2.0174   -1.9110   25.8358 C   0  0  0  0  0  0
   -3.0184   -1.9127   26.8082 C   0  0  0  0  0  0
   -2.8350   -1.2380   28.0120 C   0  0  0  0  0  0
   -1.6757   -0.5035   28.2300 C   0  0  0  0  0  0
   -0.6786   -0.4574   27.2533 C   0  0  0  0  0  0
   -0.8452   -1.1835   26.0657 C   0  0  0  0  0  0
    0.5699    0.3766   27.5005 C   0  0  0  0  0  0
    0.2680    1.5072   28.1408 F   0  0  0  0  0  0
    1.1650    0.6778   26.3479 F   0  0  0  0  0  0
    1.4149   -0.3137   28.2540 F   0  0  0  0  0  0
   -2.4145   -0.8544   23.2580 N   0  0  0  0  0  0
   -6.6154   -0.0137   18.6636 H   0  0  0  0  0  0
   -5.1383    0.4746   20.5907 H   0  0  0  0  0  0
   -2.4361    2.4837   17.9051 H   0  0  0  0  0  0
   -3.8072    1.8532   16.0216 H   0  0  0  0  0  0
   -1.6826    4.0868   22.4263 H   0  0  0  0  0  0
   -1.2560    0.9605   24.3752 H   0  0  0  0  0  0
    0.6954    2.0879   24.0649 H   0  0  0  0  0  0
    0.0660    3.4895   23.3655 H   0  0  0  0  0  0
    0.5001    2.9077   26.2725 H   0  0  0  0  0  0
    0.8018    4.3379   25.3451 H   0  0  0  0  0  0
   -0.9343    4.6617   26.8370 H   0  0  0  0  0  0
   -1.7954    2.4052   26.9240 H   0  0  0  0  0  0
   -3.0131    3.6524   26.7300 H   0  0  0  0  0  0
   -3.2773    3.2403   24.3826 H   0  0  0  0  0  0
   -3.2875    1.7184   25.1616 H   0  0  0  0  0  0
   -2.3384   -0.9459   19.8677 H   0  0  0  0  0  0
   -2.0507   -3.3764   20.3943 H   0  0  0  0  0  0
   -3.9190   -2.4856   26.6532 H   0  0  0  0  0  0
   -3.5967   -1.2812   28.7756 H   0  0  0  0  0  0
   -1.5504    0.0245   29.1640 H   0  0  0  0  0  0
   -0.0626   -1.1997   25.3207 H   0  0  0  0  0  0
  1  2  1  0  0  0
  2  3  2  0  0  0
  2  7  1  0  0  0
  3  4  1  0  0  0
  3 36  1  0  0  0
  4  5  2  0  0  0
  4 37  1  0  0  0
  5  6  1  0  0  0
  5  8  1  0  0  0
  6  7  2  0  0  0
  6 38  1  0  0  0
  7 39  1  0  0  0
  8  9  1  0  0  0
  8 18  2  0  0  0
  9 10  2  0  0  0
 10 11  1  0  0  0
 10 40  1  0  0  0
 11 12  1  0  0  0
 11 18  1  0  0  0
 12 13  1  0  0  0
 12 17  1  0  0  0
 12 41  1  0  0  0
 13 14  1  0  0  0
 13 42  1  0  0  0
 13 43  1  0  0  0
 14 15  1  0  0  0
 14 44  1  0  0  0
 14 45  1  0  0  0
 15 16  1  0  0  0
 15 46  1  0  0  0
 16 17  1  0  0  0
 16 47  1  0  0  0
 16 48  1  0  0  0
 17 49  1  0  0  0
 17 50  1  0  0  0
 18 19  1  0  0  0
 19 20  2  0  0  0
 19 35  1  0  0  0
 20 21  1  0  0  0
 20 51  1  0  0  0
 21 22  2  0  0  0
 21 52  1  0  0  0
 22 23  1  0  0  0
 23 24  1  0  0  0
 23 35  2  0  0  0
 24 25  1  0  0  0
 25 26  2  0  0  0
 25 30  1  0  0  0
 26 27  1  0  0  0
 26 53  1  0  0  0
 27 28  2  0  0  0
 27 54  1  0  0  0
 28 29  1  0  0  0
 28 55  1  0  0  0
 29 30  2  0  0  0
 29 31  1  0  0  0
 30 56  1  0  0  0
 31 32  1  0  0  0
 31 33  1  0  0  0
 31 34  1  0  0  0
M  END
> <s_m_entry_id>
60979

> <s_m_entry_name>
dock_pv.256

> <s_m_Source_Path>
/home/csk/Desktop/cluster/DUD-E-result/mk14

> <s_m_Source_File>
dock_pv.maegz

> <i_m_Source_File_Index>
256

> <chembl_id>
CHEMBL275666

> <chembl_pref_name>
None

> <i_lp_mmshare_version>
53161

> <i_f3d_flags>
0

> <r_lp_tautomer_probability>
1

> <s_lp_Force_Field>
OPLS_2005

> <r_lp_Energy>
37.598345

> <b_lp_Chiralities_Consistent>
1

> <s_lp_Variant>
CHEMBL260_lig456-1

> <s_i_glide_gridfile>
glide-grid_2qd9

> <i_i_glide_lignum>
525

> <i_i_glide_rotatable_bonds>
6

> <r_i_docking_score>
-7.55454880108706

> <r_i_glide_ligand_efficiency>
-0.21584425145963

> <r_i_glide_ligand_efficiency_sa>
-0.70604085836073

> <r_i_glide_ligand_efficiency_ln>
-1.65839112601574

> <r_i_glide_gscore>
-7.55454880108706

> <r_i_glide_lipo>
-3.04093126416216

> <r_i_glide_hbond>
-0.570812348607623

> <r_i_glide_metal>
0

> <r_i_glide_rewards>
-1.82837255456121

> <r_i_glide_evdw>
-37.1559295654297

> <r_i_glide_ecoul>
-4.26698541641235

> <r_i_glide_erotb>
0.434273389161164

> <r_i_glide_esite>
-0.0508617321838896

> <r_i_glide_emodel>
-53.2114440091298

> <r_i_glide_energy>
-41.422914981842

> <r_i_glide_einternal>
7.46791505813599

> <i_i_glide_confnum>
9

> <i_i_glide_posenum>
154

> <r_i_glide_eff_state_penalty>
0

> <s_user_duplicate_titles>
CHEMBL260_lig456,13659

> <s_m_subgroup_title>
dock_pv

> <s_m_subgroupid>
dock_pv

> <b_m_subgroup_collapsed>
1

$$$$
CHEMBL260_lig1664
                    3D
 Schrodinger Suite 2021-1.
 47 50  0  0  1  0            999 V2000
   -2.8779   -0.7253   20.9790 N   0  0  0  0  0  0
   -2.4364   -1.3726   22.1067 C   0  0  0  0  0  0
   -1.8924   -0.4948   23.1305 C   0  0  0  0  0  0
   -1.8394    0.8605   23.0692 C   0  0  0  0  0  0
   -2.8608    0.6754   20.8605 C   0  0  0  0  0  0
   -2.3424    1.4973   21.8527 C   0  0  0  0  0  0
   -2.4350    2.7884   21.3335 C   0  0  0  0  0  0
   -2.9677    2.8126   20.1349 N   0  0  0  0  0  0
   -3.2771    1.5346   19.8470 N   0  0  0  0  0  0
   -3.2351   -1.5466   19.8319 C   0  0  0  0  0  0
   -2.4530   -2.5942   22.2876 O   0  0  0  0  0  0
   -1.2664    1.6838   24.0189 N   0  0  0  0  0  0
   -3.9886    1.2931   18.6485 C   0  0  0  0  0  0
   -3.3952    1.5345   17.4024 C   0  0  0  0  0  0
   -4.0908    1.2870   16.2222 C   0  0  0  0  0  0
   -5.4033    0.8355   16.2777 C   0  0  0  0  0  0
   -6.0347    0.6796   17.5116 C   0  0  0  0  0  0
   -5.3243    0.8830   18.6939 C   0  0  0  0  0  0
   -0.8132    1.3698   25.3149 C   0  0  0  0  0  0
   -5.9384    0.6698   19.8757 F   0  0  0  0  0  0
   -1.4922    0.4432   26.1203 C   0  0  0  0  0  0
   -1.0291    0.0946   27.3977 C   0  0  0  0  0  0
    0.1126    0.7481   27.8862 C   0  0  0  0  0  0
    0.7653    1.7056   27.1172 C   0  0  0  0  0  0
    0.3240    2.0157   25.8298 C   0  0  0  0  0  0
   -6.0349    0.4869   15.1375 F   0  0  0  0  0  0
   -1.7491   -0.9728   28.1958 C   0  0  0  0  0  0
   -2.7874   -1.4943   27.7901 O   0  0  0  0  0  0
   -1.2041   -1.3512   29.3531 N   0  0  0  0  0  0
    1.1147    3.0333   25.0129 C   0  0  0  0  0  0
   -1.4646   -1.0078   23.9766 H   0  0  0  0  0  0
   -2.0907    3.6869   21.8205 H   0  0  0  0  0  0
   -2.5259   -1.3655   19.0248 H   0  0  0  0  0  0
   -3.2357   -2.6211   20.0301 H   0  0  0  0  0  0
   -4.2270   -1.2864   19.4764 H   0  0  0  0  0  0
   -0.9292    2.5802   23.7058 H   0  0  0  0  0  0
   -2.3995    1.9188   17.3233 H   0  0  0  0  0  0
   -3.6117    1.4328   15.2650 H   0  0  0  0  0  0
   -7.0454    0.3081   17.5615 H   0  0  0  0  0  0
   -2.3895   -0.0233   25.7394 H   0  0  0  0  0  0
    0.5204    0.5288   28.8636 H   0  0  0  0  0  0
    1.6403    2.1916   27.5219 H   0  0  0  0  0  0
   -1.6281   -2.1124   29.8627 H   0  0  0  0  0  0
   -0.3134   -0.9830   29.6511 H   0  0  0  0  0  0
    1.9709    3.4297   25.5607 H   0  0  0  0  0  0
    1.4926    2.5715   24.0987 H   0  0  0  0  0  0
    0.4794    3.8714   24.7251 H   0  0  0  0  0  0
  1  2  1  0  0  0
  1 10  1  0  0  0
  1  5  1  0  0  0
  2  3  1  0  0  0
  2 11  2  0  0  0
  3  4  2  0  0  0
  3 31  1  0  0  0
  4 12  1  0  0  0
  4  6  1  0  0  0
  5  9  1  0  0  0
  5  6  2  0  0  0
  6  7  1  0  0  0
  7  8  2  0  0  0
  7 32  1  0  0  0
  8  9  1  0  0  0
  9 13  1  0  0  0
 10 33  1  0  0  0
 10 34  1  0  0  0
 10 35  1  0  0  0
 12 19  1  0  0  0
 12 36  1  0  0  0
 13 18  1  0  0  0
 13 14  2  0  0  0
 14 15  1  0  0  0
 14 37  1  0  0  0
 15 16  2  0  0  0
 15 38  1  0  0  0
 16 17  1  0  0  0
 16 26  1  0  0  0
 17 18  2  0  0  0
 17 39  1  0  0  0
 18 20  1  0  0  0
 19 21  2  0  0  0
 19 25  1  0  0  0
 21 22  1  0  0  0
 21 40  1  0  0  0
 22 23  2  0  0  0
 22 27  1  0  0  0
 23 24  1  0  0  0
 23 41  1  0  0  0
 24 25  2  0  0  0
 24 42  1  0  0  0
 25 30  1  0  0  0
 27 28  2  0  0  0
 27 29  1  0  0  0
 29 43  1  0  0  0
 29 44  1  0  0  0
 30 45  1  0  0  0
 30 46  1  0  0  0
 30 47  1  0  0  0
M  END
> <s_m_entry_id>
60980

> <s_m_entry_name>
dock_pv.257

> <s_m_Source_Path>
/home/csk/Desktop/cluster/DUD-E-result/mk14

> <s_m_Source_File>
dock_pv.maegz

> <i_m_Source_File_Index>
257

> <chembl_id>
CHEMBL552271

> <chembl_pref_name>
None

> <i_lp_mmshare_version>
53161

> <i_f3d_flags>
0

> <r_lp_tautomer_probability>
1

> <s_lp_Force_Field>
OPLS_2005

> <r_lp_Energy>
44.017105

> <b_lp_Chiralities_Consistent>
1

> <s_lp_Variant>
CHEMBL260_lig1664-1

> <s_i_glide_gridfile>
glide-grid_2qd9

> <i_i_glide_lignum>
1916

> <i_i_glide_rotatable_bonds>
4

> <r_i_docking_score>
-7.55420627744921

> <r_i_glide_ligand_efficiency>
-0.251806875914974

> <r_i_glide_ligand_efficiency_sa>
-0.782422509178639

> <r_i_glide_ligand_efficiency_ln>
-1.71639797590634

> <r_i_glide_gscore>
-7.55420627744921

> <r_i_glide_lipo>
-2.5603275643185

> <r_i_glide_hbond>
0

> <r_i_glide_metal>
0

> <r_i_glide_rewards>
-2.49571800973868

> <r_i_glide_evdw>
-38.4295196533203

> <r_i_glide_ecoul>
-6.19425582885742

> <r_i_glide_erotb>
0.352453653602594

> <r_i_glide_esite>
0

> <r_i_glide_emodel>
-60.405025299403

> <r_i_glide_energy>
-44.6237754821777

> <r_i_glide_einternal>
2.51646876335144

> <i_i_glide_confnum>
18

> <i_i_glide_posenum>
7

> <r_i_glide_eff_state_penalty>
0

> <s_user_duplicate_titles>
CHEMBL260_lig1664,562428

> <s_m_subgroup_title>
dock_pv

> <s_m_subgroupid>
dock_pv

> <b_m_subgroup_collapsed>
1

$$$$
CHEMBL260_lig78
                    3D
 Schrodinger Suite 2021-1.
 47 50  0  0  1  0            999 V2000
   -2.8357    1.8210   20.9050 C   0  0  0  0  0  0
   -2.4363    0.8334   21.8002 C   0  0  0  0  0  0
   -2.4341    3.0217   21.3238 N   0  0  0  0  0  0
   -1.8745    2.8461   22.5117 C   0  0  0  0  0  0
   -1.8678    1.5252   22.8239 N   0  0  0  0  0  0
   -3.6312    1.5935   19.6537 C   0  0  0  0  0  0
   -1.4705   -0.1628   26.0433 C   0  0  0  0  0  0
   -1.0379    4.0870   23.4760 S   0  0  0  0  0  0
   -2.4339   -0.6408   21.7868 C   0  0  0  0  0  0
   -0.2611   -0.6696   25.5462 C   0  0  0  0  0  0
   -1.7178    1.2076   25.9913 C   0  0  0  0  0  0
   -2.0335   -3.4017   21.8734 N   0  0  0  0  0  0
   -3.2355    2.0869   18.4088 C   0  0  0  0  0  0
   -4.7825    0.8053   19.7333 C   0  0  0  0  0  0
    0.7184    0.2019   25.0707 C   0  0  0  0  0  0
   -2.7252   -1.2310   26.6948 S   0  0  0  0  0  0
   -0.7660    2.0745   25.4450 C   0  0  0  0  0  0
   -1.1211    3.5361   25.2255 C   0  0  0  0  0  0
   -5.0593    0.9110   17.3536 C   0  0  0  0  0  0
    0.4730    1.5734   25.0288 C   0  0  0  0  0  0
   -3.9066    1.6864   17.2517 C   0  0  0  0  0  0
   -5.5192    0.4919   18.5997 C   0  0  0  0  0  0
   -5.7441    0.5807   16.2358 F   0  0  0  0  0  0
   -0.0351   -2.0152   25.4754 O   0  0  0  0  0  0
   -2.3774   -2.7131   22.9876 C   0  0  0  0  0  0
   -1.9269   -2.7137   20.7080 C   0  0  0  0  0  0
   -2.6081   -1.3432   22.9803 C   0  0  0  0  0  0
   -2.1214   -1.3381   20.6183 C   0  0  0  0  0  0
   -2.1854   -1.5397   28.3944 C   0  0  0  0  0  0
   -1.4354    1.1216   23.6441 H   0  0  0  0  0  0
   -2.6711    1.5892   26.3288 H   0  0  0  0  0  0
   -2.4351    2.8065   18.3304 H   0  0  0  0  0  0
   -5.1224    0.4316   20.6771 H   0  0  0  0  0  0
    1.6586   -0.1806   24.6986 H   0  0  0  0  0  0
   -2.1183    3.7587   25.6082 H   0  0  0  0  0  0
   -0.4288    4.1473   25.8066 H   0  0  0  0  0  0
    1.2243    2.2348   24.6189 H   0  0  0  0  0  0
   -3.5820    2.0400   16.2840 H   0  0  0  0  0  0
   -6.4246   -0.0955   18.6751 H   0  0  0  0  0  0
    0.8840   -2.2411   25.2915 H   0  0  0  0  0  0
   -2.4406   -3.2681   23.9107 H   0  0  0  0  0  0
   -1.6625   -3.2969   19.8391 H   0  0  0  0  0  0
   -2.8699   -0.8293   23.8897 H   0  0  0  0  0  0
   -1.9861   -0.8245   19.6777 H   0  0  0  0  0  0
   -2.8263   -2.2847   28.8667 H   0  0  0  0  0  0
   -1.1595   -1.9102   28.4062 H   0  0  0  0  0  0
   -2.2266   -0.6214   28.9807 H   0  0  0  0  0  0
  1  2  2  0  0  0
  1  3  1  0  0  0
  1  6  1  0  0  0
  2  5  1  0  0  0
  2  9  1  0  0  0
  3  4  2  0  0  0
  4  8  1  0  0  0
  4  5  1  0  0  0
  5 30  1  0  0  0
  6 13  1  0  0  0
  6 14  2  0  0  0
  7 11  2  0  0  0
  7 16  1  0  0  0
  7 10  1  0  0  0
  8 18  1  0  0  0
  9 27  1  0  0  0
  9 28  2  0  0  0
 10 15  2  0  0  0
 10 24  1  0  0  0
 11 17  1  0  0  0
 11 31  1  0  0  0
 12 26  2  0  0  0
 12 25  1  0  0  0
 13 21  2  0  0  0
 13 32  1  0  0  0
 14 22  1  0  0  0
 14 33  1  0  0  0
 15 20  1  0  0  0
 15 34  1  0  0  0
 16 29  1  0  0  0
 17 18  1  0  0  0
 17 20  2  0  0  0
 18 35  1  0  0  0
 18 36  1  0  0  0
 19 22  2  0  0  0
 19 23  1  0  0  0
 19 21  1  0  0  0
 20 37  1  0  0  0
 21 38  1  0  0  0
 22 39  1  0  0  0
 24 40  1  0  0  0
 25 27  2  0  0  0
 25 41  1  0  0  0
 26 28  1  0  0  0
 26 42  1  0  0  0
 27 43  1  0  0  0
 28 44  1  0  0  0
 29 45  1  0  0  0
 29 46  1  0  0  0
 29 47  1  0  0  0
M  END
> <s_m_entry_id>
60981

> <s_m_entry_name>
dock_pv.258

> <s_m_Source_Path>
/home/csk/Desktop/cluster/DUD-E-result/mk14

> <s_m_Source_File>
dock_pv.maegz

> <i_m_Source_File_Index>
258

> <chembl_id>
CHEMBL142891

> <chembl_pref_name>
None

> <i_lp_mmshare_version>
53161

> <i_f3d_flags>
0

> <r_lp_tautomer_probability>
0.999999999973738

> <s_lp_Force_Field>
OPLS_2005

> <r_lp_Energy>
13.394107

> <b_lp_Chiralities_Consistent>
1

> <s_lp_Variant>
CHEMBL260_lig78-1

> <s_i_glide_gridfile>
glide-grid_2qd9

> <i_i_glide_lignum>
89

> <i_i_glide_rotatable_bonds>
7

> <r_i_docking_score>
-7.55052742543445

> <r_i_glide_ligand_efficiency>
-0.260363014670154

> <r_i_glide_ligand_efficiency_sa>
-0.799917669859551

> <r_i_glide_ligand_efficiency_ln>
-1.72887931556902

> <r_i_glide_gscore>
-7.55052742543445

> <r_i_glide_lipo>
-3.20310108528511

> <r_i_glide_hbond>
-0.599989698089623

> <r_i_glide_metal>
0

> <r_i_glide_rewards>
-1.86405958203835

> <r_i_glide_evdw>
-32.5400466918945

> <r_i_glide_ecoul>
-5.33780097961426

> <r_i_glide_erotb>
0.552476275845234

> <r_i_glide_esite>
-0.00818085432973821

> <r_i_glide_emodel>
-41.7708316919791

> <r_i_glide_energy>
-37.8778476715088

> <r_i_glide_einternal>
6.86871671676636

> <i_i_glide_confnum>
1

> <i_i_glide_posenum>
34

> <r_i_glide_eff_state_penalty>
0

> <s_user_duplicate_titles>
CHEMBL260_lig78

> <s_m_subgroup_title>
dock_pv

> <s_m_subgroupid>
dock_pv

> <b_m_subgroup_collapsed>
1

$$$$
CHEMBL260_lig1669
                    3D
 Schrodinger Suite 2021-1.
 46 49  0  0  1  0            999 V2000
   -2.8086   -0.8172   20.9736 N   0  0  0  0  0  0
   -2.3348   -1.4422   22.1015 C   0  0  0  0  0  0
   -1.7855   -0.5413   23.0998 C   0  0  0  0  0  0
   -1.7853    0.8150   23.0342 C   0  0  0  0  0  0
   -2.8146    0.5815   20.8318 C   0  0  0  0  0  0
   -2.3125    1.4246   21.8155 C   0  0  0  0  0  0
   -2.4350    2.7095   21.2871 C   0  0  0  0  0  0
   -2.9723    2.7105   20.0902 N   0  0  0  0  0  0
   -3.2358    1.4213   19.8038 N   0  0  0  0  0  0
   -3.2355   -1.6680   19.8759 C   0  0  0  0  0  0
   -2.3501   -2.6594   22.3100 O   0  0  0  0  0  0
   -1.2457    1.6608   23.9849 N   0  0  0  0  0  0
   -3.9343    1.1689   18.6022 C   0  0  0  0  0  0
   -3.3036    1.2873   17.3541 C   0  0  0  0  0  0
   -4.0213    1.0921   16.1770 C   0  0  0  0  0  0
   -5.3764    0.7888   16.2347 C   0  0  0  0  0  0
   -6.0259    0.7249   17.4675 C   0  0  0  0  0  0
   -5.3034    0.8870   18.6491 C   0  0  0  0  0  0
   -0.8008    1.3594   25.2870 C   0  0  0  0  0  0
   -5.9396    0.7766   19.8341 F   0  0  0  0  0  0
   -1.4587    0.3999   26.0706 C   0  0  0  0  0  0
   -0.9725    0.0235   27.3286 C   0  0  0  0  0  0
    0.1454    0.6943   27.8414 C   0  0  0  0  0  0
    0.7650    1.6981   27.1014 C   0  0  0  0  0  0
    0.3136    2.0291   25.8211 C   0  0  0  0  0  0
   -1.6234   -1.1119   28.0803 C   0  0  0  0  0  0
   -2.6441   -1.6697   27.6795 O   0  0  0  0  0  0
    1.0732    3.0869   25.0284 C   0  0  0  0  0  0
   -6.0349    0.4872   15.0974 F   0  0  0  0  0  0
   -0.9610   -1.5124   29.1994 O   0  0  0  0  0  0
   -1.3309   -1.0352   23.9430 H   0  0  0  0  0  0
   -2.1107    3.6191   21.7655 H   0  0  0  0  0  0
   -2.4955   -1.6377   19.0754 H   0  0  0  0  0  0
   -3.3787   -2.7128   20.1555 H   0  0  0  0  0  0
   -4.1833   -1.3162   19.4762 H   0  0  0  0  0  0
   -0.9372    2.5681   23.6734 H   0  0  0  0  0  0
   -2.2609    1.5224   17.2509 H   0  0  0  0  0  0
   -3.5229    1.1490   15.2201 H   0  0  0  0  0  0
   -7.0681    0.4593   17.5225 H   0  0  0  0  0  0
   -2.3399   -0.0866   25.6774 H   0  0  0  0  0  0
    0.5586    0.4428   28.8091 H   0  0  0  0  0  0
    1.6252    2.1986   27.5205 H   0  0  0  0  0  0
    1.9598    3.4426   25.5548 H   0  0  0  0  0  0
    1.4050    2.6770   24.0739 H   0  0  0  0  0  0
    0.4297    3.9403   24.8168 H   0  0  0  0  0  0
   -1.2818   -2.3773   29.4767 H   0  0  0  0  0  0
  1  2  1  0  0  0
  1 10  1  0  0  0
  1  5  1  0  0  0
  2  3  1  0  0  0
  2 11  2  0  0  0
  3  4  2  0  0  0
  3 31  1  0  0  0
  4 12  1  0  0  0
  4  6  1  0  0  0
  5  9  1  0  0  0
  5  6  2  0  0  0
  6  7  1  0  0  0
  7  8  2  0  0  0
  7 32  1  0  0  0
  8  9  1  0  0  0
  9 13  1  0  0  0
 10 33  1  0  0  0
 10 34  1  0  0  0
 10 35  1  0  0  0
 12 19  1  0  0  0
 12 36  1  0  0  0
 13 18  1  0  0  0
 13 14  2  0  0  0
 14 15  1  0  0  0
 14 37  1  0  0  0
 15 16  2  0  0  0
 15 38  1  0  0  0
 16 17  1  0  0  0
 16 29  1  0  0  0
 17 18  2  0  0  0
 17 39  1  0  0  0
 18 20  1  0  0  0
 19 21  2  0  0  0
 19 25  1  0  0  0
 21 22  1  0  0  0
 21 40  1  0  0  0
 22 23  2  0  0  0
 22 26  1  0  0  0
 23 24  1  0  0  0
 23 41  1  0  0  0
 24 25  2  0  0  0
 24 42  1  0  0  0
 25 28  1  0  0  0
 26 27  2  0  0  0
 26 30  1  0  0  0
 28 43  1  0  0  0
 28 44  1  0  0  0
 28 45  1  0  0  0
 30 46  1  0  0  0
M  END
> <s_m_entry_id>
60982

> <s_m_entry_name>
dock_pv.259

> <s_m_Source_Path>
/home/csk/Desktop/cluster/DUD-E-result/mk14

> <s_m_Source_File>
dock_pv.maegz

> <i_m_Source_File_Index>
259

> <chembl_id>
CHEMBL563326

> <chembl_pref_name>
None

> <i_lp_mmshare_version>
53161

> <i_f3d_flags>
0

> <r_lp_tautomer_probability>
1

> <s_lp_Force_Field>
OPLS_2005

> <r_lp_Energy>
46.090734

> <b_lp_Chiralities_Consistent>
1

> <s_lp_Variant>
CHEMBL260_lig1669-1

> <s_i_glide_gridfile>
glide-grid_2qd9

> <i_i_glide_lignum>
1921

> <i_i_glide_rotatable_bonds>
5

> <r_i_docking_score>
-7.5479656107676

> <r_i_glide_ligand_efficiency>
-0.251598853692253

> <r_i_glide_ligand_efficiency_sa>
-0.781776135766974

> <r_i_glide_ligand_efficiency_ln>
-1.71498002843877

> <r_i_glide_gscore>
-7.5479656107676

> <r_i_glide_lipo>
-2.50463874048376

> <r_i_glide_hbond>
0

> <r_i_glide_metal>
0

> <r_i_glide_rewards>
-2.43036862407522

> <r_i_glide_evdw>
-38.222038269043

> <r_i_glide_ecoul>
-7.798415184021

> <r_i_glide_erotb>
0.46790594484668

> <r_i_glide_esite>
0

> <r_i_glide_emodel>
-60.3279637667387

> <r_i_glide_energy>
-46.020453453064

> <r_i_glide_einternal>
6.15326356887817

> <i_i_glide_confnum>
17

> <i_i_glide_posenum>
65

> <r_i_glide_eff_state_penalty>
0

> <s_user_duplicate_titles>
CHEMBL260_lig1669

> <s_m_subgroup_title>
dock_pv

> <s_m_subgroupid>
dock_pv

> <b_m_subgroup_collapsed>
1

$$$$
CHEMBL260_lig1490
                    3D
 Schrodinger Suite 2021-1.
 53 57  0  0  1  0            999 V2000
   -1.9092    2.9000   22.3536 C   0  0  0  0  0  0
   -2.4350    3.1044   21.1559 N   0  0  0  0  0  0
   -2.8350    1.9065   20.7205 C   0  0  0  0  0  0
   -2.4363    0.9039   21.6022 C   0  0  0  0  0  0
   -1.8743    1.5813   22.6466 N   0  0  0  0  0  0
   -3.6513    1.6763   19.4866 C   0  0  0  0  0  0
   -4.8343    0.9448   19.6395 C   0  0  0  0  0  0
   -5.6172    0.6287   18.5358 C   0  0  0  0  0  0
   -5.1810    0.9771   17.2596 C   0  0  0  0  0  0
   -3.9962    1.6869   17.0893 C   0  0  0  0  0  0
   -3.2629    2.0869   18.2068 C   0  0  0  0  0  0
   -2.4246   -0.5750   21.5565 C   0  0  0  0  0  0
   -2.3717   -1.3067   20.3667 C   0  0  0  0  0  0
   -2.0349   -2.6578   20.4419 C   0  0  0  0  0  0
   -1.6835   -3.2617   21.6057 N   0  0  0  0  0  0
   -1.7603   -2.5390   22.7470 C   0  0  0  0  0  0
   -2.2404   -1.2362   22.7663 C   0  0  0  0  0  0
   -5.9166    0.6346   16.1788 F   0  0  0  0  0  0
   -1.2333    4.0823   23.4761 S   0  0  0  0  0  0
    0.3887    4.2367   22.6758 C   0  0  0  0  0  0
   -1.1575   -3.0970   23.8760 N   0  0  0  0  0  0
   -0.9781   -2.3516   25.1279 C   0  0  0  0  0  0
   -0.0574   -1.1145   25.0733 C   0  0  0  0  0  0
    1.5196    1.2285   24.9634 C   0  0  0  0  0  0
    1.5198    0.3280   23.9063 C   0  0  0  0  0  0
    0.7458   -0.8238   23.9627 C   0  0  0  0  0  0
    0.7522    0.9666   26.1238 C   0  0  0  0  0  0
   -0.0393   -0.2252   26.1967 C   0  0  0  0  0  0
   -0.7730   -0.4680   27.3958 C   0  0  0  0  0  0
   -0.7270    0.4300   28.4577 C   0  0  0  0  0  0
    0.0334    1.5880   28.3698 C   0  0  0  0  0  0
    0.7651    1.8636   27.2203 C   0  0  0  0  0  0
   -1.4627    1.1713   23.4734 H   0  0  0  0  0  0
   -5.1505    0.6188   20.6191 H   0  0  0  0  0  0
   -6.5411    0.0827   18.6588 H   0  0  0  0  0  0
   -3.6857    1.9833   16.0977 H   0  0  0  0  0  0
   -2.4350    2.7518   18.0543 H   0  0  0  0  0  0
   -2.5202   -0.8366   19.4060 H   0  0  0  0  0  0
   -1.9889   -3.2671   19.5505 H   0  0  0  0  0  0
   -2.2863   -0.6872   23.6925 H   0  0  0  0  0  0
    0.2828    4.5289   21.6301 H   0  0  0  0  0  0
    0.9881    4.9920   23.1831 H   0  0  0  0  0  0
    0.9298    3.2913   22.7152 H   0  0  0  0  0  0
   -0.5284   -3.8682   23.7073 H   0  0  0  0  0  0
   -0.5835   -3.0308   25.8759 H   0  0  0  0  0  0
   -1.9655   -2.0419   25.4732 H   0  0  0  0  0  0
    2.1246    2.1207   24.9215 H   0  0  0  0  0  0
    2.1267    0.5275   23.0354 H   0  0  0  0  0  0
    0.7647   -1.4908   23.1156 H   0  0  0  0  0  0
   -1.3642   -1.3640   27.5060 H   0  0  0  0  0  0
   -1.2797    0.2216   29.3621 H   0  0  0  0  0  0
    0.0693    2.2720   29.2050 H   0  0  0  0  0  0
    1.3760    2.7539   27.1707 H   0  0  0  0  0  0
  1 19  1  0  0  0
  1  5  1  0  0  0
  1  2  2  0  0  0
  2  3  1  0  0  0
  3  4  2  0  0  0
  3  6  1  0  0  0
  4 12  1  0  0  0
  4  5  1  0  0  0
  5 33  1  0  0  0
  6 11  1  0  0  0
  6  7  2  0  0  0
  7  8  1  0  0  0
  7 34  1  0  0  0
  8  9  2  0  0  0
  8 35  1  0  0  0
  9 18  1  0  0  0
  9 10  1  0  0  0
 10 11  2  0  0  0
 10 36  1  0  0  0
 11 37  1  0  0  0
 12 17  1  0  0  0
 12 13  2  0  0  0
 13 14  1  0  0  0
 13 38  1  0  0  0
 14 15  2  0  0  0
 14 39  1  0  0  0
 15 16  1  0  0  0
 16 17  2  0  0  0
 16 21  1  0  0  0
 17 40  1  0  0  0
 19 20  1  0  0  0
 20 41  1  0  0  0
 20 42  1  0  0  0
 20 43  1  0  0  0
 21 22  1  0  0  0
 21 44  1  0  0  0
 22 23  1  0  0  0
 22 45  1  0  0  0
 22 46  1  0  0  0
 23 28  2  0  0  0
 23 26  1  0  0  0
 24 27  2  0  0  0
 24 25  1  0  0  0
 24 47  1  0  0  0
 25 26  2  0  0  0
 25 48  1  0  0  0
 26 49  1  0  0  0
 27 28  1  0  0  0
 27 32  1  0  0  0
 28 29  1  0  0  0
 29 30  2  0  0  0
 29 50  1  0  0  0
 30 31  1  0  0  0
 30 51  1  0  0  0
 31 32  2  0  0  0
 31 52  1  0  0  0
 32 53  1  0  0  0
M  END
> <s_m_entry_id>
60983

> <s_m_entry_name>
dock_pv.260

> <s_m_Source_Path>
/home/csk/Desktop/cluster/DUD-E-result/mk14

> <s_m_Source_File>
dock_pv.maegz

> <i_m_Source_File_Index>
260

> <chembl_id>
CHEMBL479416

> <chembl_pref_name>
None

> <i_lp_mmshare_version>
53161

> <i_f3d_flags>
0

> <r_lp_tautomer_probability>
0.999999772176425

> <s_lp_Force_Field>
OPLS_2005

> <r_lp_Energy>
20.711719

> <b_lp_Chiralities_Consistent>
1

> <s_lp_Variant>
CHEMBL260_lig1490-1

> <s_i_glide_gridfile>
glide-grid_2qd9

> <i_i_glide_lignum>
1724

> <i_i_glide_rotatable_bonds>
6

> <r_i_docking_score>
-7.53538134953554

> <r_i_glide_ligand_efficiency>
-0.235480667172986

> <r_i_glide_ligand_efficiency_sa>
-0.747604516713475

> <r_i_glide_ligand_efficiency_ln>
-1.68737729089876

> <r_i_glide_gscore>
-7.53538134953554

> <r_i_glide_lipo>
-3.63170072503795

> <r_i_glide_hbond>
-0.18332833375261

> <r_i_glide_metal>
0

> <r_i_glide_rewards>
-1.78087162820949

> <r_i_glide_evdw>
-34.194881439209

> <r_i_glide_ecoul>
-4.78004693984985

> <r_i_glide_erotb>
0.514434166895032

> <r_i_glide_esite>
-0.027163716492599

> <r_i_glide_emodel>
-41.3642301099282

> <r_i_glide_energy>
-38.9749283790588

> <r_i_glide_einternal>
8.52670097351074

> <i_i_glide_confnum>
27

> <i_i_glide_posenum>
194

> <r_i_glide_eff_state_penalty>
0

> <s_user_duplicate_titles>
CHEMBL260_lig1490,467814

> <s_m_subgroup_title>
dock_pv

> <s_m_subgroupid>
dock_pv

> <b_m_subgroup_collapsed>
1

$$$$
CHEMBL260_lig155
                    3D
 Schrodinger Suite 2021-1.
 41 44  0  0  1  0            999 V2000
   -1.4365   -1.2680   23.5332 N   0  0  0  0  0  0
   -1.5419   -2.5676   23.1335 C   0  0  0  0  0  0
   -1.7408   -0.1723   22.7088 C   0  0  0  0  0  0
   -1.0774   -1.0150   24.8855 C   0  0  0  0  0  0
   -2.0810   -0.4292   21.3735 C   0  0  0  0  0  0
   -2.4350    0.5429   20.5346 N   0  0  0  0  0  0
   -1.6350   -2.8082   21.8085 N   0  0  0  0  0  0
   -2.4350    1.8112   20.9750 C   0  0  0  0  0  0
   -2.8350    3.0064   19.7851 S   0  0  0  0  0  0
   -1.7549    1.1616   23.1596 C   0  0  0  0  0  0
   -2.0699   -1.8348   20.8147 C   0  0  0  0  0  0
   -3.5955    2.0414   18.4500 C   0  0  0  0  0  0
    0.2408   -0.6404   25.2099 C   0  0  0  0  0  0
   -2.0439   -1.0775   25.9090 C   0  0  0  0  0  0
   -1.6350   -3.5130   23.8760 O   0  0  0  0  0  0
   -4.8108    1.3500   18.6189 C   0  0  0  0  0  0
   -2.1000    2.1784   22.2760 C   0  0  0  0  0  0
   -5.3738    1.1449   19.8756 N   0  0  0  0  0  0
    1.4855   -0.5482   24.0083 Cl  0  0  0  0  0  0
   -3.6819   -1.5130   25.5839 Cl  0  0  0  0  0  0
   -0.3941   -0.3920   27.5351 C   0  0  0  0  0  0
    0.5631   -0.3130   26.5282 C   0  0  0  0  0  0
   -1.6942   -0.7784   27.2254 C   0  0  0  0  0  0
   -3.0267    2.0870   17.1644 C   0  0  0  0  0  0
   -5.5071    0.8870   17.5022 C   0  0  0  0  0  0
   -3.6961    1.5578   16.0623 C   0  0  0  0  0  0
   -4.9527    0.9829   16.2273 C   0  0  0  0  0  0
   -1.5537   -3.7679   21.5098 H   0  0  0  0  0  0
   -1.4998    1.4223   24.1762 H   0  0  0  0  0  0
   -3.0646   -2.1118   20.4600 H   0  0  0  0  0  0
   -1.3953   -1.8887   19.9584 H   0  0  0  0  0  0
   -2.0986    3.2113   22.5885 H   0  0  0  0  0  0
   -4.7704    1.2870   20.6730 H   0  0  0  0  0  0
   -6.1648    0.5211   19.9377 H   0  0  0  0  0  0
   -0.1245   -0.1556   28.5546 H   0  0  0  0  0  0
    1.5650   -0.0101   26.7849 H   0  0  0  0  0  0
   -2.4341   -0.8390   28.0102 H   0  0  0  0  0  0
   -2.0865    2.5970   17.0085 H   0  0  0  0  0  0
   -6.4695    0.4082   17.6185 H   0  0  0  0  0  0
   -3.2572    1.6278   15.0769 H   0  0  0  0  0  0
   -5.4894    0.5960   15.3731 H   0  0  0  0  0  0
  1  2  1  0  0  0
  1  3  1  0  0  0
  1  4  1  0  0  0
  2  7  1  0  0  0
  2 15  2  0  0  0
  3  5  2  0  0  0
  3 10  1  0  0  0
  4 13  2  0  0  0
  4 14  1  0  0  0
  5  6  1  0  0  0
  5 11  1  0  0  0
  6  8  2  0  0  0
  7 11  1  0  0  0
  7 28  1  0  0  0
  8 17  1  0  0  0
  8  9  1  0  0  0
  9 12  1  0  0  0
 10 17  2  0  0  0
 10 29  1  0  0  0
 11 30  1  0  0  0
 11 31  1  0  0  0
 12 16  1  0  0  0
 12 24  2  0  0  0
 13 19  1  0  0  0
 13 22  1  0  0  0
 14 20  1  0  0  0
 14 23  2  0  0  0
 16 18  1  0  0  0
 16 25  2  0  0  0
 17 32  1  0  0  0
 18 33  1  0  0  0
 18 34  1  0  0  0
 21 23  1  0  0  0
 21 22  2  0  0  0
 21 35  1  0  0  0
 22 36  1  0  0  0
 23 37  1  0  0  0
 24 26  1  0  0  0
 24 38  1  0  0  0
 25 27  1  0  0  0
 25 39  1  0  0  0
 26 27  2  0  0  0
 26 40  1  0  0  0
 27 41  1  0  0  0
M  END
> <s_m_entry_id>
60984

> <s_m_entry_name>
dock_pv.261

> <s_m_Source_Path>
/home/csk/Desktop/cluster/DUD-E-result/mk14

> <s_m_Source_File>
dock_pv.maegz

> <i_m_Source_File_Index>
261

> <chembl_id>
CHEMBL128257

> <chembl_pref_name>
None

> <i_lp_mmshare_version>
53161

> <i_f3d_flags>
0

> <r_lp_tautomer_probability>
1

> <s_lp_Force_Field>
OPLS_2005

> <r_lp_Energy>
41.513832

> <b_lp_Chiralities_Consistent>
1

> <s_lp_Variant>
CHEMBL260_lig155-1

> <s_i_glide_gridfile>
glide-grid_2qd9

> <i_i_glide_lignum>
172

> <i_i_glide_rotatable_bonds>
3

> <r_i_docking_score>
-7.53412653727707

> <r_i_glide_ligand_efficiency>
-0.279041723602855

> <r_i_glide_ligand_efficiency_sa>
-0.837125169888888

> <r_i_glide_ligand_efficiency_ln>
-1.75382044809461

> <r_i_glide_gscore>
-7.53412653727707

> <r_i_glide_lipo>
-3.21981583358821

> <r_i_glide_hbond>
-0.466878291853151

> <r_i_glide_metal>
0

> <r_i_glide_rewards>
-1.25204287310737

> <r_i_glide_evdw>
-29.6248455047607

> <r_i_glide_ecoul>
-9.69742202758789

> <r_i_glide_erotb>
0.340466040647878

> <r_i_glide_esite>
0

> <r_i_glide_emodel>
-50.7544987868852

> <r_i_glide_energy>
-39.3222675323486

> <r_i_glide_einternal>
2.93449354171753

> <i_i_glide_confnum>
11

> <i_i_glide_posenum>
55

> <r_i_glide_eff_state_penalty>
0

> <s_user_duplicate_titles>
CHEMBL260_lig155

> <s_m_subgroup_title>
dock_pv

> <s_m_subgroupid>
dock_pv

> <b_m_subgroup_collapsed>
1

$$$$
CHEMBL260_lig146
                    3D
 Schrodinger Suite 2021-1.
 45 48  0  0  1  0            999 V2000
   -1.4294   -1.2675   23.5589 N   0  0  0  0  0  0
   -1.0759   -1.0320   24.9127 C   0  0  0  0  0  0
   -1.5396   -2.5606   23.1430 C   0  0  0  0  0  0
   -1.7279   -0.1569   22.7524 C   0  0  0  0  0  0
   -2.0775   -0.3948   21.4178 C   0  0  0  0  0  0
   -2.0508   -1.0732   25.9258 C   0  0  0  0  0  0
    0.2422   -0.6742   25.2425 C   0  0  0  0  0  0
   -2.4350    0.5906   20.5980 N   0  0  0  0  0  0
   -1.6350   -2.7822   21.8150 N   0  0  0  0  0  0
   -0.4202   -0.3233   27.5625 C   0  0  0  0  0  0
   -2.4350    1.8546   21.0537 C   0  0  0  0  0  0
   -0.1069    0.0975   28.9655 C   0  0  0  0  0  0
    0.5523   -0.3130   26.5528 C   0  0  0  0  0  0
   -1.7165   -0.7360   27.2360 C   0  0  0  0  0  0
   -1.7294    1.1726   23.2195 C   0  0  0  0  0  0
   -2.0753   -1.7928   20.8388 C   0  0  0  0  0  0
   -2.8350    3.0642   19.8760 S   0  0  0  0  0  0
   -1.6350   -3.5130   23.8760 O   0  0  0  0  0  0
   -0.8724   -0.0850   29.9164 O   0  0  0  0  0  0
   -3.6862   -1.5130   25.5928 Cl  0  0  0  0  0  0
    1.5015   -0.6278   24.0535 Cl  0  0  0  0  0  0
   -2.0796    2.2035   22.3529 C   0  0  0  0  0  0
   -3.6350    2.0870   18.5978 C   0  0  0  0  0  0
    1.0588    0.7786   29.0571 O   0  0  0  0  0  0
   -5.0862    0.8989   16.5402 C   0  0  0  0  0  0
   -5.8023    0.3381   15.5403 F   0  0  0  0  0  0
   -3.1343    2.0865   17.2888 C   0  0  0  0  0  0
   -4.8350    1.4372   18.8805 C   0  0  0  0  0  0
   -5.5825    0.8870   17.8423 C   0  0  0  0  0  0
   -3.8534    1.4809   16.2622 C   0  0  0  0  0  0
    1.5144    1.2870   30.3010 C   0  0  0  0  0  0
   -1.5599   -3.7380   21.5028 H   0  0  0  0  0  0
    1.5650   -0.0165   26.7773 H   0  0  0  0  0  0
   -2.4869   -0.7719   27.9946 H   0  0  0  0  0  0
   -1.4633    1.4195   24.2367 H   0  0  0  0  0  0
   -1.4080   -1.8362   19.9763 H   0  0  0  0  0  0
   -3.0737   -2.0619   20.4886 H   0  0  0  0  0  0
   -2.0699    3.2320   22.6795 H   0  0  0  0  0  0
   -2.2055    2.5897   17.0608 H   0  0  0  0  0  0
   -5.2323    1.4341   19.8853 H   0  0  0  0  0  0
   -6.5396    0.4273   18.0448 H   0  0  0  0  0  0
   -3.4749    1.4899   15.2503 H   0  0  0  0  0  0
    2.5128    1.7084   30.1813 H   0  0  0  0  0  0
    1.5650    0.4990   31.0541 H   0  0  0  0  0  0
    0.8521    2.0728   30.6663 H   0  0  0  0  0  0
  1  2  1  0  0  0
  1  3  1  0  0  0
  1  4  1  0  0  0
  2  6  1  0  0  0
  2  7  2  0  0  0
  3  9  1  0  0  0
  3 18  2  0  0  0
  4  5  2  0  0  0
  4 15  1  0  0  0
  5  8  1  0  0  0
  5 16  1  0  0  0
  6 14  2  0  0  0
  6 20  1  0  0  0
  7 13  1  0  0  0
  7 21  1  0  0  0
  8 11  2  0  0  0
  9 16  1  0  0  0
  9 32  1  0  0  0
 10 13  2  0  0  0
 10 12  1  0  0  0
 10 14  1  0  0  0
 11 22  1  0  0  0
 11 17  1  0  0  0
 12 19  2  0  0  0
 12 24  1  0  0  0
 13 33  1  0  0  0
 14 34  1  0  0  0
 15 22  2  0  0  0
 15 35  1  0  0  0
 16 36  1  0  0  0
 16 37  1  0  0  0
 17 23  1  0  0  0
 22 38  1  0  0  0
 23 27  1  0  0  0
 23 28  2  0  0  0
 24 31  1  0  0  0
 25 29  2  0  0  0
 25 26  1  0  0  0
 25 30  1  0  0  0
 27 30  2  0  0  0
 27 39  1  0  0  0
 28 29  1  0  0  0
 28 40  1  0  0  0
 29 41  1  0  0  0
 30 42  1  0  0  0
 31 43  1  0  0  0
 31 44  1  0  0  0
 31 45  1  0  0  0
M  END
> <s_m_entry_id>
60985

> <s_m_entry_name>
dock_pv.262

> <s_m_Source_Path>
/home/csk/Desktop/cluster/DUD-E-result/mk14

> <s_m_Source_File>
dock_pv.maegz

> <i_m_Source_File_Index>
262

> <chembl_id>
CHEMBL129628

> <chembl_pref_name>
None

> <i_lp_mmshare_version>
53161

> <i_f3d_flags>
0

> <r_lp_tautomer_probability>
1

> <s_lp_Force_Field>
OPLS_2005

> <r_lp_Energy>
43.191625

> <b_lp_Chiralities_Consistent>
1

> <s_lp_Variant>
CHEMBL260_lig146-1

> <s_i_glide_gridfile>
glide-grid_2qd9

> <i_i_glide_lignum>
163

> <i_i_glide_rotatable_bonds>
5

> <r_i_docking_score>
-7.52578124637679

> <r_i_glide_ligand_efficiency>
-0.242767136979896

> <r_i_glide_ligand_efficiency_sa>
-0.76262398627215

> <r_i_glide_ligand_efficiency_ln>
-1.69729430855465

> <r_i_glide_gscore>
-7.52578124637679

> <r_i_glide_lipo>
-3.1589585066487

> <r_i_glide_hbond>
-0.466877739835017

> <r_i_glide_metal>
0

> <r_i_glide_rewards>
-1.21558337704052

> <r_i_glide_evdw>
-35.0949249267578

> <r_i_glide_ecoul>
-8.55922698974609

> <r_i_glide_erotb>
0.354268671947258

> <r_i_glide_esite>
0

> <r_i_glide_emodel>
-54.7247108111605

> <r_i_glide_energy>
-43.6541519165039

> <r_i_glide_einternal>
2.55392622947693

> <i_i_glide_confnum>
7

> <i_i_glide_posenum>
227

> <r_i_glide_eff_state_penalty>
0

> <s_user_duplicate_titles>
CHEMBL260_lig146,213644

> <s_m_subgroup_title>
dock_pv

> <s_m_subgroupid>
dock_pv

> <b_m_subgroup_collapsed>
1

$$$$
CHEMBL260_lig154
                    3D
 Schrodinger Suite 2021-1.
 39 42  0  0  1  0            999 V2000
   -3.2111    1.5215   19.8677 N   0  0  0  0  0  0
   -2.7185    2.7486   20.2544 C   0  0  0  0  0  0
   -2.9911    0.3480   20.6430 C   0  0  0  0  0  0
   -2.6738    0.4913   22.0007 C   0  0  0  0  0  0
   -2.4467   -0.5563   22.8082 N   0  0  0  0  0  0
   -2.4350    2.8972   21.5657 N   0  0  0  0  0  0
   -3.8720    1.4021   18.5942 C   0  0  0  0  0  0
   -2.4508   -1.8015   22.2925 C   0  0  0  0  0  0
   -3.0012   -0.9567   20.1195 C   0  0  0  0  0  0
   -2.4892    1.8645   22.5988 C   0  0  0  0  0  0
   -2.0347   -3.1128   23.3946 S   0  0  0  0  0  0
   -2.4351    3.6912   19.5198 O   0  0  0  0  0  0
   -5.2002    0.9494   18.4968 C   0  0  0  0  0  0
   -2.7269   -2.0500   20.9482 C   0  0  0  0  0  0
   -1.6394   -2.2416   24.8881 C   0  0  0  0  0  0
   -1.0408   -0.7423   27.1442 C   0  0  0  0  0  0
   -6.1173    0.4870   19.8760 Cl  0  0  0  0  0  0
   -0.7484   -0.0137   28.2440 F   0  0  0  0  0  0
   -0.3315   -1.8109   25.1023 C   0  0  0  0  0  0
   -2.6518   -1.9133   25.7923 C   0  0  0  0  0  0
   -2.3481   -1.1713   26.9300 C   0  0  0  0  0  0
   -0.0349   -1.0533   26.2327 C   0  0  0  0  0  0
   -3.2349    1.7612   17.3882 C   0  0  0  0  0  0
   -5.8350    0.8869   17.2562 C   0  0  0  0  0  0
   -3.8676    1.6788   16.1513 C   0  0  0  0  0  0
   -5.1786    1.2360   16.0835 C   0  0  0  0  0  0
   -1.9850    3.7651   21.8076 H   0  0  0  0  0  0
   -3.2033   -1.1268   19.0762 H   0  0  0  0  0  0
   -1.5541    1.9001   23.1611 H   0  0  0  0  0  0
   -3.2967    2.0851   23.2986 H   0  0  0  0  0  0
   -2.7182   -3.0556   20.5529 H   0  0  0  0  0  0
    0.4505   -2.0482   24.3950 H   0  0  0  0  0  0
   -3.6673   -2.2298   25.6113 H   0  0  0  0  0  0
   -3.1192   -0.9242   27.6430 H   0  0  0  0  0  0
    0.9752   -0.7127   26.4085 H   0  0  0  0  0  0
   -2.2521    2.1894   17.3709 H   0  0  0  0  0  0
   -6.8351    0.5076   17.2002 H   0  0  0  0  0  0
   -3.3469    1.9767   15.2518 H   0  0  0  0  0  0
   -5.6804    1.1628   15.1300 H   0  0  0  0  0  0
  1  2  1  0  0  0
  1  3  1  0  0  0
  1  7  1  0  0  0
  2  6  1  0  0  0
  2 12  2  0  0  0
  3  4  2  0  0  0
  3  9  1  0  0  0
  4  5  1  0  0  0
  4 10  1  0  0  0
  5  8  2  0  0  0
  6 10  1  0  0  0
  6 27  1  0  0  0
  7 13  1  0  0  0
  7 23  2  0  0  0
  8 14  1  0  0  0
  8 11  1  0  0  0
  9 14  2  0  0  0
  9 28  1  0  0  0
 10 29  1  0  0  0
 10 30  1  0  0  0
 11 15  1  0  0  0
 13 17  1  0  0  0
 13 24  2  0  0  0
 14 31  1  0  0  0
 15 19  1  0  0  0
 15 20  2  0  0  0
 16 21  2  0  0  0
 16 18  1  0  0  0
 16 22  1  0  0  0
 19 22  2  0  0  0
 19 32  1  0  0  0
 20 21  1  0  0  0
 20 33  1  0  0  0
 21 34  1  0  0  0
 22 35  1  0  0  0
 23 25  1  0  0  0
 23 36  1  0  0  0
 24 26  1  0  0  0
 24 37  1  0  0  0
 25 26  2  0  0  0
 25 38  1  0  0  0
 26 39  1  0  0  0
M  END
> <s_m_entry_id>
60986

> <s_m_entry_name>
dock_pv.263

> <s_m_Source_Path>
/home/csk/Desktop/cluster/DUD-E-result/mk14

> <s_m_Source_File>
dock_pv.maegz

> <i_m_Source_File_Index>
263

> <chembl_id>
CHEMBL338612

> <chembl_pref_name>
None

> <i_lp_mmshare_version>
53161

> <i_f3d_flags>
0

> <r_lp_tautomer_probability>
1

> <s_lp_Force_Field>
OPLS_2005

> <r_lp_Energy>
41.330393

> <b_lp_Chiralities_Consistent>
1

> <s_lp_Variant>
CHEMBL260_lig154-1

> <s_i_glide_gridfile>
glide-grid_2qd9

> <i_i_glide_lignum>
171

> <i_i_glide_rotatable_bonds>
3

> <r_i_docking_score>
-7.51628785179511

> <r_i_glide_ligand_efficiency>
-0.289087994299812

> <r_i_glide_ligand_efficiency_sa>
-0.856422045606864

> <r_i_glide_ligand_efficiency_ln>
-1.76517553904204

> <r_i_glide_gscore>
-7.51628785179511

> <r_i_glide_lipo>
-4.02839529936487

> <r_i_glide_hbond>
0

> <r_i_glide_metal>
0

> <r_i_glide_rewards>
-1.22528470624833

> <r_i_glide_evdw>
-36.2883567810059

> <r_i_glide_ecoul>
-5.4122838973999

> <r_i_glide_erotb>
0.392085259480452

> <r_i_glide_esite>
-0.0284326820020932

> <r_i_glide_emodel>
-51.6656355047873

> <r_i_glide_energy>
-41.7006406784058

> <r_i_glide_einternal>
3.59601426124573

> <i_i_glide_confnum>
11

> <i_i_glide_posenum>
169

> <r_i_glide_eff_state_penalty>
0

> <s_user_duplicate_titles>
CHEMBL260_lig154,213116

> <s_m_subgroup_title>
dock_pv

> <s_m_subgroupid>
dock_pv

> <b_m_subgroup_collapsed>
1

$$$$
CHEMBL260_lig1866
                    3D
 Schrodinger Suite 2021-1.
 46 50  0  0  1  0            999 V2000
   -3.2526    0.5616   19.9453 N   0  0  0  0  0  0
   -2.6327    1.1705   21.9031 C   0  0  0  0  0  0
   -3.2343    1.5848   20.8184 N   0  0  0  0  0  0
   -2.1566   -0.1726   21.7659 C   0  0  0  0  0  0
   -2.6222   -0.5519   20.4833 C   0  0  0  0  0  0
   -2.4007   -1.8509   20.0343 C   0  0  0  0  0  0
   -1.7509   -2.7441   20.8184 N   0  0  0  0  0  0
   -1.2937   -2.4006   22.0281 N   0  0  0  0  0  0
   -1.4361   -1.1407   22.5107 C   0  0  0  0  0  0
   -3.9376    0.7135   18.7242 C   0  0  0  0  0  0
   -5.3369    0.7112   18.7145 C   0  0  0  0  0  0
   -6.0261    0.8870   17.5152 C   0  0  0  0  0  0
   -5.3312    1.0940   16.3246 C   0  0  0  0  0  0
   -3.9383    1.1049   16.3298 C   0  0  0  0  0  0
   -3.2425    0.9067   17.5223 C   0  0  0  0  0  0
   -0.8304   -0.9463   23.7642 N   0  0  0  0  0  0
   -0.2956    0.1802   24.4152 C   0  0  0  0  0  0
   -0.0920    1.3773   23.7320 C   0  0  0  0  0  0
    0.3991    2.5157   24.3684 C   0  0  0  0  0  0
    0.7932    2.4276   25.7086 C   0  0  0  0  0  0
    0.6362    1.2261   26.4008 C   0  0  0  0  0  0
    0.0741    0.1132   25.7691 C   0  0  0  0  0  0
    0.4503    3.8050   23.5977 C   0  0  0  0  0  0
   -0.4872    4.1260   22.8657 O   0  0  0  0  0  0
    1.5650    4.5303   23.7338 N   0  0  0  0  0  0
    1.8589    5.7178   22.9414 C   0  0  0  0  0  0
   -0.1485   -1.3351   26.6917 Cl  0  0  0  0  0  0
   -6.0349    0.4888   19.8495 F   0  0  0  0  0  0
    1.2083    7.0277   23.3153 C   0  0  0  0  0  0
    2.6857    6.8121   23.5693 C   0  0  0  0  0  0
   -3.2603    1.2867   15.1765 F   0  0  0  0  0  0
   -2.5379    1.8282   22.7540 H   0  0  0  0  0  0
   -2.7342   -2.1987   19.0760 H   0  0  0  0  0  0
   -7.1008    0.8541   17.5208 H   0  0  0  0  0  0
   -5.8688    1.2303   15.3987 H   0  0  0  0  0  0
   -2.1685    0.8870   17.4761 H   0  0  0  0  0  0
   -0.5403   -1.8137   24.1911 H   0  0  0  0  0  0
   -0.2952    1.4296   22.6766 H   0  0  0  0  0  0
    1.2048    3.2813   26.2280 H   0  0  0  0  0  0
    0.9425    1.1626   27.4357 H   0  0  0  0  0  0
    2.3786    4.0373   24.0884 H   0  0  0  0  0  0
    1.9939    5.5125   21.8771 H   0  0  0  0  0  0
    0.5167    7.0443   24.1593 H   0  0  0  0  0  0
    0.8942    7.6928   22.5096 H   0  0  0  0  0  0
    3.4170    7.3234   22.9429 H   0  0  0  0  0  0
    3.0423    6.6724   24.5899 H   0  0  0  0  0  0
  1 10  1  0  0  0
  1  3  1  0  0  0
  1  5  1  0  0  0
  2  4  1  0  0  0
  2  3  2  0  0  0
  2 32  1  0  0  0
  4  9  1  0  0  0
  4  5  2  0  0  0
  5  6  1  0  0  0
  6  7  2  0  0  0
  6 33  1  0  0  0
  7  8  1  0  0  0
  8  9  2  0  0  0
  9 16  1  0  0  0
 10 15  1  0  0  0
 10 11  2  0  0  0
 11 12  1  0  0  0
 11 28  1  0  0  0
 12 13  2  0  0  0
 12 34  1  0  0  0
 13 14  1  0  0  0
 13 35  1  0  0  0
 14 15  2  0  0  0
 14 31  1  0  0  0
 15 36  1  0  0  0
 16 17  1  0  0  0
 16 37  1  0  0  0
 17 18  2  0  0  0
 17 22  1  0  0  0
 18 19  1  0  0  0
 18 38  1  0  0  0
 19 20  2  0  0  0
 19 23  1  0  0  0
 20 21  1  0  0  0
 20 39  1  0  0  0
 21 22  2  0  0  0
 21 40  1  0  0  0
 22 27  1  0  0  0
 23 24  2  0  0  0
 23 25  1  0  0  0
 25 26  1  0  0  0
 25 41  1  0  0  0
 26 29  1  0  0  0
 26 30  1  0  0  0
 26 42  1  0  0  0
 29 30  1  0  0  0
 29 43  1  0  0  0
 29 44  1  0  0  0
 30 45  1  0  0  0
 30 46  1  0  0  0
M  END
> <s_m_entry_id>
60987

> <s_m_entry_name>
dock_pv.264

> <s_m_Source_Path>
/home/csk/Desktop/cluster/DUD-E-result/mk14

> <s_m_Source_File>
dock_pv.maegz

> <i_m_Source_File_Index>
264

> <chembl_id>
CHEMBL1081990

> <chembl_pref_name>
None

> <i_lp_mmshare_version>
53161

> <i_f3d_flags>
0

> <r_lp_tautomer_probability>
1

> <s_lp_Force_Field>
OPLS_2005

> <r_lp_Energy>
48.27

> <b_lp_Chiralities_Consistent>
1

> <s_lp_Variant>
CHEMBL260_lig1866-1

> <s_i_glide_gridfile>
glide-grid_2qd9

> <i_i_glide_lignum>
2187

> <i_i_glide_rotatable_bonds>
6

> <r_i_docking_score>
-7.51218797408674

> <r_i_glide_ligand_efficiency>
-0.242328644325379

> <r_i_glide_ligand_efficiency_sa>
-0.761246513932609

> <r_i_glide_ligand_efficiency_ln>
-1.69422860906948

> <r_i_glide_gscore>
-7.51218797408674

> <r_i_glide_lipo>
-3.00986847840473

> <r_i_glide_hbond>
-0.32

> <r_i_glide_metal>
0

> <r_i_glide_rewards>
-1.64306103759431

> <r_i_glide_evdw>
-42.8308639526367

> <r_i_glide_ecoul>
-6.14246606826782

> <r_i_glide_erotb>
0.616566922660128

> <r_i_glide_esite>
-0.0929122728758138

> <r_i_glide_emodel>
-65.332563002044

> <r_i_glide_energy>
-48.9733300209045

> <r_i_glide_einternal>
8.62762641906738

> <i_i_glide_confnum>
58

> <i_i_glide_posenum>
62

> <r_i_glide_eff_state_penalty>
0

> <s_user_duplicate_titles>
CHEMBL260_lig1866,612776

> <s_m_subgroup_title>
dock_pv

> <s_m_subgroupid>
dock_pv

> <b_m_subgroup_collapsed>
1

$$$$
CHEMBL260_lig151
                    3D
 Schrodinger Suite 2021-1.
 39 42  0  0  1  0            999 V2000
   -1.4255   -1.2538   23.5758 N   0  0  0  0  0  0
   -1.5335   -2.5489   23.1569 C   0  0  0  0  0  0
   -1.7279   -0.1431   22.7679 C   0  0  0  0  0  0
   -1.0686   -1.0176   24.9310 C   0  0  0  0  0  0
   -2.0773   -0.3818   21.4332 C   0  0  0  0  0  0
   -2.4350    0.6018   20.6113 N   0  0  0  0  0  0
   -1.6332   -2.7674   21.8290 N   0  0  0  0  0  0
   -2.4350    1.8674   21.0618 C   0  0  0  0  0  0
   -2.8350    3.0735   19.8760 S   0  0  0  0  0  0
   -1.7315    1.1879   23.2315 C   0  0  0  0  0  0
   -2.0737   -1.7789   20.8536 C   0  0  0  0  0  0
   -3.6470    2.0870   18.6069 C   0  0  0  0  0  0
    0.2479   -0.6412   25.2606 C   0  0  0  0  0  0
   -2.0382   -1.0837   25.9510 C   0  0  0  0  0  0
   -1.6350   -3.5130   23.8760 O   0  0  0  0  0  0
   -3.2350    2.0870   17.2564 C   0  0  0  0  0  0
   -2.0808    2.2179   22.3616 C   0  0  0  0  0  0
   -3.6760   -1.5130   25.6181 Cl  0  0  0  0  0  0
    1.4965   -0.5447   24.0635 Cl  0  0  0  0  0  0
   -2.1727    2.8210   16.8459 F   0  0  0  0  0  0
   -0.3952   -0.3978   27.5840 C   0  0  0  0  0  0
   -4.8350    1.4345   18.9458 C   0  0  0  0  0  0
   -1.6931   -0.7880   27.2694 C   0  0  0  0  0  0
    0.5648   -0.3130   26.5802 C   0  0  0  0  0  0
   -4.0129    1.4648   16.2791 C   0  0  0  0  0  0
   -5.6435    0.8870   17.9538 C   0  0  0  0  0  0
   -5.2315    0.8870   16.6232 C   0  0  0  0  0  0
   -1.5558   -3.7227   21.5157 H   0  0  0  0  0  0
   -1.4659    1.4363   24.2484 H   0  0  0  0  0  0
   -1.4058   -1.8214   19.9915 H   0  0  0  0  0  0
   -3.0717   -2.0489   20.5029 H   0  0  0  0  0  0
   -2.0709    3.2470   22.6860 H   0  0  0  0  0  0
   -0.1297   -0.1623   28.6048 H   0  0  0  0  0  0
   -5.1820    1.4321   19.9692 H   0  0  0  0  0  0
   -2.4355   -0.8514   28.0516 H   0  0  0  0  0  0
    1.5650   -0.0069   26.8404 H   0  0  0  0  0  0
   -3.7014    1.4933   15.2447 H   0  0  0  0  0  0
   -6.5885    0.4335   18.2194 H   0  0  0  0  0  0
   -5.8576    0.4416   15.8632 H   0  0  0  0  0  0
  1  2  1  0  0  0
  1  3  1  0  0  0
  1  4  1  0  0  0
  2  7  1  0  0  0
  2 15  2  0  0  0
  3  5  2  0  0  0
  3 10  1  0  0  0
  4 13  2  0  0  0
  4 14  1  0  0  0
  5  6  1  0  0  0
  5 11  1  0  0  0
  6  8  2  0  0  0
  7 11  1  0  0  0
  7 28  1  0  0  0
  8 17  1  0  0  0
  8  9  1  0  0  0
  9 12  1  0  0  0
 10 17  2  0  0  0
 10 29  1  0  0  0
 11 30  1  0  0  0
 11 31  1  0  0  0
 12 16  2  0  0  0
 12 22  1  0  0  0
 13 19  1  0  0  0
 13 24  1  0  0  0
 14 18  1  0  0  0
 14 23  2  0  0  0
 16 20  1  0  0  0
 16 25  1  0  0  0
 17 32  1  0  0  0
 21 23  1  0  0  0
 21 24  2  0  0  0
 21 33  1  0  0  0
 22 26  2  0  0  0
 22 34  1  0  0  0
 23 35  1  0  0  0
 24 36  1  0  0  0
 25 27  2  0  0  0
 25 37  1  0  0  0
 26 27  1  0  0  0
 26 38  1  0  0  0
 27 39  1  0  0  0
M  END
> <s_m_entry_id>
60988

> <s_m_entry_name>
dock_pv.265

> <s_m_Source_Path>
/home/csk/Desktop/cluster/DUD-E-result/mk14

> <s_m_Source_File>
dock_pv.maegz

> <i_m_Source_File_Index>
265

> <chembl_id>
CHEMBL340377

> <chembl_pref_name>
None

> <i_lp_mmshare_version>
53161

> <i_f3d_flags>
0

> <r_lp_tautomer_probability>
1

> <s_lp_Force_Field>
OPLS_2005

> <r_lp_Energy>
40.270074

> <b_lp_Chiralities_Consistent>
1

> <s_lp_Variant>
CHEMBL260_lig151-1

> <s_i_glide_gridfile>
glide-grid_2qd9

> <i_i_glide_lignum>
168

> <i_i_glide_rotatable_bonds>
3

> <r_i_docking_score>
-7.5053080910179

> <r_i_glide_ligand_efficiency>
-0.277974373741404

> <r_i_glide_ligand_efficiency_sa>
-0.833923120308053

> <r_i_glide_ligand_efficiency_ln>
-1.7471119889147

> <r_i_glide_gscore>
-7.5053080910179

> <r_i_glide_lipo>
-3.24198835792623

> <r_i_glide_hbond>
-0.466878043704712

> <r_i_glide_metal>
0

> <r_i_glide_rewards>
-1.1821724204426

> <r_i_glide_evdw>
-29.8354606628418

> <r_i_glide_ecoul>
-9.45974349975586

> <r_i_glide_erotb>
0.336121859890697

> <r_i_glide_esite>
-0.0396565707295822

> <r_i_glide_emodel>
-55.5297705385424

> <r_i_glide_energy>
-39.2952041625977

> <r_i_glide_einternal>
0.979448437690735

> <i_i_glide_confnum>
4

> <i_i_glide_posenum>
23

> <r_i_glide_eff_state_penalty>
0

> <s_user_duplicate_titles>
CHEMBL260_lig151,213265

> <s_m_subgroup_title>
dock_pv

> <s_m_subgroupid>
dock_pv

> <b_m_subgroup_collapsed>
1

$$$$
CHEMBL260_lig1830
                    3D
 Schrodinger Suite 2021-1.
 63 66  0  0  1  0            999 V2000
    1.1952    4.8220   25.6790 C   0  0  0  0  0  0
    0.7775    5.3882   24.2477 C   0  0  0  0  0  0
    1.6469    5.6283   26.4970 O   0  0  0  0  0  0
   -0.4041    5.2993   23.8928 O   0  0  0  0  0  0
    1.7680    5.9788   23.5203 N   0  0  0  0  0  0
    1.4624    6.6517   22.2587 C   0  0  0  0  0  0
    3.1928    6.0789   23.8708 C   0  0  0  0  0  0
    0.9303    3.3772   25.9982 C   0  0  0  0  0  0
   -3.6057    1.4110   16.4183 C   0  0  0  0  0  0
   -3.3161    0.8871   17.6731 C   0  0  0  0  0  0
   -4.3333    0.6589   18.6095 C   0  0  0  0  0  0
   -5.6558    0.8867   18.2420 C   0  0  0  0  0  0
   -5.9441    1.3814   16.9800 C   0  0  0  0  0  0
   -4.9252    1.6847   16.0961 C   0  0  0  0  0  0
   -4.0829    0.1083   20.0100 C   0  0  0  0  0  0
   -2.6305    0.1956   20.5528 C   0  0  0  0  0  0
   -2.5891    0.7771   21.9859 C   0  0  0  0  0  0
   -1.9291   -1.1909   20.5182 C   0  0  0  0  0  0
   -2.4110   -2.1620   21.6270 C   0  0  0  0  0  0
   -2.1988   -1.4499   22.8992 N   0  0  0  0  0  0
   -3.0070   -0.2292   23.0757 C   0  0  0  0  0  0
   -1.3371   -1.9279   23.8387 C   0  0  0  0  0  0
   -0.7981   -0.9825   24.7990 C   0  0  0  0  0  0
   -1.0069   -3.1125   23.8759 O   0  0  0  0  0  0
   -0.9447   -1.2681   26.3081 C   0  0  1  0  0  0
    0.0532   -0.5672   27.0962 O   0  0  0  0  0  0
   -0.1533    0.1308   24.4001 C   0  0  0  0  0  0
    0.3175    1.1093   25.3689 C   0  0  0  0  0  0
    0.3646    0.7245   26.7092 C   0  0  0  0  0  0
    0.7617    1.6279   27.6879 C   0  0  0  0  0  0
    1.0480    2.9465   27.3305 C   0  0  0  0  0  0
    0.5876    2.4320   25.0141 C   0  0  0  0  0  0
   -2.3798   -1.0166   26.8362 C   0  0  0  0  0  0
   -2.4458   -1.1988   28.1547 F   0  0  0  0  0  0
   -2.8062    0.2225   26.5834 F   0  0  0  0  0  0
   -3.2559   -1.8584   26.2863 F   0  0  0  0  0  0
   -5.2349    2.2900   14.9396 F   0  0  0  0  0  0
    2.1205    6.2746   21.4768 H   0  0  0  0  0  0
    1.6317    7.7258   22.3516 H   0  0  0  0  0  0
    0.4361    6.4976   21.9206 H   0  0  0  0  0  0
    3.4935    5.4097   24.6757 H   0  0  0  0  0  0
    3.8184    5.8247   23.0111 H   0  0  0  0  0  0
    3.4363    7.1006   24.1723 H   0  0  0  0  0  0
   -2.8190    1.6049   15.7031 H   0  0  0  0  0  0
   -2.3073    0.5931   17.8767 H   0  0  0  0  0  0
   -6.4632    0.6962   18.9348 H   0  0  0  0  0  0
   -6.9466    1.6490   16.7096 H   0  0  0  0  0  0
   -4.4350   -0.9204   20.0145 H   0  0  0  0  0  0
   -4.7550    0.6491   20.6761 H   0  0  0  0  0  0
   -2.0350    0.8924   19.9748 H   0  0  0  0  0  0
   -3.2132    1.6697   22.0529 H   0  0  0  0  0  0
   -1.5896    1.1544   22.1910 H   0  0  0  0  0  0
   -0.8492   -1.0589   20.6077 H   0  0  0  0  0  0
   -2.0738   -1.6572   19.5411 H   0  0  0  0  0  0
   -1.9062   -3.1281   21.5809 H   0  0  0  0  0  0
   -3.4774   -2.3692   21.5242 H   0  0  0  0  0  0
   -4.0432   -0.5243   22.9193 H   0  0  0  0  0  0
   -2.9770    0.1825   24.0836 H   0  0  0  0  0  0
   -0.7125   -2.3132   26.4788 H   0  0  0  0  0  0
    0.0161    0.3149   23.3498 H   0  0  0  0  0  0
    0.8498    1.3096   28.7156 H   0  0  0  0  0  0
    1.3504    3.6297   28.1114 H   0  0  0  0  0  0
    0.5125    2.7125   23.9731 H   0  0  0  0  0  0
  1  2  1  0  0  0
  1  8  1  0  0  0
  1  3  2  0  0  0
  2  4  2  0  0  0
  2  5  1  0  0  0
  5  6  1  0  0  0
  5  7  1  0  0  0
  6 38  1  0  0  0
  6 39  1  0  0  0
  6 40  1  0  0  0
  7 41  1  0  0  0
  7 42  1  0  0  0
  7 43  1  0  0  0
  8 31  1  0  0  0
  8 32  2  0  0  0
  9 14  1  0  0  0
  9 10  2  0  0  0
  9 44  1  0  0  0
 10 11  1  0  0  0
 10 45  1  0  0  0
 11 12  2  0  0  0
 11 15  1  0  0  0
 12 13  1  0  0  0
 12 46  1  0  0  0
 13 14  2  0  0  0
 13 47  1  0  0  0
 14 37  1  0  0  0
 15 16  1  0  0  0
 15 48  1  0  0  0
 15 49  1  0  0  0
 16 17  1  0  0  0
 16 18  1  0  0  0
 16 50  1  0  0  0
 17 21  1  0  0  0
 17 51  1  0  0  0
 17 52  1  0  0  0
 18 19  1  0  0  0
 18 53  1  0  0  0
 18 54  1  0  0  0
 19 20  1  0  0  0
 19 55  1  0  0  0
 19 56  1  0  0  0
 20 21  1  0  0  0
 20 22  1  0  0  0
 21 57  1  0  0  0
 21 58  1  0  0  0
 22 23  1  0  0  0
 22 24  2  0  0  0
 23 25  1  0  0  0
 23 27  2  0  0  0
 25 26  1  0  0  0
 25 33  1  0  0  0
 25 59  1  0  0  0
 26 29  1  0  0  0
 27 28  1  0  0  0
 27 60  1  0  0  0
 28 29  2  0  0  0
 28 32  1  0  0  0
 29 30  1  0  0  0
 30 31  2  0  0  0
 30 61  1  0  0  0
 31 62  1  0  0  0
 32 63  1  0  0  0
 33 34  1  0  0  0
 33 35  1  0  0  0
 33 36  1  0  0  0
M  END
> <s_m_entry_id>
60989

> <s_m_entry_name>
dock_pv.266

> <s_m_Source_Path>
/home/csk/Desktop/cluster/DUD-E-result/mk14

> <s_m_Source_File>
dock_pv.maegz

> <i_m_Source_File_Index>
266

> <chembl_id>
CHEMBL590390

> <chembl_pref_name>
None

> <i_lp_mmshare_version>
53161

> <i_f3d_flags>
0

> <r_lp_tautomer_probability>
1

> <s_lp_Force_Field>
OPLS_2005

> <r_lp_Energy>
60.642847

> <b_lp_Chiralities_Consistent>
1

> <s_lp_Variant>
CHEMBL260_lig1830-2

> <s_i_glide_gridfile>
glide-grid_2qd9

> <i_i_glide_lignum>
2137

> <i_i_glide_rotatable_bonds>
8

> <r_i_docking_score>
-7.50480769369655

> <r_i_glide_ligand_efficiency>
-0.202832640370177

> <r_i_glide_ligand_efficiency_sa>
-0.67588335565503

> <r_i_glide_ligand_efficiency_ln>
-1.62761685110824

> <r_i_glide_gscore>
-7.50480769369655

> <r_i_glide_lipo>
-3.63297759995684

> <r_i_glide_hbond>
-0.299585408557461

> <r_i_glide_metal>
0

> <r_i_glide_rewards>
-0.916196611005104

> <r_i_glide_evdw>
-41.8333854675293

> <r_i_glide_ecoul>
-6.38228750228882

> <r_i_glide_erotb>
0.458383465820378

> <r_i_glide_esite>
-0.0654191412777363

> <r_i_glide_emodel>
-61.486336088315

> <r_i_glide_energy>
-48.2156729698181

> <r_i_glide_einternal>
11.6772403717041

> <i_i_glide_confnum>
48

> <i_i_glide_posenum>
385

> <r_i_glide_eff_state_penalty>
0

> <s_user_duplicate_titles>
CHEMBL260_lig1830

> <s_m_subgroup_title>
dock_pv

> <s_m_subgroupid>
dock_pv

> <b_m_subgroup_collapsed>
1

$$$$
CHEMBL260_lig1843
                    3D
 Schrodinger Suite 2021-1.
 49 51  0  0  1  0            999 V2000
   -3.5499    1.0631   19.8324 C   0  0  0  0  0  0
   -4.0548    1.3978   18.4592 C   0  0  0  0  0  0
   -5.2557    0.8865   17.9683 C   0  0  0  0  0  0
   -5.4694    0.8516   16.5912 C   0  0  0  0  0  0
   -4.5797    1.4460   15.7189 C   0  0  0  0  0  0
   -3.4593    2.0870   16.2056 C   0  0  0  0  0  0
   -3.2350    2.0870   17.5681 C   0  0  0  0  0  0
   -3.1089    1.9372   20.5788 O   0  0  0  0  0  0
   -3.5482   -0.2669   20.0664 N   0  0  0  0  0  0
   -2.5716    2.6815   15.3844 F   0  0  0  0  0  0
   -6.4350    0.0870   16.0716 F   0  0  0  0  0  0
   -2.8350   -2.2722   21.1952 N   0  0  0  0  0  0
   -2.3143   -2.7259   22.3461 N   0  0  0  0  0  0
   -2.1591   -1.6330   23.0579 C   0  0  0  0  0  0
   -2.5500   -0.4924   22.4023 C   0  0  0  0  0  0
   -3.0252   -0.9084   21.1705 C   0  0  0  0  0  0
   -1.7826    0.1554   24.5148 N   0  0  0  0  0  0
   -1.6524   -1.3338   24.4491 C   0  0  0  0  0  0
   -2.3019    0.7077   23.2516 C   0  0  0  0  0  0
   -0.1801   -1.7956   24.5815 C   0  0  0  0  0  0
   -2.5652   -2.0484   25.4761 C   0  0  0  0  0  0
   -1.4935    0.9047   25.6232 C   0  0  0  0  0  0
   -1.7065    2.4673   25.6678 C   0  0  0  0  0  0
   -1.1433    0.3422   26.6643 O   0  0  0  0  0  0
   -3.2109    2.7770   25.8761 C   0  0  0  0  0  0
   -1.1455    3.2316   24.4345 C   0  0  0  0  0  0
   -0.9599    3.0469   26.9095 C   0  0  0  0  0  0
   -5.9411    0.3569   18.6168 H   0  0  0  0  0  0
   -4.7629    1.3699   14.6760 H   0  0  0  0  0  0
   -2.4350    2.7263   17.8762 H   0  0  0  0  0  0
   -3.9065   -0.8558   19.3306 H   0  0  0  0  0  0
   -3.0642   -2.9029   20.4372 H   0  0  0  0  0  0
   -3.2107    1.2877   23.4001 H   0  0  0  0  0  0
   -1.5546    1.3370   22.7709 H   0  0  0  0  0  0
   -0.0779   -2.8658   24.4006 H   0  0  0  0  0  0
    0.4662   -1.2828   23.8683 H   0  0  0  0  0  0
    0.2195   -1.6051   25.5778 H   0  0  0  0  0  0
   -2.6390   -3.1130   25.2623 H   0  0  0  0  0  0
   -2.1904   -1.9567   26.4955 H   0  0  0  0  0  0
   -3.5779   -1.6437   25.4595 H   0  0  0  0  0  0
   -3.3767    3.8207   26.1462 H   0  0  0  0  0  0
   -3.6350    2.1691   26.6759 H   0  0  0  0  0  0
   -3.8052    2.5870   24.9838 H   0  0  0  0  0  0
   -0.2207    2.7858   24.0631 H   0  0  0  0  0  0
   -1.8565    3.2810   23.6106 H   0  0  0  0  0  0
   -0.9117    4.2706   24.6702 H   0  0  0  0  0  0
    0.1153    2.8637   26.8543 H   0  0  0  0  0  0
   -1.0947    4.1257   27.0018 H   0  0  0  0  0  0
   -1.3127    2.6129   27.8472 H   0  0  0  0  0  0
  1  8  2  0  0  0
  1  9  1  0  0  0
  1  2  1  0  0  0
  2  7  2  0  0  0
  2  3  1  0  0  0
  3  4  2  0  0  0
  3 28  1  0  0  0
  4  5  1  0  0  0
  4 11  1  0  0  0
  5  6  2  0  0  0
  5 29  1  0  0  0
  6  7  1  0  0  0
  6 10  1  0  0  0
  7 30  1  0  0  0
  9 31  1  0  0  0
  9 16  1  0  0  0
 12 13  1  0  0  0
 12 32  1  0  0  0
 12 16  1  0  0  0
 13 14  2  0  0  0
 14 18  1  0  0  0
 14 15  1  0  0  0
 15 16  2  0  0  0
 15 19  1  0  0  0
 17 18  1  0  0  0
 17 19  1  0  0  0
 17 22  1  0  0  0
 18 20  1  0  0  0
 18 21  1  0  0  0
 19 33  1  0  0  0
 19 34  1  0  0  0
 20 35  1  0  0  0
 20 36  1  0  0  0
 20 37  1  0  0  0
 21 38  1  0  0  0
 21 39  1  0  0  0
 21 40  1  0  0  0
 22 23  1  0  0  0
 22 24  2  0  0  0
 23 25  1  0  0  0
 23 26  1  0  0  0
 23 27  1  0  0  0
 25 41  1  0  0  0
 25 42  1  0  0  0
 25 43  1  0  0  0
 26 44  1  0  0  0
 26 45  1  0  0  0
 26 46  1  0  0  0
 27 47  1  0  0  0
 27 48  1  0  0  0
 27 49  1  0  0  0
M  END
> <s_m_entry_id>
60990

> <s_m_entry_name>
dock_pv.267

> <s_m_Source_Path>
/home/csk/Desktop/cluster/DUD-E-result/mk14

> <s_m_Source_File>
dock_pv.maegz

> <i_m_Source_File_Index>
267

> <chembl_id>
CHEMBL604712

> <chembl_pref_name>
None

> <i_lp_mmshare_version>
53161

> <i_f3d_flags>
0

> <r_lp_tautomer_probability>
0.5

> <s_lp_Force_Field>
OPLS_2005

> <r_lp_Energy>
54.582965

> <b_lp_Chiralities_Consistent>
1

> <s_lp_Variant>
CHEMBL260_lig1843-2

> <s_i_glide_gridfile>
glide-grid_2qd9

> <i_i_glide_lignum>
2152

> <i_i_glide_rotatable_bonds>
5

> <r_i_docking_score>
-7.49562847952689

> <r_i_glide_ligand_efficiency>
-0.277615869612107

> <r_i_glide_ligand_efficiency_sa>
-0.832847607921344

> <r_i_glide_ligand_efficiency_ln>
-1.74485873494046

> <r_i_glide_gscore>
-7.49562847952689

> <r_i_glide_lipo>
-2.64291668335023

> <r_i_glide_hbond>
-0.129206208222056

> <r_i_glide_metal>
0

> <r_i_glide_rewards>
-3.43807868648687

> <r_i_glide_evdw>
-32.7698822021484

> <r_i_glide_ecoul>
-1.28966724872589

> <r_i_glide_erotb>
0.546517295948569

> <r_i_glide_esite>
0

> <r_i_glide_emodel>
-47.7765701097204

> <r_i_glide_energy>
-34.0595494508743

> <r_i_glide_einternal>
6.24722814559937

> <i_i_glide_confnum>
10

> <i_i_glide_posenum>
181

> <r_i_glide_eff_state_penalty>
0

> <s_user_duplicate_titles>
CHEMBL260_lig1843

> <s_m_subgroup_title>
dock_pv

> <s_m_subgroupid>
dock_pv

> <b_m_subgroup_collapsed>
1

$$$$
CHEMBL260_lig1757
                    3D
 Schrodinger Suite 2021-1.
 48 51  0  0  1  0            999 V2000
    0.7649    0.8803   27.8103 C   0  0  0  0  0  0
    0.8218    1.3530   26.4984 C   0  0  0  0  0  0
    0.2812    0.5843   25.4592 C   0  0  0  0  0  0
   -0.3515   -0.6345   25.7339 C   0  0  0  0  0  0
   -0.4354   -1.0733   27.0570 C   0  0  0  0  0  0
    0.1250   -0.3241   28.0914 C   0  0  0  0  0  0
   -0.8629   -1.4645   24.7233 N   0  0  0  0  0  0
   -1.3866   -1.1609   23.4624 C   0  0  0  0  0  0
   -1.6583    0.1344   23.1540 N   0  0  0  0  0  0
   -2.1125   -1.9483   21.4106 C   0  0  0  0  0  0
   -1.6061   -2.2226   22.6426 N   0  0  0  0  0  0
   -2.4050   -0.6426   21.0091 C   0  0  0  0  0  0
   -2.1695    0.3895   21.9196 C   0  0  0  0  0  0
   -2.4351    1.7348   21.5257 N   0  0  0  0  0  0
   -2.8693    2.1158   20.2760 C   0  0  0  0  0  0
   -3.2350    1.0152   19.3782 C   0  0  0  0  0  0
   -2.9726   -0.2765   19.7153 C   0  0  0  0  0  0
   -2.1615    2.8021   22.5083 C   0  0  0  0  0  0
   -2.9285    3.2870   19.9067 O   0  0  0  0  0  0
   -4.0265    1.2534   18.1343 C   0  0  0  0  0  0
   -3.5107    1.6692   16.8815 C   0  0  0  0  0  0
   -4.2286    1.4538   15.7067 C   0  0  0  0  0  0
   -5.4804    0.8666   15.7500 C   0  0  0  0  0  0
   -6.0370    0.5885   16.9857 C   0  0  0  0  0  0
   -5.3653    0.8516   18.1668 C   0  0  0  0  0  0
   -6.1890    0.4869   19.6407 Cl  0  0  0  0  0  0
   -2.0350    2.5128   16.6760 Cl  0  0  0  0  0  0
    1.4926    2.5614   26.2759 N   0  0  0  0  0  0
    1.1079    3.5486   25.4432 C   0  0  0  0  0  0
    1.9906    4.7896   25.4191 C   0  0  0  0  0  0
    0.0934    3.5246   24.7448 O   0  0  0  0  0  0
    1.2177    1.4418   28.6158 H   0  0  0  0  0  0
    0.3856    0.9261   24.4409 H   0  0  0  0  0  0
   -0.9221   -2.0065   27.2916 H   0  0  0  0  0  0
    0.0800   -0.6863   29.1084 H   0  0  0  0  0  0
   -0.6992   -2.4466   24.8666 H   0  0  0  0  0  0
   -2.2887   -2.7909   20.7550 H   0  0  0  0  0  0
   -3.2970   -1.0793   19.0760 H   0  0  0  0  0  0
   -2.7680    3.6870   22.3325 H   0  0  0  0  0  0
   -2.3833    2.4813   23.5269 H   0  0  0  0  0  0
   -1.1110    3.0928   22.4715 H   0  0  0  0  0  0
   -3.7964    1.7136   14.7530 H   0  0  0  0  0  0
   -6.0182    0.6353   14.8430 H   0  0  0  0  0  0
   -6.9837    0.0872   17.0629 H   0  0  0  0  0  0
    2.2996    2.7153   26.8690 H   0  0  0  0  0  0
    2.7647    4.7433   26.1845 H   0  0  0  0  0  0
    1.3891    5.6804   25.5955 H   0  0  0  0  0  0
    2.4724    4.8868   24.4466 H   0  0  0  0  0  0
  1  6  1  0  0  0
  1  2  2  0  0  0
  1 32  1  0  0  0
  2  3  1  0  0  0
  2 28  1  0  0  0
  3  4  2  0  0  0
  3 33  1  0  0  0
  4  5  1  0  0  0
  4  7  1  0  0  0
  5  6  2  0  0  0
  5 34  1  0  0  0
  6 35  1  0  0  0
  7  8  1  0  0  0
  7 36  1  0  0  0
  8  9  1  0  0  0
  8 11  2  0  0  0
  9 13  2  0  0  0
 10 12  2  0  0  0
 10 11  1  0  0  0
 10 37  1  0  0  0
 12 17  1  0  0  0
 12 13  1  0  0  0
 13 14  1  0  0  0
 14 15  1  0  0  0
 14 18  1  0  0  0
 15 16  1  0  0  0
 15 19  2  0  0  0
 16 17  2  0  0  0
 16 20  1  0  0  0
 17 38  1  0  0  0
 18 39  1  0  0  0
 18 40  1  0  0  0
 18 41  1  0  0  0
 20 21  2  0  0  0
 20 25  1  0  0  0
 21 22  1  0  0  0
 21 27  1  0  0  0
 22 23  2  0  0  0
 22 42  1  0  0  0
 23 24  1  0  0  0
 23 43  1  0  0  0
 24 25  2  0  0  0
 24 44  1  0  0  0
 25 26  1  0  0  0
 28 29  1  0  0  0
 28 45  1  0  0  0
 29 30  1  0  0  0
 29 31  2  0  0  0
 30 46  1  0  0  0
 30 47  1  0  0  0
 30 48  1  0  0  0
M  END
> <s_m_entry_id>
60991

> <s_m_entry_name>
dock_pv.268

> <s_m_Source_Path>
/home/csk/Desktop/cluster/DUD-E-result/mk14

> <s_m_Source_File>
dock_pv.maegz

> <i_m_Source_File_Index>
268

> <chembl_id>
CHEMBL565801

> <chembl_pref_name>
None

> <i_lp_mmshare_version>
53161

> <i_f3d_flags>
0

> <r_lp_tautomer_probability>
1

> <s_lp_Force_Field>
OPLS_2005

> <r_lp_Energy>
33.846128

> <b_lp_Chiralities_Consistent>
1

> <s_lp_Variant>
CHEMBL260_lig1757-1

> <s_i_glide_gridfile>
glide-grid_2qd9

> <i_i_glide_lignum>
2019

> <i_i_glide_rotatable_bonds>
5

> <r_i_docking_score>
-7.49466405253026

> <r_i_glide_ligand_efficiency>
-0.241763356533234

> <r_i_glide_ligand_efficiency_sa>
-0.759470729801366

> <r_i_glide_ligand_efficiency_ln>
-1.69027642771479

> <r_i_glide_gscore>
-7.49466405253026

> <r_i_glide_lipo>
-3.53229788931837

> <r_i_glide_hbond>
-0.0937542269263346

> <r_i_glide_metal>
0

> <r_i_glide_rewards>
-0.86869120037216

> <r_i_glide_evdw>
-43.4250717163086

> <r_i_glide_ecoul>
-7.44427108764648

> <r_i_glide_erotb>
0.389156604614355

> <r_i_glide_esite>
-0.101183091565348

> <r_i_glide_emodel>
-52.0325641666378

> <r_i_glide_energy>
-50.8693428039551

> <r_i_glide_einternal>
1.11621809005737

> <i_i_glide_confnum>
4

> <i_i_glide_posenum>
15

> <r_i_glide_eff_state_penalty>
0

> <s_user_duplicate_titles>
CHEMBL260_lig1757,583138

> <s_m_subgroup_title>
dock_pv

> <s_m_subgroupid>
dock_pv

> <b_m_subgroup_collapsed>
1

$$$$
CHEMBL260_lig1034
                    3D
 Schrodinger Suite 2021-1.
 59 63  0  0  1  0            999 V2000
   -3.0296   -1.5764   21.8468 C   0  0  0  0  0  0
   -2.1833   -0.7767   22.7721 N   0  0  0  0  0  0
   -2.6232    0.6245   22.9423 C   0  0  0  0  0  0
   -3.0748   -0.9676   20.4078 C   0  0  0  0  0  0
   -3.2377    1.4862   19.4754 N   0  0  0  0  0  0
   -2.9719    0.5494   20.4510 C   0  0  0  0  0  0
   -2.6631    1.2757   21.5811 C   0  0  0  0  0  0
   -2.4351    2.5679   21.1080 C   0  0  0  0  0  0
   -2.8664    2.7205   19.8763 N   0  0  0  0  0  0
   -1.2453   -1.3715   23.5638 C   0  0  0  0  0  0
   -1.0138   -2.5835   23.5242 O   0  0  0  0  0  0
   -0.5064   -0.5152   24.5734 C   0  0  0  0  0  0
   -3.8476    1.3182   18.2100 C   0  0  0  0  0  0
   -5.1831    0.8888   18.1005 C   0  0  0  0  0  0
   -5.8023    0.8716   16.8503 C   0  0  0  0  0  0
   -5.0985    1.2131   15.7000 C   0  0  0  0  0  0
   -3.7709    1.6151   15.8003 C   0  0  0  0  0  0
   -3.1548    1.6858   17.0460 C   0  0  0  0  0  0
   -6.1459    0.4872   19.4763 Cl  0  0  0  0  0  0
    0.1186    0.6837   24.1799 C   0  0  0  0  0  0
    0.0861   -0.1005   26.9078 N   0  0  0  0  0  0
   -0.5334   -0.8429   25.9426 C   0  0  0  0  0  0
    1.1638    2.0207   27.2970 N   0  0  0  0  0  0
    0.5774    1.0676   26.5038 C   0  0  0  0  0  0
    0.5601    1.5689   25.1778 C   0  0  0  0  0  0
    0.9639    2.9540   25.2487 C   0  0  0  0  0  0
    1.4085    3.1462   26.5509 C   0  0  0  0  0  0
    0.8609    3.9480   24.1758 C   0  0  0  0  0  0
    0.3740    3.6860   23.0759 O   0  0  0  0  0  0
    1.2766    5.4525   24.4889 C   0  0  0  0  0  0
    2.1412    6.0506   23.6206 N   0  0  0  0  0  0
    0.7661    6.0103   25.4653 O   0  0  0  0  0  0
   -1.3122   -1.9055   26.3732 O   0  0  0  0  0  0
    2.5021    7.4611   23.7826 C   0  0  0  0  0  0
    2.7961    5.4410   22.4584 C   0  0  0  0  0  0
   -1.8363   -1.8696   27.7045 C   0  0  0  0  0  0
   -4.0354   -1.5695   22.2613 H   0  0  0  0  0  0
   -2.7229   -2.6224   21.7918 H   0  0  0  0  0  0
   -2.1195    1.2258   23.6918 H   0  0  0  0  0  0
   -3.6360    0.5333   23.3249 H   0  0  0  0  0  0
   -3.9564   -1.3168   19.8745 H   0  0  0  0  0  0
   -2.2204   -1.3555   19.8519 H   0  0  0  0  0  0
   -2.0829    3.3992   21.6996 H   0  0  0  0  0  0
   -6.8338    0.5629   16.7756 H   0  0  0  0  0  0
   -5.5823    1.1680   14.7354 H   0  0  0  0  0  0
   -3.2186    1.8875   14.9133 H   0  0  0  0  0  0
   -2.1347    2.0384   17.0758 H   0  0  0  0  0  0
    0.1225    0.9948   23.1445 H   0  0  0  0  0  0
    1.4043    1.9445   28.2751 H   0  0  0  0  0  0
    1.8383    4.0141   27.0327 H   0  0  0  0  0  0
    2.0265    7.9332   24.6432 H   0  0  0  0  0  0
    3.5811    7.5578   23.9132 H   0  0  0  0  0  0
    2.2167    8.0262   22.8936 H   0  0  0  0  0  0
    2.7332    4.3541   22.4233 H   0  0  0  0  0  0
    2.3709    5.8341   21.5347 H   0  0  0  0  0  0
    3.8584    5.6871   22.4688 H   0  0  0  0  0  0
   -2.5042   -2.7129   27.8749 H   0  0  0  0  0  0
   -1.0438   -1.9129   28.4532 H   0  0  0  0  0  0
   -2.4166   -0.9609   27.8713 H   0  0  0  0  0  0
  1  2  1  0  0  0
  1  4  1  0  0  0
  1 37  1  0  0  0
  1 38  1  0  0  0
  2  3  1  0  0  0
  2 10  1  0  0  0
  3  7  1  0  0  0
  3 39  1  0  0  0
  3 40  1  0  0  0
  4  6  1  0  0  0
  4 41  1  0  0  0
  4 42  1  0  0  0
  5  6  1  0  0  0
  5  9  1  0  0  0
  5 13  1  0  0  0
  6  7  2  0  0  0
  7  8  1  0  0  0
  8  9  2  0  0  0
  8 43  1  0  0  0
 10 11  2  0  0  0
 10 12  1  0  0  0
 12 20  2  0  0  0
 12 22  1  0  0  0
 13 14  2  0  0  0
 13 18  1  0  0  0
 14 15  1  0  0  0
 14 19  1  0  0  0
 15 16  2  0  0  0
 15 44  1  0  0  0
 16 17  1  0  0  0
 16 45  1  0  0  0
 17 18  2  0  0  0
 17 46  1  0  0  0
 18 47  1  0  0  0
 20 25  1  0  0  0
 20 48  1  0  0  0
 21 24  1  0  0  0
 21 22  2  0  0  0
 22 33  1  0  0  0
 23 24  1  0  0  0
 23 27  1  0  0  0
 23 49  1  0  0  0
 24 25  2  0  0  0
 25 26  1  0  0  0
 26 27  2  0  0  0
 26 28  1  0  0  0
 27 50  1  0  0  0
 28 29  2  0  0  0
 28 30  1  0  0  0
 30 31  1  0  0  0
 30 32  2  0  0  0
 31 34  1  0  0  0
 31 35  1  0  0  0
 33 36  1  0  0  0
 34 51  1  0  0  0
 34 52  1  0  0  0
 34 53  1  0  0  0
 35 54  1  0  0  0
 35 55  1  0  0  0
 35 56  1  0  0  0
 36 57  1  0  0  0
 36 58  1  0  0  0
 36 59  1  0  0  0
M  END
> <s_m_entry_id>
60992

> <s_m_entry_name>
dock_pv.269

> <s_m_Source_Path>
/home/csk/Desktop/cluster/DUD-E-result/mk14

> <s_m_Source_File>
dock_pv.maegz

> <i_m_Source_File_Index>
269

> <chembl_id>
CHEMBL394599

> <chembl_pref_name>
None

> <i_lp_mmshare_version>
53161

> <i_f3d_flags>
0

> <r_lp_tautomer_probability>
1

> <s_lp_Force_Field>
OPLS_2005

> <r_lp_Energy>
51.082463

> <b_lp_Chiralities_Consistent>
1

> <s_lp_Variant>
CHEMBL260_lig1034-1

> <s_i_glide_gridfile>
glide-grid_2qd9

> <i_i_glide_lignum>
1159

> <i_i_glide_rotatable_bonds>
7

> <r_i_docking_score>
-7.47409452346615

> <r_i_glide_ligand_efficiency>
-0.207613736762949

> <r_i_glide_ligand_efficiency_sa>
-0.685525453843551

> <r_i_glide_ligand_efficiency_ln>
-1.63064549832179

> <r_i_glide_gscore>
-7.47409452346615

> <r_i_glide_lipo>
-3.4503044114129

> <r_i_glide_hbond>
0

> <r_i_glide_metal>
0

> <r_i_glide_rewards>
-0.821516518271101

> <r_i_glide_evdw>
-50.297779083252

> <r_i_glide_ecoul>
-6.18662595748901

> <r_i_glide_erotb>
0.398137232300861

> <r_i_glide_esite>
-0.157527978297053

> <r_i_glide_emodel>
-50.90278131177

> <r_i_glide_energy>
-56.484405040741

> <r_i_glide_einternal>
11.7212467193604

> <i_i_glide_confnum>
2

> <i_i_glide_posenum>
68

> <r_i_glide_eff_state_penalty>
0

> <s_user_duplicate_titles>
CHEMBL260_lig1034,386159

> <s_m_subgroup_title>
dock_pv

> <s_m_subgroupid>
dock_pv

> <b_m_subgroup_collapsed>
1

$$$$
CHEMBL260_lig855
                    3D
 Schrodinger Suite 2021-1.
 42 45  0  0  1  0            999 V2000
   -2.0350   -3.2354   23.4407 N   0  0  0  0  0  0
   -1.6671   -2.6854   24.6505 N   0  0  0  0  0  0
   -1.7752   -1.3745   24.6056 C   0  0  0  0  0  0
   -2.3691   -2.2126   22.6359 C   0  0  0  0  0  0
   -2.2038   -1.0059   23.3391 N   0  0  0  0  0  0
   -2.4361    0.1982   22.7340 C   0  0  0  0  0  0
   -2.8068    0.2367   21.3902 C   0  0  0  0  0  0
   -3.0095   -0.9522   20.6884 C   0  0  0  0  0  0
   -2.8075   -2.1889   21.3013 C   0  0  0  0  0  0
   -2.8352    1.5491   20.7094 C   0  0  0  0  0  0
   -2.0942    2.5282   21.2910 O   0  0  0  0  0  0
   -2.0702    3.5136   20.3738 C   0  0  0  0  0  0
   -2.8350    3.2869   19.3518 N   0  0  0  0  0  0
   -3.2738    2.0509   19.4845 C   0  0  0  0  0  0
   -4.0251    1.4347   18.3526 C   0  0  0  0  0  0
   -3.4695    1.5017   17.0667 C   0  0  0  0  0  0
   -4.1905    1.0591   15.9635 C   0  0  0  0  0  0
   -5.4730    0.5546   16.1426 C   0  0  0  0  0  0
   -6.0347    0.4871   17.4176 C   0  0  0  0  0  0
   -5.2962    0.8871   18.5312 C   0  0  0  0  0  0
   -6.1567    0.0879   15.0759 F   0  0  0  0  0  0
   -1.4496   -0.4246   25.7752 C   0  0  0  0  0  0
   -0.2553    0.4900   25.4141 C   0  0  0  0  0  0
   -1.0477   -1.2325   27.0379 C   0  0  0  0  0  0
   -2.6911    0.4245   26.1367 C   0  0  0  0  0  0
   -2.2488    1.0874   23.3126 H   0  0  0  0  0  0
   -3.2822   -0.9256   19.6425 H   0  0  0  0  0  0
   -2.9396   -3.1062   20.7449 H   0  0  0  0  0  0
   -1.3975    4.3366   20.5627 H   0  0  0  0  0  0
   -2.4838    1.9188   16.9151 H   0  0  0  0  0  0
   -3.7592    1.1071   14.9742 H   0  0  0  0  0  0
   -7.0227    0.0746   17.5525 H   0  0  0  0  0  0
   -5.7365    0.8278   19.5160 H   0  0  0  0  0  0
    0.0362    1.1222   26.2538 H   0  0  0  0  0  0
   -0.4646    1.1529   24.5775 H   0  0  0  0  0  0
    0.6205   -0.0997   25.1387 H   0  0  0  0  0  0
   -1.8455   -1.9046   27.3587 H   0  0  0  0  0  0
   -0.1678   -1.8519   26.8550 H   0  0  0  0  0  0
   -0.8099   -0.5820   27.8811 H   0  0  0  0  0  0
   -3.5665   -0.2074   26.2805 H   0  0  0  0  0  0
   -2.5430    0.9867   27.0589 H   0  0  0  0  0  0
   -2.9509    1.1485   25.3680 H   0  0  0  0  0  0
  1  2  1  0  0  0
  1  4  2  0  0  0
  2  3  2  0  0  0
  3  5  1  0  0  0
  3 22  1  0  0  0
  4  9  1  0  0  0
  4  5  1  0  0  0
  5  6  1  0  0  0
  6  7  2  0  0  0
  6 26  1  0  0  0
  7 10  1  0  0  0
  7  8  1  0  0  0
  8  9  2  0  0  0
  8 27  1  0  0  0
  9 28  1  0  0  0
 10 11  1  0  0  0
 10 14  2  0  0  0
 11 12  1  0  0  0
 12 13  2  0  0  0
 12 29  1  0  0  0
 13 14  1  0  0  0
 14 15  1  0  0  0
 15 16  2  0  0  0
 15 20  1  0  0  0
 16 17  1  0  0  0
 16 30  1  0  0  0
 17 18  2  0  0  0
 17 31  1  0  0  0
 18 19  1  0  0  0
 18 21  1  0  0  0
 19 20  2  0  0  0
 19 32  1  0  0  0
 20 33  1  0  0  0
 22 23  1  0  0  0
 22 24  1  0  0  0
 22 25  1  0  0  0
 23 34  1  0  0  0
 23 35  1  0  0  0
 23 36  1  0  0  0
 24 37  1  0  0  0
 24 38  1  0  0  0
 24 39  1  0  0  0
 25 40  1  0  0  0
 25 41  1  0  0  0
 25 42  1  0  0  0
M  END
> <s_m_entry_id>
60993

> <s_m_entry_name>
dock_pv.270

> <s_m_Source_Path>
/home/csk/Desktop/cluster/DUD-E-result/mk14

> <s_m_Source_File>
dock_pv.maegz

> <i_m_Source_File_Index>
270

> <chembl_id>
CHEMBL379394

> <chembl_pref_name>
None

> <i_lp_mmshare_version>
53161

> <i_f3d_flags>
0

> <r_lp_tautomer_probability>
1

> <s_lp_Force_Field>
OPLS_2005

> <r_lp_Energy>
20.920311

> <b_lp_Chiralities_Consistent>
1

> <s_lp_Variant>
CHEMBL260_lig855-1

> <s_i_glide_gridfile>
glide-grid_2qd9

> <i_i_glide_lignum>
953

> <i_i_glide_rotatable_bonds>
3

> <r_i_docking_score>
-7.47196841736064

> <r_i_glide_ligand_efficiency>
-0.298878736694426

> <r_i_glide_ligand_efficiency_sa>
-0.873926726731466

> <r_i_glide_ligand_efficiency_ln>
-1.77108043173896

> <r_i_glide_gscore>
-7.47196841736064

> <r_i_glide_lipo>
-3.37491020013853

> <r_i_glide_hbond>
0

> <r_i_glide_metal>
0

> <r_i_glide_rewards>
-2.22976396734342

> <r_i_glide_evdw>
-24.107738494873

> <r_i_glide_ecoul>
-6.17325115203857

> <r_i_glide_erotb>
0.333841414166631

> <r_i_glide_esite>
-0.0697610664958834

> <r_i_glide_emodel>
-39.4860749630912

> <r_i_glide_energy>
-30.2809896469116

> <r_i_glide_einternal>
3.69019627571106

> <i_i_glide_confnum>
14

> <i_i_glide_posenum>
19

> <r_i_glide_eff_state_penalty>
0

> <s_user_duplicate_titles>
CHEMBL260_lig855,355654

> <s_m_subgroup_title>
dock_pv

> <s_m_subgroupid>
dock_pv

> <b_m_subgroup_collapsed>
1

$$$$
CHEMBL260_lig1387
                    3D
 Schrodinger Suite 2021-1.
 57 59  0  0  1  0            999 V2000
   -2.5684    0.1551   20.8005 C   0  0  0  0  0  0
   -3.1764   -0.0137   19.5962 N   0  0  0  0  0  0
   -3.7548    1.1626   19.2705 C   0  0  0  0  0  0
   -3.4886    2.0920   20.1574 N   0  0  0  0  0  0
   -2.7949    1.4921   21.1218 C   0  0  0  0  0  0
   -4.8350    1.2870   17.9123 S   0  0  0  0  0  0
   -3.6426    0.8869   16.5919 C   0  0  0  0  0  0
   -3.3210    1.9131   15.4937 C   0  0  1  0  0  0
   -2.4614    2.1682   22.4174 C   0  0  0  0  0  0
   -1.6350    3.2870   22.4558 C   0  0  0  0  0  0
   -1.2910    3.8687   23.6749 C   0  0  0  0  0  0
   -1.8193    3.3576   24.8572 C   0  0  0  0  0  0
   -2.6751    2.2610   24.8312 C   0  0  0  0  0  0
   -2.9885    1.6640   23.6135 C   0  0  0  0  0  0
   -1.9743   -0.9712   21.5286 C   0  0  0  0  0  0
   -2.2574   -2.2710   21.1149 C   0  0  0  0  0  0
   -1.8436   -3.3089   21.9187 C   0  0  0  0  0  0
   -1.2350   -3.1130   23.1161 N   0  0  0  0  0  0
   -0.9006   -1.8582   23.4840 C   0  0  0  0  0  0
   -1.2137   -0.7658   22.6787 C   0  0  0  0  0  0
   -1.5056    3.9365   26.0369 F   0  0  0  0  0  0
   -4.3386    2.8870   15.4760 O   0  0  0  0  0  0
   -1.8997    2.5403   15.5083 C   0  0  0  0  0  0
   -1.6433    3.2870   16.6760 O   0  0  0  0  0  0
   -0.2498   -1.7376   24.7172 N   0  0  0  0  0  0
    0.1261   -0.4489   25.2965 C   0  0  1  0  0  0
    0.0809   -0.4856   26.8524 C   0  0  0  0  0  0
    1.4715    0.0034   24.6915 C   0  0  0  0  0  0
   -1.3147   -0.8791   27.3877 C   0  0  0  0  0  0
    0.5247    0.8388   27.5078 C   0  0  0  0  0  0
   -3.2626   -0.8790   19.0841 H   0  0  0  0  0  0
   -2.7301    0.4870   17.0238 H   0  0  0  0  0  0
   -4.1212    0.0661   16.0701 H   0  0  0  0  0  0
   -3.3904    1.3691   14.5535 H   0  0  0  0  0  0
   -1.2350    3.6870   21.5362 H   0  0  0  0  0  0
   -0.6212    4.7153   23.7049 H   0  0  0  0  0  0
   -3.0802    1.8688   25.7524 H   0  0  0  0  0  0
   -3.6346    0.7979   23.5996 H   0  0  0  0  0  0
   -2.8101   -2.4942   20.2140 H   0  0  0  0  0  0
   -2.0350   -4.3130   21.5749 H   0  0  0  0  0  0
   -0.9140    0.2272   22.9587 H   0  0  0  0  0  0
   -4.0350    3.6282   14.9296 H   0  0  0  0  0  0
   -1.1426    1.7596   15.4326 H   0  0  0  0  0  0
   -1.7659    3.2069   14.6555 H   0  0  0  0  0  0
   -0.7828    3.7376   16.6457 H   0  0  0  0  0  0
    0.0248   -2.5758   25.2079 H   0  0  0  0  0  0
   -0.6189    0.2940   25.0135 H   0  0  0  0  0  0
    0.7651   -1.2578   27.1927 H   0  0  0  0  0  0
    1.7777    0.9868   25.0468 H   0  0  0  0  0  0
    2.2616   -0.7131   24.9156 H   0  0  0  0  0  0
    1.4155    0.0756   23.6051 H   0  0  0  0  0  0
   -2.0773   -0.1632   27.0796 H   0  0  0  0  0  0
   -1.3222   -0.9239   28.4775 H   0  0  0  0  0  0
   -1.6220   -1.8632   27.0326 H   0  0  0  0  0  0
   -0.0856    1.6777   27.1712 H   0  0  0  0  0  0
    0.4480    0.7883   28.5947 H   0  0  0  0  0  0
    1.5650    1.0740   27.2878 H   0  0  0  0  0  0
  1 15  1  0  0  0
  1  5  2  0  0  0
  1  2  1  0  0  0
  2  3  1  0  0  0
  2 31  1  0  0  0
  3  4  2  0  0  0
  3  6  1  0  0  0
  4  5  1  0  0  0
  5  9  1  0  0  0
  6  7  1  0  0  0
  7  8  1  0  0  0
  7 32  1  0  0  0
  7 33  1  0  0  0
  8 22  1  0  0  0
  8 23  1  0  0  0
  8 34  1  0  0  0
  9 10  2  0  0  0
  9 14  1  0  0  0
 10 11  1  0  0  0
 10 35  1  0  0  0
 11 12  2  0  0  0
 11 36  1  0  0  0
 12 21  1  0  0  0
 12 13  1  0  0  0
 13 14  2  0  0  0
 13 37  1  0  0  0
 14 38  1  0  0  0
 15 16  2  0  0  0
 15 20  1  0  0  0
 16 17  1  0  0  0
 16 39  1  0  0  0
 17 18  2  0  0  0
 17 40  1  0  0  0
 18 19  1  0  0  0
 19 20  2  0  0  0
 19 25  1  0  0  0
 20 41  1  0  0  0
 22 42  1  0  0  0
 23 24  1  0  0  0
 23 43  1  0  0  0
 23 44  1  0  0  0
 24 45  1  0  0  0
 25 26  1  0  0  0
 25 46  1  0  0  0
 26 27  1  0  0  0
 26 28  1  0  0  0
 26 47  1  0  0  0
 27 29  1  0  0  0
 27 30  1  0  0  0
 27 48  1  0  0  0
 28 49  1  0  0  0
 28 50  1  0  0  0
 28 51  1  0  0  0
 29 52  1  0  0  0
 29 53  1  0  0  0
 29 54  1  0  0  0
 30 55  1  0  0  0
 30 56  1  0  0  0
 30 57  1  0  0  0
M  END
> <s_m_entry_id>
60994

> <s_m_entry_name>
dock_pv.271

> <s_m_Source_Path>
/home/csk/Desktop/cluster/DUD-E-result/mk14

> <s_m_Source_File>
dock_pv.maegz

> <i_m_Source_File_Index>
271

> <chembl_id>
CHEMBL462477

> <chembl_pref_name>
None

> <i_lp_mmshare_version>
53161

> <i_f3d_flags>
0

> <r_lp_tautomer_probability>
0.999999772176425

> <s_lp_Force_Field>
OPLS_2005

> <r_lp_Energy>
20.123563

> <b_lp_Chiralities_Consistent>
1

> <s_lp_Variant>
CHEMBL260_lig1387-2

> <s_i_glide_gridfile>
glide-grid_2qd9

> <i_i_glide_lignum>
1579

> <i_i_glide_rotatable_bonds>
11

> <r_i_docking_score>
-7.46843386399495

> <r_i_glide_ligand_efficiency>
-0.248947795466498

> <r_i_glide_ligand_efficiency_sa>
-0.773538681482071

> <r_i_glide_ligand_efficiency_ln>
-1.69690954900424

> <r_i_glide_gscore>
-7.46843386399495

> <r_i_glide_lipo>
-3.13452661960493

> <r_i_glide_hbond>
-0.221753635518176

> <r_i_glide_metal>
0

> <r_i_glide_rewards>
-1.59186150908955

> <r_i_glide_evdw>
-34.9860153198242

> <r_i_glide_ecoul>
-9.05442142486572

> <r_i_glide_erotb>
0.600651918227466

> <r_i_glide_esite>
-0.013480038288689

> <r_i_glide_emodel>
-50.4221507283973

> <r_i_glide_energy>
-44.0404367446899

> <r_i_glide_einternal>
18.9558410644531

> <i_i_glide_confnum>
10

> <i_i_glide_posenum>
345

> <r_i_glide_eff_state_penalty>
0

> <s_user_duplicate_titles>
CHEMBL260_lig1387,CHEMBL260_lig1392,471229,471151

> <s_m_subgroup_title>
dock_pv

> <s_m_subgroupid>
dock_pv

> <b_m_subgroup_collapsed>
1

$$$$
CHEMBL260_lig158
                    3D
 Schrodinger Suite 2021-1.
 42 45  0  0  1  0            999 V2000
   -1.3928   -1.2645   23.5613 N   0  0  0  0  0  0
   -1.0532   -1.0276   24.9205 C   0  0  0  0  0  0
   -1.5169   -2.5586   23.1472 C   0  0  0  0  0  0
   -1.6988   -0.1546   22.7534 C   0  0  0  0  0  0
   -2.0617   -0.3949   21.4221 C   0  0  0  0  0  0
   -0.1243    0.0818   29.0168 C   0  0  0  0  0  0
    0.2612   -0.6667   25.2708 C   0  0  0  0  0  0
   -2.0415   -1.0703   25.9214 C   0  0  0  0  0  0
   -2.4350    0.5874   20.6043 N   0  0  0  0  0  0
   -1.6080   -2.7799   21.8189 N   0  0  0  0  0  0
   -0.4294   -0.3405   27.5804 C   0  0  0  0  0  0
   -2.4350    1.8526   21.0567 C   0  0  0  0  0  0
    0.5570   -0.3130   26.5891 C   0  0  0  0  0  0
   -1.7235   -0.7364   27.2359 C   0  0  0  0  0  0
   -1.7000    1.1763   23.2166 C   0  0  0  0  0  0
   -2.0561   -1.7931   20.8439 C   0  0  0  0  0  0
   -2.8350    3.0619   19.8760 S   0  0  0  0  0  0
   -1.6350   -3.5130   23.8760 O   0  0  0  0  0  0
    1.0138    0.7710   29.1051 F   0  0  0  0  0  0
   -0.0350   -1.0034   29.7838 F   0  0  0  0  0  0
   -1.1068    0.8528   29.4872 F   0  0  0  0  0  0
   -3.6724   -1.5130   25.5696 Cl  0  0  0  0  0  0
    1.5339   -0.6127   24.0969 Cl  0  0  0  0  0  0
   -2.0649    2.2043   22.3515 C   0  0  0  0  0  0
   -3.6350    2.0870   18.5980 C   0  0  0  0  0  0
   -5.0869    0.8993   16.5405 C   0  0  0  0  0  0
   -5.8032    0.3387   15.5407 F   0  0  0  0  0  0
   -3.1348    2.0870   17.2888 C   0  0  0  0  0  0
   -4.8350    1.4370   18.8809 C   0  0  0  0  0  0
   -5.5827    0.8870   17.8428 C   0  0  0  0  0  0
   -3.8543    1.4816   16.2623 C   0  0  0  0  0  0
   -1.5366   -3.7365   21.5083 H   0  0  0  0  0  0
    1.5650   -0.0180   26.8432 H   0  0  0  0  0  0
   -2.4943   -0.7708   27.9929 H   0  0  0  0  0  0
   -1.4230    1.4270   24.2299 H   0  0  0  0  0  0
   -1.3921   -1.8341   19.9787 H   0  0  0  0  0  0
   -3.0548   -2.0666   20.4978 H   0  0  0  0  0  0
   -2.0524    3.2338   22.6747 H   0  0  0  0  0  0
   -2.2061    2.5902   17.0600 H   0  0  0  0  0  0
   -5.2320    1.4335   19.8858 H   0  0  0  0  0  0
   -6.5397    0.4272   18.0454 H   0  0  0  0  0  0
   -3.4762    1.4910   15.2502 H   0  0  0  0  0  0
  1  2  1  0  0  0
  1  3  1  0  0  0
  1  4  1  0  0  0
  2  7  2  0  0  0
  2  8  1  0  0  0
  3 10  1  0  0  0
  3 18  2  0  0  0
  4  5  2  0  0  0
  4 15  1  0  0  0
  5  9  1  0  0  0
  5 16  1  0  0  0
  6 11  1  0  0  0
  6 19  1  0  0  0
  6 20  1  0  0  0
  6 21  1  0  0  0
  7 13  1  0  0  0
  7 23  1  0  0  0
  8 14  2  0  0  0
  8 22  1  0  0  0
  9 12  2  0  0  0
 10 16  1  0  0  0
 10 32  1  0  0  0
 11 14  1  0  0  0
 11 13  2  0  0  0
 12 24  1  0  0  0
 12 17  1  0  0  0
 13 33  1  0  0  0
 14 34  1  0  0  0
 15 24  2  0  0  0
 15 35  1  0  0  0
 16 36  1  0  0  0
 16 37  1  0  0  0
 17 25  1  0  0  0
 24 38  1  0  0  0
 25 28  2  0  0  0
 25 29  1  0  0  0
 26 30  1  0  0  0
 26 27  1  0  0  0
 26 31  2  0  0  0
 28 31  1  0  0  0
 28 39  1  0  0  0
 29 30  2  0  0  0
 29 40  1  0  0  0
 30 41  1  0  0  0
 31 42  1  0  0  0
M  END
> <s_m_entry_id>
60996

> <s_m_entry_name>
dock_pv.273

> <s_m_Source_Path>
/home/csk/Desktop/cluster/DUD-E-result/mk14

> <s_m_Source_File>
dock_pv.maegz

> <i_m_Source_File_Index>
273

> <chembl_id>
CHEMBL128515

> <chembl_pref_name>
None

> <i_lp_mmshare_version>
53161

> <i_f3d_flags>
0

> <r_lp_tautomer_probability>
1

> <s_lp_Force_Field>
OPLS_2005

> <r_lp_Energy>
39.7072

> <b_lp_Chiralities_Consistent>
1

> <s_lp_Variant>
CHEMBL260_lig158-1

> <s_i_glide_gridfile>
glide-grid_2qd9

> <i_i_glide_lignum>
175

> <i_i_glide_rotatable_bonds>
4

> <r_i_docking_score>
-7.46484932997759

> <r_i_glide_ligand_efficiency>
-0.2408015912896

> <r_i_glide_ligand_efficiency_sa>
-0.756449459076329

> <r_i_glide_ligand_efficiency_ln>
-1.68355229406765

> <r_i_glide_gscore>
-7.46484932997759

> <r_i_glide_lipo>
-3.16921091673474

> <r_i_glide_hbond>
-0.466877661939208

> <r_i_glide_metal>
0

> <r_i_glide_rewards>
-1.15048811556452

> <r_i_glide_evdw>
-34.092887878418

> <r_i_glide_ecoul>
-8.19667625427246

> <r_i_glide_erotb>
0.255873196322637

> <r_i_glide_esite>
0

> <r_i_glide_emodel>
-54.3558618092808

> <r_i_glide_energy>
-42.2895641326904

> <r_i_glide_einternal>
0.664990901947021

> <i_i_glide_confnum>
15

> <i_i_glide_posenum>
184

> <r_i_glide_eff_state_penalty>
0

> <s_user_duplicate_titles>
CHEMBL260_lig158,213752

> <s_m_subgroup_title>
dock_pv

> <s_m_subgroupid>
dock_pv

> <b_m_subgroup_collapsed>
1

$$$$
CHEMBL260_lig946
                    3D
 Schrodinger Suite 2021-1.
 35 37  0  0  1  0            999 V2000
   -2.8579    2.2590   20.2750 C   0  0  0  0  0  0
   -2.4350    2.0014   21.6372 C   0  0  0  0  0  0
   -2.3227    0.7554   22.1374 C   0  0  0  0  0  0
   -2.6366   -0.3980   21.3265 C   0  0  0  0  0  0
   -3.0788   -0.2106   20.1275 N   0  0  0  0  0  0
   -3.2348    1.0971   19.6183 N   0  0  0  0  0  0
   -3.8509    1.1374   18.3356 C   0  0  0  0  0  0
   -3.1052    1.2874   17.1463 C   0  0  0  0  0  0
   -3.6870    1.0679   15.9006 C   0  0  0  0  0  0
   -5.0244    0.7093   15.8188 C   0  0  0  0  0  0
   -5.8085    0.7122   16.9644 C   0  0  0  0  0  0
   -5.2314    0.8873   18.2232 C   0  0  0  0  0  0
   -2.8349    3.3988   19.8199 O   0  0  0  0  0  0
   -2.4384   -2.0851   21.9575 S   0  0  0  0  0  0
   -1.6621   -1.7936   23.5240 C   0  0  0  0  0  0
   -0.2961   -1.5128   23.5770 C   0  0  0  0  0  0
    0.2963   -1.1823   24.7923 C   0  0  0  0  0  0
   -0.4791   -1.1436   25.9497 C   0  0  0  0  0  0
   -1.8404   -1.4409   25.9023 C   0  0  0  0  0  0
   -2.4359   -1.7614   24.6849 C   0  0  0  0  0  0
   -6.1017    0.6950   19.4486 C   0  0  0  0  0  0
   -5.6641    0.0876   14.3456 Cl  0  0  0  0  0  0
    0.2499   -0.7130   27.4530 Cl  0  0  0  0  0  0
   -2.1913    2.8513   22.2573 H   0  0  0  0  0  0
   -1.9981    0.6687   23.1622 H   0  0  0  0  0  0
   -2.0452    1.4793   17.1184 H   0  0  0  0  0  0
   -3.0757    1.0872   15.0104 H   0  0  0  0  0  0
   -6.8349    0.4083   16.8906 H   0  0  0  0  0  0
    0.2981   -1.5139   22.6761 H   0  0  0  0  0  0
    1.3522   -0.9552   24.8388 H   0  0  0  0  0  0
   -2.4340   -1.4029   26.8043 H   0  0  0  0  0  0
   -3.5000   -1.9387   24.6409 H   0  0  0  0  0  0
   -5.9054    1.4688   20.1910 H   0  0  0  0  0  0
   -7.1627    0.7069   19.2114 H   0  0  0  0  0  0
   -5.8584   -0.2711   19.8760 H   0  0  0  0  0  0
  1  6  1  0  0  0
  1 13  2  0  0  0
  1  2  1  0  0  0
  2  3  2  0  0  0
  2 24  1  0  0  0
  3  4  1  0  0  0
  3 25  1  0  0  0
  4 14  1  0  0  0
  4  5  2  0  0  0
  5  6  1  0  0  0
  6  7  1  0  0  0
  7 12  1  0  0  0
  7  8  2  0  0  0
  8  9  1  0  0  0
  8 26  1  0  0  0
  9 10  2  0  0  0
  9 27  1  0  0  0
 10 11  1  0  0  0
 10 22  1  0  0  0
 11 12  2  0  0  0
 11 28  1  0  0  0
 12 21  1  0  0  0
 14 15  1  0  0  0
 15 16  2  0  0  0
 15 20  1  0  0  0
 16 17  1  0  0  0
 16 29  1  0  0  0
 17 18  2  0  0  0
 17 30  1  0  0  0
 18 19  1  0  0  0
 18 23  1  0  0  0
 19 20  2  0  0  0
 19 31  1  0  0  0
 20 32  1  0  0  0
 21 33  1  0  0  0
 21 34  1  0  0  0
 21 35  1  0  0  0
M  END
> <s_m_entry_id>
60997

> <s_m_entry_name>
dock_pv.274

> <s_m_Source_Path>
/home/csk/Desktop/cluster/DUD-E-result/mk14

> <s_m_Source_File>
dock_pv.maegz

> <i_m_Source_File_Index>
274

> <chembl_id>
CHEMBL221072

> <chembl_pref_name>
None

> <i_lp_mmshare_version>
53161

> <i_f3d_flags>
0

> <r_lp_tautomer_probability>
1

> <s_lp_Force_Field>
OPLS_2005

> <r_lp_Energy>
34.842237

> <b_lp_Chiralities_Consistent>
1

> <s_lp_Variant>
CHEMBL260_lig946-1

> <s_i_glide_gridfile>
glide-grid_2qd9

> <i_i_glide_lignum>
1049

> <i_i_glide_rotatable_bonds>
3

> <r_i_docking_score>
-7.46450211860582

> <r_i_glide_ligand_efficiency>
-0.324543570374166

> <r_i_glide_ligand_efficiency_sa>
-0.92295874234558

> <r_i_glide_ligand_efficiency_ln>
-1.80498429664197

> <r_i_glide_gscore>
-7.46450211860582

> <r_i_glide_lipo>
-4.12042294386261

> <r_i_glide_hbond>
0

> <r_i_glide_metal>
0

> <r_i_glide_rewards>
-1.41955783774464

> <r_i_glide_evdw>
-38.843994140625

> <r_i_glide_ecoul>
-2.79387187957764

> <r_i_glide_erotb>
0.436759151969323

> <r_i_glide_esite>
0

> <r_i_glide_emodel>
-49.9612937710145

> <r_i_glide_energy>
-41.6378660202026

> <r_i_glide_einternal>
1.14330506324768

> <i_i_glide_confnum>
10

> <i_i_glide_posenum>
7

> <r_i_glide_eff_state_penalty>
0

> <s_user_duplicate_titles>
CHEMBL260_lig946

> <s_m_subgroup_title>
dock_pv

> <s_m_subgroupid>
dock_pv

> <b_m_subgroup_collapsed>
1

$$$$
CHEMBL260_lig1663
                    3D
 Schrodinger Suite 2021-1.
 42 45  0  0  1  0            999 V2000
   -2.8335   -1.0723   21.0189 N   0  0  0  0  0  0
   -2.4048   -1.7508   22.1348 C   0  0  0  0  0  0
   -1.8653   -0.9015   23.1799 C   0  0  0  0  0  0
   -1.7955    0.4528   23.1460 C   0  0  0  0  0  0
   -2.8140    0.3293   20.9246 C   0  0  0  0  0  0
   -2.3025    1.1237   21.9465 C   0  0  0  0  0  0
   -2.4350    2.4305   21.4818 C   0  0  0  0  0  0
   -2.9533    2.4866   20.2760 N   0  0  0  0  0  0
   -3.2288    1.2148   19.9282 N   0  0  0  0  0  0
   -3.2349   -1.8661   19.8760 C   0  0  0  0  0  0
   -2.4327   -2.9754   22.2933 O   0  0  0  0  0  0
   -1.2097    1.2214   24.1337 N   0  0  0  0  0  0
   -3.9236    1.0422   18.7056 C   0  0  0  0  0  0
   -3.2741    1.1750   17.4675 C   0  0  0  0  0  0
   -3.9975    1.1631   16.2743 C   0  0  0  0  0  0
   -5.3814    1.0218   16.3015 C   0  0  0  0  0  0
   -6.0340    0.8870   17.5246 C   0  0  0  0  0  0
   -5.3122    0.8866   18.7165 C   0  0  0  0  0  0
   -0.8680    0.8196   25.4402 C   0  0  0  0  0  0
   -5.9809    0.7556   19.8760 F   0  0  0  0  0  0
   -1.7517    0.0456   26.2083 C   0  0  0  0  0  0
   -1.4741   -0.3896   27.4624 N   0  0  0  0  0  0
   -0.2798   -0.0385   27.9984 C   0  0  0  0  0  0
    0.6515    0.7484   27.3218 C   0  0  0  0  0  0
    0.3587    1.1882   26.0247 C   0  0  0  0  0  0
   -3.3545    1.2857   15.0929 F   0  0  0  0  0  0
    1.3915    2.0216   25.2760 C   0  0  0  0  0  0
   -1.4531   -1.4296   24.0261 H   0  0  0  0  0  0
   -2.1247    3.3163   22.0126 H   0  0  0  0  0  0
   -2.4744   -1.8117   19.0958 H   0  0  0  0  0  0
   -3.4026   -2.9164   20.1111 H   0  0  0  0  0  0
   -4.1667   -1.4769   19.4761 H   0  0  0  0  0  0
   -0.7772    2.0903   23.8589 H   0  0  0  0  0  0
   -2.2113    1.2857   17.3898 H   0  0  0  0  0  0
   -5.9433    1.0063   15.3797 H   0  0  0  0  0  0
   -7.1021    0.7587   17.5658 H   0  0  0  0  0  0
   -2.7141   -0.2467   25.8155 H   0  0  0  0  0  0
   -0.0725   -0.4009   28.9953 H   0  0  0  0  0  0
    1.5855    1.0046   27.7996 H   0  0  0  0  0  0
    1.0131    3.0268   25.0914 H   0  0  0  0  0  0
    2.3322    2.1006   25.8240 H   0  0  0  0  0  0
    1.6169    1.5696   24.3093 H   0  0  0  0  0  0
  1  5  1  0  0  0
  1  2  1  0  0  0
  1 10  1  0  0  0
  2  3  1  0  0  0
  2 11  2  0  0  0
  3  4  2  0  0  0
  3 28  1  0  0  0
  4 12  1  0  0  0
  4  6  1  0  0  0
  5  9  1  0  0  0
  5  6  2  0  0  0
  6  7  1  0  0  0
  7  8  2  0  0  0
  7 29  1  0  0  0
  8  9  1  0  0  0
  9 13  1  0  0  0
 10 30  1  0  0  0
 10 31  1  0  0  0
 10 32  1  0  0  0
 12 19  1  0  0  0
 12 33  1  0  0  0
 13 14  2  0  0  0
 13 18  1  0  0  0
 14 15  1  0  0  0
 14 34  1  0  0  0
 15 16  2  0  0  0
 15 26  1  0  0  0
 16 17  1  0  0  0
 16 35  1  0  0  0
 17 18  2  0  0  0
 17 36  1  0  0  0
 18 20  1  0  0  0
 19 21  2  0  0  0
 19 25  1  0  0  0
 21 22  1  0  0  0
 21 37  1  0  0  0
 22 23  2  0  0  0
 23 24  1  0  0  0
 23 38  1  0  0  0
 24 25  2  0  0  0
 24 39  1  0  0  0
 25 27  1  0  0  0
 27 40  1  0  0  0
 27 41  1  0  0  0
 27 42  1  0  0  0
M  END
> <s_m_entry_id>
60998

> <s_m_entry_name>
dock_pv.275

> <s_m_Source_Path>
/home/csk/Desktop/cluster/DUD-E-result/mk14

> <s_m_Source_File>
dock_pv.maegz

> <i_m_Source_File_Index>
275

> <chembl_id>
CHEMBL563091

> <chembl_pref_name>
None

> <i_lp_mmshare_version>
53161

> <i_f3d_flags>
0

> <r_lp_tautomer_probability>
0.999999999999999

> <s_lp_Force_Field>
OPLS_2005

> <r_lp_Energy>
44.946703

> <b_lp_Chiralities_Consistent>
1

> <s_lp_Variant>
CHEMBL260_lig1663-1

> <s_i_glide_gridfile>
glide-grid_2qd9

> <i_i_glide_lignum>
1915

> <i_i_glide_rotatable_bonds>
3

> <r_i_docking_score>
-7.44871433630182

> <r_i_glide_ligand_efficiency>
-0.275878308751919

> <r_i_glide_ligand_efficiency_sa>
-0.827634925346508

> <r_i_glide_ligand_efficiency_ln>
-1.73393789583776

> <r_i_glide_gscore>
-7.44871433630182

> <r_i_glide_lipo>
-2.41995428983503

> <r_i_glide_hbond>
-0.18873868038722

> <r_i_glide_metal>
0

> <r_i_glide_rewards>
-2.69500097742749

> <r_i_glide_evdw>
-37.0118255615234

> <r_i_glide_ecoul>
-4.81696176528931

> <r_i_glide_erotb>
0.428115154217494

> <r_i_glide_esite>
0

> <r_i_glide_emodel>
-56.4098259203229

> <r_i_glide_energy>
-41.8287873268127

> <r_i_glide_einternal>
2.78372144699097

> <i_i_glide_confnum>
41

> <i_i_glide_posenum>
363

> <r_i_glide_eff_state_penalty>
0

> <s_user_duplicate_titles>
CHEMBL260_lig1663,565906

> <s_m_subgroup_title>
dock_pv

> <s_m_subgroupid>
dock_pv

> <b_m_subgroup_collapsed>
1

$$$$
CHEMBL260_lig1607
                    3D
 Schrodinger Suite 2021-1.
 38 41  0  0  1  0            999 V2000
   -1.1628    1.4602   23.8102 C   0  0  0  0  0  0
   -0.9883    1.2003   25.1151 C   0  0  0  0  0  0
   -2.0929   -1.4950   24.0349 C   0  0  0  0  0  0
   -1.9837    0.7690   22.7966 C   0  0  0  0  0  0
   -2.3782   -0.5824   22.8731 C   0  0  0  0  0  0
   -3.0474   -1.1692   21.7841 C   0  0  0  0  0  0
   -3.3668   -0.4166   20.6582 C   0  0  0  0  0  0
   -3.0374    0.9372   20.6015 C   0  0  0  0  0  0
   -2.3539    1.5126   21.6702 C   0  0  0  0  0  0
   -2.1691   -1.0271   25.4638 C   0  0  0  0  0  0
   -1.6031    0.1654   25.9605 C   0  0  0  0  0  0
   -1.6422    0.4094   27.3395 C   0  0  0  0  0  0
   -2.2424   -0.4919   28.2143 C   0  0  0  0  0  0
   -2.8351   -1.6466   27.7187 C   0  0  0  0  0  0
   -2.7996   -1.9129   26.3525 C   0  0  0  0  0  0
   -2.0350   -2.7163   23.8273 O   0  0  0  0  0  0
   -3.3098    1.7422   19.4869 N   0  0  0  0  0  0
   -3.9206    1.3910   18.2734 C   0  0  0  0  0  0
   -3.2448    1.6812   17.0798 C   0  0  0  0  0  0
   -3.8288    1.3826   15.8528 C   0  0  0  0  0  0
   -5.1119    0.8496   15.8078 C   0  0  0  0  0  0
   -5.8338    0.6544   16.9810 C   0  0  0  0  0  0
   -5.2331    0.8897   18.2172 C   0  0  0  0  0  0
   -5.9424    0.6558   19.3472 F   0  0  0  0  0  0
   -5.6356    0.4803   14.6276 F   0  0  0  0  0  0
   -0.5726    2.2762   23.4171 H   0  0  0  0  0  0
   -0.2894    1.8415   25.6339 H   0  0  0  0  0  0
   -3.3354   -2.2118   21.7864 H   0  0  0  0  0  0
   -3.8731   -0.8989   19.8357 H   0  0  0  0  0  0
   -2.0657    2.5526   21.6051 H   0  0  0  0  0  0
   -1.2045    1.3098   27.7472 H   0  0  0  0  0  0
   -2.2576   -0.2869   29.2751 H   0  0  0  0  0  0
   -3.3094   -2.3417   28.3951 H   0  0  0  0  0  0
   -3.2676   -2.8134   25.9905 H   0  0  0  0  0  0
   -2.7196    2.5620   19.4405 H   0  0  0  0  0  0
   -2.2535    2.1076   17.0768 H   0  0  0  0  0  0
   -3.2828    1.5526   14.9371 H   0  0  0  0  0  0
   -6.8342    0.2492   16.9391 H   0  0  0  0  0  0
  1  4  1  0  0  0
  1  2  2  0  0  0
  1 26  1  0  0  0
  2 11  1  0  0  0
  2 27  1  0  0  0
  3 16  2  0  0  0
  3  5  1  0  0  0
  3 10  1  0  0  0
  4  9  1  0  0  0
  4  5  2  0  0  0
  5  6  1  0  0  0
  6  7  2  0  0  0
  6 28  1  0  0  0
  7  8  1  0  0  0
  7 29  1  0  0  0
  8 17  1  0  0  0
  8  9  2  0  0  0
  9 30  1  0  0  0
 10 15  1  0  0  0
 10 11  2  0  0  0
 11 12  1  0  0  0
 12 13  2  0  0  0
 12 31  1  0  0  0
 13 14  1  0  0  0
 13 32  1  0  0  0
 14 15  2  0  0  0
 14 33  1  0  0  0
 15 34  1  0  0  0
 17 18  1  0  0  0
 17 35  1  0  0  0
 18 19  2  0  0  0
 18 23  1  0  0  0
 19 20  1  0  0  0
 19 36  1  0  0  0
 20 21  2  0  0  0
 20 37  1  0  0  0
 21 22  1  0  0  0
 21 25  1  0  0  0
 22 23  2  0  0  0
 22 38  1  0  0  0
 23 24  1  0  0  0
M  END
> <s_m_entry_id>
60999

> <s_m_entry_name>
dock_pv.276

> <s_m_Source_Path>
/home/csk/Desktop/cluster/DUD-E-result/mk14

> <s_m_Source_File>
dock_pv.maegz

> <i_m_Source_File_Index>
276

> <chembl_id>
CHEMBL515727

> <chembl_pref_name>
None

> <i_lp_mmshare_version>
53161

> <i_f3d_flags>
0

> <r_lp_tautomer_probability>
1

> <s_lp_Force_Field>
OPLS_2005

> <r_lp_Energy>
39.14776

> <b_lp_Chiralities_Consistent>
1

> <s_lp_Variant>
CHEMBL260_lig1607-1

> <s_i_glide_gridfile>
glide-grid_2qd9

> <i_i_glide_lignum>
1856

> <i_i_glide_rotatable_bonds>
2

> <r_i_docking_score>
-7.44497463867098

> <r_i_glide_ligand_efficiency>
-0.297798985546839

> <r_i_glide_ligand_efficiency_sa>
-0.870769515226455

> <r_i_glide_ligand_efficiency_ln>
-1.76468209725124

> <r_i_glide_gscore>
-7.44497463867098

> <r_i_glide_lipo>
-3.30029114025316

> <r_i_glide_hbond>
-0.190138023020526

> <r_i_glide_metal>
0

> <r_i_glide_rewards>
-2.0126759084396

> <r_i_glide_evdw>
-35.7370109558105

> <r_i_glide_ecoul>
-3.29502868652344

> <r_i_glide_erotb>
0.339235283811351

> <r_i_glide_esite>
0

> <r_i_glide_emodel>
-51.8495475838254

> <r_i_glide_energy>
-39.032039642334

> <r_i_glide_einternal>
6.88654661178589

> <i_i_glide_confnum>
2

> <i_i_glide_posenum>
14

> <r_i_glide_eff_state_penalty>
0

> <s_user_duplicate_titles>
CHEMBL260_lig1607

> <s_m_subgroup_title>
dock_pv

> <s_m_subgroupid>
dock_pv

> <b_m_subgroup_collapsed>
1

$$$$
CHEMBL260_lig954
                    3D
 Schrodinger Suite 2021-1.
 61 64  0  0  1  0            999 V2000
   -2.0128   -2.5475   21.4904 C   0  0  0  0  0  0
   -2.0339   -2.3503   20.0563 C   0  0  0  0  0  0
   -2.4524   -1.1937   19.4815 C   0  0  0  0  0  0
   -3.0135   -0.1422   20.2876 C   0  0  0  0  0  0
   -3.1658   -0.3896   21.5443 N   0  0  0  0  0  0
   -2.5803   -1.4902   22.1560 N   0  0  0  0  0  0
   -2.3641   -1.3323   23.5483 C   0  0  0  0  0  0
   -1.0517   -1.3392   24.0626 C   0  0  0  0  0  0
   -0.8223   -1.2315   25.4325 C   0  0  0  0  0  0
   -1.8999   -1.1323   26.3081 C   0  0  0  0  0  0
   -3.2034   -1.1275   25.8109 C   0  0  0  0  0  0
   -3.4425   -1.2090   24.4391 C   0  0  0  0  0  0
   -5.0741   -1.2036   23.8755 Cl  0  0  0  0  0  0
   -1.4848   -3.5131   22.0274 O   0  0  0  0  0  0
   -3.2671    1.1404   19.7614 N   0  0  0  0  0  0
   -3.8951    1.2883   18.4799 C   0  0  0  0  0  0
   -3.2138    1.8288   17.3764 C   0  0  0  0  0  0
   -3.7484    1.8453   16.0889 C   0  0  0  0  0  0
   -5.0308    1.3635   15.8746 C   0  0  0  0  0  0
   -5.7707    0.9003   16.9549 C   0  0  0  0  0  0
   -5.2261    0.8873   18.2395 C   0  0  0  0  0  0
   -6.2777    0.4004   19.4970 Cl  0  0  0  0  0  0
   -2.8485    2.3847   20.4955 C   0  0  0  0  0  0
   -2.4330    2.2146   22.0159 C   0  0  0  0  0  0
   -2.0747    3.3382   22.9852 C   0  0  0  0  0  0
   -0.7306    3.8729   22.8178 N   0  0  0  0  0  0
   -0.2459    4.9202   23.5061 C   0  0  0  0  0  0
    1.2391    5.2559   23.3073 C   0  0  0  0  0  0
   -0.9335    5.5967   24.2720 O   0  0  0  0  0  0
    1.4748    6.4617   22.3759 C   0  0  1  0  0  0
    1.0236    7.7655   22.8318 N   0  0  1  0  0  0
    1.5929    8.6712   21.8463 C   0  0  0  0  0  0
    3.0144    8.1484   21.6112 C   0  0  0  0  0  0
    2.9380    6.6585   21.9581 C   0  0  0  0  0  0
   -1.6607   -3.1749   19.4762 H   0  0  0  0  0  0
   -2.3966   -1.0858   18.4112 H   0  0  0  0  0  0
   -0.2008   -1.4335   23.4022 H   0  0  0  0  0  0
    0.1889   -1.2439   25.8165 H   0  0  0  0  0  0
   -1.7247   -1.0705   27.3726 H   0  0  0  0  0  0
   -4.0329   -1.0785   26.5018 H   0  0  0  0  0  0
   -2.2485    2.2774   17.4758 H   0  0  0  0  0  0
   -3.1779    2.2520   15.2654 H   0  0  0  0  0  0
   -5.4620    1.3782   14.8844 H   0  0  0  0  0  0
   -6.7847    0.5617   16.8033 H   0  0  0  0  0  0
   -3.6300    3.1346   20.3953 H   0  0  0  0  0  0
   -2.0259    2.8746   19.9740 H   0  0  0  0  0  0
   -1.6195    1.4904   22.0822 H   0  0  0  0  0  0
   -3.2851    1.7659   22.5254 H   0  0  0  0  0  0
   -2.1442    2.9411   24.0022 H   0  0  0  0  0  0
   -2.8448    4.0909   22.9503 H   0  0  0  0  0  0
   -0.1040    3.3647   22.2123 H   0  0  0  0  0  0
    1.7559    4.3805   22.9081 H   0  0  0  0  0  0
    1.6886    5.4454   24.2838 H   0  0  0  0  0  0
    0.9200    6.1876   21.4781 H   0  0  0  0  0  0
    0.0151    7.8091   22.8526 H   0  0  0  0  0  0
    1.0120    8.6663   20.9239 H   0  0  0  0  0  0
    1.5996    9.6883   22.2389 H   0  0  0  0  0  0
    3.3189    8.3046   20.5739 H   0  0  0  0  0  0
    3.7296    8.6685   22.2526 H   0  0  0  0  0  0
    3.1641    6.0850   21.0551 H   0  0  0  0  0  0
    3.6450    6.3684   22.7423 H   0  0  0  0  0  0
  1  6  1  0  0  0
  1  2  1  0  0  0
  1 14  2  0  0  0
  2  3  2  0  0  0
  2 35  1  0  0  0
  3  4  1  0  0  0
  3 36  1  0  0  0
  4  5  2  0  0  0
  4 15  1  0  0  0
  5  6  1  0  0  0
  6  7  1  0  0  0
  7 12  1  0  0  0
  7  8  2  0  0  0
  8  9  1  0  0  0
  8 37  1  0  0  0
  9 10  2  0  0  0
  9 38  1  0  0  0
 10 11  1  0  0  0
 10 39  1  0  0  0
 11 12  2  0  0  0
 11 40  1  0  0  0
 12 13  1  0  0  0
 15 23  1  0  0  0
 15 16  1  0  0  0
 16 17  2  0  0  0
 16 21  1  0  0  0
 17 18  1  0  0  0
 17 41  1  0  0  0
 18 19  2  0  0  0
 18 42  1  0  0  0
 19 20  1  0  0  0
 19 43  1  0  0  0
 20 21  2  0  0  0
 20 44  1  0  0  0
 21 22  1  0  0  0
 23 24  1  0  0  0
 23 45  1  0  0  0
 23 46  1  0  0  0
 24 25  1  0  0  0
 24 47  1  0  0  0
 24 48  1  0  0  0
 25 26  1  0  0  0
 25 49  1  0  0  0
 25 50  1  0  0  0
 26 27  1  0  0  0
 26 51  1  0  0  0
 27 28  1  0  0  0
 27 29  2  0  0  0
 28 30  1  0  0  0
 28 52  1  0  0  0
 28 53  1  0  0  0
 30 31  1  0  0  0
 30 34  1  0  0  0
 30 54  1  0  0  0
 31 32  1  0  0  0
 31 55  1  0  0  0
 32 33  1  0  0  0
 32 56  1  0  0  0
 32 57  1  0  0  0
 33 34  1  0  0  0
 33 58  1  0  0  0
 33 59  1  0  0  0
 34 60  1  0  0  0
 34 61  1  0  0  0
M  END
> <s_m_entry_id>
61000

> <s_m_entry_name>
dock_pv.277

> <s_m_Source_Path>
/home/csk/Desktop/cluster/DUD-E-result/mk14

> <s_m_Source_File>
dock_pv.maegz

> <i_m_Source_File_Index>
277

> <chembl_id>
CHEMBL218661

> <chembl_pref_name>
None

> <i_lp_mmshare_version>
53161

> <i_f3d_flags>
0

> <r_lp_tautomer_probability>
1

> <s_lp_Force_Field>
OPLS_2005

> <r_lp_Energy>
52.567052

> <b_lp_Chiralities_Consistent>
1

> <s_lp_Variant>
CHEMBL260_lig954-2

> <s_i_glide_gridfile>
glide-grid_2qd9

> <i_i_glide_lignum>
1059

> <i_i_glide_rotatable_bonds>
10

> <r_i_docking_score>
-7.43620807661883

> <r_i_glide_ligand_efficiency>
-0.218712002253495

> <r_i_glide_ligand_efficiency_sa>
-0.708541982748592

> <r_i_glide_ligand_efficiency_ln>
-1.64286694269662

> <r_i_glide_gscore>
-7.43620807661883

> <r_i_glide_lipo>
-3.80050202550695

> <r_i_glide_hbond>
-0.32

> <r_i_glide_metal>
0

> <r_i_glide_rewards>
-0.762509231298456

> <r_i_glide_evdw>
-43.0237998962402

> <r_i_glide_ecoul>
-7.08902788162231

> <r_i_glide_erotb>
0.733870538877482

> <r_i_glide_esite>
-0.0725231816355496

> <r_i_glide_emodel>
-56.0135257977408

> <r_i_glide_energy>
-50.1128277778625

> <r_i_glide_einternal>
9.21553230285645

> <i_i_glide_confnum>
27

> <i_i_glide_posenum>
235

> <r_i_glide_eff_state_penalty>
0

> <s_user_duplicate_titles>
CHEMBL260_lig954,368337

> <s_m_subgroup_title>
dock_pv

> <s_m_subgroupid>
dock_pv

> <b_m_subgroup_collapsed>
1

$$$$
CHEMBL260_lig265
                    3D
 Schrodinger Suite 2021-1.
 48 51  0  0  1  0            999 V2000
   -2.0053   -1.3643   25.4537 C   0  0  0  0  0  0
   -2.0833   -1.8660   24.0330 C   0  0  0  0  0  0
   -1.0268   -0.4653   25.9433 C   0  0  0  0  0  0
   -3.2351    1.5223   19.5418 N   0  0  0  0  0  0
   -4.1324    1.2816   18.4839 C   0  0  0  0  0  0
   -2.4007   -0.9482   22.8720 C   0  0  0  0  0  0
   -2.0349   -3.0887   23.8514 O   0  0  0  0  0  0
   -3.8514    1.5823   17.1267 C   0  0  0  0  0  0
    0.0343    0.1255   25.0978 C   0  0  0  0  0  0
   -2.4132    0.4500   22.9904 C   0  0  0  0  0  0
   -2.7052   -1.5081   21.6200 C   0  0  0  0  0  0
   -2.9737    0.6930   20.6493 C   0  0  0  0  0  0
   -2.6575    2.1528   16.6761 N   0  0  0  0  0  0
   -2.6558    1.2618   21.8808 C   0  0  0  0  0  0
   -3.0059   -0.6976   20.5275 C   0  0  0  0  0  0
   -2.9163   -1.9130   26.3650 C   0  0  0  0  0  0
   -1.0269   -0.1219   27.3030 C   0  0  0  0  0  0
   -5.3824    0.7455   18.8149 C   0  0  0  0  0  0
   -4.8059    1.3108   16.1474 C   0  0  0  0  0  0
    0.1407    1.5175   25.0027 C   0  0  0  0  0  0
    0.9346   -0.6932   24.4091 C   0  0  0  0  0  0
   -2.8911   -1.5749   27.7152 C   0  0  0  0  0  0
   -1.9497   -0.6705   28.1856 C   0  0  0  0  0  0
   -6.3325    0.4958   17.8311 C   0  0  0  0  0  0
    1.1016    2.0868   24.1815 C   0  0  0  0  0  0
    1.9087   -0.1190   23.6053 C   0  0  0  0  0  0
   -6.0349    0.7676   16.4973 C   0  0  0  0  0  0
    1.9650    1.2565   23.4798 C   0  0  0  0  0  0
   -2.5939    2.2906   19.4174 H   0  0  0  0  0  0
   -2.2292    0.9327   23.9361 H   0  0  0  0  0  0
   -2.7204   -2.5799   21.4746 H   0  0  0  0  0  0
   -2.5277    2.2949   15.6837 H   0  0  0  0  0  0
   -1.8668    2.1968   17.3025 H   0  0  0  0  0  0
   -2.6291    2.3349   21.9920 H   0  0  0  0  0  0
   -3.2366   -1.1562   19.5770 H   0  0  0  0  0  0
   -3.6351   -2.6451   26.0349 H   0  0  0  0  0  0
   -0.2801    0.5579   27.6890 H   0  0  0  0  0  0
   -5.6297    0.5249   19.8432 H   0  0  0  0  0  0
   -4.6033    1.5243   15.1074 H   0  0  0  0  0  0
   -0.5351    2.1580   25.5507 H   0  0  0  0  0  0
    0.8856   -1.7686   24.5047 H   0  0  0  0  0  0
   -3.5958   -2.0244   28.3995 H   0  0  0  0  0  0
   -1.9204   -0.4113   29.2338 H   0  0  0  0  0  0
   -7.2925    0.0870   18.1013 H   0  0  0  0  0  0
    1.1895    3.1597   24.0935 H   0  0  0  0  0  0
    2.6314   -0.7130   23.0757 H   0  0  0  0  0  0
   -6.7607    0.5562   15.7276 H   0  0  0  0  0  0
    2.7242    1.6867   22.8491 H   0  0  0  0  0  0
  1  2  1  0  0  0
  1  3  2  0  0  0
  1 16  1  0  0  0
  2  6  1  0  0  0
  2  7  2  0  0  0
  3  9  1  0  0  0
  3 17  1  0  0  0
  4 12  1  0  0  0
  4  5  1  0  0  0
  4 29  1  0  0  0
  5  8  2  0  0  0
  5 18  1  0  0  0
  6 10  2  0  0  0
  6 11  1  0  0  0
  8 13  1  0  0  0
  8 19  1  0  0  0
  9 20  2  0  0  0
  9 21  1  0  0  0
 10 14  1  0  0  0
 10 30  1  0  0  0
 11 15  2  0  0  0
 11 31  1  0  0  0
 12 15  1  0  0  0
 12 14  2  0  0  0
 13 32  1  0  0  0
 13 33  1  0  0  0
 14 34  1  0  0  0
 15 35  1  0  0  0
 16 22  2  0  0  0
 16 36  1  0  0  0
 17 23  2  0  0  0
 17 37  1  0  0  0
 18 24  2  0  0  0
 18 38  1  0  0  0
 19 27  2  0  0  0
 19 39  1  0  0  0
 20 25  1  0  0  0
 20 40  1  0  0  0
 21 26  2  0  0  0
 21 41  1  0  0  0
 22 23  1  0  0  0
 22 42  1  0  0  0
 23 43  1  0  0  0
 24 27  1  0  0  0
 24 44  1  0  0  0
 25 28  2  0  0  0
 25 45  1  0  0  0
 26 28  1  0  0  0
 26 46  1  0  0  0
 27 47  1  0  0  0
 28 48  1  0  0  0
M  END
> <s_m_entry_id>
61001

> <s_m_entry_name>
dock_pv.278

> <s_m_Source_Path>
/home/csk/Desktop/cluster/DUD-E-result/mk14

> <s_m_Source_File>
dock_pv.maegz

> <i_m_Source_File_Index>
278

> <chembl_id>
CHEMBL356809

> <chembl_pref_name>
None

> <i_lp_mmshare_version>
53161

> <i_f3d_flags>
0

> <r_lp_tautomer_probability>
1

> <s_lp_Force_Field>
OPLS_2005

> <r_lp_Energy>
35.833768

> <b_lp_Chiralities_Consistent>
1

> <s_lp_Variant>
CHEMBL260_lig265-1

> <s_i_glide_gridfile>
glide-grid_2qd9

> <i_i_glide_lignum>
316

> <i_i_glide_rotatable_bonds>
5

> <r_i_docking_score>
-7.43462781119101

> <r_i_glide_ligand_efficiency>
-0.26552242182825

> <r_i_glide_ligand_efficiency_sa>
-0.806282457013817

> <r_i_glide_ligand_efficiency_ln>
-1.71613038898072

> <r_i_glide_gscore>
-7.43462781119101

> <r_i_glide_lipo>
-3.98782103879208

> <r_i_glide_hbond>
-0.389246185056188

> <r_i_glide_metal>
0

> <r_i_glide_rewards>
-1.17554332913691

> <r_i_glide_evdw>
-36.8657722473145

> <r_i_glide_ecoul>
-5.08312177658081

> <r_i_glide_erotb>
0.723739620647002

> <r_i_glide_esite>
0

> <r_i_glide_emodel>
-49.8874952467098

> <r_i_glide_energy>
-41.9488940238953

> <r_i_glide_einternal>
11.7268686294556

> <i_i_glide_confnum>
94

> <i_i_glide_posenum>
329

> <r_i_glide_eff_state_penalty>
0

> <s_user_duplicate_titles>
CHEMBL260_lig265,254922

> <s_m_subgroup_title>
dock_pv

> <s_m_subgroupid>
dock_pv

> <b_m_subgroup_collapsed>
1

$$$$
CHEMBL260_lig1591
                    3D
 Schrodinger Suite 2021-1.
 46 48  0  0  1  0            999 V2000
   -3.2350   -0.0771   21.8244 C   0  0  0  0  0  0
   -2.3558   -1.1638   21.7201 C   0  0  0  0  0  0
   -1.9540   -1.5768   20.4483 C   0  0  0  0  0  0
   -2.4350   -0.9246   19.3171 C   0  0  0  0  0  0
   -3.3728    0.1136   19.4066 C   0  0  0  0  0  0
   -3.7415    0.5434   20.6785 C   0  0  0  0  0  0
   -3.9318    0.7731   18.1749 C   0  0  0  0  0  0
   -3.0432    1.2870   17.2356 C   0  0  0  0  0  0
   -3.4129    2.0219   16.1235 C   0  0  0  0  0  0
   -4.7724    2.0869   15.8231 C   0  0  0  0  0  0
   -5.7020    1.4875   16.6761 C   0  0  0  0  0  0
   -5.3018    0.8873   17.8791 C   0  0  0  0  0  0
   -6.3744    0.3755   18.8235 C   0  0  0  0  0  0
   -1.8537   -1.8993   22.9423 C   0  0  0  0  0  0
   -1.6372   -3.1130   22.9093 O   0  0  0  0  0  0
   -1.6458   -1.1466   24.0362 N   0  0  0  0  0  0
   -1.1394   -1.6339   25.3169 C   0  0  0  0  0  0
    0.1176   -0.8781   25.7774 C   0  0  0  0  0  0
    0.0075    0.5155   26.3438 C   0  0  0  0  0  0
    0.3648   -0.6525   27.2490 C   0  0  0  0  0  0
   -2.5201    2.8870   15.4611 N   0  0  0  0  0  0
   -1.2190    2.8263   15.0870 C   0  0  0  0  0  0
   -0.6687    4.0910   14.4694 C   0  0  0  0  0  0
   -0.4932    1.8323   15.0761 O   0  0  0  0  0  0
   -3.5660    0.2714   22.7921 H   0  0  0  0  0  0
   -1.2615   -2.3985   20.3256 H   0  0  0  0  0  0
   -2.0696   -1.2401   18.3513 H   0  0  0  0  0  0
   -4.4349    1.3638   20.7787 H   0  0  0  0  0  0
   -2.0350    1.1481   17.4364 H   0  0  0  0  0  0
   -5.1202    2.6469   14.9670 H   0  0  0  0  0  0
   -6.7529    1.5637   16.4425 H   0  0  0  0  0  0
   -6.0349   -0.5147   19.3486 H   0  0  0  0  0  0
   -6.6402    1.1305   19.5619 H   0  0  0  0  0  0
   -7.2697    0.0871   18.2753 H   0  0  0  0  0  0
   -1.8345   -0.1583   23.9776 H   0  0  0  0  0  0
   -1.9441   -1.4104   26.0195 H   0  0  0  0  0  0
   -1.0152   -2.7133   25.4203 H   0  0  0  0  0  0
    0.9870   -1.1132   25.1605 H   0  0  0  0  0  0
    0.7821    1.2402   26.0882 H   0  0  0  0  0  0
   -0.9774    0.9746   26.4332 H   0  0  0  0  0  0
   -0.3681   -1.0191   27.9689 H   0  0  0  0  0  0
    1.3831   -0.7129   27.6342 H   0  0  0  0  0  0
   -2.9627    3.7295   15.0895 H   0  0  0  0  0  0
   -0.7183    4.8870   15.2071 H   0  0  0  0  0  0
   -1.2350    4.3796   13.5849 H   0  0  0  0  0  0
    0.3650    3.9523   14.1607 H   0  0  0  0  0  0
  1  6  1  0  0  0
  1  2  2  0  0  0
  1 25  1  0  0  0
  2 14  1  0  0  0
  2  3  1  0  0  0
  3  4  2  0  0  0
  3 26  1  0  0  0
  4  5  1  0  0  0
  4 27  1  0  0  0
  5  7  1  0  0  0
  5  6  2  0  0  0
  6 28  1  0  0  0
  7 12  1  0  0  0
  7  8  2  0  0  0
  8  9  1  0  0  0
  8 29  1  0  0  0
  9 10  2  0  0  0
  9 21  1  0  0  0
 10 11  1  0  0  0
 10 30  1  0  0  0
 11 12  2  0  0  0
 11 31  1  0  0  0
 12 13  1  0  0  0
 13 32  1  0  0  0
 13 33  1  0  0  0
 13 34  1  0  0  0
 14 15  2  0  0  0
 14 16  1  0  0  0
 16 17  1  0  0  0
 16 35  1  0  0  0
 17 18  1  0  0  0
 17 36  1  0  0  0
 17 37  1  0  0  0
 18 19  1  0  0  0
 18 20  1  0  0  0
 18 38  1  0  0  0
 19 20  1  0  0  0
 19 39  1  0  0  0
 19 40  1  0  0  0
 20 41  1  0  0  0
 20 42  1  0  0  0
 21 22  1  0  0  0
 21 43  1  0  0  0
 22 23  1  0  0  0
 22 24  2  0  0  0
 23 44  1  0  0  0
 23 45  1  0  0  0
 23 46  1  0  0  0
M  END
> <s_m_entry_id>
61002

> <s_m_entry_name>
dock_pv.279

> <s_m_Source_Path>
/home/csk/Desktop/cluster/DUD-E-result/mk14

> <s_m_Source_File>
dock_pv.maegz

> <i_m_Source_File_Index>
279

> <chembl_id>
CHEMBL477997

> <chembl_pref_name>
None

> <i_lp_mmshare_version>
53161

> <i_f3d_flags>
0

> <r_lp_tautomer_probability>
1

> <s_lp_Force_Field>
OPLS_2005

> <r_lp_Energy>
31.415111

> <b_lp_Chiralities_Consistent>
1

> <s_lp_Variant>
CHEMBL260_lig1591-1

> <s_i_glide_gridfile>
glide-grid_2qd9

> <i_i_glide_lignum>
1840

> <i_i_glide_rotatable_bonds>
7

> <r_i_docking_score>
-7.43107092224119

> <r_i_glide_ligand_efficiency>
-0.309627955093383

> <r_i_glide_ligand_efficiency_sa>
-0.893121569431057

> <r_i_glide_ligand_efficiency_ln>
-1.77859626131776

> <r_i_glide_gscore>
-7.43107092224119

> <r_i_glide_lipo>
-3.69974633329944

> <r_i_glide_hbond>
-0.454716991763863

> <r_i_glide_metal>
0

> <r_i_glide_rewards>
-1.65690361251969

> <r_i_glide_evdw>
-25.4136009216309

> <r_i_glide_ecoul>
-8.32368469238281

> <r_i_glide_erotb>
0.899528765280767

> <r_i_glide_esite>
0

> <r_i_glide_emodel>
-45.9026064594601

> <r_i_glide_energy>
-33.7372856140137

> <r_i_glide_einternal>
5.41529321670532

> <i_i_glide_confnum>
38

> <i_i_glide_posenum>
100

> <r_i_glide_eff_state_penalty>
0

> <s_user_duplicate_titles>
CHEMBL260_lig1591,489766

> <s_m_subgroup_title>
dock_pv

> <s_m_subgroupid>
dock_pv

> <b_m_subgroup_collapsed>
1

$$$$
CHEMBL260_lig690
                    3D
 Schrodinger Suite 2021-1.
 43 45  0  0  1  0            999 V2000
   -3.6490    1.0721   15.4968 C   0  0  0  0  0  0
   -4.9505    0.6190   15.3007 C   0  0  0  0  0  0
   -5.8342    0.5361   16.3708 C   0  0  0  0  0  0
   -5.4094    0.8870   17.6511 C   0  0  0  0  0  0
   -4.0865    1.2794   17.8538 C   0  0  0  0  0  0
   -3.2200    1.4090   16.7729 C   0  0  0  0  0  0
   -3.6354    1.5531   19.1177 O   0  0  0  0  0  0
   -3.1713    0.5394   19.9336 C   0  0  0  0  0  0
   -3.2350    0.7878   21.2949 C   0  0  0  0  0  0
   -2.7659   -0.1251   22.2158 C   0  0  0  0  0  0
   -2.1773   -1.3151   21.7824 C   0  0  0  0  0  0
   -2.1150   -1.5968   20.4127 C   0  0  0  0  0  0
   -2.5906   -0.6606   19.4919 C   0  0  0  0  0  0
   -1.5611   -2.2335   22.7964 C   0  0  0  0  0  0
   -1.6418   -3.4585   22.7159 O   0  0  0  0  0  0
   -0.9163   -1.5738   23.7689 N   0  0  0  0  0  0
   -0.2757   -2.1311   24.9385 C   0  0  0  0  0  0
   -0.3425   -1.1668   26.1132 C   0  0  0  0  0  0
    0.7223   -0.2972   26.3518 C   0  0  0  0  0  0
    0.7132    0.5310   27.4697 C   0  0  0  0  0  0
   -0.3676    0.4994   28.3566 C   0  0  0  0  0  0
   -1.4359   -0.3727   28.1140 C   0  0  0  0  0  0
   -1.4214   -1.2052   26.9980 C   0  0  0  0  0  0
   -0.3611    1.4171   29.5789 C   0  0  0  0  0  0
   -0.5284    2.6772   29.1765 F   0  0  0  0  0  0
    0.7998    1.3239   30.2290 F   0  0  0  0  0  0
   -1.3414    1.1249   30.4362 F   0  0  0  0  0  0
   -2.9592    1.1474   14.6760 H   0  0  0  0  0  0
   -5.2789    0.3300   14.3131 H   0  0  0  0  0  0
   -6.8349    0.1692   16.2127 H   0  0  0  0  0  0
   -6.0868    0.7995   18.4883 H   0  0  0  0  0  0
   -2.2063    1.7449   16.9231 H   0  0  0  0  0  0
   -3.6586    1.6954   21.6595 H   0  0  0  0  0  0
   -2.8435    0.1183   23.2672 H   0  0  0  0  0  0
   -1.6516   -2.5069   20.0556 H   0  0  0  0  0  0
   -2.4350   -0.8431   18.4408 H   0  0  0  0  0  0
   -0.7361   -0.5946   23.6063 H   0  0  0  0  0  0
    0.7649   -2.3196   24.6758 H   0  0  0  0  0  0
   -0.6905   -3.1012   25.2144 H   0  0  0  0  0  0
    1.5649   -0.2735   25.6774 H   0  0  0  0  0  0
    1.5520    1.1917   27.6485 H   0  0  0  0  0  0
   -2.2750   -0.4193   28.7928 H   0  0  0  0  0  0
   -2.2404   -1.8900   26.8333 H   0  0  0  0  0  0
  1  2  2  0  0  0
  1  6  1  0  0  0
  1 28  1  0  0  0
  2  3  1  0  0  0
  2 29  1  0  0  0
  3  4  2  0  0  0
  3 30  1  0  0  0
  4  5  1  0  0  0
  4 31  1  0  0  0
  5  7  1  0  0  0
  5  6  2  0  0  0
  6 32  1  0  0  0
  7  8  1  0  0  0
  8 13  1  0  0  0
  8  9  2  0  0  0
  9 10  1  0  0  0
  9 33  1  0  0  0
 10 11  2  0  0  0
 10 34  1  0  0  0
 11 14  1  0  0  0
 11 12  1  0  0  0
 12 13  2  0  0  0
 12 35  1  0  0  0
 13 36  1  0  0  0
 14 15  2  0  0  0
 14 16  1  0  0  0
 16 17  1  0  0  0
 16 37  1  0  0  0
 17 18  1  0  0  0
 17 38  1  0  0  0
 17 39  1  0  0  0
 18 19  2  0  0  0
 18 23  1  0  0  0
 19 20  1  0  0  0
 19 40  1  0  0  0
 20 21  2  0  0  0
 20 41  1  0  0  0
 21 22  1  0  0  0
 21 24  1  0  0  0
 22 23  2  0  0  0
 22 42  1  0  0  0
 23 43  1  0  0  0
 24 25  1  0  0  0
 24 26  1  0  0  0
 24 27  1  0  0  0
M  END
> <s_m_entry_id>
61003

> <s_m_entry_name>
dock_pv.280

> <s_m_Source_Path>
/home/csk/Desktop/cluster/DUD-E-result/mk14

> <s_m_Source_File>
dock_pv.maegz

> <i_m_Source_File_Index>
280

> <chembl_id>
CHEMBL199074

> <chembl_pref_name>
None

> <i_lp_mmshare_version>
53161

> <i_f3d_flags>
0

> <r_lp_tautomer_probability>
1

> <s_lp_Force_Field>
OPLS_2005

> <r_lp_Energy>
21.982815

> <b_lp_Chiralities_Consistent>
1

> <s_lp_Variant>
CHEMBL260_lig690-1

> <s_i_glide_gridfile>
glide-grid_2qd9

> <i_i_glide_lignum>
776

> <i_i_glide_rotatable_bonds>
7

> <r_i_docking_score>
-7.42512612063741

> <r_i_glide_ligand_efficiency>
-0.275004671134719

> <r_i_glide_ligand_efficiency_sa>
-0.825014012497786

> <r_i_glide_ligand_efficiency_ln>
-1.72844694811321

> <r_i_glide_gscore>
-7.42512612063741

> <r_i_glide_lipo>
-3.75541181844366

> <r_i_glide_hbond>
-0.349572341768742

> <r_i_glide_metal>
0

> <r_i_glide_rewards>
-1.36466123550982

> <r_i_glide_evdw>
-37.4575729370117

> <r_i_glide_ecoul>
-6.14946842193604

> <r_i_glide_erotb>
0.8398181852258

> <r_i_glide_esite>
0

> <r_i_glide_emodel>
-53.006253522391

> <r_i_glide_energy>
-43.6070413589478

> <r_i_glide_einternal>
8.64937114715576

> <i_i_glide_confnum>
16

> <i_i_glide_posenum>
2

> <r_i_glide_eff_state_penalty>
0

> <s_user_duplicate_titles>
CHEMBL260_lig690

> <s_m_subgroup_title>
dock_pv

> <s_m_subgroupid>
dock_pv

> <b_m_subgroup_collapsed>
1

$$$$
CHEMBL260_lig1504
                    3D
 Schrodinger Suite 2021-1.
 35 37  0  0  1  0            999 V2000
   -1.6698    2.8451   22.5829 C   0  0  0  0  0  0
   -2.3623    3.0107   21.4713 N   0  0  0  0  0  0
   -2.7469    1.8013   21.0732 C   0  0  0  0  0  0
   -2.2607    0.8251   21.9483 C   0  0  0  0  0  0
   -1.6319    1.5308   22.9318 N   0  0  0  0  0  0
   -3.5722    1.5769   19.8403 C   0  0  0  0  0  0
   -3.2372    2.0868   18.5810 C   0  0  0  0  0  0
   -3.9347    1.6798   17.4294 C   0  0  0  0  0  0
   -5.0902    0.9068   17.5748 C   0  0  0  0  0  0
   -5.4943    0.4871   18.8377 C   0  0  0  0  0  0
   -4.7002    0.7672   19.9429 C   0  0  0  0  0  0
   -2.2439   -0.6510   21.9253 C   0  0  0  0  0  0
   -2.1421   -1.3274   20.7069 C   0  0  0  0  0  0
   -2.0348   -2.7130   20.7264 C   0  0  0  0  0  0
   -2.0233   -3.4321   21.8755 N   0  0  0  0  0  0
   -2.1247   -2.7668   23.0516 C   0  0  0  0  0  0
   -2.2457   -1.3831   23.1171 C   0  0  0  0  0  0
   -0.8350    4.1182   23.4760 S   0  0  0  0  0  0
    0.5234    3.1623   24.2200 C   0  0  0  0  0  0
   -2.1095   -3.4782   24.1990 F   0  0  0  0  0  0
   -3.5054    2.1261   16.0324 C   0  0  0  0  0  0
   -4.4924    2.8295   15.4760 F   0  0  0  0  0  0
   -3.2526    1.0573   15.2771 F   0  0  0  0  0  0
   -2.4099    2.8871   16.0634 F   0  0  0  0  0  0
   -1.1326    1.1403   23.7172 H   0  0  0  0  0  0
   -2.4367    2.8091   18.4921 H   0  0  0  0  0  0
   -5.6774    0.6313   16.7095 H   0  0  0  0  0  0
   -6.3832   -0.1195   18.9468 H   0  0  0  0  0  0
   -4.9608    0.3533   20.9002 H   0  0  0  0  0  0
   -2.1215   -0.7926   19.7686 H   0  0  0  0  0  0
   -1.9611   -3.2758   19.8074 H   0  0  0  0  0  0
   -2.3192   -0.8968   24.0784 H   0  0  0  0  0  0
    1.2612    3.8391   24.6517 H   0  0  0  0  0  0
    0.1535    2.5160   25.0164 H   0  0  0  0  0  0
    1.0318    2.5498   23.4744 H   0  0  0  0  0  0
  1 18  1  0  0  0
  1  5  1  0  0  0
  1  2  2  0  0  0
  2  3  1  0  0  0
  3  4  2  0  0  0
  3  6  1  0  0  0
  4 12  1  0  0  0
  4  5  1  0  0  0
  5 25  1  0  0  0
  6 11  1  0  0  0
  6  7  2  0  0  0
  7  8  1  0  0  0
  7 26  1  0  0  0
  8  9  2  0  0  0
  8 21  1  0  0  0
  9 10  1  0  0  0
  9 27  1  0  0  0
 10 11  2  0  0  0
 10 28  1  0  0  0
 11 29  1  0  0  0
 12 17  1  0  0  0
 12 13  2  0  0  0
 13 14  1  0  0  0
 13 30  1  0  0  0
 14 15  2  0  0  0
 14 31  1  0  0  0
 15 16  1  0  0  0
 16 17  2  0  0  0
 16 20  1  0  0  0
 17 32  1  0  0  0
 18 19  1  0  0  0
 19 33  1  0  0  0
 19 34  1  0  0  0
 19 35  1  0  0  0
 21 22  1  0  0  0
 21 23  1  0  0  0
 21 24  1  0  0  0
M  END
> <s_m_entry_id>
61004

> <s_m_entry_name>
dock_pv.281

> <s_m_Source_Path>
/home/csk/Desktop/cluster/DUD-E-result/mk14

> <s_m_Source_File>
dock_pv.maegz

> <i_m_Source_File_Index>
281

> <chembl_id>
CHEMBL524015

> <chembl_pref_name>
None

> <i_lp_mmshare_version>
53161

> <i_f3d_flags>
0

> <r_lp_tautomer_probability>
0.999999999976373

> <s_lp_Force_Field>
OPLS_2005

> <r_lp_Energy>
8.12482

> <b_lp_Chiralities_Consistent>
1

> <s_lp_Variant>
CHEMBL260_lig1504-1

> <s_i_glide_gridfile>
glide-grid_2qd9

> <i_i_glide_lignum>
1744

> <i_i_glide_rotatable_bonds>
4

> <r_i_docking_score>
-7.40886286029287

> <r_i_glide_ligand_efficiency>
-0.308702619178869

> <r_i_glide_ligand_efficiency_sa>
-0.89045243878369

> <r_i_glide_ligand_efficiency_ln>
-1.77328085303196

> <r_i_glide_gscore>
-7.40886286029287

> <r_i_glide_lipo>
-2.75217237425356

> <r_i_glide_hbond>
-0.32

> <r_i_glide_metal>
0

> <r_i_glide_rewards>
-2.55973663970583

> <r_i_glide_evdw>
-21.9275226593018

> <r_i_glide_ecoul>
-5.94115161895752

> <r_i_glide_erotb>
0.305902522406459

> <r_i_glide_esite>
-0.0953074929312152

> <r_i_glide_emodel>
-38.232279680279

> <r_i_glide_energy>
-27.8686742782593

> <r_i_glide_einternal>
5.95025587081909

> <i_i_glide_confnum>
7

> <i_i_glide_posenum>
80

> <r_i_glide_eff_state_penalty>
0

> <s_user_duplicate_titles>
CHEMBL260_lig1504

> <s_m_subgroup_title>
dock_pv

> <s_m_subgroupid>
dock_pv

> <b_m_subgroup_collapsed>
1

$$$$
CHEMBL260_lig1609
                    3D
 Schrodinger Suite 2021-1.
 37 40  0  0  1  0            999 V2000
   -1.2673    1.5232   23.8116 C   0  0  0  0  0  0
   -1.0939    1.2543   25.1159 C   0  0  0  0  0  0
   -2.1107   -1.4740   23.9946 C   0  0  0  0  0  0
   -2.0512    0.8120   22.7819 C   0  0  0  0  0  0
   -2.4051   -0.5529   22.8407 C   0  0  0  0  0  0
   -3.0471   -1.1469   21.7397 C   0  0  0  0  0  0
   -3.3787   -0.3922   20.6195 C   0  0  0  0  0  0
   -3.0886    0.9708   20.5804 C   0  0  0  0  0  0
   -2.4327    1.5567   21.6598 C   0  0  0  0  0  0
   -2.2016   -1.0198   25.4217 C   0  0  0  0  0  0
   -1.6854    0.1852   25.9301 C   0  0  0  0  0  0
   -1.7301    0.4890   27.2552 N   0  0  0  0  0  0
   -2.2802   -0.4061   28.1109 C   0  0  0  0  0  0
   -2.8352   -1.6097   27.6848 C   0  0  0  0  0  0
   -2.7982   -1.9129   26.3241 C   0  0  0  0  0  0
   -2.0352   -2.6931   23.7806 O   0  0  0  0  0  0
   -3.3770    1.7765   19.4712 N   0  0  0  0  0  0
   -3.9634    1.4045   18.2538 C   0  0  0  0  0  0
   -3.2705    1.6756   17.0668 C   0  0  0  0  0  0
   -3.8371    1.3581   15.8356 C   0  0  0  0  0  0
   -5.1153    0.8144   15.7810 C   0  0  0  0  0  0
   -5.8457    0.6216   16.9477 C   0  0  0  0  0  0
   -5.2671    0.8870   18.1879 C   0  0  0  0  0  0
   -5.9902    0.6616   19.3106 F   0  0  0  0  0  0
   -5.6347    0.4333   14.5997 F   0  0  0  0  0  0
   -0.7051    2.3661   23.4334 H   0  0  0  0  0  0
   -0.4269    1.9134   25.6557 H   0  0  0  0  0  0
   -3.3063   -2.1976   21.7286 H   0  0  0  0  0  0
   -3.8627   -0.8817   19.7876 H   0  0  0  0  0  0
   -2.1794    2.6061   21.6082 H   0  0  0  0  0  0
   -2.2785   -0.1366   29.1573 H   0  0  0  0  0  0
   -3.2756   -2.2966   28.3934 H   0  0  0  0  0  0
   -3.2363   -2.8353   25.9757 H   0  0  0  0  0  0
   -2.7999    2.6036   19.4253 H   0  0  0  0  0  0
   -2.2851    2.1163   17.0761 H   0  0  0  0  0  0
   -3.2847    1.5246   14.9226 H   0  0  0  0  0  0
   -6.8349    0.1948   16.9009 H   0  0  0  0  0  0
  1  4  1  0  0  0
  1  2  2  0  0  0
  1 26  1  0  0  0
  2 11  1  0  0  0
  2 27  1  0  0  0
  3 16  2  0  0  0
  3  5  1  0  0  0
  3 10  1  0  0  0
  4  9  1  0  0  0
  4  5  2  0  0  0
  5  6  1  0  0  0
  6  7  2  0  0  0
  6 28  1  0  0  0
  7  8  1  0  0  0
  7 29  1  0  0  0
  8 17  1  0  0  0
  8  9  2  0  0  0
  9 30  1  0  0  0
 10 15  1  0  0  0
 10 11  2  0  0  0
 11 12  1  0  0  0
 12 13  2  0  0  0
 13 14  1  0  0  0
 13 31  1  0  0  0
 14 15  2  0  0  0
 14 32  1  0  0  0
 15 33  1  0  0  0
 17 18  1  0  0  0
 17 34  1  0  0  0
 18 19  2  0  0  0
 18 23  1  0  0  0
 19 20  1  0  0  0
 19 35  1  0  0  0
 20 21  2  0  0  0
 20 36  1  0  0  0
 21 22  1  0  0  0
 21 25  1  0  0  0
 22 23  2  0  0  0
 22 37  1  0  0  0
 23 24  1  0  0  0
M  END
> <s_m_entry_id>
61005

> <s_m_entry_name>
dock_pv.282

> <s_m_Source_Path>
/home/csk/Desktop/cluster/DUD-E-result/mk14

> <s_m_Source_File>
dock_pv.maegz

> <i_m_Source_File_Index>
282

> <chembl_id>
CHEMBL474177

> <chembl_pref_name>
None

> <i_lp_mmshare_version>
53161

> <i_f3d_flags>
0

> <r_lp_tautomer_probability>
1

> <s_lp_Force_Field>
OPLS_2005

> <r_lp_Energy>
35.160366

> <b_lp_Chiralities_Consistent>
1

> <s_lp_Variant>
CHEMBL260_lig1609-1

> <s_i_glide_gridfile>
glide-grid_2qd9

> <i_i_glide_lignum>
1858

> <i_i_glide_rotatable_bonds>
2

> <r_i_docking_score>
-7.40675474622714

> <r_i_glide_ligand_efficiency>
-0.296270189849086

> <r_i_glide_ligand_efficiency_sa>
-0.866299289492917

> <r_i_glide_ligand_efficiency_ln>
-1.7556228373843

> <r_i_glide_gscore>
-7.40675474622714

> <r_i_glide_lipo>
-3.31127237165124

> <r_i_glide_hbond>
-0.156904329193474

> <r_i_glide_metal>
0

> <r_i_glide_rewards>
-2.01013163571167

> <r_i_glide_evdw>
-35.9766273498535

> <r_i_glide_ecoul>
-3.1138551235199

> <r_i_glide_erotb>
0.337463226349893

> <r_i_glide_esite>
0

> <r_i_glide_emodel>
-51.896233304766

> <r_i_glide_energy>
-39.0904824733734

> <r_i_glide_einternal>
6.83565139770508

> <i_i_glide_confnum>
7

> <i_i_glide_posenum>
124

> <r_i_glide_eff_state_penalty>
0

> <s_user_duplicate_titles>
CHEMBL260_lig1609,458719

> <s_m_subgroup_title>
dock_pv

> <s_m_subgroupid>
dock_pv

> <b_m_subgroup_collapsed>
1

$$$$
CHEMBL260_lig947
                    3D
 Schrodinger Suite 2021-1.
 35 37  0  0  1  0            999 V2000
   -2.8380    2.2928   20.2760 C   0  0  0  0  0  0
   -2.4349    2.0875   21.6530 C   0  0  0  0  0  0
   -2.4476    0.8756   22.2402 C   0  0  0  0  0  0
   -2.8374   -0.2993   21.4994 C   0  0  0  0  0  0
   -3.2080   -0.1648   20.2693 N   0  0  0  0  0  0
   -3.2353    1.1131   19.6661 N   0  0  0  0  0  0
   -3.8479    1.1303   18.3785 C   0  0  0  0  0  0
   -3.0971    1.2869   17.1935 C   0  0  0  0  0  0
   -3.6712    1.0748   15.9442 C   0  0  0  0  0  0
   -5.0095    0.7235   15.8525 C   0  0  0  0  0  0
   -5.8020    0.7234   16.9926 C   0  0  0  0  0  0
   -5.2305    0.8871   18.2559 C   0  0  0  0  0  0
   -2.8350    3.4184   19.7879 O   0  0  0  0  0  0
   -2.8689   -1.9272   22.2903 S   0  0  0  0  0  0
   -1.7958   -1.6515   23.6793 C   0  0  0  0  0  0
   -2.3119   -1.4607   24.9665 C   0  0  0  0  0  0
   -1.4590   -1.1465   26.0232 C   0  0  0  0  0  0
   -0.0932   -0.9988   25.7970 C   0  0  0  0  0  0
    0.4248   -1.1834   24.5163 C   0  0  0  0  0  0
   -0.4249   -1.5161   23.4617 C   0  0  0  0  0  0
   -3.6388   -1.5245   25.1963 F   0  0  0  0  0  0
   -6.1230    0.7456   19.4724 C   0  0  0  0  0  0
   -5.6352    0.1224   14.3665 Cl  0  0  0  0  0  0
    0.7236   -0.6598   26.8177 F   0  0  0  0  0  0
   -2.1240    2.9528   22.2192 H   0  0  0  0  0  0
   -2.1498    0.8274   23.2763 H   0  0  0  0  0  0
   -2.0354    1.4704   17.1714 H   0  0  0  0  0  0
   -3.0532    1.0969   15.0587 H   0  0  0  0  0  0
   -6.8350    0.4387   16.9115 H   0  0  0  0  0  0
   -1.8574   -0.9917   27.0153 H   0  0  0  0  0  0
    1.4863   -1.0680   24.3481 H   0  0  0  0  0  0
   -0.0343   -1.6295   22.4621 H   0  0  0  0  0  0
   -5.8592    1.4790   20.2333 H   0  0  0  0  0  0
   -7.1742    0.8837   19.2314 H   0  0  0  0  0  0
   -5.9882   -0.2508   19.8758 H   0  0  0  0  0  0
  1  6  1  0  0  0
  1 13  2  0  0  0
  1  2  1  0  0  0
  2  3  2  0  0  0
  2 25  1  0  0  0
  3  4  1  0  0  0
  3 26  1  0  0  0
  4 14  1  0  0  0
  4  5  2  0  0  0
  5  6  1  0  0  0
  6  7  1  0  0  0
  7 12  1  0  0  0
  7  8  2  0  0  0
  8  9  1  0  0  0
  8 27  1  0  0  0
  9 10  2  0  0  0
  9 28  1  0  0  0
 10 11  1  0  0  0
 10 23  1  0  0  0
 11 12  2  0  0  0
 11 29  1  0  0  0
 12 22  1  0  0  0
 14 15  1  0  0  0
 15 16  2  0  0  0
 15 20  1  0  0  0
 16 17  1  0  0  0
 16 21  1  0  0  0
 17 18  2  0  0  0
 17 30  1  0  0  0
 18 19  1  0  0  0
 18 24  1  0  0  0
 19 20  2  0  0  0
 19 31  1  0  0  0
 20 32  1  0  0  0
 22 33  1  0  0  0
 22 34  1  0  0  0
 22 35  1  0  0  0
M  END
> <s_m_entry_id>
61006

> <s_m_entry_name>
dock_pv.283

> <s_m_Source_Path>
/home/csk/Desktop/cluster/DUD-E-result/mk14

> <s_m_Source_File>
dock_pv.maegz

> <i_m_Source_File_Index>
283

> <chembl_id>
CHEMBL221071

> <chembl_pref_name>
None

> <i_lp_mmshare_version>
53161

> <i_f3d_flags>
0

> <r_lp_tautomer_probability>
1

> <s_lp_Force_Field>
OPLS_2005

> <r_lp_Energy>
34.727282

> <b_lp_Chiralities_Consistent>
1

> <s_lp_Variant>
CHEMBL260_lig947-1

> <s_i_glide_gridfile>
glide-grid_2qd9

> <i_i_glide_lignum>
1050

> <i_i_glide_rotatable_bonds>
3

> <r_i_docking_score>
-7.39290307938173

> <r_i_glide_ligand_efficiency>
-0.308037628307572

> <r_i_glide_ligand_efficiency_sa>
-0.888534273188948

> <r_i_glide_ligand_efficiency_ln>
-1.7694609451133

> <r_i_glide_gscore>
-7.39290307938173

> <r_i_glide_lipo>
-3.86445214474037

> <r_i_glide_hbond>
0

> <r_i_glide_metal>
0

> <r_i_glide_rewards>
-1.77407362451775

> <r_i_glide_evdw>
-34.3203659057617

> <r_i_glide_ecoul>
-3.14561033248901

> <r_i_glide_erotb>
0.433482535037825

> <r_i_glide_esite>
0

> <r_i_glide_emodel>
-44.8673269797767

> <r_i_glide_energy>
-37.4659762382507

> <r_i_glide_einternal>
1.38693559169769

> <i_i_glide_confnum>
21

> <i_i_glide_posenum>
16

> <r_i_glide_eff_state_penalty>
0

> <s_user_duplicate_titles>
CHEMBL260_lig947,368282

> <s_m_subgroup_title>
dock_pv

> <s_m_subgroupid>
dock_pv

> <b_m_subgroup_collapsed>
1

$$$$
CHEMBL260_lig854
                    3D
 Schrodinger Suite 2021-1.
 47 51  0  0  1  0            999 V2000
   -1.8330   -3.2598   23.3539 N   0  0  0  0  0  0
   -1.2158   -2.7125   24.4629 N   0  0  0  0  0  0
   -1.2140   -1.4038   24.3705 C   0  0  0  0  0  0
   -2.1844   -2.2341   22.5593 C   0  0  0  0  0  0
   -1.8225   -1.0347   23.1902 N   0  0  0  0  0  0
   -2.0790    0.1767   22.6216 C   0  0  0  0  0  0
   -2.6640    0.2306   21.3567 C   0  0  0  0  0  0
   -3.0211   -0.9506   20.7043 C   0  0  0  0  0  0
   -2.7969   -2.1945   21.2965 C   0  0  0  0  0  0
   -2.7665    1.5487   20.6986 C   0  0  0  0  0  0
   -2.0360    2.5443   21.2696 O   0  0  0  0  0  0
   -2.0663    3.5375   20.3647 C   0  0  0  0  0  0
   -2.8349    3.2870   19.3518 N   0  0  0  0  0  0
   -3.2591    2.0469   19.4939 C   0  0  0  0  0  0
   -4.0168    1.4235   18.3666 C   0  0  0  0  0  0
   -3.4523    1.4798   17.0846 C   0  0  0  0  0  0
   -4.1705    1.0421   15.9783 C   0  0  0  0  0  0
   -5.4598    0.5533   16.1495 C   0  0  0  0  0  0
   -6.0350    0.4952   17.4191 C   0  0  0  0  0  0
   -5.2966    0.8871   18.5374 C   0  0  0  0  0  0
   -6.1327    0.0871   15.0773 F   0  0  0  0  0  0
   -0.5766   -0.4974   25.3709 C   0  0  0  0  0  0
    0.3534    0.4475   24.9204 C   0  0  0  0  0  0
    1.0146    1.2746   25.8242 C   0  0  0  0  0  0
    0.7646    1.1507   27.1880 C   0  0  0  0  0  0
   -0.1692    0.2218   27.6456 C   0  0  0  0  0  0
   -0.8638   -0.6042   26.7444 C   0  0  0  0  0  0
   -1.8342   -1.5123   27.1362 O   0  0  0  0  0  0
   -2.3614   -1.4507   28.4594 C   0  0  0  0  0  0
   -3.6264   -2.3127   28.5321 C   0  0  0  0  0  0
   -1.7618    1.0459   23.1782 H   0  0  0  0  0  0
   -3.4509   -0.9147   19.7137 H   0  0  0  0  0  0
   -3.0674   -3.1053   20.7821 H   0  0  0  0  0  0
   -1.4059    4.3732   20.5429 H   0  0  0  0  0  0
   -2.4605    1.8849   16.9386 H   0  0  0  0  0  0
   -3.7314    1.0797   14.9920 H   0  0  0  0  0  0
   -7.0268    0.0875   17.5409 H   0  0  0  0  0  0
   -5.7427    0.8374   19.5199 H   0  0  0  0  0  0
    0.5912    0.5273   23.8695 H   0  0  0  0  0  0
    1.7481    1.9877   25.4724 H   0  0  0  0  0  0
    1.3066    1.7674   27.8914 H   0  0  0  0  0  0
   -0.3363    0.1521   28.7091 H   0  0  0  0  0  0
   -1.6214   -1.8062   29.1786 H   0  0  0  0  0  0
   -2.6215   -0.4234   28.7220 H   0  0  0  0  0  0
   -4.1184   -2.2033   29.4985 H   0  0  0  0  0  0
   -4.3373   -2.0308   27.7564 H   0  0  0  0  0  0
   -3.3936   -3.3669   28.4014 H   0  0  0  0  0  0
  1  2  1  0  0  0
  1  4  2  0  0  0
  2  3  2  0  0  0
  3  5  1  0  0  0
  3 22  1  0  0  0
  4  9  1  0  0  0
  4  5  1  0  0  0
  5  6  1  0  0  0
  6  7  2  0  0  0
  6 31  1  0  0  0
  7 10  1  0  0  0
  7  8  1  0  0  0
  8  9  2  0  0  0
  8 32  1  0  0  0
  9 33  1  0  0  0
 10 11  1  0  0  0
 10 14  2  0  0  0
 11 12  1  0  0  0
 12 13  2  0  0  0
 12 34  1  0  0  0
 13 14  1  0  0  0
 14 15  1  0  0  0
 15 16  2  0  0  0
 15 20  1  0  0  0
 16 17  1  0  0  0
 16 35  1  0  0  0
 17 18  2  0  0  0
 17 36  1  0  0  0
 18 19  1  0  0  0
 18 21  1  0  0  0
 19 20  2  0  0  0
 19 37  1  0  0  0
 20 38  1  0  0  0
 22 23  2  0  0  0
 22 27  1  0  0  0
 23 24  1  0  0  0
 23 39  1  0  0  0
 24 25  2  0  0  0
 24 40  1  0  0  0
 25 26  1  0  0  0
 25 41  1  0  0  0
 26 27  2  0  0  0
 26 42  1  0  0  0
 27 28  1  0  0  0
 28 29  1  0  0  0
 29 30  1  0  0  0
 29 43  1  0  0  0
 29 44  1  0  0  0
 30 45  1  0  0  0
 30 46  1  0  0  0
 30 47  1  0  0  0
M  END
> <s_m_entry_id>
61007

> <s_m_entry_name>
dock_pv.284

> <s_m_Source_Path>
/home/csk/Desktop/cluster/DUD-E-result/mk14

> <s_m_Source_File>
dock_pv.maegz

> <i_m_Source_File_Index>
284

> <chembl_id>
CHEMBL209644

> <chembl_pref_name>
None

> <i_lp_mmshare_version>
53161

> <i_f3d_flags>
0

> <r_lp_tautomer_probability>
1

> <s_lp_Force_Field>
OPLS_2005

> <r_lp_Energy>
25.283293

> <b_lp_Chiralities_Consistent>
1

> <s_lp_Variant>
CHEMBL260_lig854-1

> <s_i_glide_gridfile>
glide-grid_2qd9

> <i_i_glide_lignum>
952

> <i_i_glide_rotatable_bonds>
5

> <r_i_docking_score>
-7.38525832983411

> <r_i_glide_ligand_efficiency>
-0.246175277661137

> <r_i_glide_ligand_efficiency_sa>
-0.764923824043683

> <r_i_glide_ligand_efficiency_ln>
-1.67801116137286

> <r_i_glide_gscore>
-7.38525832983411

> <r_i_glide_lipo>
-3.34299674319694

> <r_i_glide_hbond>
0

> <r_i_glide_metal>
0

> <r_i_glide_rewards>
-1.8102436666396

> <r_i_glide_evdw>
-31.0249919891357

> <r_i_glide_ecoul>
-7.36588907241821

> <r_i_glide_erotb>
0.489108016663643

> <r_i_glide_esite>
-0.0649929763416951

> <r_i_glide_emodel>
-48.9212490463877

> <r_i_glide_energy>
-38.390881061554

> <r_i_glide_einternal>
5.20996475219727

> <i_i_glide_confnum>
77

> <i_i_glide_posenum>
271

> <r_i_glide_eff_state_penalty>
0

> <s_user_duplicate_titles>
CHEMBL260_lig854

> <s_m_subgroup_title>
dock_pv

> <s_m_subgroupid>
dock_pv

> <b_m_subgroup_collapsed>
1

$$$$
CHEMBL260_lig141
                    3D
 Schrodinger Suite 2021-1.
 39 42  0  0  1  0            999 V2000
   -3.1672    1.5020   19.9560 N   0  0  0  0  0  0
   -2.6526    2.7388   20.2760 C   0  0  0  0  0  0
   -2.9316    0.3427   20.7327 C   0  0  0  0  0  0
   -2.6105    0.5050   22.0806 C   0  0  0  0  0  0
   -2.3886   -0.5423   22.8943 N   0  0  0  0  0  0
   -2.3140    2.8972   21.5759 N   0  0  0  0  0  0
   -2.4156   -1.7926   22.3830 C   0  0  0  0  0  0
   -2.4355    1.8978   22.6446 C   0  0  0  0  0  0
   -2.9539   -0.9632   20.2098 C   0  0  0  0  0  0
   -3.9899    1.3400   18.8116 C   0  0  0  0  0  0
   -2.0350   -3.1124   23.4763 S   0  0  0  0  0  0
   -2.4354    3.6865   19.5193 O   0  0  0  0  0  0
   -2.6957   -2.0493   21.0443 C   0  0  0  0  0  0
   -1.6351   -2.2374   24.9717 C   0  0  0  0  0  0
   -1.0408   -0.7159   27.2186 C   0  0  0  0  0  0
   -0.7513    0.0251   28.3117 F   0  0  0  0  0  0
   -2.6448   -1.9134   25.8796 C   0  0  0  0  0  0
   -0.3300   -1.7894   25.1783 C   0  0  0  0  0  0
   -0.0354   -1.0222   26.3042 C   0  0  0  0  0  0
   -2.3437   -1.1603   27.0122 C   0  0  0  0  0  0
   -5.3072    0.8923   18.9881 C   0  0  0  0  0  0
   -3.4903    1.5188   17.5118 C   0  0  0  0  0  0
   -6.1317    0.6957   17.8858 C   0  0  0  0  0  0
   -4.3119    1.2909   16.4088 C   0  0  0  0  0  0
   -5.6330    0.8933   16.6020 C   0  0  0  0  0  0
   -1.8263    3.7536   21.7922 H   0  0  0  0  0  0
   -1.5278    1.9390   23.2477 H   0  0  0  0  0  0
   -3.2720    2.1462   23.2984 H   0  0  0  0  0  0
   -3.1624   -1.1376   19.1650 H   0  0  0  0  0  0
   -2.7047   -3.0577   20.6555 H   0  0  0  0  0  0
   -3.6561   -2.2424   25.7033 H   0  0  0  0  0  0
    0.4489   -2.0181   24.4655 H   0  0  0  0  0  0
    0.9728   -0.6713   26.4738 H   0  0  0  0  0  0
   -3.1159   -0.9164   27.7253 H   0  0  0  0  0  0
   -5.6956    0.7125   19.9802 H   0  0  0  0  0  0
   -2.4721    1.8360   17.3496 H   0  0  0  0  0  0
   -7.1517    0.3663   18.0224 H   0  0  0  0  0  0
   -3.9285    1.4351   15.4085 H   0  0  0  0  0  0
   -6.2754    0.7264   15.7490 H   0  0  0  0  0  0
  1  2  1  0  0  0
  1  3  1  0  0  0
  1 10  1  0  0  0
  2  6  1  0  0  0
  2 12  2  0  0  0
  3  4  2  0  0  0
  3  9  1  0  0  0
  4  5  1  0  0  0
  4  8  1  0  0  0
  5  7  2  0  0  0
  6  8  1  0  0  0
  6 26  1  0  0  0
  7 13  1  0  0  0
  7 11  1  0  0  0
  8 27  1  0  0  0
  8 28  1  0  0  0
  9 13  2  0  0  0
  9 29  1  0  0  0
 10 21  2  0  0  0
 10 22  1  0  0  0
 11 14  1  0  0  0
 13 30  1  0  0  0
 14 17  2  0  0  0
 14 18  1  0  0  0
 15 19  1  0  0  0
 15 16  1  0  0  0
 15 20  2  0  0  0
 17 20  1  0  0  0
 17 31  1  0  0  0
 18 19  2  0  0  0
 18 32  1  0  0  0
 19 33  1  0  0  0
 20 34  1  0  0  0
 21 23  1  0  0  0
 21 35  1  0  0  0
 22 24  2  0  0  0
 22 36  1  0  0  0
 23 25  2  0  0  0
 23 37  1  0  0  0
 24 25  1  0  0  0
 24 38  1  0  0  0
 25 39  1  0  0  0
M  END
> <s_m_entry_id>
61008

> <s_m_entry_name>
dock_pv.285

> <s_m_Source_Path>
/home/csk/Desktop/cluster/DUD-E-result/mk14

> <s_m_Source_File>
dock_pv.maegz

> <i_m_Source_File_Index>
285

> <chembl_id>
CHEMBL129380

> <chembl_pref_name>
None

> <i_lp_mmshare_version>
53161

> <i_f3d_flags>
0

> <r_lp_tautomer_probability>
1

> <s_lp_Force_Field>
OPLS_2005

> <r_lp_Energy>
41.470476

> <b_lp_Chiralities_Consistent>
1

> <s_lp_Variant>
CHEMBL260_lig141-1

> <s_i_glide_gridfile>
glide-grid_2qd9

> <i_i_glide_lignum>
158

> <i_i_glide_rotatable_bonds>
3

> <r_i_docking_score>
-7.38466143069834

> <r_i_glide_ligand_efficiency>
-0.295386457227933

> <r_i_glide_ligand_efficiency_sa>
-0.863715239635603

> <r_i_glide_ligand_efficiency_ln>
-1.75038605952073

> <r_i_glide_gscore>
-7.38466143069834

> <r_i_glide_lipo>
-3.81556340505633

> <r_i_glide_hbond>
0

> <r_i_glide_metal>
0

> <r_i_glide_rewards>
-1.41447392338377

> <r_i_glide_evdw>
-35.6553764343262

> <r_i_glide_ecoul>
-5.3506383895874

> <r_i_glide_erotb>
0.463369693273301

> <r_i_glide_esite>
-0.0326292153771165

> <r_i_glide_emodel>
-56.0289448446255

> <r_i_glide_energy>
-41.0060148239136

> <r_i_glide_einternal>
0.714563131332397

> <i_i_glide_confnum>
20

> <i_i_glide_posenum>
155

> <r_i_glide_eff_state_penalty>
0

> <s_user_duplicate_titles>
CHEMBL260_lig141,213107

> <s_m_subgroup_title>
dock_pv

> <s_m_subgroupid>
dock_pv

> <b_m_subgroup_collapsed>
1

$$$$
CHEMBL260_lig1754
                    3D
 Schrodinger Suite 2021-1.
 47 50  0  0  1  0            999 V2000
    0.7650    0.8893   27.6925 C   0  0  0  0  0  0
    0.8953    1.2844   26.3576 C   0  0  0  0  0  0
    0.3806    0.4575   25.3528 C   0  0  0  0  0  0
   -0.3001   -0.7246   25.6711 C   0  0  0  0  0  0
   -0.4353   -1.0914   27.0107 C   0  0  0  0  0  0
    0.1029   -0.2934   28.0194 C   0  0  0  0  0  0
   -0.8266   -1.5702   24.6808 N   0  0  0  0  0  0
   -1.3903   -1.2531   23.4397 C   0  0  0  0  0  0
   -1.6623    0.0489   23.1587 N   0  0  0  0  0  0
   -2.1702   -1.9991   21.3928 C   0  0  0  0  0  0
   -1.6369   -2.2994   22.6081 N   0  0  0  0  0  0
   -2.4590   -0.6835   21.0189 C   0  0  0  0  0  0
   -2.1939    0.3303   21.9393 C   0  0  0  0  0  0
   -2.4350    1.6870   21.5695 N   0  0  0  0  0  0
   -2.8615    2.1013   20.3262 C   0  0  0  0  0  0
   -3.2351    1.0186   19.4054 C   0  0  0  0  0  0
   -3.0188   -0.2836   19.7331 C   0  0  0  0  0  0
   -2.1274    2.7192   22.5791 C   0  0  0  0  0  0
   -2.9139    3.2871   19.9948 O   0  0  0  0  0  0
   -3.9555    1.2870   18.1197 C   0  0  0  0  0  0
   -3.3503    1.7913   16.9460 C   0  0  0  0  0  0
   -3.9413    1.6241   15.6995 C   0  0  0  0  0  0
   -5.1920    1.0448   15.5947 C   0  0  0  0  0  0
   -5.8776    0.7285   16.7562 C   0  0  0  0  0  0
   -5.2957    0.8870   18.0111 C   0  0  0  0  0  0
   -6.2424    0.4869   19.4046 Cl  0  0  0  0  0  0
   -2.0346    2.8870   16.9629 Cl  0  0  0  0  0  0
    1.6445    2.5737   26.0255 C   0  0  0  0  0  0
    1.1135    3.3512   24.8076 C   0  0  0  0  0  0
    1.1947    1.4921   28.4801 H   0  0  0  0  0  0
    0.5239    0.7264   24.3184 H   0  0  0  0  0  0
   -0.9531   -1.9988   27.2794 H   0  0  0  0  0  0
    0.0152   -0.5940   29.0534 H   0  0  0  0  0  0
   -0.6486   -2.5512   24.8191 H   0  0  0  0  0  0
   -2.3600   -2.8284   20.7242 H   0  0  0  0  0  0
   -3.3431   -1.0706   19.0760 H   0  0  0  0  0  0
   -2.5585    3.6870   22.3419 H   0  0  0  0  0  0
   -2.5236    2.4340   23.5547 H   0  0  0  0  0  0
   -1.0481    2.8392   22.6786 H   0  0  0  0  0  0
   -3.4361    1.9775   14.8145 H   0  0  0  0  0  0
   -5.6373    0.8854   14.6258 H   0  0  0  0  0  0
   -6.8350    0.2664   16.6836 H   0  0  0  0  0  0
    2.6978    2.3328   25.8762 H   0  0  0  0  0  0
    1.6081    3.2346   26.8928 H   0  0  0  0  0  0
    1.6428    4.2985   24.6986 H   0  0  0  0  0  0
    0.0509    3.5736   24.9099 H   0  0  0  0  0  0
    1.2595    2.7994   23.8787 H   0  0  0  0  0  0
  1  6  1  0  0  0
  1  2  2  0  0  0
  1 30  1  0  0  0
  2  3  1  0  0  0
  2 28  1  0  0  0
  3  4  2  0  0  0
  3 31  1  0  0  0
  4  7  1  0  0  0
  4  5  1  0  0  0
  5  6  2  0  0  0
  5 32  1  0  0  0
  6 33  1  0  0  0
  7  8  1  0  0  0
  7 34  1  0  0  0
  8  9  1  0  0  0
  8 11  2  0  0  0
  9 13  2  0  0  0
 10 12  2  0  0  0
 10 11  1  0  0  0
 10 35  1  0  0  0
 12 17  1  0  0  0
 12 13  1  0  0  0
 13 14  1  0  0  0
 14 15  1  0  0  0
 14 18  1  0  0  0
 15 16  1  0  0  0
 15 19  2  0  0  0
 16 17  2  0  0  0
 16 20  1  0  0  0
 17 36  1  0  0  0
 18 37  1  0  0  0
 18 38  1  0  0  0
 18 39  1  0  0  0
 20 21  2  0  0  0
 20 25  1  0  0  0
 21 22  1  0  0  0
 21 27  1  0  0  0
 22 23  2  0  0  0
 22 40  1  0  0  0
 23 24  1  0  0  0
 23 41  1  0  0  0
 24 25  2  0  0  0
 24 42  1  0  0  0
 25 26  1  0  0  0
 28 29  1  0  0  0
 28 43  1  0  0  0
 28 44  1  0  0  0
 29 45  1  0  0  0
 29 46  1  0  0  0
 29 47  1  0  0  0
M  END
> <s_m_entry_id>
61009

> <s_m_entry_name>
dock_pv.286

> <s_m_Source_Path>
/home/csk/Desktop/cluster/DUD-E-result/mk14

> <s_m_Source_File>
dock_pv.maegz

> <i_m_Source_File_Index>
286

> <chembl_id>
CHEMBL565372

> <chembl_pref_name>
None

> <i_lp_mmshare_version>
53161

> <i_f3d_flags>
0

> <r_lp_tautomer_probability>
1

> <s_lp_Force_Field>
OPLS_2005

> <r_lp_Energy>
25.84257

> <b_lp_Chiralities_Consistent>
1

> <s_lp_Variant>
CHEMBL260_lig1754-1

> <s_i_glide_gridfile>
glide-grid_2qd9

> <i_i_glide_lignum>
2015

> <i_i_glide_rotatable_bonds>
4

> <r_i_docking_score>
-7.38343841619736

> <r_i_glide_ligand_efficiency>
-0.254601324696461

> <r_i_glide_ligand_efficiency_sa>
-0.782215932828857

> <r_i_glide_ligand_efficiency_ln>
-1.69062016946542

> <r_i_glide_gscore>
-7.38343841619736

> <r_i_glide_lipo>
-3.50011497606429

> <r_i_glide_hbond>
0

> <r_i_glide_metal>
0

> <r_i_glide_rewards>
-1.2797550137795

> <r_i_glide_evdw>
-43.1597328186035

> <r_i_glide_ecoul>
-5.16372871398926

> <r_i_glide_erotb>
0.328977521674997

> <r_i_glide_esite>
0

> <r_i_glide_emodel>
-62.6068955621083

> <r_i_glide_energy>
-48.3234615325928

> <r_i_glide_einternal>
3.25912237167358

> <i_i_glide_confnum>
7

> <i_i_glide_posenum>
126

> <r_i_glide_eff_state_penalty>
0

> <s_user_duplicate_titles>
CHEMBL260_lig1754,583091

> <s_m_subgroup_title>
dock_pv

> <s_m_subgroupid>
dock_pv

> <b_m_subgroup_collapsed>
1

$$$$
CHEMBL260_lig256
                    3D
 Schrodinger Suite 2021-1.
 41 43  0  0  1  0            999 V2000
    0.1705   -0.9949   24.3593 N   0  3  0  0  0  0
   -3.2461    2.0321   19.5916 C   0  0  0  0  0  0
   -3.0132    1.0759   20.7397 C   0  0  0  0  0  0
   -0.8413   -1.1332   25.4410 C   0  0  0  0  0  0
   -2.6841    1.5082   22.0495 C   0  0  0  0  0  0
   -2.1861   -1.5167   25.2059 C   0  0  0  0  0  0
   -3.8864    1.5789   18.3055 C   0  0  0  0  0  0
   -2.7465   -1.6906   23.9293 N   0  0  0  0  0  0
   -2.5661    0.5859   23.0851 C   0  0  0  0  0  0
   -3.1456   -0.3080   20.5239 C   0  0  0  0  0  0
    1.2072   -0.3860   24.6044 O   0  5  0  0  0  0
   -0.0349   -1.5130   23.2686 O   0  0  0  0  0  0
   -2.7808   -0.7739   22.8691 C   0  0  0  0  0  0
   -2.8349    3.1953   19.6417 O   0  0  0  0  0  0
   -5.2138    1.1052   18.2404 C   0  0  0  0  0  0
   -2.4328    3.1636   22.5032 Cl  0  0  0  0  0  0
   -3.0598   -1.2169   21.5784 C   0  0  0  0  0  0
   -0.4343   -0.9147   26.7692 C   0  0  0  0  0  0
   -3.1930    1.7707   17.0958 C   0  0  0  0  0  0
   -3.0480   -1.7207   26.2848 C   0  0  0  0  0  0
   -6.0664    0.8852   19.4766 C   0  0  0  0  0  0
   -5.8139    0.8869   16.9972 C   0  0  0  0  0  0
   -1.3098   -1.1085   27.8339 C   0  0  0  0  0  0
   -3.7881    1.5037   15.8671 C   0  0  0  0  0  0
   -2.6179   -1.5128   27.5925 C   0  0  0  0  0  0
   -5.1056    1.0678   15.8154 C   0  0  0  0  0  0
   -3.4144   -2.4405   23.8476 H   0  0  0  0  0  0
   -2.3376    0.9412   24.0802 H   0  0  0  0  0  0
   -3.3593   -0.7037   19.5401 H   0  0  0  0  0  0
   -3.2096   -2.2695   21.3830 H   0  0  0  0  0  0
    0.5841   -0.6232   26.9906 H   0  0  0  0  0  0
   -2.1868    2.1634   17.0759 H   0  0  0  0  0  0
   -4.0731   -2.0095   26.1161 H   0  0  0  0  0  0
   -6.0346    1.7399   20.1398 H   0  0  0  0  0  0
   -7.1053    0.6545   19.2442 H   0  0  0  0  0  0
   -5.6590    0.0769   20.0565 H   0  0  0  0  0  0
   -6.8338    0.5396   16.9462 H   0  0  0  0  0  0
   -0.9694   -0.9563   28.8490 H   0  0  0  0  0  0
   -3.2341    1.6607   14.9540 H   0  0  0  0  0  0
   -3.2949   -1.6698   28.4196 H   0  0  0  0  0  0
   -5.5780    0.8745   14.8633 H   0  0  0  0  0  0
  1  4  1  0  0  0
  1 11  1  0  0  0
  1 12  2  0  0  0
  2  3  1  0  0  0
  2  7  1  0  0  0
  2 14  2  0  0  0
  3 10  2  0  0  0
  3  5  1  0  0  0
  4  6  2  0  0  0
  4 18  1  0  0  0
  5  9  2  0  0  0
  5 16  1  0  0  0
  6  8  1  0  0  0
  6 20  1  0  0  0
  7 15  2  0  0  0
  7 19  1  0  0  0
  8 13  1  0  0  0
  8 27  1  0  0  0
  9 13  1  0  0  0
  9 28  1  0  0  0
 10 17  1  0  0  0
 10 29  1  0  0  0
 13 17  2  0  0  0
 15 21  1  0  0  0
 15 22  1  0  0  0
 17 30  1  0  0  0
 18 23  2  0  0  0
 18 31  1  0  0  0
 19 24  2  0  0  0
 19 32  1  0  0  0
 20 25  2  0  0  0
 20 33  1  0  0  0
 21 34  1  0  0  0
 21 35  1  0  0  0
 21 36  1  0  0  0
 22 26  2  0  0  0
 22 37  1  0  0  0
 23 25  1  0  0  0
 23 38  1  0  0  0
 24 26  1  0  0  0
 24 39  1  0  0  0
 25 40  1  0  0  0
 26 41  1  0  0  0
M  CHG  2   1   1  11  -1
M  END
> <s_m_entry_id>
61010

> <s_m_entry_name>
dock_pv.287

> <s_m_Source_Path>
/home/csk/Desktop/cluster/DUD-E-result/mk14

> <s_m_Source_File>
dock_pv.maegz

> <i_m_Source_File_Index>
287

> <chembl_id>
CHEMBL347576

> <chembl_pref_name>
None

> <i_lp_mmshare_version>
53161

> <i_f3d_flags>
0

> <r_lp_tautomer_probability>
1

> <s_lp_Force_Field>
OPLS_2005

> <r_lp_Energy>
39.82017

> <b_lp_Chiralities_Consistent>
1

> <s_lp_Variant>
CHEMBL260_lig256-1

> <s_i_glide_gridfile>
glide-grid_2qd9

> <i_i_glide_lignum>
307

> <i_i_glide_rotatable_bonds>
5

> <r_i_docking_score>
-7.38297879586684

> <r_i_glide_ligand_efficiency>
-0.283960722917955

> <r_i_glide_ligand_efficiency_sa>
-0.841232524312952

> <r_i_glide_ligand_efficiency_ln>
-1.73386834467997

> <r_i_glide_gscore>
-7.38297879586684

> <r_i_glide_lipo>
-3.96114093137675

> <r_i_glide_hbond>
0

> <r_i_glide_metal>
0

> <r_i_glide_rewards>
-1.5626712010061

> <r_i_glide_evdw>
-39.0230331420898

> <r_i_glide_ecoul>
-3.20251870155334

> <r_i_glide_erotb>
0.572362798853505

> <r_i_glide_esite>
0

> <r_i_glide_emodel>
-53.8519180603333

> <r_i_glide_energy>
-42.2255518436432

> <r_i_glide_einternal>
9.39328098297119

> <i_i_glide_confnum>
69

> <i_i_glide_posenum>
329

> <r_i_glide_eff_state_penalty>
0

> <s_user_duplicate_titles>
CHEMBL260_lig256

> <s_m_subgroup_title>
dock_pv

> <s_m_subgroupid>
dock_pv

> <b_m_subgroup_collapsed>
1

$$$$
CHEMBL260_lig202
                    3D
 Schrodinger Suite 2021-1.
 52 55  0  0  1  0            999 V2000
   -2.3854    1.2004   21.8785 C   0  0  0  0  0  0
   -1.7890    2.0758   22.7875 N   0  0  0  0  0  0
   -2.4342    3.2640   20.9837 N   0  0  0  0  0  0
   -2.8346    2.0189   20.8212 C   0  0  0  0  0  0
   -1.8268    3.2833   22.1428 C   0  0  0  0  0  0
   -2.4463   -0.2946   21.9932 C   0  0  0  0  0  0
   -2.4640   -0.8150   23.2428 N   0  0  0  0  0  0
   -2.4325   -2.1650   23.3682 C   0  0  0  0  0  0
   -3.6320    1.6467   19.6107 C   0  0  0  0  0  0
   -2.4209   -3.0485   22.3390 N   0  0  0  0  0  0
   -1.0505    1.8055   24.0484 C   0  0  0  0  0  0
   -2.3835   -2.7304   24.6296 O   0  0  0  0  0  0
    1.1510    2.5840   25.8496 N   0  0  2  0  0  0
   -2.4182   -1.1269   20.8690 C   0  0  0  0  0  0
   -4.7632    0.8419   19.7663 C   0  0  0  0  0  0
   -3.2648    2.0838   18.3311 C   0  0  0  0  0  0
   -2.4177   -2.5052   21.0913 C   0  0  0  0  0  0
   -5.1400    0.8932   17.3937 C   0  0  0  0  0  0
    0.4391    1.6004   23.7038 C   0  0  0  0  0  0
   -1.1855    2.9511   25.0843 C   0  0  0  0  0  0
   -3.9933    1.6656   17.2186 C   0  0  0  0  0  0
   -5.5368    0.4898   18.6695 C   0  0  0  0  0  0
   -5.8726    0.5383   16.3141 F   0  0  0  0  0  0
   -0.2344    2.7547   26.2879 C   0  0  0  0  0  0
    1.3171    1.4362   24.9571 C   0  0  0  0  0  0
   -2.0535   -1.9710   25.8023 C   0  0  0  0  0  0
   -3.0990   -0.9328   26.2425 C   0  0  0  0  0  0
   -0.6018   -1.4787   25.7747 C   0  0  0  0  0  0
   -1.2616    4.0972   22.5560 H   0  0  0  0  0  0
   -1.4888    0.9245   24.4908 H   0  0  0  0  0  0
    1.7765    2.4842   26.6432 H   0  0  0  0  0  0
   -2.3746   -0.7304   19.8657 H   0  0  0  0  0  0
   -5.0531    0.4866   20.7393 H   0  0  0  0  0  0
   -2.4387    2.7682   18.1798 H   0  0  0  0  0  0
   -2.4000   -3.1846   20.2539 H   0  0  0  0  0  0
    0.5442    0.6889   23.1092 H   0  0  0  0  0  0
    0.8354    2.3984   23.0759 H   0  0  0  0  0  0
   -1.1008    3.9559   24.6758 H   0  0  0  0  0  0
   -2.1955    2.9156   25.4940 H   0  0  0  0  0  0
   -3.7026    1.9802   16.2262 H   0  0  0  0  0  0
   -6.4273   -0.1109   18.7952 H   0  0  0  0  0  0
   -0.5387    1.8906   26.8835 H   0  0  0  0  0  0
   -0.2766    3.6294   26.9402 H   0  0  0  0  0  0
    1.0654    0.5328   25.5050 H   0  0  0  0  0  0
    2.3628    1.3156   24.6749 H   0  0  0  0  0  0
   -2.0726   -2.7096   26.5994 H   0  0  0  0  0  0
   -2.8032   -0.4661   27.1821 H   0  0  0  0  0  0
   -4.0523   -1.4264   26.4117 H   0  0  0  0  0  0
   -3.2675   -0.1336   25.5253 H   0  0  0  0  0  0
   -0.3887   -0.8002   26.5986 H   0  0  0  0  0  0
    0.0836   -2.3181   25.8666 H   0  0  0  0  0  0
   -0.3522   -0.9865   24.8392 H   0  0  0  0  0  0
  1  2  1  0  0  0
  1  4  2  0  0  0
  1  6  1  0  0  0
  2  5  1  0  0  0
  2 11  1  0  0  0
  3  4  1  0  0  0
  3  5  2  0  0  0
  4  9  1  0  0  0
  5 29  1  0  0  0
  6  7  2  0  0  0
  6 14  1  0  0  0
  7  8  1  0  0  0
  8 12  1  0  0  0
  8 10  2  0  0  0
  9 15  1  0  0  0
  9 16  2  0  0  0
 10 17  1  0  0  0
 11 19  1  0  0  0
 11 20  1  0  0  0
 11 30  1  0  0  0
 12 26  1  0  0  0
 13 24  1  0  0  0
 13 25  1  0  0  0
 13 31  1  0  0  0
 14 17  2  0  0  0
 14 32  1  0  0  0
 15 22  2  0  0  0
 15 33  1  0  0  0
 16 21  1  0  0  0
 16 34  1  0  0  0
 17 35  1  0  0  0
 18 21  2  0  0  0
 18 23  1  0  0  0
 18 22  1  0  0  0
 19 25  1  0  0  0
 19 36  1  0  0  0
 19 37  1  0  0  0
 20 24  1  0  0  0
 20 38  1  0  0  0
 20 39  1  0  0  0
 21 40  1  0  0  0
 22 41  1  0  0  0
 24 42  1  0  0  0
 24 43  1  0  0  0
 25 44  1  0  0  0
 25 45  1  0  0  0
 26 27  1  0  0  0
 26 28  1  0  0  0
 26 46  1  0  0  0
 27 47  1  0  0  0
 27 48  1  0  0  0
 27 49  1  0  0  0
 28 50  1  0  0  0
 28 51  1  0  0  0
 28 52  1  0  0  0
M  END
> <s_m_entry_id>
61011

> <s_m_entry_name>
dock_pv.288

> <s_m_Source_Path>
/home/csk/Desktop/cluster/DUD-E-result/mk14

> <s_m_Source_File>
dock_pv.maegz

> <i_m_Source_File_Index>
288

> <chembl_id>
CHEMBL95797

> <chembl_pref_name>
None

> <i_lp_mmshare_version>
53161

> <i_f3d_flags>
0

> <r_lp_tautomer_probability>
1

> <s_lp_Force_Field>
OPLS_2005

> <r_lp_Energy>
29.291596

> <b_lp_Chiralities_Consistent>
1

> <s_lp_Variant>
CHEMBL260_lig202-1

> <s_i_glide_gridfile>
glide-grid_2qd9

> <i_i_glide_lignum>
219

> <i_i_glide_rotatable_bonds>
5

> <r_i_docking_score>
-7.37431601869878

> <r_i_glide_ligand_efficiency>
-0.263368429239242

> <r_i_glide_ligand_efficiency_sa>
-0.799741666879798

> <r_i_glide_ligand_efficiency_ln>
-1.70220865644234

> <r_i_glide_gscore>
-7.37431601869878

> <r_i_glide_lipo>
-2.72484397605346

> <r_i_glide_hbond>
-0.516438413918793

> <r_i_glide_metal>
0

> <r_i_glide_rewards>
-2.46408594179285

> <r_i_glide_evdw>
-28.0355396270752

> <r_i_glide_ecoul>
-5.11907196044922

> <r_i_glide_erotb>
0.533634966397411

> <r_i_glide_esite>
-0.0329448779099519

> <r_i_glide_emodel>
-39.8563647063324

> <r_i_glide_energy>
-33.1546115875244

> <r_i_glide_einternal>
8.39439582824707

> <i_i_glide_confnum>
62

> <i_i_glide_posenum>
274

> <r_i_glide_eff_state_penalty>
0

> <s_user_duplicate_titles>
CHEMBL260_lig202,158568

> <s_m_subgroup_title>
dock_pv

> <s_m_subgroupid>
dock_pv

> <b_m_subgroup_collapsed>
1

$$$$
CHEMBL260_lig850
                    3D
 Schrodinger Suite 2021-1.
 40 43  0  0  1  0            999 V2000
   -2.0349   -3.2493   23.4760 N   0  0  0  0  0  0
   -1.5521   -2.6925   24.6493 N   0  0  0  0  0  0
   -1.5877   -1.3805   24.5367 C   0  0  0  0  0  0
   -2.3492   -2.2304   22.6515 C   0  0  0  0  0  0
   -2.0976   -1.0223   23.3150 N   0  0  0  0  0  0
   -2.3217    0.1861   22.7285 C   0  0  0  0  0  0
   -2.7755    0.2295   21.4101 C   0  0  0  0  0  0
   -3.0375   -0.9592   20.7249 C   0  0  0  0  0  0
   -2.8350   -2.1996   21.3337 C   0  0  0  0  0  0
   -2.8212    1.5413   20.7341 C   0  0  0  0  0  0
   -2.0958    2.5247   21.3268 O   0  0  0  0  0  0
   -2.0733    3.5120   20.4149 C   0  0  0  0  0  0
   -2.8347    3.2867   19.3901 N   0  0  0  0  0  0
   -3.2761    2.0495   19.5183 C   0  0  0  0  0  0
   -4.0279    1.4349   18.3831 C   0  0  0  0  0  0
   -5.3026    0.8873   18.5496 C   0  0  0  0  0  0
   -6.0349    0.4891   17.4297 C   0  0  0  0  0  0
   -5.4582    0.5571   16.1600 C   0  0  0  0  0  0
   -4.1739    1.0610   15.9936 C   0  0  0  0  0  0
   -3.4618    1.5024   17.1025 C   0  0  0  0  0  0
   -6.1225    0.0872   15.0832 F   0  0  0  0  0  0
   -1.1490   -0.4582   25.4616 O   0  0  0  0  0  0
   -0.6354   -0.9446   26.7045 C   0  0  0  0  0  0
   -1.8023   -1.1616   27.6815 C   0  0  0  0  0  0
    0.3599    0.1001   27.2241 C   0  0  0  0  0  0
   -2.0624    1.0553   23.3161 H   0  0  0  0  0  0
   -3.3640   -0.9296   19.6950 H   0  0  0  0  0  0
   -3.0249   -3.1129   20.7894 H   0  0  0  0  0  0
   -1.3991    4.3335   20.6069 H   0  0  0  0  0  0
   -5.7501    0.8297   19.5315 H   0  0  0  0  0  0
   -7.0253    0.0795   17.5566 H   0  0  0  0  0  0
   -3.7336    1.1072   15.0082 H   0  0  0  0  0  0
   -2.4737    1.9174   16.9606 H   0  0  0  0  0  0
   -0.0784   -1.8754   26.5741 H   0  0  0  0  0  0
   -1.4438   -1.5176   28.6482 H   0  0  0  0  0  0
   -2.5011   -1.9060   27.2996 H   0  0  0  0  0  0
   -2.3574   -0.2382   27.8477 H   0  0  0  0  0  0
    0.8182   -0.2190   28.1614 H   0  0  0  0  0  0
    1.1648    0.2594   26.5063 H   0  0  0  0  0  0
   -0.1232    1.0620   27.3973 H   0  0  0  0  0  0
  1  2  1  0  0  0
  1  4  2  0  0  0
  2  3  2  0  0  0
  3  5  1  0  0  0
  3 22  1  0  0  0
  4  9  1  0  0  0
  4  5  1  0  0  0
  5  6  1  0  0  0
  6  7  2  0  0  0
  6 26  1  0  0  0
  7 10  1  0  0  0
  7  8  1  0  0  0
  8  9  2  0  0  0
  8 27  1  0  0  0
  9 28  1  0  0  0
 10 11  1  0  0  0
 10 14  2  0  0  0
 11 12  1  0  0  0
 12 13  2  0  0  0
 12 29  1  0  0  0
 13 14  1  0  0  0
 14 15  1  0  0  0
 15 16  2  0  0  0
 15 20  1  0  0  0
 16 17  1  0  0  0
 16 30  1  0  0  0
 17 18  2  0  0  0
 17 31  1  0  0  0
 18 19  1  0  0  0
 18 21  1  0  0  0
 19 20  2  0  0  0
 19 32  1  0  0  0
 20 33  1  0  0  0
 22 23  1  0  0  0
 23 24  1  0  0  0
 23 25  1  0  0  0
 23 34  1  0  0  0
 24 35  1  0  0  0
 24 36  1  0  0  0
 24 37  1  0  0  0
 25 38  1  0  0  0
 25 39  1  0  0  0
 25 40  1  0  0  0
M  END
> <s_m_entry_id>
61012

> <s_m_entry_name>
dock_pv.289

> <s_m_Source_Path>
/home/csk/Desktop/cluster/DUD-E-result/mk14

> <s_m_Source_File>
dock_pv.maegz

> <i_m_Source_File_Index>
289

> <chembl_id>
CHEMBL213501

> <chembl_pref_name>
None

> <i_lp_mmshare_version>
53161

> <i_f3d_flags>
0

> <r_lp_tautomer_probability>
1

> <s_lp_Force_Field>
OPLS_2005

> <r_lp_Energy>
16.484981

> <b_lp_Chiralities_Consistent>
1

> <s_lp_Variant>
CHEMBL260_lig850-1

> <s_i_glide_gridfile>
glide-grid_2qd9

> <i_i_glide_lignum>
948

> <i_i_glide_rotatable_bonds>
4

> <r_i_docking_score>
-7.37129145739015

> <r_i_glide_ligand_efficiency>
-0.294851658295606

> <r_i_glide_ligand_efficiency_sa>
-0.862151478072777

> <r_i_glide_ligand_efficiency_ln>
-1.74721697518092

> <r_i_glide_gscore>
-7.37129145739015

> <r_i_glide_lipo>
-3.29129585751705

> <r_i_glide_hbond>
0

> <r_i_glide_metal>
0

> <r_i_glide_rewards>
-2.20479573562417

> <r_i_glide_evdw>
-26.2475986480713

> <r_i_glide_ecoul>
-6.57221269607544

> <r_i_glide_erotb>
0.495601559006985

> <r_i_glide_esite>
-0.0725895864410267

> <r_i_glide_emodel>
-38.4506173247024

> <r_i_glide_energy>
-32.8198113441467

> <r_i_glide_einternal>
4.39169454574585

> <i_i_glide_confnum>
15

> <i_i_glide_posenum>
323

> <r_i_glide_eff_state_penalty>
0

> <s_user_duplicate_titles>
CHEMBL260_lig850

> <s_m_subgroup_title>
dock_pv

> <s_m_subgroupid>
dock_pv

> <b_m_subgroup_collapsed>
1

$$$$
CHEMBL260_lig139
                    3D
 Schrodinger Suite 2021-1.
 39 42  0  0  1  0            999 V2000
   -1.3758   -1.2445   23.5698 N   0  0  0  0  0  0
   -1.4066   -2.5456   23.1562 C   0  0  0  0  0  0
   -1.7170   -0.1474   22.7575 C   0  0  0  0  0  0
   -1.0424   -0.9956   24.9284 C   0  0  0  0  0  0
   -2.1297   -0.4054   21.4439 C   0  0  0  0  0  0
   -2.4851    0.5718   20.6087 N   0  0  0  0  0  0
   -1.6348   -2.7801   21.8464 N   0  0  0  0  0  0
   -2.4351    1.8459   21.0336 C   0  0  0  0  0  0
   -2.8350    3.0525   19.8470 S   0  0  0  0  0  0
   -3.6350    2.0870   18.5486 C   0  0  0  0  0  0
   -3.1870    2.0870   17.2060 C   0  0  0  0  0  0
   -1.6749    1.1916   23.1930 C   0  0  0  0  0  0
   -2.1847   -1.8162   20.9010 C   0  0  0  0  0  0
   -3.9342    1.4670   16.2109 C   0  0  0  0  0  0
   -2.0283   -1.0749   25.9310 C   0  0  0  0  0  0
    0.2686   -0.6213   25.2815 C   0  0  0  0  0  0
   -1.3225   -3.5130   23.8760 O   0  0  0  0  0  0
   -4.8348    1.4369   18.8506 C   0  0  0  0  0  0
   -2.0350    2.2110   22.3158 C   0  0  0  0  0  0
   -5.1532    0.8845   16.5185 C   0  0  0  0  0  0
   -1.7878    2.9479   16.6760 Cl  0  0  0  0  0  0
    1.5347   -0.5112   24.1040 Cl  0  0  0  0  0  0
   -3.6581   -1.5131   25.5652 Cl  0  0  0  0  0  0
   -5.6153    0.8870   17.8338 C   0  0  0  0  0  0
   -6.0350    0.0870   15.2726 Cl  0  0  0  0  0  0
   -0.4102   -0.4074   27.5972 C   0  0  0  0  0  0
   -1.7042   -0.7914   27.2576 C   0  0  0  0  0  0
    0.5666   -0.3130   26.6101 C   0  0  0  0  0  0
   -1.5186   -3.7292   21.5260 H   0  0  0  0  0  0
   -1.3586    1.4551   24.1914 H   0  0  0  0  0  0
   -1.6116   -1.8803   19.9743 H   0  0  0  0  0  0
   -3.2134   -2.0943   20.6643 H   0  0  0  0  0  0
   -3.5839    1.4712   15.1880 H   0  0  0  0  0  0
   -5.2078    1.4292   19.8647 H   0  0  0  0  0  0
   -1.9869    3.2459   22.6183 H   0  0  0  0  0  0
   -6.5607    0.4189   18.0715 H   0  0  0  0  0  0
   -0.1604   -0.1853   28.6249 H   0  0  0  0  0  0
   -2.4585   -0.8642   28.0274 H   0  0  0  0  0  0
    1.5649   -0.0141   26.8890 H   0  0  0  0  0  0
  1  2  1  0  0  0
  1  3  1  0  0  0
  1  4  1  0  0  0
  2  7  1  0  0  0
  2 17  2  0  0  0
  3  5  2  0  0  0
  3 12  1  0  0  0
  4 15  2  0  0  0
  4 16  1  0  0  0
  5  6  1  0  0  0
  5 13  1  0  0  0
  6  8  2  0  0  0
  7 13  1  0  0  0
  7 29  1  0  0  0
  8 19  1  0  0  0
  8  9  1  0  0  0
  9 10  1  0  0  0
 10 11  1  0  0  0
 10 18  2  0  0  0
 11 14  2  0  0  0
 11 21  1  0  0  0
 12 19  2  0  0  0
 12 30  1  0  0  0
 13 31  1  0  0  0
 13 32  1  0  0  0
 14 20  1  0  0  0
 14 33  1  0  0  0
 15 23  1  0  0  0
 15 27  1  0  0  0
 16 22  1  0  0  0
 16 28  2  0  0  0
 18 24  1  0  0  0
 18 34  1  0  0  0
 19 35  1  0  0  0
 20 24  2  0  0  0
 20 25  1  0  0  0
 24 36  1  0  0  0
 26 28  1  0  0  0
 26 27  2  0  0  0
 26 37  1  0  0  0
 27 38  1  0  0  0
 28 39  1  0  0  0
M  END
> <s_m_entry_id>
61013

> <s_m_entry_name>
dock_pv.290

> <s_m_Source_Path>
/home/csk/Desktop/cluster/DUD-E-result/mk14

> <s_m_Source_File>
dock_pv.maegz

> <i_m_Source_File_Index>
290

> <chembl_id>
CHEMBL128440

> <chembl_pref_name>
None

> <i_lp_mmshare_version>
53161

> <i_f3d_flags>
0

> <r_lp_tautomer_probability>
1

> <s_lp_Force_Field>
OPLS_2005

> <r_lp_Energy>
40.416968

> <b_lp_Chiralities_Consistent>
1

> <s_lp_Variant>
CHEMBL260_lig139-1

> <s_i_glide_gridfile>
glide-grid_2qd9

> <i_i_glide_lignum>
156

> <i_i_glide_rotatable_bonds>
3

> <r_i_docking_score>
-7.36360447192243

> <r_i_glide_ligand_efficiency>
-0.26298587399723

> <r_i_glide_ligand_efficiency_sa>
-0.798580003852059

> <r_i_glide_ligand_efficiency_ln>
-1.69973611694168

> <r_i_glide_gscore>
-7.36360447192243

> <r_i_glide_lipo>
-3.48362051022731

> <r_i_glide_hbond>
-0.432425080753358

> <r_i_glide_metal>
0

> <r_i_glide_rewards>
-0.850145085588655

> <r_i_glide_evdw>
-32.4191665649414

> <r_i_glide_ecoul>
-8.33034515380859

> <r_i_glide_erotb>
0.273096305965253

> <r_i_glide_esite>
0

> <r_i_glide_emodel>
-50.785723969411

> <r_i_glide_energy>
-40.74951171875

> <r_i_glide_einternal>
0.47235894203186

> <i_i_glide_confnum>
7

> <i_i_glide_posenum>
202

> <r_i_glide_eff_state_penalty>
0

> <s_user_duplicate_titles>
CHEMBL260_lig139,213252

> <s_m_subgroup_title>
dock_pv

> <s_m_subgroupid>
dock_pv

> <b_m_subgroup_collapsed>
1

$$$$
CHEMBL260_lig1666
                    3D
 Schrodinger Suite 2021-1.
 51 54  0  0  1  0            999 V2000
   -2.6622   -0.7942   20.7660 N   0  0  0  0  0  0
   -2.2362   -1.5221   21.8496 C   0  0  0  0  0  0
   -1.6812   -0.7157   22.9233 C   0  0  0  0  0  0
   -1.6705    0.6417   22.9712 C   0  0  0  0  0  0
   -2.7246    0.6056   20.7726 C   0  0  0  0  0  0
   -2.2348    1.3601   21.8285 C   0  0  0  0  0  0
   -2.4350    2.6836   21.4356 C   0  0  0  0  0  0
   -2.9896    2.7801   20.2475 N   0  0  0  0  0  0
   -3.2353    1.5161   19.8520 N   0  0  0  0  0  0
   -2.9895   -1.5133   19.5499 C   0  0  0  0  0  0
   -2.2929   -2.7501   21.9570 O   0  0  0  0  0  0
   -1.0874    1.3768   23.9864 N   0  0  0  0  0  0
   -3.9628    1.3200   18.6525 C   0  0  0  0  0  0
   -3.3863    1.5876   17.4017 C   0  0  0  0  0  0
   -4.0897    1.3341   16.2234 C   0  0  0  0  0  0
   -5.3960    0.8579   16.2859 C   0  0  0  0  0  0
   -6.0139    0.6903   17.5232 C   0  0  0  0  0  0
   -5.2917    0.8864   18.6991 C   0  0  0  0  0  0
   -0.7860    0.9441   25.2915 C   0  0  0  0  0  0
   -5.8906    0.6299   19.8759 F   0  0  0  0  0  0
   -1.6845    0.1132   25.9750 C   0  0  0  0  0  0
   -1.4254   -0.3347   27.2753 C   0  0  0  0  0  0
   -0.2299    0.0602   27.8942 C   0  0  0  0  0  0
    0.6613    0.9032   27.2339 C   0  0  0  0  0  0
    0.3920    1.3553   25.9380 C   0  0  0  0  0  0
   -2.4350   -1.2154   27.9741 C   0  0  0  0  0  0
   -3.2152   -1.9117   27.3161 O   0  0  0  0  0  0
   -2.4659   -1.1186   29.3199 N   0  0  0  0  0  0
    1.4088    2.2610   25.2536 C   0  0  0  0  0  0
   -6.0340    0.4929   15.1537 F   0  0  0  0  0  0
   -3.5145   -1.6959   30.0465 O   0  0  0  0  0  0
   -3.2387   -3.0611   30.3350 C   0  0  0  0  0  0
   -1.2262   -1.2756   23.7251 H   0  0  0  0  0  0
   -2.1434    3.5503   22.0075 H   0  0  0  0  0  0
   -4.0728   -1.5130   19.4751 H   0  0  0  0  0  0
   -2.5631   -1.0165   18.6766 H   0  0  0  0  0  0
   -2.6378   -2.5460   19.5389 H   0  0  0  0  0  0
   -0.6745    2.2673   23.7568 H   0  0  0  0  0  0
   -2.3933    1.9781   17.3160 H   0  0  0  0  0  0
   -3.6219    1.4884   15.2613 H   0  0  0  0  0  0
   -7.0175    0.2979   17.5738 H   0  0  0  0  0  0
   -2.6045   -0.1759   25.4853 H   0  0  0  0  0  0
    0.0264   -0.2745   28.8889 H   0  0  0  0  0  0
    1.5662    1.2021   27.7388 H   0  0  0  0  0  0
   -1.9645   -0.4261   29.8543 H   0  0  0  0  0  0
    2.2988    2.4266   25.8636 H   0  0  0  0  0  0
    1.7340    1.8180   24.3129 H   0  0  0  0  0  0
    0.9665    3.2306   25.0272 H   0  0  0  0  0  0
   -4.0171   -3.4505   30.9895 H   0  0  0  0  0  0
   -2.2819   -3.1881   30.8480 H   0  0  0  0  0  0
   -3.2367   -3.6707   29.4301 H   0  0  0  0  0  0
  1 10  1  0  0  0
  1  5  1  0  0  0
  1  2  1  0  0  0
  2  3  1  0  0  0
  2 11  2  0  0  0
  3  4  2  0  0  0
  3 33  1  0  0  0
  4 12  1  0  0  0
  4  6  1  0  0  0
  5  9  1  0  0  0
  5  6  2  0  0  0
  6  7  1  0  0  0
  7  8  2  0  0  0
  7 34  1  0  0  0
  8  9  1  0  0  0
  9 13  1  0  0  0
 10 35  1  0  0  0
 10 36  1  0  0  0
 10 37  1  0  0  0
 12 19  1  0  0  0
 12 38  1  0  0  0
 13 18  1  0  0  0
 13 14  2  0  0  0
 14 15  1  0  0  0
 14 39  1  0  0  0
 15 16  2  0  0  0
 15 40  1  0  0  0
 16 17  1  0  0  0
 16 30  1  0  0  0
 17 18  2  0  0  0
 17 41  1  0  0  0
 18 20  1  0  0  0
 19 21  2  0  0  0
 19 25  1  0  0  0
 21 22  1  0  0  0
 21 42  1  0  0  0
 22 23  2  0  0  0
 22 26  1  0  0  0
 23 24  1  0  0  0
 23 43  1  0  0  0
 24 25  2  0  0  0
 24 44  1  0  0  0
 25 29  1  0  0  0
 26 27  2  0  0  0
 26 28  1  0  0  0
 28 31  1  0  0  0
 28 45  1  0  0  0
 29 46  1  0  0  0
 29 47  1  0  0  0
 29 48  1  0  0  0
 31 32  1  0  0  0
 32 49  1  0  0  0
 32 50  1  0  0  0
 32 51  1  0  0  0
M  END
> <s_m_entry_id>
61014

> <s_m_entry_name>
dock_pv.291

> <s_m_Source_Path>
/home/csk/Desktop/cluster/DUD-E-result/mk14

> <s_m_Source_File>
dock_pv.maegz

> <i_m_Source_File_Index>
291

> <chembl_id>
CHEMBL563097

> <chembl_pref_name>
None

> <i_lp_mmshare_version>
53161

> <i_f3d_flags>
0

> <r_lp_tautomer_probability>
1

> <s_lp_Force_Field>
OPLS_2005

> <r_lp_Energy>
50.888998

> <b_lp_Chiralities_Consistent>
1

> <s_lp_Variant>
CHEMBL260_lig1666-1

> <s_i_glide_gridfile>
glide-grid_2qd9

> <i_i_glide_lignum>
1918

> <i_i_glide_rotatable_bonds>
6

> <r_i_docking_score>
-7.35716007786053

> <r_i_glide_ligand_efficiency>
-0.229911252433141

> <r_i_glide_ligand_efficiency_sa>
-0.72992272710015

> <r_i_glide_ligand_efficiency_ln>
-1.64746869004234

> <r_i_glide_gscore>
-7.35716007786053

> <r_i_glide_lipo>
-2.64965474930232

> <r_i_glide_hbond>
0

> <r_i_glide_metal>
0

> <r_i_glide_rewards>
-2.31602912580348

> <r_i_glide_evdw>
-41.8626327514648

> <r_i_glide_ecoul>
-5.43442487716675

> <r_i_glide_erotb>
0.516819166393528

> <r_i_glide_esite>
0

> <r_i_glide_emodel>
-63.4762818449168

> <r_i_glide_energy>
-47.2970576286316

> <r_i_glide_einternal>
4.36605453491211

> <i_i_glide_confnum>
58

> <i_i_glide_posenum>
123

> <r_i_glide_eff_state_penalty>
0

> <s_user_duplicate_titles>
CHEMBL260_lig1666,565912

> <s_m_subgroup_title>
dock_pv

> <s_m_subgroupid>
dock_pv

> <b_m_subgroup_collapsed>
1

$$$$
CHEMBL260_lig1771
                    3D
 Schrodinger Suite 2021-1.
 50 52  0  0  1  0            999 V2000
   -2.4617   -2.3839   20.5885 C   0  0  0  0  0  0
   -2.4342   -2.8598   21.8565 N   0  0  0  0  0  0
   -2.5175   -1.9729   22.8750 C   0  0  0  0  0  0
   -2.6847   -0.6038   22.6490 C   0  0  0  0  0  0
   -2.7125   -0.1178   21.3343 C   0  0  0  0  0  0
   -2.5968   -1.0340   20.2863 C   0  0  0  0  0  0
   -2.7384    1.3414   21.0309 C   0  0  0  0  0  0
   -2.2098    2.3611   21.8177 C   0  0  0  0  0  0
   -2.2168    3.4966   21.0915 O   0  0  0  0  0  0
   -2.8351    3.2817   19.8763 N   0  0  0  0  0  0
   -3.2080    2.0186   19.8802 C   0  0  0  0  0  0
   -3.9565    1.5155   18.6908 C   0  0  0  0  0  0
   -5.2316    0.9585   18.8244 C   0  0  0  0  0  0
   -4.1187    1.3444   16.2800 C   0  0  0  0  0  0
   -3.4021    1.6868   17.4161 C   0  0  0  0  0  0
   -5.4060    0.8497   16.4182 C   0  0  0  0  0  0
   -5.9790    0.6765   17.6807 C   0  0  0  0  0  0
   -1.6018    2.4668   23.2139 C   0  0  0  0  0  0
   -2.6989    2.7276   24.2663 C   0  0  0  0  0  0
   -0.4825    3.5217   23.3252 C   0  0  0  0  0  0
   -2.4349   -2.5564   24.1456 N   0  0  0  0  0  0
   -2.2244   -1.8880   25.4314 C   0  0  1  0  0  0
   -0.9815   -0.9748   25.4934 C   0  0  0  0  0  0
   -3.4822   -1.2023   25.9751 C   0  0  0  0  0  0
    0.2946   -1.6517   24.9803 C   0  0  0  0  0  0
   -6.0701    0.4800   15.3074 F   0  0  0  0  0  0
   -2.3770   -3.1116   19.7957 H   0  0  0  0  0  0
   -2.7740    0.0666   23.4803 H   0  0  0  0  0  0
   -2.5811   -0.7174   19.2545 H   0  0  0  0  0  0
   -5.6705    0.8147   19.8015 H   0  0  0  0  0  0
   -3.6886    1.4790   15.2970 H   0  0  0  0  0  0
   -2.4349    2.1376   17.2909 H   0  0  0  0  0  0
   -6.9727    0.2644   17.7721 H   0  0  0  0  0  0
   -1.1221    1.5187   23.4418 H   0  0  0  0  0  0
   -3.5033    1.9921   24.2229 H   0  0  0  0  0  0
   -2.2873    2.7006   25.2759 H   0  0  0  0  0  0
   -3.1562    3.7070   24.1275 H   0  0  0  0  0  0
    0.3598    3.2877   22.6764 H   0  0  0  0  0  0
   -0.8338    4.5206   23.0696 H   0  0  0  0  0  0
   -0.0919    3.5704   24.3420 H   0  0  0  0  0  0
   -2.6425   -3.5403   24.1711 H   0  0  0  0  0  0
   -2.0114   -2.7068   26.1204 H   0  0  0  0  0  0
   -1.1440   -0.0446   24.9578 H   0  0  0  0  0  0
   -0.8191   -0.6836   26.5318 H   0  0  0  0  0  0
   -3.2862   -0.7913   26.9661 H   0  0  0  0  0  0
   -3.8122   -0.3835   25.3395 H   0  0  0  0  0  0
   -4.3044   -1.9122   26.0693 H   0  0  0  0  0  0
    1.1901   -1.0975   25.2638 H   0  0  0  0  0  0
    0.3650   -2.6566   25.3965 H   0  0  0  0  0  0
    0.2917   -1.7473   23.8952 H   0  0  0  0  0  0
  1  6  1  0  0  0
  1  2  2  0  0  0
  1 27  1  0  0  0
  2  3  1  0  0  0
  3  4  2  0  0  0
  3 21  1  0  0  0
  4  5  1  0  0  0
  4 28  1  0  0  0
  5  6  2  0  0  0
  5  7  1  0  0  0
  6 29  1  0  0  0
  7 11  1  0  0  0
  7  8  2  0  0  0
  8 18  1  0  0  0
  8  9  1  0  0  0
  9 10  1  0  0  0
 10 11  2  0  0  0
 11 12  1  0  0  0
 12 15  1  0  0  0
 12 13  2  0  0  0
 13 17  1  0  0  0
 13 30  1  0  0  0
 14 15  2  0  0  0
 14 16  1  0  0  0
 14 31  1  0  0  0
 15 32  1  0  0  0
 16 17  2  0  0  0
 16 26  1  0  0  0
 17 33  1  0  0  0
 18 19  1  0  0  0
 18 20  1  0  0  0
 18 34  1  0  0  0
 19 35  1  0  0  0
 19 36  1  0  0  0
 19 37  1  0  0  0
 20 38  1  0  0  0
 20 39  1  0  0  0
 20 40  1  0  0  0
 21 22  1  0  0  0
 21 41  1  0  0  0
 22 23  1  0  0  0
 22 24  1  0  0  0
 22 42  1  0  0  0
 23 25  1  0  0  0
 23 43  1  0  0  0
 23 44  1  0  0  0
 24 45  1  0  0  0
 24 46  1  0  0  0
 24 47  1  0  0  0
 25 48  1  0  0  0
 25 49  1  0  0  0
 25 50  1  0  0  0
M  END
> <s_m_entry_id>
61015

> <s_m_entry_name>
dock_pv.292

> <s_m_Source_Path>
/home/csk/Desktop/cluster/DUD-E-result/mk14

> <s_m_Source_File>
dock_pv.maegz

> <i_m_Source_File_Index>
292

> <chembl_id>
CHEMBL569551

> <chembl_pref_name>
None

> <i_lp_mmshare_version>
53161

> <i_f3d_flags>
0

> <r_lp_tautomer_probability>
0.999999772200052

> <s_lp_Force_Field>
OPLS_2005

> <r_lp_Energy>
15.3918

> <b_lp_Chiralities_Consistent>
1

> <s_lp_Variant>
CHEMBL260_lig1771-2

> <s_i_glide_gridfile>
glide-grid_2qd9

> <i_i_glide_lignum>
2065

> <i_i_glide_rotatable_bonds>
6

> <r_i_docking_score>
-7.35685627326792

> <r_i_glide_ligand_efficiency>
-0.282956010510304

> <r_i_glide_ligand_efficiency_sa>
-0.838256067758638

> <r_i_glide_ligand_efficiency_ln>
-1.72773355596261

> <r_i_glide_gscore>
-7.35685627326792

> <r_i_glide_lipo>
-3.51598139210117

> <r_i_glide_hbond>
-0.00713104781924841

> <r_i_glide_metal>
0

> <r_i_glide_rewards>
-2.37701007701607

> <r_i_glide_evdw>
-32.8959922790527

> <r_i_glide_ecoul>
-2.26754379272461

> <r_i_glide_erotb>
0.611512724141456

> <r_i_glide_esite>
-0.0833152976115585

> <r_i_glide_emodel>
-43.7686052364555

> <r_i_glide_energy>
-35.1635360717773

> <r_i_glide_einternal>
7.5107684135437

> <i_i_glide_confnum>
74

> <i_i_glide_posenum>
95

> <r_i_glide_eff_state_penalty>
0

> <s_user_duplicate_titles>
CHEMBL260_lig1771

> <s_m_subgroup_title>
dock_pv

> <s_m_subgroupid>
dock_pv

> <b_m_subgroup_collapsed>
1

$$$$
CHEMBL260_lig1762
                    3D
 Schrodinger Suite 2021-1.
 44 47  0  0  1  0            999 V2000
    0.6420    0.8670   27.6674 C   0  0  0  0  0  0
    0.9111    1.2866   26.3632 C   0  0  0  0  0  0
    0.5175    0.4975   25.2851 C   0  0  0  0  0  0
   -0.1619   -0.7041   25.5083 C   0  0  0  0  0  0
   -0.4357   -1.1129   26.8126 C   0  0  0  0  0  0
   -0.0350   -0.3309   27.8920 C   0  0  0  0  0  0
   -0.5555   -1.5365   24.4495 N   0  0  0  0  0  0
   -1.1166   -1.2047   23.2121 C   0  0  0  0  0  0
   -1.4883    0.0828   22.9833 N   0  0  0  0  0  0
   -1.8245   -1.9281   21.1305 C   0  0  0  0  0  0
   -1.2728   -2.2313   22.3360 N   0  0  0  0  0  0
   -2.2186   -0.6273   20.8068 C   0  0  0  0  0  0
   -2.0408    0.3662   21.7720 C   0  0  0  0  0  0
   -2.4365    1.7033   21.4717 N   0  0  0  0  0  0
   -2.9881    2.1111   20.2760 C   0  0  0  0  0  0
   -3.2350    1.0436   19.2967 C   0  0  0  0  0  0
   -2.8350   -0.2310   19.5430 C   0  0  0  0  0  0
   -2.2094    2.7198   22.5186 C   0  0  0  0  0  0
   -3.2308    3.2870   20.0027 O   0  0  0  0  0  0
   -3.9618    1.2871   18.0139 C   0  0  0  0  0  0
   -5.3037    0.8870   17.9517 C   0  0  0  0  0  0
   -5.8989    0.6500   16.7160 C   0  0  0  0  0  0
   -5.2352    0.8962   15.5270 C   0  0  0  0  0  0
   -3.9806    1.4684   15.5812 C   0  0  0  0  0  0
   -3.3603    1.7022   16.8000 C   0  0  0  0  0  0
   -1.9369    2.6548   16.6760 Cl  0  0  0  0  0  0
   -6.2074    0.4870   19.3756 Cl  0  0  0  0  0  0
    1.0963    1.7004   28.8515 C   0  0  0  0  0  0
    1.4518    2.2051   26.1848 H   0  0  0  0  0  0
    0.7543    0.8164   24.2810 H   0  0  0  0  0  0
   -0.9576   -2.0391   26.9969 H   0  0  0  0  0  0
   -0.2386   -0.6629   28.9000 H   0  0  0  0  0  0
   -0.2953   -2.5046   24.5450 H   0  0  0  0  0  0
   -1.9516   -2.7453   20.4330 H   0  0  0  0  0  0
   -2.9993   -0.9953   18.8059 H   0  0  0  0  0  0
   -2.6521    3.6870   22.2927 H   0  0  0  0  0  0
   -2.6406    2.3887   23.4646 H   0  0  0  0  0  0
   -1.1399    2.8663   22.6760 H   0  0  0  0  0  0
   -6.8350    0.1492   16.6850 H   0  0  0  0  0  0
   -5.6925    0.6634   14.5779 H   0  0  0  0  0  0
   -3.4668    1.7331   14.6760 H   0  0  0  0  0  0
    1.8142    1.1384   29.4516 H   0  0  0  0  0  0
    0.2484    1.9401   29.4932 H   0  0  0  0  0  0
    1.5646    2.6356   28.5419 H   0  0  0  0  0  0
  1  2  2  0  0  0
  1  6  1  0  0  0
  1 28  1  0  0  0
  2  3  1  0  0  0
  2 29  1  0  0  0
  3  4  2  0  0  0
  3 30  1  0  0  0
  4  7  1  0  0  0
  4  5  1  0  0  0
  5  6  2  0  0  0
  5 31  1  0  0  0
  6 32  1  0  0  0
  7  8  1  0  0  0
  7 33  1  0  0  0
  8  9  1  0  0  0
  8 11  2  0  0  0
  9 13  2  0  0  0
 10 12  2  0  0  0
 10 11  1  0  0  0
 10 34  1  0  0  0
 12 17  1  0  0  0
 12 13  1  0  0  0
 13 14  1  0  0  0
 14 15  1  0  0  0
 14 18  1  0  0  0
 15 16  1  0  0  0
 15 19  2  0  0  0
 16 17  2  0  0  0
 16 20  1  0  0  0
 17 35  1  0  0  0
 18 36  1  0  0  0
 18 37  1  0  0  0
 18 38  1  0  0  0
 20 21  2  0  0  0
 20 25  1  0  0  0
 21 22  1  0  0  0
 21 27  1  0  0  0
 22 23  2  0  0  0
 22 39  1  0  0  0
 23 24  1  0  0  0
 23 40  1  0  0  0
 24 25  2  0  0  0
 24 41  1  0  0  0
 25 26  1  0  0  0
 28 42  1  0  0  0
 28 43  1  0  0  0
 28 44  1  0  0  0
M  END
> <s_m_entry_id>
61016

> <s_m_entry_name>
dock_pv.293

> <s_m_Source_Path>
/home/csk/Desktop/cluster/DUD-E-result/mk14

> <s_m_Source_File>
dock_pv.maegz

> <i_m_Source_File_Index>
293

> <chembl_id>
CHEMBL111339

> <chembl_pref_name>
None

> <i_lp_mmshare_version>
53161

> <i_f3d_flags>
0

> <r_lp_tautomer_probability>
1

> <s_lp_Force_Field>
OPLS_2005

> <r_lp_Energy>
26.177571

> <b_lp_Chiralities_Consistent>
1

> <s_lp_Variant>
CHEMBL260_lig1762-1

> <s_i_glide_gridfile>
glide-grid_2qd9

> <i_i_glide_lignum>
2055

> <i_i_glide_rotatable_bonds>
3

> <r_i_docking_score>
-7.35580198340734

> <r_i_glide_ligand_efficiency>
-0.262707213693119

> <r_i_glide_ligand_efficiency_sa>
-0.797733827046639

> <r_i_glide_ligand_efficiency_ln>
-1.69793507350138

> <r_i_glide_gscore>
-7.35580198340734

> <r_i_glide_lipo>
-3.53820992971014

> <r_i_glide_hbond>
0

> <r_i_glide_metal>
0

> <r_i_glide_rewards>
-1.4336571485197

> <r_i_glide_evdw>
-40.3422584533691

> <r_i_glide_ecoul>
-4.77568054199219

> <r_i_glide_erotb>
0.349530098789777

> <r_i_glide_esite>
0

> <r_i_glide_emodel>
-57.6681798879507

> <r_i_glide_energy>
-45.1179389953613

> <r_i_glide_einternal>
3.84460687637329

> <i_i_glide_confnum>
2

> <i_i_glide_posenum>
268

> <r_i_glide_eff_state_penalty>
0

> <s_user_duplicate_titles>
CHEMBL260_lig1762,183181

> <s_m_subgroup_title>
dock_pv

> <s_m_subgroupid>
dock_pv

> <b_m_subgroup_collapsed>
1

$$$$
CHEMBL260_lig692
                    3D
 Schrodinger Suite 2021-1.
 39 41  0  0  1  0            999 V2000
    0.7650    0.0869   26.4100 N   0  0  0  0  0  0
   -0.1845   -0.8799   26.2980 C   0  0  0  0  0  0
   -1.1437   -1.1130   27.2896 C   0  0  0  0  0  0
   -1.1249   -0.3194   28.4380 C   0  0  0  0  0  0
   -0.1562    0.6775   28.5680 C   0  0  0  0  0  0
    0.7653    0.8486   27.5337 C   0  0  0  0  0  0
   -0.1042   -1.7539   25.0573 C   0  0  0  0  0  0
   -0.7735   -1.1410   23.9204 N   0  0  0  0  0  0
   -1.6554   -1.7329   23.0998 C   0  0  0  0  0  0
   -2.2566   -0.8294   22.0460 C   0  0  0  0  0  0
   -2.2617    0.5691   22.1923 C   0  0  0  0  0  0
   -2.8188    1.3821   21.2094 C   0  0  0  0  0  0
   -3.3845    0.8254   20.0669 C   0  0  0  0  0  0
   -3.3938   -0.5662   19.9284 C   0  0  0  0  0  0
   -2.8349   -1.3879   20.9017 C   0  0  0  0  0  0
   -3.9325    1.6982   19.1464 O   0  0  0  0  0  0
   -4.2449    1.2871   17.8714 C   0  0  0  0  0  0
   -3.2836    1.3551   16.8608 C   0  0  0  0  0  0
   -3.6114    0.9790   15.5613 C   0  0  0  0  0  0
   -4.8931    0.5250   15.2771 C   0  0  0  0  0  0
   -5.8578    0.4873   16.2753 C   0  0  0  0  0  0
   -5.5456    0.8870   17.5721 C   0  0  0  0  0  0
   -1.9561   -2.9287   23.1782 O   0  0  0  0  0  0
   -1.8745   -1.9011   27.1835 H   0  0  0  0  0  0
   -1.8445   -0.4855   29.2259 H   0  0  0  0  0  0
   -0.1110    1.2936   29.4538 H   0  0  0  0  0  0
    1.5478    1.5923   27.6061 H   0  0  0  0  0  0
    0.9382   -1.9068   24.7750 H   0  0  0  0  0  0
   -0.4892   -2.7486   25.2877 H   0  0  0  0  0  0
   -0.4693   -0.2077   23.6910 H   0  0  0  0  0  0
   -1.8437    1.0466   23.0669 H   0  0  0  0  0  0
   -2.8100    2.4542   21.3327 H   0  0  0  0  0  0
   -3.8521   -1.0256   19.0761 H   0  0  0  0  0  0
   -2.8620   -2.4603   20.7578 H   0  0  0  0  0  0
   -2.2891    1.7090   17.0759 H   0  0  0  0  0  0
   -2.8678    1.0251   14.7803 H   0  0  0  0  0  0
   -5.1429    0.2010   14.2771 H   0  0  0  0  0  0
   -6.8350    0.1097   16.0419 H   0  0  0  0  0  0
   -6.2980    0.8504   18.3467 H   0  0  0  0  0  0
  1  2  2  0  0  0
  1  6  1  0  0  0
  2  3  1  0  0  0
  2  7  1  0  0  0
  3  4  2  0  0  0
  3 24  1  0  0  0
  4  5  1  0  0  0
  4 25  1  0  0  0
  5  6  2  0  0  0
  5 26  1  0  0  0
  6 27  1  0  0  0
  7  8  1  0  0  0
  7 28  1  0  0  0
  7 29  1  0  0  0
  8  9  1  0  0  0
  8 30  1  0  0  0
  9 10  1  0  0  0
  9 23  2  0  0  0
 10 11  2  0  0  0
 10 15  1  0  0  0
 11 12  1  0  0  0
 11 31  1  0  0  0
 12 13  2  0  0  0
 12 32  1  0  0  0
 13 14  1  0  0  0
 13 16  1  0  0  0
 14 15  2  0  0  0
 14 33  1  0  0  0
 15 34  1  0  0  0
 16 17  1  0  0  0
 17 18  2  0  0  0
 17 22  1  0  0  0
 18 19  1  0  0  0
 18 35  1  0  0  0
 19 20  2  0  0  0
 19 36  1  0  0  0
 20 21  1  0  0  0
 20 37  1  0  0  0
 21 22  2  0  0  0
 21 38  1  0  0  0
 22 39  1  0  0  0
M  END
> <s_m_entry_id>
61017

> <s_m_entry_name>
dock_pv.294

> <s_m_Source_Path>
/home/csk/Desktop/cluster/DUD-E-result/mk14

> <s_m_Source_File>
dock_pv.maegz

> <i_m_Source_File_Index>
294

> <chembl_id>
CHEMBL199237

> <chembl_pref_name>
None

> <i_lp_mmshare_version>
53161

> <i_f3d_flags>
0

> <r_lp_tautomer_probability>
1

> <s_lp_Force_Field>
OPLS_2005

> <r_lp_Energy>
15.421155

> <b_lp_Chiralities_Consistent>
1

> <s_lp_Variant>
CHEMBL260_lig692-1

> <s_i_glide_gridfile>
glide-grid_2qd9

> <i_i_glide_lignum>
778

> <i_i_glide_rotatable_bonds>
6

> <r_i_docking_score>
-7.35510491913993

> <r_i_glide_ligand_efficiency>
-0.319787170397388

> <r_i_glide_ligand_efficiency_sa>
-0.909432173522793

> <r_i_glide_ligand_efficiency_ln>
-1.77853106185216

> <r_i_glide_gscore>
-7.35510491913993

> <r_i_glide_lipo>
-3.61482935585408

> <r_i_glide_hbond>
-0.187404491208435

> <r_i_glide_metal>
0

> <r_i_glide_rewards>
-1.78789408968674

> <r_i_glide_evdw>
-39.235221862793

> <r_i_glide_ecoul>
-5.32450866699219

> <r_i_glide_erotb>
0.995460410797792

> <r_i_glide_esite>
0

> <r_i_glide_emodel>
-62.2886076018061

> <r_i_glide_energy>
-44.5597305297852

> <r_i_glide_einternal>
3.56653141975403

> <i_i_glide_confnum>
3

> <i_i_glide_posenum>
88

> <r_i_glide_eff_state_penalty>
0

> <s_user_duplicate_titles>
CHEMBL260_lig692

> <s_m_subgroup_title>
dock_pv

> <s_m_subgroupid>
dock_pv

> <b_m_subgroup_collapsed>
1

$$$$
CHEMBL260_lig2
                    3D
 Schrodinger Suite 2021-1.
 37 40  0  0  1  0            999 V2000
   -2.0350    2.8870   14.7305 F   0  0  0  0  0  0
   -2.7262    2.2721   15.7157 C   0  0  0  0  0  0
   -3.7515    1.3531   15.4761 C   0  0  0  0  0  0
   -4.5066    0.8452   16.5397 C   0  0  0  0  0  0
   -4.2071    1.2035   17.8579 C   0  0  0  0  0  0
   -5.0624    0.4870   19.2404 S   0  0  0  0  0  0
   -3.7087    0.0870   20.3955 C   0  0  0  0  0  0
   -3.2350    1.1181   21.2870 C   0  0  0  0  0  0
   -2.3290    0.8895   22.2492 C   0  0  0  0  0  0
   -1.8685   -0.4693   22.4233 C   0  0  0  0  0  0
   -1.1206   -0.8931   23.4797 C   0  0  0  0  0  0
   -0.6105    0.0425   24.5242 C   0  0  0  0  0  0
    0.7050    0.5459   24.4651 C   0  0  0  0  0  0
    1.8049    0.0869   23.2086 Cl  0  0  0  0  0  0
    1.1650    1.4297   25.4413 C   0  0  0  0  0  0
    0.3406    1.8062   26.4969 C   0  0  0  0  0  0
   -0.9571    1.3078   26.5740 C   0  0  0  0  0  0
   -1.4359    0.4339   25.5969 C   0  0  0  0  0  0
   -3.0617   -0.1464   25.7464 Cl  0  0  0  0  0  0
   -0.8825   -2.3326   23.6619 C   0  0  0  0  0  0
   -0.3101   -2.7130   24.6760 O   0  0  0  0  0  0
   -1.3959   -3.1748   22.6560 N   0  0  0  0  0  0
   -2.0515   -2.7218   21.6549 C   0  0  0  0  0  0
   -2.3481   -1.3872   21.4690 N   0  0  0  0  0  0
   -3.2352   -1.1131   20.4786 N   0  0  0  0  0  0
   -3.2350    2.1648   18.0580 C   0  0  0  0  0  0
   -3.0785    2.8063   19.2326 F   0  0  0  0  0  0
   -2.4483    2.6463   17.0083 C   0  0  0  0  0  0
   -3.9615    1.0268   14.4722 H   0  0  0  0  0  0
   -5.2880    0.1260   16.3381 H   0  0  0  0  0  0
   -3.6350    2.0871   21.2147 H   0  0  0  0  0  0
   -2.0038    1.6824   22.9066 H   0  0  0  0  0  0
    2.1749    1.8139   25.3912 H   0  0  0  0  0  0
    0.7141    2.4767   27.2577 H   0  0  0  0  0  0
   -1.5921    1.5977   27.3982 H   0  0  0  0  0  0
   -2.4277   -3.3925   20.8855 H   0  0  0  0  0  0
   -1.6778    3.3825   17.1886 H   0  0  0  0  0  0
  1  2  1  0  0  0
  2  3  1  0  0  0
  2 28  2  0  0  0
  3  4  2  0  0  0
  3 29  1  0  0  0
  4  5  1  0  0  0
  4 30  1  0  0  0
  5  6  1  0  0  0
  5 26  2  0  0  0
  6  7  1  0  0  0
  7 25  2  0  0  0
  7  8  1  0  0  0
  8  9  2  0  0  0
  8 31  1  0  0  0
  9 10  1  0  0  0
  9 32  1  0  0  0
 10 11  2  0  0  0
 10 24  1  0  0  0
 11 20  1  0  0  0
 11 12  1  0  0  0
 12 13  1  0  0  0
 12 18  2  0  0  0
 13 14  1  0  0  0
 13 15  2  0  0  0
 15 16  1  0  0  0
 15 33  1  0  0  0
 16 17  2  0  0  0
 16 34  1  0  0  0
 17 18  1  0  0  0
 17 35  1  0  0  0
 18 19  1  0  0  0
 20 21  2  0  0  0
 20 22  1  0  0  0
 22 23  2  0  0  0
 23 24  1  0  0  0
 23 36  1  0  0  0
 24 25  1  0  0  0
 26 28  1  0  0  0
 26 27  1  0  0  0
 28 37  1  0  0  0
M  END
> <s_m_entry_id>
61018

> <s_m_entry_name>
dock_pv.295

> <s_m_Source_Path>
/home/csk/Desktop/cluster/DUD-E-result/mk14

> <s_m_Source_File>
dock_pv.maegz

> <i_m_Source_File_Index>
295

> <chembl_id>
CHEMBL119385

> <chembl_pref_name>
NEFLAMAPIMOD

> <i_lp_mmshare_version>
53161

> <i_f3d_flags>
0

> <r_lp_tautomer_probability>
1

> <s_lp_Force_Field>
OPLS_2005

> <r_lp_Energy>
36.732464

> <b_lp_Chiralities_Consistent>
1

> <s_lp_Variant>
CHEMBL260_lig2-1

> <s_i_glide_gridfile>
glide-grid_2qd9

> <i_i_glide_lignum>
2

> <i_i_glide_rotatable_bonds>
3

> <r_i_docking_score>
-7.32641440577263

> <r_i_glide_ligand_efficiency>
-0.261657657349022

> <r_i_glide_ligand_efficiency_sa>
-0.794546755830331

> <r_i_glide_ligand_efficiency_ln>
-1.69115155772651

> <r_i_glide_gscore>
-7.32641440577263

> <r_i_glide_lipo>
-3.07575497467231

> <r_i_glide_hbond>
-0.310110751887362

> <r_i_glide_metal>
0

> <r_i_glide_rewards>
-2.24912114826691

> <r_i_glide_evdw>
-26.992000579834

> <r_i_glide_ecoul>
-4.19704580307007

> <r_i_glide_erotb>
0.314168101931062

> <r_i_glide_esite>
-0.0264387334249012

> <r_i_glide_emodel>
-44.3623572328091

> <r_i_glide_energy>
-31.1890463829041

> <r_i_glide_einternal>
5.11853837966919

> <i_i_glide_confnum>
17

> <i_i_glide_posenum>
228

> <r_i_glide_eff_state_penalty>
0

> <s_user_duplicate_titles>
CHEMBL260_lig2,193962

> <s_m_subgroup_title>
dock_pv

> <s_m_subgroupid>
dock_pv

> <b_m_subgroup_collapsed>
1

$$$$
CHEMBL260_lig822
                    3D
 Schrodinger Suite 2021-1.
 39 42  0  0  1  0            999 V2000
   -1.9885   -3.1130   23.5559 N   0  0  0  0  0  0
   -1.6854   -2.5226   24.7694 N   0  0  0  0  0  0
   -1.7965   -1.2176   24.6692 C   0  0  0  0  0  0
   -2.2750   -2.1125   22.7027 C   0  0  0  0  0  0
   -2.1673   -0.8860   23.3802 N   0  0  0  0  0  0
   -2.3891    0.3025   22.7432 C   0  0  0  0  0  0
   -2.7085    0.3039   21.3871 C   0  0  0  0  0  0
   -2.8360   -0.9039   20.6989 C   0  0  0  0  0  0
   -2.6219   -2.1231   21.3431 C   0  0  0  0  0  0
   -2.7655    1.5973   20.6764 C   0  0  0  0  0  0
   -2.0352    2.6088   21.2217 O   0  0  0  0  0  0
   -2.0501    3.5705   20.2760 C   0  0  0  0  0  0
   -2.8333    3.2870   19.2805 N   0  0  0  0  0  0
   -3.2523    2.0598   19.4554 C   0  0  0  0  0  0
   -1.5230   -0.2470   25.8127 C   0  0  0  0  0  0
   -2.7520    0.6171   26.1482 C   0  0  0  0  0  0
   -0.2656    0.6032   25.5536 C   0  0  0  0  0  0
   -4.0374    1.4375   18.3488 C   0  0  0  0  0  0
   -5.2878    0.8871   18.6186 C   0  0  0  0  0  0
   -6.1202    0.4870   17.5873 C   0  0  0  0  0  0
   -5.6713    0.5187   16.2670 C   0  0  0  0  0  0
   -4.4135    1.0298   15.9805 C   0  0  0  0  0  0
   -3.6107    1.5113   17.0083 C   0  0  0  0  0  0
   -6.4343    0.0281   15.2683 F   0  0  0  0  0  0
   -5.7466    0.8104   19.8759 F   0  0  0  0  0  0
   -2.4350    2.0855   16.6760 F   0  0  0  0  0  0
   -2.2428    1.2039   23.3155 H   0  0  0  0  0  0
   -3.0591   -0.9011   19.6414 H   0  0  0  0  0  0
   -2.6918   -3.0539   20.8021 H   0  0  0  0  0  0
   -1.3262    4.3711   20.3485 H   0  0  0  0  0  0
   -1.3107   -0.8309   26.7113 H   0  0  0  0  0  0
   -3.6345   -0.0079   26.2761 H   0  0  0  0  0  0
   -2.9794    1.3477   25.3743 H   0  0  0  0  0  0
   -2.6004    1.1712   27.0753 H   0  0  0  0  0  0
    0.6136   -0.0286   25.4176 H   0  0  0  0  0  0
   -0.3624    1.2267   24.6654 H   0  0  0  0  0  0
   -0.0585    1.2666   26.3942 H   0  0  0  0  0  0
   -7.0842    0.0870   17.8577 H   0  0  0  0  0  0
   -4.0623    1.0654   14.9621 H   0  0  0  0  0  0
  1  2  1  0  0  0
  1  4  2  0  0  0
  2  3  2  0  0  0
  3 15  1  0  0  0
  3  5  1  0  0  0
  4  9  1  0  0  0
  4  5  1  0  0  0
  5  6  1  0  0  0
  6  7  2  0  0  0
  6 27  1  0  0  0
  7 10  1  0  0  0
  7  8  1  0  0  0
  8  9  2  0  0  0
  8 28  1  0  0  0
  9 29  1  0  0  0
 10 11  1  0  0  0
 10 14  2  0  0  0
 11 12  1  0  0  0
 12 13  2  0  0  0
 12 30  1  0  0  0
 13 14  1  0  0  0
 14 18  1  0  0  0
 15 16  1  0  0  0
 15 17  1  0  0  0
 15 31  1  0  0  0
 16 32  1  0  0  0
 16 33  1  0  0  0
 16 34  1  0  0  0
 17 35  1  0  0  0
 17 36  1  0  0  0
 17 37  1  0  0  0
 18 19  2  0  0  0
 18 23  1  0  0  0
 19 20  1  0  0  0
 19 25  1  0  0  0
 20 21  2  0  0  0
 20 38  1  0  0  0
 21 22  1  0  0  0
 21 24  1  0  0  0
 22 23  2  0  0  0
 22 39  1  0  0  0
 23 26  1  0  0  0
M  END
> <s_m_entry_id>
61019

> <s_m_entry_name>
dock_pv.296

> <s_m_Source_Path>
/home/csk/Desktop/cluster/DUD-E-result/mk14

> <s_m_Source_File>
dock_pv.maegz

> <i_m_Source_File_Index>
296

> <chembl_id>
CHEMBL210060

> <chembl_pref_name>
None

> <i_lp_mmshare_version>
53161

> <i_f3d_flags>
0

> <r_lp_tautomer_probability>
1

> <s_lp_Force_Field>
OPLS_2005

> <r_lp_Energy>
14.750269

> <b_lp_Chiralities_Consistent>
1

> <s_lp_Variant>
CHEMBL260_lig822-1

> <s_i_glide_gridfile>
glide-grid_2qd9

> <i_i_glide_lignum>
920

> <i_i_glide_rotatable_bonds>
3

> <r_i_docking_score>
-7.32552579087295

> <r_i_glide_ligand_efficiency>
-0.281750991956652

> <r_i_glide_ligand_efficiency_sa>
-0.834686205034962

> <r_i_glide_ligand_efficiency_ln>
-1.72037569497585

> <r_i_glide_gscore>
-7.32552579087295

> <r_i_glide_lipo>
-3.1879260542055

> <r_i_glide_hbond>
0

> <r_i_glide_metal>
0

> <r_i_glide_rewards>
-2.43631616972235

> <r_i_glide_evdw>
-22.3909759521484

> <r_i_glide_ecoul>
-5.55432033538818

> <r_i_glide_erotb>
0.298374844477977

> <r_i_glide_esite>
-0.0469615635074255

> <r_i_glide_emodel>
-31.4851869282407

> <r_i_glide_energy>
-27.9452962875366

> <r_i_glide_einternal>
1.95503628253937

> <i_i_glide_confnum>
7

> <i_i_glide_posenum>
16

> <r_i_glide_eff_state_penalty>
0

> <s_user_duplicate_titles>
CHEMBL260_lig822,355809

> <s_m_subgroup_title>
dock_pv

> <s_m_subgroupid>
dock_pv

> <b_m_subgroup_collapsed>
1

$$$$
CHEMBL260_lig931
                    3D
 Schrodinger Suite 2021-1.
 40 43  0  0  1  0            999 V2000
   -1.2701    1.4788   23.6402 C   0  0  0  0  0  0
   -1.0949    1.2406   24.9487 C   0  0  0  0  0  0
   -2.1306   -1.4976   23.8923 C   0  0  0  0  0  0
   -2.0657    0.7573   22.6319 C   0  0  0  0  0  0
   -2.4292   -0.6015   22.7198 C   0  0  0  0  0  0
   -3.0581   -1.2170   21.6218 C   0  0  0  0  0  0
   -3.3735   -0.4835   20.4792 C   0  0  0  0  0  0
   -3.0828    0.8774   20.4200 C   0  0  0  0  0  0
   -2.4343    1.4798   21.4934 C   0  0  0  0  0  0
   -2.2139   -1.0144   25.3183 C   0  0  0  0  0  0
   -1.6838    0.1992   25.8018 C   0  0  0  0  0  0
   -1.7245    0.4577   27.1781 C   0  0  0  0  0  0
   -2.2833   -0.4554   28.0675 C   0  0  0  0  0  0
   -2.8345   -1.6372   27.5871 C   0  0  0  0  0  0
   -2.8021   -1.9133   26.2228 C   0  0  0  0  0  0
   -2.0352   -2.7195   23.6982 O   0  0  0  0  0  0
   -3.3164    1.6667   19.2886 N   0  0  0  0  0  0
   -3.9566    1.3838   18.0707 C   0  0  0  0  0  0
   -3.2492    1.6871   16.9009 C   0  0  0  0  0  0
   -3.8145    1.4732   15.6468 C   0  0  0  0  0  0
   -5.1123    0.9839   15.5455 C   0  0  0  0  0  0
   -5.8366    0.7046   16.7001 C   0  0  0  0  0  0
   -5.2714    0.8870   17.9643 C   0  0  0  0  0  0
   -6.0319    0.4959   19.0724 N   0  0  0  0  0  0
   -0.7026    2.3082   23.2412 H   0  0  0  0  0  0
   -0.4156    1.9071   25.4635 H   0  0  0  0  0  0
   -3.3120   -2.2687   21.6278 H   0  0  0  0  0  0
   -3.8275   -0.9879   19.6393 H   0  0  0  0  0  0
   -2.1666    2.5241   21.4227 H   0  0  0  0  0  0
   -1.3173    1.3766   27.5742 H   0  0  0  0  0  0
   -2.2955   -0.2405   29.1261 H   0  0  0  0  0  0
   -3.2736   -2.3454   28.2753 H   0  0  0  0  0  0
   -3.2343   -2.8410   25.8787 H   0  0  0  0  0  0
   -2.6644    2.4345   19.2281 H   0  0  0  0  0  0
   -2.2450    2.0806   16.9481 H   0  0  0  0  0  0
   -3.2439    1.6843   14.7537 H   0  0  0  0  0  0
   -5.5558    0.8101   14.5769 H   0  0  0  0  0  0
   -6.8274    0.2913   16.6081 H   0  0  0  0  0  0
   -6.8601   -0.0674   18.9197 H   0  0  0  0  0  0
   -5.5922    0.5316   19.9799 H   0  0  0  0  0  0
  1  4  1  0  0  0
  1  2  2  0  0  0
  1 25  1  0  0  0
  2 11  1  0  0  0
  2 26  1  0  0  0
  3 16  2  0  0  0
  3  5  1  0  0  0
  3 10  1  0  0  0
  4  5  2  0  0  0
  4  9  1  0  0  0
  5  6  1  0  0  0
  6  7  2  0  0  0
  6 27  1  0  0  0
  7  8  1  0  0  0
  7 28  1  0  0  0
  8 17  1  0  0  0
  8  9  2  0  0  0
  9 29  1  0  0  0
 10 15  1  0  0  0
 10 11  2  0  0  0
 11 12  1  0  0  0
 12 13  2  0  0  0
 12 30  1  0  0  0
 13 14  1  0  0  0
 13 31  1  0  0  0
 14 15  2  0  0  0
 14 32  1  0  0  0
 15 33  1  0  0  0
 17 18  1  0  0  0
 17 34  1  0  0  0
 18 19  2  0  0  0
 18 23  1  0  0  0
 19 20  1  0  0  0
 19 35  1  0  0  0
 20 21  2  0  0  0
 20 36  1  0  0  0
 21 22  1  0  0  0
 21 37  1  0  0  0
 22 23  2  0  0  0
 22 38  1  0  0  0
 23 24  1  0  0  0
 24 39  1  0  0  0
 24 40  1  0  0  0
M  END
> <s_m_entry_id>
61020

> <s_m_entry_name>
dock_pv.297

> <s_m_Source_Path>
/home/csk/Desktop/cluster/DUD-E-result/mk14

> <s_m_Source_File>
dock_pv.maegz

> <i_m_Source_File_Index>
297

> <chembl_id>
CHEMBL220022

> <chembl_pref_name>
None

> <i_lp_mmshare_version>
53161

> <i_f3d_flags>
0

> <r_lp_tautomer_probability>
1

> <s_lp_Force_Field>
OPLS_2005

> <r_lp_Energy>
39.942523

> <b_lp_Chiralities_Consistent>
1

> <s_lp_Variant>
CHEMBL260_lig931-1

> <s_i_glide_gridfile>
glide-grid_2qd9

> <i_i_glide_lignum>
1034

> <i_i_glide_rotatable_bonds>
2

> <r_i_docking_score>
-7.3155629835784

> <r_i_glide_ligand_efficiency>
-0.304815124315767

> <r_i_glide_ligand_efficiency_sa>
-0.879238963203805

> <r_i_glide_ligand_efficiency_ln>
-1.75094991128182

> <r_i_glide_gscore>
-7.3155629835784

> <r_i_glide_lipo>
-3.48197524974829

> <r_i_glide_hbond>
-0.340822965086346

> <r_i_glide_metal>
0

> <r_i_glide_rewards>
-1.42858250774553

> <r_i_glide_evdw>
-37.3469047546387

> <r_i_glide_ecoul>
-3.84832000732422

> <r_i_glide_erotb>
0.38041097783233

> <r_i_glide_esite>
0

> <r_i_glide_emodel>
-52.5322429408397

> <r_i_glide_energy>
-41.1952247619629

> <r_i_glide_einternal>
10.3831806182861

> <i_i_glide_confnum>
7

> <i_i_glide_posenum>
390

> <r_i_glide_eff_state_penalty>
0

> <s_user_duplicate_titles>
CHEMBL260_lig931

> <s_m_subgroup_title>
dock_pv

> <s_m_subgroupid>
dock_pv

> <b_m_subgroup_collapsed>
1

$$$$
CHEMBL260_lig1608
                    3D
 Schrodinger Suite 2021-1.
 39 42  0  0  1  0            999 V2000
   -1.2956    1.4821   23.5838 C   0  0  0  0  0  0
   -1.1232    1.2410   24.8920 C   0  0  0  0  0  0
   -2.1291   -1.5183   23.8180 C   0  0  0  0  0  0
   -2.0691    0.7467   22.5651 C   0  0  0  0  0  0
   -2.4181   -0.6191   22.6437 C   0  0  0  0  0  0
   -3.0356   -1.2353   21.5383 C   0  0  0  0  0  0
   -3.3563   -0.4980   20.3993 C   0  0  0  0  0  0
   -3.0766    0.8670   20.3488 C   0  0  0  0  0  0
   -2.4352    1.4703   21.4260 C   0  0  0  0  0  0
   -2.2203   -1.0329   25.2389 C   0  0  0  0  0  0
   -1.7072    0.1845   25.7242 C   0  0  0  0  0  0
   -1.7458    0.5123   27.0449 N   0  0  0  0  0  0
   -2.2831   -0.3693   27.9211 C   0  0  0  0  0  0
   -2.8345   -1.5817   27.5207 C   0  0  0  0  0  0
   -2.8036   -1.9130   26.1661 C   0  0  0  0  0  0
   -2.0391   -2.7404   23.6311 O   0  0  0  0  0  0
   -3.3169    1.6610   19.2203 N   0  0  0  0  0  0
   -3.9618    1.3813   18.0035 C   0  0  0  0  0  0
   -3.2594    1.6868   16.8298 C   0  0  0  0  0  0
   -3.8300    1.4740   15.5761 C   0  0  0  0  0  0
   -5.1278    0.9847   15.4812 C   0  0  0  0  0  0
   -5.8463    0.7030   16.6387 C   0  0  0  0  0  0
   -5.2786    0.8869   17.9022 C   0  0  0  0  0  0
   -6.0344    0.4889   19.0145 N   0  0  0  0  0  0
   -0.7368    2.3212   23.1923 H   0  0  0  0  0  0
   -0.4651    1.9199   25.4188 H   0  0  0  0  0  0
   -3.2820   -2.2900   21.5357 H   0  0  0  0  0  0
   -3.8093   -0.9958   19.5539 H   0  0  0  0  0  0
   -2.1792    2.5183   21.3597 H   0  0  0  0  0  0
   -2.2702   -0.0831   28.9626 H   0  0  0  0  0  0
   -3.2641   -2.2554   28.2464 H   0  0  0  0  0  0
   -3.2344   -2.8519   25.8519 H   0  0  0  0  0  0
   -2.6549    2.4187   19.1535 H   0  0  0  0  0  0
   -2.2546    2.0798   16.8743 H   0  0  0  0  0  0
   -3.2645    1.6844   14.6790 H   0  0  0  0  0  0
   -5.5785    0.8075   14.5146 H   0  0  0  0  0  0
   -6.8342    0.2799   16.5505 H   0  0  0  0  0  0
   -6.8635   -0.0724   18.8643 H   0  0  0  0  0  0
   -5.5881    0.5139   19.9190 H   0  0  0  0  0  0
  1  4  1  0  0  0
  1  2  2  0  0  0
  1 25  1  0  0  0
  2 11  1  0  0  0
  2 26  1  0  0  0
  3 16  2  0  0  0
  3  5  1  0  0  0
  3 10  1  0  0  0
  4  5  2  0  0  0
  4  9  1  0  0  0
  5  6  1  0  0  0
  6  7  2  0  0  0
  6 27  1  0  0  0
  7  8  1  0  0  0
  7 28  1  0  0  0
  8 17  1  0  0  0
  8  9  2  0  0  0
  9 29  1  0  0  0
 10 15  1  0  0  0
 10 11  2  0  0  0
 11 12  1  0  0  0
 12 13  2  0  0  0
 13 14  1  0  0  0
 13 30  1  0  0  0
 14 15  2  0  0  0
 14 31  1  0  0  0
 15 32  1  0  0  0
 17 18  1  0  0  0
 17 33  1  0  0  0
 18 19  2  0  0  0
 18 23  1  0  0  0
 19 20  1  0  0  0
 19 34  1  0  0  0
 20 21  2  0  0  0
 20 35  1  0  0  0
 21 22  1  0  0  0
 21 36  1  0  0  0
 22 23  2  0  0  0
 22 37  1  0  0  0
 23 24  1  0  0  0
 24 38  1  0  0  0
 24 39  1  0  0  0
M  END
> <s_m_entry_id>
61021

> <s_m_entry_name>
dock_pv.298

> <s_m_Source_Path>
/home/csk/Desktop/cluster/DUD-E-result/mk14

> <s_m_Source_File>
dock_pv.maegz

> <i_m_Source_File_Index>
298

> <chembl_id>
CHEMBL473984

> <chembl_pref_name>
None

> <i_lp_mmshare_version>
53161

> <i_f3d_flags>
0

> <r_lp_tautomer_probability>
1

> <s_lp_Force_Field>
OPLS_2005

> <r_lp_Energy>
35.343637

> <b_lp_Chiralities_Consistent>
1

> <s_lp_Variant>
CHEMBL260_lig1608-1

> <s_i_glide_gridfile>
glide-grid_2qd9

> <i_i_glide_lignum>
1857

> <i_i_glide_rotatable_bonds>
2

> <r_i_docking_score>
-7.30836910122464

> <r_i_glide_ligand_efficiency>
-0.304515379217693

> <r_i_glide_ligand_efficiency_sa>
-0.878374348726924

> <r_i_glide_ligand_efficiency_ln>
-1.74922808512881

> <r_i_glide_gscore>
-7.30836910122464

> <r_i_glide_lipo>
-3.52847181883364

> <r_i_glide_hbond>
-0.332825081679449

> <r_i_glide_metal>
0

> <r_i_glide_rewards>
-1.37425261174741

> <r_i_glide_evdw>
-37.3894119262695

> <r_i_glide_ecoul>
-3.87769341468811

> <r_i_glide_erotb>
0.378305019552556

> <r_i_glide_esite>
0

> <r_i_glide_emodel>
-52.7196933844599

> <r_i_glide_energy>
-41.2671053409576

> <r_i_glide_einternal>
10.3087854385376

> <i_i_glide_confnum>
7

> <i_i_glide_posenum>
98

> <r_i_glide_eff_state_penalty>
0

> <s_user_duplicate_titles>
CHEMBL260_lig1608

> <s_m_subgroup_title>
dock_pv

> <s_m_subgroupid>
dock_pv

> <b_m_subgroup_collapsed>
1

$$$$
CHEMBL260_lig1668
                    3D
 Schrodinger Suite 2021-1.
 59 62  0  0  1  0            999 V2000
   -2.8467   -0.7691   20.9687 N   0  0  0  0  0  0
   -2.3589   -1.4310   22.0696 C   0  0  0  0  0  0
   -1.7041   -0.5774   23.0442 C   0  0  0  0  0  0
   -1.6435    0.7725   22.9927 C   0  0  0  0  0  0
   -2.8336    0.6364   20.8617 C   0  0  0  0  0  0
   -2.2632    1.4451   21.8415 C   0  0  0  0  0  0
   -2.4331    2.7511   21.3656 C   0  0  0  0  0  0
   -2.9898    2.7842   20.1781 N   0  0  0  0  0  0
   -3.2780    1.5072   19.8668 N   0  0  0  0  0  0
   -3.3419   -1.5902   19.8759 C   0  0  0  0  0  0
   -2.4328   -2.6462   22.2743 O   0  0  0  0  0  0
   -0.9473    1.4576   23.9606 N   0  0  0  0  0  0
   -3.9954    1.2870   18.6652 C   0  0  0  0  0  0
   -3.3966    1.5290   17.4189 C   0  0  0  0  0  0
   -4.0882    1.2892   16.2330 C   0  0  0  0  0  0
   -5.4011    0.8372   16.2784 C   0  0  0  0  0  0
   -6.0348    0.6851   17.5093 C   0  0  0  0  0  0
   -5.3354    0.8869   18.6963 C   0  0  0  0  0  0
   -1.3000    2.6878   24.5233 C   0  0  0  0  0  0
   -5.9625    0.6624   19.8664 F   0  0  0  0  0  0
   -0.6239    3.8339   24.1030 C   0  0  0  0  0  0
   -0.9139    5.0870   24.6635 C   0  0  0  0  0  0
   -1.8839    5.1604   25.6749 C   0  0  0  0  0  0
   -2.5553    4.0164   26.1034 C   0  0  0  0  0  0
   -2.2711    2.7729   25.5342 C   0  0  0  0  0  0
   -0.2448    6.3457   24.1710 C   0  0  0  0  0  0
   -0.8290    7.4275   24.2698 O   0  0  0  0  0  0
    0.9672    6.1924   23.6002 N   0  0  0  0  0  0
   -3.0078    1.5368   26.0362 C   0  0  0  0  0  0
   -6.0349    0.4869   15.1380 F   0  0  0  0  0  0
    1.8214    7.2087   22.9708 C   0  0  0  0  0  0
    3.0512    6.4777   22.3916 C   0  0  0  0  0  0
    2.3043    8.2387   24.0137 C   0  0  0  0  0  0
    1.0898    7.9312   21.8136 C   0  0  0  0  0  0
   -1.2295   -1.0901   23.8662 H   0  0  0  0  0  0
   -2.0981    3.6609   21.8466 H   0  0  0  0  0  0
   -2.6025   -1.6121   19.0742 H   0  0  0  0  0  0
   -3.5542   -2.6208   20.1609 H   0  0  0  0  0  0
   -4.2642   -1.1839   19.4773 H   0  0  0  0  0  0
   -0.4996    0.8760   24.6534 H   0  0  0  0  0  0
   -2.3990    1.9093   17.3455 H   0  0  0  0  0  0
   -3.6016    1.4331   15.2790 H   0  0  0  0  0  0
   -7.0470    0.3185   17.5523 H   0  0  0  0  0  0
    0.1181    3.7323   23.3228 H   0  0  0  0  0  0
   -2.1273    6.1082   26.1371 H   0  0  0  0  0  0
   -3.2952    4.0974   26.8875 H   0  0  0  0  0  0
    1.3816    5.2735   23.6520 H   0  0  0  0  0  0
   -3.6345    1.7421   26.9036 H   0  0  0  0  0  0
   -3.6346    1.1214   25.2463 H   0  0  0  0  0  0
   -2.2960    0.7628   26.3225 H   0  0  0  0  0  0
    3.7460    7.1731   21.9196 H   0  0  0  0  0  0
    2.7628    5.7468   21.6341 H   0  0  0  0  0  0
    3.6055    5.9409   23.1635 H   0  0  0  0  0  0
    1.4748    8.7931   24.4518 H   0  0  0  0  0  0
    2.8360    7.7555   24.8331 H   0  0  0  0  0  0
    2.9776    8.9722   23.5678 H   0  0  0  0  0  0
    0.2447    8.5218   22.1675 H   0  0  0  0  0  0
    1.7557    8.6156   21.2876 H   0  0  0  0  0  0
    0.7080    7.2259   21.0762 H   0  0  0  0  0  0
  1 10  1  0  0  0
  1  5  1  0  0  0
  1  2  1  0  0  0
  2 11  2  0  0  0
  2  3  1  0  0  0
  3  4  2  0  0  0
  3 35  1  0  0  0
  4 12  1  0  0  0
  4  6  1  0  0  0
  5  9  1  0  0  0
  5  6  2  0  0  0
  6  7  1  0  0  0
  7  8  2  0  0  0
  7 36  1  0  0  0
  8  9  1  0  0  0
  9 13  1  0  0  0
 10 37  1  0  0  0
 10 38  1  0  0  0
 10 39  1  0  0  0
 12 19  1  0  0  0
 12 40  1  0  0  0
 13 18  1  0  0  0
 13 14  2  0  0  0
 14 15  1  0  0  0
 14 41  1  0  0  0
 15 16  2  0  0  0
 15 42  1  0  0  0
 16 17  1  0  0  0
 16 30  1  0  0  0
 17 18  2  0  0  0
 17 43  1  0  0  0
 18 20  1  0  0  0
 19 21  2  0  0  0
 19 25  1  0  0  0
 21 22  1  0  0  0
 21 44  1  0  0  0
 22 23  2  0  0  0
 22 26  1  0  0  0
 23 24  1  0  0  0
 23 45  1  0  0  0
 24 25  2  0  0  0
 24 46  1  0  0  0
 25 29  1  0  0  0
 26 27  2  0  0  0
 26 28  1  0  0  0
 28 31  1  0  0  0
 28 47  1  0  0  0
 29 48  1  0  0  0
 29 49  1  0  0  0
 29 50  1  0  0  0
 31 32  1  0  0  0
 31 33  1  0  0  0
 31 34  1  0  0  0
 32 51  1  0  0  0
 32 52  1  0  0  0
 32 53  1  0  0  0
 33 54  1  0  0  0
 33 55  1  0  0  0
 33 56  1  0  0  0
 34 57  1  0  0  0
 34 58  1  0  0  0
 34 59  1  0  0  0
M  END
> <s_m_entry_id>
61022

> <s_m_entry_name>
dock_pv.299

> <s_m_Source_Path>
/home/csk/Desktop/cluster/DUD-E-result/mk14

> <s_m_Source_File>
dock_pv.maegz

> <i_m_Source_File_Index>
299

> <chembl_id>
CHEMBL557515

> <chembl_pref_name>
None

> <i_lp_mmshare_version>
53161

> <i_f3d_flags>
0

> <r_lp_tautomer_probability>
1

> <s_lp_Force_Field>
OPLS_2005

> <r_lp_Energy>
46.959475

> <b_lp_Chiralities_Consistent>
1

> <s_lp_Variant>
CHEMBL260_lig1668-1

> <s_i_glide_gridfile>
glide-grid_2qd9

> <i_i_glide_lignum>
1920

> <i_i_glide_rotatable_bonds>
6

> <r_i_docking_score>
-7.30451826992313

> <r_i_glide_ligand_efficiency>
-0.214838772644798

> <r_i_glide_ligand_efficiency_sa>
-0.695994222413949

> <r_i_glide_ligand_efficiency_ln>
-1.61377297062358

> <r_i_glide_gscore>
-7.30451826992313

> <r_i_glide_lipo>
-2.6627646804185

> <r_i_glide_hbond>
-0.0869448462958481

> <r_i_glide_metal>
0

> <r_i_glide_rewards>
-2.12001739405115

> <r_i_glide_evdw>
-40.5191268920898

> <r_i_glide_ecoul>
-5.4072642326355

> <r_i_glide_erotb>
0.465363287259101

> <r_i_glide_esite>
-0.0631086569169122

> <r_i_glide_emodel>
-57.958398355743

> <r_i_glide_energy>
-45.9263911247253

> <r_i_glide_einternal>
10.1411447525024

> <i_i_glide_confnum>
46

> <i_i_glide_posenum>
375

> <r_i_glide_eff_state_penalty>
0

> <s_user_duplicate_titles>
CHEMBL260_lig1668,567752

> <s_m_subgroup_title>
dock_pv

> <s_m_subgroupid>
dock_pv

> <b_m_subgroup_collapsed>
1

$$$$
CHEMBL260_lig715
                    3D
 Schrodinger Suite 2021-1.
 37 39  0  0  1  0            999 V2000
   -6.1403    0.6437   17.7102 C   0  0  0  0  0  0
   -5.6347    0.8878   16.4346 C   0  0  0  0  0  0
   -4.3458    1.3849   16.2659 C   0  0  0  0  0  0
   -3.5655    1.6603   17.3853 C   0  0  0  0  0  0
   -4.0659    1.4035   18.6676 C   0  0  0  0  0  0
   -5.3535    0.8869   18.8270 C   0  0  0  0  0  0
   -3.2928    1.7841   19.8764 C   0  0  0  0  0  0
   -2.9945    0.7421   20.8656 C   0  0  0  0  0  0
   -2.8351    2.9244   19.9929 O   0  0  0  0  0  0
   -3.2169   -0.6417   20.7592 C   0  0  0  0  0  0
   -2.8740   -1.3023   21.8392 N   0  0  0  0  0  0
   -2.3876   -0.3749   22.6779 N   0  0  0  0  0  0
   -2.4320    0.8958   22.1324 C   0  0  0  0  0  0
   -1.9595   -0.7681   23.9681 C   0  0  0  0  0  0
   -0.6295   -0.5752   24.3827 C   0  0  0  0  0  0
   -0.2782   -0.9446   25.6922 C   0  0  0  0  0  0
   -1.2233   -1.4882   26.5599 C   0  0  0  0  0  0
   -2.5346   -1.6818   26.1339 C   0  0  0  0  0  0
   -2.9025   -1.3278   24.8394 C   0  0  0  0  0  0
   -2.0040    2.0102   22.8046 N   0  0  0  0  0  0
    0.2677   -0.0373   23.4771 O   0  0  0  0  0  0
    1.6125    0.2047   23.8799 C   0  0  0  0  0  0
   -7.1387    0.2472   17.8464 H   0  0  0  0  0  0
   -6.2507    0.6818   15.5716 H   0  0  0  0  0  0
   -3.9609    1.5789   15.2750 H   0  0  0  0  0  0
   -2.5790    2.0766   17.2443 H   0  0  0  0  0  0
   -5.7657    0.6995   19.8095 H   0  0  0  0  0  0
   -3.6375   -1.1591   19.9075 H   0  0  0  0  0  0
    0.7299   -0.8182   26.0603 H   0  0  0  0  0  0
   -0.9342   -1.7664   27.5635 H   0  0  0  0  0  0
   -3.2661   -2.1057   26.8079 H   0  0  0  0  0  0
   -3.9256   -1.4757   24.5198 H   0  0  0  0  0  0
   -1.9739    2.9036   22.3386 H   0  0  0  0  0  0
   -1.5335    1.9345   23.6961 H   0  0  0  0  0  0
    2.1728    0.6268   23.0454 H   0  0  0  0  0  0
    1.6587    0.9248   24.6976 H   0  0  0  0  0  0
    2.1163   -0.7120   24.1866 H   0  0  0  0  0  0
  1  6  2  0  0  0
  1  2  1  0  0  0
  1 23  1  0  0  0
  2  3  2  0  0  0
  2 24  1  0  0  0
  3  4  1  0  0  0
  3 25  1  0  0  0
  4  5  2  0  0  0
  4 26  1  0  0  0
  5  6  1  0  0  0
  5  7  1  0  0  0
  6 27  1  0  0  0
  7  8  1  0  0  0
  7  9  2  0  0  0
  8 13  2  0  0  0
  8 10  1  0  0  0
 10 11  2  0  0  0
 10 28  1  0  0  0
 11 12  1  0  0  0
 12 13  1  0  0  0
 12 14  1  0  0  0
 13 20  1  0  0  0
 14 15  2  0  0  0
 14 19  1  0  0  0
 15 16  1  0  0  0
 15 21  1  0  0  0
 16 17  2  0  0  0
 16 29  1  0  0  0
 17 18  1  0  0  0
 17 30  1  0  0  0
 18 19  2  0  0  0
 18 31  1  0  0  0
 19 32  1  0  0  0
 20 33  1  0  0  0
 20 34  1  0  0  0
 21 22  1  0  0  0
 22 35  1  0  0  0
 22 36  1  0  0  0
 22 37  1  0  0  0
M  END
> <s_m_entry_id>
61023

> <s_m_entry_name>
dock_pv.300

> <s_m_Source_Path>
/home/csk/Desktop/cluster/DUD-E-result/mk14

> <s_m_Source_File>
dock_pv.maegz

> <i_m_Source_File_Index>
300

> <chembl_id>
CHEMBL383024

> <chembl_pref_name>
None

> <i_lp_mmshare_version>
53161

> <i_f3d_flags>
0

> <r_lp_tautomer_probability>
1

> <s_lp_Force_Field>
OPLS_2005

> <r_lp_Energy>
29.848066

> <b_lp_Chiralities_Consistent>
1

> <s_lp_Variant>
CHEMBL260_lig715-1

> <s_i_glide_gridfile>
glide-grid_2qd9

> <i_i_glide_lignum>
805

> <i_i_glide_rotatable_bonds>
4

> <r_i_docking_score>
-7.29660173118855

> <r_i_glide_ligand_efficiency>
-0.331663715054025

> <r_i_glide_ligand_efficiency_sa>
-0.929334773175121

> <r_i_glide_ligand_efficiency_ln>
-1.78355561311734

> <r_i_glide_gscore>
-7.29660173118855

> <r_i_glide_lipo>
-3.55610411662833

> <r_i_glide_hbond>
0

> <r_i_glide_metal>
0

> <r_i_glide_rewards>
-1.98714797966053

> <r_i_glide_evdw>
-37.0617599487305

> <r_i_glide_ecoul>
-3.58233547210693

> <r_i_glide_erotb>
0.637088683352874

> <r_i_glide_esite>
0

> <r_i_glide_emodel>
-54.7530570245601

> <r_i_glide_energy>
-40.6440954208374

> <r_i_glide_einternal>
7.3635048866272

> <i_i_glide_confnum>
22

> <i_i_glide_posenum>
8

> <r_i_glide_eff_state_penalty>
0

> <s_user_duplicate_titles>
CHEMBL260_lig715,340598

> <s_m_subgroup_title>
dock_pv

> <s_m_subgroupid>
dock_pv

> <b_m_subgroup_collapsed>
1

$$$$
CHEMBL260_lig1863
                    3D
 Schrodinger Suite 2021-1.
 46 50  0  0  1  0            999 V2000
   -3.2324    0.5817   19.9988 N   0  0  0  0  0  0
   -2.6527    1.1557   21.9801 C   0  0  0  0  0  0
   -3.2350    1.5877   20.8926 N   0  0  0  0  0  0
   -2.1467   -0.1719   21.8173 C   0  0  0  0  0  0
   -2.5837   -0.5313   20.5196 C   0  0  0  0  0  0
   -2.3219   -1.8148   20.0444 C   0  0  0  0  0  0
   -1.6679   -2.7130   20.8204 N   0  0  0  0  0  0
   -1.2350   -2.3845   22.0445 N   0  0  0  0  0  0
   -1.4105   -1.1368   22.5491 C   0  0  0  0  0  0
   -3.8520    0.7755   18.7480 C   0  0  0  0  0  0
   -5.2405    0.8870   18.6609 C   0  0  0  0  0  0
   -5.8400    1.0748   17.4185 C   0  0  0  0  0  0
   -5.0651    1.1990   16.2710 C   0  0  0  0  0  0
   -3.6882    1.1136   16.3461 C   0  0  0  0  0  0
   -3.0946    0.8870   17.5776 C   0  0  0  0  0  0
   -0.8196   -0.9472   23.8093 N   0  0  0  0  0  0
   -0.2967    0.1800   24.4708 C   0  0  0  0  0  0
   -0.1131    1.3899   23.8017 C   0  0  0  0  0  0
    0.3733    2.5244   24.4490 C   0  0  0  0  0  0
    0.7844    2.4212   25.7828 C   0  0  0  0  0  0
    0.6435    1.2100   26.4612 C   0  0  0  0  0  0
    0.0850    0.0998   25.8208 C   0  0  0  0  0  0
    0.4046    3.8252   23.7006 C   0  0  0  0  0  0
   -0.5870    4.2067   23.0760 O   0  0  0  0  0  0
    1.5650    4.4891   23.7379 N   0  0  0  0  0  0
    1.8388    5.6870   22.9556 C   0  0  0  0  0  0
   -0.1180   -1.3595   26.7278 Cl  0  0  0  0  0  0
   -6.0165    0.7837   19.7602 F   0  0  0  0  0  0
   -5.6350    1.3922   15.0760 F   0  0  0  0  0  0
    1.3181    7.0151   23.4502 C   0  0  0  0  0  0
    2.7991    6.7047   23.5160 C   0  0  0  0  0  0
   -2.5804    1.7963   22.8468 H   0  0  0  0  0  0
   -2.6373   -2.1516   19.0760 H   0  0  0  0  0  0
   -6.9081    1.1488   17.3571 H   0  0  0  0  0  0
   -3.0892    1.1920   15.4501 H   0  0  0  0  0  0
   -2.0350    0.7531   17.5734 H   0  0  0  0  0  0
   -0.5122   -1.8144   24.2243 H   0  0  0  0  0  0
   -0.3268    1.4584   22.7494 H   0  0  0  0  0  0
    1.1936    3.2742   26.3068 H   0  0  0  0  0  0
    0.9599    1.1379   27.4925 H   0  0  0  0  0  0
    2.3854    3.9556   24.0129 H   0  0  0  0  0  0
    1.8404    5.5153   21.8760 H   0  0  0  0  0  0
    0.7365    7.0357   24.3724 H   0  0  0  0  0  0
    0.9520    7.7278   22.7109 H   0  0  0  0  0  0
    3.4816    7.1965   22.8234 H   0  0  0  0  0  0
    3.2650    6.5023   24.4817 H   0  0  0  0  0  0
  1 10  1  0  0  0
  1  3  1  0  0  0
  1  5  1  0  0  0
  2  4  1  0  0  0
  2  3  2  0  0  0
  2 32  1  0  0  0
  4  9  1  0  0  0
  4  5  2  0  0  0
  5  6  1  0  0  0
  6  7  2  0  0  0
  6 33  1  0  0  0
  7  8  1  0  0  0
  8  9  2  0  0  0
  9 16  1  0  0  0
 10 15  1  0  0  0
 10 11  2  0  0  0
 11 12  1  0  0  0
 11 28  1  0  0  0
 12 13  2  0  0  0
 12 34  1  0  0  0
 13 14  1  0  0  0
 13 29  1  0  0  0
 14 15  2  0  0  0
 14 35  1  0  0  0
 15 36  1  0  0  0
 16 17  1  0  0  0
 16 37  1  0  0  0
 17 18  2  0  0  0
 17 22  1  0  0  0
 18 19  1  0  0  0
 18 38  1  0  0  0
 19 20  2  0  0  0
 19 23  1  0  0  0
 20 21  1  0  0  0
 20 39  1  0  0  0
 21 22  2  0  0  0
 21 40  1  0  0  0
 22 27  1  0  0  0
 23 24  2  0  0  0
 23 25  1  0  0  0
 25 26  1  0  0  0
 25 41  1  0  0  0
 26 30  1  0  0  0
 26 31  1  0  0  0
 26 42  1  0  0  0
 30 31  1  0  0  0
 30 43  1  0  0  0
 30 44  1  0  0  0
 31 45  1  0  0  0
 31 46  1  0  0  0
M  END
> <s_m_entry_id>
61024

> <s_m_entry_name>
dock_pv.301

> <s_m_Source_Path>
/home/csk/Desktop/cluster/DUD-E-result/mk14

> <s_m_Source_File>
dock_pv.maegz

> <i_m_Source_File_Index>
301

> <chembl_id>
CHEMBL1088032

> <chembl_pref_name>
None

> <i_lp_mmshare_version>
53161

> <i_f3d_flags>
0

> <r_lp_tautomer_probability>
1

> <s_lp_Force_Field>
OPLS_2005

> <r_lp_Energy>
48.36051

> <b_lp_Chiralities_Consistent>
1

> <s_lp_Variant>
CHEMBL260_lig1863-1

> <s_i_glide_gridfile>
glide-grid_2qd9

> <i_i_glide_lignum>
2184

> <i_i_glide_rotatable_bonds>
6

> <r_i_docking_score>
-7.29398445456014

> <r_i_glide_ligand_efficiency>
-0.235289821114843

> <r_i_glide_ligand_efficiency_sa>
-0.73913489090874

> <r_i_glide_ligand_efficiency_ln>
-1.64501702828145

> <r_i_glide_gscore>
-7.29398445456014

> <r_i_glide_lipo>
-2.95811279226988

> <r_i_glide_hbond>
-0.32

> <r_i_glide_metal>
0

> <r_i_glide_rewards>
-1.52799860797087

> <r_i_glide_evdw>
-40.3862609863281

> <r_i_glide_ecoul>
-6.60329532623291

> <r_i_glide_erotb>
0.616566922660128

> <r_i_glide_esite>
-0.0946326287281669

> <r_i_glide_emodel>
-61.7994697633822

> <r_i_glide_energy>
-46.989556312561

> <r_i_glide_einternal>
8.76831817626953

> <i_i_glide_confnum>
53

> <i_i_glide_posenum>
53

> <r_i_glide_eff_state_penalty>
0

> <s_user_duplicate_titles>
CHEMBL260_lig1863,613875

> <s_m_subgroup_title>
dock_pv

> <s_m_subgroupid>
dock_pv

> <b_m_subgroup_collapsed>
1

$$$$
CHEMBL260_lig1447
                    3D
 Schrodinger Suite 2021-1.
 46 49  0  0  1  0            999 V2000
   -0.9503   -1.7878   26.1822 C   0  0  0  0  0  0
   -1.6384    3.0651   22.6658 C   0  0  0  0  0  0
   -2.2970    3.1260   21.5245 N   0  0  0  0  0  0
   -2.7305    1.8919   21.2625 C   0  0  0  0  0  0
   -2.3020    1.0041   22.2521 C   0  0  0  0  0  0
   -1.6123    1.7951   23.1313 N   0  0  0  0  0  0
   -3.5299    1.5722   20.0410 C   0  0  0  0  0  0
   -3.2407    2.1175   18.7922 C   0  0  0  0  0  0
   -3.9415    1.6838   17.6625 C   0  0  0  0  0  0
   -5.0619    0.8875   17.8142 C   0  0  0  0  0  0
   -5.4194    0.4156   19.0727 C   0  0  0  0  0  0
   -4.5970    0.6869   20.1516 C   0  0  0  0  0  0
   -2.3308   -0.4649   22.4344 C   0  0  0  0  0  0
   -2.2567   -1.3673   21.3689 C   0  0  0  0  0  0
   -2.0115   -2.7091   21.6603 C   0  0  0  0  0  0
   -1.7533   -3.1438   22.9200 N   0  0  0  0  0  0
   -1.8113   -2.2523   23.9382 C   0  0  0  0  0  0
   -2.2317   -0.9420   23.7407 C   0  0  0  0  0  0
   -0.8032    4.3837   23.4766 S   0  0  0  0  0  0
    0.6208    4.5074   22.3562 C   0  0  0  0  0  0
   -1.2740   -2.7122   25.1232 O   0  0  0  0  0  0
   -5.8027    0.5495   16.7323 F   0  0  0  0  0  0
   -0.0516   -0.6165   25.7665 C   0  0  0  0  0  0
   -0.1808    0.5983   26.4462 C   0  0  0  0  0  0
    0.5472    1.7090   26.0366 C   0  0  0  0  0  0
    1.4029    1.6060   24.9457 C   0  0  0  0  0  0
    1.5635    0.3946   24.2730 C   0  0  0  0  0  0
    0.8492   -0.7210   24.6993 C   0  0  0  0  0  0
   -0.4349   -2.3101   26.9841 H   0  0  0  0  0  0
   -1.8808   -1.4212   26.6191 H   0  0  0  0  0  0
   -1.1191    1.4818   23.9561 H   0  0  0  0  0  0
   -2.4711    2.8743   18.6942 H   0  0  0  0  0  0
   -3.6814    2.0725   16.6867 H   0  0  0  0  0  0
   -6.2740   -0.2374   19.1805 H   0  0  0  0  0  0
   -4.8314    0.2106   21.0766 H   0  0  0  0  0  0
   -2.3158   -1.0354   20.3418 H   0  0  0  0  0  0
   -1.9395   -3.4455   20.8720 H   0  0  0  0  0  0
   -2.2999   -0.2553   24.5694 H   0  0  0  0  0  0
    1.1537    5.4398   22.5351 H   0  0  0  0  0  0
    1.3131    3.6877   22.5364 H   0  0  0  0  0  0
    0.3130    4.4927   21.3111 H   0  0  0  0  0  0
   -0.8579    0.6883   27.2831 H   0  0  0  0  0  0
    0.4486    2.6492   26.5612 H   0  0  0  0  0  0
    1.9642    2.4724   24.6334 H   0  0  0  0  0  0
    2.2505    0.3208   23.4444 H   0  0  0  0  0  0
    0.9773   -1.6622   24.1826 H   0  0  0  0  0  0
  1 21  1  0  0  0
  1 23  1  0  0  0
  1 29  1  0  0  0
  1 30  1  0  0  0
  2 19  1  0  0  0
  2  6  1  0  0  0
  2  3  2  0  0  0
  3  4  1  0  0  0
  4  5  2  0  0  0
  4  7  1  0  0  0
  5 13  1  0  0  0
  5  6  1  0  0  0
  6 31  1  0  0  0
  7  8  2  0  0  0
  7 12  1  0  0  0
  8  9  1  0  0  0
  8 32  1  0  0  0
  9 10  2  0  0  0
  9 33  1  0  0  0
 10 11  1  0  0  0
 10 22  1  0  0  0
 11 12  2  0  0  0
 11 34  1  0  0  0
 12 35  1  0  0  0
 13 18  1  0  0  0
 13 14  2  0  0  0
 14 15  1  0  0  0
 14 36  1  0  0  0
 15 16  2  0  0  0
 15 37  1  0  0  0
 16 17  1  0  0  0
 17 18  2  0  0  0
 17 21  1  0  0  0
 18 38  1  0  0  0
 19 20  1  0  0  0
 20 39  1  0  0  0
 20 40  1  0  0  0
 20 41  1  0  0  0
 23 24  2  0  0  0
 23 28  1  0  0  0
 24 25  1  0  0  0
 24 42  1  0  0  0
 25 26  2  0  0  0
 25 43  1  0  0  0
 26 27  1  0  0  0
 26 44  1  0  0  0
 27 28  2  0  0  0
 27 45  1  0  0  0
 28 46  1  0  0  0
M  END
> <s_m_entry_id>
61025

> <s_m_entry_name>
dock_pv.302

> <s_m_Source_Path>
/home/csk/Desktop/cluster/DUD-E-result/mk14

> <s_m_Source_File>
dock_pv.maegz

> <i_m_Source_File_Index>
302

> <chembl_id>
CHEMBL479985

> <chembl_pref_name>
None

> <i_lp_mmshare_version>
53161

> <i_f3d_flags>
0

> <r_lp_tautomer_probability>
0.999999999976373

> <s_lp_Force_Field>
OPLS_2005

> <r_lp_Energy>
15.511145

> <b_lp_Chiralities_Consistent>
1

> <s_lp_Variant>
CHEMBL260_lig1447-1

> <s_i_glide_gridfile>
glide-grid_2qd9

> <i_i_glide_lignum>
1662

> <i_i_glide_rotatable_bonds>
6

> <r_i_docking_score>
-7.29055784056001

> <r_i_glide_ligand_efficiency>
-0.260377065734286

> <r_i_glide_ligand_efficiency_sa>
-0.790658125459865

> <r_i_glide_ligand_efficiency_ln>
-1.68287480968094

> <r_i_glide_gscore>
-7.29055784056001

> <r_i_glide_lipo>
-2.95848535110008

> <r_i_glide_hbond>
-0.489256432482716

> <r_i_glide_metal>
0

> <r_i_glide_rewards>
-1.93353859752437

> <r_i_glide_evdw>
-28.2070369720459

> <r_i_glide_ecoul>
-7.43315696716309

> <r_i_glide_erotb>
0.636731139927409

> <r_i_glide_esite>
-0.0206832057034884

> <r_i_glide_emodel>
-41.9027720826847

> <r_i_glide_energy>
-35.640193939209

> <r_i_glide_einternal>
7.83448219299316

> <i_i_glide_confnum>
54

> <i_i_glide_posenum>
372

> <r_i_glide_eff_state_penalty>
0

> <s_user_duplicate_titles>
CHEMBL260_lig1447,467778

> <s_m_subgroup_title>
dock_pv

> <s_m_subgroupid>
dock_pv

> <b_m_subgroup_collapsed>
1

$$$$
CHEMBL260_lig936
                    3D
 Schrodinger Suite 2021-1.
 40 43  0  0  1  0            999 V2000
   -2.1665    1.8701   23.7291 O   0  0  0  0  0  0
   -2.9757    1.6834   24.8736 C   0  0  0  0  0  0
   -2.3144   -1.1726   23.9785 C   0  0  0  0  0  0
   -2.4582    1.0621   22.6637 C   0  0  0  0  0  0
   -2.6085   -0.3376   22.7458 C   0  0  0  0  0  0
   -3.0074   -1.0367   21.5875 C   0  0  0  0  0  0
   -3.2745   -0.3575   20.3980 C   0  0  0  0  0  0
   -3.1179    1.0266   20.3302 C   0  0  0  0  0  0
   -2.6810    1.7119   21.4541 C   0  0  0  0  0  0
   -2.0108   -0.6167   25.3599 C   0  0  0  0  0  0
   -2.3375    0.6819   25.8090 C   0  0  0  0  0  0
   -2.0397    1.0513   27.1262 C   0  0  0  0  0  0
   -1.4210    0.1631   27.9988 C   0  0  0  0  0  0
   -1.0918   -1.1131   27.5620 C   0  0  0  0  0  0
   -1.3876   -1.5050   26.2588 C   0  0  0  0  0  0
   -2.2908   -2.4039   23.8418 O   0  0  0  0  0  0
   -3.3331    1.7688   19.1618 N   0  0  0  0  0  0
   -3.9814    1.4046   17.9693 C   0  0  0  0  0  0
   -3.2925    1.6097   16.7684 C   0  0  0  0  0  0
   -3.8500    1.2053   15.5560 C   0  0  0  0  0  0
   -5.1230    0.6411   15.5251 C   0  0  0  0  0  0
   -5.8561    0.5311   16.6993 C   0  0  0  0  0  0
   -5.2909    0.8862   17.9253 C   0  0  0  0  0  0
   -6.0346    0.6108   19.0758 N   0  0  0  0  0  0
   -5.6337    0.1481   14.3762 F   0  0  0  0  0  0
   -3.9969    1.3794   24.6295 H   0  0  0  0  0  0
   -3.0662    2.6514   25.3682 H   0  0  0  0  0  0
   -3.1283   -2.1120   21.5819 H   0  0  0  0  0  0
   -3.5822   -0.9156   19.5255 H   0  0  0  0  0  0
   -2.5476    2.7821   21.4104 H   0  0  0  0  0  0
   -2.2779    2.0441   27.4796 H   0  0  0  0  0  0
   -1.1888    0.4650   29.0092 H   0  0  0  0  0  0
   -0.6087   -1.8063   28.2369 H   0  0  0  0  0  0
   -1.1067   -2.5069   25.9656 H   0  0  0  0  0  0
   -2.6614    2.5133   19.0559 H   0  0  0  0  0  0
   -2.2966    2.0276   16.7690 H   0  0  0  0  0  0
   -3.2772    1.2994   14.6480 H   0  0  0  0  0  0
   -6.8349    0.0782   16.6625 H   0  0  0  0  0  0
   -6.8467    0.0132   18.9904 H   0  0  0  0  0  0
   -5.5744    0.7271   19.9673 H   0  0  0  0  0  0
  1  4  1  0  0  0
  1  2  1  0  0  0
  2 11  1  0  0  0
  2 26  1  0  0  0
  2 27  1  0  0  0
  3 16  2  0  0  0
  3  5  1  0  0  0
  3 10  1  0  0  0
  4  9  1  0  0  0
  4  5  2  0  0  0
  5  6  1  0  0  0
  6  7  2  0  0  0
  6 28  1  0  0  0
  7  8  1  0  0  0
  7 29  1  0  0  0
  8 17  1  0  0  0
  8  9  2  0  0  0
  9 30  1  0  0  0
 10 15  1  0  0  0
 10 11  2  0  0  0
 11 12  1  0  0  0
 12 13  2  0  0  0
 12 31  1  0  0  0
 13 14  1  0  0  0
 13 32  1  0  0  0
 14 15  2  0  0  0
 14 33  1  0  0  0
 15 34  1  0  0  0
 17 18  1  0  0  0
 17 35  1  0  0  0
 18 19  2  0  0  0
 18 23  1  0  0  0
 19 20  1  0  0  0
 19 36  1  0  0  0
 20 21  2  0  0  0
 20 37  1  0  0  0
 21 22  1  0  0  0
 21 25  1  0  0  0
 22 23  2  0  0  0
 22 38  1  0  0  0
 23 24  1  0  0  0
 24 39  1  0  0  0
 24 40  1  0  0  0
M  END
> <s_m_entry_id>
61026

> <s_m_entry_name>
dock_pv.303

> <s_m_Source_Path>
/home/csk/Desktop/cluster/DUD-E-result/mk14

> <s_m_Source_File>
dock_pv.maegz

> <i_m_Source_File_Index>
303

> <chembl_id>
CHEMBL218961

> <chembl_pref_name>
None

> <i_lp_mmshare_version>
53161

> <i_f3d_flags>
0

> <r_lp_tautomer_probability>
1

> <s_lp_Force_Field>
OPLS_2005

> <r_lp_Energy>
37.34206

> <b_lp_Chiralities_Consistent>
1

> <s_lp_Variant>
CHEMBL260_lig936-1

> <s_i_glide_gridfile>
glide-grid_2qd9

> <i_i_glide_lignum>
1039

> <i_i_glide_rotatable_bonds>
2

> <r_i_docking_score>
-7.28700378623007

> <r_i_glide_ligand_efficiency>
-0.291480151449203

> <r_i_glide_ligand_efficiency_sa>
-0.852293132259967

> <r_i_glide_ligand_efficiency_ln>
-1.72723827121831

> <r_i_glide_gscore>
-7.28700378623007

> <r_i_glide_lipo>
-3.48216002236184

> <r_i_glide_hbond>
-0.133826413091648

> <r_i_glide_metal>
0

> <r_i_glide_rewards>
-1.71822957768513

> <r_i_glide_evdw>
-36.5078201293945

> <r_i_glide_ecoul>
-3.09877109527588

> <r_i_glide_erotb>
0.337418897669652

> <r_i_glide_esite>
0

> <r_i_glide_emodel>
-50.6715047864837

> <r_i_glide_energy>
-39.6065912246704

> <r_i_glide_einternal>
8.71550750732422

> <i_i_glide_confnum>
49

> <i_i_glide_posenum>
399

> <r_i_glide_eff_state_penalty>
0

> <s_user_duplicate_titles>
CHEMBL260_lig936,365302

> <s_m_subgroup_title>
dock_pv

> <s_m_subgroupid>
dock_pv

> <b_m_subgroup_collapsed>
1

$$$$
CHEMBL260_lig1448
                    3D
 Schrodinger Suite 2021-1.
 51 54  0  0  1  0            999 V2000
   -0.5985   -0.7538   25.6683 C   0  0  1  0  0  0
   -3.6830    1.1607   19.2030 C   0  0  0  0  0  0
   -3.4131    2.0951   20.0879 N   0  0  0  0  0  0
   -2.7810    1.4813   21.0907 C   0  0  0  0  0  0
   -2.5895    0.1306   20.8003 C   0  0  0  0  0  0
   -3.1272   -0.0198   19.5558 N   0  0  0  0  0  0
   -2.4608    2.1699   22.3836 C   0  0  0  0  0  0
   -1.6350    3.2870   22.4101 C   0  0  0  0  0  0
   -1.3092    3.9001   23.6189 C   0  0  0  0  0  0
   -1.8626    3.4262   24.8043 C   0  0  0  0  0  0
   -2.7177    2.3296   24.7925 C   0  0  0  0  0  0
   -3.0066    1.6997   23.5852 C   0  0  0  0  0  0
   -2.0888   -1.0229   21.5738 C   0  0  0  0  0  0
   -2.3427   -2.3013   21.0804 C   0  0  0  0  0  0
   -2.0350   -3.3803   21.8760 C   0  0  0  0  0  0
   -1.5407   -3.2586   23.1302 N   0  0  0  0  0  0
   -1.2506   -2.0263   23.5976 C   0  0  0  0  0  0
   -1.4647   -0.8885   22.8187 C   0  0  0  0  0  0
   -4.7163    1.2870   17.7957 S   0  0  0  0  0  0
   -6.1937    0.6172   18.6173 C   0  0  0  0  0  0
   -0.7498   -1.9877   24.9045 N   0  0  0  0  0  0
   -1.5737    4.0405   25.9723 F   0  0  0  0  0  0
   -0.7230   -1.1065   27.1666 C   0  0  0  0  0  0
   -0.4269    0.1019   28.0776 C   0  0  0  0  0  0
    0.9242    0.7591   27.7349 C   0  0  1  0  0  0
    1.0080    1.1257   26.2394 C   0  0  0  0  0  0
    0.7650   -0.1050   25.3449 C   0  0  0  0  0  0
    1.1650    1.8898   28.5368 O   0  0  0  0  0  0
   -1.3939   -0.0620   25.3903 H   0  0  0  0  0  0
   -3.2101   -0.8857   19.0441 H   0  0  0  0  0  0
   -1.2350    3.6870   21.4897 H   0  0  0  0  0  0
   -0.6428    4.7499   23.6369 H   0  0  0  0  0  0
   -3.1379    1.9611   25.7168 H   0  0  0  0  0  0
   -3.6350    0.8231   23.5852 H   0  0  0  0  0  0
   -2.7977   -2.4834   20.1182 H   0  0  0  0  0  0
   -2.2221   -4.3585   21.4760 H   0  0  0  0  0  0
   -1.1768    0.0764   23.1901 H   0  0  0  0  0  0
   -6.9985    0.4870   17.8950 H   0  0  0  0  0  0
   -5.9895   -0.3478   19.0760 H   0  0  0  0  0  0
   -6.5351    1.2868   19.4072 H   0  0  0  0  0  0
   -0.2853   -2.8124   25.2536 H   0  0  0  0  0  0
   -1.7231   -1.4861   27.3817 H   0  0  0  0  0  0
   -0.0350   -1.9130   27.4194 H   0  0  0  0  0  0
   -1.2261    0.8388   27.9836 H   0  0  0  0  0  0
   -0.4273   -0.2167   29.1211 H   0  0  0  0  0  0
    1.7184    0.0523   27.9834 H   0  0  0  0  0  0
    0.2623    1.8887   26.0145 H   0  0  0  0  0  0
    1.9650    1.5895   26.0068 H   0  0  0  0  0  0
    1.5683   -0.8284   25.4875 H   0  0  0  0  0  0
    0.8164    0.1960   24.2984 H   0  0  0  0  0  0
    2.1070    2.0993   28.4312 H   0  0  0  0  0  0
  1 21  1  0  0  0
  1 23  1  0  0  0
  1 27  1  0  0  0
  1 29  1  0  0  0
  2 19  1  0  0  0
  2  6  1  0  0  0
  2  3  2  0  0  0
  3  4  1  0  0  0
  4  5  2  0  0  0
  4  7  1  0  0  0
  5 13  1  0  0  0
  5  6  1  0  0  0
  6 30  1  0  0  0
  7  8  2  0  0  0
  7 12  1  0  0  0
  8  9  1  0  0  0
  8 31  1  0  0  0
  9 10  2  0  0  0
  9 32  1  0  0  0
 10 11  1  0  0  0
 10 22  1  0  0  0
 11 12  2  0  0  0
 11 33  1  0  0  0
 12 34  1  0  0  0
 13 18  1  0  0  0
 13 14  2  0  0  0
 14 15  1  0  0  0
 14 35  1  0  0  0
 15 16  2  0  0  0
 15 36  1  0  0  0
 16 17  1  0  0  0
 17 18  2  0  0  0
 17 21  1  0  0  0
 18 37  1  0  0  0
 19 20  1  0  0  0
 20 38  1  0  0  0
 20 39  1  0  0  0
 20 40  1  0  0  0
 21 41  1  0  0  0
 23 24  1  0  0  0
 23 42  1  0  0  0
 23 43  1  0  0  0
 24 25  1  0  0  0
 24 44  1  0  0  0
 24 45  1  0  0  0
 25 26  1  0  0  0
 25 28  1  0  0  0
 25 46  1  0  0  0
 26 27  1  0  0  0
 26 47  1  0  0  0
 26 48  1  0  0  0
 27 49  1  0  0  0
 27 50  1  0  0  0
 28 51  1  0  0  0
M  END
> <s_m_entry_id>
61027

> <s_m_entry_name>
dock_pv.304

> <s_m_Source_Path>
/home/csk/Desktop/cluster/DUD-E-result/mk14

> <s_m_Source_File>
dock_pv.maegz

> <i_m_Source_File_Index>
304

> <chembl_id>
CHEMBL516607

> <chembl_pref_name>
None

> <i_lp_mmshare_version>
53161

> <i_f3d_flags>
0

> <r_lp_tautomer_probability>
0.999999772176425

> <s_lp_Force_Field>
OPLS_2005

> <r_lp_Energy>
13.711331

> <b_lp_Chiralities_Consistent>
1

> <s_lp_Variant>
CHEMBL260_lig1448-1

> <s_i_glide_gridfile>
glide-grid_2qd9

> <i_i_glide_lignum>
1663

> <i_i_glide_rotatable_bonds>
6

> <r_i_docking_score>
-7.27825161107553

> <r_i_glide_ligand_efficiency>
-0.259937557538412

> <r_i_glide_ligand_efficiency_sa>
-0.789323519720707

> <r_i_glide_ligand_efficiency_ln>
-1.68003417058932

> <r_i_glide_gscore>
-7.27825161107553

> <r_i_glide_lipo>
-2.52633650485673

> <r_i_glide_hbond>
-0.630417070269442

> <r_i_glide_metal>
0

> <r_i_glide_rewards>
-1.84101046103599

> <r_i_glide_evdw>
-35.7253074645996

> <r_i_glide_ecoul>
-6.47912168502808

> <r_i_glide_erotb>
0.493329016428805

> <r_i_glide_esite>
-0.0156829653579771

> <r_i_glide_emodel>
-54.1765885614932

> <r_i_glide_energy>
-42.2044291496277

> <r_i_glide_einternal>
8.8877124786377

> <i_i_glide_confnum>
14

> <i_i_glide_posenum>
113

> <r_i_glide_eff_state_penalty>
0

> <s_user_duplicate_titles>
CHEMBL260_lig1448,467777

> <s_m_subgroup_title>
dock_pv

> <s_m_subgroupid>
dock_pv

> <b_m_subgroup_collapsed>
1

$$$$
CHEMBL260_lig937
                    3D
 Schrodinger Suite 2021-1.
 40 43  0  0  1  0            999 V2000
   -0.5592   -1.1128   27.5905 C   0  0  0  0  0  0
    0.3335   -0.0472   27.6012 C   0  0  0  0  0  0
    0.5426    0.6884   26.4389 C   0  0  0  0  0  0
   -1.2150   -1.4650   26.4118 C   0  0  0  0  0  0
   -1.0077   -0.7338   25.2277 C   0  0  0  0  0  0
   -0.1276    0.3677   25.2512 C   0  0  0  0  0  0
    0.0617    1.2109   24.0103 C   0  0  0  0  0  0
   -1.7191   -1.2433   23.9907 C   0  0  0  0  0  0
   -1.1816    1.7633   23.6108 O   0  0  0  0  0  0
   -2.0363   -2.4424   23.9704 O   0  0  0  0  0  0
   -2.1456   -0.3683   22.8244 C   0  0  0  0  0  0
   -1.9313    1.0250   22.7299 C   0  0  0  0  0  0
   -2.4328    1.7285   21.6366 C   0  0  0  0  0  0
   -3.0893    1.0860   20.5958 C   0  0  0  0  0  0
   -3.2897   -0.2932   20.6710 C   0  0  0  0  0  0
   -2.8367   -1.0115   21.7774 C   0  0  0  0  0  0
   -3.4570    1.8610   19.4867 N   0  0  0  0  0  0
   -4.0336    1.4385   18.2827 C   0  0  0  0  0  0
   -5.3213    0.8877   18.2436 C   0  0  0  0  0  0
   -5.8772    0.5136   17.0226 C   0  0  0  0  0  0
   -5.1419    0.6365   15.8498 C   0  0  0  0  0  0
   -3.8898    1.2449   15.8712 C   0  0  0  0  0  0
   -3.3444    1.6624   17.0836 C   0  0  0  0  0  0
   -6.0340    0.6973   19.3797 F   0  0  0  0  0  0
   -5.6349    0.0871   14.6760 N   0  0  0  0  0  0
   -0.7253   -1.6862   28.4917 H   0  0  0  0  0  0
    0.8654    0.2093   28.5073 H   0  0  0  0  0  0
    1.2340    1.5197   26.4693 H   0  0  0  0  0  0
   -1.8856   -2.3114   26.4441 H   0  0  0  0  0  0
    0.7399    2.0394   24.2196 H   0  0  0  0  0  0
    0.5405    0.6271   23.2209 H   0  0  0  0  0  0
   -2.2428    2.7896   21.5782 H   0  0  0  0  0  0
   -3.7897   -0.8209   19.8726 H   0  0  0  0  0  0
   -3.0290   -2.0761   21.7874 H   0  0  0  0  0  0
   -2.9863    2.7512   19.4452 H   0  0  0  0  0  0
   -6.8355    0.0287   17.0148 H   0  0  0  0  0  0
   -3.3227    1.3670   14.9598 H   0  0  0  0  0  0
   -2.3698    2.1260   17.0772 H   0  0  0  0  0  0
   -5.0050   -0.0057   13.8925 H   0  0  0  0  0  0
   -6.4463   -0.5115   14.7340 H   0  0  0  0  0  0
  1  2  2  0  0  0
  1  4  1  0  0  0
  1 26  1  0  0  0
  2  3  1  0  0  0
  2 27  1  0  0  0
  3  6  2  0  0  0
  3 28  1  0  0  0
  4  5  2  0  0  0
  4 29  1  0  0  0
  5  6  1  0  0  0
  5  8  1  0  0  0
  6  7  1  0  0  0
  7  9  1  0  0  0
  7 30  1  0  0  0
  7 31  1  0  0  0
  8 11  1  0  0  0
  8 10  2  0  0  0
  9 12  1  0  0  0
 11 12  2  0  0  0
 11 16  1  0  0  0
 12 13  1  0  0  0
 13 14  2  0  0  0
 13 32  1  0  0  0
 14 15  1  0  0  0
 14 17  1  0  0  0
 15 16  2  0  0  0
 15 33  1  0  0  0
 16 34  1  0  0  0
 17 18  1  0  0  0
 17 35  1  0  0  0
 18 19  2  0  0  0
 18 23  1  0  0  0
 19 20  1  0  0  0
 19 24  1  0  0  0
 20 21  2  0  0  0
 20 36  1  0  0  0
 21 22  1  0  0  0
 21 25  1  0  0  0
 22 23  2  0  0  0
 22 37  1  0  0  0
 23 38  1  0  0  0
 25 39  1  0  0  0
 25 40  1  0  0  0
M  END
> <s_m_entry_id>
61028

> <s_m_entry_name>
dock_pv.305

> <s_m_Source_Path>
/home/csk/Desktop/cluster/DUD-E-result/mk14

> <s_m_Source_File>
dock_pv.maegz

> <i_m_Source_File_Index>
305

> <chembl_id>
CHEMBL219424

> <chembl_pref_name>
None

> <i_lp_mmshare_version>
53161

> <i_f3d_flags>
0

> <r_lp_tautomer_probability>
1

> <s_lp_Force_Field>
OPLS_2005

> <r_lp_Energy>
40.912642

> <b_lp_Chiralities_Consistent>
1

> <s_lp_Variant>
CHEMBL260_lig937-1

> <s_i_glide_gridfile>
glide-grid_2qd9

> <i_i_glide_lignum>
1040

> <i_i_glide_rotatable_bonds>
2

> <r_i_docking_score>
-7.2763466279498

> <r_i_glide_ligand_efficiency>
-0.291053865117992

> <r_i_glide_ligand_efficiency_sa>
-0.851046663467285

> <r_i_glide_ligand_efficiency_ln>
-1.72471220533662

> <r_i_glide_gscore>
-7.2763466279498

> <r_i_glide_lipo>
-3.35560823934618

> <r_i_glide_hbond>
-0.0386400740174697

> <r_i_glide_metal>
0

> <r_i_glide_rewards>
-1.74839342151484

> <r_i_glide_evdw>
-38.0878524780273

> <r_i_glide_ecoul>
-3.77820777893066

> <r_i_glide_erotb>
0.337418897669652

> <r_i_glide_esite>
0

> <r_i_glide_emodel>
-49.8155737635773

> <r_i_glide_energy>
-41.866060256958

> <r_i_glide_einternal>
9.63264751434326

> <i_i_glide_confnum>
46

> <i_i_glide_posenum>
251

> <r_i_glide_eff_state_penalty>
0

> <s_user_duplicate_titles>
CHEMBL260_lig937

> <s_m_subgroup_title>
dock_pv

> <s_m_subgroupid>
dock_pv

> <b_m_subgroup_collapsed>
1

$$$$
CHEMBL260_lig1612
                    3D
 Schrodinger Suite 2021-1.
 39 42  0  0  1  0            999 V2000
   -1.4126    1.7315   23.5934 C   0  0  0  0  0  0
   -2.2443    1.8254   24.8746 C   0  0  0  0  0  0
   -2.2177   -1.2062   23.7973 C   0  0  0  0  0  0
   -2.1276    1.0034   22.4704 C   0  0  0  0  0  0
   -2.5354   -0.3359   22.6134 C   0  0  0  0  0  0
   -3.2070   -0.9727   21.5557 C   0  0  0  0  0  0
   -3.5078   -0.2787   20.3894 C   0  0  0  0  0  0
   -3.1373    1.0588   20.2540 C   0  0  0  0  0  0
   -2.4417    1.6806   21.2878 C   0  0  0  0  0  0
   -2.3084   -0.7535   25.2409 C   0  0  0  0  0  0
   -2.3206    0.5720   25.7366 C   0  0  0  0  0  0
   -2.3865    0.8438   27.0700 N   0  0  0  0  0  0
   -2.4317   -0.1819   27.9525 C   0  0  0  0  0  0
   -2.4327   -1.5122   27.5523 C   0  0  0  0  0  0
   -2.3714   -1.7905   26.1890 C   0  0  0  0  0  0
   -2.0363   -2.4127   23.5697 O   0  0  0  0  0  0
   -3.3930    1.7992   19.0925 N   0  0  0  0  0  0
   -3.9732    1.3512   17.8983 C   0  0  0  0  0  0
   -3.2508    1.4778   16.7067 C   0  0  0  0  0  0
   -3.8111    1.0633   15.4988 C   0  0  0  0  0  0
   -5.1047    0.5495   15.4708 C   0  0  0  0  0  0
   -5.8486    0.4894   16.6415 C   0  0  0  0  0  0
   -5.2943    0.8870   17.8555 C   0  0  0  0  0  0
   -6.0350    0.7868   18.9847 F   0  0  0  0  0  0
   -5.6345    0.0865   14.3189 F   0  0  0  0  0  0
   -1.1760    2.7443   23.2628 H   0  0  0  0  0  0
   -0.4397    1.2715   23.7761 H   0  0  0  0  0  0
   -1.8160    2.6317   25.4753 H   0  0  0  0  0  0
   -3.2608    2.1500   24.6444 H   0  0  0  0  0  0
   -3.5087   -2.0102   21.6150 H   0  0  0  0  0  0
   -4.0204   -0.7971   19.5937 H   0  0  0  0  0  0
   -2.1409    2.7116   21.1741 H   0  0  0  0  0  0
   -2.4666    0.0811   28.9999 H   0  0  0  0  0  0
   -2.4661   -2.3112   28.2799 H   0  0  0  0  0  0
   -2.3656   -2.8211   25.8760 H   0  0  0  0  0  0
   -2.7467    2.5646   18.9788 H   0  0  0  0  0  0
   -2.2448    1.8715   16.7088 H   0  0  0  0  0  0
   -3.2363    1.1258   14.5891 H   0  0  0  0  0  0
   -6.8348    0.0670   16.6202 H   0  0  0  0  0  0
  1  4  1  0  0  0
  1  2  1  0  0  0
  1 26  1  0  0  0
  1 27  1  0  0  0
  2 11  1  0  0  0
  2 28  1  0  0  0
  2 29  1  0  0  0
  3 16  2  0  0  0
  3  5  1  0  0  0
  3 10  1  0  0  0
  4  9  1  0  0  0
  4  5  2  0  0  0
  5  6  1  0  0  0
  6  7  2  0  0  0
  6 30  1  0  0  0
  7  8  1  0  0  0
  7 31  1  0  0  0
  8 17  1  0  0  0
  8  9  2  0  0  0
  9 32  1  0  0  0
 10 15  1  0  0  0
 10 11  2  0  0  0
 11 12  1  0  0  0
 12 13  2  0  0  0
 13 14  1  0  0  0
 13 33  1  0  0  0
 14 15  2  0  0  0
 14 34  1  0  0  0
 15 35  1  0  0  0
 17 18  1  0  0  0
 17 36  1  0  0  0
 18 19  2  0  0  0
 18 23  1  0  0  0
 19 20  1  0  0  0
 19 37  1  0  0  0
 20 21  2  0  0  0
 20 38  1  0  0  0
 21 22  1  0  0  0
 21 25  1  0  0  0
 22 23  2  0  0  0
 22 39  1  0  0  0
 23 24  1  0  0  0
M  END
> <s_m_entry_id>
61029

> <s_m_entry_name>
dock_pv.306

> <s_m_Source_Path>
/home/csk/Desktop/cluster/DUD-E-result/mk14

> <s_m_Source_File>
dock_pv.maegz

> <i_m_Source_File_Index>
306

> <chembl_id>
CHEMBL515721

> <chembl_pref_name>
None

> <i_lp_mmshare_version>
53161

> <i_f3d_flags>
0

> <r_lp_tautomer_probability>
1

> <s_lp_Force_Field>
OPLS_2005

> <r_lp_Energy>
32.704183

> <b_lp_Chiralities_Consistent>
1

> <s_lp_Variant>
CHEMBL260_lig1612-1

> <s_i_glide_gridfile>
glide-grid_2qd9

> <i_i_glide_lignum>
1861

> <i_i_glide_rotatable_bonds>
2

> <r_i_docking_score>
-7.26462737615504

> <r_i_glide_ligand_efficiency>
-0.290585095046201

> <r_i_glide_ligand_efficiency_sa>
-0.849675971463697

> <r_i_glide_ligand_efficiency_ln>
-1.72193439146363

> <r_i_glide_gscore>
-7.26462737615504

> <r_i_glide_lipo>
-3.31121953280253

> <r_i_glide_hbond>
0

> <r_i_glide_metal>
0

> <r_i_glide_rewards>
-2.17712038850529

> <r_i_glide_evdw>
-35.2462882995605

> <r_i_glide_ecoul>
-2.31909251213074

> <r_i_glide_erotb>
0.333890836950427

> <r_i_glide_esite>
0

> <r_i_glide_emodel>
-48.4689492482761

> <r_i_glide_energy>
-37.5653808116913

> <r_i_glide_einternal>
7.31098079681396

> <i_i_glide_confnum>
2

> <i_i_glide_posenum>
123

> <r_i_glide_eff_state_penalty>
0

> <s_user_duplicate_titles>
CHEMBL260_lig1612,458767

> <s_m_subgroup_title>
dock_pv

> <s_m_subgroupid>
dock_pv

> <b_m_subgroup_collapsed>
1

$$$$
CHEMBL260_lig1613
                    3D
 Schrodinger Suite 2021-1.
 39 42  0  0  1  0            999 V2000
   -1.2945    1.3751   23.6021 C   0  0  0  0  0  0
   -1.1471    1.0973   24.9064 C   0  0  0  0  0  0
   -2.1147   -1.6285   23.7280 C   0  0  0  0  0  0
   -2.0565    0.6713   22.5525 C   0  0  0  0  0  0
   -2.3926   -0.6977   22.5814 C   0  0  0  0  0  0
   -2.9943   -1.2862   21.4543 C   0  0  0  0  0  0
   -3.3185   -0.5152   20.3427 C   0  0  0  0  0  0
   -3.0641    0.8544   20.3426 C   0  0  0  0  0  0
   -2.4349    1.4296   21.4412 C   0  0  0  0  0  0
   -2.2348   -1.1841   25.1580 C   0  0  0  0  0  0
   -1.7413    0.0169   25.7028 C   0  0  0  0  0  0
   -1.8379    0.2101   27.0878 C   0  0  0  0  0  0
   -2.4343   -0.7705   27.8785 C   0  0  0  0  0  0
   -2.9486   -1.9114   27.3648 N   0  0  0  0  0  0
   -2.8364   -2.1020   26.0292 C   0  0  0  0  0  0
   -2.0329   -2.8461   23.5053 O   0  0  0  0  0  0
   -3.3282    1.6789   19.2447 N   0  0  0  0  0  0
   -3.9618    1.3916   18.0246 C   0  0  0  0  0  0
   -3.2495    1.6878   16.8559 C   0  0  0  0  0  0
   -3.8159    1.4687   15.6024 C   0  0  0  0  0  0
   -5.1139    0.9745   15.5040 C   0  0  0  0  0  0
   -5.8393    0.6987   16.6588 C   0  0  0  0  0  0
   -5.2751    0.8868   17.9220 C   0  0  0  0  0  0
   -6.0339    0.4938   19.0312 N   0  0  0  0  0  0
   -0.7333    2.2279   23.2448 H   0  0  0  0  0  0
   -0.4966    1.7558   25.4630 H   0  0  0  0  0  0
   -3.2276   -2.3418   21.4151 H   0  0  0  0  0  0
   -3.7581   -0.9912   19.4783 H   0  0  0  0  0  0
   -2.1986    2.4838   21.4131 H   0  0  0  0  0  0
   -1.4551    1.1092   27.5501 H   0  0  0  0  0  0
   -2.5178   -0.6499   28.9496 H   0  0  0  0  0  0
   -3.2345   -3.0415   25.6749 H   0  0  0  0  0  0
   -2.6948    2.4636   19.1996 H   0  0  0  0  0  0
   -2.2480    2.0849   16.9095 H   0  0  0  0  0  0
   -3.2466    1.6858   14.7094 H   0  0  0  0  0  0
   -5.5574    0.7939   14.5369 H   0  0  0  0  0  0
   -6.8303    0.2846   16.5677 H   0  0  0  0  0  0
   -6.8643   -0.0650   18.8833 H   0  0  0  0  0  0
   -5.6057    0.5625   19.9462 H   0  0  0  0  0  0
  1  4  1  0  0  0
  1  2  2  0  0  0
  1 25  1  0  0  0
  2 11  1  0  0  0
  2 26  1  0  0  0
  3 16  2  0  0  0
  3  5  1  0  0  0
  3 10  1  0  0  0
  4  5  2  0  0  0
  4  9  1  0  0  0
  5  6  1  0  0  0
  6  7  2  0  0  0
  6 27  1  0  0  0
  7  8  1  0  0  0
  7 28  1  0  0  0
  8 17  1  0  0  0
  8  9  2  0  0  0
  9 29  1  0  0  0
 10 15  1  0  0  0
 10 11  2  0  0  0
 11 12  1  0  0  0
 12 13  2  0  0  0
 12 30  1  0  0  0
 13 14  1  0  0  0
 13 31  1  0  0  0
 14 15  2  0  0  0
 15 32  1  0  0  0
 17 18  1  0  0  0
 17 33  1  0  0  0
 18 19  2  0  0  0
 18 23  1  0  0  0
 19 20  1  0  0  0
 19 34  1  0  0  0
 20 21  2  0  0  0
 20 35  1  0  0  0
 21 22  1  0  0  0
 21 36  1  0  0  0
 22 23  2  0  0  0
 22 37  1  0  0  0
 23 24  1  0  0  0
 24 38  1  0  0  0
 24 39  1  0  0  0
M  END
> <s_m_entry_id>
61030

> <s_m_entry_name>
dock_pv.307

> <s_m_Source_Path>
/home/csk/Desktop/cluster/DUD-E-result/mk14

> <s_m_Source_File>
dock_pv.maegz

> <i_m_Source_File_Index>
307

> <chembl_id>
CHEMBL473597

> <chembl_pref_name>
None

> <i_lp_mmshare_version>
53161

> <i_f3d_flags>
0

> <r_lp_tautomer_probability>
1

> <s_lp_Force_Field>
OPLS_2005

> <r_lp_Energy>
35.165737

> <b_lp_Chiralities_Consistent>
1

> <s_lp_Variant>
CHEMBL260_lig1613-1

> <s_i_glide_gridfile>
glide-grid_2qd9

> <i_i_glide_lignum>
1862

> <i_i_glide_rotatable_bonds>
2

> <r_i_docking_score>
-7.25716830556053

> <r_i_glide_ligand_efficiency>
-0.302382012731689

> <r_i_glide_ligand_efficiency_sa>
-0.872220654937947

> <r_i_glide_ligand_efficiency_ln>
-1.73697338527497

> <r_i_glide_gscore>
-7.25716830556053

> <r_i_glide_lipo>
-3.42851696701139

> <r_i_glide_hbond>
-0.362780346562318

> <r_i_glide_metal>
0

> <r_i_glide_rewards>
-1.42348592803566

> <r_i_glide_evdw>
-36.8570671081543

> <r_i_glide_ecoul>
-3.85224485397339

> <r_i_glide_erotb>
0.378305019552556

> <r_i_glide_esite>
0

> <r_i_glide_emodel>
-52.1812402629806

> <r_i_glide_energy>
-40.7093119621277

> <r_i_glide_einternal>
10.2880554199219

> <i_i_glide_confnum>
7

> <i_i_glide_posenum>
178

> <r_i_glide_eff_state_penalty>
0

> <s_user_duplicate_titles>
CHEMBL260_lig1613

> <s_m_subgroup_title>
dock_pv

> <s_m_subgroupid>
dock_pv

> <b_m_subgroup_collapsed>
1

$$$$
CHEMBL260_lig487
                    3D
 Schrodinger Suite 2021-1.
 53 57  0  0  1  0            999 V2000
    0.7503    2.7191   26.8913 F   0  0  0  0  0  0
    0.0656    2.5162   25.7447 C   0  0  0  0  0  0
   -1.0393    3.3109   25.4545 C   0  0  0  0  0  0
   -1.7427    3.1076   24.2710 C   0  0  0  0  0  0
   -1.3459    2.1098   23.3711 C   0  0  0  0  0  0
   -0.2517    1.2972   23.6935 C   0  0  0  0  0  0
    0.4591    1.5060   24.8723 C   0  0  0  0  0  0
   -2.0351    1.9909   22.0399 C   0  0  0  0  0  0
   -2.3202    3.1104   21.4045 N   0  0  0  0  0  0
   -2.8419    2.7503   20.2761 C   0  0  0  0  0  0
   -2.9924    1.3946   20.1304 N   0  0  0  0  0  0
   -3.7888    0.7307   19.0752 C   0  0  0  0  0  0
   -5.2561    0.9691   19.4583 C   0  0  0  0  0  0
   -6.2582    0.6364   18.3492 C   0  0  0  0  0  0
   -5.9212    1.2771   17.0757 N   0  0  1  0  0  0
   -4.5622    1.0269   16.6030 C   0  0  0  0  0  0
   -3.4913    1.3338   17.6730 C   0  0  0  0  0  0
   -2.3986    0.8645   21.2663 C   0  0  0  0  0  0
   -2.2271   -0.5895   21.5537 C   0  0  0  0  0  0
   -1.9513   -1.5744   20.5965 C   0  0  0  0  0  0
   -1.8009   -2.8828   21.0565 C   0  0  0  0  0  0
   -1.8649   -3.2060   22.3736 N   0  0  0  0  0  0
   -2.0806   -2.1840   23.2336 C   0  0  0  0  0  0
   -2.0302   -2.5210   24.5750 O   0  0  0  0  0  0
   -1.9562   -1.5492   25.5527 C   0  0  0  0  0  0
   -2.9631   -0.5929   25.7201 C   0  0  0  0  0  0
   -2.8317    0.4095   26.6783 C   0  0  0  0  0  0
   -1.7246    0.4186   27.5271 C   0  0  0  0  0  0
   -0.7268   -0.5434   27.3795 C   0  0  0  0  0  0
    0.3580   -0.5227   28.1847 F   0  0  0  0  0  0
   -0.8386   -1.5133   26.3850 C   0  0  0  0  0  0
   -2.2801   -0.8897   22.8723 N   0  0  0  0  0  0
   -1.3403    4.0836   26.1454 H   0  0  0  0  0  0
   -2.5880    3.7384   24.0445 H   0  0  0  0  0  0
    0.0748    0.5217   23.0183 H   0  0  0  0  0  0
    1.3146    0.8914   25.1125 H   0  0  0  0  0  0
   -3.2344    3.4195   19.5336 H   0  0  0  0  0  0
   -3.5871   -0.3338   19.0772 H   0  0  0  0  0  0
   -5.4891    0.2920   20.2759 H   0  0  0  0  0  0
   -5.4450    1.9526   19.8858 H   0  0  0  0  0  0
   -6.4352   -0.4212   18.2756 H   0  0  0  0  0  0
   -7.2340    1.0072   18.6371 H   0  0  0  0  0  0
   -6.6065    1.0163   16.3750 H   0  0  0  0  0  0
   -4.4796    0.0135   16.2213 H   0  0  0  0  0  0
   -4.4020    1.6843   15.7469 H   0  0  0  0  0  0
   -3.2330    2.3900   17.6670 H   0  0  0  0  0  0
   -2.5761    0.8652   17.3107 H   0  0  0  0  0  0
   -1.8307   -1.3526   19.5483 H   0  0  0  0  0  0
   -1.6287   -3.6943   20.3629 H   0  0  0  0  0  0
   -3.8249   -0.6058   25.0726 H   0  0  0  0  0  0
   -3.5888    1.1743   26.7650 H   0  0  0  0  0  0
   -1.6204    1.1837   28.2817 H   0  0  0  0  0  0
   -0.0491   -2.2378   26.2583 H   0  0  0  0  0  0
  1  2  1  0  0  0
  2  3  2  0  0  0
  2  7  1  0  0  0
  3  4  1  0  0  0
  3 33  1  0  0  0
  4  5  2  0  0  0
  4 34  1  0  0  0
  5  6  1  0  0  0
  5  8  1  0  0  0
  6  7  2  0  0  0
  6 35  1  0  0  0
  7 36  1  0  0  0
  8  9  1  0  0  0
  8 18  2  0  0  0
  9 10  2  0  0  0
 10 11  1  0  0  0
 10 37  1  0  0  0
 11 12  1  0  0  0
 11 18  1  0  0  0
 12 13  1  0  0  0
 12 17  1  0  0  0
 12 38  1  0  0  0
 13 14  1  0  0  0
 13 39  1  0  0  0
 13 40  1  0  0  0
 14 15  1  0  0  0
 14 41  1  0  0  0
 14 42  1  0  0  0
 15 16  1  0  0  0
 15 43  1  0  0  0
 16 17  1  0  0  0
 16 44  1  0  0  0
 16 45  1  0  0  0
 17 46  1  0  0  0
 17 47  1  0  0  0
 18 19  1  0  0  0
 19 20  2  0  0  0
 19 32  1  0  0  0
 20 21  1  0  0  0
 20 48  1  0  0  0
 21 22  2  0  0  0
 21 49  1  0  0  0
 22 23  1  0  0  0
 23 24  1  0  0  0
 23 32  2  0  0  0
 24 25  1  0  0  0
 25 26  2  0  0  0
 25 31  1  0  0  0
 26 27  1  0  0  0
 26 50  1  0  0  0
 27 28  2  0  0  0
 27 51  1  0  0  0
 28 29  1  0  0  0
 28 52  1  0  0  0
 29 30  1  0  0  0
 29 31  2  0  0  0
 31 53  1  0  0  0
M  END
> <s_m_entry_id>
61031

> <s_m_entry_name>
dock_pv.308

> <s_m_Source_Path>
/home/csk/Desktop/cluster/DUD-E-result/mk14

> <s_m_Source_File>
dock_pv.maegz

> <i_m_Source_File_Index>
308

> <chembl_id>
CHEMBL14014

> <chembl_pref_name>
None

> <i_lp_mmshare_version>
53161

> <i_f3d_flags>
0

> <r_lp_tautomer_probability>
1

> <s_lp_Force_Field>
OPLS_2005

> <r_lp_Energy>
33.738232

> <b_lp_Chiralities_Consistent>
1

> <s_lp_Variant>
CHEMBL260_lig487-1

> <s_i_glide_gridfile>
glide-grid_2qd9

> <i_i_glide_lignum>
557

> <i_i_glide_rotatable_bonds>
5

> <r_i_docking_score>
-7.24455718012017

> <r_i_glide_ligand_efficiency>
-0.226392411878755

> <r_i_glide_ligand_efficiency_sa>
-0.718751104717574

> <r_i_glide_ligand_efficiency_ln>
-1.62225383179921

> <r_i_glide_gscore>
-7.24455718012017

> <r_i_glide_lipo>
-3.0496928199377

> <r_i_glide_hbond>
-0.593828535533978

> <r_i_glide_metal>
0

> <r_i_glide_rewards>
-1.78356802886668

> <r_i_glide_evdw>
-37.1748313903809

> <r_i_glide_ecoul>
-2.93381190299988

> <r_i_glide_erotb>
0.529782327509041

> <r_i_glide_esite>
-0.0484367683218202

> <r_i_glide_emodel>
-51.4455342123634

> <r_i_glide_energy>
-40.1086432933807

> <r_i_glide_einternal>
4.83930826187134

> <i_i_glide_confnum>
71

> <i_i_glide_posenum>
392

> <r_i_glide_eff_state_penalty>
0

> <s_user_duplicate_titles>
CHEMBL260_lig487,13778

> <s_m_subgroup_title>
dock_pv

> <s_m_subgroupid>
dock_pv

> <b_m_subgroup_collapsed>
1

$$$$
CHEMBL260_lig1
                    3D
 Schrodinger Suite 2021-1.
 45 47  0  0  1  0            999 V2000
   -2.8349   -2.1433   20.2645 N   0  0  0  0  0  0
   -2.8526   -1.0025   21.0136 C   0  0  0  0  0  0
   -2.4466   -0.7688   22.3241 C   0  0  0  0  0  0
   -2.7054    0.6013   22.5083 C   0  0  0  0  0  0
   -3.2348    1.1764   21.4557 N   0  0  0  0  0  0
   -3.3798    0.1945   20.5569 N   0  0  0  0  0  0
   -4.0052    0.4950   19.3273 C   0  0  0  0  0  0
   -3.2350    0.6554   18.1779 C   0  0  0  0  0  0
   -3.8325    0.9628   16.9601 C   0  0  0  0  0  0
   -5.2152    1.0626   16.8856 C   0  0  0  0  0  0
   -5.7967    1.3019   15.6933 F   0  0  0  0  0  0
   -5.9980    0.8869   18.0235 C   0  0  0  0  0  0
   -5.3954    0.6210   19.2539 C   0  0  0  0  0  0
   -1.9241   -1.7433   23.2961 C   0  0  0  0  0  0
   -2.0366   -2.9557   23.0823 O   0  0  0  0  0  0
   -1.4557   -1.2394   24.6223 C   0  0  0  0  0  0
   -1.8816   -1.8766   25.7929 C   0  0  0  0  0  0
   -1.4524   -1.4243   27.0383 C   0  0  0  0  0  0
   -0.5753   -0.3467   27.1232 C   0  0  0  0  0  0
   -0.1144    0.2933   25.9729 C   0  0  0  0  0  0
    0.7346    1.3630   26.1779 O   0  0  0  0  0  0
    1.4066    1.9997   25.0916 C   0  0  0  0  0  0
    0.8076    3.3974   24.8124 C   0  0  1  0  0  0
    1.5650    4.0291   23.7924 O   0  0  0  0  0  0
   -0.6778    3.3643   24.3787 C   0  0  0  0  0  0
   -1.2636    4.6561   24.3989 O   0  0  0  0  0  0
   -0.5588   -0.1647   24.7200 C   0  0  0  0  0  0
   -2.5229   -3.0239   20.6533 H   0  0  0  0  0  0
   -3.2039   -2.1775   19.3251 H   0  0  0  0  0  0
   -2.5397    1.1673   23.4136 H   0  0  0  0  0  0
   -2.1782    0.4839   18.1970 H   0  0  0  0  0  0
   -3.2339    1.0742   16.0678 H   0  0  0  0  0  0
   -7.0729    0.9367   17.9434 H   0  0  0  0  0  0
   -6.0098    0.4871   20.1316 H   0  0  0  0  0  0
   -2.5652   -2.7121   25.7467 H   0  0  0  0  0  0
   -1.7911   -1.9131   27.9407 H   0  0  0  0  0  0
   -0.2417   -0.0056   28.0926 H   0  0  0  0  0  0
    1.4972    1.3970   24.1891 H   0  0  0  0  0  0
    2.4287    2.1214   25.4486 H   0  0  0  0  0  0
    0.9036    3.9951   25.7209 H   0  0  0  0  0  0
    2.4945    3.7561   23.8760 H   0  0  0  0  0  0
   -1.2565    2.7401   25.0601 H   0  0  0  0  0  0
   -0.7831    2.9357   23.3808 H   0  0  0  0  0  0
   -1.1303    5.0274   25.2755 H   0  0  0  0  0  0
   -0.2261    0.3112   23.8116 H   0  0  0  0  0  0
  1  2  1  0  0  0
  1 28  1  0  0  0
  1 29  1  0  0  0
  2  3  2  0  0  0
  2  6  1  0  0  0
  3  4  1  0  0  0
  3 14  1  0  0  0
  4  5  2  0  0  0
  4 30  1  0  0  0
  5  6  1  0  0  0
  6  7  1  0  0  0
  7  8  1  0  0  0
  7 13  2  0  0  0
  8  9  2  0  0  0
  8 31  1  0  0  0
  9 10  1  0  0  0
  9 32  1  0  0  0
 10 11  1  0  0  0
 10 12  2  0  0  0
 12 13  1  0  0  0
 12 33  1  0  0  0
 13 34  1  0  0  0
 14 15  2  0  0  0
 14 16  1  0  0  0
 16 17  2  0  0  0
 16 27  1  0  0  0
 17 18  1  0  0  0
 17 35  1  0  0  0
 18 19  2  0  0  0
 18 36  1  0  0  0
 19 20  1  0  0  0
 19 37  1  0  0  0
 20 21  1  0  0  0
 20 27  2  0  0  0
 21 22  1  0  0  0
 22 23  1  0  0  0
 22 38  1  0  0  0
 22 39  1  0  0  0
 23 24  1  0  0  0
 23 25  1  0  0  0
 23 40  1  0  0  0
 24 41  1  0  0  0
 25 26  1  0  0  0
 25 42  1  0  0  0
 25 43  1  0  0  0
 26 44  1  0  0  0
 27 45  1  0  0  0
M  END
> <s_m_entry_id>
61032

> <s_m_entry_name>
dock_pv.309

> <s_m_Source_Path>
/home/csk/Desktop/cluster/DUD-E-result/mk14

> <s_m_Source_File>
dock_pv.maegz

> <i_m_Source_File_Index>
309

> <chembl_id>
CHEMBL203567

> <chembl_pref_name>
RO-3201195

> <i_lp_mmshare_version>
53161

> <i_f3d_flags>
0

> <r_lp_tautomer_probability>
1

> <s_lp_Force_Field>
OPLS_2005

> <r_lp_Energy>
33.129756

> <b_lp_Chiralities_Consistent>
1

> <s_lp_Variant>
CHEMBL260_lig1-1

> <s_i_glide_gridfile>
glide-grid_2qd9

> <i_i_glide_lignum>
1

> <i_i_glide_rotatable_bonds>
9

> <r_i_docking_score>
-7.22980192525395

> <r_i_glide_ligand_efficiency>
-0.267770441676072

> <r_i_glide_ligand_efficiency_sa>
-0.80331132414569

> <r_i_glide_ligand_efficiency_ln>
-1.68297869559897

> <r_i_glide_gscore>
-7.22980192525395

> <r_i_glide_lipo>
-2.69683513644727

> <r_i_glide_hbond>
-0.187881608306874

> <r_i_glide_metal>
0

> <r_i_glide_rewards>
-1.9977795693701

> <r_i_glide_evdw>
-33.0485877990723

> <r_i_glide_ecoul>
-11.164116859436

> <r_i_glide_erotb>
0.979741307739309

> <r_i_glide_esite>
0

> <r_i_glide_emodel>
-57.9913182826857

> <r_i_glide_energy>
-44.2127046585083

> <r_i_glide_einternal>
11.5075359344482

> <i_i_glide_confnum>
10

> <i_i_glide_posenum>
300

> <r_i_glide_eff_state_penalty>
0

> <s_user_duplicate_titles>
CHEMBL260_lig1,340673

> <s_m_subgroup_title>
dock_pv

> <s_m_subgroupid>
dock_pv

> <b_m_subgroup_collapsed>
1

$$$$
CHEMBL260_lig167
                    3D
 Schrodinger Suite 2021-1.
 50 53  0  0  1  0            999 V2000
   -2.4487    0.9141   21.3548 C   0  0  0  0  0  0
   -1.8574    1.7850   22.2760 N   0  0  0  0  0  0
   -2.6609    3.0135   20.5665 N   0  0  0  0  0  0
   -2.9661    1.7500   20.3395 C   0  0  0  0  0  0
   -2.0358    3.0200   21.7129 C   0  0  0  0  0  0
   -2.3974   -0.5850   21.4235 C   0  0  0  0  0  0
   -2.1485   -1.1346   22.6394 N   0  0  0  0  0  0
   -1.7407   -2.4264   22.6765 C   0  0  0  0  0  0
   -1.1093    1.5076   23.5333 C   0  0  0  0  0  0
   -0.3174    2.4233   26.2314 N   0  0  1  0  0  0
   -3.8150    1.4215   19.1459 C   0  0  0  0  0  0
   -1.6780   -3.2454   21.6018 N   0  0  0  0  0  0
    0.0552    2.5030   23.7868 C   0  0  0  0  0  0
   -2.1060    1.5721   24.7117 C   0  0  0  0  0  0
   -2.3931   -1.3698   20.2648 C   0  0  0  0  0  0
    0.6918    2.3005   25.1735 C   0  0  0  0  0  0
   -1.4102    1.4545   26.0856 C   0  0  0  0  0  0
   -1.2436   -2.9608   23.8706 N   0  0  0  0  0  0
   -5.0906    0.8830   19.3372 C   0  0  0  0  0  0
   -3.3790    1.6870   17.8397 C   0  0  0  0  0  0
   -2.0350   -2.7115   20.4073 C   0  0  0  0  0  0
   -5.4524    0.8870   16.9514 C   0  0  0  0  0  0
   -4.1825    1.4000   16.7454 C   0  0  0  0  0  0
   -5.9188    0.6340   18.2424 C   0  0  0  0  0  0
   -6.2058    0.5803   15.8767 F   0  0  0  0  0  0
    0.3159    2.2968   27.5422 C   0  0  0  0  0  0
   -1.0010   -2.1109   25.0296 C   0  0  0  0  0  0
   -1.6280    3.8847   22.2004 H   0  0  0  0  0  0
   -0.6528    0.5307   23.4149 H   0  0  0  0  0  0
    0.8500    2.2820   23.0762 H   0  0  0  0  0  0
   -0.1690    3.5536   23.6224 H   0  0  0  0  0  0
   -2.7837    2.4255   24.6624 H   0  0  0  0  0  0
   -2.7635    0.7048   24.6456 H   0  0  0  0  0  0
   -2.5816   -0.9539   19.2872 H   0  0  0  0  0  0
    1.2060    1.3396   25.2417 H   0  0  0  0  0  0
    1.4554    3.0657   25.3279 H   0  0  0  0  0  0
   -1.0358    0.4434   26.2519 H   0  0  0  0  0  0
   -2.1415    1.6422   26.8736 H   0  0  0  0  0  0
   -0.6395   -3.7599   23.7510 H   0  0  0  0  0  0
   -5.4467    0.6694   20.3323 H   0  0  0  0  0  0
   -2.4351    2.1574   17.6354 H   0  0  0  0  0  0
   -2.0019   -3.3724   19.5526 H   0  0  0  0  0  0
   -3.8332    1.5961   15.7419 H   0  0  0  0  0  0
   -6.9039    0.2145   18.3843 H   0  0  0  0  0  0
    0.7810    1.3179   27.6739 H   0  0  0  0  0  0
    1.0909    3.0539   27.6737 H   0  0  0  0  0  0
   -0.4128    2.4358   28.3416 H   0  0  0  0  0  0
   -0.6783   -2.7128   25.8764 H   0  0  0  0  0  0
   -1.9062   -1.5777   25.3219 H   0  0  0  0  0  0
   -0.2147   -1.3852   24.8184 H   0  0  0  0  0  0
  1  2  1  0  0  0
  1  4  2  0  0  0
  1  6  1  0  0  0
  2  5  1  0  0  0
  2  9  1  0  0  0
  3  4  1  0  0  0
  3  5  2  0  0  0
  4 11  1  0  0  0
  5 28  1  0  0  0
  6  7  2  0  0  0
  6 15  1  0  0  0
  7  8  1  0  0  0
  8 18  1  0  0  0
  8 12  2  0  0  0
  9 13  1  0  0  0
  9 14  1  0  0  0
  9 29  1  0  0  0
 10 17  1  0  0  0
 10 26  1  0  0  0
 10 16  1  0  0  0
 11 19  1  0  0  0
 11 20  2  0  0  0
 12 21  1  0  0  0
 13 16  1  0  0  0
 13 30  1  0  0  0
 13 31  1  0  0  0
 14 17  1  0  0  0
 14 32  1  0  0  0
 14 33  1  0  0  0
 15 21  2  0  0  0
 15 34  1  0  0  0
 16 35  1  0  0  0
 16 36  1  0  0  0
 17 37  1  0  0  0
 17 38  1  0  0  0
 18 27  1  0  0  0
 18 39  1  0  0  0
 19 24  2  0  0  0
 19 40  1  0  0  0
 20 23  1  0  0  0
 20 41  1  0  0  0
 21 42  1  0  0  0
 22 23  2  0  0  0
 22 25  1  0  0  0
 22 24  1  0  0  0
 23 43  1  0  0  0
 24 44  1  0  0  0
 26 45  1  0  0  0
 26 46  1  0  0  0
 26 47  1  0  0  0
 27 48  1  0  0  0
 27 49  1  0  0  0
 27 50  1  0  0  0
M  END
> <s_m_entry_id>
61033

> <s_m_entry_name>
dock_pv.310

> <s_m_Source_Path>
/home/csk/Desktop/cluster/DUD-E-result/mk14

> <s_m_Source_File>
dock_pv.maegz

> <i_m_Source_File_Index>
310

> <chembl_id>
CHEMBL329447

> <chembl_pref_name>
None

> <i_lp_mmshare_version>
53161

> <i_f3d_flags>
0

> <r_lp_tautomer_probability>
0.999999987636

> <s_lp_Force_Field>
OPLS_2005

> <r_lp_Energy>
22.284753

> <b_lp_Chiralities_Consistent>
1

> <s_lp_Variant>
CHEMBL260_lig167-1

> <s_i_glide_gridfile>
glide-grid_2qd9

> <i_i_glide_lignum>
184

> <i_i_glide_rotatable_bonds>
4

> <r_i_docking_score>
-7.22963749476333

> <r_i_glide_ligand_efficiency>
-0.267764351657901

> <r_i_glide_ligand_efficiency_sa>
-0.803293054091196

> <r_i_glide_ligand_efficiency_ln>
-1.68294041889161

> <r_i_glide_gscore>
-7.22963749476333

> <r_i_glide_lipo>
-2.83680372143757

> <r_i_glide_hbond>
-0.1697791874132

> <r_i_glide_metal>
0

> <r_i_glide_rewards>
-2.70652127754825

> <r_i_glide_evdw>
-29.2461547851562

> <r_i_glide_ecoul>
-3.02057719230652

> <r_i_glide_erotb>
0.430030032883991

> <r_i_glide_esite>
-0.0311690231445187

> <r_i_glide_emodel>
-42.726179062594

> <r_i_glide_energy>
-32.2667319774628

> <r_i_glide_einternal>
5.96938514709473

> <i_i_glide_confnum>
9

> <i_i_glide_posenum>
136

> <r_i_glide_eff_state_penalty>
0

> <s_user_duplicate_titles>
CHEMBL260_lig167,158822

> <s_m_subgroup_title>
dock_pv

> <s_m_subgroupid>
dock_pv

> <b_m_subgroup_collapsed>
1

$$$$
CHEMBL260_lig718
                    3D
 Schrodinger Suite 2021-1.
 33 35  0  0  1  0            999 V2000
   -3.8731    1.4707   15.8908 C   0  0  0  0  0  0
   -5.1786    0.9955   15.8758 C   0  0  0  0  0  0
   -5.8395    0.7244   17.0689 C   0  0  0  0  0  0
   -5.1927    0.8922   18.2896 C   0  0  0  0  0  0
   -3.8907    1.4023   18.3172 C   0  0  0  0  0  0
   -3.2349    1.6871   17.1076 C   0  0  0  0  0  0
   -3.2649    1.7572   19.6267 C   0  0  0  0  0  0
   -3.0169    0.6978   20.6073 C   0  0  0  0  0  0
   -2.8356    2.8967   19.8314 O   0  0  0  0  0  0
   -3.2349   -0.6845   20.4751 C   0  0  0  0  0  0
   -2.8911   -1.3645   21.5442 N   0  0  0  0  0  0
   -2.4316   -0.4443   22.4043 N   0  0  0  0  0  0
   -2.4703    0.8329   21.8811 C   0  0  0  0  0  0
   -1.9456   -0.8459   23.6602 C   0  0  0  0  0  0
   -2.8429   -1.2344   24.6599 C   0  0  0  0  0  0
   -2.3671   -1.5587   25.9294 C   0  0  0  0  0  0
   -0.9984   -1.5130   26.1960 C   0  0  0  0  0  0
   -0.1003   -1.1391   25.1946 C   0  0  0  0  0  0
   -0.5723   -0.7993   23.9262 C   0  0  0  0  0  0
   -2.0351    1.9311   22.5781 N   0  0  0  0  0  0
   -3.2357   -1.9133   26.9022 F   0  0  0  0  0  0
   -3.3610    1.6870   14.9648 H   0  0  0  0  0  0
   -5.6774    0.8288   14.9328 H   0  0  0  0  0  0
   -6.8350    0.3223   17.0528 H   0  0  0  0  0  0
   -5.7280    0.6707   19.2031 H   0  0  0  0  0  0
   -2.2388    2.1041   17.0761 H   0  0  0  0  0  0
   -3.6347   -1.1859   19.6046 H   0  0  0  0  0  0
   -3.9056   -1.2634   24.4674 H   0  0  0  0  0  0
   -0.6341   -1.7701   27.1803 H   0  0  0  0  0  0
    0.9597   -1.1085   25.4051 H   0  0  0  0  0  0
    0.1277   -0.4950   23.1601 H   0  0  0  0  0  0
   -2.0063    2.8368   22.1319 H   0  0  0  0  0  0
   -1.6370    1.8546   23.5038 H   0  0  0  0  0  0
  1  6  2  0  0  0
  1  2  1  0  0  0
  1 22  1  0  0  0
  2  3  2  0  0  0
  2 23  1  0  0  0
  3  4  1  0  0  0
  3 24  1  0  0  0
  4  5  2  0  0  0
  4 25  1  0  0  0
  5  6  1  0  0  0
  5  7  1  0  0  0
  6 26  1  0  0  0
  7  8  1  0  0  0
  7  9  2  0  0  0
  8 13  2  0  0  0
  8 10  1  0  0  0
 10 11  2  0  0  0
 10 27  1  0  0  0
 11 12  1  0  0  0
 12 13  1  0  0  0
 12 14  1  0  0  0
 13 20  1  0  0  0
 14 15  2  0  0  0
 14 19  1  0  0  0
 15 16  1  0  0  0
 15 28  1  0  0  0
 16 17  2  0  0  0
 16 21  1  0  0  0
 17 18  1  0  0  0
 17 29  1  0  0  0
 18 19  2  0  0  0
 18 30  1  0  0  0
 19 31  1  0  0  0
 20 32  1  0  0  0
 20 33  1  0  0  0
M  END
> <s_m_entry_id>
61034

> <s_m_entry_name>
dock_pv.311

> <s_m_Source_Path>
/home/csk/Desktop/cluster/DUD-E-result/mk14

> <s_m_Source_File>
dock_pv.maegz

> <i_m_Source_File_Index>
311

> <chembl_id>
CHEMBL204901

> <chembl_pref_name>
None

> <i_lp_mmshare_version>
53161

> <i_f3d_flags>
0

> <r_lp_tautomer_probability>
1

> <s_lp_Force_Field>
OPLS_2005

> <r_lp_Energy>
24.248174

> <b_lp_Chiralities_Consistent>
1

> <s_lp_Variant>
CHEMBL260_lig718-1

> <s_i_glide_gridfile>
glide-grid_2qd9

> <i_i_glide_lignum>
808

> <i_i_glide_rotatable_bonds>
3

> <r_i_docking_score>
-7.22337991215773

> <r_i_glide_ligand_efficiency>
-0.343970472007511

> <r_i_glide_ligand_efficiency_sa>
-0.948988450219675

> <r_i_glide_ligand_efficiency_ln>
-1.78596608706753

> <r_i_glide_gscore>
-7.22337991215773

> <r_i_glide_lipo>
-3.38088030274094

> <r_i_glide_hbond>
0

> <r_i_glide_metal>
0

> <r_i_glide_rewards>
-2.31074748793459

> <r_i_glide_evdw>
-34.8314056396484

> <r_i_glide_ecoul>
-3.17000484466553

> <r_i_glide_erotb>
0.685318887200054

> <r_i_glide_esite>
0

> <r_i_glide_emodel>
-50.3584900980409

> <r_i_glide_energy>
-38.001410484314

> <r_i_glide_einternal>
6.98254346847534

> <i_i_glide_confnum>
12

> <i_i_glide_posenum>
170

> <r_i_glide_eff_state_penalty>
0

> <s_user_duplicate_titles>
CHEMBL260_lig718

> <s_m_subgroup_title>
dock_pv

> <s_m_subgroupid>
dock_pv

> <b_m_subgroup_collapsed>
1

$$$$
CHEMBL260_lig1858
                    3D
 Schrodinger Suite 2021-1.
 46 50  0  0  1  0            999 V2000
   -3.3020    0.4750   20.2040 N   0  0  0  0  0  0
   -2.5908    1.0834   22.1310 C   0  0  0  0  0  0
   -3.2351    1.4985   21.0730 N   0  0  0  0  0  0
   -2.1210   -0.2573   21.9708 C   0  0  0  0  0  0
   -2.6448   -0.6395   20.7108 C   0  0  0  0  0  0
   -2.4350   -1.9377   20.2502 C   0  0  0  0  0  0
   -1.7463   -2.8274   21.0082 N   0  0  0  0  0  0
   -1.2354   -2.4793   22.1970 N   0  0  0  0  0  0
   -1.3605   -1.2175   22.6831 C   0  0  0  0  0  0
   -4.0386    0.6424   19.0160 C   0  0  0  0  0  0
   -3.3907    0.8872   17.8004 C   0  0  0  0  0  0
   -4.1160    1.1363   16.6371 C   0  0  0  0  0  0
   -5.5055    1.1298   16.6739 C   0  0  0  0  0  0
   -6.1571    0.8864   17.8807 C   0  0  0  0  0  0
   -5.4348    0.6583   19.0550 C   0  0  0  0  0  0
   -0.6998   -1.0074   23.9058 N   0  0  0  0  0  0
   -0.1850    0.1389   24.5417 C   0  0  0  0  0  0
   -0.0043    1.3287   23.8377 C   0  0  0  0  0  0
    0.4470    2.4928   24.4585 C   0  0  0  0  0  0
    0.8398    2.4363   25.8006 C   0  0  0  0  0  0
    0.7076    1.2450   26.5143 C   0  0  0  0  0  0
    0.1731    0.1080   25.9008 C   0  0  0  0  0  0
    0.4451    3.7749   23.6771 C   0  0  0  0  0  0
   -0.5406    4.0874   23.0056 O   0  0  0  0  0  0
    1.5651    4.5040   23.7469 N   0  0  0  0  0  0
    1.8075    5.6905   22.9372 C   0  0  0  0  0  0
    1.1226    6.9835   23.3095 C   0  0  0  0  0  0
    2.6113    6.8151   23.5382 C   0  0  0  0  0  0
   -0.0362   -1.3178   26.8562 Cl  0  0  0  0  0  0
   -3.4686    1.3712   15.4759 F   0  0  0  0  0  0
   -2.4581    1.7432   22.9753 H   0  0  0  0  0  0
   -2.8105   -2.2865   19.3043 H   0  0  0  0  0  0
   -2.3247    0.8847   17.7238 H   0  0  0  0  0  0
   -6.0731    1.3017   15.7717 H   0  0  0  0  0  0
   -7.2349    0.8623   17.9073 H   0  0  0  0  0  0
   -5.9631    0.4853   19.9815 H   0  0  0  0  0  0
   -0.3695   -1.8652   24.3217 H   0  0  0  0  0  0
   -0.2101    1.3598   22.7810 H   0  0  0  0  0  0
    1.2230    3.3125   26.3060 H   0  0  0  0  0  0
    1.0065    1.2087   27.5532 H   0  0  0  0  0  0
    2.3963    4.0199   24.0741 H   0  0  0  0  0  0
    1.9385    5.4744   21.8740 H   0  0  0  0  0  0
    0.4481    6.9892   24.1667 H   0  0  0  0  0  0
    0.7705    7.6240   22.5004 H   0  0  0  0  0  0
    3.3158    7.3401   22.8926 H   0  0  0  0  0  0
    2.9890    6.6986   24.5555 H   0  0  0  0  0  0
  1 10  1  0  0  0
  1  3  1  0  0  0
  1  5  1  0  0  0
  2  4  1  0  0  0
  2  3  2  0  0  0
  2 31  1  0  0  0
  4  9  1  0  0  0
  4  5  2  0  0  0
  5  6  1  0  0  0
  6  7  2  0  0  0
  6 32  1  0  0  0
  7  8  1  0  0  0
  8  9  2  0  0  0
  9 16  1  0  0  0
 10 15  1  0  0  0
 10 11  2  0  0  0
 11 12  1  0  0  0
 11 33  1  0  0  0
 12 13  2  0  0  0
 12 30  1  0  0  0
 13 14  1  0  0  0
 13 34  1  0  0  0
 14 15  2  0  0  0
 14 35  1  0  0  0
 15 36  1  0  0  0
 16 17  1  0  0  0
 16 37  1  0  0  0
 17 18  2  0  0  0
 17 22  1  0  0  0
 18 19  1  0  0  0
 18 38  1  0  0  0
 19 20  2  0  0  0
 19 23  1  0  0  0
 20 21  1  0  0  0
 20 39  1  0  0  0
 21 22  2  0  0  0
 21 40  1  0  0  0
 22 29  1  0  0  0
 23 24  2  0  0  0
 23 25  1  0  0  0
 25 26  1  0  0  0
 25 41  1  0  0  0
 26 27  1  0  0  0
 26 28  1  0  0  0
 26 42  1  0  0  0
 27 28  1  0  0  0
 27 43  1  0  0  0
 27 44  1  0  0  0
 28 45  1  0  0  0
 28 46  1  0  0  0
M  END
> <s_m_entry_id>
61035

> <s_m_entry_name>
dock_pv.312

> <s_m_Source_Path>
/home/csk/Desktop/cluster/DUD-E-result/mk14

> <s_m_Source_File>
dock_pv.maegz

> <i_m_Source_File_Index>
312

> <chembl_id>
CHEMBL1088440

> <chembl_pref_name>
None

> <i_lp_mmshare_version>
53161

> <i_f3d_flags>
0

> <r_lp_tautomer_probability>
1

> <s_lp_Force_Field>
OPLS_2005

> <r_lp_Energy>
48.934797

> <b_lp_Chiralities_Consistent>
1

> <s_lp_Variant>
CHEMBL260_lig1858-1

> <s_i_glide_gridfile>
glide-grid_2qd9

> <i_i_glide_lignum>
2179

> <i_i_glide_rotatable_bonds>
6

> <r_i_docking_score>
-7.21797884952221

> <r_i_glide_ligand_efficiency>
-0.240599294984074

> <r_i_glide_ligand_efficiency_sa>
-0.747597949436519

> <r_i_glide_ligand_efficiency_ln>
-1.64000344079008

> <r_i_glide_gscore>
-7.21797884952221

> <r_i_glide_lipo>
-2.87890352330059

> <r_i_glide_hbond>
-0.32

> <r_i_glide_metal>
0

> <r_i_glide_rewards>
-1.47399468333358

> <r_i_glide_evdw>
-43.9982376098633

> <r_i_glide_ecoul>
-6.10091114044189

> <r_i_glide_erotb>
0.664917749335305

> <r_i_glide_esite>
-0.0949498406638991

> <r_i_glide_emodel>
-66.8014906157475

> <r_i_glide_energy>
-50.0991487503052

> <r_i_glide_einternal>
9.67589664459229

> <i_i_glide_confnum>
15

> <i_i_glide_posenum>
169

> <r_i_glide_eff_state_penalty>
0

> <s_user_duplicate_titles>
CHEMBL260_lig1858,613807

> <s_m_subgroup_title>
dock_pv

> <s_m_subgroupid>
dock_pv

> <b_m_subgroup_collapsed>
1

$$$$
CHEMBL260_lig1589
                    3D
 Schrodinger Suite 2021-1.
 50 53  0  0  1  0            999 V2000
   -3.2346    0.7648   21.7763 C   0  0  0  0  0  0
   -2.5236   -0.4291   21.9193 C   0  0  0  0  0  0
   -2.2390   -1.1876   20.7781 C   0  0  0  0  0  0
   -2.6922   -0.7635   19.5305 C   0  0  0  0  0  0
   -3.4572    0.4021   19.3965 C   0  0  0  0  0  0
   -3.7009    1.1693   20.5307 C   0  0  0  0  0  0
   -3.9545    0.8869   18.0749 C   0  0  0  0  0  0
   -3.0268    1.3286   17.1457 C   0  0  0  0  0  0
   -3.3498    2.0272   15.9979 C   0  0  0  0  0  0
   -4.7012    2.0870   15.6467 C   0  0  0  0  0  0
   -5.6645    1.5333   16.4997 C   0  0  0  0  0  0
   -5.3080    0.9795   17.7341 C   0  0  0  0  0  0
   -6.3961    0.4870   18.6757 C   0  0  0  0  0  0
   -2.1109   -0.8786   23.2984 C   0  0  0  0  0  0
   -2.8402   -0.6542   24.2662 O   0  0  0  0  0  0
   -0.9131   -1.4849   23.4006 N   0  0  0  0  0  0
   -0.2704   -1.8745   24.6599 C   0  0  0  0  0  0
    0.4769   -0.7093   25.3396 C   0  0  0  0  0  0
   -0.2700    0.3280   26.1430 C   0  0  0  0  0  0
    0.6279   -0.6759   26.8416 C   0  0  0  0  0  0
   -2.4129    2.8870   15.3850 N   0  0  0  0  0  0
   -1.0945    2.7804   15.0760 C   0  0  0  0  0  0
   -0.4530    4.0494   14.5042 C   0  0  0  0  0  0
   -0.4348    1.7401   15.0760 O   0  0  0  0  0  0
    0.6827    3.8550   13.4806 C   0  0  0  0  0  0
   -0.6707    4.2684   13.0163 C   0  0  0  0  0  0
   -3.4408    1.3824   22.6394 H   0  0  0  0  0  0
   -1.6843   -2.1129   20.8435 H   0  0  0  0  0  0
   -2.4353   -1.3630   18.6744 H   0  0  0  0  0  0
   -4.2599    2.0870   20.4397 H   0  0  0  0  0  0
   -2.0350    1.2268   17.4197 H   0  0  0  0  0  0
   -5.0166    2.6222   14.7614 H   0  0  0  0  0  0
   -6.7127    1.6089   16.2630 H   0  0  0  0  0  0
   -6.0351   -0.3276   19.3003 H   0  0  0  0  0  0
   -6.7470    1.2836   19.3319 H   0  0  0  0  0  0
   -7.2361    0.0874   18.1104 H   0  0  0  0  0  0
   -0.3719   -1.6083   22.5591 H   0  0  0  0  0  0
   -1.0594   -2.2115   25.3375 H   0  0  0  0  0  0
    0.3650   -2.7560   24.5753 H   0  0  0  0  0  0
    1.3370   -0.3806   24.7541 H   0  0  0  0  0  0
    0.0523    1.3671   26.0685 H   0  0  0  0  0  0
   -1.3500    0.2374   26.2591 H   0  0  0  0  0  0
    0.1734   -1.4695   27.4366 H   0  0  0  0  0  0
    1.5647   -0.3172   27.2717 H   0  0  0  0  0  0
   -2.8218    3.7534   15.0298 H   0  0  0  0  0  0
   -0.4354    4.8870   15.1933 H   0  0  0  0  0  0
    1.0385    2.8526   13.2360 H   0  0  0  0  0  0
    1.4848    4.5898   13.4208 H   0  0  0  0  0  0
   -0.8348    5.2867   12.6759 H   0  0  0  0  0  0
   -1.2349    3.5579   12.4262 H   0  0  0  0  0  0
  1  6  1  0  0  0
  1  2  2  0  0  0
  1 27  1  0  0  0
  2 14  1  0  0  0
  2  3  1  0  0  0
  3  4  2  0  0  0
  3 28  1  0  0  0
  4  5  1  0  0  0
  4 29  1  0  0  0
  5  6  2  0  0  0
  5  7  1  0  0  0
  6 30  1  0  0  0
  7  8  2  0  0  0
  7 12  1  0  0  0
  8  9  1  0  0  0
  8 31  1  0  0  0
  9 10  2  0  0  0
  9 21  1  0  0  0
 10 11  1  0  0  0
 10 32  1  0  0  0
 11 12  2  0  0  0
 11 33  1  0  0  0
 12 13  1  0  0  0
 13 34  1  0  0  0
 13 35  1  0  0  0
 13 36  1  0  0  0
 14 15  2  0  0  0
 14 16  1  0  0  0
 16 17  1  0  0  0
 16 37  1  0  0  0
 17 18  1  0  0  0
 17 38  1  0  0  0
 17 39  1  0  0  0
 18 19  1  0  0  0
 18 20  1  0  0  0
 18 40  1  0  0  0
 19 20  1  0  0  0
 19 41  1  0  0  0
 19 42  1  0  0  0
 20 43  1  0  0  0
 20 44  1  0  0  0
 21 22  1  0  0  0
 21 45  1  0  0  0
 22 23  1  0  0  0
 22 24  2  0  0  0
 23 25  1  0  0  0
 23 26  1  0  0  0
 23 46  1  0  0  0
 25 26  1  0  0  0
 25 47  1  0  0  0
 25 48  1  0  0  0
 26 49  1  0  0  0
 26 50  1  0  0  0
M  END
> <s_m_entry_id>
61036

> <s_m_entry_name>
dock_pv.313

> <s_m_Source_Path>
/home/csk/Desktop/cluster/DUD-E-result/mk14

> <s_m_Source_File>
dock_pv.maegz

> <i_m_Source_File_Index>
313

> <chembl_id>
CHEMBL476532

> <chembl_pref_name>
None

> <i_lp_mmshare_version>
53161

> <i_f3d_flags>
0

> <r_lp_tautomer_probability>
1

> <s_lp_Force_Field>
OPLS_2005

> <r_lp_Energy>
36.161033

> <b_lp_Chiralities_Consistent>
1

> <s_lp_Variant>
CHEMBL260_lig1589-1

> <s_i_glide_gridfile>
glide-grid_2qd9

> <i_i_glide_lignum>
1838

> <i_i_glide_rotatable_bonds>
8

> <r_i_docking_score>
-7.21797309328879

> <r_i_glide_ligand_efficiency>
-0.277614349741876

> <r_i_glide_ligand_efficiency_sa>
-0.822431418750591

> <r_i_glide_ligand_efficiency_ln>
-1.69511729685739

> <r_i_glide_gscore>
-7.21797309328879

> <r_i_glide_lipo>
-4.248699825422

> <r_i_glide_hbond>
-0.210167610428687

> <r_i_glide_metal>
0

> <r_i_glide_rewards>
-1.60783735256253

> <r_i_glide_evdw>
-28.3890113830566

> <r_i_glide_ecoul>
-5.52931261062622

> <r_i_glide_erotb>
1.09757915587119

> <r_i_glide_esite>
0

> <r_i_glide_emodel>
-35.2323438576239

> <r_i_glide_energy>
-33.9183239936829

> <r_i_glide_einternal>
15.349536895752

> <i_i_glide_confnum>
1

> <i_i_glide_posenum>
138

> <r_i_glide_eff_state_penalty>
0

> <s_user_duplicate_titles>
CHEMBL260_lig1589,489768

> <s_m_subgroup_title>
dock_pv

> <s_m_subgroupid>
dock_pv

> <b_m_subgroup_collapsed>
1

$$$$
CHEMBL260_lig727
                    3D
 Schrodinger Suite 2021-1.
 44 46  0  0  1  0            999 V2000
    2.0623    5.4632   22.2760 N   0  0  0  0  0  0
    1.1981    5.0473   23.7286 S   0  0  0  0  0  0
    1.0923    3.1661   23.6399 C   0  0  0  0  0  0
    2.0544    5.4278   24.8549 O   0  0  0  0  0  0
   -0.1607    5.5853   23.5970 O   0  0  0  0  0  0
    1.0414    2.5448   25.0569 C   0  0  0  0  0  0
   -0.0350   -0.7710   26.5953 C   0  0  0  0  0  0
    0.5336    0.4895   26.4210 C   0  0  0  0  0  0
    0.4862    1.1222   25.1759 C   0  0  0  0  0  0
   -0.1218    0.4536   24.1049 C   0  0  0  0  0  0
   -0.7705   -0.7786   24.2829 C   0  0  0  0  0  0
   -0.6816   -1.4037   25.5335 C   0  0  0  0  0  0
   -1.5370   -1.4254   23.1639 C   0  0  0  0  0  0
   -2.2612   -0.5625   22.2106 C   0  0  0  0  0  0
   -1.6781   -2.6517   23.1091 O   0  0  0  0  0  0
   -2.6185    0.7902   22.3620 C   0  0  0  0  0  0
   -3.2349    1.2864   21.3202 N   0  0  0  0  0  0
   -3.3753    0.2597   20.4760 N   0  0  0  0  0  0
   -2.7872   -0.8968   20.9632 C   0  0  0  0  0  0
   -2.7906   -2.0768   20.2757 N   0  0  0  0  0  0
   -4.0074    0.5091   19.2417 C   0  0  0  0  0  0
   -5.3974    0.6279   19.1720 C   0  0  0  0  0  0
   -6.0024    0.8870   17.9426 C   0  0  0  0  0  0
   -5.2209    1.0535   16.8014 C   0  0  0  0  0  0
   -3.8374    0.9524   16.8720 C   0  0  0  0  0  0
   -3.2350    0.6597   18.0909 C   0  0  0  0  0  0
   -5.8031    1.2865   15.6083 F   0  0  0  0  0  0
    1.5726    5.3014   21.3827 H   0  0  0  0  0  0
    3.0240    5.1184   22.2637 H   0  0  0  0  0  0
    0.1989    2.9733   23.0531 H   0  0  0  0  0  0
    1.9620    2.8089   23.0876 H   0  0  0  0  0  0
    2.0497    2.5487   25.4775 H   0  0  0  0  0  0
    0.4440    3.1814   25.7116 H   0  0  0  0  0  0
    0.0132   -1.2545   27.5603 H   0  0  0  0  0  0
    1.0114    0.9755   27.2604 H   0  0  0  0  0  0
   -0.1225    0.9018   23.1254 H   0  0  0  0  0  0
   -1.1368   -2.3690   25.7039 H   0  0  0  0  0  0
   -2.4270    1.4125   23.2252 H   0  0  0  0  0  0
   -2.3996   -2.9201   20.6748 H   0  0  0  0  0  0
   -3.2339   -2.1753   19.3737 H   0  0  0  0  0  0
   -6.0091    0.4999   20.0527 H   0  0  0  0  0  0
   -7.0778    0.9438   17.8758 H   0  0  0  0  0  0
   -3.2421    1.0551   15.9764 H   0  0  0  0  0  0
   -2.1771    0.4870   18.1112 H   0  0  0  0  0  0
  1  2  1  0  0  0
  1 28  1  0  0  0
  1 29  1  0  0  0
  2  4  2  0  0  0
  2  5  2  0  0  0
  2  3  1  0  0  0
  3  6  1  0  0  0
  3 30  1  0  0  0
  3 31  1  0  0  0
  6  9  1  0  0  0
  6 32  1  0  0  0
  6 33  1  0  0  0
  7  8  2  0  0  0
  7 12  1  0  0  0
  7 34  1  0  0  0
  8  9  1  0  0  0
  8 35  1  0  0  0
  9 10  2  0  0  0
 10 11  1  0  0  0
 10 36  1  0  0  0
 11 13  1  0  0  0
 11 12  2  0  0  0
 12 37  1  0  0  0
 13 14  1  0  0  0
 13 15  2  0  0  0
 14 19  2  0  0  0
 14 16  1  0  0  0
 16 17  2  0  0  0
 16 38  1  0  0  0
 17 18  1  0  0  0
 18 21  1  0  0  0
 18 19  1  0  0  0
 19 20  1  0  0  0
 20 39  1  0  0  0
 20 40  1  0  0  0
 21 22  2  0  0  0
 21 26  1  0  0  0
 22 23  1  0  0  0
 22 41  1  0  0  0
 23 24  2  0  0  0
 23 42  1  0  0  0
 24 25  1  0  0  0
 24 27  1  0  0  0
 25 26  2  0  0  0
 25 43  1  0  0  0
 26 44  1  0  0  0
M  END
> <s_m_entry_id>
61037

> <s_m_entry_name>
dock_pv.314

> <s_m_Source_Path>
/home/csk/Desktop/cluster/DUD-E-result/mk14

> <s_m_Source_File>
dock_pv.maegz

> <i_m_Source_File_Index>
314

> <chembl_id>
CHEMBL380850

> <chembl_pref_name>
None

> <i_lp_mmshare_version>
53161

> <i_f3d_flags>
0

> <r_lp_tautomer_probability>
1

> <s_lp_Force_Field>
OPLS_2005

> <r_lp_Energy>
15.625937

> <b_lp_Chiralities_Consistent>
1

> <s_lp_Variant>
CHEMBL260_lig727-1

> <s_i_glide_gridfile>
glide-grid_2qd9

> <i_i_glide_lignum>
818

> <i_i_glide_rotatable_bonds>
6

> <r_i_docking_score>
-7.21438623014221

> <r_i_glide_ligand_efficiency>
-0.267199490005267

> <r_i_glide_ligand_efficiency_sa>
-0.801598469135155

> <r_i_glide_ligand_efficiency_ln>
-1.67939017592456

> <r_i_glide_gscore>
-7.21438623014221

> <r_i_glide_lipo>
-2.6956161506272

> <r_i_glide_hbond>
-0.143905706958329

> <r_i_glide_metal>
0

> <r_i_glide_rewards>
-1.86673626293879

> <r_i_glide_evdw>
-37.6568946838379

> <r_i_glide_ecoul>
-7.27735042572021

> <r_i_glide_erotb>
0.645724287142088

> <r_i_glide_esite>
-0.179405098710053

> <r_i_glide_emodel>
-61.0222426215443

> <r_i_glide_energy>
-44.9342451095581

> <r_i_glide_einternal>
6.03407430648804

> <i_i_glide_confnum>
82

> <i_i_glide_posenum>
123

> <r_i_glide_eff_state_penalty>
0

> <s_user_duplicate_titles>
CHEMBL260_lig727,340407

> <s_m_subgroup_title>
dock_pv

> <s_m_subgroupid>
dock_pv

> <b_m_subgroup_collapsed>
1

$$$$
CHEMBL260_lig129
                    3D
 Schrodinger Suite 2021-1.
 48 51  0  0  1  0            999 V2000
   -1.3838   -1.2482   23.5960 N   0  0  0  0  0  0
   -1.3822   -2.5445   23.1700 C   0  0  0  0  0  0
   -1.0344   -0.9946   24.9499 C   0  0  0  0  0  0
   -1.7361   -0.1493   22.7900 C   0  0  0  0  0  0
   -2.1472   -0.4044   21.4761 C   0  0  0  0  0  0
   -2.4928    0.5757   20.6415 N   0  0  0  0  0  0
    0.2627   -0.5481   25.2614 C   0  0  0  0  0  0
   -1.6350   -2.7768   21.8644 N   0  0  0  0  0  0
   -1.9887   -1.1218   25.9805 C   0  0  0  0  0  0
   -0.3791   -0.2598   27.5938 C   0  0  0  0  0  0
   -2.4350    1.8502   21.0651 C   0  0  0  0  0  0
   -0.0710    0.1707   28.9964 C   0  0  0  0  0  0
    0.5715   -0.1738   26.5677 C   0  0  0  0  0  0
   -1.6487   -0.7619   27.2869 C   0  0  0  0  0  0
   -1.6905    1.1901   23.2267 C   0  0  0  0  0  0
   -2.2046   -1.8136   20.9302 C   0  0  0  0  0  0
   -2.8350    3.0563   19.8760 S   0  0  0  0  0  0
   -1.2350   -3.5130   23.8760 O   0  0  0  0  0  0
   -0.8224   -0.0438   29.9521 O   0  0  0  0  0  0
    1.4982   -0.4087   24.0532 Cl  0  0  0  0  0  0
   -2.0361    2.2129   22.3480 C   0  0  0  0  0  0
   -3.6350    2.0870   18.5962 C   0  0  0  0  0  0
    1.0750    0.8870   29.0877 O   0  0  0  0  0  0
   -5.0822    0.9002   16.5346 C   0  0  0  0  0  0
   -5.7963    0.3402   15.5330 F   0  0  0  0  0  0
   -4.8350    1.4367   18.8758 C   0  0  0  0  0  0
   -3.1317    2.0870   17.2881 C   0  0  0  0  0  0
   -3.8490    1.4826   16.2595 C   0  0  0  0  0  0
   -5.5806    0.8870   17.8359 C   0  0  0  0  0  0
   -3.3932   -1.6415   25.7144 C   0  0  0  0  0  0
    1.5178    1.4021   30.3336 C   0  0  0  0  0  0
   -1.4993   -3.7199   21.5347 H   0  0  0  0  0  0
    1.5650    0.1947   26.7750 H   0  0  0  0  0  0
   -2.3908   -0.8602   28.0682 H   0  0  0  0  0  0
   -1.3763    1.4525   24.2261 H   0  0  0  0  0  0
   -1.6450   -1.8732   19.9949 H   0  0  0  0  0  0
   -3.2350   -2.0958   20.7074 H   0  0  0  0  0  0
   -1.9828    3.2473   22.6511 H   0  0  0  0  0  0
   -5.2340    1.4322   19.8798 H   0  0  0  0  0  0
   -2.2020    2.5896   17.0621 H   0  0  0  0  0  0
   -3.4684    1.4924   15.2483 H   0  0  0  0  0  0
   -6.5380    0.4270   18.0364 H   0  0  0  0  0  0
   -3.8454   -1.1250   24.8672 H   0  0  0  0  0  0
   -3.3387   -2.7028   25.4760 H   0  0  0  0  0  0
   -4.0529   -1.5130   26.5725 H   0  0  0  0  0  0
    2.5150    1.8285   30.2231 H   0  0  0  0  0  0
    1.5650    0.6176   31.0905 H   0  0  0  0  0  0
    0.8474    2.1852   30.6898 H   0  0  0  0  0  0
  1  2  1  0  0  0
  1  3  1  0  0  0
  1  4  1  0  0  0
  2  8  1  0  0  0
  2 18  2  0  0  0
  3  7  1  0  0  0
  3  9  2  0  0  0
  4  5  2  0  0  0
  4 15  1  0  0  0
  5  6  1  0  0  0
  5 16  1  0  0  0
  6 11  2  0  0  0
  7 13  2  0  0  0
  7 20  1  0  0  0
  8 16  1  0  0  0
  8 32  1  0  0  0
  9 14  1  0  0  0
  9 30  1  0  0  0
 10 14  2  0  0  0
 10 12  1  0  0  0
 10 13  1  0  0  0
 11 21  1  0  0  0
 11 17  1  0  0  0
 12 19  2  0  0  0
 12 23  1  0  0  0
 13 33  1  0  0  0
 14 34  1  0  0  0
 15 21  2  0  0  0
 15 35  1  0  0  0
 16 36  1  0  0  0
 16 37  1  0  0  0
 17 22  1  0  0  0
 21 38  1  0  0  0
 22 26  2  0  0  0
 22 27  1  0  0  0
 23 31  1  0  0  0
 24 28  1  0  0  0
 24 25  1  0  0  0
 24 29  2  0  0  0
 26 29  1  0  0  0
 26 39  1  0  0  0
 27 28  2  0  0  0
 27 40  1  0  0  0
 28 41  1  0  0  0
 29 42  1  0  0  0
 30 43  1  0  0  0
 30 44  1  0  0  0
 30 45  1  0  0  0
 31 46  1  0  0  0
 31 47  1  0  0  0
 31 48  1  0  0  0
M  END
> <s_m_entry_id>
61038

> <s_m_entry_name>
dock_pv.315

> <s_m_Source_Path>
/home/csk/Desktop/cluster/DUD-E-result/mk14

> <s_m_Source_File>
dock_pv.maegz

> <i_m_Source_File_Index>
315

> <chembl_id>
CHEMBL129375

> <chembl_pref_name>
None

> <i_lp_mmshare_version>
53161

> <i_f3d_flags>
0

> <r_lp_tautomer_probability>
1

> <s_lp_Force_Field>
OPLS_2005

> <r_lp_Energy>
44.114748

> <b_lp_Chiralities_Consistent>
1

> <s_lp_Variant>
CHEMBL260_lig129-1

> <s_i_glide_gridfile>
glide-grid_2qd9

> <i_i_glide_lignum>
146

> <i_i_glide_rotatable_bonds>
5

> <r_i_docking_score>
-7.21402124886517

> <r_i_glide_ligand_efficiency>
-0.232710362866618

> <r_i_glide_ligand_efficiency_sa>
-0.731031830683391

> <r_i_glide_ligand_efficiency_ln>
-1.62698287481929

> <r_i_glide_gscore>
-7.21402124886517

> <r_i_glide_lipo>
-3.18081568209083

> <r_i_glide_hbond>
-0.429023761125416

> <r_i_glide_metal>
0

> <r_i_glide_rewards>
-1.37551336895613

> <r_i_glide_evdw>
-33.4618453979492

> <r_i_glide_ecoul>
-6.2612361907959

> <r_i_glide_erotb>
0.383609261824056

> <r_i_glide_esite>
0

> <r_i_glide_emodel>
-49.1112583348274

> <r_i_glide_energy>
-39.7230815887451

> <r_i_glide_einternal>
2.74509000778198

> <i_i_glide_confnum>
16

> <i_i_glide_posenum>
18

> <r_i_glide_eff_state_penalty>
0

> <s_user_duplicate_titles>
CHEMBL260_lig129,213024

> <s_m_subgroup_title>
dock_pv

> <s_m_subgroupid>
dock_pv

> <b_m_subgroup_collapsed>
1

$$$$
CHEMBL260_lig717
                    3D
 Schrodinger Suite 2021-1.
 33 35  0  0  1  0            999 V2000
   -5.8296    0.8857   17.0878 C   0  0  0  0  0  0
   -5.1704    1.1386   15.8897 C   0  0  0  0  0  0
   -3.8596    1.5970   15.8973 C   0  0  0  0  0  0
   -3.2186    1.8149   17.1112 C   0  0  0  0  0  0
   -3.8700    1.5423   18.3248 C   0  0  0  0  0  0
   -5.1759    1.0479   18.3042 C   0  0  0  0  0  0
   -3.2375    1.8798   19.6334 C   0  0  0  0  0  0
   -2.9731    0.7988   20.5837 C   0  0  0  0  0  0
   -2.8350    3.0237   19.8652 O   0  0  0  0  0  0
   -3.1741   -0.5829   20.4158 C   0  0  0  0  0  0
   -2.8040   -1.2861   21.4607 N   0  0  0  0  0  0
   -2.3393   -0.3817   22.3360 N   0  0  0  0  0  0
   -2.4325    0.9100   21.8603 C   0  0  0  0  0  0
   -1.8281   -0.8037   23.5752 C   0  0  0  0  0  0
   -2.7021   -1.2122   24.5867 C   0  0  0  0  0  0
   -2.1987   -1.5676   25.8376 C   0  0  0  0  0  0
   -0.8255   -1.5129   26.0779 C   0  0  0  0  0  0
    0.0478   -1.1122   25.0659 C   0  0  0  0  0  0
   -0.4505   -0.7521   23.8138 C   0  0  0  0  0  0
   -2.0351    1.9985   22.5933 N   0  0  0  0  0  0
   -4.0351   -1.2352   24.3688 F   0  0  0  0  0  0
   -6.8350    0.5059   17.0772 H   0  0  0  0  0  0
   -5.6738    0.9719   14.9494 H   0  0  0  0  0  0
   -3.3447    1.7989   14.9702 H   0  0  0  0  0  0
   -2.2163    2.2174   17.0760 H   0  0  0  0  0  0
   -5.7104    0.8359   19.2205 H   0  0  0  0  0  0
   -3.5758   -1.0684   19.5367 H   0  0  0  0  0  0
   -2.8729   -1.8763   26.6231 H   0  0  0  0  0  0
   -0.4352   -1.7874   27.0478 H   0  0  0  0  0  0
    1.1118   -1.0776   25.2553 H   0  0  0  0  0  0
    0.2330   -0.4286   23.0408 H   0  0  0  0  0  0
   -2.0375    2.9177   22.1763 H   0  0  0  0  0  0
   -1.6334    1.9050   23.5161 H   0  0  0  0  0  0
  1  6  2  0  0  0
  1  2  1  0  0  0
  1 22  1  0  0  0
  2  3  2  0  0  0
  2 23  1  0  0  0
  3  4  1  0  0  0
  3 24  1  0  0  0
  4  5  2  0  0  0
  4 25  1  0  0  0
  5  6  1  0  0  0
  5  7  1  0  0  0
  6 26  1  0  0  0
  7  8  1  0  0  0
  7  9  2  0  0  0
  8 13  2  0  0  0
  8 10  1  0  0  0
 10 11  2  0  0  0
 10 27  1  0  0  0
 11 12  1  0  0  0
 12 13  1  0  0  0
 12 14  1  0  0  0
 13 20  1  0  0  0
 14 15  2  0  0  0
 14 19  1  0  0  0
 15 16  1  0  0  0
 15 21  1  0  0  0
 16 17  2  0  0  0
 16 28  1  0  0  0
 17 18  1  0  0  0
 17 29  1  0  0  0
 18 19  2  0  0  0
 18 30  1  0  0  0
 19 31  1  0  0  0
 20 32  1  0  0  0
 20 33  1  0  0  0
M  END
> <s_m_entry_id>
61039

> <s_m_entry_name>
dock_pv.316

> <s_m_Source_Path>
/home/csk/Desktop/cluster/DUD-E-result/mk14

> <s_m_Source_File>
dock_pv.maegz

> <i_m_Source_File_Index>
316

> <chembl_id>
CHEMBL204345

> <chembl_pref_name>
None

> <i_lp_mmshare_version>
53161

> <i_f3d_flags>
0

> <r_lp_tautomer_probability>
1

> <s_lp_Force_Field>
OPLS_2005

> <r_lp_Energy>
25.538743

> <b_lp_Chiralities_Consistent>
1

> <s_lp_Variant>
CHEMBL260_lig717-1

> <s_i_glide_gridfile>
glide-grid_2qd9

> <i_i_glide_lignum>
807

> <i_i_glide_rotatable_bonds>
3

> <r_i_docking_score>
-7.20843592264303

> <r_i_glide_ligand_efficiency>
-0.343258853459192

> <r_i_glide_ligand_efficiency_sa>
-0.947025148604349

> <r_i_glide_ligand_efficiency_ln>
-1.7822712158572

> <r_i_glide_gscore>
-7.20843592264303

> <r_i_glide_lipo>
-3.2788873848952

> <r_i_glide_hbond>
0

> <r_i_glide_metal>
0

> <r_i_glide_rewards>
-2.3783679127523

> <r_i_glide_evdw>
-34.0838012695312

> <r_i_glide_ecoul>
-3.54872965812683

> <r_i_glide_erotb>
0.685318887200054

> <r_i_glide_esite>
0

> <r_i_glide_emodel>
-50.2056028809215

> <r_i_glide_energy>
-37.6325309276581

> <r_i_glide_einternal>
6.51154327392578

> <i_i_glide_confnum>
39

> <i_i_glide_posenum>
357

> <r_i_glide_eff_state_penalty>
0

> <s_user_duplicate_titles>
CHEMBL260_lig717,340587

> <s_m_subgroup_title>
dock_pv

> <s_m_subgroupid>
dock_pv

> <b_m_subgroup_collapsed>
1

$$$$
CHEMBL260_lig50 
                    3D
 Schrodinger Suite 2021-1.
 60 64  0  0  1  0            999 V2000
   -2.2587   -2.2784   22.5456 C   0  0  0  0  0  0
   -2.7049   -1.0184   22.3405 N   0  0  0  0  0  0
   -2.7355   -0.5645   21.0606 C   0  0  0  0  0  0
   -2.4350   -1.4065   19.9841 C   0  0  0  0  0  0
   -2.0372   -2.7094   20.2926 C   0  0  0  0  0  0
   -1.9280   -3.1537   21.5704 N   0  0  0  0  0  0
   -2.0259   -2.7095   23.8508 N   0  0  0  0  0  0
   -1.7810   -1.9152   24.9791 C   0  0  0  0  0  0
   -2.6573   -1.9674   26.0627 C   0  0  0  0  0  0
   -2.3286   -1.3462   27.2688 C   0  0  0  0  0  0
   -1.1606   -0.5880   27.3564 C   0  0  0  0  0  0
   -0.3018   -0.4880   26.2597 C   0  0  0  0  0  0
   -0.6033   -1.1691   25.0765 C   0  0  0  0  0  0
   -2.8458    0.9167   20.8653 C   0  0  0  0  0  0
   -2.3827    1.8669   21.7723 N   0  0  0  0  0  0
   -2.4230    3.0294   21.0581 C   0  0  0  0  0  0
   -2.9575    2.9400   19.8812 N   0  0  0  0  0  0
   -3.2545    1.6685   19.7439 C   0  0  0  0  0  0
   -3.9706    1.2884   18.4982 C   0  0  0  0  0  0
   -5.3032    0.8873   18.5808 C   0  0  0  0  0  0
   -6.0239    0.6376   17.4155 C   0  0  0  0  0  0
   -5.3908    0.7408   16.1782 C   0  0  0  0  0  0
   -4.0725    1.1659   16.0847 C   0  0  0  0  0  0
   -3.3646    1.4476   17.2448 C   0  0  0  0  0  0
   -6.0350    0.3679   15.0573 F   0  0  0  0  0  0
   -1.7858    1.6951   23.1220 C   0  0  0  0  0  0
   -0.7352    2.7395   23.5717 C   0  0  0  0  0  0
   -1.3344    4.0063   24.2193 C   0  0  0  0  0  0
   -2.3317    3.6857   25.2408 N   0  0  2  0  0  0
   -3.4082    2.8029   24.7938 C   0  0  0  0  0  0
   -2.8412    1.4890   24.2309 C   0  0  0  0  0  0
    0.9646    0.3311   26.3804 C   0  0  0  0  0  0
   -3.1987   -1.5431   28.4967 C   0  0  0  0  0  0
   -2.4353   -1.0520   18.9648 H   0  0  0  0  0  0
   -1.7889   -3.4197   19.5158 H   0  0  0  0  0  0
   -1.4303   -3.5169   23.8260 H   0  0  0  0  0  0
   -3.5530   -2.5649   25.9947 H   0  0  0  0  0  0
   -0.9032   -0.0992   28.2852 H   0  0  0  0  0  0
    0.0838   -1.1373   24.2430 H   0  0  0  0  0  0
   -1.8881    3.8745   21.4316 H   0  0  0  0  0  0
   -5.7847    0.7774   19.5419 H   0  0  0  0  0  0
   -7.0382    0.2790   17.4807 H   0  0  0  0  0  0
   -3.5995    1.2581   15.1179 H   0  0  0  0  0  0
   -2.3537    1.8028   17.1442 H   0  0  0  0  0  0
   -1.2022    0.7859   22.9953 H   0  0  0  0  0  0
   -0.0358    2.2804   24.2734 H   0  0  0  0  0  0
   -0.0743    3.0037   22.7465 H   0  0  0  0  0  0
   -0.5388    4.5842   24.6930 H   0  0  0  0  0  0
   -1.7924    4.6497   23.4756 H   0  0  0  0  0  0
   -2.6898    4.5088   25.7042 H   0  0  0  0  0  0
   -4.0379    2.5881   25.6567 H   0  0  0  0  0  0
   -4.0299    3.3119   24.0552 H   0  0  0  0  0  0
   -3.6492    0.8528   23.8783 H   0  0  0  0  0  0
   -2.4256    0.9068   25.0499 H   0  0  0  0  0  0
    1.5644   -0.0522   27.2074 H   0  0  0  0  0  0
    0.7227    1.3703   26.6105 H   0  0  0  0  0  0
    1.5647    0.3070   25.4678 H   0  0  0  0  0  0
   -4.1937   -1.9124   28.2417 H   0  0  0  0  0  0
   -2.7280   -2.2618   29.1686 H   0  0  0  0  0  0
   -3.3108   -0.6069   29.0439 H   0  0  0  0  0  0
  1  2  2  0  0  0
  1  6  1  0  0  0
  1  7  1  0  0  0
  2  3  1  0  0  0
  3  4  2  0  0  0
  3 14  1  0  0  0
  4  5  1  0  0  0
  4 34  1  0  0  0
  5  6  2  0  0  0
  5 35  1  0  0  0
  7  8  1  0  0  0
  7 36  1  0  0  0
  8  9  2  0  0  0
  8 13  1  0  0  0
  9 10  1  0  0  0
  9 37  1  0  0  0
 10 11  2  0  0  0
 10 33  1  0  0  0
 11 12  1  0  0  0
 11 38  1  0  0  0
 12 13  2  0  0  0
 12 32  1  0  0  0
 13 39  1  0  0  0
 14 15  1  0  0  0
 14 18  2  0  0  0
 15 16  1  0  0  0
 15 26  1  0  0  0
 16 17  2  0  0  0
 16 40  1  0  0  0
 17 18  1  0  0  0
 18 19  1  0  0  0
 19 20  2  0  0  0
 19 24  1  0  0  0
 20 21  1  0  0  0
 20 41  1  0  0  0
 21 22  2  0  0  0
 21 42  1  0  0  0
 22 23  1  0  0  0
 22 25  1  0  0  0
 23 24  2  0  0  0
 23 43  1  0  0  0
 24 44  1  0  0  0
 26 27  1  0  0  0
 26 31  1  0  0  0
 26 45  1  0  0  0
 27 28  1  0  0  0
 27 46  1  0  0  0
 27 47  1  0  0  0
 28 29  1  0  0  0
 28 48  1  0  0  0
 28 49  1  0  0  0
 29 30  1  0  0  0
 29 50  1  0  0  0
 30 31  1  0  0  0
 30 51  1  0  0  0
 30 52  1  0  0  0
 31 53  1  0  0  0
 31 54  1  0  0  0
 32 55  1  0  0  0
 32 56  1  0  0  0
 32 57  1  0  0  0
 33 58  1  0  0  0
 33 59  1  0  0  0
 33 60  1  0  0  0
M  END
> <s_m_entry_id>
61040

> <s_m_entry_name>
dock_pv.317

> <s_m_Source_Path>
/home/csk/Desktop/cluster/DUD-E-result/mk14

> <s_m_Source_File>
dock_pv.maegz

> <i_m_Source_File_Index>
317

> <chembl_id>
CHEMBL4521096

> <chembl_pref_name>
None

> <i_lp_mmshare_version>
53161

> <i_f3d_flags>
0

> <r_lp_tautomer_probability>
0.999999987636

> <s_lp_Force_Field>
OPLS_2005

> <r_lp_Energy>
29.112922

> <b_lp_Chiralities_Consistent>
1

> <s_lp_Variant>
CHEMBL260_lig50 -1

> <s_i_glide_gridfile>
glide-grid_2qd9

> <i_i_glide_lignum>
57

> <i_i_glide_rotatable_bonds>
5

> <r_i_docking_score>
-7.18346765598873

> <r_i_glide_ligand_efficiency>
-0.217680838060265

> <r_i_glide_ligand_efficiency_sa>
-0.698218760246785

> <r_i_glide_ligand_efficiency_ln>
-1.59756601268695

> <r_i_glide_gscore>
-7.18346765598873

> <r_i_glide_lipo>
-3.79269527964716

> <r_i_glide_hbond>
-0.126508624669992

> <r_i_glide_metal>
0

> <r_i_glide_rewards>
-1.51965613195511

> <r_i_glide_evdw>
-44.1371841430664

> <r_i_glide_ecoul>
-0.12197107821703

> <r_i_glide_erotb>
0.510231779446051

> <r_i_glide_esite>
-0.0296845302766426

> <r_i_glide_emodel>
-51.3274437215235

> <r_i_glide_energy>
-44.2591552212834

> <r_i_glide_einternal>
9.29896831512451

> <i_i_glide_confnum>
220

> <i_i_glide_posenum>
130

> <r_i_glide_eff_state_penalty>
0

> <s_user_duplicate_titles>
CHEMBL260_lig50 

> <s_m_subgroup_title>
dock_pv

> <s_m_subgroupid>
dock_pv

> <b_m_subgroup_collapsed>
1

$$$$
CHEMBL260_lig1294
                    3D
 Schrodinger Suite 2021-1.
 45 48  0  0  1  0            999 V2000
    0.3060    0.6508   25.3789 C   0  0  0  0  0  0
   -0.9511    0.3751   24.8125 C   0  0  0  0  0  0
   -1.8982   -0.3432   25.5506 C   0  0  0  0  0  0
   -1.6259   -0.7824   26.8530 C   0  0  0  0  0  0
   -0.3559   -0.5241   27.3935 C   0  0  0  0  0  0
    0.5959    0.1854   26.6641 C   0  0  0  0  0  0
   -1.2910    0.8802   23.5484 N   0  0  0  0  0  0
   -2.0021    0.2978   22.4927 C   0  0  0  0  0  0
   -3.2643   -0.8690   20.2704 N   0  0  0  0  0  0
   -2.8341   -1.5506   21.3652 C   0  0  0  0  0  0
   -2.2247   -1.0445   22.4690 N   0  0  0  0  0  0
   -3.0634    0.4531   20.3556 C   0  0  0  0  0  0
   -2.4371    1.1099   21.4346 C   0  0  0  0  0  0
   -2.4352    2.4873   21.0674 C   0  0  0  0  0  0
   -2.9960    2.6663   19.8973 N   0  0  0  0  0  0
   -3.3632    1.4474   19.4353 N   0  0  0  0  0  0
    1.3695    1.4439   24.6260 C   0  0  0  0  0  0
   -2.6918   -1.5148   27.6348 C   0  0  0  0  0  0
   -3.6339   -2.0663   27.0597 O   0  0  0  0  0  0
   -2.5570   -1.5126   28.9716 N   0  0  0  0  0  0
   -3.4499   -2.2072   29.8891 C   0  0  0  0  0  0
   -3.9570    1.3354   18.1693 C   0  0  0  0  0  0
   -3.2356    1.6878   17.0200 C   0  0  0  0  0  0
   -3.8182    1.5715   15.7619 C   0  0  0  0  0  0
   -5.1282    1.1184   15.6435 C   0  0  0  0  0  0
   -5.8470    0.7859   16.7868 C   0  0  0  0  0  0
   -5.2734    0.8870   18.0510 C   0  0  0  0  0  0
   -5.9936    0.5315   19.1416 F   0  0  0  0  0  0
   -2.8698   -0.5288   25.1135 H   0  0  0  0  0  0
   -0.0846   -0.8660   28.3823 H   0  0  0  0  0  0
    1.5627    0.3777   27.1098 H   0  0  0  0  0  0
   -1.0076    1.8333   23.3899 H   0  0  0  0  0  0
   -2.9888   -2.6205   21.3466 H   0  0  0  0  0  0
   -2.0270    3.3146   21.6266 H   0  0  0  0  0  0
    2.2278    1.6886   25.2535 H   0  0  0  0  0  0
    1.7194    0.8816   23.7591 H   0  0  0  0  0  0
    0.9596    2.3873   24.2630 H   0  0  0  0  0  0
   -1.7553   -1.0543   29.3765 H   0  0  0  0  0  0
   -3.1928   -3.2676   29.9322 H   0  0  0  0  0  0
   -4.4945   -2.1179   29.5847 H   0  0  0  0  0  0
   -3.3493   -1.7910   30.8931 H   0  0  0  0  0  0
   -2.2181    2.0437   17.0755 H   0  0  0  0  0  0
   -3.2464    1.8235   14.8812 H   0  0  0  0  0  0
   -5.5836    1.0063   14.6729 H   0  0  0  0  0  0
   -6.8347    0.3819   16.6957 H   0  0  0  0  0  0
  1  2  2  0  0  0
  1 17  1  0  0  0
  1  6  1  0  0  0
  2  7  1  0  0  0
  2  3  1  0  0  0
  3  4  2  0  0  0
  3 29  1  0  0  0
  4 18  1  0  0  0
  4  5  1  0  0  0
  5  6  2  0  0  0
  5 30  1  0  0  0
  6 31  1  0  0  0
  7  8  1  0  0  0
  7 32  1  0  0  0
  8 13  2  0  0  0
  8 11  1  0  0  0
  9 12  2  0  0  0
  9 10  1  0  0  0
 10 11  2  0  0  0
 10 33  1  0  0  0
 12 16  1  0  0  0
 12 13  1  0  0  0
 13 14  1  0  0  0
 14 15  2  0  0  0
 14 34  1  0  0  0
 15 16  1  0  0  0
 16 22  1  0  0  0
 17 35  1  0  0  0
 17 36  1  0  0  0
 17 37  1  0  0  0
 18 19  2  0  0  0
 18 20  1  0  0  0
 20 21  1  0  0  0
 20 38  1  0  0  0
 21 39  1  0  0  0
 21 40  1  0  0  0
 21 41  1  0  0  0
 22 23  2  0  0  0
 22 27  1  0  0  0
 23 24  1  0  0  0
 23 42  1  0  0  0
 24 25  2  0  0  0
 24 43  1  0  0  0
 25 26  1  0  0  0
 25 44  1  0  0  0
 26 27  2  0  0  0
 26 45  1  0  0  0
 27 28  1  0  0  0
M  END
> <s_m_entry_id>
61041

> <s_m_entry_name>
dock_pv.318

> <s_m_Source_Path>
/home/csk/Desktop/cluster/DUD-E-result/mk14

> <s_m_Source_File>
dock_pv.maegz

> <i_m_Source_File_Index>
318

> <chembl_id>
CHEMBL409329

> <chembl_pref_name>
None

> <i_lp_mmshare_version>
53161

> <i_f3d_flags>
0

> <r_lp_tautomer_probability>
1

> <s_lp_Force_Field>
OPLS_2005

> <r_lp_Energy>
18.489943

> <b_lp_Chiralities_Consistent>
1

> <s_lp_Variant>
CHEMBL260_lig1294-1

> <s_i_glide_gridfile>
glide-grid_2qd9

> <i_i_glide_lignum>
1472

> <i_i_glide_rotatable_bonds>
5

> <r_i_docking_score>
-7.18304452041494

> <r_i_glide_ligand_efficiency>
-0.256537304300534

> <r_i_glide_ligand_efficiency_sa>
-0.778998348248451

> <r_i_glide_ligand_efficiency_ln>
-1.65805757866321

> <r_i_glide_gscore>
-7.18304452041494

> <r_i_glide_lipo>
-2.33080648218037

> <r_i_glide_hbond>
0

> <r_i_glide_metal>
0

> <r_i_glide_rewards>
-2.67308043575504

> <r_i_glide_evdw>
-43.1188125610352

> <r_i_glide_ecoul>
-3.7984607219696

> <r_i_glide_erotb>
0.546552133867661

> <r_i_glide_esite>
0

> <r_i_glide_emodel>
-65.9200587770797

> <r_i_glide_energy>
-46.9172732830048

> <r_i_glide_einternal>
2.79417300224304

> <i_i_glide_confnum>
7

> <i_i_glide_posenum>
302

> <r_i_glide_eff_state_penalty>
0

> <s_user_duplicate_titles>
CHEMBL260_lig1294,428494

> <s_m_subgroup_title>
dock_pv

> <s_m_subgroupid>
dock_pv

> <b_m_subgroup_collapsed>
1

$$$$
CHEMBL260_lig49 
                    3D
 Schrodinger Suite 2021-1.
 60 64  0  0  1  0            999 V2000
   -2.4339   -2.1550   23.3510 C   0  0  0  0  0  0
   -2.4997   -0.8230   23.1353 N   0  0  0  0  0  0
   -2.5157   -0.3799   21.8565 C   0  0  0  0  0  0
   -2.4677   -1.2794   20.7857 C   0  0  0  0  0  0
   -2.4014   -2.6395   21.0997 C   0  0  0  0  0  0
   -2.3993   -3.1006   22.3796 N   0  0  0  0  0  0
   -2.4349   -2.5881   24.6785 N   0  0  0  0  0  0
   -2.0240   -1.8866   25.8195 C   0  0  0  0  0  0
   -0.7739   -1.2645   25.8618 C   0  0  0  0  0  0
   -0.3475   -0.5963   27.0142 C   0  0  0  0  0  0
   -1.1837   -0.5576   28.1422 C   0  0  0  0  0  0
   -2.4345   -1.1804   28.0939 C   0  0  0  0  0  0
   -2.8529   -1.8415   26.9397 C   0  0  0  0  0  0
   -2.4729    1.1080   21.6646 C   0  0  0  0  0  0
   -2.0116    2.0398   22.5934 N   0  0  0  0  0  0
   -2.0315    3.2208   21.9089 C   0  0  0  0  0  0
   -2.4394    3.1294   20.6758 N   0  0  0  0  0  0
   -2.8554    1.8818   20.5512 C   0  0  0  0  0  0
   -3.6576    1.4898   19.3460 C   0  0  0  0  0  0
   -3.2860    1.8641   18.0485 C   0  0  0  0  0  0
   -4.0726    1.5299   16.9549 C   0  0  0  0  0  0
   -5.2823    0.8871   17.1629 C   0  0  0  0  0  0
   -5.6923    0.5350   18.4506 C   0  0  0  0  0  0
   -4.8588    0.7995   19.5342 C   0  0  0  0  0  0
   -6.0361    0.5665   16.0920 F   0  0  0  0  0  0
   -1.5241    1.8572   23.9801 C   0  0  0  0  0  0
   -0.4628    2.8674   24.4795 C   0  0  0  0  0  0
   -1.0411    4.1897   25.0411 C   0  0  0  0  0  0
   -2.1767    3.9736   25.9410 N   0  0  2  0  0  0
   -3.2356    3.1169   25.4059 C   0  0  0  0  0  0
   -2.6775    1.7443   24.9976 C   0  0  0  0  0  0
   -0.7529    0.1469   29.4206 C   0  0  0  0  0  0
    1.0211    0.0669   27.0226 C   0  0  0  0  0  0
   -2.4411   -0.9448   19.7595 H   0  0  0  0  0  0
   -2.3248   -3.3779   20.3166 H   0  0  0  0  0  0
   -2.7933   -3.5144   24.8340 H   0  0  0  0  0  0
   -0.1275   -1.3111   24.9972 H   0  0  0  0  0  0
   -3.0855   -1.1615   28.9556 H   0  0  0  0  0  0
   -3.8220   -2.3179   26.9242 H   0  0  0  0  0  0
   -1.5873    4.0857   22.3639 H   0  0  0  0  0  0
   -2.4351    2.4870   17.8607 H   0  0  0  0  0  0
   -3.7753    1.8151   15.9560 H   0  0  0  0  0  0
   -6.6377    0.0345   18.5959 H   0  0  0  0  0  0
   -5.1669    0.4948   20.5239 H   0  0  0  0  0  0
   -0.9831    0.9155   23.9169 H   0  0  0  0  0  0
    0.1562    2.3992   25.2458 H   0  0  0  0  0  0
    0.2725    3.0594   23.6967 H   0  0  0  0  0  0
   -0.2655    4.6932   25.6200 H   0  0  0  0  0  0
   -1.3259    4.8837   24.2534 H   0  0  0  0  0  0
   -2.5458    4.8461   26.2931 H   0  0  0  0  0  0
   -4.0119    2.9944   26.1600 H   0  0  0  0  0  0
   -3.6913    3.6097   24.5462 H   0  0  0  0  0  0
   -3.4789    1.1163   24.6083 H   0  0  0  0  0  0
   -2.3550    1.1925   25.8803 H   0  0  0  0  0  0
   -1.5158    0.0987   30.1989 H   0  0  0  0  0  0
    0.1600   -0.3043   29.8124 H   0  0  0  0  0  0
   -0.5396    1.1974   29.2198 H   0  0  0  0  0  0
    1.5649   -0.1175   26.0961 H   0  0  0  0  0  0
    1.6232   -0.3128   27.8484 H   0  0  0  0  0  0
    0.9268    1.1438   27.1624 H   0  0  0  0  0  0
  1  2  2  0  0  0
  1  6  1  0  0  0
  1  7  1  0  0  0
  2  3  1  0  0  0
  3  4  2  0  0  0
  3 14  1  0  0  0
  4  5  1  0  0  0
  4 34  1  0  0  0
  5  6  2  0  0  0
  5 35  1  0  0  0
  7  8  1  0  0  0
  7 36  1  0  0  0
  8  9  2  0  0  0
  8 13  1  0  0  0
  9 10  1  0  0  0
  9 37  1  0  0  0
 10 11  2  0  0  0
 10 33  1  0  0  0
 11 12  1  0  0  0
 11 32  1  0  0  0
 12 13  2  0  0  0
 12 38  1  0  0  0
 13 39  1  0  0  0
 14 15  1  0  0  0
 14 18  2  0  0  0
 15 16  1  0  0  0
 15 26  1  0  0  0
 16 17  2  0  0  0
 16 40  1  0  0  0
 17 18  1  0  0  0
 18 19  1  0  0  0
 19 20  2  0  0  0
 19 24  1  0  0  0
 20 21  1  0  0  0
 20 41  1  0  0  0
 21 22  2  0  0  0
 21 42  1  0  0  0
 22 23  1  0  0  0
 22 25  1  0  0  0
 23 24  2  0  0  0
 23 43  1  0  0  0
 24 44  1  0  0  0
 26 27  1  0  0  0
 26 31  1  0  0  0
 26 45  1  0  0  0
 27 28  1  0  0  0
 27 46  1  0  0  0
 27 47  1  0  0  0
 28 29  1  0  0  0
 28 48  1  0  0  0
 28 49  1  0  0  0
 29 30  1  0  0  0
 29 50  1  0  0  0
 30 31  1  0  0  0
 30 51  1  0  0  0
 30 52  1  0  0  0
 31 53  1  0  0  0
 31 54  1  0  0  0
 32 55  1  0  0  0
 32 56  1  0  0  0
 32 57  1  0  0  0
 33 58  1  0  0  0
 33 59  1  0  0  0
 33 60  1  0  0  0
M  END
> <s_m_entry_id>
61042

> <s_m_entry_name>
dock_pv.319

> <s_m_Source_Path>
/home/csk/Desktop/cluster/DUD-E-result/mk14

> <s_m_Source_File>
dock_pv.maegz

> <i_m_Source_File_Index>
319

> <chembl_id>
CHEMBL4452281

> <chembl_pref_name>
None

> <i_lp_mmshare_version>
53161

> <i_f3d_flags>
0

> <r_lp_tautomer_probability>
0.999999987636

> <s_lp_Force_Field>
OPLS_2005

> <r_lp_Energy>
30.168721

> <b_lp_Chiralities_Consistent>
1

> <s_lp_Variant>
CHEMBL260_lig49 -1

> <s_i_glide_gridfile>
glide-grid_2qd9

> <i_i_glide_lignum>
56

> <i_i_glide_rotatable_bonds>
5

> <r_i_docking_score>
-7.16013863877668

> <r_i_glide_ligand_efficiency>
-0.216973898144748

> <r_i_glide_ligand_efficiency_sa>
-0.695951226201164

> <r_i_glide_ligand_efficiency_ln>
-1.59237776005018

> <r_i_glide_gscore>
-7.16013863877668

> <r_i_glide_lipo>
-3.1305165840896

> <r_i_glide_hbond>
-0.301457978790734

> <r_i_glide_metal>
0

> <r_i_glide_rewards>
-2.10671827551871

> <r_i_glide_evdw>
-35.9262962341309

> <r_i_glide_ecoul>
-1.99568319320679

> <r_i_glide_erotb>
0.510231779446051

> <r_i_glide_esite>
-0.0360102891361272

> <r_i_glide_emodel>
-53.5264268706776

> <r_i_glide_energy>
-37.9219794273376

> <r_i_glide_einternal>
5.90035581588745

> <i_i_glide_confnum>
262

> <i_i_glide_posenum>
98

> <r_i_glide_eff_state_penalty>
0

> <s_user_duplicate_titles>
CHEMBL260_lig49 

> <s_m_subgroup_title>
dock_pv

> <s_m_subgroupid>
dock_pv

> <b_m_subgroup_collapsed>
1

$$$$
CHEMBL260_lig263
                    3D
 Schrodinger Suite 2021-1.
 41 43  0  0  1  0            999 V2000
   -1.6508   -1.7247   23.9522 C   0  0  0  0  0  0
   -2.0512   -0.7903   22.8418 C   0  0  0  0  0  0
   -2.1878   -1.2086   21.5006 C   0  0  0  0  0  0
   -0.9567   -1.1708   25.1646 C   0  0  0  0  0  0
   -3.8648    1.6779   18.6545 C   0  0  0  0  0  0
   -3.2350    1.9788   19.8745 N   0  0  0  0  0  0
   -5.1212    1.0501   18.6109 C   0  0  0  0  0  0
   -2.6106   -0.3001   20.5278 C   0  0  0  0  0  0
   -2.3007    0.5585   23.1474 C   0  0  0  0  0  0
   -5.7213    0.7705   17.3939 C   0  0  0  0  0  0
   -2.8440    1.0420   20.8453 C   0  0  0  0  0  0
   -2.0350   -2.8980   23.9517 O   0  0  0  0  0  0
    0.1836   -0.3350   25.1069 C   0  0  0  0  0  0
   -3.2350    2.0012   17.4459 C   0  0  0  0  0  0
   -5.0020    0.9405   16.2251 C   0  0  0  0  0  0
   -1.8339   -2.8222   20.9728 Cl  0  0  0  0  0  0
   -2.6578    1.4676   22.1559 C   0  0  0  0  0  0
   -5.8113    0.6821   19.7570 N   0  0  0  0  0  0
   -3.7787    1.5987   16.2293 C   0  0  0  0  0  0
   -5.6350    0.0870   14.6760 Br  0  0  0  0  0  0
   -1.4794   -1.5130   26.4217 C   0  0  0  0  0  0
    0.9052    0.0091   23.8070 C   0  0  0  0  0  0
    0.7181    0.1779   26.2938 C   0  0  0  0  0  0
   -0.9150   -1.0183   27.5950 C   0  0  0  0  0  0
    0.1798   -0.1636   27.5310 C   0  0  0  0  0  0
   -2.6441    2.7963   19.8628 H   0  0  0  0  0  0
   -2.7244   -0.6400   19.5088 H   0  0  0  0  0  0
   -2.2083    0.9284   24.1594 H   0  0  0  0  0  0
   -6.6754    0.2620   17.3604 H   0  0  0  0  0  0
   -2.3000    2.5337   17.4335 H   0  0  0  0  0  0
   -2.8246    2.4998   22.4230 H   0  0  0  0  0  0
   -6.6597    0.1399   19.6726 H   0  0  0  0  0  0
   -5.3607    0.8227   20.6499 H   0  0  0  0  0  0
   -3.2399    1.7607   15.3064 H   0  0  0  0  0  0
   -2.3380   -2.1654   26.5047 H   0  0  0  0  0  0
    0.5098    0.9273   23.3735 H   0  0  0  0  0  0
    1.9733    0.1483   23.9817 H   0  0  0  0  0  0
    0.8280   -0.7950   23.0760 H   0  0  0  0  0  0
    1.5650    0.8452   26.2649 H   0  0  0  0  0  0
   -1.3261   -1.2991   28.5541 H   0  0  0  0  0  0
    0.6210    0.2253   28.4377 H   0  0  0  0  0  0
  1  2  1  0  0  0
  1  4  1  0  0  0
  1 12  2  0  0  0
  2  3  1  0  0  0
  2  9  2  0  0  0
  3  8  2  0  0  0
  3 16  1  0  0  0
  4 13  2  0  0  0
  4 21  1  0  0  0
  5  6  1  0  0  0
  5  7  2  0  0  0
  5 14  1  0  0  0
  6 11  1  0  0  0
  6 26  1  0  0  0
  7 10  1  0  0  0
  7 18  1  0  0  0
  8 11  1  0  0  0
  8 27  1  0  0  0
  9 17  1  0  0  0
  9 28  1  0  0  0
 10 15  2  0  0  0
 10 29  1  0  0  0
 11 17  2  0  0  0
 13 22  1  0  0  0
 13 23  1  0  0  0
 14 19  2  0  0  0
 14 30  1  0  0  0
 15 19  1  0  0  0
 15 20  1  0  0  0
 17 31  1  0  0  0
 18 32  1  0  0  0
 18 33  1  0  0  0
 19 34  1  0  0  0
 21 24  2  0  0  0
 21 35  1  0  0  0
 22 36  1  0  0  0
 22 37  1  0  0  0
 22 38  1  0  0  0
 23 25  2  0  0  0
 23 39  1  0  0  0
 24 25  1  0  0  0
 24 40  1  0  0  0
 25 41  1  0  0  0
M  END
> <s_m_entry_id>
61043

> <s_m_entry_name>
dock_pv.320

> <s_m_Source_Path>
/home/csk/Desktop/cluster/DUD-E-result/mk14

> <s_m_Source_File>
dock_pv.maegz

> <i_m_Source_File_Index>
320

> <chembl_id>
CHEMBL347496

> <chembl_pref_name>
None

> <i_lp_mmshare_version>
53161

> <i_f3d_flags>
0

> <r_lp_tautomer_probability>
1

> <s_lp_Force_Field>
OPLS_2005

> <r_lp_Energy>
30.962274

> <b_lp_Chiralities_Consistent>
1

> <s_lp_Variant>
CHEMBL260_lig263-1

> <s_i_glide_gridfile>
glide-grid_2qd9

> <i_i_glide_lignum>
314

> <i_i_glide_rotatable_bonds>
4

> <r_i_docking_score>
-7.14771468640627

> <r_i_glide_ligand_efficiency>
-0.285908587456251

> <r_i_glide_ligand_efficiency_sa>
-0.836001780332466

> <r_i_glide_ligand_efficiency_ln>
-1.69422258040258

> <r_i_glide_gscore>
-7.14771468640627

> <r_i_glide_lipo>
-3.89062062243918

> <r_i_glide_hbond>
-0.32

> <r_i_glide_metal>
0

> <r_i_glide_rewards>
-0.94822898357094

> <r_i_glide_evdw>
-37.505744934082

> <r_i_glide_ecoul>
-3.80464386940002

> <r_i_glide_erotb>
0.457118746717957

> <r_i_glide_esite>
0

> <r_i_glide_emodel>
-44.9520827002497

> <r_i_glide_energy>
-41.3103888034821

> <r_i_glide_einternal>
15.0177536010742

> <i_i_glide_confnum>
3

> <i_i_glide_posenum>
196

> <r_i_glide_eff_state_penalty>
0

> <s_user_duplicate_titles>
CHEMBL260_lig263

> <s_m_subgroup_title>
dock_pv

> <s_m_subgroupid>
dock_pv

> <b_m_subgroup_collapsed>
1

$$$$
CHEMBL260_lig725
                    3D
 Schrodinger Suite 2021-1.
 53 56  0  0  1  0            999 V2000
    1.1492    4.6504   24.3159 C   0  0  0  0  0  0
    1.3781    4.6820   22.7902 C   0  0  0  0  0  0
    1.2462    6.1482   22.3334 C   0  0  0  0  0  0
    0.7085    6.9318   23.5380 C   0  0  0  0  0  0
    0.2232    5.8626   24.5243 C   0  0  0  0  0  0
   -0.0354   -0.9386   26.5680 C   0  0  0  0  0  0
    0.7061    0.2210   26.3360 C   0  0  0  0  0  0
    0.6983    0.8071   25.0690 C   0  0  0  0  0  0
   -0.0520    0.2274   24.0461 C   0  0  0  0  0  0
   -0.8329   -0.9140   24.2747 C   0  0  0  0  0  0
   -0.7891   -1.5104   25.5411 C   0  0  0  0  0  0
   -1.6672   -1.5098   23.1843 C   0  0  0  0  0  0
   -2.3303   -0.6017   22.2306 C   0  0  0  0  0  0
   -1.9064   -2.7232   23.1464 O   0  0  0  0  0  0
   -2.6228    0.7682   22.3792 C   0  0  0  0  0  0
   -3.2334    1.2863   21.3396 N   0  0  0  0  0  0
   -3.3879    0.2646   20.4870 N   0  0  0  0  0  0
   -2.8329   -0.9070   20.9732 C   0  0  0  0  0  0
   -2.8341   -2.0819   20.2766 N   0  0  0  0  0  0
   -4.0123    0.5204   19.2509 C   0  0  0  0  0  0
   -5.4022    0.6355   19.1761 C   0  0  0  0  0  0
   -6.0028    0.8870   17.9431 C   0  0  0  0  0  0
   -5.2178    1.0540   16.8041 C   0  0  0  0  0  0
   -3.8338    0.9510   16.8804 C   0  0  0  0  0  0
   -3.2350    0.6656   18.1031 C   0  0  0  0  0  0
   -5.7939    1.2853   15.6077 F   0  0  0  0  0  0
    1.4677    2.0893   24.7908 C   0  0  0  0  0  0
    0.5577    3.3385   24.8854 C   0  0  0  0  0  0
    2.3633    4.8882   25.0032 O   0  0  0  0  0  0
    2.3503    4.2716   22.5098 H   0  0  0  0  0  0
    0.6292    4.0715   22.2850 H   0  0  0  0  0  0
    2.2075    6.5470   22.0083 H   0  0  0  0  0  0
    0.5698    6.2261   21.4797 H   0  0  0  0  0  0
    1.5147    7.5124   23.9928 H   0  0  0  0  0  0
   -0.0791    7.6311   23.2619 H   0  0  0  0  0  0
   -0.8113    5.5896   24.3167 H   0  0  0  0  0  0
    0.2407    6.2254   25.5550 H   0  0  0  0  0  0
   -0.0267   -1.3963   27.5469 H   0  0  0  0  0  0
    1.2820    0.6594   27.1403 H   0  0  0  0  0  0
   -0.0258    0.6888   23.0714 H   0  0  0  0  0  0
   -1.3545   -2.4086   25.7504 H   0  0  0  0  0  0
   -2.3980    1.3755   23.2445 H   0  0  0  0  0  0
   -2.4621   -2.9346   20.6814 H   0  0  0  0  0  0
   -3.2390   -2.1665   19.3563 H   0  0  0  0  0  0
   -6.0197    0.5042   20.0522 H   0  0  0  0  0  0
   -7.0780    0.9395   17.8760 H   0  0  0  0  0  0
   -3.2353    1.0458   15.9844 H   0  0  0  0  0  0
   -2.1792    0.4863   18.1263 H   0  0  0  0  0  0
    2.3134    2.1687   25.4764 H   0  0  0  0  0  0
    1.9079    2.0113   23.7955 H   0  0  0  0  0  0
   -0.3783    3.1393   24.3618 H   0  0  0  0  0  0
    0.2802    3.4877   25.9286 H   0  0  0  0  0  0
    3.0050    4.2370   24.6883 H   0  0  0  0  0  0
  1  5  1  0  0  0
  1  2  1  0  0  0
  1 28  1  0  0  0
  1 29  1  0  0  0
  2  3  1  0  0  0
  2 30  1  0  0  0
  2 31  1  0  0  0
  3  4  1  0  0  0
  3 32  1  0  0  0
  3 33  1  0  0  0
  4  5  1  0  0  0
  4 34  1  0  0  0
  4 35  1  0  0  0
  5 36  1  0  0  0
  5 37  1  0  0  0
  6 11  2  0  0  0
  6  7  1  0  0  0
  6 38  1  0  0  0
  7  8  2  0  0  0
  7 39  1  0  0  0
  8  9  1  0  0  0
  8 27  1  0  0  0
  9 10  2  0  0  0
  9 40  1  0  0  0
 10 11  1  0  0  0
 10 12  1  0  0  0
 11 41  1  0  0  0
 12 13  1  0  0  0
 12 14  2  0  0  0
 13 15  1  0  0  0
 13 18  2  0  0  0
 15 16  2  0  0  0
 15 42  1  0  0  0
 16 17  1  0  0  0
 17 18  1  0  0  0
 17 20  1  0  0  0
 18 19  1  0  0  0
 19 43  1  0  0  0
 19 44  1  0  0  0
 20 21  2  0  0  0
 20 25  1  0  0  0
 21 22  1  0  0  0
 21 45  1  0  0  0
 22 23  2  0  0  0
 22 46  1  0  0  0
 23 24  1  0  0  0
 23 26  1  0  0  0
 24 25  2  0  0  0
 24 47  1  0  0  0
 25 48  1  0  0  0
 27 28  1  0  0  0
 27 49  1  0  0  0
 27 50  1  0  0  0
 28 51  1  0  0  0
 28 52  1  0  0  0
 29 53  1  0  0  0
M  END
> <s_m_entry_id>
61044

> <s_m_entry_name>
dock_pv.321

> <s_m_Source_Path>
/home/csk/Desktop/cluster/DUD-E-result/mk14

> <s_m_Source_File>
dock_pv.maegz

> <i_m_Source_File_Index>
321

> <chembl_id>
CHEMBL203908

> <chembl_pref_name>
None

> <i_lp_mmshare_version>
53161

> <i_f3d_flags>
0

> <r_lp_tautomer_probability>
1

> <s_lp_Force_Field>
OPLS_2005

> <r_lp_Energy>
44.819688

> <b_lp_Chiralities_Consistent>
1

> <s_lp_Variant>
CHEMBL260_lig725-1

> <s_i_glide_gridfile>
glide-grid_2qd9

> <i_i_glide_lignum>
816

> <i_i_glide_rotatable_bonds>
7

> <r_i_docking_score>
-7.14644734600437

> <r_i_glide_ligand_efficiency>
-0.246429218827737

> <r_i_glide_ligand_efficiency_sa>
-0.757108634495272

> <r_i_glide_ligand_efficiency_ln>
-1.63635522396625

> <r_i_glide_gscore>
-7.14644734600437

> <r_i_glide_lipo>
-2.80976837991221

> <r_i_glide_hbond>
-0.32

> <r_i_glide_metal>
0

> <r_i_glide_rewards>
-1.83407042430568

> <r_i_glide_evdw>
-36.489501953125

> <r_i_glide_ecoul>
-7.43516302108765

> <r_i_glide_erotb>
0.757141009032917

> <r_i_glide_esite>
0

> <r_i_glide_emodel>
-57.2110157933314

> <r_i_glide_energy>
-43.9246649742126

> <r_i_glide_einternal>
11.0742216110229

> <i_i_glide_confnum>
52

> <i_i_glide_posenum>
179

> <r_i_glide_eff_state_penalty>
0

> <s_user_duplicate_titles>
CHEMBL260_lig725,340396

> <s_m_subgroup_title>
dock_pv

> <s_m_subgroupid>
dock_pv

> <b_m_subgroup_collapsed>
1

$$$$
CHEMBL260_lig175
                    3D
 Schrodinger Suite 2021-1.
 56 60  0  0  1  0            999 V2000
   -2.4931    1.1350   21.7419 C   0  0  0  0  0  0
   -2.0207    2.1015   22.6319 N   0  0  0  0  0  0
   -2.4377    3.1173   20.6726 N   0  0  0  0  0  0
   -2.8596    1.8703   20.5929 C   0  0  0  0  0  0
   -1.9936    3.2411   21.8893 C   0  0  0  0  0  0
   -2.5497   -0.3424   22.0120 C   0  0  0  0  0  0
   -2.4987   -0.6988   23.3151 N   0  0  0  0  0  0
   -2.4351   -2.0070   23.6316 C   0  0  0  0  0  0
   -1.5461    1.9882   24.0318 C   0  0  0  0  0  0
   -2.2284    4.1125   25.9688 N   0  0  1  0  0  0
   -3.6600    1.4645   19.3908 C   0  0  0  0  0  0
   -2.4334   -3.0218   22.7302 N   0  0  0  0  0  0
   -2.4346   -2.3135   24.9961 N   0  0  0  0  0  0
   -0.5125    3.0398   24.5112 C   0  0  0  0  0  0
   -2.7089    1.8749   25.0453 C   0  0  0  0  0  0
   -0.6292   -0.2708   28.2024 N   0  0  0  0  0  0
   -2.5394   -1.3176   21.0077 C   0  0  0  0  0  0
   -3.2868    3.2435   25.4431 C   0  0  0  0  0  0
   -1.1390    4.3628   25.0169 C   0  0  0  0  0  0
   -3.2956    1.8228   18.0847 C   0  0  0  0  0  0
   -4.8751    0.8065   19.5967 C   0  0  0  0  0  0
   -1.8346   -1.6045   26.0480 C   0  0  0  0  0  0
   -2.4713   -2.6546   21.4191 C   0  0  0  0  0  0
   -5.3229    0.8874   17.2296 C   0  0  0  0  0  0
   -4.0994    1.4955   17.0026 C   0  0  0  0  0  0
   -5.7252    0.5510   18.5235 C   0  0  0  0  0  0
   -6.0968    0.5845   16.1690 F   0  0  0  0  0  0
   -2.4370   -1.6050   27.3086 C   0  0  0  0  0  0
   -0.6143   -0.9370   25.8797 C   0  0  0  0  0  0
   -2.7656    5.3422   26.5419 C   0  0  0  0  0  0
   -0.0468   -0.2858   26.9769 C   0  0  0  0  0  0
   -1.8073   -0.9272   28.3543 C   0  0  0  0  0  0
   -1.4825    4.0879   22.2979 H   0  0  0  0  0  0
   -0.9758    1.0643   24.0000 H   0  0  0  0  0  0
   -2.8409   -3.1994   25.2460 H   0  0  0  0  0  0
    0.1049    2.6140   25.3047 H   0  0  0  0  0  0
    0.2294    3.2244   23.7319 H   0  0  0  0  0  0
   -3.5102    1.2504   24.6509 H   0  0  0  0  0  0
   -2.3932    1.3309   25.9361 H   0  0  0  0  0  0
   -2.5439   -1.0553   19.9601 H   0  0  0  0  0  0
   -4.0309    3.0811   26.2227 H   0  0  0  0  0  0
   -3.8053    3.7279   24.6149 H   0  0  0  0  0  0
   -0.3666    4.9394   25.5298 H   0  0  0  0  0  0
   -1.4940    4.9948   24.2047 H   0  0  0  0  0  0
   -2.4388    2.4368   17.8756 H   0  0  0  0  0  0
   -5.1855    0.5392   20.5956 H   0  0  0  0  0  0
   -2.4347   -3.4532   20.6925 H   0  0  0  0  0  0
   -3.8088    1.7680   15.9983 H   0  0  0  0  0  0
   -6.6844    0.0822   18.6834 H   0  0  0  0  0  0
   -3.3705   -2.1208   27.4797 H   0  0  0  0  0  0
   -0.1046   -0.9420   24.9274 H   0  0  0  0  0  0
   -3.4944    5.1153   27.3224 H   0  0  0  0  0  0
   -1.9711    5.9312   27.0032 H   0  0  0  0  0  0
   -3.2567    5.9588   25.7890 H   0  0  0  0  0  0
    0.8990    0.2309   26.8886 H   0  0  0  0  0  0
   -2.2408   -0.9125   29.3441 H   0  0  0  0  0  0
  1  2  1  0  0  0
  1  4  2  0  0  0
  1  6  1  0  0  0
  2  5  1  0  0  0
  2  9  1  0  0  0
  3  4  1  0  0  0
  3  5  2  0  0  0
  4 11  1  0  0  0
  5 33  1  0  0  0
  6  7  2  0  0  0
  6 17  1  0  0  0
  7  8  1  0  0  0
  8 13  1  0  0  0
  8 12  2  0  0  0
  9 14  1  0  0  0
  9 15  1  0  0  0
  9 34  1  0  0  0
 10 18  1  0  0  0
 10 30  1  0  0  0
 10 19  1  0  0  0
 11 20  2  0  0  0
 11 21  1  0  0  0
 12 23  1  0  0  0
 13 22  1  0  0  0
 13 35  1  0  0  0
 14 19  1  0  0  0
 14 36  1  0  0  0
 14 37  1  0  0  0
 15 18  1  0  0  0
 15 38  1  0  0  0
 15 39  1  0  0  0
 16 31  1  0  0  0
 16 32  2  0  0  0
 17 23  2  0  0  0
 17 40  1  0  0  0
 18 41  1  0  0  0
 18 42  1  0  0  0
 19 43  1  0  0  0
 19 44  1  0  0  0
 20 25  1  0  0  0
 20 45  1  0  0  0
 21 26  2  0  0  0
 21 46  1  0  0  0
 22 28  2  0  0  0
 22 29  1  0  0  0
 23 47  1  0  0  0
 24 26  1  0  0  0
 24 27  1  0  0  0
 24 25  2  0  0  0
 25 48  1  0  0  0
 26 49  1  0  0  0
 28 32  1  0  0  0
 28 50  1  0  0  0
 29 31  2  0  0  0
 29 51  1  0  0  0
 30 52  1  0  0  0
 30 53  1  0  0  0
 30 54  1  0  0  0
 31 55  1  0  0  0
 32 56  1  0  0  0
M  END
> <s_m_entry_id>
61045

> <s_m_entry_name>
dock_pv.322

> <s_m_Source_Path>
/home/csk/Desktop/cluster/DUD-E-result/mk14

> <s_m_Source_File>
dock_pv.maegz

> <i_m_Source_File_Index>
322

> <chembl_id>
CHEMBL329469

> <chembl_pref_name>
None

> <i_lp_mmshare_version>
53161

> <i_f3d_flags>
0

> <r_lp_tautomer_probability>
0.999999093636822

> <s_lp_Force_Field>
OPLS_2005

> <r_lp_Energy>
25.267534

> <b_lp_Chiralities_Consistent>
1

> <s_lp_Variant>
CHEMBL260_lig175-1

> <s_i_glide_gridfile>
glide-grid_2qd9

> <i_i_glide_lignum>
192

> <i_i_glide_rotatable_bonds>
5

> <r_i_docking_score>
-7.14074644257171

> <r_i_glide_ligand_efficiency>
-0.223148326330366

> <r_i_glide_ligand_efficiency_sa>
-0.708451775105096

> <r_i_glide_ligand_efficiency_ln>
-1.59900777788828

> <r_i_glide_gscore>
-7.14074644257171

> <r_i_glide_lipo>
-3.15002285584517

> <r_i_glide_hbond>
-0.256251881680392

> <r_i_glide_metal>
0

> <r_i_glide_rewards>
-2.14176622040027

> <r_i_glide_evdw>
-35.4510345458984

> <r_i_glide_ecoul>
-2.1542649269104

> <r_i_glide_erotb>
0.53866702780771

> <r_i_glide_esite>
-0.0356810461221084

> <r_i_glide_emodel>
-45.7593051050998

> <r_i_glide_energy>
-37.6052994728088

> <r_i_glide_einternal>
7.7988805770874

> <i_i_glide_confnum>
110

> <i_i_glide_posenum>
256

> <r_i_glide_eff_state_penalty>
0

> <s_user_duplicate_titles>
CHEMBL260_lig175,157997

> <s_m_subgroup_title>
dock_pv

> <s_m_subgroupid>
dock_pv

> <b_m_subgroup_collapsed>
1

$$$$
CHEMBL260_lig1818
                    3D
 Schrodinger Suite 2021-1.
 38 40  0  0  1  0            999 V2000
   -1.7351   -0.7482   23.7765 C   0  0  0  0  0  0
   -2.8368    0.4192   20.4578 C   0  0  0  0  0  0
   -2.5178   -0.8403   19.7900 C   0  0  0  0  0  0
   -2.2894   -1.9770   20.4758 C   0  0  0  0  0  0
   -2.7508    0.4359   21.8084 C   0  0  0  0  0  0
   -2.3855   -0.6801   22.5545 N   0  0  0  0  0  0
   -2.4010   -2.0402   22.0012 C   0  0  2  0  0  0
   -1.2352   -2.5269   22.6993 N   0  0  1  0  0  0
   -1.1243   -1.8521   23.9106 N   0  0  0  0  0  0
   -1.7959    0.4170   24.7795 C   0  0  0  0  0  0
   -0.8017    0.2363   25.9511 C   0  0  0  0  0  0
   -3.2337    0.6143   25.3064 C   0  0  0  0  0  0
   -5.1138    0.8603   15.8475 C   0  0  0  0  0  0
   -3.8268    1.3806   15.8915 C   0  0  0  0  0  0
   -3.2351    1.6664   17.1170 C   0  0  0  0  0  0
   -3.9201    1.3874   18.3154 C   0  0  0  0  0  0
   -5.2305    0.8901   18.2533 C   0  0  0  0  0  0
   -5.8365    0.6682   17.0198 C   0  0  0  0  0  0
   -5.6351    0.4859   14.6668 F   0  0  0  0  0  0
   -5.9237    0.6355   19.3874 F   0  0  0  0  0  0
   -3.2886    1.6590   19.6820 C   0  0  0  0  0  0
   -2.4344   -0.8642   18.7139 H   0  0  0  0  0  0
   -2.0747   -2.8821   19.9248 H   0  0  0  0  0  0
   -2.9453    1.3412   22.3638 H   0  0  0  0  0  0
   -3.2917   -2.5862   22.3164 H   0  0  0  0  0  0
   -1.1589   -3.5145   22.8737 H   0  0  0  0  0  0
   -1.5019    1.3286   24.2570 H   0  0  0  0  0  0
    0.2278    0.1589   25.5963 H   0  0  0  0  0  0
   -1.0173   -0.6608   26.5346 H   0  0  0  0  0  0
   -0.8400    1.0841   26.6364 H   0  0  0  0  0  0
   -3.9413    0.8345   24.5049 H   0  0  0  0  0  0
   -3.5962   -0.2738   25.8288 H   0  0  0  0  0  0
   -3.2818    1.4461   26.0099 H   0  0  0  0  0  0
   -3.2793    1.5434   14.9745 H   0  0  0  0  0  0
   -2.2354    2.0714   17.0773 H   0  0  0  0  0  0
   -6.8347    0.2595   16.9836 H   0  0  0  0  0  0
   -4.0348    2.1868   20.2762 H   0  0  0  0  0  0
   -2.4656    2.3688   19.6025 H   0  0  0  0  0  0
  1  6  1  0  0  0
  1  9  2  0  0  0
  1 10  1  0  0  0
  2  3  1  0  0  0
  2  5  2  0  0  0
  2 21  1  0  0  0
  3  4  2  0  0  0
  3 22  1  0  0  0
  4  7  1  0  0  0
  4 23  1  0  0  0
  5  6  1  0  0  0
  5 24  1  0  0  0
  6  7  1  0  0  0
  7  8  1  0  0  0
  7 25  1  0  0  0
  8  9  1  0  0  0
  8 26  1  0  0  0
 10 11  1  0  0  0
 10 12  1  0  0  0
 10 27  1  0  0  0
 11 28  1  0  0  0
 11 29  1  0  0  0
 11 30  1  0  0  0
 12 31  1  0  0  0
 12 32  1  0  0  0
 12 33  1  0  0  0
 13 14  2  0  0  0
 13 18  1  0  0  0
 13 19  1  0  0  0
 14 15  1  0  0  0
 14 34  1  0  0  0
 15 16  2  0  0  0
 15 35  1  0  0  0
 16 17  1  0  0  0
 16 21  1  0  0  0
 17 18  2  0  0  0
 17 20  1  0  0  0
 18 36  1  0  0  0
 21 37  1  0  0  0
 21 38  1  0  0  0
M  END
> <s_m_entry_id>
61046

> <s_m_entry_name>
dock_pv.323

> <s_m_Source_Path>
/home/csk/Desktop/cluster/DUD-E-result/mk14

> <s_m_Source_File>
dock_pv.maegz

> <i_m_Source_File_Index>
323

> <chembl_id>
CHEMBL607557

> <chembl_pref_name>
None

> <i_lp_mmshare_version>
53161

> <i_f3d_flags>
0

> <r_lp_tautomer_probability>
1

> <s_lp_Force_Field>
OPLS_2005

> <r_lp_Energy>
25.963519

> <b_lp_Chiralities_Consistent>
1

> <s_lp_Variant>
CHEMBL260_lig1818-2

> <s_i_glide_gridfile>
glide-grid_2qd9

> <i_i_glide_lignum>
2118

> <i_i_glide_rotatable_bonds>
3

> <r_i_docking_score>
-7.1399425956956

> <r_i_glide_ligand_efficiency>
-0.339997266461695

> <r_i_glide_ligand_efficiency_sa>
-0.938026677392717

> <r_i_glide_ligand_efficiency_ln>
-1.76533637917324

> <r_i_glide_gscore>
-7.1399425956956

> <r_i_glide_lipo>
-2.98895299375166

> <r_i_glide_hbond>
0

> <r_i_glide_metal>
0

> <r_i_glide_rewards>
-3.09895177398126

> <r_i_glide_evdw>
-33.121955871582

> <r_i_glide_ecoul>
1.12697577476501

> <r_i_glide_erotb>
0.435013599401668

> <r_i_glide_esite>
0

> <r_i_glide_emodel>
-44.8750575535801

> <r_i_glide_energy>
-31.994980096817

> <r_i_glide_einternal>
0.386747717857361

> <i_i_glide_confnum>
2

> <i_i_glide_posenum>
57

> <r_i_glide_eff_state_penalty>
0

> <s_user_duplicate_titles>
CHEMBL260_lig1818

> <s_m_subgroup_title>
dock_pv

> <s_m_subgroupid>
dock_pv

> <b_m_subgroup_collapsed>
1

$$$$
CHEMBL260_lig688
                    3D
 Schrodinger Suite 2021-1.
 44 46  0  0  1  0            999 V2000
   -5.8567    0.4870   16.2533 C   0  0  0  0  0  0
   -4.8792    0.4938   15.2676 C   0  0  0  0  0  0
   -3.5942    0.9340   15.5575 C   0  0  0  0  0  0
   -3.2784    1.3290   16.8535 C   0  0  0  0  0  0
   -4.2522    1.2871   17.8532 C   0  0  0  0  0  0
   -5.5525    0.8873   17.5500 C   0  0  0  0  0  0
   -3.9474    1.7097   19.1251 O   0  0  0  0  0  0
   -3.3789    0.8466   20.0404 C   0  0  0  0  0  0
   -3.4045   -0.5461   19.9168 C   0  0  0  0  0  0
   -2.8333   -1.3604   20.8897 C   0  0  0  0  0  0
   -2.2214   -0.7921   22.0123 C   0  0  0  0  0  0
   -2.2076    0.6080   22.1394 C   0  0  0  0  0  0
   -2.7792    1.4134   21.1599 C   0  0  0  0  0  0
   -1.6053   -1.6862   23.0655 C   0  0  0  0  0  0
   -1.9126   -2.8788   23.1635 O   0  0  0  0  0  0
   -0.7052   -1.0896   23.8650 N   0  0  0  0  0  0
   -0.0349   -1.6900   25.0094 C   0  0  0  0  0  0
   -0.5384   -1.1342   26.3315 C   0  0  0  0  0  0
    0.2829   -0.3132   27.1107 C   0  0  0  0  0  0
   -0.1317    0.1387   28.3638 C   0  0  0  0  0  0
   -1.4023   -0.2367   28.8319 C   0  0  0  0  0  0
   -2.2265   -1.0570   28.0614 C   0  0  0  0  0  0
   -1.7946   -1.5086   26.8160 C   0  0  0  0  0  0
    0.7649    0.9311   29.0532 O   0  0  0  0  0  0
    0.5242    1.2789   30.4138 C   0  0  0  0  0  0
    1.5962    1.9320   30.8594 F   0  0  0  0  0  0
   -0.5255    2.0948   30.5280 F   0  0  0  0  0  0
    0.3644    0.2004   31.1825 F   0  0  0  0  0  0
   -6.8350    0.1184   16.0117 H   0  0  0  0  0  0
   -5.1228    0.1510   14.2746 H   0  0  0  0  0  0
   -2.8361    0.9525   14.7883 H   0  0  0  0  0  0
   -2.2814    1.6705   17.0759 H   0  0  0  0  0  0
   -6.3124    0.8650   18.3177 H   0  0  0  0  0  0
   -3.8847   -1.0081   19.0763 H   0  0  0  0  0  0
   -2.8740   -2.4342   20.7609 H   0  0  0  0  0  0
   -1.7644    1.0943   22.9964 H   0  0  0  0  0  0
   -2.7579    2.4867   21.2694 H   0  0  0  0  0  0
   -0.4665   -0.1296   23.6716 H   0  0  0  0  0  0
    1.0379   -1.5138   24.9095 H   0  0  0  0  0  0
   -0.1574   -2.7753   25.0299 H   0  0  0  0  0  0
    1.2664   -0.0345   26.7604 H   0  0  0  0  0  0
   -1.7631    0.0885   29.7951 H   0  0  0  0  0  0
   -3.1953   -1.3525   28.4365 H   0  0  0  0  0  0
   -2.4310   -2.1575   26.2316 H   0  0  0  0  0  0
  1  2  2  0  0  0
  1  6  1  0  0  0
  1 29  1  0  0  0
  2  3  1  0  0  0
  2 30  1  0  0  0
  3  4  2  0  0  0
  3 31  1  0  0  0
  4  5  1  0  0  0
  4 32  1  0  0  0
  5  7  1  0  0  0
  5  6  2  0  0  0
  6 33  1  0  0  0
  7  8  1  0  0  0
  8  9  2  0  0  0
  8 13  1  0  0  0
  9 10  1  0  0  0
  9 34  1  0  0  0
 10 11  2  0  0  0
 10 35  1  0  0  0
 11 14  1  0  0  0
 11 12  1  0  0  0
 12 13  2  0  0  0
 12 36  1  0  0  0
 13 37  1  0  0  0
 14 15  2  0  0  0
 14 16  1  0  0  0
 16 17  1  0  0  0
 16 38  1  0  0  0
 17 18  1  0  0  0
 17 39  1  0  0  0
 17 40  1  0  0  0
 18 19  2  0  0  0
 18 23  1  0  0  0
 19 20  1  0  0  0
 19 41  1  0  0  0
 20 21  2  0  0  0
 20 24  1  0  0  0
 21 22  1  0  0  0
 21 42  1  0  0  0
 22 23  2  0  0  0
 22 43  1  0  0  0
 23 44  1  0  0  0
 24 25  1  0  0  0
 25 26  1  0  0  0
 25 27  1  0  0  0
 25 28  1  0  0  0
M  END
> <s_m_entry_id>
61047

> <s_m_entry_name>
dock_pv.324

> <s_m_Source_Path>
/home/csk/Desktop/cluster/DUD-E-result/mk14

> <s_m_Source_File>
dock_pv.maegz

> <i_m_Source_File_Index>
324

> <chembl_id>
CHEMBL198832

> <chembl_pref_name>
None

> <i_lp_mmshare_version>
53161

> <i_f3d_flags>
0

> <r_lp_tautomer_probability>
1

> <s_lp_Force_Field>
OPLS_2005

> <r_lp_Energy>
20.49123

> <b_lp_Chiralities_Consistent>
1

> <s_lp_Variant>
CHEMBL260_lig688-1

> <s_i_glide_gridfile>
glide-grid_2qd9

> <i_i_glide_lignum>
774

> <i_i_glide_rotatable_bonds>
8

> <r_i_docking_score>
-7.12116600542969

> <r_i_glide_ligand_efficiency>
-0.254327357336775

> <r_i_glide_ligand_efficiency_sa>
-0.772287647677324

> <r_i_glide_ligand_efficiency_ln>
-1.64377420057247

> <r_i_glide_gscore>
-7.12116600542969

> <r_i_glide_lipo>
-3.80664994890692

> <r_i_glide_hbond>
-0.114461651042488

> <r_i_glide_metal>
0

> <r_i_glide_rewards>
-1.22455756566416

> <r_i_glide_evdw>
-41.8269271850586

> <r_i_glide_ecoul>
-5.28421020507812

> <r_i_glide_erotb>
0.908481050198521

> <r_i_glide_esite>
0

> <r_i_glide_emodel>
-65.2605411261246

> <r_i_glide_energy>
-47.1111373901367

> <r_i_glide_einternal>
3.34716248512268

> <i_i_glide_confnum>
101

> <i_i_glide_posenum>
85

> <r_i_glide_eff_state_penalty>
0

> <s_user_duplicate_titles>
CHEMBL260_lig688,333179

> <s_m_subgroup_title>
dock_pv

> <s_m_subgroupid>
dock_pv

> <b_m_subgroup_collapsed>
1

$$$$
CHEMBL260_lig148
                    3D
 Schrodinger Suite 2021-1.
 42 45  0  0  1  0            999 V2000
   -1.1124   -1.0234   24.3046 N   0  0  0  0  0  0
   -0.8010   -2.3129   23.9698 C   0  0  0  0  0  0
   -1.6199   -0.0525   23.4063 C   0  0  0  0  0  0
   -0.8133   -0.6402   25.6361 C   0  0  0  0  0  0
   -2.0549   -0.4763   22.1425 C   0  0  0  0  0  0
   -4.5759    1.1961   15.4643 C   0  0  0  0  0  0
   -2.4650    0.3901   21.1928 N   0  0  0  0  0  0
   -1.2350   -2.7301   22.7584 N   0  0  0  0  0  0
   -2.4350    1.7159   21.4599 C   0  0  0  0  0  0
   -4.7062    1.1678   16.9648 C   0  0  0  0  0  0
   -1.6372    1.3274   23.6810 C   0  0  0  0  0  0
   -2.0202   -1.9518   21.7921 C   0  0  0  0  0  0
   -2.8350    2.8178   20.1465 S   0  0  0  0  0  0
    0.4255   -0.0404   25.9287 C   0  0  0  0  0  0
   -1.7230   -0.8994   26.6787 C   0  0  0  0  0  0
   -0.1993   -3.1130   24.6760 O   0  0  0  0  0  0
   -3.6903    1.6870   17.7757 C   0  0  0  0  0  0
   -3.9163    1.8324   19.1411 C   0  0  0  0  0  0
   -3.3038    1.2870   15.0760 F   0  0  0  0  0  0
   -5.2350    2.2849   15.0760 F   0  0  0  0  0  0
   -5.1242    0.1187   14.8975 F   0  0  0  0  0  0
   -2.0350    2.2258   22.6928 C   0  0  0  0  0  0
   -3.2665   -1.6271   26.3795 Cl  0  0  0  0  0  0
    1.5650    0.3203   24.6760 Cl  0  0  0  0  0  0
   -5.8898    0.6936   17.5377 C   0  0  0  0  0  0
   -6.0350    0.6812   18.9173 C   0  0  0  0  0  0
   -0.1417   -0.0039   28.2788 C   0  0  0  0  0  0
    0.7525    0.2755   27.2477 C   0  0  0  0  0  0
   -1.3771   -0.5840   27.9936 C   0  0  0  0  0  0
   -5.0650    1.2869   19.7023 C   0  0  0  0  0  0
   -0.8969   -3.6336   22.4671 H   0  0  0  0  0  0
   -1.3023    1.7177   24.6304 H   0  0  0  0  0  0
   -3.0342   -2.3513   21.7401 H   0  0  0  0  0  0
   -1.5708   -2.0870   20.8065 H   0  0  0  0  0  0
   -2.7961    2.1024   17.3343 H   0  0  0  0  0  0
   -2.0044    3.2887   22.8746 H   0  0  0  0  0  0
   -6.6795    0.2887   16.9205 H   0  0  0  0  0  0
   -6.9323    0.2849   19.3665 H   0  0  0  0  0  0
    0.1273    0.2283   29.2993 H   0  0  0  0  0  0
    1.7065    0.7305   27.4761 H   0  0  0  0  0  0
   -2.0635   -0.8002   28.7993 H   0  0  0  0  0  0
   -5.2348    1.3907   20.7455 H   0  0  0  0  0  0
  1  2  1  0  0  0
  1  3  1  0  0  0
  1  4  1  0  0  0
  2  8  1  0  0  0
  2 16  2  0  0  0
  3  5  2  0  0  0
  3 11  1  0  0  0
  4 14  1  0  0  0
  4 15  2  0  0  0
  5  7  1  0  0  0
  5 12  1  0  0  0
  6 10  1  0  0  0
  6 19  1  0  0  0
  6 20  1  0  0  0
  6 21  1  0  0  0
  7  9  2  0  0  0
  8 12  1  0  0  0
  8 31  1  0  0  0
  9 22  1  0  0  0
  9 13  1  0  0  0
 10 17  2  0  0  0
 10 25  1  0  0  0
 11 22  2  0  0  0
 11 32  1  0  0  0
 12 33  1  0  0  0
 12 34  1  0  0  0
 13 18  1  0  0  0
 14 24  1  0  0  0
 14 28  2  0  0  0
 15 23  1  0  0  0
 15 29  1  0  0  0
 17 18  1  0  0  0
 17 35  1  0  0  0
 18 30  2  0  0  0
 22 36  1  0  0  0
 25 26  2  0  0  0
 25 37  1  0  0  0
 26 30  1  0  0  0
 26 38  1  0  0  0
 27 29  2  0  0  0
 27 28  1  0  0  0
 27 39  1  0  0  0
 28 40  1  0  0  0
 29 41  1  0  0  0
 30 42  1  0  0  0
M  END
> <s_m_entry_id>
61048

> <s_m_entry_name>
dock_pv.325

> <s_m_Source_Path>
/home/csk/Desktop/cluster/DUD-E-result/mk14

> <s_m_Source_File>
dock_pv.maegz

> <i_m_Source_File_Index>
325

> <chembl_id>
CHEMBL129446

> <chembl_pref_name>
None

> <i_lp_mmshare_version>
53161

> <i_f3d_flags>
0

> <r_lp_tautomer_probability>
1

> <s_lp_Force_Field>
OPLS_2005

> <r_lp_Energy>
40.34566

> <b_lp_Chiralities_Consistent>
1

> <s_lp_Variant>
CHEMBL260_lig148-1

> <s_i_glide_gridfile>
glide-grid_2qd9

> <i_i_glide_lignum>
165

> <i_i_glide_rotatable_bonds>
4

> <r_i_docking_score>
-7.11668428911218

> <r_i_glide_ligand_efficiency>
-0.237222809637073

> <r_i_glide_ligand_efficiency_sa>
-0.737106424422335

> <r_i_glide_ligand_efficiency_ln>
-1.61698821297228

> <r_i_glide_gscore>
-7.11668428911218

> <r_i_glide_lipo>
-3.27987927829102

> <r_i_glide_hbond>
-0.114779810045128

> <r_i_glide_metal>
0

> <r_i_glide_rewards>
-1.6554114972434

> <r_i_glide_evdw>
-40.2426528930664

> <r_i_glide_ecoul>
-2.19015216827393

> <r_i_glide_erotb>
0.274041766361783

> <r_i_glide_esite>
0

> <r_i_glide_emodel>
-57.2065743270513

> <r_i_glide_energy>
-42.4328050613403

> <r_i_glide_einternal>
0.420731484889984

> <i_i_glide_confnum>
14

> <i_i_glide_posenum>
30

> <r_i_glide_eff_state_penalty>
0

> <s_user_duplicate_titles>
CHEMBL260_lig148

> <s_m_subgroup_title>
dock_pv

> <s_m_subgroupid>
dock_pv

> <b_m_subgroup_collapsed>
1

$$$$
CHEMBL260_lig622
                    3D
 Schrodinger Suite 2021-1.
 49 52  0  0  1  0            999 V2000
   -1.8011   -0.1107   24.3740 C   0  0  0  0  0  0
   -1.3406   -0.9007   25.4193 N   0  0  0  0  0  0
   -1.2943   -2.2421   24.9562 O   0  0  0  0  0  0
   -1.7359   -2.2755   23.6982 C   0  0  0  0  0  0
   -1.9909   -0.8943   23.2901 C   0  0  0  0  0  0
   -0.0912   -0.6278   26.1247 C   0  0  0  0  0  0
    0.8637    0.0970   25.4037 O   0  0  0  0  0  0
    1.4944   -0.5542   24.3067 C   0  0  0  0  0  0
    2.3649    0.4651   23.5717 C   0  0  0  0  0  0
   -1.9736    1.3459   24.5240 C   0  0  0  0  0  0
   -3.1798    1.9029   24.9573 C   0  0  0  0  0  0
   -3.2315    3.2926   25.0763 C   0  0  0  0  0  0
   -2.1642    4.0866   24.7960 N   0  0  0  0  0  0
   -1.0169    3.4451   24.4239 C   0  0  0  0  0  0
   -0.8791    2.1057   24.2612 N   0  0  0  0  0  0
    0.1450    4.1572   24.1970 O   0  0  0  0  0  0
    0.1656    5.5038   23.8987 C   0  0  0  0  0  0
   -0.3480    6.4779   24.7647 C   0  0  0  0  0  0
   -0.3188    7.8258   24.4032 C   0  0  0  0  0  0
    0.2375    8.2103   23.1827 C   0  0  0  0  0  0
    0.7823    7.2492   22.3312 C   0  0  0  0  0  0
    0.7646    5.9031   22.6982 C   0  0  0  0  0  0
    1.3336    4.9682   21.8760 O   0  0  0  0  0  0
   -2.4426   -0.5062   21.9195 C   0  0  0  0  0  0
   -3.2349    0.6278   21.7017 C   0  0  0  0  0  0
   -3.6350    1.0001   20.4239 C   0  0  0  0  0  0
   -3.2346    0.2427   19.3355 C   0  0  0  0  0  0
   -2.4350   -0.8816   19.5205 C   0  0  0  0  0  0
   -2.0355   -1.2471   20.8000 C   0  0  0  0  0  0
   -3.6011    0.6253   18.0928 F   0  0  0  0  0  0
   -1.8691   -3.3057   23.0412 O   0  0  0  0  0  0
   -0.3339    0.0054   26.9785 H   0  0  0  0  0  0
    0.3658   -1.5375   26.5175 H   0  0  0  0  0  0
    2.1099   -1.3702   24.6765 H   0  0  0  0  0  0
    0.7795   -0.9769   23.6042 H   0  0  0  0  0  0
    2.8898    0.0082   22.7330 H   0  0  0  0  0  0
    1.7661    1.2903   23.1862 H   0  0  0  0  0  0
    3.1116    0.8866   24.2451 H   0  0  0  0  0  0
   -4.0327    1.2772   25.1692 H   0  0  0  0  0  0
   -4.1336    3.7821   25.4166 H   0  0  0  0  0  0
   -0.7681    6.1870   25.7165 H   0  0  0  0  0  0
   -0.7197    8.5734   25.0725 H   0  0  0  0  0  0
    0.2583    9.2534   22.9022 H   0  0  0  0  0  0
    1.2278    7.5480   21.3928 H   0  0  0  0  0  0
    1.5067    5.2862   20.9651 H   0  0  0  0  0  0
   -3.5733    1.2365   22.5189 H   0  0  0  0  0  0
   -4.2522    1.8727   20.2740 H   0  0  0  0  0  0
   -2.1069   -1.4633   18.6761 H   0  0  0  0  0  0
   -1.3953   -2.1104   20.9031 H   0  0  0  0  0  0
  1  2  1  0  0  0
  1  5  2  0  0  0
  1 10  1  0  0  0
  2  3  1  0  0  0
  2  6  1  0  0  0
  3  4  1  0  0  0
  4  5  1  0  0  0
  4 31  2  0  0  0
  5 24  1  0  0  0
  6  7  1  0  0  0
  6 32  1  0  0  0
  6 33  1  0  0  0
  7  8  1  0  0  0
  8  9  1  0  0  0
  8 34  1  0  0  0
  8 35  1  0  0  0
  9 36  1  0  0  0
  9 37  1  0  0  0
  9 38  1  0  0  0
 10 11  2  0  0  0
 10 15  1  0  0  0
 11 12  1  0  0  0
 11 39  1  0  0  0
 12 13  2  0  0  0
 12 40  1  0  0  0
 13 14  1  0  0  0
 14 15  2  0  0  0
 14 16  1  0  0  0
 16 17  1  0  0  0
 17 18  2  0  0  0
 17 22  1  0  0  0
 18 19  1  0  0  0
 18 41  1  0  0  0
 19 20  2  0  0  0
 19 42  1  0  0  0
 20 21  1  0  0  0
 20 43  1  0  0  0
 21 22  2  0  0  0
 21 44  1  0  0  0
 22 23  1  0  0  0
 23 45  1  0  0  0
 24 25  2  0  0  0
 24 29  1  0  0  0
 25 26  1  0  0  0
 25 46  1  0  0  0
 26 27  2  0  0  0
 26 47  1  0  0  0
 27 28  1  0  0  0
 27 30  1  0  0  0
 28 29  2  0  0  0
 28 48  1  0  0  0
 29 49  1  0  0  0
M  END
> <s_m_entry_id>
61049

> <s_m_entry_name>
dock_pv.326

> <s_m_Source_Path>
/home/csk/Desktop/cluster/DUD-E-result/mk14

> <s_m_Source_File>
dock_pv.maegz

> <i_m_Source_File_Index>
326

> <chembl_id>
CHEMBL371491

> <chembl_pref_name>
None

> <i_lp_mmshare_version>
53161

> <i_f3d_flags>
0

> <r_lp_tautomer_probability>
1

> <s_lp_Force_Field>
OPLS_2005

> <r_lp_Energy>
17.982118

> <b_lp_Chiralities_Consistent>
1

> <s_lp_Variant>
CHEMBL260_lig622-1

> <s_i_glide_gridfile>
glide-grid_2qd9

> <i_i_glide_lignum>
708

> <i_i_glide_rotatable_bonds>
8

> <r_i_docking_score>
-7.11488197896636

> <r_i_glide_ligand_efficiency>
-0.229512321902141

> <r_i_glide_ligand_efficiency_sa>
-0.720985566683525

> <r_i_glide_ligand_efficiency_ln>
-1.60462393120336

> <r_i_glide_gscore>
-7.11488197896636

> <r_i_glide_lipo>
-2.47815562861483

> <r_i_glide_hbond>
-0.457360607288912

> <r_i_glide_metal>
0

> <r_i_glide_rewards>
-1.59673699700629

> <r_i_glide_evdw>
-38.2824172973633

> <r_i_glide_ecoul>
-8.72187042236328

> <r_i_glide_erotb>
0.663352276940674

> <r_i_glide_esite>
-0.0235795947743349

> <r_i_glide_emodel>
-65.0819716940231

> <r_i_glide_energy>
-47.0042877197266

> <r_i_glide_einternal>
8.94115352630615

> <i_i_glide_confnum>
77

> <i_i_glide_posenum>
217

> <r_i_glide_eff_state_penalty>
0

> <s_user_duplicate_titles>
CHEMBL260_lig622,325722

> <s_m_subgroup_title>
dock_pv

> <s_m_subgroupid>
dock_pv

> <b_m_subgroup_collapsed>
1

$$$$
CHEMBL260_lig255
                    3D
 Schrodinger Suite 2021-1.
 43 45  0  0  1  0            999 V2000
   -1.7517   -1.6853   23.5020 C   0  0  0  0  0  0
   -2.3483   -0.7251   22.5274 C   0  0  0  0  0  0
   -1.7211   -1.4067   24.9531 C   0  0  0  0  0  0
   -2.1913    0.6786   22.5873 C   0  0  0  0  0  0
   -3.4960    1.7648   19.3178 N   0  0  0  0  0  0
   -2.6090    1.4779   21.5233 C   0  0  0  0  0  0
   -4.0194    1.4350   18.0571 C   0  0  0  0  0  0
   -2.9798   -1.2621   21.3940 C   0  0  0  0  0  0
   -3.1974    0.9210   20.3938 C   0  0  0  0  0  0
   -1.2246   -2.8565   23.1017 C   0  0  0  0  0  0
   -0.5143   -1.1234   25.6263 C   0  0  0  0  0  0
   -5.3043    0.8870   17.8747 C   0  0  0  0  0  0
   -1.4540    1.5114   23.9119 Cl  0  0  0  0  0  0
   -3.3978   -0.4555   20.3431 C   0  0  0  0  0  0
   -6.1107    0.4883   18.9467 N   0  0  0  0  0  0
   -2.9056   -1.5128   25.6891 C   0  0  0  0  0  0
   -3.2372    1.7254   16.9342 C   0  0  0  0  0  0
    0.8007   -0.9575   24.8750 C   0  0  0  0  0  0
   -5.7803    0.6554   16.5827 C   0  0  0  0  0  0
   -0.5153   -0.9678   27.0158 C   0  0  0  0  0  0
   -2.8866   -1.3892   27.0774 C   0  0  0  0  0  0
   -3.7120    1.4655   15.6511 C   0  0  0  0  0  0
   -4.9851    0.9301   15.4759 C   0  0  0  0  0  0
   -1.6948   -1.1126   27.7406 C   0  0  0  0  0  0
   -3.0310    2.6565   19.3651 H   0  0  0  0  0  0
   -2.4387    2.5432   21.5717 H   0  0  0  0  0  0
   -3.1332   -2.3275   21.2951 H   0  0  0  0  0  0
   -1.1783   -3.1623   22.0670 H   0  0  0  0  0  0
   -0.8226   -3.5218   23.8422 H   0  0  0  0  0  0
   -3.8388   -0.9228   19.4775 H   0  0  0  0  0  0
   -6.9051   -0.1114   18.7587 H   0  0  0  0  0  0
   -5.7203    0.5566   19.8757 H   0  0  0  0  0  0
   -3.8376   -1.7376   25.1913 H   0  0  0  0  0  0
   -2.2552    2.1592   17.0500 H   0  0  0  0  0  0
    0.6821   -0.2996   24.0149 H   0  0  0  0  0  0
    1.5658   -0.5128   25.5070 H   0  0  0  0  0  0
    1.1612   -1.9129   24.5008 H   0  0  0  0  0  0
   -6.7524    0.2104   16.4317 H   0  0  0  0  0  0
    0.4032   -0.7503   27.5422 H   0  0  0  0  0  0
   -3.7980   -1.5150   27.6424 H   0  0  0  0  0  0
   -3.0961    1.6841   14.7919 H   0  0  0  0  0  0
   -5.3585    0.7131   14.4865 H   0  0  0  0  0  0
   -1.6807   -1.0153   28.8166 H   0  0  0  0  0  0
  1  2  1  0  0  0
  1  3  1  0  0  0
  1 10  2  0  0  0
  2  4  1  0  0  0
  2  8  2  0  0  0
  3 11  2  0  0  0
  3 16  1  0  0  0
  4  6  2  0  0  0
  4 13  1  0  0  0
  5  9  1  0  0  0
  5  7  1  0  0  0
  5 25  1  0  0  0
  6  9  1  0  0  0
  6 26  1  0  0  0
  7 12  2  0  0  0
  7 17  1  0  0  0
  8 14  1  0  0  0
  8 27  1  0  0  0
  9 14  2  0  0  0
 10 28  1  0  0  0
 10 29  1  0  0  0
 11 18  1  0  0  0
 11 20  1  0  0  0
 12 15  1  0  0  0
 12 19  1  0  0  0
 14 30  1  0  0  0
 15 31  1  0  0  0
 15 32  1  0  0  0
 16 21  2  0  0  0
 16 33  1  0  0  0
 17 22  2  0  0  0
 17 34  1  0  0  0
 18 35  1  0  0  0
 18 36  1  0  0  0
 18 37  1  0  0  0
 19 23  2  0  0  0
 19 38  1  0  0  0
 20 24  2  0  0  0
 20 39  1  0  0  0
 21 24  1  0  0  0
 21 40  1  0  0  0
 22 23  1  0  0  0
 22 41  1  0  0  0
 23 42  1  0  0  0
 24 43  1  0  0  0
M  END
> <s_m_entry_id>
61050

> <s_m_entry_name>
dock_pv.327

> <s_m_Source_Path>
/home/csk/Desktop/cluster/DUD-E-result/mk14

> <s_m_Source_File>
dock_pv.maegz

> <i_m_Source_File_Index>
327

> <chembl_id>
CHEMBL152403

> <chembl_pref_name>
None

> <i_lp_mmshare_version>
53161

> <i_f3d_flags>
0

> <r_lp_tautomer_probability>
1

> <s_lp_Force_Field>
OPLS_2005

> <r_lp_Energy>
29.08287

> <b_lp_Chiralities_Consistent>
1

> <s_lp_Variant>
CHEMBL260_lig255-1

> <s_i_glide_gridfile>
glide-grid_2qd9

> <i_i_glide_lignum>
306

> <i_i_glide_rotatable_bonds>
4

> <r_i_docking_score>
-7.10133276551325

> <r_i_glide_ligand_efficiency>
-0.295888865229719

> <r_i_glide_ligand_efficiency_sa>
-0.853491176568471

> <r_i_glide_ligand_efficiency_ln>
-1.69967478971468

> <r_i_glide_gscore>
-7.10133276551325

> <r_i_glide_lipo>
-4.14066972878567

> <r_i_glide_hbond>
-0.244916751950974

> <r_i_glide_metal>
0

> <r_i_glide_rewards>
-1.3256642977857

> <r_i_glide_evdw>
-38.8742218017578

> <r_i_glide_ecoul>
-0.796223163604736

> <r_i_glide_erotb>
0.67306257763769

> <r_i_glide_esite>
0

> <r_i_glide_emodel>
-48.4260213342461

> <r_i_glide_energy>
-39.6704449653625

> <r_i_glide_einternal>
15.1815938949585

> <i_i_glide_confnum>
24

> <i_i_glide_posenum>
88

> <r_i_glide_eff_state_penalty>
0

> <s_user_duplicate_titles>
CHEMBL260_lig255

> <s_m_subgroup_title>
dock_pv

> <s_m_subgroupid>
dock_pv

> <b_m_subgroup_collapsed>
1

$$$$
CHEMBL260_lig1615
                    3D
 Schrodinger Suite 2021-1.
 39 42  0  0  1  0            999 V2000
   -1.2779    1.6786   23.7463 O   0  0  0  0  0  0
   -0.0526    1.1576   24.2358 C   0  0  0  0  0  0
   -1.7906   -1.3413   24.1102 C   0  0  0  0  0  0
   -1.9635    0.9180   22.8310 C   0  0  0  0  0  0
   -2.1811   -0.4754   22.9274 C   0  0  0  0  0  0
   -2.8231   -1.1309   21.8560 C   0  0  0  0  0  0
   -3.2093   -0.4275   20.7144 C   0  0  0  0  0  0
   -2.9884    0.9468   20.6308 C   0  0  0  0  0  0
   -2.3952    1.6040   21.6993 C   0  0  0  0  0  0
   -1.1747   -0.8085   25.3799 C   0  0  0  0  0  0
   -0.3133    0.2989   25.4522 C   0  0  0  0  0  0
    0.2867    0.6865   26.6102 N   0  0  0  0  0  0
    0.0348   -0.0208   27.7384 C   0  0  0  0  0  0
   -0.8289   -1.1131   27.7622 C   0  0  0  0  0  0
   -1.4312   -1.5122   26.5685 C   0  0  0  0  0  0
   -2.0546   -2.5514   24.0747 O   0  0  0  0  0  0
   -3.2351    1.7036   19.4795 N   0  0  0  0  0  0
   -3.8978    1.3886   18.2822 C   0  0  0  0  0  0
   -3.2353    1.6874   17.0829 C   0  0  0  0  0  0
   -3.8590    1.4925   15.8548 C   0  0  0  0  0  0
   -5.1661    1.0244   15.8084 C   0  0  0  0  0  0
   -5.8387    0.7407   16.9941 C   0  0  0  0  0  0
   -5.2137    0.8875   18.2338 C   0  0  0  0  0  0
   -5.9366    0.5463   19.3844 N   0  0  0  0  0  0
    0.4956    0.5915   23.4791 H   0  0  0  0  0  0
    0.5867    2.0031   24.4972 H   0  0  0  0  0  0
   -3.0129   -2.1958   21.8696 H   0  0  0  0  0  0
   -3.6490   -0.9630   19.8858 H   0  0  0  0  0  0
   -2.1928    2.6624   21.6326 H   0  0  0  0  0  0
    0.5442    0.3054   28.6347 H   0  0  0  0  0  0
   -1.0091   -1.6574   28.6787 H   0  0  0  0  0  0
   -2.0901   -2.3670   26.5851 H   0  0  0  0  0  0
   -2.5898    2.4733   19.3902 H   0  0  0  0  0  0
   -2.2319    2.0842   17.0752 H   0  0  0  0  0  0
   -3.3290    1.7123   14.9398 H   0  0  0  0  0  0
   -5.6504    0.8710   14.8558 H   0  0  0  0  0  0
   -6.8350    0.3416   16.9451 H   0  0  0  0  0  0
   -6.7987    0.0280   19.2780 H   0  0  0  0  0  0
   -5.4585    0.5846   20.2729 H   0  0  0  0  0  0
  1  4  1  0  0  0
  1  2  1  0  0  0
  2 11  1  0  0  0
  2 25  1  0  0  0
  2 26  1  0  0  0
  3 16  2  0  0  0
  3  5  1  0  0  0
  3 10  1  0  0  0
  4  5  2  0  0  0
  4  9  1  0  0  0
  5  6  1  0  0  0
  6  7  2  0  0  0
  6 27  1  0  0  0
  7  8  1  0  0  0
  7 28  1  0  0  0
  8 17  1  0  0  0
  8  9  2  0  0  0
  9 29  1  0  0  0
 10 15  1  0  0  0
 10 11  2  0  0  0
 11 12  1  0  0  0
 12 13  2  0  0  0
 13 14  1  0  0  0
 13 30  1  0  0  0
 14 15  2  0  0  0
 14 31  1  0  0  0
 15 32  1  0  0  0
 17 18  1  0  0  0
 17 33  1  0  0  0
 18 19  2  0  0  0
 18 23  1  0  0  0
 19 20  1  0  0  0
 19 34  1  0  0  0
 20 21  2  0  0  0
 20 35  1  0  0  0
 21 22  1  0  0  0
 21 36  1  0  0  0
 22 23  2  0  0  0
 22 37  1  0  0  0
 23 24  1  0  0  0
 24 38  1  0  0  0
 24 39  1  0  0  0
M  END
> <s_m_entry_id>
61051

> <s_m_entry_name>
dock_pv.328

> <s_m_Source_Path>
/home/csk/Desktop/cluster/DUD-E-result/mk14

> <s_m_Source_File>
dock_pv.maegz

> <i_m_Source_File_Index>
328

> <chembl_id>
CHEMBL475360

> <chembl_pref_name>
None

> <i_lp_mmshare_version>
53161

> <i_f3d_flags>
0

> <r_lp_tautomer_probability>
1

> <s_lp_Force_Field>
OPLS_2005

> <r_lp_Energy>
37.474237

> <b_lp_Chiralities_Consistent>
1

> <s_lp_Variant>
CHEMBL260_lig1615-1

> <s_i_glide_gridfile>
glide-grid_2qd9

> <i_i_glide_lignum>
1864

> <i_i_glide_rotatable_bonds>
2

> <r_i_docking_score>
-7.0831692879746

> <r_i_glide_ligand_efficiency>
-0.295132053665608

> <r_i_glide_ligand_efficiency_sa>
-0.851308154264499

> <r_i_glide_ligand_efficiency_ln>
-1.695327436072

> <r_i_glide_gscore>
-7.0831692879746

> <r_i_glide_lipo>
-3.12438315570995

> <r_i_glide_hbond>
-0.222667381767958

> <r_i_glide_metal>
0

> <r_i_glide_rewards>
-1.56561092196941

> <r_i_glide_evdw>
-38.286190032959

> <r_i_glide_ecoul>
-4.17452144622803

> <r_i_glide_erotb>
0.369979890054876

> <r_i_glide_esite>
0

> <r_i_glide_emodel>
-52.9975946006874

> <r_i_glide_energy>
-42.460711479187

> <r_i_glide_einternal>
9.9697265625

> <i_i_glide_confnum>
8

> <i_i_glide_posenum>
142

> <r_i_glide_eff_state_penalty>
0

> <s_user_duplicate_titles>
CHEMBL260_lig1615

> <s_m_subgroup_title>
dock_pv

> <s_m_subgroupid>
dock_pv

> <b_m_subgroup_collapsed>
1

$$$$
CHEMBL260_lig691
                    3D
 Schrodinger Suite 2021-1.
 43 45  0  0  1  0            999 V2000
   -6.2256    0.6008   17.5870 C   0  0  0  0  0  0
   -5.7633    0.7400   16.2772 C   0  0  0  0  0  0
   -4.4569    1.1493   16.0204 C   0  0  0  0  0  0
   -3.6054    1.4205   17.0870 C   0  0  0  0  0  0
   -4.0679    1.2882   18.3966 C   0  0  0  0  0  0
   -5.3790    0.8869   18.6485 C   0  0  0  0  0  0
   -3.2349    1.6175   19.4344 O   0  0  0  0  0  0
   -2.9675    0.7166   20.4426 C   0  0  0  0  0  0
   -2.5054    1.2416   21.6437 C   0  0  0  0  0  0
   -2.2280    0.4013   22.7135 C   0  0  0  0  0  0
   -2.4056   -0.9871   22.5935 C   0  0  0  0  0  0
   -2.8262   -1.5165   21.3677 C   0  0  0  0  0  0
   -3.1018   -0.6707   20.2988 C   0  0  0  0  0  0
   -2.1327   -1.9110   23.7552 C   0  0  0  0  0  0
   -1.9118   -3.1128   23.5833 O   0  0  0  0  0  0
   -2.1623   -1.3307   24.9670 N   0  0  0  0  0  0
   -1.7752   -1.9568   26.2235 C   0  0  0  0  0  0
   -0.9735   -1.0426   27.1387 C   0  0  0  0  0  0
   -1.2615   -1.0115   28.5058 C   0  0  0  0  0  0
   -0.5318   -0.1844   29.3546 C   0  0  0  0  0  0
    0.4844    0.6193   28.8370 C   0  0  0  0  0  0
    0.7656    0.6008   27.4714 C   0  0  0  0  0  0
    0.0421   -0.2307   26.6231 C   0  0  0  0  0  0
    1.2949    1.5157   29.7543 C   0  0  0  0  0  0
   -7.2320    0.2638   17.7926 H   0  0  0  0  0  0
   -6.4274    0.5138   15.4562 H   0  0  0  0  0  0
   -4.1046    1.2515   15.0043 H   0  0  0  0  0  0
   -2.5905    1.7406   16.9004 H   0  0  0  0  0  0
   -5.7373    0.7935   19.6631 H   0  0  0  0  0  0
   -2.3668    2.3072   21.7464 H   0  0  0  0  0  0
   -1.8674    0.8487   23.6287 H   0  0  0  0  0  0
   -2.9518   -2.5828   21.2343 H   0  0  0  0  0  0
   -3.4258   -1.1001   19.3642 H   0  0  0  0  0  0
   -2.5616   -0.4082   25.0388 H   0  0  0  0  0  0
   -1.1597   -2.8307   26.0180 H   0  0  0  0  0  0
   -2.6785   -2.3095   26.7243 H   0  0  0  0  0  0
   -2.0361   -1.6413   28.9189 H   0  0  0  0  0  0
   -0.7487   -0.1793   30.4125 H   0  0  0  0  0  0
    1.5616    1.2160   27.0747 H   0  0  0  0  0  0
    0.2828   -0.2508   25.5699 H   0  0  0  0  0  0
    2.3041    1.1194   29.8724 H   0  0  0  0  0  0
    1.3852    2.5130   29.3228 H   0  0  0  0  0  0
    0.8343    1.6232   30.7367 H   0  0  0  0  0  0
  1  6  1  0  0  0
  1  2  2  0  0  0
  1 25  1  0  0  0
  2  3  1  0  0  0
  2 26  1  0  0  0
  3  4  2  0  0  0
  3 27  1  0  0  0
  4  5  1  0  0  0
  4 28  1  0  0  0
  5  7  1  0  0  0
  5  6  2  0  0  0
  6 29  1  0  0  0
  7  8  1  0  0  0
  8 13  1  0  0  0
  8  9  2  0  0  0
  9 10  1  0  0  0
  9 30  1  0  0  0
 10 11  2  0  0  0
 10 31  1  0  0  0
 11 12  1  0  0  0
 11 14  1  0  0  0
 12 13  2  0  0  0
 12 32  1  0  0  0
 13 33  1  0  0  0
 14 15  2  0  0  0
 14 16  1  0  0  0
 16 17  1  0  0  0
 16 34  1  0  0  0
 17 18  1  0  0  0
 17 35  1  0  0  0
 17 36  1  0  0  0
 18 19  2  0  0  0
 18 23  1  0  0  0
 19 20  1  0  0  0
 19 37  1  0  0  0
 20 21  2  0  0  0
 20 38  1  0  0  0
 21 22  1  0  0  0
 21 24  1  0  0  0
 22 23  2  0  0  0
 22 39  1  0  0  0
 23 40  1  0  0  0
 24 41  1  0  0  0
 24 42  1  0  0  0
 24 43  1  0  0  0
M  END
> <s_m_entry_id>
61052

> <s_m_entry_name>
dock_pv.329

> <s_m_Source_Path>
/home/csk/Desktop/cluster/DUD-E-result/mk14

> <s_m_Source_File>
dock_pv.maegz

> <i_m_Source_File_Index>
329

> <chembl_id>
CHEMBL199174

> <chembl_pref_name>
None

> <i_lp_mmshare_version>
53161

> <i_f3d_flags>
0

> <r_lp_tautomer_probability>
1

> <s_lp_Force_Field>
OPLS_2005

> <r_lp_Energy>
18.971711

> <b_lp_Chiralities_Consistent>
1

> <s_lp_Variant>
CHEMBL260_lig691-1

> <s_i_glide_gridfile>
glide-grid_2qd9

> <i_i_glide_lignum>
777

> <i_i_glide_rotatable_bonds>
6

> <r_i_docking_score>
-7.07390241419221

> <r_i_glide_ligand_efficiency>
-0.294745933924676

> <r_i_glide_ligand_efficiency_sa>
-0.850194392204784

> <r_i_glide_ligand_efficiency_ln>
-1.69310944794675

> <r_i_glide_gscore>
-7.07390241419221

> <r_i_glide_lipo>
-3.39270101974258

> <r_i_glide_hbond>
-0.477792712888933

> <r_i_glide_metal>
0

> <r_i_glide_rewards>
-1.56381020835878

> <r_i_glide_evdw>
-37.723087310791

> <r_i_glide_ecoul>
-5.75426006317139

> <r_i_glide_erotb>
1.10969490181334

> <r_i_glide_esite>
0

> <r_i_glide_emodel>
-61.5473257824035

> <r_i_glide_energy>
-43.4773473739624

> <r_i_glide_einternal>
2.83306336402893

> <i_i_glide_confnum>
90

> <i_i_glide_posenum>
261

> <r_i_glide_eff_state_penalty>
0

> <s_user_duplicate_titles>
CHEMBL260_lig691

> <s_m_subgroup_title>
dock_pv

> <s_m_subgroupid>
dock_pv

> <b_m_subgroup_collapsed>
1

$$$$
CHEMBL260_lig687
                    3D
 Schrodinger Suite 2021-1.
 43 45  0  0  1  0            999 V2000
   -5.8617    0.4870   16.2729 C   0  0  0  0  0  0
   -4.8981    0.5249   15.2747 C   0  0  0  0  0  0
   -3.6169    0.9784   15.5579 C   0  0  0  0  0  0
   -3.2883    1.3533   16.8573 C   0  0  0  0  0  0
   -4.2505    1.2873   17.8661 C   0  0  0  0  0  0
   -5.5511    0.8870   17.5691 C   0  0  0  0  0  0
   -3.9397    1.7113   19.1352 O   0  0  0  0  0  0
   -3.3880    0.8521   20.0633 C   0  0  0  0  0  0
   -2.8348    1.4274   21.2019 C   0  0  0  0  0  0
   -2.2782    0.6317   22.1979 C   0  0  0  0  0  0
   -2.2615   -0.7678   22.0692 C   0  0  0  0  0  0
   -2.8295   -1.3456   20.9281 C   0  0  0  0  0  0
   -3.3828   -0.5410   19.9367 C   0  0  0  0  0  0
   -1.6422   -1.6497   23.1317 C   0  0  0  0  0  0
   -1.9036   -2.8547   23.2076 O   0  0  0  0  0  0
   -0.7810   -1.0275   23.9552 N   0  0  0  0  0  0
   -0.0354   -1.6356   25.0461 C   0  0  0  0  0  0
   -0.1889   -0.8683   26.3505 C   0  0  0  0  0  0
   -1.2172   -1.1948   27.2393 C   0  0  0  0  0  0
   -1.2942   -0.5893   28.5007 C   0  0  0  0  0  0
   -0.3294    0.3605   28.8580 C   0  0  0  0  0  0
    0.6930    0.6983   27.9718 C   0  0  0  0  0  0
    0.7612    0.0872   26.7218 C   0  0  0  0  0  0
   -2.3916   -0.9674   29.4949 C   0  0  0  0  0  0
   -1.8426   -1.4799   30.5973 F   0  0  0  0  0  0
   -3.2409   -1.8692   28.9952 F   0  0  0  0  0  0
   -3.0888    0.1192   29.8318 F   0  0  0  0  0  0
   -6.8350    0.1037   16.0370 H   0  0  0  0  0  0
   -5.1488    0.1994   14.2760 H   0  0  0  0  0  0
   -2.8746    1.0243   14.7761 H   0  0  0  0  0  0
   -2.2938    1.7062   17.0756 H   0  0  0  0  0  0
   -6.3035    0.8510   18.3437 H   0  0  0  0  0  0
   -2.8351    2.5006   21.3106 H   0  0  0  0  0  0
   -1.8680    1.1263   23.0665 H   0  0  0  0  0  0
   -2.8409   -2.4190   20.7930 H   0  0  0  0  0  0
   -3.8194   -1.0114   19.0761 H   0  0  0  0  0  0
   -0.5421   -0.0717   23.7435 H   0  0  0  0  0  0
    1.0169   -1.6690   24.7557 H   0  0  0  0  0  0
   -0.3153   -2.6796   25.2105 H   0  0  0  0  0  0
   -1.9380   -1.9484   26.9546 H   0  0  0  0  0  0
   -0.3616    0.8289   29.8316 H   0  0  0  0  0  0
    1.4466    1.4196   28.2615 H   0  0  0  0  0  0
    1.5650    0.3443   26.0491 H   0  0  0  0  0  0
  1  2  2  0  0  0
  1  6  1  0  0  0
  1 28  1  0  0  0
  2  3  1  0  0  0
  2 29  1  0  0  0
  3  4  2  0  0  0
  3 30  1  0  0  0
  4  5  1  0  0  0
  4 31  1  0  0  0
  5  7  1  0  0  0
  5  6  2  0  0  0
  6 32  1  0  0  0
  7  8  1  0  0  0
  8 13  1  0  0  0
  8  9  2  0  0  0
  9 10  1  0  0  0
  9 33  1  0  0  0
 10 11  2  0  0  0
 10 34  1  0  0  0
 11 14  1  0  0  0
 11 12  1  0  0  0
 12 13  2  0  0  0
 12 35  1  0  0  0
 13 36  1  0  0  0
 14 15  2  0  0  0
 14 16  1  0  0  0
 16 17  1  0  0  0
 16 37  1  0  0  0
 17 18  1  0  0  0
 17 38  1  0  0  0
 17 39  1  0  0  0
 18 19  2  0  0  0
 18 23  1  0  0  0
 19 20  1  0  0  0
 19 40  1  0  0  0
 20 21  2  0  0  0
 20 24  1  0  0  0
 21 22  1  0  0  0
 21 41  1  0  0  0
 22 23  2  0  0  0
 22 42  1  0  0  0
 23 43  1  0  0  0
 24 25  1  0  0  0
 24 26  1  0  0  0
 24 27  1  0  0  0
M  END
> <s_m_entry_id>
61053

> <s_m_entry_name>
dock_pv.330

> <s_m_Source_Path>
/home/csk/Desktop/cluster/DUD-E-result/mk14

> <s_m_Source_File>
dock_pv.maegz

> <i_m_Source_File_Index>
330

> <chembl_id>
CHEMBL198563

> <chembl_pref_name>
None

> <i_lp_mmshare_version>
53161

> <i_f3d_flags>
0

> <r_lp_tautomer_probability>
1

> <s_lp_Force_Field>
OPLS_2005

> <r_lp_Energy>
22.795833

> <b_lp_Chiralities_Consistent>
1

> <s_lp_Variant>
CHEMBL260_lig687-1

> <s_i_glide_gridfile>
glide-grid_2qd9

> <i_i_glide_lignum>
773

> <i_i_glide_rotatable_bonds>
7

> <r_i_docking_score>
-7.06064030094933

> <r_i_glide_ligand_efficiency>
-0.261505196331457

> <r_i_glide_ligand_efficiency_sa>
-0.784515588132491

> <r_i_glide_ligand_efficiency_ln>
-1.64360065830819

> <r_i_glide_gscore>
-7.06064030094933

> <r_i_glide_lipo>
-3.64775653861024

> <r_i_glide_hbond>
-0.0978586968951314

> <r_i_glide_metal>
0

> <r_i_glide_rewards>
-1.32256316319875

> <r_i_glide_evdw>
-41.2951965332031

> <r_i_glide_ecoul>
-5.11680173873901

> <r_i_glide_erotb>
0.8398181852258

> <r_i_glide_esite>
0

> <r_i_glide_emodel>
-63.1280354507063

> <r_i_glide_energy>
-46.4119982719421

> <r_i_glide_einternal>
3.97270727157593

> <i_i_glide_confnum>
51

> <i_i_glide_posenum>
67

> <r_i_glide_eff_state_penalty>
0

> <s_user_duplicate_titles>
CHEMBL260_lig687,333099

> <s_m_subgroup_title>
dock_pv

> <s_m_subgroupid>
dock_pv

> <b_m_subgroup_collapsed>
1

$$$$
CHEMBL260_lig951
                    3D
 Schrodinger Suite 2021-1.
 39 41  0  0  1  0            999 V2000
   -2.8350    2.6647   20.1362 C   0  0  0  0  0  0
   -2.4350    2.5862   21.5300 C   0  0  0  0  0  0
   -2.4345    1.4318   22.2224 C   0  0  0  0  0  0
   -2.8731    0.2084   21.6064 C   0  0  0  0  0  0
   -3.3644    0.2526   20.4147 N   0  0  0  0  0  0
   -3.4192    1.4764   19.7023 N   0  0  0  0  0  0
   -3.9633    1.3555   18.3848 C   0  0  0  0  0  0
   -3.2350    1.7505   17.2420 C   0  0  0  0  0  0
   -3.7753    1.6868   15.9604 C   0  0  0  0  0  0
   -5.0777    1.2448   15.7855 C   0  0  0  0  0  0
   -5.8260    0.8769   16.8953 C   0  0  0  0  0  0
   -5.2850    0.9084   18.1802 C   0  0  0  0  0  0
   -6.3434    0.4870   19.4760 Cl  0  0  0  0  0  0
   -2.4927    3.6529   19.4761 O   0  0  0  0  0  0
   -2.7723   -0.9949   22.2798 N   0  0  0  0  0  0
   -2.4389   -1.1588   23.6399 C   0  0  0  0  0  0
   -1.1176   -1.0493   24.1346 C   0  0  0  0  0  0
   -0.8889   -1.2358   25.5080 C   0  0  0  0  0  0
   -1.9392   -1.5130   26.3770 C   0  0  0  0  0  0
   -3.2350   -1.6121   25.8868 C   0  0  0  0  0  0
   -3.4806   -1.4391   24.5265 C   0  0  0  0  0  0
    0.0506   -0.7400   23.1901 C   0  0  0  0  0  0
    1.4456   -0.5995   23.8284 C   0  0  0  0  0  0
   -2.0944    3.4900   22.0109 H   0  0  0  0  0  0
   -2.1112    1.4563   23.2527 H   0  0  0  0  0  0
   -2.2503    2.1722   17.3063 H   0  0  0  0  0  0
   -3.1911    2.0019   15.1072 H   0  0  0  0  0  0
   -5.5098    1.1969   14.7969 H   0  0  0  0  0  0
   -6.8350    0.5315   16.7586 H   0  0  0  0  0  0
   -3.3655   -1.7188   21.9059 H   0  0  0  0  0  0
    0.1033   -1.1694   25.9290 H   0  0  0  0  0  0
   -1.7446   -1.6534   27.4310 H   0  0  0  0  0  0
   -4.0505   -1.8259   26.5620 H   0  0  0  0  0  0
   -4.4956   -1.5130   24.1633 H   0  0  0  0  0  0
    0.0578   -1.5130   22.4228 H   0  0  0  0  0  0
   -0.1577    0.1936   22.6760 H   0  0  0  0  0  0
    2.2040   -0.3827   23.0760 H   0  0  0  0  0  0
    1.4731    0.2162   24.5521 H   0  0  0  0  0  0
    1.7391   -1.5130   24.3416 H   0  0  0  0  0  0
  1  6  1  0  0  0
  1  2  1  0  0  0
  1 14  2  0  0  0
  2  3  2  0  0  0
  2 24  1  0  0  0
  3  4  1  0  0  0
  3 25  1  0  0  0
  4 15  1  0  0  0
  4  5  2  0  0  0
  5  6  1  0  0  0
  6  7  1  0  0  0
  7 12  1  0  0  0
  7  8  2  0  0  0
  8  9  1  0  0  0
  8 26  1  0  0  0
  9 10  2  0  0  0
  9 27  1  0  0  0
 10 11  1  0  0  0
 10 28  1  0  0  0
 11 12  2  0  0  0
 11 29  1  0  0  0
 12 13  1  0  0  0
 15 16  1  0  0  0
 15 30  1  0  0  0
 16 17  2  0  0  0
 16 21  1  0  0  0
 17 18  1  0  0  0
 17 22  1  0  0  0
 18 19  2  0  0  0
 18 31  1  0  0  0
 19 20  1  0  0  0
 19 32  1  0  0  0
 20 21  2  0  0  0
 20 33  1  0  0  0
 21 34  1  0  0  0
 22 23  1  0  0  0
 22 35  1  0  0  0
 22 36  1  0  0  0
 23 37  1  0  0  0
 23 38  1  0  0  0
 23 39  1  0  0  0
M  END
> <s_m_entry_id>
61054

> <s_m_entry_name>
dock_pv.331

> <s_m_Source_Path>
/home/csk/Desktop/cluster/DUD-E-result/mk14

> <s_m_Source_File>
dock_pv.maegz

> <i_m_Source_File_Index>
331

> <chembl_id>
CHEMBL373545

> <chembl_pref_name>
None

> <i_lp_mmshare_version>
53161

> <i_f3d_flags>
0

> <r_lp_tautomer_probability>
0.999999999999446

> <s_lp_Force_Field>
OPLS_2005

> <r_lp_Energy>
41.735644

> <b_lp_Chiralities_Consistent>
1

> <s_lp_Variant>
CHEMBL260_lig951-1

> <s_i_glide_gridfile>
glide-grid_2qd9

> <i_i_glide_lignum>
1054

> <i_i_glide_rotatable_bonds>
4

> <r_i_docking_score>
-7.05427076787423

> <r_i_glide_ligand_efficiency>
-0.306707424690184

> <r_i_glide_ligand_efficiency_sa>
-0.872235116640095

> <r_i_glide_ligand_efficiency_ln>
-1.70578663626284

> <r_i_glide_gscore>
-7.05427076787423

> <r_i_glide_lipo>
-3.74032799657021

> <r_i_glide_hbond>
0

> <r_i_glide_metal>
0

> <r_i_glide_rewards>
-1.66768072771339

> <r_i_glide_evdw>
-34.6112480163574

> <r_i_glide_ecoul>
-2.97030544281006

> <r_i_glide_erotb>
0.529846173648751

> <r_i_glide_esite>
0

> <r_i_glide_emodel>
-51.7321123387614

> <r_i_glide_energy>
-37.5815534591675

> <r_i_glide_einternal>
5.93710660934448

> <i_i_glide_confnum>
9

> <i_i_glide_posenum>
146

> <r_i_glide_eff_state_penalty>
0

> <s_user_duplicate_titles>
CHEMBL260_lig951,368272

> <s_m_subgroup_title>
dock_pv

> <s_m_subgroupid>
dock_pv

> <b_m_subgroup_collapsed>
1

$$$$
CHEMBL260_lig182
                    3D
 Schrodinger Suite 2021-1.
 57 61  0  0  1  0            999 V2000
   -2.7149    5.1774   26.4702 C   0  0  0  0  0  0
   -2.2036    3.9558   25.8600 N   0  0  2  0  0  0
   -1.1078    4.2195   24.9191 C   0  0  0  0  0  0
   -0.5111    2.9058   24.3552 C   0  0  0  0  0  0
   -1.5677    1.8990   23.8344 C   0  0  0  0  0  0
   -2.7219    1.7635   24.8515 C   0  0  0  0  0  0
   -3.2774    3.1297   25.2978 C   0  0  0  0  0  0
   -2.0568    2.0987   22.4484 N   0  0  0  0  0  0
   -2.0352    3.2779   21.7539 C   0  0  0  0  0  0
   -2.5181    3.2145   20.5431 N   0  0  0  0  0  0
   -2.9363    1.9676   20.4179 C   0  0  0  0  0  0
   -2.5447    1.1823   21.5185 C   0  0  0  0  0  0
   -2.5849   -0.3066   21.6821 C   0  0  0  0  0  0
   -2.5417   -1.1903   20.5977 C   0  0  0  0  0  0
   -2.4574   -2.5547   20.8948 C   0  0  0  0  0  0
   -2.4319   -3.0361   22.1671 N   0  0  0  0  0  0
   -2.4668   -2.1035   23.1461 C   0  0  0  0  0  0
   -2.4351   -2.5527   24.4652 N   0  0  0  0  0  0
   -1.8967   -1.8830   25.5688 C   0  0  0  0  0  0
   -2.6461   -1.7741   26.7416 C   0  0  0  0  0  0
   -2.1022   -1.1315   27.8533 C   0  0  0  0  0  0
   -0.8118   -0.6073   27.7901 C   0  0  0  0  0  0
   -0.0610   -0.7104   26.6221 C   0  0  0  0  0  0
   -0.6064   -1.3431   25.5077 C   0  0  0  0  0  0
   -2.5575   -0.7694   22.9524 N   0  0  0  0  0  0
   -3.7283    1.5674   19.2155 C   0  0  0  0  0  0
   -4.9508    0.9148   19.4033 C   0  0  0  0  0  0
   -5.7515    0.6077   18.3056 C   0  0  0  0  0  0
   -5.2993    0.8896   17.0161 C   0  0  0  0  0  0
   -6.0353    0.5240   15.9455 F   0  0  0  0  0  0
   -4.0703    1.5103   16.8163 C   0  0  0  0  0  0
   -3.3062    1.8764   17.9197 C   0  0  0  0  0  0
   -3.4592    4.9452   27.2326 H   0  0  0  0  0  0
   -1.9140    5.7307   26.9609 H   0  0  0  0  0  0
   -3.1765    5.8316   25.7327 H   0  0  0  0  0  0
   -0.3217    4.7573   25.4527 H   0  0  0  0  0  0
   -1.4470    4.8897   24.1314 H   0  0  0  0  0  0
    0.0965    2.4315   25.1280 H   0  0  0  0  0  0
    0.2370    3.1040   23.5848 H   0  0  0  0  0  0
   -1.0294    0.9600   23.7548 H   0  0  0  0  0  0
   -3.5303    1.1521   24.4489 H   0  0  0  0  0  0
   -2.4019    1.1842   25.7183 H   0  0  0  0  0  0
   -4.0338    2.9594   26.0650 H   0  0  0  0  0  0
   -3.7737    3.6574   24.4805 H   0  0  0  0  0  0
   -1.4747    4.0869   22.1753 H   0  0  0  0  0  0
   -2.5430   -0.8418   19.5739 H   0  0  0  0  0  0
   -2.4133   -3.2873   20.1022 H   0  0  0  0  0  0
   -2.7077   -3.5117   24.6002 H   0  0  0  0  0  0
   -3.6413   -2.1955   26.7961 H   0  0  0  0  0  0
   -2.6741   -1.0536   28.7670 H   0  0  0  0  0  0
   -0.3825   -0.1247   28.6569 H   0  0  0  0  0  0
    0.9420   -0.3085   26.5841 H   0  0  0  0  0  0
   -0.0219   -1.4259   24.6035 H   0  0  0  0  0  0
   -5.2948    0.6808   20.3978 H   0  0  0  0  0  0
   -6.7055    0.1156   18.4448 H   0  0  0  0  0  0
   -3.7354    1.7443   15.8171 H   0  0  0  0  0  0
   -2.4352    2.4795   17.7578 H   0  0  0  0  0  0
  1  2  1  0  0  0
  1 33  1  0  0  0
  1 34  1  0  0  0
  1 35  1  0  0  0
  2  3  1  0  0  0
  2  7  1  0  0  0
  3  4  1  0  0  0
  3 36  1  0  0  0
  3 37  1  0  0  0
  4  5  1  0  0  0
  4 38  1  0  0  0
  4 39  1  0  0  0
  5  6  1  0  0  0
  5  8  1  0  0  0
  5 40  1  0  0  0
  6  7  1  0  0  0
  6 41  1  0  0  0
  6 42  1  0  0  0
  7 43  1  0  0  0
  7 44  1  0  0  0
  8  9  1  0  0  0
  8 12  1  0  0  0
  9 10  2  0  0  0
  9 45  1  0  0  0
 10 11  1  0  0  0
 11 12  2  0  0  0
 11 26  1  0  0  0
 12 13  1  0  0  0
 13 14  2  0  0  0
 13 25  1  0  0  0
 14 15  1  0  0  0
 14 46  1  0  0  0
 15 16  2  0  0  0
 15 47  1  0  0  0
 16 17  1  0  0  0
 17 18  1  0  0  0
 17 25  2  0  0  0
 18 19  1  0  0  0
 18 48  1  0  0  0
 19 20  2  0  0  0
 19 24  1  0  0  0
 20 21  1  0  0  0
 20 49  1  0  0  0
 21 22  2  0  0  0
 21 50  1  0  0  0
 22 23  1  0  0  0
 22 51  1  0  0  0
 23 24  2  0  0  0
 23 52  1  0  0  0
 24 53  1  0  0  0
 26 27  2  0  0  0
 26 32  1  0  0  0
 27 28  1  0  0  0
 27 54  1  0  0  0
 28 29  2  0  0  0
 28 55  1  0  0  0
 29 30  1  0  0  0
 29 31  1  0  0  0
 31 32  2  0  0  0
 31 56  1  0  0  0
 32 57  1  0  0  0
M  END
> <s_m_entry_id>
61055

> <s_m_entry_name>
dock_pv.332

> <s_m_Source_Path>
/home/csk/Desktop/cluster/DUD-E-result/mk14

> <s_m_Source_File>
dock_pv.maegz

> <i_m_Source_File_Index>
332

> <chembl_id>
CHEMBL318892

> <chembl_pref_name>
None

> <i_lp_mmshare_version>
53161

> <i_f3d_flags>
0

> <r_lp_tautomer_probability>
0.999999987636

> <s_lp_Force_Field>
OPLS_2005

> <r_lp_Energy>
28.929555

> <b_lp_Chiralities_Consistent>
1

> <s_lp_Variant>
CHEMBL260_lig182-1

> <s_i_glide_gridfile>
glide-grid_2qd9

> <i_i_glide_lignum>
199

> <i_i_glide_rotatable_bonds>
5

> <r_i_docking_score>
-7.05297125518396

> <r_i_glide_ligand_efficiency>
-0.220405351724499

> <r_i_glide_ligand_efficiency_sa>
-0.699743373565406

> <r_i_glide_ligand_efficiency_ln>
-1.57935252077092

> <r_i_glide_gscore>
-7.05297125518396

> <r_i_glide_lipo>
-3.18003962706013

> <r_i_glide_hbond>
-0.21438399673336

> <r_i_glide_metal>
0

> <r_i_glide_rewards>
-2.22536075244057

> <r_i_glide_evdw>
-34.6947708129883

> <r_i_glide_ecoul>
-1.33835554122925

> <r_i_glide_erotb>
0.540918485108255

> <r_i_glide_esite>
-0.0386134922243564

> <r_i_glide_emodel>
-45.3082321851103

> <r_i_glide_energy>
-36.0331263542175

> <r_i_glide_einternal>
5.47584533691406

> <i_i_glide_confnum>
123

> <i_i_glide_posenum>
119

> <r_i_glide_eff_state_penalty>
0

> <s_user_duplicate_titles>
CHEMBL260_lig182,157998

> <s_m_subgroup_title>
dock_pv

> <s_m_subgroupid>
dock_pv

> <b_m_subgroup_collapsed>
1

$$$$
CHEMBL260_lig720
                    3D
 Schrodinger Suite 2021-1.
 36 38  0  0  1  0            999 V2000
   -4.3557    1.4004   16.2702 C   0  0  0  0  0  0
   -5.6354    0.8879   16.4485 C   0  0  0  0  0  0
   -6.1257    0.6333   17.7278 C   0  0  0  0  0  0
   -5.3312    0.8870   18.8385 C   0  0  0  0  0  0
   -4.0532    1.4257   18.6720 C   0  0  0  0  0  0
   -3.5660    1.6869   17.3829 C   0  0  0  0  0  0
   -3.2798    1.8259   19.8764 C   0  0  0  0  0  0
   -2.9731    0.8023   20.8809 C   0  0  0  0  0  0
   -2.8349    2.9709   19.9808 O   0  0  0  0  0  0
   -3.1646   -0.5872   20.7884 C   0  0  0  0  0  0
   -2.8293   -1.2304   21.8813 N   0  0  0  0  0  0
   -2.3723   -0.2846   22.7184 N   0  0  0  0  0  0
   -2.4363    0.9810   22.1567 C   0  0  0  0  0  0
   -1.9723   -0.6554   24.0194 C   0  0  0  0  0  0
   -0.6339   -0.5440   24.4503 C   0  0  0  0  0  0
   -0.3123   -0.8974   25.7659 C   0  0  0  0  0  0
   -1.2953   -1.3601   26.6404 C   0  0  0  0  0  0
   -2.6129   -1.4891   26.2047 C   0  0  0  0  0  0
   -2.9507   -1.1388   24.8985 C   0  0  0  0  0  0
   -2.0537    2.1130   22.8306 N   0  0  0  0  0  0
    0.4858   -0.0886   23.5226 C   0  0  0  0  0  0
   -3.9806    1.5933   15.2763 H   0  0  0  0  0  0
   -6.2550    0.6714   15.5892 H   0  0  0  0  0  0
   -7.1144    0.2208   17.8616 H   0  0  0  0  0  0
   -5.7341    0.6969   19.8250 H   0  0  0  0  0  0
   -2.5867    2.1183   17.2313 H   0  0  0  0  0  0
   -3.5657   -1.1223   19.9375 H   0  0  0  0  0  0
    0.7083   -0.8256   26.1157 H   0  0  0  0  0  0
   -1.0304   -1.6320   27.6538 H   0  0  0  0  0  0
   -3.3728   -1.8537   26.8820 H   0  0  0  0  0  0
   -3.9786   -1.2364   24.5743 H   0  0  0  0  0  0
   -2.0381    3.0031   22.3588 H   0  0  0  0  0  0
   -1.6666    2.0693   23.7639 H   0  0  0  0  0  0
    1.4568   -0.0809   24.0193 H   0  0  0  0  0  0
    0.5495   -0.7652   22.6724 H   0  0  0  0  0  0
    0.3026    0.9098   23.1246 H   0  0  0  0  0  0
  1  6  2  0  0  0
  1  2  1  0  0  0
  1 22  1  0  0  0
  2  3  2  0  0  0
  2 23  1  0  0  0
  3  4  1  0  0  0
  3 24  1  0  0  0
  4  5  2  0  0  0
  4 25  1  0  0  0
  5  6  1  0  0  0
  5  7  1  0  0  0
  6 26  1  0  0  0
  7  8  1  0  0  0
  7  9  2  0  0  0
  8 13  2  0  0  0
  8 10  1  0  0  0
 10 11  2  0  0  0
 10 27  1  0  0  0
 11 12  1  0  0  0
 12 13  1  0  0  0
 12 14  1  0  0  0
 13 20  1  0  0  0
 14 15  2  0  0  0
 14 19  1  0  0  0
 15 16  1  0  0  0
 15 21  1  0  0  0
 16 17  2  0  0  0
 16 28  1  0  0  0
 17 18  1  0  0  0
 17 29  1  0  0  0
 18 19  2  0  0  0
 18 30  1  0  0  0
 19 31  1  0  0  0
 20 32  1  0  0  0
 20 33  1  0  0  0
 21 34  1  0  0  0
 21 35  1  0  0  0
 21 36  1  0  0  0
M  END
> <s_m_entry_id>
61056

> <s_m_entry_name>
dock_pv.333

> <s_m_Source_Path>
/home/csk/Desktop/cluster/DUD-E-result/mk14

> <s_m_Source_File>
dock_pv.maegz

> <i_m_Source_File_Index>
333

> <chembl_id>
CHEMBL408417

> <chembl_pref_name>
None

> <i_lp_mmshare_version>
53161

> <i_f3d_flags>
0

> <r_lp_tautomer_probability>
1

> <s_lp_Force_Field>
OPLS_2005

> <r_lp_Energy>
26.438612

> <b_lp_Chiralities_Consistent>
1

> <s_lp_Variant>
CHEMBL260_lig720-1

> <s_i_glide_gridfile>
glide-grid_2qd9

> <i_i_glide_lignum>
810

> <i_i_glide_rotatable_bonds>
3

> <r_i_docking_score>
-7.05188635814832

> <r_i_glide_ligand_efficiency>
-0.335804112292777

> <r_i_glide_ligand_efficiency_sa>
-0.926458082992536

> <r_i_glide_ligand_efficiency_ln>
-1.74356465237406

> <r_i_glide_gscore>
-7.05188635814832

> <r_i_glide_lipo>
-3.45458876247949

> <r_i_glide_hbond>
0

> <r_i_glide_metal>
0

> <r_i_glide_rewards>
-2.08448443034474

> <r_i_glide_evdw>
-34.8640556335449

> <r_i_glide_ecoul>
-3.14684867858887

> <r_i_glide_erotb>
0.702416918141489

> <r_i_glide_esite>
0

> <r_i_glide_emodel>
-51.5847282006184

> <r_i_glide_energy>
-38.0109043121338

> <r_i_glide_einternal>
4.89889526367188

> <i_i_glide_confnum>
13

> <i_i_glide_posenum>
20

> <r_i_glide_eff_state_penalty>
0

> <s_user_duplicate_titles>
CHEMBL260_lig720,340934

> <s_m_subgroup_title>
dock_pv

> <s_m_subgroupid>
dock_pv

> <b_m_subgroup_collapsed>
1

$$$$
CHEMBL260_lig714
                    3D
 Schrodinger Suite 2021-1.
 33 35  0  0  1  0            999 V2000
   -5.8504    0.6532   16.7225 C   0  0  0  0  0  0
   -5.0736    0.9131   15.5996 C   0  0  0  0  0  0
   -3.7911    1.4337   15.7358 C   0  0  0  0  0  0
   -3.2792    1.6869   17.0042 C   0  0  0  0  0  0
   -4.0456    1.3937   18.1423 C   0  0  0  0  0  0
   -5.3394    0.8870   17.9965 C   0  0  0  0  0  0
   -3.5358    1.7281   19.4987 C   0  0  0  0  0  0
   -3.2145    0.6481   20.4310 C   0  0  0  0  0  0
   -3.2350    2.8871   19.7839 O   0  0  0  0  0  0
   -3.2354   -0.7314   20.1970 C   0  0  0  0  0  0
   -2.8344   -1.4382   21.2248 N   0  0  0  0  0  0
   -2.5516   -0.5382   22.1818 N   0  0  0  0  0  0
   -2.7392    0.7598   21.7348 C   0  0  0  0  0  0
   -2.0319   -0.9721   23.4245 C   0  0  0  0  0  0
   -1.0197   -1.9393   23.4595 C   0  0  0  0  0  0
   -0.4434   -2.2944   24.6748 C   0  0  0  0  0  0
   -0.8923   -1.6937   25.8501 C   0  0  0  0  0  0
   -1.9269   -0.7628   25.8283 C   0  0  0  0  0  0
   -2.4986   -0.3989   24.6136 C   0  0  0  0  0  0
   -2.4348    1.8641   22.4894 N   0  0  0  0  0  0
   -6.8350    0.2307   16.6089 H   0  0  0  0  0  0
   -5.4730    0.7093   14.6178 H   0  0  0  0  0  0
   -3.1986    1.6491   14.8590 H   0  0  0  0  0  0
   -2.2918    2.1177   17.0760 H   0  0  0  0  0  0
   -5.9569    0.6728   18.8585 H   0  0  0  0  0  0
   -3.5197   -1.2066   19.2726 H   0  0  0  0  0  0
   -0.6501   -2.3812   22.5456 H   0  0  0  0  0  0
    0.3637   -3.0126   24.7038 H   0  0  0  0  0  0
   -0.4335   -1.9504   26.7939 H   0  0  0  0  0  0
   -2.2713   -0.3142   26.7488 H   0  0  0  0  0  0
   -3.2945    0.3325   24.6034 H   0  0  0  0  0  0
   -2.4941    2.7847   22.0788 H   0  0  0  0  0  0
   -1.9909    1.7843   23.3936 H   0  0  0  0  0  0
  1  6  2  0  0  0
  1  2  1  0  0  0
  1 21  1  0  0  0
  2  3  2  0  0  0
  2 22  1  0  0  0
  3  4  1  0  0  0
  3 23  1  0  0  0
  4  5  2  0  0  0
  4 24  1  0  0  0
  5  6  1  0  0  0
  5  7  1  0  0  0
  6 25  1  0  0  0
  7  8  1  0  0  0
  7  9  2  0  0  0
  8 13  2  0  0  0
  8 10  1  0  0  0
 10 11  2  0  0  0
 10 26  1  0  0  0
 11 12  1  0  0  0
 12 13  1  0  0  0
 12 14  1  0  0  0
 13 20  1  0  0  0
 14 15  2  0  0  0
 14 19  1  0  0  0
 15 16  1  0  0  0
 15 27  1  0  0  0
 16 17  2  0  0  0
 16 28  1  0  0  0
 17 18  1  0  0  0
 17 29  1  0  0  0
 18 19  2  0  0  0
 18 30  1  0  0  0
 19 31  1  0  0  0
 20 32  1  0  0  0
 20 33  1  0  0  0
M  END
> <s_m_entry_id>
61057

> <s_m_entry_name>
dock_pv.334

> <s_m_Source_Path>
/home/csk/Desktop/cluster/DUD-E-result/mk14

> <s_m_Source_File>
dock_pv.maegz

> <i_m_Source_File_Index>
334

> <chembl_id>
CHEMBL203333

> <chembl_pref_name>
None

> <i_lp_mmshare_version>
53161

> <i_f3d_flags>
0

> <r_lp_tautomer_probability>
1

> <s_lp_Force_Field>
OPLS_2005

> <r_lp_Energy>
25.186796

> <b_lp_Chiralities_Consistent>
1

> <s_lp_Variant>
CHEMBL260_lig714-1

> <s_i_glide_gridfile>
glide-grid_2qd9

> <i_i_glide_lignum>
804

> <i_i_glide_rotatable_bonds>
3

> <r_i_docking_score>
-7.04651491318388

> <r_i_glide_ligand_efficiency>
-0.352325745659194

> <r_i_glide_ligand_efficiency_sa>
-0.956359209842254

> <r_i_glide_ligand_efficiency_ln>
-1.76351027315361

> <r_i_glide_gscore>
-7.04651491318388

> <r_i_glide_lipo>
-3.30219762985139

> <r_i_glide_hbond>
0

> <r_i_glide_metal>
0

> <r_i_glide_rewards>
-2.34793584161323

> <r_i_glide_evdw>
-34.3642730712891

> <r_i_glide_ecoul>
-2.977130651474

> <r_i_glide_erotb>
0.768401809566295

> <r_i_glide_esite>
0

> <r_i_glide_emodel>
-47.7967509881815

> <r_i_glide_energy>
-37.3414037227631

> <r_i_glide_einternal>
8.84819507598877

> <i_i_glide_confnum>
14

> <i_i_glide_posenum>
113

> <r_i_glide_eff_state_penalty>
0

> <s_user_duplicate_titles>
CHEMBL260_lig714,340859

> <s_m_subgroup_title>
dock_pv

> <s_m_subgroupid>
dock_pv

> <b_m_subgroup_collapsed>
1

$$$$
CHEMBL260_lig498
                    3D
 Schrodinger Suite 2021-1.
 59 63  0  0  1  0            999 V2000
   -2.8330    1.1860   27.7673 C   0  0  0  0  0  0
   -1.8153    0.2804   27.0980 C   0  0  0  0  0  0
   -0.4706    0.4556   27.4341 C   0  0  0  0  0  0
    0.5182   -0.2610   26.7725 C   0  0  0  0  0  0
    0.1637   -1.1589   25.7728 C   0  0  0  0  0  0
   -1.1727   -1.4099   25.4807 C   0  0  0  0  0  0
   -1.4596   -2.3872   24.5536 O   0  0  0  0  0  0
   -1.6965   -2.0646   23.2337 C   0  0  0  0  0  0
   -1.6346   -3.1131   22.3804 N   0  0  0  0  0  0
   -1.7197   -2.8183   21.0600 C   0  0  0  0  0  0
   -1.9086   -1.5178   20.5970 C   0  0  0  0  0  0
   -2.0696   -0.5098   21.5580 C   0  0  0  0  0  0
   -1.9263   -0.7690   22.8829 N   0  0  0  0  0  0
   -2.3582    0.9182   21.2226 C   0  0  0  0  0  0
   -2.0383    2.1133   21.9081 C   0  0  0  0  0  0
   -2.4301    3.1713   21.2215 N   0  0  0  0  0  0
   -3.0246    2.7077   20.1721 C   0  0  0  0  0  0
   -3.0942    1.3439   20.1244 N   0  0  0  0  0  0
   -3.9661    0.5953   19.2015 C   0  0  0  0  0  0
   -5.4011    0.9444   19.6285 C   0  0  0  0  0  0
   -6.4245    0.3740   18.6509 C   0  0  0  0  0  0
   -6.1932    0.8879   17.3028 N   0  0  1  0  0  0
   -4.8618    0.6793   16.7378 C   0  0  0  0  0  0
   -3.7155    1.0269   17.7258 C   0  0  0  0  0  0
   -1.3364    2.3657   23.2044 C   0  0  0  0  0  0
   -0.0981    1.7844   23.4806 C   0  0  0  0  0  0
    0.6157    2.1637   24.6144 C   0  0  0  0  0  0
    0.0638    3.0821   25.5035 C   0  0  0  0  0  0
    0.7496    3.4450   26.6101 F   0  0  0  0  0  0
   -1.1995    3.6178   25.2727 C   0  0  0  0  0  0
   -1.8963    3.2628   24.1214 C   0  0  0  0  0  0
   -2.1775   -0.6792   26.1303 C   0  0  0  0  0  0
   -3.6342   -0.9351   25.7711 C   0  0  0  0  0  0
   -2.3809    2.1362   28.0544 H   0  0  0  0  0  0
   -3.6340    1.4400   27.0757 H   0  0  0  0  0  0
   -3.2348    0.7146   28.6634 H   0  0  0  0  0  0
   -0.1799    1.1786   28.1832 H   0  0  0  0  0  0
    1.5574   -0.0985   27.0194 H   0  0  0  0  0  0
    0.9266   -1.6970   25.2348 H   0  0  0  0  0  0
   -1.6322   -3.6439   20.3675 H   0  0  0  0  0  0
   -1.9249   -1.3208   19.5367 H   0  0  0  0  0  0
   -3.5510    3.2871   19.4397 H   0  0  0  0  0  0
   -3.8144   -0.4670   19.3489 H   0  0  0  0  0  0
   -5.5902    0.4857   20.5913 H   0  0  0  0  0  0
   -5.5730    1.9906   19.8760 H   0  0  0  0  0  0
   -6.4349   -0.7122   18.6759 H   0  0  0  0  0  0
   -7.4205    0.6255   18.9708 H   0  0  0  0  0  0
   -6.9349    0.5791   16.6777 H   0  0  0  0  0  0
   -4.7869   -0.3072   16.2762 H   0  0  0  0  0  0
   -4.7938    1.3743   15.8995 H   0  0  0  0  0  0
   -3.4259    2.0705   17.6151 H   0  0  0  0  0  0
   -2.8370    0.4874   17.3720 H   0  0  0  0  0  0
    0.3299    1.0636   22.8058 H   0  0  0  0  0  0
    1.5917    1.7437   24.8117 H   0  0  0  0  0  0
   -1.6250    4.3128   25.9795 H   0  0  0  0  0  0
   -2.8682    3.6916   23.9337 H   0  0  0  0  0  0
   -3.7756   -1.8131   25.1420 H   0  0  0  0  0  0
   -4.0348   -0.0664   25.2510 H   0  0  0  0  0  0
   -4.2049   -1.1141   26.6759 H   0  0  0  0  0  0
  1  2  1  0  0  0
  1 34  1  0  0  0
  1 35  1  0  0  0
  1 36  1  0  0  0
  2  3  2  0  0  0
  2 32  1  0  0  0
  3  4  1  0  0  0
  3 37  1  0  0  0
  4  5  2  0  0  0
  4 38  1  0  0  0
  5  6  1  0  0  0
  5 39  1  0  0  0
  6  7  1  0  0  0
  6 32  2  0  0  0
  7  8  1  0  0  0
  8  9  2  0  0  0
  8 13  1  0  0  0
  9 10  1  0  0  0
 10 11  2  0  0  0
 10 40  1  0  0  0
 11 12  1  0  0  0
 11 41  1  0  0  0
 12 13  2  0  0  0
 12 14  1  0  0  0
 14 15  2  0  0  0
 14 18  1  0  0  0
 15 16  1  0  0  0
 15 25  1  0  0  0
 16 17  2  0  0  0
 17 18  1  0  0  0
 17 42  1  0  0  0
 18 19  1  0  0  0
 19 20  1  0  0  0
 19 24  1  0  0  0
 19 43  1  0  0  0
 20 21  1  0  0  0
 20 44  1  0  0  0
 20 45  1  0  0  0
 21 22  1  0  0  0
 21 46  1  0  0  0
 21 47  1  0  0  0
 22 23  1  0  0  0
 22 48  1  0  0  0
 23 24  1  0  0  0
 23 49  1  0  0  0
 23 50  1  0  0  0
 24 51  1  0  0  0
 24 52  1  0  0  0
 25 26  2  0  0  0
 25 31  1  0  0  0
 26 27  1  0  0  0
 26 53  1  0  0  0
 27 28  2  0  0  0
 27 54  1  0  0  0
 28 29  1  0  0  0
 28 30  1  0  0  0
 30 31  2  0  0  0
 30 55  1  0  0  0
 31 56  1  0  0  0
 32 33  1  0  0  0
 33 57  1  0  0  0
 33 58  1  0  0  0
 33 59  1  0  0  0
M  END
> <s_m_entry_id>
61058

> <s_m_entry_name>
dock_pv.335

> <s_m_Source_Path>
/home/csk/Desktop/cluster/DUD-E-result/mk14

> <s_m_Source_File>
dock_pv.maegz

> <i_m_Source_File_Index>
335

> <chembl_id>
CHEMBL14212

> <chembl_pref_name>
None

> <i_lp_mmshare_version>
53161

> <i_f3d_flags>
0

> <r_lp_tautomer_probability>
1

> <s_lp_Force_Field>
OPLS_2005

> <r_lp_Energy>
35.700468

> <b_lp_Chiralities_Consistent>
1

> <s_lp_Variant>
CHEMBL260_lig498-1

> <s_i_glide_gridfile>
glide-grid_2qd9

> <i_i_glide_lignum>
568

> <i_i_glide_rotatable_bonds>
5

> <r_i_docking_score>
-7.03510011503341

> <r_i_glide_ligand_efficiency>
-0.213184851970709

> <r_i_glide_ligand_efficiency_sa>
-0.683797730534161

> <r_i_glide_ligand_efficiency_ln>
-1.5645698397845

> <r_i_glide_gscore>
-7.03510011503341

> <r_i_glide_lipo>
-2.87918664872033

> <r_i_glide_hbond>
-0.611661369610772

> <r_i_glide_metal>
0

> <r_i_glide_rewards>
-1.70984916918458

> <r_i_glide_evdw>
-32.4274482727051

> <r_i_glide_ecoul>
-4.60322952270508

> <r_i_glide_erotb>
0.508176484982537

> <r_i_glide_esite>
-0.0307225704592528

> <r_i_glide_emodel>
-39.7031365610476

> <r_i_glide_energy>
-37.0306777954102

> <r_i_glide_einternal>
1.57568454742432

> <i_i_glide_confnum>
57

> <i_i_glide_posenum>
272

> <r_i_glide_eff_state_penalty>
0

> <s_user_duplicate_titles>
CHEMBL260_lig498,13595

> <s_m_subgroup_title>
dock_pv

> <s_m_subgroupid>
dock_pv

> <b_m_subgroup_collapsed>
1

$$$$
CHEMBL260_lig1290
                    3D
 Schrodinger Suite 2021-1.
 42 45  0  0  1  0            999 V2000
    0.1132    0.5055   25.5864 C   0  0  0  0  0  0
   -1.0244    0.4535   24.7628 C   0  0  0  0  0  0
   -1.9686    1.4840   24.8357 C   0  0  0  0  0  0
   -1.7602    2.6087   25.6458 C   0  0  0  0  0  0
   -0.5959    2.6622   26.4282 C   0  0  0  0  0  0
    0.3222    1.6151   26.4088 C   0  0  0  0  0  0
   -1.2068   -0.6502   23.9151 N   0  0  0  0  0  0
   -1.7919   -0.8293   22.6593 C   0  0  0  0  0  0
   -2.9247   -1.5068   20.1797 N   0  0  0  0  0  0
   -2.4202   -2.3938   21.0718 C   0  0  0  0  0  0
   -1.8773   -2.1303   22.2841 N   0  0  0  0  0  0
   -2.8031   -0.2323   20.5715 C   0  0  0  0  0  0
   -2.2263    0.1979   21.7888 C   0  0  0  0  0  0
   -2.2745    1.6255   21.7012 C   0  0  0  0  0  0
   -2.8549    2.0219   20.5957 N   0  0  0  0  0  0
   -3.2164    0.9152   19.9106 N   0  0  0  0  0  0
   -4.0070    1.0189   18.7569 C   0  0  0  0  0  0
   -5.3785    0.8415   18.8954 C   0  0  0  0  0  0
   -6.1811    0.8867   17.7656 C   0  0  0  0  0  0
   -5.6299    1.1112   16.5078 C   0  0  0  0  0  0
   -4.2608    1.3113   16.3701 C   0  0  0  0  0  0
   -3.4512    1.2869   17.5016 C   0  0  0  0  0  0
    1.1273   -0.6314   25.6313 C   0  0  0  0  0  0
   -2.7656    3.7355   25.6457 C   0  0  0  0  0  0
   -3.4873    3.9652   24.6760 O   0  0  0  0  0  0
   -2.8348    4.4829   26.7466 N   0  0  0  0  0  0
   -2.8761    1.4077   24.2543 H   0  0  0  0  0  0
   -0.3819    3.5120   27.0597 H   0  0  0  0  0  0
    1.2056    1.6725   27.0313 H   0  0  0  0  0  0
   -0.8389   -1.5132   24.2836 H   0  0  0  0  0  0
   -2.4339   -3.4300   20.7703 H   0  0  0  0  0  0
   -1.8896    2.3551   22.3977 H   0  0  0  0  0  0
   -5.8230    0.6395   19.8600 H   0  0  0  0  0  0
   -7.2351    0.7093   17.8759 H   0  0  0  0  0  0
   -6.2670    1.1199   15.6363 H   0  0  0  0  0  0
   -3.8299    1.4880   15.3945 H   0  0  0  0  0  0
   -2.3986    1.4338   17.3776 H   0  0  0  0  0  0
    1.5639   -0.7087   26.6265 H   0  0  0  0  0  0
    0.6645   -1.5999   25.4469 H   0  0  0  0  0  0
    1.9187   -0.4820   24.8967 H   0  0  0  0  0  0
   -3.5230    5.2169   26.8071 H   0  0  0  0  0  0
   -2.2687    4.2555   27.5488 H   0  0  0  0  0  0
  1  6  1  0  0  0
  1  2  2  0  0  0
  1 23  1  0  0  0
  2  7  1  0  0  0
  2  3  1  0  0  0
  3  4  2  0  0  0
  3 27  1  0  0  0
  4  5  1  0  0  0
  4 24  1  0  0  0
  5  6  2  0  0  0
  5 28  1  0  0  0
  6 29  1  0  0  0
  7  8  1  0  0  0
  7 30  1  0  0  0
  8 13  2  0  0  0
  8 11  1  0  0  0
  9 12  2  0  0  0
  9 10  1  0  0  0
 10 11  2  0  0  0
 10 31  1  0  0  0
 12 16  1  0  0  0
 12 13  1  0  0  0
 13 14  1  0  0  0
 14 15  2  0  0  0
 14 32  1  0  0  0
 15 16  1  0  0  0
 16 17  1  0  0  0
 17 18  2  0  0  0
 17 22  1  0  0  0
 18 19  1  0  0  0
 18 33  1  0  0  0
 19 20  2  0  0  0
 19 34  1  0  0  0
 20 21  1  0  0  0
 20 35  1  0  0  0
 21 22  2  0  0  0
 21 36  1  0  0  0
 22 37  1  0  0  0
 23 38  1  0  0  0
 23 39  1  0  0  0
 23 40  1  0  0  0
 24 25  2  0  0  0
 24 26  1  0  0  0
 26 41  1  0  0  0
 26 42  1  0  0  0
M  END
> <s_m_entry_id>
61059

> <s_m_entry_name>
dock_pv.336

> <s_m_Source_Path>
/home/csk/Desktop/cluster/DUD-E-result/mk14

> <s_m_Source_File>
dock_pv.maegz

> <i_m_Source_File_Index>
336

> <chembl_id>
CHEMBL439267

> <chembl_pref_name>
None

> <i_lp_mmshare_version>
53161

> <i_f3d_flags>
0

> <r_lp_tautomer_probability>
1

> <s_lp_Force_Field>
OPLS_2005

> <r_lp_Energy>
16.330492

> <b_lp_Chiralities_Consistent>
1

> <s_lp_Variant>
CHEMBL260_lig1290-1

> <s_i_glide_gridfile>
glide-grid_2qd9

> <i_i_glide_lignum>
1468

> <i_i_glide_rotatable_bonds>
4

> <r_i_docking_score>
-7.02828831664959

> <r_i_glide_ligand_efficiency>
-0.270318781409599

> <r_i_glide_ligand_efficiency_sa>
-0.800818326272896

> <r_i_glide_ligand_efficiency_ln>
-1.65057044947019

> <r_i_glide_gscore>
-7.02828831664959

> <r_i_glide_lipo>
-2.34251995522019

> <r_i_glide_hbond>
-0.128505262626815

> <r_i_glide_metal>
0

> <r_i_glide_rewards>
-2.14068384886617

> <r_i_glide_evdw>
-39.0032157897949

> <r_i_glide_ecoul>
-6.04589128494263

> <r_i_glide_erotb>
0.48030535791303

> <r_i_glide_esite>
-0.0398401256183045

> <r_i_glide_emodel>
-59.888791159164

> <r_i_glide_energy>
-45.0491070747375

> <r_i_glide_einternal>
7.69600009918213

> <i_i_glide_confnum>
15

> <i_i_glide_posenum>
84

> <r_i_glide_eff_state_penalty>
0

> <s_user_duplicate_titles>
CHEMBL260_lig1290,428452

> <s_m_subgroup_title>
dock_pv

> <s_m_subgroupid>
dock_pv

> <b_m_subgroup_collapsed>
1

$$$$
CHEMBL260_lig832
                    3D
 Schrodinger Suite 2021-1.
 40 44  0  0  1  0            999 V2000
   -2.0340   -3.1130   23.7946 N   0  0  0  0  0  0
   -1.5395   -2.5168   24.9425 N   0  0  0  0  0  0
   -1.5557   -1.2119   24.8045 C   0  0  0  0  0  0
   -2.3355   -2.1163   22.9405 C   0  0  0  0  0  0
   -2.0540   -0.8893   23.5623 N   0  0  0  0  0  0
   -2.2582    0.3015   22.9293 C   0  0  0  0  0  0
   -2.7305    0.3059   21.6172 C   0  0  0  0  0  0
   -3.0197   -0.9028   20.9781 C   0  0  0  0  0  0
   -2.8351   -2.1254   21.6277 C   0  0  0  0  0  0
   -2.7852    1.5964   20.8975 C   0  0  0  0  0  0
   -2.0353    2.5980   21.4211 O   0  0  0  0  0  0
   -2.0359    3.5454   20.4640 C   0  0  0  0  0  0
   -2.8349    3.2870   19.4753 N   0  0  0  0  0  0
   -3.2855    2.0644   19.6858 C   0  0  0  0  0  0
   -1.0383   -0.1985   25.8132 C   0  0  0  0  0  0
   -4.1482    1.4271   18.6553 C   0  0  0  0  0  0
   -3.7645    1.4742   17.3082 C   0  0  0  0  0  0
   -4.6498    1.0673   16.3155 C   0  0  0  0  0  0
   -5.9080    0.5953   16.6760 C   0  0  0  0  0  0
   -6.2734    0.4872   18.0190 C   0  0  0  0  0  0
   -5.3838    0.8870   19.0131 C   0  0  0  0  0  0
   -0.4942   -0.7198   27.1567 C   0  0  0  0  0  0
    0.5522    0.4016   27.0811 C   0  0  0  0  0  0
    0.3658    0.3741   25.5564 C   0  0  0  0  0  0
   -1.9842    1.1918   23.4759 H   0  0  0  0  0  0
   -3.3605   -0.9042   19.9523 H   0  0  0  0  0  0
   -3.0483   -3.0564   21.1202 H   0  0  0  0  0  0
   -1.3479    4.3685   20.5976 H   0  0  0  0  0  0
   -1.7851    0.5857   25.9608 H   0  0  0  0  0  0
   -2.8028    1.8780   17.0255 H   0  0  0  0  0  0
   -4.3672    1.1286   15.2743 H   0  0  0  0  0  0
   -6.5935    0.2750   15.9059 H   0  0  0  0  0  0
   -7.2413    0.0877   18.2806 H   0  0  0  0  0  0
   -5.6786    0.8367   20.0509 H   0  0  0  0  0  0
   -0.0350   -1.7095   27.1085 H   0  0  0  0  0  0
   -1.1771   -0.6668   28.0052 H   0  0  0  0  0  0
    1.5495    0.1444   27.4431 H   0  0  0  0  0  0
    0.2336    1.3361   27.5480 H   0  0  0  0  0  0
    0.4080    1.3442   25.0600 H   0  0  0  0  0  0
    1.0545   -0.3235   25.0725 H   0  0  0  0  0  0
  1  2  1  0  0  0
  1  4  2  0  0  0
  2  3  2  0  0  0
  3 15  1  0  0  0
  3  5  1  0  0  0
  4  9  1  0  0  0
  4  5  1  0  0  0
  5  6  1  0  0  0
  6  7  2  0  0  0
  6 25  1  0  0  0
  7 10  1  0  0  0
  7  8  1  0  0  0
  8  9  2  0  0  0
  8 26  1  0  0  0
  9 27  1  0  0  0
 10 11  1  0  0  0
 10 14  2  0  0  0
 11 12  1  0  0  0
 12 13  2  0  0  0
 12 28  1  0  0  0
 13 14  1  0  0  0
 14 16  1  0  0  0
 15 22  1  0  0  0
 15 24  1  0  0  0
 15 29  1  0  0  0
 16 17  2  0  0  0
 16 21  1  0  0  0
 17 18  1  0  0  0
 17 30  1  0  0  0
 18 19  2  0  0  0
 18 31  1  0  0  0
 19 20  1  0  0  0
 19 32  1  0  0  0
 20 21  2  0  0  0
 20 33  1  0  0  0
 21 34  1  0  0  0
 22 23  1  0  0  0
 22 35  1  0  0  0
 22 36  1  0  0  0
 23 24  1  0  0  0
 23 37  1  0  0  0
 23 38  1  0  0  0
 24 39  1  0  0  0
 24 40  1  0  0  0
M  END
> <s_m_entry_id>
61060

> <s_m_entry_name>
dock_pv.337

> <s_m_Source_Path>
/home/csk/Desktop/cluster/DUD-E-result/mk14

> <s_m_Source_File>
dock_pv.maegz

> <i_m_Source_File_Index>
337

> <chembl_id>
CHEMBL377538

> <chembl_pref_name>
None

> <i_lp_mmshare_version>
53161

> <i_f3d_flags>
0

> <r_lp_tautomer_probability>
1

> <s_lp_Force_Field>
OPLS_2005

> <r_lp_Energy>
22.918029

> <b_lp_Chiralities_Consistent>
1

> <s_lp_Variant>
CHEMBL260_lig832-1

> <s_i_glide_gridfile>
glide-grid_2qd9

> <i_i_glide_lignum>
930

> <i_i_glide_rotatable_bonds>
3

> <r_i_docking_score>
-7.01595275874176

> <r_i_glide_ligand_efficiency>
-0.292331364947573

> <r_i_glide_ligand_efficiency_sa>
-0.843229570072755

> <r_i_glide_ligand_efficiency_ln>
-1.67923943626104

> <r_i_glide_gscore>
-7.01595275874176

> <r_i_glide_lipo>
-3.30864011995983

> <r_i_glide_hbond>
0

> <r_i_glide_metal>
0

> <r_i_glide_rewards>
-1.97827628143452

> <r_i_glide_evdw>
-26.9417457580566

> <r_i_glide_ecoul>
-5.95248126983643

> <r_i_glide_erotb>
0.558014046499407

> <r_i_glide_esite>
-0.0470909254685202

> <r_i_glide_emodel>
-37.4336752487228

> <r_i_glide_energy>
-32.8942270278931

> <r_i_glide_einternal>
2.14381670951843

> <i_i_glide_confnum>
31

> <i_i_glide_posenum>
307

> <r_i_glide_eff_state_penalty>
0

> <s_user_duplicate_titles>
CHEMBL260_lig832,355811

> <s_m_subgroup_title>
dock_pv

> <s_m_subgroupid>
dock_pv

> <b_m_subgroup_collapsed>
1

$$$$
CHEMBL260_lig747
                    3D
 Schrodinger Suite 2021-1.
 53 56  0  0  1  0            999 V2000
    0.7652   -0.7130   25.5765 C   0  0  0  0  0  0
    0.0221   -0.1242   26.5931 C   0  0  0  0  0  0
   -1.3736   -0.0474   26.4927 C   0  0  0  0  0  0
   -2.0038   -0.6239   25.3868 C   0  0  0  0  0  0
   -1.2540   -1.2251   24.3675 C   0  0  0  0  0  0
    0.1354   -1.2811   24.4761 C   0  0  0  0  0  0
   -1.8997   -1.7613   23.1484 C   0  0  0  0  0  0
   -2.4683   -0.7834   22.2143 C   0  0  0  0  0  0
   -1.8485   -2.9640   22.8747 O   0  0  0  0  0  0
   -2.6884    0.5918   22.4107 C   0  0  0  0  0  0
   -3.2349    1.1794   21.3736 N   0  0  0  0  0  0
   -3.3914    0.2071   20.4659 N   0  0  0  0  0  0
   -2.8729   -0.9979   20.9042 C   0  0  0  0  0  0
   -2.8348   -2.1195   20.1295 N   0  0  0  0  0  0
   -4.0089    0.5202   19.2385 C   0  0  0  0  0  0
   -5.3993    0.6329   19.1680 C   0  0  0  0  0  0
   -6.0058    0.8870   17.9386 C   0  0  0  0  0  0
   -5.2229    1.0616   16.7993 C   0  0  0  0  0  0
   -3.8383    0.9717   16.8723 C   0  0  0  0  0  0
   -3.2350    0.6767   18.0901 C   0  0  0  0  0  0
   -5.8043    1.2871   15.6052 F   0  0  0  0  0  0
   -2.1804    0.6203   27.3905 O   0  0  0  0  0  0
   -1.6078    1.4969   28.3664 C   0  0  0  0  0  0
   -0.8000    2.7226   27.8362 C   0  0  0  0  0  0
   -1.3876    3.5244   26.7502 N   0  0  0  0  0  0
   -2.8348    3.7331   26.8567 C   0  0  0  0  0  0
   -3.3596    4.6313   25.7236 C   0  0  0  0  0  0
   -2.9914    4.0870   24.4570 O   0  0  0  0  0  0
   -1.5745    4.0126   24.3068 C   0  0  0  0  0  0
   -0.9641    3.1126   25.4024 C   0  0  0  0  0  0
    1.8409   -0.7484   25.6463 H   0  0  0  0  0  0
    0.5539    0.2810   27.4398 H   0  0  0  0  0  0
   -3.0800   -0.5585   25.3103 H   0  0  0  0  0  0
    0.7404   -1.7424   23.7063 H   0  0  0  0  0  0
   -2.4680    1.1545   23.3069 H   0  0  0  0  0  0
   -2.5107   -3.0046   20.4978 H   0  0  0  0  0  0
   -3.1909   -2.1337   19.1854 H   0  0  0  0  0  0
   -6.0124    0.4916   20.0466 H   0  0  0  0  0  0
   -7.0826    0.9334   17.8758 H   0  0  0  0  0  0
   -3.2435    1.0733   15.9760 H   0  0  0  0  0  0
   -2.1798    0.4870   18.1085 H   0  0  0  0  0  0
   -2.4312    1.8642   28.9789 H   0  0  0  0  0  0
   -0.9904    0.9179   29.0535 H   0  0  0  0  0  0
   -0.6611    3.4057   28.6746 H   0  0  0  0  0  0
    0.2165    2.4336   27.5703 H   0  0  0  0  0  0
   -3.3490    2.7735   26.8217 H   0  0  0  0  0  0
   -3.0659    4.1788   27.8253 H   0  0  0  0  0  0
   -2.9808    5.6486   25.8367 H   0  0  0  0  0  0
   -4.4444    4.6977   25.7827 H   0  0  0  0  0  0
   -1.1304    5.0095   24.3358 H   0  0  0  0  0  0
   -1.3470    3.6010   23.3228 H   0  0  0  0  0  0
    0.1252    3.1355   25.3413 H   0  0  0  0  0  0
   -1.2514    2.0839   25.2080 H   0  0  0  0  0  0
  1  6  2  0  0  0
  1  2  1  0  0  0
  1 31  1  0  0  0
  2  3  2  0  0  0
  2 32  1  0  0  0
  3  4  1  0  0  0
  3 22  1  0  0  0
  4  5  2  0  0  0
  4 33  1  0  0  0
  5  7  1  0  0  0
  5  6  1  0  0  0
  6 34  1  0  0  0
  7  8  1  0  0  0
  7  9  2  0  0  0
  8 10  1  0  0  0
  8 13  2  0  0  0
 10 11  2  0  0  0
 10 35  1  0  0  0
 11 12  1  0  0  0
 12 15  1  0  0  0
 12 13  1  0  0  0
 13 14  1  0  0  0
 14 36  1  0  0  0
 14 37  1  0  0  0
 15 16  2  0  0  0
 15 20  1  0  0  0
 16 17  1  0  0  0
 16 38  1  0  0  0
 17 18  2  0  0  0
 17 39  1  0  0  0
 18 19  1  0  0  0
 18 21  1  0  0  0
 19 20  2  0  0  0
 19 40  1  0  0  0
 20 41  1  0  0  0
 22 23  1  0  0  0
 23 24  1  0  0  0
 23 42  1  0  0  0
 23 43  1  0  0  0
 24 25  1  0  0  0
 24 44  1  0  0  0
 24 45  1  0  0  0
 25 26  1  0  0  0
 25 30  1  0  0  0
 26 27  1  0  0  0
 26 46  1  0  0  0
 26 47  1  0  0  0
 27 28  1  0  0  0
 27 48  1  0  0  0
 27 49  1  0  0  0
 28 29  1  0  0  0
 29 30  1  0  0  0
 29 50  1  0  0  0
 29 51  1  0  0  0
 30 52  1  0  0  0
 30 53  1  0  0  0
M  END
> <s_m_entry_id>
61061

> <s_m_entry_name>
dock_pv.338

> <s_m_Source_Path>
/home/csk/Desktop/cluster/DUD-E-result/mk14

> <s_m_Source_File>
dock_pv.maegz

> <i_m_Source_File_Index>
338

> <chembl_id>
CHEMBL203770

> <chembl_pref_name>
None

> <i_lp_mmshare_version>
53161

> <i_f3d_flags>
0

> <r_lp_tautomer_probability>
1

> <s_lp_Force_Field>
OPLS_2005

> <r_lp_Energy>
48.161643

> <b_lp_Chiralities_Consistent>
1

> <s_lp_Variant>
CHEMBL260_lig747-1

> <s_i_glide_gridfile>
glide-grid_2qd9

> <i_i_glide_lignum>
838

> <i_i_glide_rotatable_bonds>
7

> <r_i_docking_score>
-7.01041109522608

> <r_i_glide_ligand_efficiency>
-0.233680369840869

> <r_i_glide_ligand_efficiency_sa>
-0.726099240349666

> <r_i_glide_ligand_efficiency_ln>
-1.59284178538217

> <r_i_glide_gscore>
-7.01041109522608

> <r_i_glide_lipo>
-2.87717713638335

> <r_i_glide_hbond>
-0.319540191682937

> <r_i_glide_metal>
0

> <r_i_glide_rewards>
-1.75509637779777

> <r_i_glide_evdw>
-34.8582000732422

> <r_i_glide_ecoul>
-6.78224611282349

> <r_i_glide_erotb>
0.701649531223609

> <r_i_glide_esite>
0

> <r_i_glide_emodel>
-53.6938327640741

> <r_i_glide_energy>
-41.6404461860657

> <r_i_glide_einternal>
12.7624750137329

> <i_i_glide_confnum>
2

> <i_i_glide_posenum>
175

> <r_i_glide_eff_state_penalty>
0

> <s_user_duplicate_titles>
CHEMBL260_lig747,340606

> <s_m_subgroup_title>
dock_pv

> <s_m_subgroupid>
dock_pv

> <b_m_subgroup_collapsed>
1

$$$$
CHEMBL260_lig742
                    3D
 Schrodinger Suite 2021-1.
 39 41  0  0  1  0            999 V2000
    0.0165   -0.6132   26.4143 C   0  0  0  0  0  0
   -0.5257    0.5937   26.8543 C   0  0  0  0  0  0
   -1.4912    1.2396   26.0812 C   0  0  0  0  0  0
   -1.9161    0.6666   24.8824 C   0  0  0  0  0  0
   -1.3186   -0.5009   24.3830 C   0  0  0  0  0  0
   -0.3704   -1.1543   25.1869 C   0  0  0  0  0  0
   -1.6913   -1.0717   23.0426 C   0  0  0  0  0  0
   -2.1950   -0.1839   21.9741 C   0  0  0  0  0  0
   -1.5019   -2.2665   22.7945 O   0  0  0  0  0  0
   -2.1224    1.2200   21.8676 C   0  0  0  0  0  0
   -2.7318    1.7001   20.8104 N   0  0  0  0  0  0
   -3.1582    0.6220   20.1458 N   0  0  0  0  0  0
   -2.8276   -0.5569   20.7908 C   0  0  0  0  0  0
   -3.1240   -1.7879   20.2760 N   0  0  0  0  0  0
   -3.8909    0.8011   18.9593 C   0  0  0  0  0  0
   -5.2844    0.8273   19.0212 C   0  0  0  0  0  0
   -6.0170    0.8870   17.8390 C   0  0  0  0  0  0
   -5.3507    0.9258   16.6156 C   0  0  0  0  0  0
   -3.9668    0.9613   16.5528 C   0  0  0  0  0  0
   -3.2351    0.8871   17.7273 C   0  0  0  0  0  0
   -6.0380    0.8877   15.4651 F   0  0  0  0  0  0
   -2.0165    2.5414   26.4605 C   0  0  0  0  0  0
   -2.4328    3.6770   26.6278 C   0  0  0  0  0  0
   -2.9217    5.0583   26.7124 C   0  0  0  0  0  0
   -4.0358    5.2872   25.8762 O   0  0  0  0  0  0
    0.7631   -1.1129   27.0139 H   0  0  0  0  0  0
   -0.1817    1.0239   27.7846 H   0  0  0  0  0  0
   -2.7057    1.1599   24.3353 H   0  0  0  0  0  0
    0.0990   -2.0722   24.8579 H   0  0  0  0  0  0
   -1.6339    1.8945   22.5560 H   0  0  0  0  0  0
   -2.8368   -2.6351   20.7486 H   0  0  0  0  0  0
   -3.5795   -1.9017   19.3818 H   0  0  0  0  0  0
   -5.8001    0.7538   19.9671 H   0  0  0  0  0  0
   -7.0949    0.8521   17.8756 H   0  0  0  0  0  0
   -3.4668    0.9847   15.5951 H   0  0  0  0  0  0
   -2.1692    0.8168   17.6323 H   0  0  0  0  0  0
   -2.1070    5.7263   26.4311 H   0  0  0  0  0  0
   -3.1846    5.2719   27.7493 H   0  0  0  0  0  0
   -4.7799    4.8194   26.2802 H   0  0  0  0  0  0
  1  2  2  0  0  0
  1  6  1  0  0  0
  1 26  1  0  0  0
  2  3  1  0  0  0
  2 27  1  0  0  0
  3  4  2  0  0  0
  3 22  1  0  0  0
  4  5  1  0  0  0
  4 28  1  0  0  0
  5  7  1  0  0  0
  5  6  2  0  0  0
  6 29  1  0  0  0
  7  8  1  0  0  0
  7  9  2  0  0  0
  8 13  2  0  0  0
  8 10  1  0  0  0
 10 11  2  0  0  0
 10 30  1  0  0  0
 11 12  1  0  0  0
 12 13  1  0  0  0
 12 15  1  0  0  0
 13 14  1  0  0  0
 14 31  1  0  0  0
 14 32  1  0  0  0
 15 16  2  0  0  0
 15 20  1  0  0  0
 16 17  1  0  0  0
 16 33  1  0  0  0
 17 18  2  0  0  0
 17 34  1  0  0  0
 18 19  1  0  0  0
 18 21  1  0  0  0
 19 20  2  0  0  0
 19 35  1  0  0  0
 20 36  1  0  0  0
 22 23  3  0  0  0
 23 24  1  0  0  0
 24 25  1  0  0  0
 24 37  1  0  0  0
 24 38  1  0  0  0
 25 39  1  0  0  0
M  END
> <s_m_entry_id>
61062

> <s_m_entry_name>
dock_pv.339

> <s_m_Source_Path>
/home/csk/Desktop/cluster/DUD-E-result/mk14

> <s_m_Source_File>
dock_pv.maegz

> <i_m_Source_File_Index>
339

> <chembl_id>
CHEMBL202737

> <chembl_pref_name>
None

> <i_lp_mmshare_version>
53161

> <i_f3d_flags>
0

> <r_lp_tautomer_probability>
1

> <s_lp_Force_Field>
OPLS_2005

> <r_lp_Energy>
23.40132

> <b_lp_Chiralities_Consistent>
1

> <s_lp_Variant>
CHEMBL260_lig742-1

> <s_i_glide_gridfile>
glide-grid_2qd9

> <i_i_glide_lignum>
833

> <i_i_glide_rotatable_bonds>
6

> <r_i_docking_score>
-6.98511369942972

> <r_i_glide_ligand_efficiency>
-0.279404547977189

> <r_i_glide_ligand_efficiency_sa>
-0.816983853546058

> <r_i_glide_ligand_efficiency_ln>
-1.65568127373077

> <r_i_glide_gscore>
-6.98511369942972

> <r_i_glide_lipo>
-2.55875445749752

> <r_i_glide_hbond>
-0.330592049321661

> <r_i_glide_metal>
0

> <r_i_glide_rewards>
-2.22343595181237

> <r_i_glide_evdw>
-33.1287879943848

> <r_i_glide_ecoul>
-7.03363084793091

> <r_i_glide_erotb>
0.839152786110705

> <r_i_glide_esite>
0

> <r_i_glide_emodel>
-54.3399466402576

> <r_i_glide_energy>
-40.1624188423157

> <r_i_glide_einternal>
4.53935575485229

> <i_i_glide_confnum>
7

> <i_i_glide_posenum>
226

> <r_i_glide_eff_state_penalty>
0

> <s_user_duplicate_titles>
CHEMBL260_lig742,340943

> <s_m_subgroup_title>
dock_pv

> <s_m_subgroupid>
dock_pv

> <b_m_subgroup_collapsed>
1

$$$$
CHEMBL260_lig1837
                    3D
 Schrodinger Suite 2021-1.
 20 21  0  0  1  0            999 V2000
   -2.5157   -1.9457   21.6255 N   0  0  0  0  0  0
   -2.0995   -2.3321   22.8474 C   0  0  0  0  0  0
   -1.7706   -1.1585   23.8076 C   0  0  0  0  0  0
   -1.3011    0.1294   23.0763 C   0  0  0  0  0  0
   -2.1704    0.4377   21.8640 C   0  0  0  0  0  0
   -2.4351    1.7350   21.4137 C   0  0  0  0  0  0
   -3.2165    1.9512   20.2760 C   0  0  0  0  0  0
   -3.7392    0.8667   19.5752 C   0  0  0  0  0  0
   -3.4851   -0.4303   20.0187 C   0  0  0  0  0  0
   -2.7141   -0.6455   21.1611 C   0  0  0  0  0  0
   -2.0348   -3.5126   23.1736 O   0  0  0  0  0  0
   -2.7916   -2.7165   21.0327 H   0  0  0  0  0  0
   -1.0116   -1.4981   24.5129 H   0  0  0  0  0  0
   -2.6770   -0.9584   24.3791 H   0  0  0  0  0  0
   -1.2854    0.9714   23.7712 H   0  0  0  0  0  0
   -0.2691   -0.0022   22.7470 H   0  0  0  0  0  0
   -2.0234    2.5804   21.9451 H   0  0  0  0  0  0
   -3.4105    2.9567   19.9354 H   0  0  0  0  0  0
   -4.3435    1.0269   18.6942 H   0  0  0  0  0  0
   -3.9030   -1.2645   19.4766 H   0  0  0  0  0  0
  1  2  1  0  0  0
  1 10  1  0  0  0
  1 12  1  0  0  0
  2  3  1  0  0  0
  2 11  2  0  0  0
  3  4  1  0  0  0
  3 13  1  0  0  0
  3 14  1  0  0  0
  4  5  1  0  0  0
  4 15  1  0  0  0
  4 16  1  0  0  0
  5  6  1  0  0  0
  5 10  2  0  0  0
  6  7  2  0  0  0
  6 17  1  0  0  0
  7  8  1  0  0  0
  7 18  1  0  0  0
  8  9  2  0  0  0
  8 19  1  0  0  0
  9 10  1  0  0  0
  9 20  1  0  0  0
M  END
> <s_m_entry_id>
61063

> <s_m_entry_name>
dock_pv.340

> <s_m_Source_Path>
/home/csk/Desktop/cluster/DUD-E-result/mk14

> <s_m_Source_File>
dock_pv.maegz

> <i_m_Source_File_Index>
340

> <chembl_id>
CHEMBL388582

> <chembl_pref_name>
None

> <i_lp_mmshare_version>
53161

> <i_f3d_flags>
0

> <r_lp_tautomer_probability>
1

> <s_lp_Force_Field>
OPLS_2005

> <r_lp_Energy>
14.334119

> <b_lp_Chiralities_Consistent>
1

> <s_lp_Variant>
CHEMBL260_lig1837-1

> <s_i_glide_gridfile>
glide-grid_2qd9

> <i_i_glide_lignum>
2144

> <i_i_glide_rotatable_bonds>
0

> <r_i_docking_score>
-6.97827222315453

> <r_i_glide_ligand_efficiency>
-0.634388383923139

> <r_i_glide_ligand_efficiency_sa>
-1.4108671344058

> <r_i_glide_ligand_efficiency_ln>
-2.05370432662202

> <r_i_glide_gscore>
-6.97827222315453

> <r_i_glide_lipo>
-1.4847135792125

> <r_i_glide_hbond>
-0.608

> <r_i_glide_metal>
0

> <r_i_glide_rewards>
-3.05803615153328

> <r_i_glide_evdw>
-17.6928825378418

> <r_i_glide_ecoul>
-6.28585577011108

> <r_i_glide_erotb>
0

> <r_i_glide_esite>
0

> <r_i_glide_emodel>
-33.928296946912

> <r_i_glide_energy>
-23.9787383079529

> <r_i_glide_einternal>
0

> <i_i_glide_confnum>
2

> <i_i_glide_posenum>
244

> <r_i_glide_eff_state_penalty>
0

> <s_user_duplicate_titles>
CHEMBL260_lig1837,377202

> <s_m_subgroup_title>
dock_pv

> <s_m_subgroupid>
dock_pv

> <b_m_subgroup_collapsed>
1

$$$$
CHEMBL260_lig1282
                    3D
 Schrodinger Suite 2021-1.
 47 50  0  0  1  0            999 V2000
    0.3153    0.9537   25.4282 C   0  0  0  0  0  0
   -0.9270    0.6465   24.8480 C   0  0  0  0  0  0
   -1.8453   -0.1295   25.5629 C   0  0  0  0  0  0
   -1.5568   -0.6107   26.8467 C   0  0  0  0  0  0
   -0.3031   -0.3130   27.4034 C   0  0  0  0  0  0
    0.6159    0.4650   26.7028 C   0  0  0  0  0  0
   -1.2808    1.1588   23.5888 N   0  0  0  0  0  0
   -1.9736    0.5482   22.5368 C   0  0  0  0  0  0
   -3.2350   -0.7111   20.3657 N   0  0  0  0  0  0
   -2.7506   -1.3412   21.4596 C   0  0  0  0  0  0
   -2.1501   -0.7967   22.5383 N   0  0  0  0  0  0
   -3.0572    0.6146   20.4104 C   0  0  0  0  0  0
   -2.4292    1.3195   21.4591 C   0  0  0  0  0  0
   -2.4350    2.6805   21.0404 C   0  0  0  0  0  0
   -3.0186    2.8080   19.8755 N   0  0  0  0  0  0
   -3.3800    1.5673   19.4582 N   0  0  0  0  0  0
   -3.9591    1.3781   18.1912 C   0  0  0  0  0  0
   -5.2614    0.8870   18.0996 C   0  0  0  0  0  0
   -5.8437    0.7379   16.8449 C   0  0  0  0  0  0
   -5.1231    1.0372   15.6933 C   0  0  0  0  0  0
   -3.8174    1.5076   15.7834 C   0  0  0  0  0  0
   -3.2350    1.6870   17.0326 C   0  0  0  0  0  0
    1.3632    1.7805   24.6911 C   0  0  0  0  0  0
   -2.5963   -1.4202   27.5878 C   0  0  0  0  0  0
   -3.5489   -1.9163   26.9834 O   0  0  0  0  0  0
   -2.4471   -1.5130   28.9202 N   0  0  0  0  0  0
   -3.3371   -2.2469   29.8143 C   0  0  0  0  0  0
   -2.8349   -2.7130   21.4760 N   0  0  0  0  0  0
   -2.8070   -0.3409   25.1160 H   0  0  0  0  0  0
   -0.0188   -0.6738   28.3818 H   0  0  0  0  0  0
    1.5661    0.6902   27.1640 H   0  0  0  0  0  0
   -1.0167    2.1172   23.4291 H   0  0  0  0  0  0
   -2.0198    3.5320   21.5575 H   0  0  0  0  0  0
   -5.8241    0.6278   18.9858 H   0  0  0  0  0  0
   -6.8350    0.3304   16.7682 H   0  0  0  0  0  0
   -5.5757    0.8892   14.7238 H   0  0  0  0  0  0
   -3.2558    1.7299   14.8882 H   0  0  0  0  0  0
   -2.2260    2.0678   17.0760 H   0  0  0  0  0  0
    2.3512    1.6870   25.1438 H   0  0  0  0  0  0
    1.4626    1.4419   23.6591 H   0  0  0  0  0  0
    1.0822    2.8334   24.6730 H   0  0  0  0  0  0
   -1.6357   -1.0890   29.3424 H   0  0  0  0  0  0
   -2.7974   -3.0742   30.2762 H   0  0  0  0  0  0
   -4.2102   -2.6590   29.3062 H   0  0  0  0  0  0
   -3.6911   -1.5885   30.6075 H   0  0  0  0  0  0
   -3.1452   -3.2078   20.6481 H   0  0  0  0  0  0
   -2.2722   -3.1535   22.1801 H   0  0  0  0  0  0
  1  2  2  0  0  0
  1 23  1  0  0  0
  1  6  1  0  0  0
  2  7  1  0  0  0
  2  3  1  0  0  0
  3  4  2  0  0  0
  3 29  1  0  0  0
  4  5  1  0  0  0
  4 24  1  0  0  0
  5  6  2  0  0  0
  5 30  1  0  0  0
  6 31  1  0  0  0
  7  8  1  0  0  0
  7 32  1  0  0  0
  8 13  2  0  0  0
  8 11  1  0  0  0
  9 12  2  0  0  0
  9 10  1  0  0  0
 10 11  2  0  0  0
 10 28  1  0  0  0
 12 16  1  0  0  0
 12 13  1  0  0  0
 13 14  1  0  0  0
 14 15  2  0  0  0
 14 33  1  0  0  0
 15 16  1  0  0  0
 16 17  1  0  0  0
 17 18  2  0  0  0
 17 22  1  0  0  0
 18 19  1  0  0  0
 18 34  1  0  0  0
 19 20  2  0  0  0
 19 35  1  0  0  0
 20 21  1  0  0  0
 20 36  1  0  0  0
 21 22  2  0  0  0
 21 37  1  0  0  0
 22 38  1  0  0  0
 23 39  1  0  0  0
 23 40  1  0  0  0
 23 41  1  0  0  0
 24 25  2  0  0  0
 24 26  1  0  0  0
 26 27  1  0  0  0
 26 42  1  0  0  0
 27 43  1  0  0  0
 27 44  1  0  0  0
 27 45  1  0  0  0
 28 46  1  0  0  0
 28 47  1  0  0  0
M  END
> <s_m_entry_id>
61064

> <s_m_entry_name>
dock_pv.341

> <s_m_Source_Path>
/home/csk/Desktop/cluster/DUD-E-result/mk14

> <s_m_Source_File>
dock_pv.maegz

> <i_m_Source_File_Index>
341

> <chembl_id>
CHEMBL261021

> <chembl_pref_name>
None

> <i_lp_mmshare_version>
53161

> <i_f3d_flags>
0

> <r_lp_tautomer_probability>
0.99999558864179

> <s_lp_Force_Field>
OPLS_2005

> <r_lp_Energy>
15.857613

> <b_lp_Chiralities_Consistent>
1

> <s_lp_Variant>
CHEMBL260_lig1282-1

> <s_i_glide_gridfile>
glide-grid_2qd9

> <i_i_glide_lignum>
1459

> <i_i_glide_rotatable_bonds>
5

> <r_i_docking_score>
-6.97803162580955

> <r_i_glide_ligand_efficiency>
-0.249215415207484

> <r_i_glide_ligand_efficiency_sa>
-0.756764780599894

> <r_i_glide_ligand_efficiency_ln>
-1.61073458314814

> <r_i_glide_gscore>
-6.97803162580955

> <r_i_glide_lipo>
-2.22607033282741

> <r_i_glide_hbond>
-0.283295210830419

> <r_i_glide_metal>
0

> <r_i_glide_rewards>
-2.17786399984574

> <r_i_glide_evdw>
-43.1506576538086

> <r_i_glide_ecoul>
-4.5842661857605

> <r_i_glide_erotb>
0.554370728248525

> <r_i_glide_esite>
0

> <r_i_glide_emodel>
-63.3845280551511

> <r_i_glide_energy>
-47.7349238395691

> <r_i_glide_einternal>
6.82294034957886

> <i_i_glide_confnum>
19

> <i_i_glide_posenum>
358

> <r_i_glide_eff_state_penalty>
0

> <s_user_duplicate_titles>
CHEMBL260_lig1282,427952

> <s_m_subgroup_title>
dock_pv

> <s_m_subgroupid>
dock_pv

> <b_m_subgroup_collapsed>
1

$$$$
CHEMBL260_lig938
                    3D
 Schrodinger Suite 2021-1.
 40 43  0  0  1  0            999 V2000
   -0.8524   -1.1130   28.4507 C   0  0  0  0  0  0
    0.1775   -0.1775   28.4447 C   0  0  0  0  0  0
    0.6012    0.3776   27.2398 C   0  0  0  0  0  0
   -1.4412   -1.5128   27.2523 C   0  0  0  0  0  0
   -1.0131   -0.9657   26.0319 C   0  0  0  0  0  0
    0.0106    0.0007   26.0278 C   0  0  0  0  0  0
    0.4273    0.6406   24.7209 C   0  0  0  0  0  0
   -1.6580   -1.5113   24.7834 C   0  0  0  0  0  0
   -0.6641    1.3603   24.1713 O   0  0  0  0  0  0
   -2.0351   -2.6925   24.7941 O   0  0  0  0  0  0
   -2.0007   -0.6506   23.5880 C   0  0  0  0  0  0
   -1.5710    0.6823   23.3894 C   0  0  0  0  0  0
   -2.0212    1.3825   22.2730 C   0  0  0  0  0  0
   -2.8348    0.7899   21.3168 C   0  0  0  0  0  0
   -3.2350   -0.5338   21.4935 C   0  0  0  0  0  0
   -2.8370   -1.2434   22.6225 C   0  0  0  0  0  0
   -3.1319    1.5344   20.1695 N   0  0  0  0  0  0
   -4.0216    1.2776   19.1222 C   0  0  0  0  0  0
   -3.6385    1.6209   17.8252 C   0  0  0  0  0  0
   -4.5071    1.4055   16.7613 C   0  0  0  0  0  0
   -5.7752    0.8866   16.9878 C   0  0  0  0  0  0
   -6.1611    0.5214   18.2782 C   0  0  0  0  0  0
   -5.2866    0.7272   19.3446 C   0  0  0  0  0  0
   -4.1140    1.7435   15.4760 N   0  0  0  0  0  0
   -1.1772   -1.5527   29.3827 H   0  0  0  0  0  0
    0.6516    0.1143   29.3709 H   0  0  0  0  0  0
    1.3977    1.1093   27.2540 H   0  0  0  0  0  0
   -2.2199   -2.2620   27.2944 H   0  0  0  0  0  0
    1.2380    1.3495   24.8959 H   0  0  0  0  0  0
    0.8266   -0.1056   24.0302 H   0  0  0  0  0  0
   -1.6750    2.3955   22.1287 H   0  0  0  0  0  0
   -3.8338   -1.0340   20.7477 H   0  0  0  0  0  0
   -3.1864   -2.2641   22.7141 H   0  0  0  0  0  0
   -2.3612    2.1287   19.9030 H   0  0  0  0  0  0
   -2.6726    2.0516   17.6249 H   0  0  0  0  0  0
   -6.4471    0.7260   16.1595 H   0  0  0  0  0  0
   -7.1389    0.0951   18.4461 H   0  0  0  0  0  0
   -5.6077    0.4873   20.3440 H   0  0  0  0  0  0
   -4.7704    1.6389   14.7163 H   0  0  0  0  0  0
   -3.2419    2.2326   15.3307 H   0  0  0  0  0  0
  1  2  2  0  0  0
  1  4  1  0  0  0
  1 25  1  0  0  0
  2  3  1  0  0  0
  2 26  1  0  0  0
  3  6  2  0  0  0
  3 27  1  0  0  0
  4  5  2  0  0  0
  4 28  1  0  0  0
  5  6  1  0  0  0
  5  8  1  0  0  0
  6  7  1  0  0  0
  7  9  1  0  0  0
  7 29  1  0  0  0
  7 30  1  0  0  0
  8 11  1  0  0  0
  8 10  2  0  0  0
  9 12  1  0  0  0
 11 12  2  0  0  0
 11 16  1  0  0  0
 12 13  1  0  0  0
 13 14  2  0  0  0
 13 31  1  0  0  0
 14 15  1  0  0  0
 14 17  1  0  0  0
 15 16  2  0  0  0
 15 32  1  0  0  0
 16 33  1  0  0  0
 17 18  1  0  0  0
 17 34  1  0  0  0
 18 19  2  0  0  0
 18 23  1  0  0  0
 19 20  1  0  0  0
 19 35  1  0  0  0
 20 21  2  0  0  0
 20 24  1  0  0  0
 21 22  1  0  0  0
 21 36  1  0  0  0
 22 23  2  0  0  0
 22 37  1  0  0  0
 23 38  1  0  0  0
 24 39  1  0  0  0
 24 40  1  0  0  0
M  END
> <s_m_entry_id>
61065

> <s_m_entry_name>
dock_pv.342

> <s_m_Source_Path>
/home/csk/Desktop/cluster/DUD-E-result/mk14

> <s_m_Source_File>
dock_pv.maegz

> <i_m_Source_File_Index>
342

> <chembl_id>
CHEMBL373775

> <chembl_pref_name>
None

> <i_lp_mmshare_version>
53161

> <i_f3d_flags>
0

> <r_lp_tautomer_probability>
1

> <s_lp_Force_Field>
OPLS_2005

> <r_lp_Energy>
39.562363

> <b_lp_Chiralities_Consistent>
1

> <s_lp_Variant>
CHEMBL260_lig938-1

> <s_i_glide_gridfile>
glide-grid_2qd9

> <i_i_glide_lignum>
1041

> <i_i_glide_rotatable_bonds>
2

> <r_i_docking_score>
-6.97382998923529

> <r_i_glide_ligand_efficiency>
-0.29057624955147

> <r_i_glide_ligand_efficiency_sa>
-0.83816694122638

> <r_i_glide_ligand_efficiency_ln>
-1.6691575246302

> <r_i_glide_gscore>
-6.97382998923529

> <r_i_glide_lipo>
-3.17424975849143

> <r_i_glide_hbond>
-0.261477355837919

> <r_i_glide_metal>
0

> <r_i_glide_rewards>
-1.43959108566

> <r_i_glide_evdw>
-35.9578666687012

> <r_i_glide_ecoul>
-4.48423099517822

> <r_i_glide_erotb>
0.372016193465849

> <r_i_glide_esite>
0

> <r_i_glide_emodel>
-52.694036082422

> <r_i_glide_energy>
-40.4420976638794

> <r_i_glide_einternal>
7.29489803314209

> <i_i_glide_confnum>
13

> <i_i_glide_posenum>
347

> <r_i_glide_eff_state_penalty>
0

> <s_user_duplicate_titles>
CHEMBL260_lig938

> <s_m_subgroup_title>
dock_pv

> <s_m_subgroupid>
dock_pv

> <b_m_subgroup_collapsed>
1

$$$$
CHEMBL260_lig723
                    3D
 Schrodinger Suite 2021-1.
 41 43  0  0  1  0            999 V2000
    0.4367   -0.1672   26.1945 C   0  0  0  0  0  0
    0.7645    1.1860   26.1066 C   0  0  0  0  0  0
    0.4799    1.9025   24.9391 C   0  0  0  0  0  0
   -0.1342    1.2402   23.8743 C   0  0  0  0  0  0
   -0.5237   -0.1060   23.9596 C   0  0  0  0  0  0
   -0.1971   -0.8094   25.1292 C   0  0  0  0  0  0
   -1.2335   -0.8060   22.8278 C   0  0  0  0  0  0
   -2.0338   -0.0256   21.8655 C   0  0  0  0  0  0
   -1.2358   -2.0378   22.7452 O   0  0  0  0  0  0
   -2.5898    1.2551   22.0316 C   0  0  0  0  0  0
   -3.2341    1.6840   20.9786 N   0  0  0  0  0  0
   -3.1913    0.6729   20.1088 N   0  0  0  0  0  0
   -2.4670   -0.4031   20.5920 C   0  0  0  0  0  0
   -2.3040   -1.5602   19.8796 N   0  0  0  0  0  0
   -3.8997    0.8146   18.9026 C   0  0  0  0  0  0
   -3.2353    0.8873   17.6730 C   0  0  0  0  0  0
   -3.9642    0.9585   16.4957 C   0  0  0  0  0  0
   -5.3489    0.9284   16.5535 C   0  0  0  0  0  0
   -6.0209    0.8869   17.7722 C   0  0  0  0  0  0
   -5.2938    0.8441   18.9548 C   0  0  0  0  0  0
   -6.0348    0.8881   15.4042 F   0  0  0  0  0  0
    0.7837    3.3991   24.8070 C   0  0  1  0  0  0
   -0.3739    4.3017   25.3003 C   0  0  0  0  0  0
    1.9646    3.7900   25.4766 O   0  0  0  0  0  0
   -1.6107    4.0100   24.6667 O   0  0  0  0  0  0
    0.6770   -0.7176   27.0925 H   0  0  0  0  0  0
    1.2509    1.6729   26.9416 H   0  0  0  0  0  0
   -0.2976    1.8038   22.9699 H   0  0  0  0  0  0
   -0.4432   -1.8571   25.2313 H   0  0  0  0  0  0
   -2.5291    1.8747   22.9141 H   0  0  0  0  0  0
   -1.8118   -2.3502   20.2752 H   0  0  0  0  0  0
   -2.7363   -1.7006   18.9780 H   0  0  0  0  0  0
   -2.1668    0.8436   17.5832 H   0  0  0  0  0  0
   -3.4618    0.9836   15.5389 H   0  0  0  0  0  0
   -7.0985    0.8530   17.8147 H   0  0  0  0  0  0
   -5.8164    0.7829   19.8985 H   0  0  0  0  0  0
    0.9622    3.6199   23.7524 H   0  0  0  0  0  0
   -0.5005    4.2009   26.3795 H   0  0  0  0  0  0
   -0.1342    5.3494   25.1117 H   0  0  0  0  0  0
    2.7175    3.4114   24.9959 H   0  0  0  0  0  0
   -1.9206    3.1687   25.0148 H   0  0  0  0  0  0
  1  2  2  0  0  0
  1  6  1  0  0  0
  1 26  1  0  0  0
  2  3  1  0  0  0
  2 27  1  0  0  0
  3  4  2  0  0  0
  3 22  1  0  0  0
  4  5  1  0  0  0
  4 28  1  0  0  0
  5  7  1  0  0  0
  5  6  2  0  0  0
  6 29  1  0  0  0
  7  8  1  0  0  0
  7  9  2  0  0  0
  8 13  2  0  0  0
  8 10  1  0  0  0
 10 11  2  0  0  0
 10 30  1  0  0  0
 11 12  1  0  0  0
 12 13  1  0  0  0
 12 15  1  0  0  0
 13 14  1  0  0  0
 14 31  1  0  0  0
 14 32  1  0  0  0
 15 16  2  0  0  0
 15 20  1  0  0  0
 16 17  1  0  0  0
 16 33  1  0  0  0
 17 18  2  0  0  0
 17 34  1  0  0  0
 18 19  1  0  0  0
 18 21  1  0  0  0
 19 20  2  0  0  0
 19 35  1  0  0  0
 20 36  1  0  0  0
 22 23  1  0  0  0
 22 24  1  0  0  0
 22 37  1  0  0  0
 23 25  1  0  0  0
 23 38  1  0  0  0
 23 39  1  0  0  0
 24 40  1  0  0  0
 25 41  1  0  0  0
M  END
> <s_m_entry_id>
61066

> <s_m_entry_name>
dock_pv.343

> <s_m_Source_Path>
/home/csk/Desktop/cluster/DUD-E-result/mk14

> <s_m_Source_File>
dock_pv.maegz

> <i_m_Source_File_Index>
343

> <chembl_id>
CHEMBL203508

> <chembl_pref_name>
None

> <i_lp_mmshare_version>
53161

> <i_f3d_flags>
0

> <r_lp_tautomer_probability>
1

> <s_lp_Force_Field>
OPLS_2005

> <r_lp_Energy>
25.059374

> <b_lp_Chiralities_Consistent>
1

> <s_lp_Variant>
CHEMBL260_lig723-2

> <s_i_glide_gridfile>
glide-grid_2qd9

> <i_i_glide_lignum>
814

> <i_i_glide_rotatable_bonds>
7

> <r_i_docking_score>
-6.96629326132829

> <r_i_glide_ligand_efficiency>
-0.278651730453132

> <r_i_glide_ligand_efficiency_sa>
-0.814782601754439

> <r_i_glide_ligand_efficiency_ln>
-1.65122026589771

> <r_i_glide_gscore>
-6.96629326132829

> <r_i_glide_lipo>
-2.53597772286941

> <r_i_glide_hbond>
-0.32

> <r_i_glide_metal>
0

> <r_i_glide_rewards>
-2.16853825052353

> <r_i_glide_evdw>
-32.6950759887695

> <r_i_glide_ecoul>
-7.46798801422119

> <r_i_glide_erotb>
0.813174713636298

> <r_i_glide_esite>
0

> <r_i_glide_emodel>
-54.0970500567445

> <r_i_glide_energy>
-40.1630640029907

> <r_i_glide_einternal>
6.64487791061401

> <i_i_glide_confnum>
166

> <i_i_glide_posenum>
8

> <r_i_glide_eff_state_penalty>
0

> <s_user_duplicate_titles>
CHEMBL260_lig723

> <s_m_subgroup_title>
dock_pv

> <s_m_subgroupid>
dock_pv

> <b_m_subgroup_collapsed>
1

$$$$
CHEMBL260_lig1295
                    3D
 Schrodinger Suite 2021-1.
 44 47  0  0  1  0            999 V2000
   -0.0563    0.6004   25.6939 C   0  0  0  0  0  0
   -1.2145    0.5444   24.8992 C   0  0  0  0  0  0
   -2.1268    1.6046   24.9453 C   0  0  0  0  0  0
   -1.8661    2.7612   25.6925 C   0  0  0  0  0  0
   -0.6832    2.8163   26.4461 C   0  0  0  0  0  0
    0.2020    1.7410   26.4575 C   0  0  0  0  0  0
   -1.4558   -0.5835   24.0990 N   0  0  0  0  0  0
   -2.0614   -0.7606   22.8507 C   0  0  0  0  0  0
   -3.2336   -1.4145   20.3784 N   0  0  0  0  0  0
   -2.8348   -2.3125   21.3147 C   0  0  0  0  0  0
   -2.2742   -2.0598   22.5221 N   0  0  0  0  0  0
   -2.9914   -0.1462   20.7285 C   0  0  0  0  0  0
   -2.3959    0.2707   21.9413 C   0  0  0  0  0  0
   -2.3179    1.6933   21.8073 C   0  0  0  0  0  0
   -2.8346    2.1008   20.6742 N   0  0  0  0  0  0
   -3.2551    1.0068   20.0064 N   0  0  0  0  0  0
    0.9317   -0.5581   25.7594 C   0  0  0  0  0  0
   -2.8345    3.9203   25.6480 C   0  0  0  0  0  0
   -3.5794    4.0867   24.6775 O   0  0  0  0  0  0
   -2.8349    4.7303   26.7201 N   0  0  0  0  0  0
   -3.7376    5.8582   26.9168 C   0  0  0  0  0  0
   -3.9376    1.1388   18.7894 C   0  0  0  0  0  0
   -5.2904    0.8089   18.7406 C   0  0  0  0  0  0
   -5.9443    0.8870   17.5142 C   0  0  0  0  0  0
   -5.2422    1.2866   16.3741 C   0  0  0  0  0  0
   -3.8887    1.6052   16.5064 C   0  0  0  0  0  0
   -3.2350    1.5461   17.6963 N   0  0  0  0  0  0
   -3.0460    1.5300   24.3827 H   0  0  0  0  0  0
   -0.4266    3.6890   27.0295 H   0  0  0  0  0  0
    1.1013    1.8035   27.0562 H   0  0  0  0  0  0
   -1.1464   -1.4532   24.5039 H   0  0  0  0  0  0
   -2.9917   -3.3540   21.0761 H   0  0  0  0  0  0
   -1.8888    2.4111   22.4905 H   0  0  0  0  0  0
    1.5645   -0.4888   26.6443 H   0  0  0  0  0  0
    0.4100   -1.5127   25.8331 H   0  0  0  0  0  0
    1.5623   -0.5833   24.8703 H   0  0  0  0  0  0
   -2.2037    4.5191   27.4775 H   0  0  0  0  0  0
   -4.0725    5.8815   27.9540 H   0  0  0  0  0  0
   -4.6273    5.7968   26.2874 H   0  0  0  0  0  0
   -3.2241    6.7960   26.7034 H   0  0  0  0  0  0
   -5.8219    0.4801   19.6226 H   0  0  0  0  0  0
   -6.9845    0.6151   17.4757 H   0  0  0  0  0  0
   -5.7337    1.3422   15.4140 H   0  0  0  0  0  0
   -3.3078    1.9199   15.6505 H   0  0  0  0  0  0
  1  6  1  0  0  0
  1  2  2  0  0  0
  1 17  1  0  0  0
  2  7  1  0  0  0
  2  3  1  0  0  0
  3  4  2  0  0  0
  3 28  1  0  0  0
  4 18  1  0  0  0
  4  5  1  0  0  0
  5  6  2  0  0  0
  5 29  1  0  0  0
  6 30  1  0  0  0
  7  8  1  0  0  0
  7 31  1  0  0  0
  8 13  2  0  0  0
  8 11  1  0  0  0
  9 12  2  0  0  0
  9 10  1  0  0  0
 10 11  2  0  0  0
 10 32  1  0  0  0
 12 16  1  0  0  0
 12 13  1  0  0  0
 13 14  1  0  0  0
 14 15  2  0  0  0
 14 33  1  0  0  0
 15 16  1  0  0  0
 16 22  1  0  0  0
 17 34  1  0  0  0
 17 35  1  0  0  0
 17 36  1  0  0  0
 18 19  2  0  0  0
 18 20  1  0  0  0
 20 21  1  0  0  0
 20 37  1  0  0  0
 21 38  1  0  0  0
 21 39  1  0  0  0
 21 40  1  0  0  0
 22 23  2  0  0  0
 22 27  1  0  0  0
 23 24  1  0  0  0
 23 41  1  0  0  0
 24 25  2  0  0  0
 24 42  1  0  0  0
 25 26  1  0  0  0
 25 43  1  0  0  0
 26 27  2  0  0  0
 26 44  1  0  0  0
M  END
> <s_m_entry_id>
61067

> <s_m_entry_name>
dock_pv.344

> <s_m_Source_Path>
/home/csk/Desktop/cluster/DUD-E-result/mk14

> <s_m_Source_File>
dock_pv.maegz

> <i_m_Source_File_Index>
344

> <chembl_id>
CHEMBL258653

> <chembl_pref_name>
None

> <i_lp_mmshare_version>
53161

> <i_f3d_flags>
0

> <r_lp_tautomer_probability>
1

> <s_lp_Force_Field>
OPLS_2005

> <r_lp_Energy>
16.858823

> <b_lp_Chiralities_Consistent>
1

> <s_lp_Variant>
CHEMBL260_lig1295-1

> <s_i_glide_gridfile>
glide-grid_2qd9

> <i_i_glide_lignum>
1473

> <i_i_glide_rotatable_bonds>
5

> <r_i_docking_score>
-6.95274677752481

> <r_i_glide_ligand_efficiency>
-0.257509139908326

> <r_i_glide_ligand_efficiency_sa>
-0.772527418876271

> <r_i_glide_ligand_efficiency_ln>
-1.61848482481872

> <r_i_glide_gscore>
-6.95274677752481

> <r_i_glide_lipo>
-1.90648463154575

> <r_i_glide_hbond>
-0.16

> <r_i_glide_metal>
0

> <r_i_glide_rewards>
-2.39938453336849

> <r_i_glide_evdw>
-40.1139755249023

> <r_i_glide_ecoul>
-6.84067106246948

> <r_i_glide_erotb>
0.59359498530182

> <r_i_glide_esite>
-0.0486731622968525

> <r_i_glide_emodel>
-63.719006765317

> <r_i_glide_energy>
-46.9546465873718

> <r_i_glide_einternal>
9.41794872283936

> <i_i_glide_confnum>
21

> <i_i_glide_posenum>
265

> <r_i_glide_eff_state_penalty>
0

> <s_user_duplicate_titles>
CHEMBL260_lig1295,428497

> <s_m_subgroup_title>
dock_pv

> <s_m_subgroupid>
dock_pv

> <b_m_subgroup_collapsed>
1

$$$$
CHEMBL260_lig152
                    3D
 Schrodinger Suite 2021-1.
 44 47  0  0  1  0            999 V2000
   -1.5558   -1.3114   23.3737 N   0  0  0  0  0  0
   -1.1605   -0.9778   24.6972 C   0  0  0  0  0  0
   -1.5833   -2.6329   23.0552 C   0  0  0  0  0  0
   -1.9377   -0.2936   22.4930 C   0  0  0  0  0  0
   -2.2800   -0.6476   21.1772 C   0  0  0  0  0  0
    0.1627   -0.5796   24.9532 C   0  0  0  0  0  0
   -2.0710   -1.0726   25.7693 C   0  0  0  0  0  0
   -2.7195    0.2493   20.2894 N   0  0  0  0  0  0
   -1.6351   -2.9557   21.7454 N   0  0  0  0  0  0
   -0.0169    0.8803   29.2395 C   0  0  0  0  0  0
   -2.7830    1.5335   20.6760 C   0  0  0  0  0  0
   -0.3258   -0.4603   27.3257 C   0  0  0  0  0  0
    0.5572   -0.3129   26.2608 C   0  0  0  0  0  0
   -1.6456   -0.8336   27.0756 C   0  0  0  0  0  0
   -2.0214    1.0540   22.8752 C   0  0  0  0  0  0
   -2.1586   -2.0794   20.7022 C   0  0  0  0  0  0
    0.1434   -0.3012   28.6072 O   0  0  0  0  0  0
   -3.2350    2.6697   19.4760 S   0  0  0  0  0  0
   -1.6350   -3.5130   23.8760 O   0  0  0  0  0  0
   -0.7354    1.8115   28.8768 O   0  0  0  0  0  0
    1.3352   -0.4153   23.6888 Cl  0  0  0  0  0  0
   -3.7202   -1.5130   25.5198 Cl  0  0  0  0  0  0
   -2.4350    1.9913   21.9423 C   0  0  0  0  0  0
    0.7650    0.8870   30.3642 N   0  0  0  0  0  0
   -3.8998    1.6870   18.1305 C   0  0  0  0  0  0
   -5.1431    0.6382   15.8760 C   0  0  0  0  0  0
   -5.7349    0.0883   14.7922 F   0  0  0  0  0  0
   -3.2251    1.6624   16.9083 C   0  0  0  0  0  0
   -5.1940    1.1811   18.2270 C   0  0  0  0  0  0
   -5.8294    0.6951   17.0872 C   0  0  0  0  0  0
   -3.8403    1.1191   15.7838 C   0  0  0  0  0  0
   -1.4713   -3.9190   21.4984 H   0  0  0  0  0  0
    1.5650   -0.0101   26.4691 H   0  0  0  0  0  0
   -2.3340   -0.9483   27.9001 H   0  0  0  0  0  0
   -1.7616    1.3850   23.8700 H   0  0  0  0  0  0
   -1.4815   -2.1254   19.8487 H   0  0  0  0  0  0
   -3.1274   -2.4581   20.3697 H   0  0  0  0  0  0
   -2.4727    3.0394   22.1956 H   0  0  0  0  0  0
    0.7674    1.7072   30.9479 H   0  0  0  0  0  0
    1.4170    0.1233   30.4971 H   0  0  0  0  0  0
   -2.2397    2.0950   16.8157 H   0  0  0  0  0  0
   -5.7297    1.2266   19.1642 H   0  0  0  0  0  0
   -6.8350    0.3102   17.1530 H   0  0  0  0  0  0
   -3.3187    1.0874   14.8384 H   0  0  0  0  0  0
  1  2  1  0  0  0
  1  3  1  0  0  0
  1  4  1  0  0  0
  2  6  1  0  0  0
  2  7  2  0  0  0
  3  9  1  0  0  0
  3 19  2  0  0  0
  4  5  2  0  0  0
  4 15  1  0  0  0
  5  8  1  0  0  0
  5 16  1  0  0  0
  6 13  2  0  0  0
  6 21  1  0  0  0
  7 14  1  0  0  0
  7 22  1  0  0  0
  8 11  2  0  0  0
  9 16  1  0  0  0
  9 32  1  0  0  0
 10 17  1  0  0  0
 10 20  2  0  0  0
 10 24  1  0  0  0
 11 23  1  0  0  0
 11 18  1  0  0  0
 12 14  2  0  0  0
 12 17  1  0  0  0
 12 13  1  0  0  0
 13 33  1  0  0  0
 14 34  1  0  0  0
 15 23  2  0  0  0
 15 35  1  0  0  0
 16 36  1  0  0  0
 16 37  1  0  0  0
 18 25  1  0  0  0
 23 38  1  0  0  0
 24 39  1  0  0  0
 24 40  1  0  0  0
 25 28  1  0  0  0
 25 29  2  0  0  0
 26 30  2  0  0  0
 26 27  1  0  0  0
 26 31  1  0  0  0
 28 31  2  0  0  0
 28 41  1  0  0  0
 29 30  1  0  0  0
 29 42  1  0  0  0
 30 43  1  0  0  0
 31 44  1  0  0  0
M  END
> <s_m_entry_id>
61068

> <s_m_entry_name>
dock_pv.345

> <s_m_Source_Path>
/home/csk/Desktop/cluster/DUD-E-result/mk14

> <s_m_Source_File>
dock_pv.maegz

> <i_m_Source_File_Index>
345

> <chembl_id>
CHEMBL129720

> <chembl_pref_name>
None

> <i_lp_mmshare_version>
53161

> <i_f3d_flags>
0

> <r_lp_tautomer_probability>
1

> <s_lp_Force_Field>
OPLS_2005

> <r_lp_Energy>
42.880418

> <b_lp_Chiralities_Consistent>
1

> <s_lp_Variant>
CHEMBL260_lig152-1

> <s_i_glide_gridfile>
glide-grid_2qd9

> <i_i_glide_lignum>
169

> <i_i_glide_rotatable_bonds>
5

> <r_i_docking_score>
-6.94504375295495

> <r_i_glide_ligand_efficiency>
-0.22403366945016

> <r_i_glide_ligand_efficiency_sa>
-0.703775033889396

> <r_i_glide_ligand_efficiency_ln>
-1.56632020632125

> <r_i_glide_gscore>
-6.94504375295495

> <r_i_glide_lipo>
-3.98207847114452

> <r_i_glide_hbond>
-0.729476442002041

> <r_i_glide_metal>
0

> <r_i_glide_rewards>
0.967144036242086

> <r_i_glide_evdw>
-38.3775291442871

> <r_i_glide_ecoul>
-10.8979454040527

> <r_i_glide_erotb>
0.352935391771788

> <r_i_glide_esite>
0

> <r_i_glide_emodel>
-55.6740239508723

> <r_i_glide_energy>
-49.2754745483398

> <r_i_glide_einternal>
1.71856415271759

> <i_i_glide_confnum>
51

> <i_i_glide_posenum>
5

> <r_i_glide_eff_state_penalty>
0

> <s_user_duplicate_titles>
CHEMBL260_lig152,213642

> <s_m_subgroup_title>
dock_pv

> <s_m_subgroupid>
dock_pv

> <b_m_subgroup_collapsed>
1

$$$$
CHEMBL260_lig1101
                    3D
 Schrodinger Suite 2021-1.
 40 43  0  0  1  0            999 V2000
   -1.7567    4.1724   25.4593 N   0  0  0  0  0  0
   -2.7140    3.2702   25.7942 C   0  0  0  0  0  0
   -2.8630    2.0468   25.1405 C   0  0  0  0  0  0
   -1.9992    1.7235   24.0866 C   0  0  0  0  0  0
   -0.9935    2.6402   23.7511 C   0  0  0  0  0  0
   -0.9037    3.8434   24.4561 C   0  0  0  0  0  0
   -2.1580    0.4565   23.3246 C   0  0  0  0  0  0
   -2.4965   -1.8877   21.8801 N   0  0  0  0  0  0
   -2.1689   -2.0308   23.1776 C   0  0  0  0  0  0
   -2.0095   -0.7726   23.9187 C   0  0  0  0  0  0
   -2.7175   -0.6889   21.2077 C   0  0  0  0  0  0
   -2.5600    0.5244   21.8903 C   0  0  0  0  0  0
   -2.8295    1.7188   21.2093 C   0  0  0  0  0  0
   -3.2385    1.7000   19.8760 C   0  0  0  0  0  0
   -3.3845    0.4873   19.2084 C   0  0  0  0  0  0
   -3.1190   -0.7106   19.8758 C   0  0  0  0  0  0
   -1.6280   -0.9011   25.3503 C   0  0  0  0  0  0
   -0.3281   -0.6192   25.8151 C   0  0  0  0  0  0
   -0.0451   -0.7134   27.1810 C   0  0  0  0  0  0
   -1.0327   -1.1086   28.0817 C   0  0  0  0  0  0
   -2.3123   -1.4134   27.6261 C   0  0  0  0  0  0
   -2.6055   -1.3108   26.2687 C   0  0  0  0  0  0
   -2.0350   -3.1663   23.6264 O   0  0  0  0  0  0
    0.8068   -0.2396   24.8683 C   0  0  0  0  0  0
   -3.3689    3.5449   26.6110 H   0  0  0  0  0  0
   -3.6346    1.3545   25.4405 H   0  0  0  0  0  0
   -0.2890    2.4176   22.9651 H   0  0  0  0  0  0
   -0.1281    4.5601   24.2248 H   0  0  0  0  0  0
   -2.6075   -2.7592   21.3883 H   0  0  0  0  0  0
   -2.7287    2.6717   21.7036 H   0  0  0  0  0  0
   -3.4386    2.6254   19.3597 H   0  0  0  0  0  0
   -3.6996    0.4834   18.1750 H   0  0  0  0  0  0
   -3.2266   -1.6549   19.3705 H   0  0  0  0  0  0
    0.9499   -0.4960   27.5467 H   0  0  0  0  0  0
   -0.7979   -1.1940   29.1332 H   0  0  0  0  0  0
   -3.0705   -1.7360   28.3232 H   0  0  0  0  0  0
   -3.6044   -1.5446   25.9285 H   0  0  0  0  0  0
    1.7369   -0.7196   25.1746 H   0  0  0  0  0  0
    0.6264   -0.5743   23.8455 H   0  0  0  0  0  0
    0.9681    0.8406   24.8708 H   0  0  0  0  0  0
  1  6  1  0  0  0
  1  2  2  0  0  0
  2  3  1  0  0  0
  2 25  1  0  0  0
  3  4  2  0  0  0
  3 26  1  0  0  0
  4  7  1  0  0  0
  4  5  1  0  0  0
  5  6  2  0  0  0
  5 27  1  0  0  0
  6 28  1  0  0  0
  7 12  1  0  0  0
  7 10  2  0  0  0
  8 11  1  0  0  0
  8  9  1  0  0  0
  8 29  1  0  0  0
  9 10  1  0  0  0
  9 23  2  0  0  0
 10 17  1  0  0  0
 11 12  2  0  0  0
 11 16  1  0  0  0
 12 13  1  0  0  0
 13 14  2  0  0  0
 13 30  1  0  0  0
 14 15  1  0  0  0
 14 31  1  0  0  0
 15 16  2  0  0  0
 15 32  1  0  0  0
 16 33  1  0  0  0
 17 18  2  0  0  0
 17 22  1  0  0  0
 18 19  1  0  0  0
 18 24  1  0  0  0
 19 20  2  0  0  0
 19 34  1  0  0  0
 20 21  1  0  0  0
 20 35  1  0  0  0
 21 22  2  0  0  0
 21 36  1  0  0  0
 22 37  1  0  0  0
 24 38  1  0  0  0
 24 39  1  0  0  0
 24 40  1  0  0  0
M  END
> <s_m_entry_id>
61069

> <s_m_entry_name>
dock_pv.346

> <s_m_Source_Path>
/home/csk/Desktop/cluster/DUD-E-result/mk14

> <s_m_Source_File>
dock_pv.maegz

> <i_m_Source_File_Index>
346

> <chembl_id>
CHEMBL253852

> <chembl_pref_name>
None

> <i_lp_mmshare_version>
53161

> <i_f3d_flags>
0

> <r_lp_tautomer_probability>
1

> <s_lp_Force_Field>
OPLS_2005

> <r_lp_Energy>
32.102456

> <b_lp_Chiralities_Consistent>
1

> <s_lp_Variant>
CHEMBL260_lig1101-1

> <s_i_glide_gridfile>
glide-grid_2qd9

> <i_i_glide_lignum>
1230

> <i_i_glide_rotatable_bonds>
2

> <r_i_docking_score>
-6.94432706998135

> <r_i_glide_ligand_efficiency>
-0.289346961249223

> <r_i_glide_ligand_efficiency_sa>
-0.834621060178735

> <r_i_glide_ligand_efficiency_ln>
-1.66209612225198

> <r_i_glide_gscore>
-6.94432706998135

> <r_i_glide_lipo>
-2.79339876453205

> <r_i_glide_hbond>
-0.500316301778123

> <r_i_glide_metal>
0

> <r_i_glide_rewards>
-1.30086224446585

> <r_i_glide_evdw>
-35.116886138916

> <r_i_glide_ecoul>
-6.49544286727905

> <r_i_glide_erotb>
0.38041097783233

> <r_i_glide_esite>
0

> <r_i_glide_emodel>
-58.5930900505599

> <r_i_glide_energy>
-41.6123290061951

> <r_i_glide_einternal>
0.720658302307129

> <i_i_glide_confnum>
2

> <i_i_glide_posenum>
47

> <r_i_glide_eff_state_penalty>
0

> <s_user_duplicate_titles>
CHEMBL260_lig1101

> <s_m_subgroup_title>
dock_pv

> <s_m_subgroupid>
dock_pv

> <b_m_subgroup_collapsed>
1

$$$$
CHEMBL260_lig605
                    3D
 Schrodinger Suite 2021-1.
 43 46  0  0  1  0            999 V2000
   -1.0193    2.9325   15.2141 C   0  0  0  0  0  0
   -0.1327    1.8767   15.0583 C   0  0  0  0  0  0
    0.7653    1.8788   14.0744 N   0  0  0  0  0  0
    0.8759    2.9433   13.2478 C   0  0  0  0  0  0
    0.1365    4.0860   13.4295 C   0  0  0  0  0  0
   -0.7793    4.0872   14.4707 C   0  0  0  0  0  0
   -4.0930    1.2050   19.4188 C   0  0  0  0  0  0
   -3.8124    1.4614   18.1279 N   0  0  0  0  0  0
   -4.7916    1.2852   17.2024 C   0  0  0  0  0  0
   -6.0347    0.8325   17.4645 N   0  0  0  0  0  0
   -6.2729    0.4870   18.7517 C   0  0  0  0  0  0
   -5.3349    0.6860   19.7627 C   0  0  0  0  0  0
   -4.5515    1.6560   15.8816 N   0  0  0  0  0  0
   -3.1703    1.6347   15.4267 C   0  0  0  0  0  0
   -2.2907    2.7806   15.9944 C   0  0  0  0  0  0
   -3.0506    1.5811   20.3968 C   0  0  0  0  0  0
   -2.6086    0.7872   21.3978 C   0  0  0  0  0  0
   -1.6395    1.0955   22.3236 N   0  0  0  0  0  0
   -3.1099   -0.9048   21.7192 S   0  0  0  0  0  0
   -1.8455   -1.1142   22.9153 C   0  0  0  0  0  0
   -1.1503    0.0653   23.1164 C   0  0  0  0  0  0
   -0.0846    0.1175   24.0162 C   0  0  0  0  0  0
    0.2719   -1.0351   24.7199 C   0  0  0  0  0  0
   -0.4378   -2.2231   24.5246 C   0  0  0  0  0  0
   -1.5035   -2.2662   23.6222 C   0  0  0  0  0  0
   -2.4976    2.8869   20.1800 C   0  0  0  0  0  0
   -2.0372    3.9086   19.8775 N   0  0  0  0  0  0
   -0.1906    0.8893   15.4763 H   0  0  0  0  0  0
    1.6213    2.8929   12.4684 H   0  0  0  0  0  0
    0.2992    4.9444   12.8012 H   0  0  0  0  0  0
   -1.2356    5.0223   14.6929 H   0  0  0  0  0  0
   -7.2512    0.0950   18.9682 H   0  0  0  0  0  0
   -5.5807    0.4869   20.7769 H   0  0  0  0  0  0
   -5.2117    1.1941   15.2733 H   0  0  0  0  0  0
   -2.7535    0.6702   15.7045 H   0  0  0  0  0  0
   -3.2240    1.6624   14.3446 H   0  0  0  0  0  0
   -2.8651    3.6872   15.8739 H   0  0  0  0  0  0
   -2.0399    2.7029   17.0527 H   0  0  0  0  0  0
   -1.2170    2.0121   22.3520 H   0  0  0  0  0  0
    0.4733    1.0300   24.1740 H   0  0  0  0  0  0
    1.1000   -1.0116   25.4154 H   0  0  0  0  0  0
   -0.1467   -3.1046   25.0760 H   0  0  0  0  0  0
   -2.0497   -3.1836   23.4709 H   0  0  0  0  0  0
  1  2  2  0  0  0
  1 15  1  0  0  0
  1  6  1  0  0  0
  2  3  1  0  0  0
  2 28  1  0  0  0
  3  4  2  0  0  0
  4  5  1  0  0  0
  4 29  1  0  0  0
  5  6  2  0  0  0
  5 30  1  0  0  0
  6 31  1  0  0  0
  7  8  2  0  0  0
  7 16  1  0  0  0
  7 12  1  0  0  0
  8  9  1  0  0  0
  9 10  2  0  0  0
  9 13  1  0  0  0
 10 11  1  0  0  0
 11 12  2  0  0  0
 11 32  1  0  0  0
 12 33  1  0  0  0
 13 14  1  0  0  0
 13 34  1  0  0  0
 14 15  1  0  0  0
 14 35  1  0  0  0
 14 36  1  0  0  0
 15 37  1  0  0  0
 15 38  1  0  0  0
 16 17  2  0  0  0
 16 26  1  0  0  0
 17 18  1  0  0  0
 17 19  1  0  0  0
 18 21  1  0  0  0
 18 39  1  0  0  0
 19 20  1  0  0  0
 20 21  2  0  0  0
 20 25  1  0  0  0
 21 22  1  0  0  0
 22 23  2  0  0  0
 22 40  1  0  0  0
 23 24  1  0  0  0
 23 41  1  0  0  0
 24 25  2  0  0  0
 24 42  1  0  0  0
 25 43  1  0  0  0
 26 27  3  0  0  0
M  END
> <s_m_entry_id>
61070

> <s_m_entry_name>
dock_pv.347

> <s_m_Source_Path>
/home/csk/Desktop/cluster/DUD-E-result/mk14

> <s_m_Source_File>
dock_pv.maegz

> <i_m_Source_File_Index>
347

> <chembl_id>
CHEMBL1788116

> <chembl_pref_name>
None

> <i_lp_mmshare_version>
53161

> <i_f3d_flags>
0

> <r_lp_tautomer_probability>
0.499999987475

> <s_lp_Force_Field>
OPLS_2005

> <r_lp_Energy>
22.677982

> <b_lp_Chiralities_Consistent>
1

> <s_lp_Variant>
CHEMBL260_lig605-2

> <s_i_glide_gridfile>
glide-grid_2qd9

> <i_i_glide_lignum>
678

> <i_i_glide_rotatable_bonds>
5

> <r_i_docking_score>
-6.94151481383446

> <r_i_glide_ligand_efficiency>
-0.257093141253128

> <r_i_glide_ligand_efficiency_sa>
-0.771279422912048

> <r_i_glide_ligand_efficiency_ln>
-1.615870208845

> <r_i_glide_gscore>
-6.94151481383446

> <r_i_glide_lipo>
-3.88304250343676

> <r_i_glide_hbond>
-0.185030295280752

> <r_i_glide_metal>
0

> <r_i_glide_rewards>
-1.6907336943663

> <r_i_glide_evdw>
-22.2612323760986

> <r_i_glide_ecoul>
-4.04776906967163

> <r_i_glide_erotb>
0.556939472528081

> <r_i_glide_esite>
-0.0194208140230548

> <r_i_glide_emodel>
-37.1434636443931

> <r_i_glide_energy>
-26.3090014457703

> <r_i_glide_einternal>
3.45761394500732

> <i_i_glide_confnum>
8

> <i_i_glide_posenum>
215

> <r_i_glide_eff_state_penalty>
0

> <s_user_duplicate_titles>
CHEMBL260_lig605

> <s_m_subgroup_title>
dock_pv

> <s_m_subgroupid>
dock_pv

> <b_m_subgroup_collapsed>
1

$$$$
CHEMBL260_lig1831
                    3D
 Schrodinger Suite 2021-1.
 60 63  0  0  1  0            999 V2000
   -4.9197    0.4288   15.3776 C   0  0  0  0  0  0
   -5.8828    0.4870   16.3706 C   0  0  0  0  0  0
   -5.5607    1.0118   17.6109 C   0  0  0  0  0  0
   -4.2819    1.5252   17.8294 C   0  0  0  0  0  0
   -3.3484    1.5656   16.7888 C   0  0  0  0  0  0
   -3.6678    1.0053   15.5571 C   0  0  0  0  0  0
   -5.1780   -0.2982   14.2759 F   0  0  0  0  0  0
   -3.8888    1.9809   19.2272 C   0  0  0  0  0  0
   -3.8507    0.8126   20.2388 C   0  0  0  0  0  0
   -3.0463   -0.4001   19.7203 C   0  0  0  0  0  0
   -3.0145   -1.5687   20.7365 C   0  0  0  0  0  0
   -2.4557   -0.9965   21.9813 N   0  0  0  0  0  0
   -3.2360    0.0827   22.5872 C   0  0  0  0  0  0
   -3.1866    1.2259   21.5618 C   0  0  0  0  0  0
   -1.3177   -1.4811   22.5292 C   0  0  0  0  0  0
   -0.6336   -0.6948   23.6419 C   0  0  0  0  0  0
   -0.8349   -2.5298   22.1218 O   0  0  0  0  0  0
   -0.2695   -1.2870   24.8590 C   0  0  0  0  0  0
    0.2442   -0.5432   25.9303 C   0  0  0  0  0  0
   -0.4084    0.6745   23.4738 C   0  0  0  0  0  0
    0.2163    2.8696   24.7489 C   0  0  0  0  0  0
    0.0302    1.4656   24.5350 C   0  0  0  0  0  0
    0.3674    0.8408   25.7520 C   0  0  0  0  0  0
    0.7824    1.8776   26.5704 N   0  0  0  0  0  0
    0.6909    3.0772   25.9556 N   0  0  0  0  0  0
   -0.1497    3.9134   23.7826 C   0  0  0  0  0  0
    0.3504    5.3962   24.0056 C   0  0  0  0  0  0
   -0.8349    3.6888   22.7821 O   0  0  0  0  0  0
   -0.3531    6.1544   24.6773 O   0  0  0  0  0  0
    1.5209    5.7347   23.3924 N   0  0  0  0  0  0
    2.0606    7.0900   23.5179 C   0  0  0  0  0  0
    2.3375    4.8891   22.5066 C   0  0  0  0  0  0
   -0.4350   -2.9829   25.0753 Cl  0  0  0  0  0  0
    1.1651    1.8326   27.9710 C   0  0  0  0  0  0
   -6.8348    0.0100   16.2146 H   0  0  0  0  0  0
   -6.2852    0.9653   18.4113 H   0  0  0  0  0  0
   -2.3611    1.9738   16.9443 H   0  0  0  0  0  0
   -2.9347    0.9614   14.7666 H   0  0  0  0  0  0
   -4.5931    2.7391   19.5693 H   0  0  0  0  0  0
   -2.9160    2.4758   19.1884 H   0  0  0  0  0  0
   -4.8702    0.4826   20.4443 H   0  0  0  0  0  0
   -2.0348   -0.0939   19.4814 H   0  0  0  0  0  0
   -3.4322   -0.7122   18.7541 H   0  0  0  0  0  0
   -2.4597   -2.4283   20.3556 H   0  0  0  0  0  0
   -4.0190   -1.9146   20.9537 H   0  0  0  0  0  0
   -4.2452   -0.3135   22.7016 H   0  0  0  0  0  0
   -2.9415    0.3642   23.5984 H   0  0  0  0  0  0
   -3.6346    2.0840   22.0203 H   0  0  0  0  0  0
   -2.1807    1.5774   21.3478 H   0  0  0  0  0  0
    0.5147   -1.0225   26.8599 H   0  0  0  0  0  0
   -0.6165    1.1472   22.5354 H   0  0  0  0  0  0
    2.0847    7.5751   22.5422 H   0  0  0  0  0  0
    3.0809    7.0522   23.8993 H   0  0  0  0  0  0
    1.4830    7.7222   24.1930 H   0  0  0  0  0  0
    2.3325    5.2813   21.4868 H   0  0  0  0  0  0
    3.3714    4.8890   22.8515 H   0  0  0  0  0  0
    2.0131    3.8497   22.4595 H   0  0  0  0  0  0
    1.6278    0.8713   28.1959 H   0  0  0  0  0  0
    1.8807    2.6289   28.1928 H   0  0  0  0  0  0
    0.2791    1.9571   28.5928 H   0  0  0  0  0  0
  1  6  1  0  0  0
  1  2  2  0  0  0
  1  7  1  0  0  0
  2  3  1  0  0  0
  2 35  1  0  0  0
  3  4  2  0  0  0
  3 36  1  0  0  0
  4  8  1  0  0  0
  4  5  1  0  0  0
  5  6  2  0  0  0
  5 37  1  0  0  0
  6 38  1  0  0  0
  8  9  1  0  0  0
  8 39  1  0  0  0
  8 40  1  0  0  0
  9 10  1  0  0  0
  9 14  1  0  0  0
  9 41  1  0  0  0
 10 11  1  0  0  0
 10 42  1  0  0  0
 10 43  1  0  0  0
 11 12  1  0  0  0
 11 44  1  0  0  0
 11 45  1  0  0  0
 12 13  1  0  0  0
 12 15  1  0  0  0
 13 14  1  0  0  0
 13 46  1  0  0  0
 13 47  1  0  0  0
 14 48  1  0  0  0
 14 49  1  0  0  0
 15 17  2  0  0  0
 15 16  1  0  0  0
 16 18  2  0  0  0
 16 20  1  0  0  0
 18 19  1  0  0  0
 18 33  1  0  0  0
 19 23  2  0  0  0
 19 50  1  0  0  0
 20 22  2  0  0  0
 20 51  1  0  0  0
 21 22  1  0  0  0
 21 25  2  0  0  0
 21 26  1  0  0  0
 22 23  1  0  0  0
 23 24  1  0  0  0
 24 25  1  0  0  0
 24 34  1  0  0  0
 26 27  1  0  0  0
 26 28  2  0  0  0
 27 29  2  0  0  0
 27 30  1  0  0  0
 30 31  1  0  0  0
 30 32  1  0  0  0
 31 52  1  0  0  0
 31 53  1  0  0  0
 31 54  1  0  0  0
 32 55  1  0  0  0
 32 56  1  0  0  0
 32 57  1  0  0  0
 34 58  1  0  0  0
 34 59  1  0  0  0
 34 60  1  0  0  0
M  END
> <s_m_entry_id>
61071

> <s_m_entry_name>
dock_pv.348

> <s_m_Source_Path>
/home/csk/Desktop/cluster/DUD-E-result/mk14

> <s_m_Source_File>
dock_pv.maegz

> <i_m_Source_File_Index>
348

> <chembl_id>
CHEMBL601063

> <chembl_pref_name>
None

> <i_lp_mmshare_version>
53161

> <i_f3d_flags>
0

> <r_lp_tautomer_probability>
1

> <s_lp_Force_Field>
OPLS_2005

> <r_lp_Energy>
53.468258

> <b_lp_Chiralities_Consistent>
1

> <s_lp_Variant>
CHEMBL260_lig1831-1

> <s_i_glide_gridfile>
glide-grid_2qd9

> <i_i_glide_lignum>
2138

> <i_i_glide_rotatable_bonds>
7

> <r_i_docking_score>
-6.93559973801575

> <r_i_glide_ligand_efficiency>
-0.203988227588699

> <r_i_glide_ligand_efficiency_sa>
-0.660842668641235

> <r_i_glide_ligand_efficiency_ln>
-1.53226851911092

> <r_i_glide_gscore>
-6.93559973801575

> <r_i_glide_lipo>
-3.69812474619478

> <r_i_glide_hbond>
0

> <r_i_glide_metal>
0

> <r_i_glide_rewards>
-1.04618311678896

> <r_i_glide_evdw>
-32.8806533813477

> <r_i_glide_ecoul>
-6.22188234329224

> <r_i_glide_erotb>
0.518204947850261

> <r_i_glide_esite>
-0.132181802321056

> <r_i_glide_emodel>
-50.512044377364

> <r_i_glide_energy>
-39.1025357246399

> <r_i_glide_einternal>
10.1705532073975

> <i_i_glide_confnum>
36

> <i_i_glide_posenum>
308

> <r_i_glide_eff_state_penalty>
0

> <s_user_duplicate_titles>
CHEMBL260_lig1831,600230

> <s_m_subgroup_title>
dock_pv

> <s_m_subgroupid>
dock_pv

> <b_m_subgroup_collapsed>
1

$$$$
CHEMBL260_lig752
                    3D
 Schrodinger Suite 2021-1.
 47 50  0  0  1  0            999 V2000
   -3.3345    1.0734   15.5923 C   0  0  0  0  0  0
   -4.3701    0.4630   14.8957 C   0  0  0  0  0  0
   -5.6356    0.3472   15.4518 C   0  0  0  0  0  0
   -5.8434    0.7431   16.7651 C   0  0  0  0  0  0
   -4.7685    1.1993   17.5193 C   0  0  0  0  0  0
   -3.5288    1.4277   16.9167 C   0  0  0  0  0  0
   -4.9504    1.2869   18.8982 N   0  0  0  0  0  0
   -3.9530    1.4808   19.8465 C   0  0  0  0  0  0
   -3.6439    0.4296   20.7030 C   0  0  0  0  0  0
   -2.6701    0.6104   21.6878 C   0  0  0  0  0  0
   -2.0937    1.8798   21.8184 C   0  0  0  0  0  0
   -2.4332    2.8713   20.8884 C   0  0  0  0  0  0
   -3.3091    2.6740   19.8758 N   0  0  0  0  0  0
   -2.2229   -0.5376   22.5121 C   0  0  0  0  0  0
   -1.9554   -1.7712   21.9071 C   0  0  0  0  0  0
   -1.4782   -2.8177   22.6870 C   0  0  0  0  0  0
   -1.2653   -2.7109   24.0211 N   0  0  0  0  0  0
   -1.5442   -1.5234   24.6184 C   0  0  0  0  0  0
   -2.0190   -0.4179   23.8913 C   0  0  0  0  0  0
   -1.2728   -1.4749   25.9934 N   0  0  0  0  0  0
   -1.8265   -0.6582   26.9152 C   0  0  0  0  0  0
   -1.2242   -0.7460   28.3351 C   0  0  1  0  0  0
   -2.8218    0.0426   26.7047 O   0  0  0  0  0  0
   -1.0971    0.6398   29.0053 C   0  0  0  0  0  0
   -1.8119    0.5505   30.2372 O   0  0  0  0  0  0
   -2.8253   -0.4378   30.1132 C   0  0  0  0  0  0
   -2.1394   -1.5155   29.2854 C   0  0  0  0  0  0
   -2.3659    1.2098   15.1371 H   0  0  0  0  0  0
   -4.1985    0.0846   13.8976 H   0  0  0  0  0  0
   -6.4385   -0.0969   14.8826 H   0  0  0  0  0  0
   -6.8098    0.5820   17.2212 H   0  0  0  0  0  0
   -2.6922    1.8145   17.4738 H   0  0  0  0  0  0
   -5.6883    0.6769   19.2147 H   0  0  0  0  0  0
   -4.1324   -0.5257   20.5882 H   0  0  0  0  0  0
   -1.3349    2.0678   22.5648 H   0  0  0  0  0  0
   -1.9081    3.8118   20.8894 H   0  0  0  0  0  0
   -2.0868   -1.9105   20.8430 H   0  0  0  0  0  0
   -1.2369   -3.7631   22.2267 H   0  0  0  0  0  0
   -2.2046    0.5295   24.3741 H   0  0  0  0  0  0
   -0.5969   -2.1493   26.3189 H   0  0  0  0  0  0
   -0.2539   -1.2416   28.2946 H   0  0  0  0  0  0
   -1.5046    1.4613   28.4171 H   0  0  0  0  0  0
   -0.0558    0.8892   29.2041 H   0  0  0  0  0  0
   -3.1418   -0.7925   31.0942 H   0  0  0  0  0  0
   -3.7062   -0.0026   29.6411 H   0  0  0  0  0  0
   -1.5338   -2.1393   29.9450 H   0  0  0  0  0  0
   -2.8461   -2.1962   28.8008 H   0  0  0  0  0  0
  1  2  2  0  0  0
  1  6  1  0  0  0
  1 28  1  0  0  0
  2  3  1  0  0  0
  2 29  1  0  0  0
  3  4  2  0  0  0
  3 30  1  0  0  0
  4  5  1  0  0  0
  4 31  1  0  0  0
  5  7  1  0  0  0
  5  6  2  0  0  0
  6 32  1  0  0  0
  7  8  1  0  0  0
  7 33  1  0  0  0
  8 13  1  0  0  0
  8  9  2  0  0  0
  9 10  1  0  0  0
  9 34  1  0  0  0
 10 14  1  0  0  0
 10 11  2  0  0  0
 11 12  1  0  0  0
 11 35  1  0  0  0
 12 13  2  0  0  0
 12 36  1  0  0  0
 14 15  2  0  0  0
 14 19  1  0  0  0
 15 16  1  0  0  0
 15 37  1  0  0  0
 16 17  2  0  0  0
 16 38  1  0  0  0
 17 18  1  0  0  0
 18 19  2  0  0  0
 18 20  1  0  0  0
 19 39  1  0  0  0
 20 21  1  0  0  0
 20 40  1  0  0  0
 21 22  1  0  0  0
 21 23  2  0  0  0
 22 24  1  0  0  0
 22 27  1  0  0  0
 22 41  1  0  0  0
 24 25  1  0  0  0
 24 42  1  0  0  0
 24 43  1  0  0  0
 25 26  1  0  0  0
 26 27  1  0  0  0
 26 44  1  0  0  0
 26 45  1  0  0  0
 27 46  1  0  0  0
 27 47  1  0  0  0
M  END
> <s_m_entry_id>
61072

> <s_m_entry_name>
dock_pv.349

> <s_m_Source_Path>
/home/csk/Desktop/cluster/DUD-E-result/mk14

> <s_m_Source_File>
dock_pv.maegz

> <i_m_Source_File_Index>
349

> <chembl_id>
CHEMBL203535

> <chembl_pref_name>
None

> <i_lp_mmshare_version>
53161

> <i_f3d_flags>
0

> <r_lp_tautomer_probability>
0.999999772200052

> <s_lp_Force_Field>
OPLS_2005

> <r_lp_Energy>
28.111409

> <b_lp_Chiralities_Consistent>
1

> <s_lp_Variant>
CHEMBL260_lig752-2

> <s_i_glide_gridfile>
glide-grid_2qd9

> <i_i_glide_lignum>
845

> <i_i_glide_rotatable_bonds>
6

> <r_i_docking_score>
-6.92907623809897

> <r_i_glide_ligand_efficiency>
-0.256632453262925

> <r_i_glide_ligand_efficiency_sa>
-0.769897358942956

> <r_i_glide_ligand_efficiency_ln>
-1.61297471347972

> <r_i_glide_gscore>
-6.92907623809897

> <r_i_glide_lipo>
-3.37317905368629

> <r_i_glide_hbond>
-0.251125335377554

> <r_i_glide_metal>
0

> <r_i_glide_rewards>
-1.91491462967356

> <r_i_glide_evdw>
-37.1482887268066

> <r_i_glide_ecoul>
-2.78885650634766

> <r_i_glide_erotb>
0.885885692930911

> <r_i_glide_esite>
0

> <r_i_glide_emodel>
-44.4113758895439

> <r_i_glide_energy>
-39.9371452331543

> <r_i_glide_einternal>
22.7162189483643

> <i_i_glide_confnum>
53

> <i_i_glide_posenum>
111

> <r_i_glide_eff_state_penalty>
0

> <s_user_duplicate_titles>
CHEMBL260_lig752,341667

> <s_m_subgroup_title>
dock_pv

> <s_m_subgroupid>
dock_pv

> <b_m_subgroup_collapsed>
1

$$$$
CHEMBL260_lig867
                    3D
 Schrodinger Suite 2021-1.
 43 47  0  0  1  0            999 V2000
   -0.4404   -0.8297   26.8024 C   0  0  0  0  0  0
    0.7432   -0.1304   26.1271 C   0  0  0  0  0  0
   -0.2642    0.7527   25.3833 C   0  0  0  0  0  0
   -1.3696   -0.2820   25.6946 C   0  0  0  0  0  0
   -2.0348   -3.0924   23.3786 N   0  0  0  0  0  0
   -1.6457   -2.5592   24.5968 N   0  0  0  0  0  0
   -1.7169   -1.2441   24.5531 C   0  0  0  0  0  0
   -2.3627   -2.0408   22.5929 C   0  0  0  0  0  0
   -2.1868   -0.8495   23.3165 N   0  0  0  0  0  0
   -2.4280    0.3784   22.7586 C   0  0  0  0  0  0
   -2.8004    0.4667   21.4159 C   0  0  0  0  0  0
   -3.0018   -0.7078   20.6856 C   0  0  0  0  0  0
   -2.7997   -1.9650   21.2609 C   0  0  0  0  0  0
   -2.7668    1.7965   20.7439 C   0  0  0  0  0  0
   -2.0350    2.7513   21.3704 O   0  0  0  0  0  0
   -1.8306    3.6870   20.4204 C   0  0  0  0  0  0
   -2.4448    3.4546   19.3083 N   0  0  0  0  0  0
   -3.1205    2.3199   19.4952 C   0  0  0  0  0  0
   -3.8978    1.6870   18.3835 C   0  0  0  0  0  0
   -5.1701    1.1725   18.6285 C   0  0  0  0  0  0
   -5.9694    0.7203   17.5866 C   0  0  0  0  0  0
   -5.4739    0.6819   16.2837 C   0  0  0  0  0  0
   -4.1700    1.1028   16.0400 C   0  0  0  0  0  0
   -3.4027    1.6395   17.0723 C   0  0  0  0  0  0
   -5.6654    1.1456   19.8761 F   0  0  0  0  0  0
   -2.6517    0.3496   26.2741 C   0  0  0  0  0  0
   -3.6355    0.9589   14.8125 F   0  0  0  0  0  0
   -0.3499   -1.9129   26.8591 H   0  0  0  0  0  0
   -0.6650   -0.4554   27.8031 H   0  0  0  0  0  0
    1.3156   -0.7866   25.4692 H   0  0  0  0  0  0
    1.4181    0.3952   26.8043 H   0  0  0  0  0  0
   -0.4247    1.7297   25.8430 H   0  0  0  0  0  0
   -0.0284    0.8992   24.3285 H   0  0  0  0  0  0
   -2.2183    1.2400   23.3737 H   0  0  0  0  0  0
   -3.2608   -0.6559   19.6384 H   0  0  0  0  0  0
   -2.9249   -2.8605   20.6753 H   0  0  0  0  0  0
   -1.0637    4.4256   20.6151 H   0  0  0  0  0  0
   -6.9377    0.3226   17.8337 H   0  0  0  0  0  0
   -6.0682    0.2697   15.4819 H   0  0  0  0  0  0
   -2.4253    2.0197   16.8349 H   0  0  0  0  0  0
   -2.4353    1.0422   27.0887 H   0  0  0  0  0  0
   -3.2129    0.9029   25.5215 H   0  0  0  0  0  0
   -3.3091   -0.4238   26.6714 H   0  0  0  0  0  0
  1  4  1  0  0  0
  1  2  1  0  0  0
  1 28  1  0  0  0
  1 29  1  0  0  0
  2  3  1  0  0  0
  2 30  1  0  0  0
  2 31  1  0  0  0
  3  4  1  0  0  0
  3 32  1  0  0  0
  3 33  1  0  0  0
  4  7  1  0  0  0
  4 26  1  0  0  0
  5  8  2  0  0  0
  5  6  1  0  0  0
  6  7  2  0  0  0
  7  9  1  0  0  0
  8 13  1  0  0  0
  8  9  1  0  0  0
  9 10  1  0  0  0
 10 11  2  0  0  0
 10 34  1  0  0  0
 11 14  1  0  0  0
 11 12  1  0  0  0
 12 13  2  0  0  0
 12 35  1  0  0  0
 13 36  1  0  0  0
 14 15  1  0  0  0
 14 18  2  0  0  0
 15 16  1  0  0  0
 16 17  2  0  0  0
 16 37  1  0  0  0
 17 18  1  0  0  0
 18 19  1  0  0  0
 19 20  2  0  0  0
 19 24  1  0  0  0
 20 21  1  0  0  0
 20 25  1  0  0  0
 21 22  2  0  0  0
 21 38  1  0  0  0
 22 23  1  0  0  0
 22 39  1  0  0  0
 23 24  2  0  0  0
 23 27  1  0  0  0
 24 40  1  0  0  0
 26 41  1  0  0  0
 26 42  1  0  0  0
 26 43  1  0  0  0
M  END
> <s_m_entry_id>
61073

> <s_m_entry_name>
dock_pv.350

> <s_m_Source_Path>
/home/csk/Desktop/cluster/DUD-E-result/mk14

> <s_m_Source_File>
dock_pv.maegz

> <i_m_Source_File_Index>
350

> <chembl_id>
CHEMBL439321

> <chembl_pref_name>
None

> <i_lp_mmshare_version>
53161

> <i_f3d_flags>
0

> <r_lp_tautomer_probability>
1

> <s_lp_Force_Field>
OPLS_2005

> <r_lp_Energy>
25.910373

> <b_lp_Chiralities_Consistent>
1

> <s_lp_Variant>
CHEMBL260_lig867-1

> <s_i_glide_gridfile>
glide-grid_2qd9

> <i_i_glide_lignum>
965

> <i_i_glide_rotatable_bonds>
3

> <r_i_docking_score>
-6.91070272108097

> <r_i_glide_ligand_efficiency>
-0.255951952632628

> <r_i_glide_ligand_efficiency_sa>
-0.76785585705431

> <r_i_glide_ligand_efficiency_ln>
-1.60869766162904

> <r_i_glide_gscore>
-6.91070272108097

> <r_i_glide_lipo>
-3.1281536688527

> <r_i_glide_hbond>
0

> <r_i_glide_metal>
0

> <r_i_glide_rewards>
-2.21397945021455

> <r_i_glide_evdw>
-21.8120498657227

> <r_i_glide_ecoul>
-5.76779508590698

> <r_i_glide_erotb>
0.430179223289318

> <r_i_glide_esite>
-0.0429770691308544

> <r_i_glide_emodel>
-38.5654128688587

> <r_i_glide_energy>
-27.5798449516296

> <r_i_glide_einternal>
1.15771424770355

> <i_i_glide_confnum>
14

> <i_i_glide_posenum>
180

> <r_i_glide_eff_state_penalty>
0

> <s_user_duplicate_titles>
CHEMBL260_lig867,355948

> <s_m_subgroup_title>
dock_pv

> <s_m_subgroupid>
dock_pv

> <b_m_subgroup_collapsed>
1

$$$$
CHEMBL260_lig1662
                    3D
 Schrodinger Suite 2021-1.
 40 43  0  0  1  0            999 V2000
   -1.7342   -1.2136   22.6130 N   0  0  0  0  0  0
   -2.1595   -1.7056   21.4022 C   0  0  0  0  0  0
   -2.7326   -0.7148   20.4933 C   0  0  0  0  0  0
   -2.7513    0.6279   20.7020 C   0  0  0  0  0  0
   -1.7801    0.1617   22.8918 C   0  0  0  0  0  0
   -2.2273    1.1063   21.9765 C   0  0  0  0  0  0
   -2.0352    2.3367   22.6052 C   0  0  0  0  0  0
   -1.5652    2.2074   23.8239 N   0  0  0  0  0  0
   -1.4269    0.8813   24.0215 N   0  0  0  0  0  0
   -1.0493   -2.1315   23.5370 C   0  0  0  0  0  0
   -2.0354   -2.8821   21.0593 O   0  0  0  0  0  0
   -3.2350    1.5784   19.8171 N   0  0  0  0  0  0
   -1.0406    0.4364   25.3004 C   0  0  0  0  0  0
    0.2269    0.7604   25.8048 C   0  0  0  0  0  0
    0.5838    0.3583   27.0930 C   0  0  0  0  0  0
   -0.3197   -0.3570   27.8786 C   0  0  0  0  0  0
   -1.5763   -0.6864   27.3761 C   0  0  0  0  0  0
   -1.9445   -0.2868   26.0922 C   0  0  0  0  0  0
   -3.9513    1.3521   18.6308 C   0  0  0  0  0  0
   -3.1816   -0.5886   25.6345 F   0  0  0  0  0  0
   -3.4084    1.6852   17.3780 C   0  0  0  0  0  0
   -4.1204    1.4254   16.2078 C   0  0  0  0  0  0
   -5.3902    0.8618   16.2776 C   0  0  0  0  0  0
   -5.9630    0.6046   17.5204 C   0  0  0  0  0  0
   -5.2478    0.8338   18.6918 C   0  0  0  0  0  0
   -6.0297    0.4873   15.1470 F   0  0  0  0  0  0
    0.0137   -0.7207   29.1367 F   0  0  0  0  0  0
   -5.8058    0.4892   19.8756 F   0  0  0  0  0  0
   -3.1223   -1.1041   19.5653 H   0  0  0  0  0  0
   -2.2542    3.2989   22.1779 H   0  0  0  0  0  0
   -0.8189   -3.1066   23.1011 H   0  0  0  0  0  0
   -0.1012   -1.7003   23.8720 H   0  0  0  0  0  0
   -1.6695   -2.3105   24.4164 H   0  0  0  0  0  0
   -2.9848    2.5413   19.9774 H   0  0  0  0  0  0
    0.9338    1.3272   25.2118 H   0  0  0  0  0  0
    1.5572    0.6093   27.4941 H   0  0  0  0  0  0
   -2.2689   -1.2438   27.9890 H   0  0  0  0  0  0
   -2.4370    2.1390   17.2677 H   0  0  0  0  0  0
   -3.6801    1.6356   15.2440 H   0  0  0  0  0  0
   -6.9019    0.0948   17.5843 H   0  0  0  0  0  0
  1  5  1  0  0  0
  1  2  1  0  0  0
  1 10  1  0  0  0
  2  3  1  0  0  0
  2 11  2  0  0  0
  3  4  2  0  0  0
  3 29  1  0  0  0
  4 12  1  0  0  0
  4  6  1  0  0  0
  5  9  1  0  0  0
  5  6  2  0  0  0
  6  7  1  0  0  0
  7  8  2  0  0  0
  7 30  1  0  0  0
  8  9  1  0  0  0
  9 13  1  0  0  0
 10 31  1  0  0  0
 10 32  1  0  0  0
 10 33  1  0  0  0
 12 19  1  0  0  0
 12 34  1  0  0  0
 13 14  2  0  0  0
 13 18  1  0  0  0
 14 15  1  0  0  0
 14 35  1  0  0  0
 15 16  2  0  0  0
 15 36  1  0  0  0
 16 17  1  0  0  0
 16 27  1  0  0  0
 17 18  2  0  0  0
 17 37  1  0  0  0
 18 20  1  0  0  0
 19 21  2  0  0  0
 19 25  1  0  0  0
 21 22  1  0  0  0
 21 38  1  0  0  0
 22 23  2  0  0  0
 22 39  1  0  0  0
 23 24  1  0  0  0
 23 26  1  0  0  0
 24 25  2  0  0  0
 24 40  1  0  0  0
 25 28  1  0  0  0
M  END
> <s_m_entry_id>
61074

> <s_m_entry_name>
dock_pv.351

> <s_m_Source_Path>
/home/csk/Desktop/cluster/DUD-E-result/mk14

> <s_m_Source_File>
dock_pv.maegz

> <i_m_Source_File_Index>
351

> <chembl_id>
CHEMBL562736

> <chembl_pref_name>
None

> <i_lp_mmshare_version>
53161

> <i_f3d_flags>
0

> <r_lp_tautomer_probability>
1

> <s_lp_Force_Field>
OPLS_2005

> <r_lp_Energy>
44.087925

> <b_lp_Chiralities_Consistent>
1

> <s_lp_Variant>
CHEMBL260_lig1662-1

> <s_i_glide_gridfile>
glide-grid_2qd9

> <i_i_glide_lignum>
1914

> <i_i_glide_rotatable_bonds>
3

> <r_i_docking_score>
-6.9105868721828

> <r_i_glide_ligand_efficiency>
-0.246806674006529

> <r_i_glide_ligand_efficiency_sa>
-0.749450423641096

> <r_i_glide_ligand_efficiency_ln>
-1.59516635374707

> <r_i_glide_gscore>
-6.9105868721828

> <r_i_glide_lipo>
-3.11802209564696

> <r_i_glide_hbond>
0

> <r_i_glide_metal>
0

> <r_i_glide_rewards>
-2.37364271071053

> <r_i_glide_evdw>
-38.8707084655762

> <r_i_glide_ecoul>
0.913347840309143

> <r_i_glide_erotb>
0.387611181407122

> <r_i_glide_esite>
0

> <r_i_glide_emodel>
-49.6452923643749

> <r_i_glide_energy>
-37.957360625267

> <r_i_glide_einternal>
4.068190574646

> <i_i_glide_confnum>
25

> <i_i_glide_posenum>
323

> <r_i_glide_eff_state_penalty>
0

> <s_user_duplicate_titles>
CHEMBL260_lig1662

> <s_m_subgroup_title>
dock_pv

> <s_m_subgroupid>
dock_pv

> <b_m_subgroup_collapsed>
1

$$$$
CHEMBL260_lig183
                    3D
 Schrodinger Suite 2021-1.
 50 53  0  0  1  0            999 V2000
   -2.4297    0.8879   21.4094 C   0  0  0  0  0  0
   -1.8285    1.7373   22.3418 N   0  0  0  0  0  0
   -2.6669    2.9989   20.6757 N   0  0  0  0  0  0
   -2.9602    1.7385   20.4174 C   0  0  0  0  0  0
   -2.0381    2.9853   21.8215 C   0  0  0  0  0  0
   -2.3709   -0.6086   21.4504 C   0  0  0  0  0  0
   -2.1034   -1.1783   22.6543 N   0  0  0  0  0  0
   -1.7144   -2.4676   22.6570 C   0  0  0  0  0  0
    0.0691    1.4230   28.8255 C   0  0  0  0  0  0
   -1.0057    1.4105   23.5405 C   0  0  0  0  0  0
   -0.0211    1.8878   26.3002 N   0  0  2  0  0  0
   -3.8120    1.4184   19.2244 C   0  0  0  0  0  0
   -1.6640   -3.2750   21.5745 N   0  0  0  0  0  0
    0.0638    2.4796   23.8728 C   0  0  0  0  0  0
   -1.9199    1.2572   24.7729 C   0  0  0  0  0  0
    0.8088    1.5431   27.4718 C   0  0  0  0  0  0
   -2.3879   -1.3688   20.2766 C   0  0  0  0  0  0
   -1.1063    0.9251   26.0440 C   0  0  0  0  0  0
    0.8560    2.1004   25.1385 C   0  0  0  0  0  0
   -5.0829    0.8699   19.4148 C   0  0  0  0  0  0
   -3.3768    1.6870   17.9194 C   0  0  0  0  0  0
    0.9449    1.4192   29.8299 F   0  0  0  0  0  0
   -0.6287    0.2895   28.9160 F   0  0  0  0  0  0
   -0.7705    2.4383   29.0367 F   0  0  0  0  0  0
   -1.2370   -2.9606   23.8620 N   0  0  0  0  0  0
   -2.0352   -2.7129   20.3937 C   0  0  0  0  0  0
   -5.4491    0.8870   17.0298 C   0  0  0  0  0  0
   -4.1804    1.4028   16.8247 C   0  0  0  0  0  0
   -5.9103    0.6191   18.3199 C   0  0  0  0  0  0
   -6.2048    0.5876   15.9544 F   0  0  0  0  0  0
   -1.6235    3.8408   22.3216 H   0  0  0  0  0  0
   -0.4793    0.4958   23.2749 H   0  0  0  0  0  0
   -0.3138    3.4978   23.9489 H   0  0  0  0  0  0
    0.8044    2.5023   23.0760 H   0  0  0  0  0  0
   -2.5863    0.4077   24.6296 H   0  0  0  0  0  0
   -2.5860    2.1084   24.9209 H   0  0  0  0  0  0
    1.5647    2.3211   27.5931 H   0  0  0  0  0  0
    1.3616    0.6204   27.2865 H   0  0  0  0  0  0
   -2.5917   -0.9374   19.3087 H   0  0  0  0  0  0
   -0.6851   -0.0794   25.9676 H   0  0  0  0  0  0
   -1.7815    0.9092   26.8991 H   0  0  0  0  0  0
    1.5669    2.8954   25.3711 H   0  0  0  0  0  0
    1.4576    1.2068   24.9578 H   0  0  0  0  0  0
   -5.4331    0.6453   20.4095 H   0  0  0  0  0  0
   -2.4351    2.1649   17.7178 H   0  0  0  0  0  0
   -1.1317   -2.2694   24.5898 H   0  0  0  0  0  0
   -0.5337   -3.6788   23.7800 H   0  0  0  0  0  0
   -2.0291   -3.3598   19.5277 H   0  0  0  0  0  0
   -3.8337    1.6063   15.8219 H   0  0  0  0  0  0
   -6.8923    0.1917   18.4614 H   0  0  0  0  0  0
  1  2  1  0  0  0
  1  4  2  0  0  0
  1  6  1  0  0  0
  2  5  1  0  0  0
  2 10  1  0  0  0
  3  4  1  0  0  0
  3  5  2  0  0  0
  4 12  1  0  0  0
  5 31  1  0  0  0
  6  7  2  0  0  0
  6 17  1  0  0  0
  7  8  1  0  0  0
  8 25  1  0  0  0
  8 13  2  0  0  0
  9 16  1  0  0  0
  9 22  1  0  0  0
  9 23  1  0  0  0
  9 24  1  0  0  0
 10 14  1  0  0  0
 10 15  1  0  0  0
 10 32  1  0  0  0
 11 18  1  0  0  0
 11 16  1  0  0  0
 11 19  1  0  0  0
 12 20  2  0  0  0
 12 21  1  0  0  0
 13 26  1  0  0  0
 14 19  1  0  0  0
 14 33  1  0  0  0
 14 34  1  0  0  0
 15 18  1  0  0  0
 15 35  1  0  0  0
 15 36  1  0  0  0
 16 37  1  0  0  0
 16 38  1  0  0  0
 17 26  2  0  0  0
 17 39  1  0  0  0
 18 40  1  0  0  0
 18 41  1  0  0  0
 19 42  1  0  0  0
 19 43  1  0  0  0
 20 29  1  0  0  0
 20 44  1  0  0  0
 21 28  2  0  0  0
 21 45  1  0  0  0
 25 46  1  0  0  0
 25 47  1  0  0  0
 26 48  1  0  0  0
 27 28  1  0  0  0
 27 30  1  0  0  0
 27 29  2  0  0  0
 28 49  1  0  0  0
 29 50  1  0  0  0
M  END
> <s_m_entry_id>
61075

> <s_m_entry_name>
dock_pv.352

> <s_m_Source_Path>
/home/csk/Desktop/cluster/DUD-E-result/mk14

> <s_m_Source_File>
dock_pv.maegz

> <i_m_Source_File_Index>
352

> <chembl_id>
CHEMBL95521

> <chembl_pref_name>
None

> <i_lp_mmshare_version>
53161

> <i_f3d_flags>
0

> <r_lp_tautomer_probability>
0.999999987636

> <s_lp_Force_Field>
OPLS_2005

> <r_lp_Energy>
30.388795

> <b_lp_Chiralities_Consistent>
1

> <s_lp_Variant>
CHEMBL260_lig183-1

> <s_i_glide_gridfile>
glide-grid_2qd9

> <i_i_glide_lignum>
200

> <i_i_glide_rotatable_bonds>
5

> <r_i_docking_score>
-6.90386043240691

> <r_i_glide_ligand_efficiency>
-0.23012868108023

> <r_i_glide_ligand_efficiency_sa>
-0.71506331759409

> <r_i_glide_ligand_efficiency_ln>
-1.5686323138272

> <r_i_glide_gscore>
-6.90386043240691

> <r_i_glide_lipo>
-2.69283622864633

> <r_i_glide_hbond>
-0.176585612324115

> <r_i_glide_metal>
0

> <r_i_glide_rewards>
-2.35172317512503

> <r_i_glide_evdw>
-29.6435127258301

> <r_i_glide_ecoul>
-4.13436031341553

> <r_i_glide_erotb>
0.447933694318866

> <r_i_glide_esite>
-0.0283194273264707

> <r_i_glide_emodel>
-43.0082167518925

> <r_i_glide_energy>
-33.7778730392456

> <r_i_glide_einternal>
6.76397132873535

> <i_i_glide_confnum>
32

> <i_i_glide_posenum>
188

> <r_i_glide_eff_state_penalty>
0

> <s_user_duplicate_titles>
CHEMBL260_lig183

> <s_m_subgroup_title>
dock_pv

> <s_m_subgroupid>
dock_pv

> <b_m_subgroup_collapsed>
1

$$$$
CHEMBL260_lig1397
                    3D
 Schrodinger Suite 2021-1.
 58 61  0  0  1  0            999 V2000
   -2.6532    0.1495   20.6655 C   0  0  0  0  0  0
   -3.1775   -0.0317   19.4206 N   0  0  0  0  0  0
   -3.6338    1.1607   18.9702 C   0  0  0  0  0  0
   -3.4280    2.1065   19.8760 N   0  0  0  0  0  0
   -2.8352    1.5061   20.9211 C   0  0  0  0  0  0
   -4.3798    1.2870   17.3672 S   0  0  0  0  0  0
   -2.8677    1.3668   16.3150 C   0  0  0  0  0  0
   -2.4459    2.8035   15.9824 C   0  0  1  0  0  0
   -2.4836    2.1846   22.2227 C   0  0  0  0  0  0
   -2.9989    1.6817   23.4266 C   0  0  0  0  0  0
   -2.6744    2.2682   24.6466 C   0  0  0  0  0  0
   -1.8010    3.3499   24.6752 C   0  0  0  0  0  0
   -1.2678    3.8539   23.4933 C   0  0  0  0  0  0
   -1.6351    3.2869   22.2746 C   0  0  0  0  0  0
   -2.0852   -0.9656   21.4484 C   0  0  0  0  0  0
   -2.3763   -2.2692   21.0516 C   0  0  0  0  0  0
   -1.9039   -3.3075   21.8241 C   0  0  0  0  0  0
   -1.2349   -3.1131   22.9858 N   0  0  0  0  0  0
   -0.9326   -1.8568   23.3671 C   0  0  0  0  0  0
   -1.2937   -0.7602   22.5854 C   0  0  0  0  0  0
   -1.4725    3.9182   25.8560 F   0  0  0  0  0  0
   -2.0350    3.2870   17.2223 O   0  0  0  0  0  0
   -1.2820    3.1572   15.0106 C   0  0  0  0  0  0
   -0.1901    2.2551   15.0760 O   0  0  0  0  0  0
   -0.2517   -1.7494   24.5852 N   0  0  0  0  0  0
   -0.3683   -0.5711   25.4446 C   0  0  2  0  0  0
    1.0222    0.0048   25.7470 C   0  0  0  0  0  0
   -1.2155   -0.9420   26.6759 C   0  0  0  0  0  0
   -0.7673   -0.7135   27.9864 C   0  0  0  0  0  0
   -1.5593   -1.0703   29.0750 C   0  0  0  0  0  0
   -2.8006   -1.6659   28.8641 C   0  0  0  0  0  0
   -3.2562   -1.9041   27.5712 C   0  0  0  0  0  0
   -2.4809   -1.5148   26.4840 C   0  0  0  0  0  0
   -3.2182   -0.9047   18.9152 H   0  0  0  0  0  0
   -2.0612    0.8871   16.8588 H   0  0  0  0  0  0
   -3.0459    0.8022   15.3999 H   0  0  0  0  0  0
   -3.3558    3.2936   15.6552 H   0  0  0  0  0  0
   -3.6351    0.8106   23.4192 H   0  0  0  0  0  0
   -3.0756    1.8713   25.5675 H   0  0  0  0  0  0
   -0.5819    4.6873   23.5222 H   0  0  0  0  0  0
   -1.2351    3.6877   21.3552 H   0  0  0  0  0  0
   -2.9507   -2.4971   20.1662 H   0  0  0  0  0  0
   -2.0754   -4.3129   21.4761 H   0  0  0  0  0  0
   -0.9694    0.2271   22.8627 H   0  0  0  0  0  0
   -1.0866    3.4925   17.1842 H   0  0  0  0  0  0
   -1.6349    3.2870   13.9867 H   0  0  0  0  0  0
   -0.8781    4.1425   15.2534 H   0  0  0  0  0  0
   -0.3975    1.4838   14.5418 H   0  0  0  0  0  0
    0.1714   -2.5756   24.9838 H   0  0  0  0  0  0
   -0.9368    0.2143   24.9525 H   0  0  0  0  0  0
    0.9621    0.9280   26.3245 H   0  0  0  0  0  0
    1.6087   -0.7129   26.3155 H   0  0  0  0  0  0
    1.5651    0.2333   24.8296 H   0  0  0  0  0  0
    0.1973   -0.2704   28.1848 H   0  0  0  0  0  0
   -1.2012   -0.9026   30.0807 H   0  0  0  0  0  0
   -3.4043   -1.9599   29.7100 H   0  0  0  0  0  0
   -4.2154   -2.3734   27.4138 H   0  0  0  0  0  0
   -2.8546   -1.6916   25.4856 H   0  0  0  0  0  0
  1 15  1  0  0  0
  1  5  2  0  0  0
  1  2  1  0  0  0
  2  3  1  0  0  0
  2 34  1  0  0  0
  3  4  2  0  0  0
  3  6  1  0  0  0
  4  5  1  0  0  0
  5  9  1  0  0  0
  6  7  1  0  0  0
  7  8  1  0  0  0
  7 35  1  0  0  0
  7 36  1  0  0  0
  8 22  1  0  0  0
  8 23  1  0  0  0
  8 37  1  0  0  0
  9 10  2  0  0  0
  9 14  1  0  0  0
 10 11  1  0  0  0
 10 38  1  0  0  0
 11 12  2  0  0  0
 11 39  1  0  0  0
 12 21  1  0  0  0
 12 13  1  0  0  0
 13 14  2  0  0  0
 13 40  1  0  0  0
 14 41  1  0  0  0
 15 20  1  0  0  0
 15 16  2  0  0  0
 16 17  1  0  0  0
 16 42  1  0  0  0
 17 18  2  0  0  0
 17 43  1  0  0  0
 18 19  1  0  0  0
 19 20  2  0  0  0
 19 25  1  0  0  0
 20 44  1  0  0  0
 22 45  1  0  0  0
 23 24  1  0  0  0
 23 46  1  0  0  0
 23 47  1  0  0  0
 24 48  1  0  0  0
 25 26  1  0  0  0
 25 49  1  0  0  0
 26 27  1  0  0  0
 26 28  1  0  0  0
 26 50  1  0  0  0
 27 51  1  0  0  0
 27 52  1  0  0  0
 27 53  1  0  0  0
 28 29  2  0  0  0
 28 33  1  0  0  0
 29 30  1  0  0  0
 29 54  1  0  0  0
 30 31  2  0  0  0
 30 55  1  0  0  0
 31 32  1  0  0  0
 31 56  1  0  0  0
 32 33  2  0  0  0
 32 57  1  0  0  0
 33 58  1  0  0  0
M  END
> <s_m_entry_id>
61076

> <s_m_entry_name>
dock_pv.353

> <s_m_Source_Path>
/home/csk/Desktop/cluster/DUD-E-result/mk14

> <s_m_Source_File>
dock_pv.maegz

> <i_m_Source_File_Index>
353

> <chembl_id>
CHEMBL462462

> <chembl_pref_name>
None

> <i_lp_mmshare_version>
53161

> <i_f3d_flags>
0

> <r_lp_tautomer_probability>
0.999999772176425

> <s_lp_Force_Field>
OPLS_2005

> <r_lp_Energy>
13.720764

> <b_lp_Chiralities_Consistent>
1

> <s_lp_Variant>
CHEMBL260_lig1397-2

> <s_i_glide_gridfile>
glide-grid_2qd9

> <i_i_glide_lignum>
1603

> <i_i_glide_rotatable_bonds>
11

> <r_i_docking_score>
-6.8993749180326

> <r_i_glide_ligand_efficiency>
-0.209071967213109

> <r_i_glide_ligand_efficiency_sa>
-0.670605511494217

> <r_i_glide_ligand_efficiency_ln>
-1.53438525871898

> <r_i_glide_gscore>
-6.8993749180326

> <r_i_glide_lipo>
-2.99940861806601

> <r_i_glide_hbond>
-0.171542432456734

> <r_i_glide_metal>
0

> <r_i_glide_rewards>
-1.0795891769104

> <r_i_glide_evdw>
-34.7821617126465

> <r_i_glide_ecoul>
-9.88462066650391

> <r_i_glide_erotb>
0.588520408479155

> <r_i_glide_esite>
-0.015553913470707

> <r_i_glide_emodel>
-36.7322383800622

> <r_i_glide_energy>
-44.6667823791504

> <r_i_glide_einternal>
23.1863422393799

> <i_i_glide_confnum>
78

> <i_i_glide_posenum>
93

> <r_i_glide_eff_state_penalty>
0

> <s_user_duplicate_titles>
CHEMBL260_lig1397,471066

> <s_m_subgroup_title>
dock_pv

> <s_m_subgroupid>
dock_pv

> <b_m_subgroup_collapsed>
1

$$$$
CHEMBL260_lig1678
                    3D
 Schrodinger Suite 2021-1.
 51 55  0  0  1  0            999 V2000
   -2.8001   -0.7173   20.8643 N   0  0  0  0  0  0
   -2.3338   -1.3788   21.9764 C   0  0  0  0  0  0
   -1.8076   -0.5085   23.0126 C   0  0  0  0  0  0
   -1.7849    0.8512   22.9766 C   0  0  0  0  0  0
   -2.8074    0.6821   20.7669 C   0  0  0  0  0  0
   -2.3044    1.4967   21.7713 C   0  0  0  0  0  0
   -2.4348    2.7917   21.2728 C   0  0  0  0  0  0
   -2.9609    2.8230   20.0699 N   0  0  0  0  0  0
   -3.2360    1.5422   19.7614 N   0  0  0  0  0  0
   -3.1941   -1.5159   19.7145 C   0  0  0  0  0  0
   -2.3299   -2.6041   22.1367 O   0  0  0  0  0  0
   -1.2750    1.6519   23.9790 N   0  0  0  0  0  0
   -3.9477    1.2965   18.5670 C   0  0  0  0  0  0
   -5.2851    0.8869   18.6251 C   0  0  0  0  0  0
   -6.0091    0.6820   17.4512 C   0  0  0  0  0  0
   -5.3878    0.8358   16.2121 C   0  0  0  0  0  0
   -4.0745    1.2864   16.1408 C   0  0  0  0  0  0
   -3.3607    1.5323   17.3134 C   0  0  0  0  0  0
   -0.8899    1.2399   25.2666 C   0  0  0  0  0  0
   -1.7153    0.3899   26.0098 C   0  0  0  0  0  0
   -1.3119   -0.1383   27.2438 C   0  0  0  0  0  0
   -0.0629    0.2517   27.7571 C   0  0  0  0  0  0
    0.7455    1.1384   27.0425 C   0  0  0  0  0  0
    0.3458    1.6245   25.7992 C   0  0  0  0  0  0
   -2.2223   -1.1128   27.9600 C   0  0  0  0  0  0
   -3.2352   -1.5246   27.3911 O   0  0  0  0  0  0
   -1.8843   -1.4631   29.2175 N   0  0  0  0  0  0
   -2.6060   -2.3081   30.1788 C   0  0  0  0  0  0
   -4.0788   -2.0597   30.4147 C   0  0  0  0  0  0
   -3.6342   -3.3437   29.7532 C   0  0  0  0  0  0
   -6.0345    0.4870   15.0770 F   0  0  0  0  0  0
   -5.8854    0.6822   19.8157 F   0  0  0  0  0  0
    1.1649    2.4576   25.1118 F   0  0  0  0  0  0
   -1.3975   -1.0265   23.8634 H   0  0  0  0  0  0
   -2.1086    3.6866   21.7770 H   0  0  0  0  0  0
   -2.5672   -1.2537   18.8637 H   0  0  0  0  0  0
   -3.1011   -2.5943   19.8762 H   0  0  0  0  0  0
   -4.2319   -1.3115   19.4772 H   0  0  0  0  0  0
   -0.9759    2.5873   23.7515 H   0  0  0  0  0  0
   -7.0221    0.3172   17.5118 H   0  0  0  0  0  0
   -3.6072    1.4291   15.1762 H   0  0  0  0  0  0
   -2.3558    1.8977   17.2107 H   0  0  0  0  0  0
   -2.6728    0.1108   25.5901 H   0  0  0  0  0  0
    0.3058   -0.1188   28.7045 H   0  0  0  0  0  0
    1.7036    1.4330   27.4498 H   0  0  0  0  0  0
   -0.9790   -1.1566   29.5371 H   0  0  0  0  0  0
   -1.9946   -2.5694   31.0414 H   0  0  0  0  0  0
   -4.5593   -1.2810   29.8266 H   0  0  0  0  0  0
   -4.4608   -2.0917   31.4305 H   0  0  0  0  0  0
   -3.6828   -4.2746   30.3206 H   0  0  0  0  0  0
   -3.8457   -3.5125   28.6984 H   0  0  0  0  0  0
  1 10  1  0  0  0
  1  5  1  0  0  0
  1  2  1  0  0  0
  2 11  2  0  0  0
  2  3  1  0  0  0
  3  4  2  0  0  0
  3 34  1  0  0  0
  4 12  1  0  0  0
  4  6  1  0  0  0
  5  9  1  0  0  0
  5  6  2  0  0  0
  6  7  1  0  0  0
  7  8  2  0  0  0
  7 35  1  0  0  0
  8  9  1  0  0  0
  9 13  1  0  0  0
 10 36  1  0  0  0
 10 37  1  0  0  0
 10 38  1  0  0  0
 12 19  1  0  0  0
 12 39  1  0  0  0
 13 18  1  0  0  0
 13 14  2  0  0  0
 14 15  1  0  0  0
 14 32  1  0  0  0
 15 16  2  0  0  0
 15 40  1  0  0  0
 16 17  1  0  0  0
 16 31  1  0  0  0
 17 18  2  0  0  0
 17 41  1  0  0  0
 18 42  1  0  0  0
 19 20  2  0  0  0
 19 24  1  0  0  0
 20 21  1  0  0  0
 20 43  1  0  0  0
 21 22  2  0  0  0
 21 25  1  0  0  0
 22 23  1  0  0  0
 22 44  1  0  0  0
 23 24  2  0  0  0
 23 45  1  0  0  0
 24 33  1  0  0  0
 25 26  2  0  0  0
 25 27  1  0  0  0
 27 28  1  0  0  0
 27 46  1  0  0  0
 28 29  1  0  0  0
 28 30  1  0  0  0
 28 47  1  0  0  0
 29 30  1  0  0  0
 29 48  1  0  0  0
 29 49  1  0  0  0
 30 50  1  0  0  0
 30 51  1  0  0  0
M  END
> <s_m_entry_id>
61077

> <s_m_entry_name>
dock_pv.354

> <s_m_Source_Path>
/home/csk/Desktop/cluster/DUD-E-result/mk14

> <s_m_Source_File>
dock_pv.maegz

> <i_m_Source_File_Index>
354

> <chembl_id>
CHEMBL559935

> <chembl_pref_name>
None

> <i_lp_mmshare_version>
53161

> <i_f3d_flags>
0

> <r_lp_tautomer_probability>
1

> <s_lp_Force_Field>
OPLS_2005

> <r_lp_Energy>
61.044194

> <b_lp_Chiralities_Consistent>
1

> <s_lp_Variant>
CHEMBL260_lig1678-1

> <s_i_glide_gridfile>
glide-grid_2qd9

> <i_i_glide_lignum>
1930

> <i_i_glide_rotatable_bonds>
6

> <r_i_docking_score>
-6.89148108402392

> <r_i_glide_ligand_efficiency>
-0.208832760121937

> <r_i_glide_ligand_efficiency_sa>
-0.669838246538198

> <r_i_glide_ligand_efficiency_ln>
-1.53262971090754

> <r_i_glide_gscore>
-6.89148108402392

> <r_i_glide_lipo>
-2.60110342422675

> <r_i_glide_hbond>
0

> <r_i_glide_metal>
0

> <r_i_glide_rewards>
-2.15207230093175

> <r_i_glide_evdw>
-40.050968170166

> <r_i_glide_ecoul>
-4.53743648529053

> <r_i_glide_erotb>
0.585824945229087

> <r_i_glide_esite>
-0.0409664227926347

> <r_i_glide_emodel>
-56.7867027863397

> <r_i_glide_energy>
-44.5884046554565

> <r_i_glide_einternal>
5.85040712356567

> <i_i_glide_confnum>
6

> <i_i_glide_posenum>
133

> <r_i_glide_eff_state_penalty>
0

> <s_user_duplicate_titles>
CHEMBL260_lig1678

> <s_m_subgroup_title>
dock_pv

> <s_m_subgroupid>
dock_pv

> <b_m_subgroup_collapsed>
1

$$$$
CHEMBL260_lig674
                    3D
 Schrodinger Suite 2021-1.
 37 40  0  0  1  0            999 V2000
   -2.8381    2.5025   20.2007 N   0  0  0  0  0  0
   -3.2647    1.3449   19.5973 C   0  0  0  0  0  0
   -3.0498    0.3390   20.5827 C   0  0  0  0  0  0
   -2.4349    2.3940   21.4729 N   0  0  0  0  0  0
   -2.5285    1.0530   21.7054 C   0  0  0  0  0  0
   -2.0570   -1.7454   24.1028 N   0  0  0  0  0  0
   -2.1857    0.3762   22.8833 C   0  0  0  0  0  0
   -3.2220   -1.0498   20.6652 C   0  0  0  0  0  0
   -1.4570   -1.2911   25.2904 C   0  0  0  0  0  0
   -2.3486   -1.0126   22.9406 C   0  0  0  0  0  0
   -3.8630    1.2987   18.2369 C   0  0  0  0  0  0
   -0.1700   -0.7169   25.3369 C   0  0  0  0  0  0
   -2.8607   -1.7042   21.8432 C   0  0  0  0  0  0
    0.8135   -0.5266   23.9231 Cl  0  0  0  0  0  0
   -2.1469   -1.5116   26.4863 C   0  0  0  0  0  0
   -5.1903    0.8874   18.1442 C   0  0  0  0  0  0
   -3.1768    1.6869   17.0763 C   0  0  0  0  0  0
    0.3649   -0.3122   26.5623 C   0  0  0  0  0  0
   -1.6010   -1.1129   27.7061 C   0  0  0  0  0  0
   -5.8242    0.8870   16.9087 C   0  0  0  0  0  0
   -0.3475   -0.5070   27.7433 C   0  0  0  0  0  0
   -3.8129    1.6685   15.8434 C   0  0  0  0  0  0
   -5.1397    1.2692   15.7619 C   0  0  0  0  0  0
   -2.8514    3.3970   19.7385 H   0  0  0  0  0  0
   -2.7447   -2.4659   24.2546 H   0  0  0  0  0  0
   -1.8052    0.9249   23.7310 H   0  0  0  0  0  0
   -3.6173   -1.6098   19.8323 H   0  0  0  0  0  0
   -2.9918   -2.7752   21.8952 H   0  0  0  0  0  0
   -3.1188   -1.9818   26.4769 H   0  0  0  0  0  0
   -5.7357    0.5762   19.0243 H   0  0  0  0  0  0
   -2.1469    2.0078   17.0760 H   0  0  0  0  0  0
    1.3482    0.1337   26.6043 H   0  0  0  0  0  0
   -2.1438   -1.2847   28.6240 H   0  0  0  0  0  0
   -6.8349    0.5396   16.8392 H   0  0  0  0  0  0
    0.0841   -0.2066   28.6878 H   0  0  0  0  0  0
   -3.2713    1.9595   14.9567 H   0  0  0  0  0  0
   -5.6342    1.2427   14.8026 H   0  0  0  0  0  0
  1  2  1  0  0  0
  1  4  1  0  0  0
  1 24  1  0  0  0
  2  3  2  0  0  0
  2 11  1  0  0  0
  3  8  1  0  0  0
  3  5  1  0  0  0
  4  5  2  0  0  0
  5  7  1  0  0  0
  6 10  1  0  0  0
  6  9  1  0  0  0
  6 25  1  0  0  0
  7 10  2  0  0  0
  7 26  1  0  0  0
  8 13  2  0  0  0
  8 27  1  0  0  0
  9 12  2  0  0  0
  9 15  1  0  0  0
 10 13  1  0  0  0
 11 16  2  0  0  0
 11 17  1  0  0  0
 12 14  1  0  0  0
 12 18  1  0  0  0
 13 28  1  0  0  0
 15 19  2  0  0  0
 15 29  1  0  0  0
 16 20  1  0  0  0
 16 30  1  0  0  0
 17 22  2  0  0  0
 17 31  1  0  0  0
 18 21  2  0  0  0
 18 32  1  0  0  0
 19 21  1  0  0  0
 19 33  1  0  0  0
 20 23  2  0  0  0
 20 34  1  0  0  0
 21 35  1  0  0  0
 22 23  1  0  0  0
 22 36  1  0  0  0
 23 37  1  0  0  0
M  END
> <s_m_entry_id>
61078

> <s_m_entry_name>
dock_pv.355

> <s_m_Source_Path>
/home/csk/Desktop/cluster/DUD-E-result/mk14

> <s_m_Source_File>
dock_pv.maegz

> <i_m_Source_File_Index>
355

> <chembl_id>
CHEMBL440566

> <chembl_pref_name>
None

> <i_lp_mmshare_version>
53161

> <i_f3d_flags>
0

> <r_lp_tautomer_probability>
1

> <s_lp_Force_Field>
OPLS_2005

> <r_lp_Energy>
37.668898

> <b_lp_Chiralities_Consistent>
1

> <s_lp_Variant>
CHEMBL260_lig674-1

> <s_i_glide_gridfile>
glide-grid_2qd9

> <i_i_glide_lignum>
760

> <i_i_glide_rotatable_bonds>
3

> <r_i_docking_score>
-6.86258748143929

> <r_i_glide_ligand_efficiency>
-0.29837336875823

> <r_i_glide_ligand_efficiency_sa>
-0.848534170191747

> <r_i_glide_ligand_efficiency_ln>
-1.65943587951493

> <r_i_glide_gscore>
-6.86258748143929

> <r_i_glide_lipo>
-3.98171203963352

> <r_i_glide_hbond>
0

> <r_i_glide_metal>
0

> <r_i_glide_rewards>
-1.43053770594668

> <r_i_glide_evdw>
-39.7204132080078

> <r_i_glide_ecoul>
-0.0788881108164787

> <r_i_glide_erotb>
0.54751614116377

> <r_i_glide_esite>
0

> <r_i_glide_emodel>
-50.48976881072

> <r_i_glide_energy>
-39.7993013188243

> <r_i_glide_einternal>
9.87644100189209

> <i_i_glide_confnum>
25

> <i_i_glide_posenum>
367

> <r_i_glide_eff_state_penalty>
0

> <s_user_duplicate_titles>
CHEMBL260_lig674,330984

> <s_m_subgroup_title>
dock_pv

> <s_m_subgroupid>
dock_pv

> <b_m_subgroup_collapsed>
1

$$$$
CHEMBL260_lig431
                    3D
 Schrodinger Suite 2021-1.
 44 47  0  0  1  0            999 V2000
   -5.2915    1.1323   16.6678 C   0  0  0  0  0  0
   -4.0014    1.6238   16.5308 C   0  0  0  0  0  0
   -3.2351    1.8681   17.6668 C   0  0  0  0  0  0
   -3.7283    1.5634   18.9515 C   0  0  0  0  0  0
   -5.0222    1.0467   19.0633 C   0  0  0  0  0  0
   -5.8165    0.8847   17.9304 C   0  0  0  0  0  0
   -6.0345    0.8867   15.5683 F   0  0  0  0  0  0
   -3.0089    1.8005   20.2538 C   0  0  0  0  0  0
   -2.7274    0.8607   21.2588 C   0  0  0  0  0  0
   -2.2458    1.5521   22.3317 N   0  0  0  0  0  0
   -2.0350    2.8614   22.0479 C   0  0  0  0  0  0
   -2.4351    3.0095   20.7157 C   0  0  0  0  0  0
   -2.7067   -0.6207   21.3418 C   0  0  0  0  0  0
   -2.3658   -1.3714   20.2152 C   0  0  0  0  0  0
   -2.0350   -2.7129   20.3911 C   0  0  0  0  0  0
   -2.0353   -3.3267   21.6012 N   0  0  0  0  0  0
   -2.4350   -2.6066   22.6749 C   0  0  0  0  0  0
   -2.7929   -1.2640   22.5870 C   0  0  0  0  0  0
   -1.3030    3.6870   23.0506 C   0  0  0  0  0  0
   -1.7245    3.6868   24.3847 C   0  0  0  0  0  0
   -1.0128    4.4043   25.3407 C   0  0  0  0  0  0
    0.1313    5.1045   24.9616 C   0  0  0  0  0  0
    0.5534    5.1259   23.6341 C   0  0  0  0  0  0
   -0.1709    4.4234   22.6762 C   0  0  0  0  0  0
    1.0997    5.9912   26.2182 S   0  0  2  0  0  0
    2.0084    4.4871   26.8091 C   0  0  0  0  0  0
    0.1126    6.3583   27.3278 O   0  0  0  0  0  0
   -3.6110    1.8465   15.5481 H   0  0  0  0  0  0
   -2.2923    2.3478   17.4760 H   0  0  0  0  0  0
   -5.4357    0.8115   20.0337 H   0  0  0  0  0  0
   -6.8231    0.5014   18.0232 H   0  0  0  0  0  0
   -1.9347    1.1113   23.1851 H   0  0  0  0  0  0
   -2.3635    3.9198   20.1411 H   0  0  0  0  0  0
   -2.2839   -0.9145   19.2398 H   0  0  0  0  0  0
   -1.7519   -3.3302   19.5515 H   0  0  0  0  0  0
   -2.4349   -3.1132   23.6278 H   0  0  0  0  0  0
   -3.0520   -0.7232   23.4852 H   0  0  0  0  0  0
   -2.5946    3.1222   24.6878 H   0  0  0  0  0  0
   -1.3294    4.3966   26.3743 H   0  0  0  0  0  0
    1.4417    5.6698   23.3454 H   0  0  0  0  0  0
    0.1662    4.4388   21.6482 H   0  0  0  0  0  0
    2.5636    4.0206   25.9947 H   0  0  0  0  0  0
    2.7114    4.7556   27.5971 H   0  0  0  0  0  0
    1.3133    3.7534   27.2165 H   0  0  0  0  0  0
  1  2  2  0  0  0
  1  7  1  0  0  0
  1  6  1  0  0  0
  2  3  1  0  0  0
  2 28  1  0  0  0
  3  4  2  0  0  0
  3 29  1  0  0  0
  4  5  1  0  0  0
  4  8  1  0  0  0
  5  6  2  0  0  0
  5 30  1  0  0  0
  6 31  1  0  0  0
  8  9  2  0  0  0
  8 12  1  0  0  0
  9 13  1  0  0  0
  9 10  1  0  0  0
 10 11  1  0  0  0
 10 32  1  0  0  0
 11 12  2  0  0  0
 11 19  1  0  0  0
 12 33  1  0  0  0
 13 14  2  0  0  0
 13 18  1  0  0  0
 14 15  1  0  0  0
 14 34  1  0  0  0
 15 16  2  0  0  0
 15 35  1  0  0  0
 16 17  1  0  0  0
 17 18  2  0  0  0
 17 36  1  0  0  0
 18 37  1  0  0  0
 19 20  2  0  0  0
 19 24  1  0  0  0
 20 21  1  0  0  0
 20 38  1  0  0  0
 21 22  2  0  0  0
 21 39  1  0  0  0
 22 23  1  0  0  0
 22 25  1  0  0  0
 23 24  2  0  0  0
 23 40  1  0  0  0
 24 41  1  0  0  0
 25 26  1  0  0  0
 25 27  2  0  0  0
 26 42  1  0  0  0
 26 43  1  0  0  0
 26 44  1  0  0  0
M  END
> <s_m_entry_id>
61079

> <s_m_entry_name>
dock_pv.356

> <s_m_Source_Path>
/home/csk/Desktop/cluster/DUD-E-result/mk14

> <s_m_Source_File>
dock_pv.maegz

> <i_m_Source_File_Index>
356

> <chembl_id>
CHEMBL155687

> <chembl_pref_name>
None

> <i_lp_mmshare_version>
53161

> <i_f3d_flags>
0

> <r_lp_tautomer_probability>
1

> <s_lp_Force_Field>
OPLS_2005

> <r_lp_Energy>
13.177477

> <b_lp_Chiralities_Consistent>
1

> <s_lp_Variant>
CHEMBL260_lig431-2

> <s_i_glide_gridfile>
glide-grid_2qd9

> <i_i_glide_lignum>
500

> <i_i_glide_rotatable_bonds>
4

> <r_i_docking_score>
-6.85668253977278

> <r_i_glide_ligand_efficiency>
-0.25395120517677

> <r_i_glide_ligand_efficiency_sa>
-0.761853614693327

> <r_i_glide_ligand_efficiency_ln>
-1.59612265401278

> <r_i_glide_gscore>
-6.85668253977278

> <r_i_glide_lipo>
-2.94314660673832

> <r_i_glide_hbond>
-0.265365404078994

> <r_i_glide_metal>
0

> <r_i_glide_rewards>
-2.22831429255976

> <r_i_glide_evdw>
-31.0183906555176

> <r_i_glide_ecoul>
-1.83038413524628

> <r_i_glide_erotb>
0.409795983882982

> <r_i_glide_esite>
-0.00417506721586663

> <r_i_glide_emodel>
-40.3348550929908

> <r_i_glide_energy>
-32.8487747907639

> <r_i_glide_einternal>
5.91950273513794

> <i_i_glide_confnum>
24

> <i_i_glide_posenum>
399

> <r_i_glide_eff_state_penalty>
0

> <s_user_duplicate_titles>
CHEMBL260_lig431,263298

> <s_m_subgroup_title>
dock_pv

> <s_m_subgroupid>
dock_pv

> <b_m_subgroup_collapsed>
1

$$$$
CHEMBL260_lig1585
                    3D
 Schrodinger Suite 2021-1.
 55 57  0  0  1  0            999 V2000
   -2.9291   -0.2577   22.0714 C   0  0  0  0  0  0
   -2.1914   -1.4370   21.8827 C   0  0  0  0  0  0
   -1.9351   -1.8696   20.5813 C   0  0  0  0  0  0
   -2.4355   -1.1554   19.4979 C   0  0  0  0  0  0
   -3.2544   -0.0346   19.6760 C   0  0  0  0  0  0
   -3.4490    0.4331   20.9757 C   0  0  0  0  0  0
   -3.8987    0.6146   18.4861 C   0  0  0  0  0  0
   -3.1065    0.9487   17.4014 C   0  0  0  0  0  0
   -3.6371    1.4771   16.2266 C   0  0  0  0  0  0
   -5.0018    1.6193   16.0608 C   0  0  0  0  0  0
   -5.8182    1.2870   17.1228 C   0  0  0  0  0  0
   -5.2827    0.8091   18.3226 C   0  0  0  0  0  0
   -6.2427    0.3482   19.3638 C   0  0  0  0  0  0
   -1.6800   -2.2473   23.0488 C   0  0  0  0  0  0
   -1.6441   -3.4814   23.0095 O   0  0  0  0  0  0
   -1.2546   -1.5288   24.0994 N   0  0  0  0  0  0
   -0.6823   -2.0780   25.3196 C   0  0  0  0  0  0
   -0.0073   -0.9855   26.1618 C   0  0  0  0  0  0
   -0.8432    0.0028   26.9362 C   0  0  0  0  0  0
   -0.0356   -1.0547   27.6684 C   0  0  0  0  0  0
   -2.8112    1.9610   15.2390 N   0  0  0  0  0  0
   -1.8568    2.8749   15.4757 C   0  0  0  0  0  0
   -1.1715    3.4980   14.2463 C   0  0  0  0  0  0
   -1.6349    3.2870   16.6046 O   0  0  0  0  0  0
    0.2412    3.0390   13.8139 C   0  0  0  0  0  0
    0.4799    3.2970   12.3136 C   0  0  0  0  0  0
    0.7120    1.6626   14.2760 C   0  0  0  0  0  0
   -3.1359    0.1150   23.0648 H   0  0  0  0  0  0
   -1.3543   -2.7635   20.3969 H   0  0  0  0  0  0
   -2.2118   -1.5127   18.5088 H   0  0  0  0  0  0
   -4.0315    1.3260   21.1351 H   0  0  0  0  0  0
   -2.0424    0.8241   17.4753 H   0  0  0  0  0  0
   -5.4237    2.0251   15.1525 H   0  0  0  0  0  0
   -6.8771    1.4063   17.0112 H   0  0  0  0  0  0
   -6.0375    0.8813   20.2760 H   0  0  0  0  0  0
   -7.2773    0.4857   19.0774 H   0  0  0  0  0  0
   -6.0547   -0.7129   19.4759 H   0  0  0  0  0  0
   -1.2896   -0.5230   24.0368 H   0  0  0  0  0  0
   -1.5380   -2.4599   25.8794 H   0  0  0  0  0  0
   -0.0311   -2.9424   25.1800 H   0  0  0  0  0  0
    0.9144   -0.6267   25.7008 H   0  0  0  0  0  0
   -0.5138    1.0417   26.9755 H   0  0  0  0  0  0
   -1.9299   -0.0876   26.9019 H   0  0  0  0  0  0
   -0.5573   -1.8806   28.1540 H   0  0  0  0  0  0
    0.8540   -0.7462   28.2203 H   0  0  0  0  0  0
   -3.0925    1.8035   14.2835 H   0  0  0  0  0  0
   -1.1828    4.5789   14.3729 H   0  0  0  0  0  0
   -1.8103    3.2950   13.3967 H   0  0  0  0  0  0
    0.9465    3.6875   14.2762 H   0  0  0  0  0  0
   -0.0295    2.5638   11.6866 H   0  0  0  0  0  0
    1.5438    3.2851   12.0745 H   0  0  0  0  0  0
    0.1181    4.2837   12.0210 H   0  0  0  0  0  0
    0.3650    0.8631   13.6230 H   0  0  0  0  0  0
    1.7975    1.6852   14.2794 H   0  0  0  0  0  0
    0.4061    1.4211   15.2909 H   0  0  0  0  0  0
  1  2  2  0  0  0
  1  6  1  0  0  0
  1 28  1  0  0  0
  2 14  1  0  0  0
  2  3  1  0  0  0
  3  4  2  0  0  0
  3 29  1  0  0  0
  4  5  1  0  0  0
  4 30  1  0  0  0
  5  6  2  0  0  0
  5  7  1  0  0  0
  6 31  1  0  0  0
  7  8  2  0  0  0
  7 12  1  0  0  0
  8  9  1  0  0  0
  8 32  1  0  0  0
  9 10  2  0  0  0
  9 21  1  0  0  0
 10 11  1  0  0  0
 10 33  1  0  0  0
 11 12  2  0  0  0
 11 34  1  0  0  0
 12 13  1  0  0  0
 13 35  1  0  0  0
 13 36  1  0  0  0
 13 37  1  0  0  0
 14 15  2  0  0  0
 14 16  1  0  0  0
 16 17  1  0  0  0
 16 38  1  0  0  0
 17 18  1  0  0  0
 17 39  1  0  0  0
 17 40  1  0  0  0
 18 19  1  0  0  0
 18 20  1  0  0  0
 18 41  1  0  0  0
 19 20  1  0  0  0
 19 42  1  0  0  0
 19 43  1  0  0  0
 20 44  1  0  0  0
 20 45  1  0  0  0
 21 22  1  0  0  0
 21 46  1  0  0  0
 22 23  1  0  0  0
 22 24  2  0  0  0
 23 25  1  0  0  0
 23 47  1  0  0  0
 23 48  1  0  0  0
 25 26  1  0  0  0
 25 27  1  0  0  0
 25 49  1  0  0  0
 26 50  1  0  0  0
 26 51  1  0  0  0
 26 52  1  0  0  0
 27 53  1  0  0  0
 27 54  1  0  0  0
 27 55  1  0  0  0
M  END
> <s_m_entry_id>
61080

> <s_m_entry_name>
dock_pv.357

> <s_m_Source_Path>
/home/csk/Desktop/cluster/DUD-E-result/mk14

> <s_m_Source_File>
dock_pv.maegz

> <i_m_Source_File_Index>
357

> <chembl_id>
CHEMBL479257

> <chembl_pref_name>
None

> <i_lp_mmshare_version>
53161

> <i_f3d_flags>
0

> <r_lp_tautomer_probability>
1

> <s_lp_Force_Field>
OPLS_2005

> <r_lp_Energy>
33.566359

> <b_lp_Chiralities_Consistent>
1

> <s_lp_Variant>
CHEMBL260_lig1585-1

> <s_i_glide_gridfile>
glide-grid_2qd9

> <i_i_glide_lignum>
1834

> <i_i_glide_rotatable_bonds>
9

> <r_i_docking_score>
-6.85351948708075

> <r_i_glide_ligand_efficiency>
-0.253834055077065

> <r_i_glide_ligand_efficiency_sa>
-0.761502164394599

> <r_i_glide_ligand_efficiency_ln>
-1.59538634749308

> <r_i_glide_gscore>
-6.85351948708075

> <r_i_glide_lipo>
-4.52072026405378

> <r_i_glide_hbond>
-0.586795564912227

> <r_i_glide_metal>
0

> <r_i_glide_rewards>
-0.261198172236885

> <r_i_glide_evdw>
-27.3138599395752

> <r_i_glide_ecoul>
-7.5476131439209

> <r_i_glide_erotb>
1.01302948268903

> <r_i_glide_esite>
0

> <r_i_glide_emodel>
-37.7388447394147

> <r_i_glide_energy>
-34.8614730834961

> <r_i_glide_einternal>
7.87941360473633

> <i_i_glide_confnum>
7

> <i_i_glide_posenum>
320

> <r_i_glide_eff_state_penalty>
0

> <s_user_duplicate_titles>
CHEMBL260_lig1585

> <s_m_subgroup_title>
dock_pv

> <s_m_subgroupid>
dock_pv

> <b_m_subgroup_collapsed>
1

$$$$
CHEMBL260_lig1661
                    3D
 Schrodinger Suite 2021-1.
 40 43  0  0  1  0            999 V2000
   -1.8253   -1.2305   22.8857 N   0  0  0  0  0  0
   -2.3870   -1.7433   21.7417 C   0  0  0  0  0  0
   -2.9006   -0.7480   20.8022 C   0  0  0  0  0  0
   -2.8345    0.5996   20.9681 C   0  0  0  0  0  0
   -1.8117    0.1519   23.1358 C   0  0  0  0  0  0
   -2.2641    1.0926   22.2164 C   0  0  0  0  0  0
   -2.0350    2.3306   22.8185 C   0  0  0  0  0  0
   -1.5346    2.2082   24.0259 N   0  0  0  0  0  0
   -1.4063    0.8833   24.2408 N   0  0  0  0  0  0
   -1.1194   -2.1618   23.7784 C   0  0  0  0  0  0
   -2.4388   -2.9461   21.4803 O   0  0  0  0  0  0
   -3.2183    1.5456   20.0357 N   0  0  0  0  0  0
   -0.9575    0.4497   25.5052 C   0  0  0  0  0  0
    0.3298    0.7891   25.9487 C   0  0  0  0  0  0
    0.7645    0.3717   27.2058 C   0  0  0  0  0  0
   -0.0701   -0.3901   28.0215 C   0  0  0  0  0  0
   -1.3502   -0.7298   27.5839 C   0  0  0  0  0  0
   -1.8011   -0.3062   26.3325 C   0  0  0  0  0  0
   -3.9722    1.3360   18.8756 C   0  0  0  0  0  0
    1.1657    1.5110   25.1652 F   0  0  0  0  0  0
   -3.0566   -0.6273   25.9370 F   0  0  0  0  0  0
   -5.2861    0.8853   18.9822 C   0  0  0  0  0  0
   -6.0378    0.6812   17.8297 C   0  0  0  0  0  0
   -5.4602    0.8868   16.5806 C   0  0  0  0  0  0
   -4.1647    1.3642   16.4641 C   0  0  0  0  0  0
   -3.4283    1.6104   17.6144 C   0  0  0  0  0  0
   -6.1341    0.5528   15.4680 F   0  0  0  0  0  0
   -3.3036   -1.1425   19.8825 H   0  0  0  0  0  0
   -2.2511    3.2951   22.3870 H   0  0  0  0  0  0
   -0.7829   -3.0651   23.2650 H   0  0  0  0  0  0
   -0.2250   -1.7022   24.1997 H   0  0  0  0  0  0
   -1.7696   -2.4687   24.5971 H   0  0  0  0  0  0
   -2.6722    2.3920   20.0089 H   0  0  0  0  0  0
    1.7566    0.6365   27.5458 H   0  0  0  0  0  0
    0.2800   -0.7180   28.9906 H   0  0  0  0  0  0
   -1.9944   -1.3221   28.2177 H   0  0  0  0  0  0
   -5.7200    0.6833   19.9504 H   0  0  0  0  0  0
   -7.0467    0.3000   17.8986 H   0  0  0  0  0  0
   -3.7311    1.5268   15.4870 H   0  0  0  0  0  0
   -2.4350    1.9965   17.4826 H   0  0  0  0  0  0
  1  5  1  0  0  0
  1  2  1  0  0  0
  1 10  1  0  0  0
  2  3  1  0  0  0
  2 11  2  0  0  0
  3  4  2  0  0  0
  3 28  1  0  0  0
  4 12  1  0  0  0
  4  6  1  0  0  0
  5  9  1  0  0  0
  5  6  2  0  0  0
  6  7  1  0  0  0
  7  8  2  0  0  0
  7 29  1  0  0  0
  8  9  1  0  0  0
  9 13  1  0  0  0
 10 30  1  0  0  0
 10 31  1  0  0  0
 10 32  1  0  0  0
 12 19  1  0  0  0
 12 33  1  0  0  0
 13 14  2  0  0  0
 13 18  1  0  0  0
 14 15  1  0  0  0
 14 20  1  0  0  0
 15 16  2  0  0  0
 15 34  1  0  0  0
 16 17  1  0  0  0
 16 35  1  0  0  0
 17 18  2  0  0  0
 17 36  1  0  0  0
 18 21  1  0  0  0
 19 22  2  0  0  0
 19 26  1  0  0  0
 22 23  1  0  0  0
 22 37  1  0  0  0
 23 24  2  0  0  0
 23 38  1  0  0  0
 24 25  1  0  0  0
 24 27  1  0  0  0
 25 26  2  0  0  0
 25 39  1  0  0  0
 26 40  1  0  0  0
M  END
> <s_m_entry_id>
61081

> <s_m_entry_name>
dock_pv.358

> <s_m_Source_Path>
/home/csk/Desktop/cluster/DUD-E-result/mk14

> <s_m_Source_File>
dock_pv.maegz

> <i_m_Source_File_Index>
358

> <chembl_id>
CHEMBL550596

> <chembl_pref_name>
None

> <i_lp_mmshare_version>
53161

> <i_f3d_flags>
0

> <r_lp_tautomer_probability>
1

> <s_lp_Force_Field>
OPLS_2005

> <r_lp_Energy>
45.160872

> <b_lp_Chiralities_Consistent>
1

> <s_lp_Variant>
CHEMBL260_lig1661-1

> <s_i_glide_gridfile>
glide-grid_2qd9

> <i_i_glide_lignum>
1913

> <i_i_glide_rotatable_bonds>
3

> <r_i_docking_score>
-6.85310735177224

> <r_i_glide_ligand_efficiency>
-0.253818790806379

> <r_i_glide_ligand_efficiency_sa>
-0.761456371582592

> <r_i_glide_ligand_efficiency_ln>
-1.59529040918784

> <r_i_glide_gscore>
-6.85310735177224

> <r_i_glide_lipo>
-3.10020247738531

> <r_i_glide_hbond>
0

> <r_i_glide_metal>
0

> <r_i_glide_rewards>
-2.08301042244648

> <r_i_glide_evdw>
-40.349006652832

> <r_i_glide_ecoul>
-0.298783987760544

> <r_i_glide_erotb>
0.421988002607138

> <r_i_glide_esite>
-0.0296145237419009

> <r_i_glide_emodel>
-53.2176206566096

> <r_i_glide_energy>
-40.6477906405926

> <r_i_glide_einternal>
6.62475919723511

> <i_i_glide_confnum>
13

> <i_i_glide_posenum>
271

> <r_i_glide_eff_state_penalty>
0

> <s_user_duplicate_titles>
CHEMBL260_lig1661

> <s_m_subgroup_title>
dock_pv

> <s_m_subgroupid>
dock_pv

> <b_m_subgroup_collapsed>
1

$$$$
CHEMBL260_lig728
                    3D
 Schrodinger Suite 2021-1.
 40 42  0  0  1  0            999 V2000
   -0.0352   -0.9014   26.3743 C   0  0  0  0  0  0
    0.4552    0.4020   26.3104 C   0  0  0  0  0  0
    0.3718    1.1301   25.1171 C   0  0  0  0  0  0
   -0.2015    0.5220   23.9985 C   0  0  0  0  0  0
   -0.7503   -0.7692   24.0590 C   0  0  0  0  0  0
   -0.6257   -1.4881   25.2556 C   0  0  0  0  0  0
   -1.4393   -1.3852   22.8755 C   0  0  0  0  0  0
   -2.1562   -0.5067   21.9362 C   0  0  0  0  0  0
   -1.5212   -2.6117   22.7464 O   0  0  0  0  0  0
   -2.6305    0.7950   22.1679 C   0  0  0  0  0  0
   -3.2351    1.3161   21.1341 N   0  0  0  0  0  0
   -3.2350    0.3600   20.2027 N   0  0  0  0  0  0
   -2.5718   -0.7814   20.6333 C   0  0  0  0  0  0
   -2.4355   -1.9111   19.8758 N   0  0  0  0  0  0
   -3.9324    0.6314   19.0085 C   0  0  0  0  0  0
   -3.2554    0.8870   17.8104 C   0  0  0  0  0  0
   -3.9649    1.1407   16.6436 C   0  0  0  0  0  0
   -5.3515    1.1174   16.6746 C   0  0  0  0  0  0
   -6.0349    0.8869   17.8650 C   0  0  0  0  0  0
   -5.3284    0.6594   19.0420 C   0  0  0  0  0  0
   -6.0347    1.2861   15.5286 F   0  0  0  0  0  0
    0.8312    2.5874   24.9882 C   0  0  0  0  0  0
    1.9676    3.0594   25.9090 C   0  0  0  0  0  0
    1.5647    3.2256   27.2517 O   0  0  0  0  0  0
    0.0405   -1.4594   27.2966 H   0  0  0  0  0  0
    0.8976    0.8299   27.1966 H   0  0  0  0  0  0
   -0.2292    1.0843   23.0763 H   0  0  0  0  0  0
   -1.0078   -2.4955   25.3386 H   0  0  0  0  0  0
   -2.5445    1.3562   23.0878 H   0  0  0  0  0  0
   -2.0195   -2.7483   20.2642 H   0  0  0  0  0  0
   -2.8347   -1.9940   18.9525 H   0  0  0  0  0  0
   -2.1905    0.8118   17.7312 H   0  0  0  0  0  0
   -3.4474    1.3046   15.7090 H   0  0  0  0  0  0
   -7.1136    0.8631   17.8755 H   0  0  0  0  0  0
   -5.8677    0.4781   19.9602 H   0  0  0  0  0  0
    1.1897    2.7258   23.9669 H   0  0  0  0  0  0
   -0.0332    3.2424   25.0962 H   0  0  0  0  0  0
    2.7844    2.3408   25.8763 H   0  0  0  0  0  0
    2.3726    4.0076   25.5522 H   0  0  0  0  0  0
    2.2921    2.9022   27.8040 H   0  0  0  0  0  0
  1  2  2  0  0  0
  1  6  1  0  0  0
  1 25  1  0  0  0
  2  3  1  0  0  0
  2 26  1  0  0  0
  3  4  2  0  0  0
  3 22  1  0  0  0
  4  5  1  0  0  0
  4 27  1  0  0  0
  5  7  1  0  0  0
  5  6  2  0  0  0
  6 28  1  0  0  0
  7  8  1  0  0  0
  7  9  2  0  0  0
  8 13  2  0  0  0
  8 10  1  0  0  0
 10 11  2  0  0  0
 10 29  1  0  0  0
 11 12  1  0  0  0
 12 13  1  0  0  0
 12 15  1  0  0  0
 13 14  1  0  0  0
 14 30  1  0  0  0
 14 31  1  0  0  0
 15 16  2  0  0  0
 15 20  1  0  0  0
 16 17  1  0  0  0
 16 32  1  0  0  0
 17 18  2  0  0  0
 17 33  1  0  0  0
 18 19  1  0  0  0
 18 21  1  0  0  0
 19 20  2  0  0  0
 19 34  1  0  0  0
 20 35  1  0  0  0
 22 23  1  0  0  0
 22 36  1  0  0  0
 22 37  1  0  0  0
 23 24  1  0  0  0
 23 38  1  0  0  0
 23 39  1  0  0  0
 24 40  1  0  0  0
M  END
> <s_m_entry_id>
61082

> <s_m_entry_name>
dock_pv.359

> <s_m_Source_Path>
/home/csk/Desktop/cluster/DUD-E-result/mk14

> <s_m_Source_File>
dock_pv.maegz

> <i_m_Source_File_Index>
359

> <chembl_id>
CHEMBL380849

> <chembl_pref_name>
None

> <i_lp_mmshare_version>
53161

> <i_f3d_flags>
0

> <r_lp_tautomer_probability>
1

> <s_lp_Force_Field>
OPLS_2005

> <r_lp_Energy>
24.387278

> <b_lp_Chiralities_Consistent>
1

> <s_lp_Variant>
CHEMBL260_lig728-1

> <s_i_glide_gridfile>
glide-grid_2qd9

> <i_i_glide_lignum>
819

> <i_i_glide_rotatable_bonds>
6

> <r_i_docking_score>
-6.8481685556365

> <r_i_glide_ligand_efficiency>
-0.285340356484854

> <r_i_glide_ligand_efficiency_sa>
-0.823064012191373

> <r_i_glide_ligand_efficiency_ln>
-1.63908097734255

> <r_i_glide_gscore>
-6.8481685556365

> <r_i_glide_lipo>
-2.77564917098375

> <r_i_glide_hbond>
-0.157997322826355

> <r_i_glide_metal>
0

> <r_i_glide_rewards>
-2.22210223764277

> <r_i_glide_evdw>
-34.2343864440918

> <r_i_glide_ecoul>
-5.77305316925049

> <r_i_glide_erotb>
0.885257473408534

> <r_i_glide_esite>
0

> <r_i_glide_emodel>
-53.4204738855069

> <r_i_glide_energy>
-40.0074396133423

> <r_i_glide_einternal>
6.19879484176636

> <i_i_glide_confnum>
325

> <i_i_glide_posenum>
230

> <r_i_glide_eff_state_penalty>
0

> <s_user_duplicate_titles>
CHEMBL260_lig728,340406

> <s_m_subgroup_title>
dock_pv

> <s_m_subgroupid>
dock_pv

> <b_m_subgroup_collapsed>
1

$$$$
CHEMBL260_lig1134
                    3D
 Schrodinger Suite 2021-1.
 48 51  0  0  1  0            999 V2000
   -0.7558   -0.5302   26.0597 C   0  0  0  0  0  0
   -1.9852   -1.0076   25.5659 C   0  0  0  0  0  0
   -2.9304   -1.5462   26.4470 C   0  0  0  0  0  0
   -2.6643   -1.6324   27.8235 C   0  0  0  0  0  0
   -1.4549   -1.1135   28.3068 C   0  0  0  0  0  0
   -0.5079   -0.5856   27.4323 C   0  0  0  0  0  0
    0.3293    0.0190   25.1421 C   0  0  0  0  0  0
   -3.6351   -2.2808   28.7867 C   0  0  0  0  0  0
   -3.6798   -1.9265   29.9664 O   0  0  0  0  0  0
   -4.4214   -3.2543   28.2863 N   0  0  0  0  0  0
   -2.2980   -0.9254   24.2021 N   0  0  0  0  0  0
   -2.7618    0.3156   23.5692 C   0  0  0  0  0  0
   -2.1104   -1.9607   23.3284 C   0  0  0  0  0  0
   -1.7503   -3.1129   23.5828 O   0  0  0  0  0  0
   -2.4240   -1.3954   22.0538 C   0  0  0  0  0  0
   -2.8123   -0.0922   22.1502 C   0  0  0  0  0  0
   -3.1227    0.5545   21.0432 N   0  0  0  0  0  0
   -2.9615   -0.2412   20.0103 C   0  0  0  0  0  0
   -2.4328   -1.8619   20.3868 S   0  0  0  0  0  0
   -3.1200    0.0885   18.6914 N   0  0  0  0  0  0
   -3.6940    1.2882   18.0949 C   0  0  0  0  0  0
   -3.0771    1.5789   16.7200 C   0  0  0  0  0  0
   -3.9109    0.8278   15.6746 C   0  0  0  0  0  0
   -5.3119    0.7187   16.2724 C   0  0  0  0  0  0
   -5.1794    1.1145   17.7511 C   0  0  0  0  0  0
   -5.3683   -4.0201   29.0856 C   0  0  0  0  0  0
   -3.8658   -1.9095   26.0460 H   0  0  0  0  0  0
   -1.2196   -1.1623   29.3604 H   0  0  0  0  0  0
    0.4343   -0.2301   27.8290 H   0  0  0  0  0  0
    1.3163   -0.0598   25.6008 H   0  0  0  0  0  0
    0.3849   -0.5493   24.2122 H   0  0  0  0  0  0
    0.1351    1.0638   24.8978 H   0  0  0  0  0  0
   -4.2875   -3.5401   27.3313 H   0  0  0  0  0  0
   -3.7300    0.6092   23.9733 H   0  0  0  0  0  0
   -2.0549    1.1254   23.7514 H   0  0  0  0  0  0
   -2.9373   -0.6160   17.9908 H   0  0  0  0  0  0
   -3.5403    2.1496   18.7432 H   0  0  0  0  0  0
   -3.1022    2.6484   16.5154 H   0  0  0  0  0  0
   -2.0336    1.2879   16.6746 H   0  0  0  0  0  0
   -3.9172    1.3476   14.7158 H   0  0  0  0  0  0
   -3.5038   -0.1669   15.4852 H   0  0  0  0  0  0
   -6.0056    1.3869   15.7598 H   0  0  0  0  0  0
   -5.7173   -0.2869   16.1564 H   0  0  0  0  0  0
   -5.7108    0.4386   18.4226 H   0  0  0  0  0  0
   -5.6313    2.0864   17.8533 H   0  0  0  0  0  0
   -6.0184   -4.6106   28.4386 H   0  0  0  0  0  0
   -5.9936   -3.3655   29.6936 H   0  0  0  0  0  0
   -4.8353   -4.7050   29.7500 H   0  0  0  0  0  0
  1  2  2  0  0  0
  1  7  1  0  0  0
  1  6  1  0  0  0
  2  3  1  0  0  0
  2 11  1  0  0  0
  3  4  2  0  0  0
  3 27  1  0  0  0
  4  8  1  0  0  0
  4  5  1  0  0  0
  5  6  2  0  0  0
  5 28  1  0  0  0
  6 29  1  0  0  0
  7 30  1  0  0  0
  7 31  1  0  0  0
  7 32  1  0  0  0
  8  9  2  0  0  0
  8 10  1  0  0  0
 10 26  1  0  0  0
 10 33  1  0  0  0
 11 13  1  0  0  0
 11 12  1  0  0  0
 12 16  1  0  0  0
 12 34  1  0  0  0
 12 35  1  0  0  0
 13 15  1  0  0  0
 13 14  2  0  0  0
 15 16  2  0  0  0
 15 19  1  0  0  0
 16 17  1  0  0  0
 17 18  2  0  0  0
 18 19  1  0  0  0
 18 20  1  0  0  0
 20 21  1  0  0  0
 20 36  1  0  0  0
 21 22  1  0  0  0
 21 25  1  0  0  0
 21 37  1  0  0  0
 22 23  1  0  0  0
 22 38  1  0  0  0
 22 39  1  0  0  0
 23 24  1  0  0  0
 23 40  1  0  0  0
 23 41  1  0  0  0
 24 25  1  0  0  0
 24 42  1  0  0  0
 24 43  1  0  0  0
 25 44  1  0  0  0
 25 45  1  0  0  0
 26 46  1  0  0  0
 26 47  1  0  0  0
 26 48  1  0  0  0
M  END
> <s_m_entry_id>
61083

> <s_m_entry_name>
dock_pv.360

> <s_m_Source_Path>
/home/csk/Desktop/cluster/DUD-E-result/mk14

> <s_m_Source_File>
dock_pv.maegz

> <i_m_Source_File_Index>
360

> <chembl_id>
CHEMBL258247

> <chembl_pref_name>
None

> <i_lp_mmshare_version>
53161

> <i_f3d_flags>
0

> <r_lp_tautomer_probability>
1

> <s_lp_Force_Field>
OPLS_2005

> <r_lp_Energy>
66.96907

> <b_lp_Chiralities_Consistent>
1

> <s_lp_Variant>
CHEMBL260_lig1134-1

> <s_i_glide_gridfile>
glide-grid_2qd9

> <i_i_glide_lignum>
1271

> <i_i_glide_rotatable_bonds>
5

> <r_i_docking_score>
-6.84616608414764

> <r_i_glide_ligand_efficiency>
-0.263314080159525

> <r_i_glide_ligand_efficiency_sa>
-0.780066926381717

> <r_i_glide_ligand_efficiency_ln>
-1.6077996407589

> <r_i_glide_gscore>
-6.84616608414764

> <r_i_glide_lipo>
-3.1325050108176

> <r_i_glide_hbond>
-0.471130061853188

> <r_i_glide_metal>
0

> <r_i_glide_rewards>
-1.45009409224305

> <r_i_glide_evdw>
-37.1196937561035

> <r_i_glide_ecoul>
-3.32478952407837

> <r_i_glide_erotb>
0.562266197183134

> <r_i_glide_esite>
0

> <r_i_glide_emodel>
-53.8102147227314

> <r_i_glide_energy>
-40.4444832801819

> <r_i_glide_einternal>
6.23558187484741

> <i_i_glide_confnum>
87

> <i_i_glide_posenum>
28

> <r_i_glide_eff_state_penalty>
0

> <s_user_duplicate_titles>
CHEMBL260_lig1134,424734

> <s_m_subgroup_title>
dock_pv

> <s_m_subgroupid>
dock_pv

> <b_m_subgroup_collapsed>
1

$$$$
CHEMBL260_lig1291
                    3D
 Schrodinger Suite 2021-1.
 45 48  0  0  1  0            999 V2000
    0.2943    0.7358   25.4310 C   0  0  0  0  0  0
   -0.9641    0.4775   24.8600 C   0  0  0  0  0  0
   -1.9069   -0.2647   25.5795 C   0  0  0  0  0  0
   -1.6266   -0.7556   26.8613 C   0  0  0  0  0  0
   -0.3533   -0.5176   27.4032 C   0  0  0  0  0  0
    0.5934    0.2213   26.6959 C   0  0  0  0  0  0
   -1.3052    1.0086   23.6051 N   0  0  0  0  0  0
   -2.0039    0.4242   22.5420 C   0  0  0  0  0  0
   -3.2772   -0.7713   20.3393 N   0  0  0  0  0  0
   -2.8347   -1.4405   21.4352 C   0  0  0  0  0  0
   -2.2223   -0.9200   22.5290 N   0  0  0  0  0  0
   -3.0658    0.5502   20.4066 C   0  0  0  0  0  0
   -2.4351    1.2240   21.4716 C   0  0  0  0  0  0
   -2.4350    2.5951   21.0773 C   0  0  0  0  0  0
   -2.9864    2.7520   19.8978 N   0  0  0  0  0  0
   -3.3675    1.5258   19.4694 N   0  0  0  0  0  0
   -3.9672    1.3649   18.2142 C   0  0  0  0  0  0
   -5.2750    0.8870   18.1526 C   0  0  0  0  0  0
   -5.8522    0.6567   16.9109 C   0  0  0  0  0  0
   -5.1120    0.8595   15.7534 C   0  0  0  0  0  0
   -3.8240    1.3808   15.8099 C   0  0  0  0  0  0
   -3.2482    1.6509   17.0459 C   0  0  0  0  0  0
    1.3520    1.5541   24.6976 C   0  0  0  0  0  0
   -2.6915   -1.5129   27.6211 C   0  0  0  0  0  0
   -3.6342   -2.0439   27.0292 O   0  0  0  0  0  0
   -2.5753   -1.5132   28.9597 N   0  0  0  0  0  0
   -3.4733   -2.2150   29.8698 C   0  0  0  0  0  0
   -5.6350    0.4865   14.5708 F   0  0  0  0  0  0
   -2.8813   -0.4333   25.1423 H   0  0  0  0  0  0
   -0.0774   -0.8993   28.3763 H   0  0  0  0  0  0
    1.5620    0.3976   27.1437 H   0  0  0  0  0  0
   -1.0210    1.9632   23.4578 H   0  0  0  0  0  0
   -2.9850   -2.5103   21.4307 H   0  0  0  0  0  0
   -2.0255    3.4324   21.6190 H   0  0  0  0  0  0
   -5.8329    0.6627   19.0514 H   0  0  0  0  0  0
   -6.8350    0.2264   16.8505 H   0  0  0  0  0  0
   -3.2647    1.5453   14.9009 H   0  0  0  0  0  0
   -2.2403    2.0363   17.0758 H   0  0  0  0  0  0
    2.2611    1.6873   25.2854 H   0  0  0  0  0  0
    1.6210    1.0713   23.7572 H   0  0  0  0  0  0
    0.9677    2.5455   24.4572 H   0  0  0  0  0  0
   -1.7898   -1.0358   29.3752 H   0  0  0  0  0  0
   -2.9060   -2.6002   30.7188 H   0  0  0  0  0  0
   -3.9667   -3.0633   29.3921 H   0  0  0  0  0  0
   -4.2402   -1.5370   30.2467 H   0  0  0  0  0  0
  1  2  2  0  0  0
  1 23  1  0  0  0
  1  6  1  0  0  0
  2  7  1  0  0  0
  2  3  1  0  0  0
  3  4  2  0  0  0
  3 29  1  0  0  0
  4  5  1  0  0  0
  4 24  1  0  0  0
  5  6  2  0  0  0
  5 30  1  0  0  0
  6 31  1  0  0  0
  7  8  1  0  0  0
  7 32  1  0  0  0
  8 13  2  0  0  0
  8 11  1  0  0  0
  9 12  2  0  0  0
  9 10  1  0  0  0
 10 11  2  0  0  0
 10 33  1  0  0  0
 12 16  1  0  0  0
 12 13  1  0  0  0
 13 14  1  0  0  0
 14 15  2  0  0  0
 14 34  1  0  0  0
 15 16  1  0  0  0
 16 17  1  0  0  0
 17 18  2  0  0  0
 17 22  1  0  0  0
 18 19  1  0  0  0
 18 35  1  0  0  0
 19 20  2  0  0  0
 19 36  1  0  0  0
 20 21  1  0  0  0
 20 28  1  0  0  0
 21 22  2  0  0  0
 21 37  1  0  0  0
 22 38  1  0  0  0
 23 39  1  0  0  0
 23 40  1  0  0  0
 23 41  1  0  0  0
 24 25  2  0  0  0
 24 26  1  0  0  0
 26 27  1  0  0  0
 26 42  1  0  0  0
 27 43  1  0  0  0
 27 44  1  0  0  0
 27 45  1  0  0  0
M  END
> <s_m_entry_id>
61084

> <s_m_entry_name>
dock_pv.361

> <s_m_Source_Path>
/home/csk/Desktop/cluster/DUD-E-result/mk14

> <s_m_Source_File>
dock_pv.maegz

> <i_m_Source_File_Index>
361

> <chembl_id>
CHEMBL259212

> <chembl_pref_name>
None

> <i_lp_mmshare_version>
53161

> <i_f3d_flags>
0

> <r_lp_tautomer_probability>
1

> <s_lp_Force_Field>
OPLS_2005

> <r_lp_Energy>
16.669131

> <b_lp_Chiralities_Consistent>
1

> <s_lp_Variant>
CHEMBL260_lig1291-1

> <s_i_glide_gridfile>
glide-grid_2qd9

> <i_i_glide_lignum>
1469

> <i_i_glide_rotatable_bonds>
5

> <r_i_docking_score>
-6.843618782758

> <r_i_glide_ligand_efficiency>
-0.244414956527071

> <r_i_glide_ligand_efficiency_sa>
-0.742187760727201

> <r_i_glide_ligand_efficiency_ln>
-1.57970815243928

> <r_i_glide_gscore>
-6.843618782758

> <r_i_glide_lipo>
-2.33015725118357

> <r_i_glide_hbond>
0

> <r_i_glide_metal>
0

> <r_i_glide_rewards>
-2.46203493047199

> <r_i_glide_evdw>
-41.08056640625

> <r_i_glide_ecoul>
-3.62633609771729

> <r_i_glide_erotb>
0.546552133867661

> <r_i_glide_esite>
0

> <r_i_glide_emodel>
-58.2565699951939

> <r_i_glide_energy>
-44.7069025039673

> <r_i_glide_einternal>
6.26065444946289

> <i_i_glide_confnum>
19

> <i_i_glide_posenum>
206

> <r_i_glide_eff_state_penalty>
0

> <s_user_duplicate_titles>
CHEMBL260_lig1291,428451

> <s_m_subgroup_title>
dock_pv

> <s_m_subgroupid>
dock_pv

> <b_m_subgroup_collapsed>
1

$$$$
CHEMBL260_lig425
                    3D
 Schrodinger Suite 2021-1.
 42 45  0  0  1  0            999 V2000
   -2.6220    0.8243   21.6150 C   0  0  0  0  0  0
   -2.0350    1.5405   22.6249 N   0  0  0  0  0  0
   -3.0009    1.7213   20.6098 C   0  0  0  0  0  0
   -1.8603    2.8440   22.2760 C   0  0  0  0  0  0
   -2.4350    2.9497   21.0032 C   0  0  0  0  0  0
    1.9765    5.9920   25.2560 C   0  0  0  0  0  0
   -3.7793    1.4338   19.3551 C   0  0  0  0  0  0
   -0.9763    3.7335   23.0760 C   0  0  0  0  0  0
    0.9145    5.2441   24.4864 C   0  0  0  0  0  0
   -2.5973   -0.6507   21.6913 C   0  0  0  0  0  0
    1.9412    6.1227   26.4772 O   0  0  0  0  0  0
   -2.0350   -3.3816   21.8760 N   0  0  0  0  0  0
   -0.9997    3.7509   24.4717 C   0  0  0  0  0  0
   -0.0350    4.5017   22.3893 C   0  0  0  0  0  0
    0.9052    5.2504   23.0853 C   0  0  0  0  0  0
   -0.0619    4.5070   25.1726 C   0  0  0  0  0  0
   -3.3320    1.7867   18.0726 C   0  0  0  0  0  0
   -5.0237    0.8081   19.4817 C   0  0  0  0  0  0
    2.9984    6.4870   24.5022 O   0  0  0  0  0  0
   -5.3260    0.8870   17.0932 C   0  0  0  0  0  0
   -5.8127    0.5618   18.3598 C   0  0  0  0  0  0
   -4.0844    1.4836   16.9452 C   0  0  0  0  0  0
   -6.0350    0.5863   15.9864 F   0  0  0  0  0  0
   -2.4064   -2.6725   22.9693 C   0  0  0  0  0  0
   -1.9867   -2.7336   20.6852 C   0  0  0  0  0  0
   -2.7030   -1.3134   22.9205 C   0  0  0  0  0  0
   -2.2664   -1.3788   20.5461 C   0  0  0  0  0  0
   -1.6204    1.1194   23.4437 H   0  0  0  0  0  0
   -2.4383    3.8396   20.3939 H   0  0  0  0  0  0
   -1.7177    3.1556   25.0168 H   0  0  0  0  0  0
    0.0103    4.4870   21.3084 H   0  0  0  0  0  0
    1.6408    5.8023   22.5156 H   0  0  0  0  0  0
   -0.0763    4.4827   26.2542 H   0  0  0  0  0  0
   -2.4350    2.3513   17.8928 H   0  0  0  0  0  0
   -5.3889    0.5234   20.4562 H   0  0  0  0  0  0
    3.6772    6.8463   25.0760 H   0  0  0  0  0  0
   -6.7783    0.0870   18.4599 H   0  0  0  0  0  0
   -3.7256    1.7454   15.9601 H   0  0  0  0  0  0
   -2.4350   -3.2013   23.9091 H   0  0  0  0  0  0
   -1.7040   -3.3337   19.8333 H   0  0  0  0  0  0
   -2.9476   -0.7802   23.8275 H   0  0  0  0  0  0
   -2.1612   -0.8988   19.5840 H   0  0  0  0  0  0
  1  2  1  0  0  0
  1  3  2  0  0  0
  1 10  1  0  0  0
  2  4  1  0  0  0
  2 28  1  0  0  0
  3  5  1  0  0  0
  3  7  1  0  0  0
  4  8  1  0  0  0
  4  5  2  0  0  0
  5 29  1  0  0  0
  6  9  1  0  0  0
  6 11  2  0  0  0
  6 19  1  0  0  0
  7 17  2  0  0  0
  7 18  1  0  0  0
  8 13  2  0  0  0
  8 14  1  0  0  0
  9 15  1  0  0  0
  9 16  2  0  0  0
 10 26  1  0  0  0
 10 27  2  0  0  0
 12 25  2  0  0  0
 12 24  1  0  0  0
 13 16  1  0  0  0
 13 30  1  0  0  0
 14 15  2  0  0  0
 14 31  1  0  0  0
 15 32  1  0  0  0
 16 33  1  0  0  0
 17 22  1  0  0  0
 17 34  1  0  0  0
 18 21  2  0  0  0
 18 35  1  0  0  0
 19 36  1  0  0  0
 20 21  1  0  0  0
 20 23  1  0  0  0
 20 22  2  0  0  0
 21 37  1  0  0  0
 22 38  1  0  0  0
 24 26  2  0  0  0
 24 39  1  0  0  0
 25 27  1  0  0  0
 25 40  1  0  0  0
 26 41  1  0  0  0
 27 42  1  0  0  0
M  END
> <s_m_entry_id>
61085

> <s_m_entry_name>
dock_pv.362

> <s_m_Source_Path>
/home/csk/Desktop/cluster/DUD-E-result/mk14

> <s_m_Source_File>
dock_pv.maegz

> <i_m_Source_File_Index>
362

> <chembl_id>
CHEMBL423781

> <chembl_pref_name>
None

> <i_lp_mmshare_version>
53161

> <i_f3d_flags>
0

> <r_lp_tautomer_probability>
1

> <s_lp_Force_Field>
OPLS_2005

> <r_lp_Energy>
16.937046

> <b_lp_Chiralities_Consistent>
1

> <s_lp_Variant>
CHEMBL260_lig425-1

> <s_i_glide_gridfile>
glide-grid_2qd9

> <i_i_glide_lignum>
493

> <i_i_glide_rotatable_bonds>
5

> <r_i_docking_score>
-6.84237509694371

> <r_i_glide_ligand_efficiency>
-0.253421299886804

> <r_i_glide_ligand_efficiency_sa>
-0.760263898825177

> <r_i_glide_ligand_efficiency_ln>
-1.5927921171988

> <r_i_glide_gscore>
-6.84237509694371

> <r_i_glide_lipo>
-3.05298902747115

> <r_i_glide_hbond>
-0.32

> <r_i_glide_metal>
0

> <r_i_glide_rewards>
-2.34363871762686

> <r_i_glide_evdw>
-28.9877262115479

> <r_i_glide_ecoul>
-1.74145591259003

> <r_i_glide_erotb>
0.596607649886308

> <r_i_glide_esite>
-0.0117503042661051

> <r_i_glide_emodel>
-33.4259601916848

> <r_i_glide_energy>
-30.7291821241379

> <r_i_glide_einternal>
6.76635694503784

> <i_i_glide_confnum>
19

> <i_i_glide_posenum>
318

> <r_i_glide_eff_state_penalty>
0

> <s_user_duplicate_titles>
CHEMBL260_lig425,263143

> <s_m_subgroup_title>
dock_pv

> <s_m_subgroupid>
dock_pv

> <b_m_subgroup_collapsed>
1

$$$$
CHEMBL260_lig1292
                    3D
 Schrodinger Suite 2021-1.
 54 57  0  0  1  0            999 V2000
    0.2581    1.1436   25.1649 C   0  0  0  0  0  0
   -0.9538    0.7449   24.5754 C   0  0  0  0  0  0
   -1.8195   -0.0901   25.2879 C   0  0  0  0  0  0
   -1.5040   -0.5450   26.5756 C   0  0  0  0  0  0
   -0.2695   -0.1722   27.1319 C   0  0  0  0  0  0
    0.5963    0.6687   26.4357 C   0  0  0  0  0  0
   -1.3267    1.2298   23.3112 N   0  0  0  0  0  0
   -2.0050    0.6092   22.2553 C   0  0  0  0  0  0
   -3.2369   -0.6395   20.0625 N   0  0  0  0  0  0
   -2.7956   -1.2839   21.1737 C   0  0  0  0  0  0
   -2.2015   -0.7368   22.2637 N   0  0  0  0  0  0
   -3.0597    0.6896   20.1092 C   0  0  0  0  0  0
   -2.4378    1.3849   21.1680 C   0  0  0  0  0  0
   -2.4356    2.7477   20.7501 C   0  0  0  0  0  0
   -3.0546    2.8869   19.6045 N   0  0  0  0  0  0
   -3.3982    1.6522   19.1615 N   0  0  0  0  0  0
   -4.0423    1.4573   17.9133 C   0  0  0  0  0  0
   -3.3986    1.7292   16.6794 C   0  0  0  0  0  0
   -3.9441    1.2184   15.5011 C   0  0  0  0  0  0
   -5.1645    0.5550   15.5060 C   0  0  0  0  0  0
   -5.8916    0.4871   16.6831 C   0  0  0  0  0  0
   -5.3310    0.8873   17.8934 C   0  0  0  0  0  0
    1.2163    2.0935   24.4590 C   0  0  0  0  0  0
   -2.4999   -1.3993   27.3260 C   0  0  0  0  0  0
   -3.4530   -1.9136   26.7360 O   0  0  0  0  0  0
   -2.3187   -1.5133   28.6530 N   0  0  0  0  0  0
   -3.1644   -2.2968   29.5460 C   0  0  0  0  0  0
   -2.1624    2.6088   16.5113 C   0  0  0  0  0  0
   -6.1411    0.6205   19.1518 C   0  0  0  0  0  0
   -5.6476   -0.1822   14.2803 C   0  0  0  0  0  0
   -2.7657   -0.3633   24.8402 H   0  0  0  0  0  0
    0.0354   -0.5131   28.1112 H   0  0  0  0  0  0
    1.5318    0.9566   26.8974 H   0  0  0  0  0  0
   -1.0670    2.1872   23.1387 H   0  0  0  0  0  0
   -2.9290   -2.3569   21.1832 H   0  0  0  0  0  0
   -2.0205    3.5964   21.2717 H   0  0  0  0  0  0
   -3.3963    1.3153   14.5781 H   0  0  0  0  0  0
   -6.8353   -0.0324   16.6872 H   0  0  0  0  0  0
    1.9659    2.4914   25.1432 H   0  0  0  0  0  0
    1.7198    1.5868   23.6357 H   0  0  0  0  0  0
    0.6828    2.9504   24.0475 H   0  0  0  0  0  0
   -1.5162   -1.0699   29.0691 H   0  0  0  0  0  0
   -2.5384   -2.8109   30.2772 H   0  0  0  0  0  0
   -3.7464   -3.0555   29.0171 H   0  0  0  0  0  0
   -3.8540   -1.6443   30.0842 H   0  0  0  0  0  0
   -2.3526    3.3028   15.6928 H   0  0  0  0  0  0
   -1.9240    3.2439   17.3634 H   0  0  0  0  0  0
   -1.2927    2.0443   16.1879 H   0  0  0  0  0  0
   -7.2053    0.5224   18.9366 H   0  0  0  0  0  0
   -5.8112   -0.3098   19.6004 H   0  0  0  0  0  0
   -6.0272    1.4253   19.8759 H   0  0  0  0  0  0
   -6.0346    0.4871   13.5295 H   0  0  0  0  0  0
   -4.8133   -0.7404   13.8557 H   0  0  0  0  0  0
   -6.4348   -0.8939   14.5214 H   0  0  0  0  0  0
  1 23  1  0  0  0
  1  6  1  0  0  0
  1  2  2  0  0  0
  2  3  1  0  0  0
  2  7  1  0  0  0
  3  4  2  0  0  0
  3 31  1  0  0  0
  4  5  1  0  0  0
  4 24  1  0  0  0
  5  6  2  0  0  0
  5 32  1  0  0  0
  6 33  1  0  0  0
  7  8  1  0  0  0
  7 34  1  0  0  0
  8 13  2  0  0  0
  8 11  1  0  0  0
  9 12  2  0  0  0
  9 10  1  0  0  0
 10 11  2  0  0  0
 10 35  1  0  0  0
 12 16  1  0  0  0
 12 13  1  0  0  0
 13 14  1  0  0  0
 14 15  2  0  0  0
 14 36  1  0  0  0
 15 16  1  0  0  0
 16 17  1  0  0  0
 17 18  2  0  0  0
 17 22  1  0  0  0
 18 19  1  0  0  0
 18 28  1  0  0  0
 19 20  2  0  0  0
 19 37  1  0  0  0
 20 21  1  0  0  0
 20 30  1  0  0  0
 21 22  2  0  0  0
 21 38  1  0  0  0
 22 29  1  0  0  0
 23 39  1  0  0  0
 23 40  1  0  0  0
 23 41  1  0  0  0
 24 25  2  0  0  0
 24 26  1  0  0  0
 26 27  1  0  0  0
 26 42  1  0  0  0
 27 43  1  0  0  0
 27 44  1  0  0  0
 27 45  1  0  0  0
 28 46  1  0  0  0
 28 47  1  0  0  0
 28 48  1  0  0  0
 29 49  1  0  0  0
 29 50  1  0  0  0
 29 51  1  0  0  0
 30 52  1  0  0  0
 30 53  1  0  0  0
 30 54  1  0  0  0
M  END
> <s_m_entry_id>
61086

> <s_m_entry_name>
dock_pv.363

> <s_m_Source_Path>
/home/csk/Desktop/cluster/DUD-E-result/mk14

> <s_m_Source_File>
dock_pv.maegz

> <i_m_Source_File_Index>
363

> <chembl_id>
CHEMBL409328

> <chembl_pref_name>
None

> <i_lp_mmshare_version>
53161

> <i_f3d_flags>
0

> <r_lp_tautomer_probability>
1

> <s_lp_Force_Field>
OPLS_2005

> <r_lp_Energy>
19.687951

> <b_lp_Chiralities_Consistent>
1

> <s_lp_Variant>
CHEMBL260_lig1292-1

> <s_i_glide_gridfile>
glide-grid_2qd9

> <i_i_glide_lignum>
1470

> <i_i_glide_rotatable_bonds>
5

> <r_i_docking_score>
-6.83414051444331

> <r_i_glide_ligand_efficiency>
-0.227804683814777

> <r_i_glide_ligand_efficiency_sa>
-0.707842117755313

> <r_i_glide_ligand_efficiency_ln>
-1.55279118880652

> <r_i_glide_gscore>
-6.83414051444331

> <r_i_glide_lipo>
-2.68753712236124

> <r_i_glide_hbond>
0

> <r_i_glide_metal>
0

> <r_i_glide_rewards>
-2.04888798964033

> <r_i_glide_evdw>
-39.6094436645508

> <r_i_glide_ecoul>
-4.04129838943481

> <r_i_glide_erotb>
0.488951539201019

> <r_i_glide_esite>
0

> <r_i_glide_emodel>
-44.2049642691669

> <r_i_glide_energy>
-43.6507420539856

> <r_i_glide_einternal>
5.90049028396606

> <i_i_glide_confnum>
3

> <i_i_glide_posenum>
219

> <r_i_glide_eff_state_penalty>
0

> <s_user_duplicate_titles>
CHEMBL260_lig1292,428492

> <s_m_subgroup_title>
dock_pv

> <s_m_subgroupid>
dock_pv

> <b_m_subgroup_collapsed>
1

$$$$
CHEMBL260_lig1451
                    3D
 Schrodinger Suite 2021-1.
 47 49  0  0  1  0            999 V2000
   -0.8529   -0.9429   27.1934 C   0  0  0  0  0  0
   -0.5852   -0.7240   25.6817 C   0  0  2  0  0  0
   -3.6382    1.1765   19.1937 C   0  0  0  0  0  0
   -3.3898    2.1056   20.0909 N   0  0  0  0  0  0
   -2.7263    1.4972   21.0766 C   0  0  0  0  0  0
   -2.4904    0.1608   20.7628 C   0  0  0  0  0  0
   -3.0308    0.0125   19.5182 N   0  0  0  0  0  0
   -2.4411    2.1645   22.3864 C   0  0  0  0  0  0
   -1.6288    3.2869   22.4502 C   0  0  0  0  0  0
   -1.3592    3.9002   23.6729 C   0  0  0  0  0  0
   -1.9529    3.4136   24.8338 C   0  0  0  0  0  0
   -2.7857    2.3004   24.7852 C   0  0  0  0  0  0
   -3.0176    1.6729   23.5642 C   0  0  0  0  0  0
   -1.9831   -0.9886   21.5365 C   0  0  0  0  0  0
   -2.2608   -2.2621   21.0476 C   0  0  0  0  0  0
   -2.0358   -3.3375   21.8721 C   0  0  0  0  0  0
   -1.5998   -3.2165   23.1483 N   0  0  0  0  0  0
   -1.2407   -1.9926   23.5954 C   0  0  0  0  0  0
   -1.3739   -0.8584   22.7907 C   0  0  0  0  0  0
   -4.6942    1.2869   17.8021 S   0  0  0  0  0  0
   -6.1580    0.6256   18.6519 C   0  0  0  0  0  0
   -0.7719   -1.9567   24.9149 N   0  0  0  0  0  0
   -1.7198    4.0272   26.0148 F   0  0  0  0  0  0
    0.8006   -0.0985   25.4122 C   0  0  0  0  0  0
   -2.0718   -1.6257   27.4428 O   0  0  0  0  0  0
    1.0231    1.2861   26.0428 C   0  0  0  0  0  0
   -0.0298   -1.4907   27.6547 H   0  0  0  0  0  0
   -0.9193    0.0166   27.7081 H   0  0  0  0  0  0
   -1.3362   -0.0063   25.3536 H   0  0  0  0  0  0
   -3.0926   -0.8484   18.9951 H   0  0  0  0  0  0
   -1.2028    3.6870   21.5432 H   0  0  0  0  0  0
   -0.7054    4.7591   23.7194 H   0  0  0  0  0  0
   -3.2350    1.9189   25.6908 H   0  0  0  0  0  0
   -3.6352    0.7888   23.5346 H   0  0  0  0  0  0
   -2.6974   -2.4420   20.0768 H   0  0  0  0  0  0
   -2.2664   -4.3127   21.4766 H   0  0  0  0  0  0
   -1.0696    0.1046   23.1586 H   0  0  0  0  0  0
   -6.9848    0.5208   17.9505 H   0  0  0  0  0  0
   -5.9556   -0.3525   19.0829 H   0  0  0  0  0  0
   -6.4673    1.2864   19.4628 H   0  0  0  0  0  0
   -0.7888   -2.8136   25.4453 H   0  0  0  0  0  0
    0.9661   -0.0134   24.3379 H   0  0  0  0  0  0
    1.5688   -0.7796   25.7713 H   0  0  0  0  0  0
   -2.0448   -1.9785   28.3374 H   0  0  0  0  0  0
    1.9660    1.7163   25.7069 H   0  0  0  0  0  0
    1.0661    1.2326   27.1309 H   0  0  0  0  0  0
    0.2332    1.9832   25.7694 H   0  0  0  0  0  0
  1  2  1  0  0  0
  1 25  1  0  0  0
  1 27  1  0  0  0
  1 28  1  0  0  0
  2 22  1  0  0  0
  2 24  1  0  0  0
  2 29  1  0  0  0
  3  7  1  0  0  0
  3  4  2  0  0  0
  3 20  1  0  0  0
  4  5  1  0  0  0
  5  8  1  0  0  0
  5  6  2  0  0  0
  6 14  1  0  0  0
  6  7  1  0  0  0
  7 30  1  0  0  0
  8  9  2  0  0  0
  8 13  1  0  0  0
  9 10  1  0  0  0
  9 31  1  0  0  0
 10 11  2  0  0  0
 10 32  1  0  0  0
 11 12  1  0  0  0
 11 23  1  0  0  0
 12 13  2  0  0  0
 12 33  1  0  0  0
 13 34  1  0  0  0
 14 15  2  0  0  0
 14 19  1  0  0  0
 15 16  1  0  0  0
 15 35  1  0  0  0
 16 17  2  0  0  0
 16 36  1  0  0  0
 17 18  1  0  0  0
 18 19  2  0  0  0
 18 22  1  0  0  0
 19 37  1  0  0  0
 20 21  1  0  0  0
 21 38  1  0  0  0
 21 39  1  0  0  0
 21 40  1  0  0  0
 22 41  1  0  0  0
 24 26  1  0  0  0
 24 42  1  0  0  0
 24 43  1  0  0  0
 25 44  1  0  0  0
 26 45  1  0  0  0
 26 46  1  0  0  0
 26 47  1  0  0  0
M  END
> <s_m_entry_id>
61087

> <s_m_entry_name>
dock_pv.364

> <s_m_Source_Path>
/home/csk/Desktop/cluster/DUD-E-result/mk14

> <s_m_Source_File>
dock_pv.maegz

> <i_m_Source_File_Index>
364

> <chembl_id>
CHEMBL480958

> <chembl_pref_name>
None

> <i_lp_mmshare_version>
53161

> <i_f3d_flags>
0

> <r_lp_tautomer_probability>
0.999999772176425

> <s_lp_Force_Field>
OPLS_2005

> <r_lp_Energy>
16.031534

> <b_lp_Chiralities_Consistent>
1

> <s_lp_Variant>
CHEMBL260_lig1451-1

> <s_i_glide_gridfile>
glide-grid_2qd9

> <i_i_glide_lignum>
1667

> <i_i_glide_rotatable_bonds>
8

> <r_i_docking_score>
-6.82864651047577

> <r_i_glide_ligand_efficiency>
-0.262640250402914

> <r_i_glide_ligand_efficiency_sa>
-0.778070708379151

> <r_i_glide_ligand_efficiency_ln>
-1.60368522636847

> <r_i_glide_gscore>
-6.82864651047577

> <r_i_glide_lipo>
-2.54066970480649

> <r_i_glide_hbond>
-0.501666418127911

> <r_i_glide_metal>
0

> <r_i_glide_rewards>
-2.00616267695068

> <r_i_glide_evdw>
-36.3000869750977

> <r_i_glide_ecoul>
-4.30452108383179

> <r_i_glide_erotb>
0.696129540107955

> <r_i_glide_esite>
-0.0155947393689807

> <r_i_glide_emodel>
-49.924757647572

> <r_i_glide_energy>
-40.6046080589294

> <r_i_glide_einternal>
11.991418838501

> <i_i_glide_confnum>
135

> <i_i_glide_posenum>
166

> <r_i_glide_eff_state_penalty>
0

> <s_user_duplicate_titles>
CHEMBL260_lig1451,467848

> <s_m_subgroup_title>
dock_pv

> <s_m_subgroupid>
dock_pv

> <b_m_subgroup_collapsed>
1

$$$$
CHEMBL260_lig170
                    3D
 Schrodinger Suite 2021-1.
 53 56  0  0  1  0            999 V2000
   -2.8355    1.1714   20.9362 C   0  0  0  0  0  0
   -2.2902    2.1862   21.7230 N   0  0  0  0  0  0
   -2.8353    3.0727   19.7312 N   0  0  0  0  0  0
   -3.2352    1.8206   19.7483 C   0  0  0  0  0  0
   -2.2379    3.2508   20.8600 C   0  0  0  0  0  0
   -2.8211   -0.2883   21.2848 C   0  0  0  0  0  0
   -2.8250   -0.6166   22.6032 N   0  0  0  0  0  0
   -1.3627    3.4405   25.6110 N   0  0  0  0  0  0
   -1.6981    4.6988   26.1412 C   0  0  0  0  0  0
   -2.5248   -1.8935   22.9269 C   0  0  0  0  0  0
   -1.6905    2.1285   23.0838 C   0  0  0  0  0  0
   -3.9889    1.3418   18.5548 C   0  0  0  0  0  0
   -2.2520   -2.8900   22.0508 N   0  0  0  0  0  0
   -0.6625    3.2795   23.3307 C   0  0  0  0  0  0
   -2.8357    2.2330   24.1342 C   0  0  0  0  0  0
   -0.1543    3.3057   24.7862 C   0  0  0  0  0  0
   -2.3055    2.3073   25.5871 C   0  0  0  0  0  0
   -1.0455    5.7332   25.9804 O   0  0  0  0  0  0
   -2.5794   -1.2520   20.2985 C   0  0  0  0  0  0
   -5.2975    0.8864   18.6998 C   0  0  0  0  0  0
   -3.4296    1.4518   17.2743 C   0  0  0  0  0  0
   -2.4347   -2.1758   24.2821 N   0  0  0  0  0  0
   -2.8348    4.6478   26.8823 O   0  0  0  0  0  0
   -2.2869   -2.5481   20.7350 C   0  0  0  0  0  0
   -5.4507    0.5951   16.3032 C   0  0  0  0  0  0
   -4.1556    1.0737   16.1507 C   0  0  0  0  0  0
   -6.0351    0.5320   17.5708 C   0  0  0  0  0  0
   -6.1108    0.1285   15.2213 F   0  0  0  0  0  0
   -3.3231    5.7847   27.5880 C   0  0  0  0  0  0
   -4.1522    6.7004   26.6766 C   0  0  0  0  0  0
   -1.6143    4.0869   21.0770 H   0  0  0  0  0  0
   -1.1661    1.1737   23.1184 H   0  0  0  0  0  0
   -1.0464    4.2656   23.0738 H   0  0  0  0  0  0
    0.2080    3.1272   22.6891 H   0  0  0  0  0  0
   -3.4585    1.3413   24.0966 H   0  0  0  0  0  0
   -3.5206    3.0516   23.9084 H   0  0  0  0  0  0
    0.6029    4.0650   24.9893 H   0  0  0  0  0  0
    0.2948    2.3374   25.0129 H   0  0  0  0  0  0
   -1.7219    1.4057   25.7792 H   0  0  0  0  0  0
   -3.0833    2.3446   26.3513 H   0  0  0  0  0  0
   -2.5360   -0.9958   19.2502 H   0  0  0  0  0  0
   -5.7473    0.8149   19.6798 H   0  0  0  0  0  0
   -2.4351    1.8411   17.1366 H   0  0  0  0  0  0
   -2.5947   -1.4314   24.9432 H   0  0  0  0  0  0
   -2.2055   -3.1043   24.5835 H   0  0  0  0  0  0
   -2.0351   -3.3274   20.0283 H   0  0  0  0  0  0
   -3.7114    1.1313   15.1675 H   0  0  0  0  0  0
   -7.0362    0.1441   17.6868 H   0  0  0  0  0  0
   -2.5059    6.3375   28.0545 H   0  0  0  0  0  0
   -3.9551    5.4247   28.4011 H   0  0  0  0  0  0
   -4.5705    7.5312   27.2441 H   0  0  0  0  0  0
   -4.9821    6.1541   26.2283 H   0  0  0  0  0  0
   -3.5427    7.1200   25.8769 H   0  0  0  0  0  0
  1  2  1  0  0  0
  1  4  2  0  0  0
  1  6  1  0  0  0
  2  5  1  0  0  0
  2 11  1  0  0  0
  3  4  1  0  0  0
  3  5  2  0  0  0
  4 12  1  0  0  0
  5 31  1  0  0  0
  6  7  2  0  0  0
  6 19  1  0  0  0
  7 10  1  0  0  0
  8 17  1  0  0  0
  8  9  1  0  0  0
  8 16  1  0  0  0
  9 18  2  0  0  0
  9 23  1  0  0  0
 10 22  1  0  0  0
 10 13  2  0  0  0
 11 14  1  0  0  0
 11 15  1  0  0  0
 11 32  1  0  0  0
 12 20  2  0  0  0
 12 21  1  0  0  0
 13 24  1  0  0  0
 14 16  1  0  0  0
 14 33  1  0  0  0
 14 34  1  0  0  0
 15 17  1  0  0  0
 15 35  1  0  0  0
 15 36  1  0  0  0
 16 37  1  0  0  0
 16 38  1  0  0  0
 17 39  1  0  0  0
 17 40  1  0  0  0
 19 24  2  0  0  0
 19 41  1  0  0  0
 20 27  1  0  0  0
 20 42  1  0  0  0
 21 26  2  0  0  0
 21 43  1  0  0  0
 22 44  1  0  0  0
 22 45  1  0  0  0
 23 29  1  0  0  0
 24 46  1  0  0  0
 25 26  1  0  0  0
 25 28  1  0  0  0
 25 27  2  0  0  0
 26 47  1  0  0  0
 27 48  1  0  0  0
 29 30  1  0  0  0
 29 49  1  0  0  0
 29 50  1  0  0  0
 30 51  1  0  0  0
 30 52  1  0  0  0
 30 53  1  0  0  0
M  END
> <s_m_entry_id>
61088

> <s_m_entry_name>
dock_pv.365

> <s_m_Source_Path>
/home/csk/Desktop/cluster/DUD-E-result/mk14

> <s_m_Source_File>
dock_pv.maegz

> <i_m_Source_File_Index>
365

> <chembl_id>
CHEMBL95931

> <chembl_pref_name>
None

> <i_lp_mmshare_version>
53161

> <i_f3d_flags>
0

> <r_lp_tautomer_probability>
0.999999987636

> <s_lp_Force_Field>
OPLS_2005

> <r_lp_Energy>
31.099165

> <b_lp_Chiralities_Consistent>
1

> <s_lp_Variant>
CHEMBL260_lig170-1

> <s_i_glide_gridfile>
glide-grid_2qd9

> <i_i_glide_lignum>
187

> <i_i_glide_rotatable_bonds>
6

> <r_i_docking_score>
-6.82638494387307

> <r_i_glide_ligand_efficiency>
-0.227546164795769

> <r_i_glide_ligand_efficiency_sa>
-0.707038839056954

> <r_i_glide_ligand_efficiency_ln>
-1.55102903866925

> <r_i_glide_gscore>
-6.82638494387307

> <r_i_glide_lipo>
-3.10354262675782

> <r_i_glide_hbond>
-0.0884251638905629

> <r_i_glide_metal>
0

> <r_i_glide_rewards>
-2.18544555630295

> <r_i_glide_evdw>
-35.9134254455566

> <r_i_glide_ecoul>
-1.08331322669983

> <r_i_glide_erotb>
0.584699461522017

> <r_i_glide_esite>
-0.0755028021609473

> <r_i_glide_emodel>
-43.7005973864525

> <r_i_glide_energy>
-36.9967386722565

> <r_i_glide_einternal>
9.44871807098389

> <i_i_glide_confnum>
43

> <i_i_glide_posenum>
284

> <r_i_glide_eff_state_penalty>
0

> <s_user_duplicate_titles>
CHEMBL260_lig170,158744

> <s_m_subgroup_title>
dock_pv

> <s_m_subgroupid>
dock_pv

> <b_m_subgroup_collapsed>
1

$$$$
CHEMBL260_lig75
                    3D
 Schrodinger Suite 2021-1.
 47 50  0  0  1  0            999 V2000
   -1.7270    2.8356   22.4203 C   0  0  0  0  0  0
   -2.4331    3.0153   21.3154 N   0  0  0  0  0  0
   -2.8348    1.8102   20.9185 C   0  0  0  0  0  0
   -2.3934    0.8303   21.8071 C   0  0  0  0  0  0
   -1.7202    1.5224   22.7625 N   0  0  0  0  0  0
   -3.6389    1.5861   19.6776 C   0  0  0  0  0  0
   -3.2452    2.0869   18.4339 C   0  0  0  0  0  0
   -3.9171    1.6870   17.2769 C   0  0  0  0  0  0
   -5.0695    0.9115   17.3791 C   0  0  0  0  0  0
   -5.5286    0.4927   18.6257 C   0  0  0  0  0  0
   -4.7878    0.7972   19.7592 C   0  0  0  0  0  0
   -2.3900   -0.6407   21.8170 C   0  0  0  0  0  0
   -2.1419   -1.3392   20.6343 C   0  0  0  0  0  0
   -1.9642   -2.7160   20.7110 C   0  0  0  0  0  0
   -2.0352   -3.4054   21.8771 N   0  0  0  0  0  0
   -2.3209   -2.7145   23.0092 C   0  0  0  0  0  0
   -2.5071   -1.3374   23.0239 C   0  0  0  0  0  0
   -0.8349    4.0875   23.3052 S   0  0  0  0  0  0
    0.3824    3.1933   24.3481 C   0  0  0  0  0  0
   -5.7543    0.5817   16.2619 F   0  0  0  0  0  0
   -0.2033    2.0728   25.1983 C   0  0  0  0  0  0
   -1.4309    2.2419   25.8502 C   0  0  0  0  0  0
   -2.0355    1.1605   26.4789 C   0  0  0  0  0  0
   -1.3833   -0.0699   26.4934 C   0  0  0  0  0  0
   -0.1244   -0.2300   25.9176 C   0  0  0  0  0  0
    0.4642    0.8463   25.2628 C   0  0  0  0  0  0
   -2.2026   -1.5131   27.2127 S   0  0  1  0  0  0
   -2.2488   -0.8993   28.9612 C   0  0  0  0  0  0
   -3.6348   -1.5128   26.6754 O   0  0  0  0  0  0
   -1.2254    1.1223   23.5480 H   0  0  0  0  0  0
   -2.4350    2.7967   18.3526 H   0  0  0  0  0  0
   -3.5914    2.0371   16.3080 H   0  0  0  0  0  0
   -6.4311   -0.0981   18.6996 H   0  0  0  0  0  0
   -5.1176    0.4169   20.7041 H   0  0  0  0  0  0
   -2.0434   -0.8266   19.6883 H   0  0  0  0  0  0
   -1.7549   -3.3007   19.8278 H   0  0  0  0  0  0
   -2.4001   -3.2776   23.9258 H   0  0  0  0  0  0
   -2.7066   -0.8258   23.9547 H   0  0  0  0  0  0
    0.8595    3.9137   25.0133 H   0  0  0  0  0  0
    1.1696    2.8146   23.6934 H   0  0  0  0  0  0
   -1.9467    3.1904   25.8160 H   0  0  0  0  0  0
   -3.0127    1.2693   26.9268 H   0  0  0  0  0  0
    0.3790   -1.1863   25.9413 H   0  0  0  0  0  0
    1.4220    0.7147   24.7789 H   0  0  0  0  0  0
   -1.2393   -0.6997   29.3206 H   0  0  0  0  0  0
   -2.7008   -1.6563   29.6013 H   0  0  0  0  0  0
   -2.8383    0.0129   29.0403 H   0  0  0  0  0  0
  1 18  1  0  0  0
  1  5  1  0  0  0
  1  2  2  0  0  0
  2  3  1  0  0  0
  3  4  2  0  0  0
  3  6  1  0  0  0
  4 12  1  0  0  0
  4  5  1  0  0  0
  5 30  1  0  0  0
  6 11  2  0  0  0
  6  7  1  0  0  0
  7  8  2  0  0  0
  7 31  1  0  0  0
  8  9  1  0  0  0
  8 32  1  0  0  0
  9 10  2  0  0  0
  9 20  1  0  0  0
 10 11  1  0  0  0
 10 33  1  0  0  0
 11 34  1  0  0  0
 12 17  2  0  0  0
 12 13  1  0  0  0
 13 14  2  0  0  0
 13 35  1  0  0  0
 14 15  1  0  0  0
 14 36  1  0  0  0
 15 16  2  0  0  0
 16 17  1  0  0  0
 16 37  1  0  0  0
 17 38  1  0  0  0
 18 19  1  0  0  0
 19 21  1  0  0  0
 19 39  1  0  0  0
 19 40  1  0  0  0
 21 22  2  0  0  0
 21 26  1  0  0  0
 22 23  1  0  0  0
 22 41  1  0  0  0
 23 24  2  0  0  0
 23 42  1  0  0  0
 24 25  1  0  0  0
 24 27  1  0  0  0
 25 26  2  0  0  0
 25 43  1  0  0  0
 26 44  1  0  0  0
 27 28  1  0  0  0
 27 29  2  0  0  0
 28 45  1  0  0  0
 28 46  1  0  0  0
 28 47  1  0  0  0
M  END
> <s_m_entry_id>
61089

> <s_m_entry_name>
dock_pv.366

> <s_m_Source_Path>
/home/csk/Desktop/cluster/DUD-E-result/mk14

> <s_m_Source_File>
dock_pv.maegz

> <i_m_Source_File_Index>
366

> <chembl_id>
CHEMBL111456

> <chembl_pref_name>
None

> <i_lp_mmshare_version>
53161

> <i_f3d_flags>
0

> <r_lp_tautomer_probability>
0.999999999976373

> <s_lp_Force_Field>
OPLS_2005

> <r_lp_Energy>
12.563099

> <b_lp_Chiralities_Consistent>
1

> <s_lp_Variant>
CHEMBL260_lig75-1

> <s_i_glide_gridfile>
glide-grid_2qd9

> <i_i_glide_lignum>
84

> <i_i_glide_rotatable_bonds>
6

> <r_i_docking_score>
-6.81157017188951

> <r_i_glide_ligand_efficiency>
-0.234881730065155

> <r_i_glide_ligand_efficiency_sa>
-0.721631090515396

> <r_i_glide_ligand_efficiency_ln>
-1.55967684284639

> <r_i_glide_gscore>
-6.81157017188951

> <r_i_glide_lipo>
-2.83714235098355

> <r_i_glide_hbond>
-0.32

> <r_i_glide_metal>
0

> <r_i_glide_rewards>
-2.07700875380149

> <r_i_glide_evdw>
-31.9494190216064

> <r_i_glide_ecoul>
-3.4874804019928

> <r_i_glide_erotb>
0.552476275845234

> <r_i_glide_esite>
-0.00930233157045773

> <r_i_glide_emodel>
-47.3298812356835

> <r_i_glide_energy>
-35.4368994235992

> <r_i_glide_einternal>
8.48717498779297

> <i_i_glide_confnum>
12

> <i_i_glide_posenum>
320

> <r_i_glide_eff_state_penalty>
0

> <s_user_duplicate_titles>
CHEMBL260_lig75

> <s_m_subgroup_title>
dock_pv

> <s_m_subgroupid>
dock_pv

> <b_m_subgroup_collapsed>
1

$$$$
CHEMBL260_lig1680
                    3D
 Schrodinger Suite 2021-1.
 54 58  0  0  1  0            999 V2000
   -2.7535   -0.7186   20.8655 N   0  0  0  0  0  0
   -2.4043   -1.4481   21.9743 C   0  0  0  0  0  0
   -1.9501   -0.6471   23.0982 C   0  0  0  0  0  0
   -1.8673    0.7088   23.1352 C   0  0  0  0  0  0
   -2.7601    0.6856   20.8668 C   0  0  0  0  0  0
   -2.2918    1.4385   21.9384 C   0  0  0  0  0  0
   -2.3668    2.7653   21.4997 C   0  0  0  0  0  0
   -2.8423    2.8595   20.2759 N   0  0  0  0  0  0
   -3.1748    1.6029   19.9122 N   0  0  0  0  0  0
   -2.9081   -1.4421   19.6083 C   0  0  0  0  0  0
   -2.4143   -2.6789   22.0600 O   0  0  0  0  0  0
   -1.3652    1.4261   24.2071 N   0  0  0  0  0  0
   -3.8668    1.4099   18.6951 C   0  0  0  0  0  0
   -5.1998    0.9902   18.7057 C   0  0  0  0  0  0
   -5.9043    0.8866   17.5078 C   0  0  0  0  0  0
   -5.2677    1.1021   16.2880 C   0  0  0  0  0  0
   -3.9320    1.4899   16.2662 C   0  0  0  0  0  0
   -3.2526    1.6867   17.4684 C   0  0  0  0  0  0
   -1.1011    0.9326   25.5013 C   0  0  0  0  0  0
   -2.0378    0.0998   26.1267 C   0  0  0  0  0  0
   -1.7784   -0.5073   27.3612 C   0  0  0  0  0  0
   -0.5660   -0.2128   28.0038 C   0  0  0  0  0  0
    0.3542    0.6591   27.4189 C   0  0  0  0  0  0
    0.0994    1.2351   26.1695 C   0  0  0  0  0  0
   -2.7641   -1.5134   27.9133 C   0  0  0  0  0  0
   -3.5399   -2.0928   27.1516 O   0  0  0  0  0  0
   -2.7252   -1.7333   29.2414 N   0  0  0  0  0  0
   -3.3620   -2.8227   29.9892 C   0  0  0  0  0  0
   -4.6386   -2.5315   30.7481 C   0  0  0  0  0  0
   -4.6775   -3.4555   29.5630 C   0  0  0  0  0  0
   -5.8299    0.7329   19.8685 F   0  0  0  0  0  0
    1.1594    2.1376   25.5442 C   0  0  0  0  0  0
   -3.3041    1.6884   15.0857 F   0  0  0  0  0  0
   -1.6085   -1.2215   23.9443 H   0  0  0  0  0  0
   -2.0565    3.6423   22.0530 H   0  0  0  0  0  0
   -2.0678   -1.2336   18.9482 H   0  0  0  0  0  0
   -2.9728   -2.5235   19.7431 H   0  0  0  0  0  0
   -3.8175   -1.1148   19.1129 H   0  0  0  0  0  0
   -0.9327    2.3179   24.0206 H   0  0  0  0  0  0
   -6.9328    0.5682   17.5277 H   0  0  0  0  0  0
   -5.8106    0.9681   15.3658 H   0  0  0  0  0  0
   -2.2728    2.1100   17.4484 H   0  0  0  0  0  0
   -2.9658   -0.1152   25.6148 H   0  0  0  0  0  0
   -0.3046   -0.6717   28.9477 H   0  0  0  0  0  0
    1.2859    0.8641   27.9312 H   0  0  0  0  0  0
   -2.0830   -1.1695   29.7753 H   0  0  0  0  0  0
   -2.6325   -3.4679   30.4835 H   0  0  0  0  0  0
   -5.0961   -1.5444   30.6762 H   0  0  0  0  0  0
   -4.7598   -2.9654   31.7359 H   0  0  0  0  0  0
   -4.7964   -4.5273   29.7250 H   0  0  0  0  0  0
   -5.1909   -3.1270   28.6629 H   0  0  0  0  0  0
    2.0921    2.1338   26.1108 H   0  0  0  0  0  0
    1.3969    1.8015   24.5347 H   0  0  0  0  0  0
    0.7983    3.1635   25.4772 H   0  0  0  0  0  0
  1 10  1  0  0  0
  1  5  1  0  0  0
  1  2  1  0  0  0
  2 11  2  0  0  0
  2  3  1  0  0  0
  3  4  2  0  0  0
  3 34  1  0  0  0
  4 12  1  0  0  0
  4  6  1  0  0  0
  5  9  1  0  0  0
  5  6  2  0  0  0
  6  7  1  0  0  0
  7  8  2  0  0  0
  7 35  1  0  0  0
  8  9  1  0  0  0
  9 13  1  0  0  0
 10 36  1  0  0  0
 10 37  1  0  0  0
 10 38  1  0  0  0
 12 19  1  0  0  0
 12 39  1  0  0  0
 13 18  1  0  0  0
 13 14  2  0  0  0
 14 31  1  0  0  0
 14 15  1  0  0  0
 15 16  2  0  0  0
 15 40  1  0  0  0
 16 17  1  0  0  0
 16 41  1  0  0  0
 17 18  2  0  0  0
 17 33  1  0  0  0
 18 42  1  0  0  0
 19 20  2  0  0  0
 19 24  1  0  0  0
 20 21  1  0  0  0
 20 43  1  0  0  0
 21 22  2  0  0  0
 21 25  1  0  0  0
 22 23  1  0  0  0
 22 44  1  0  0  0
 23 24  2  0  0  0
 23 45  1  0  0  0
 24 32  1  0  0  0
 25 26  2  0  0  0
 25 27  1  0  0  0
 27 28  1  0  0  0
 27 46  1  0  0  0
 28 29  1  0  0  0
 28 30  1  0  0  0
 28 47  1  0  0  0
 29 30  1  0  0  0
 29 48  1  0  0  0
 29 49  1  0  0  0
 30 50  1  0  0  0
 30 51  1  0  0  0
 32 52  1  0  0  0
 32 53  1  0  0  0
 32 54  1  0  0  0
M  END
> <s_m_entry_id>
61090

> <s_m_entry_name>
dock_pv.367

> <s_m_Source_Path>
/home/csk/Desktop/cluster/DUD-E-result/mk14

> <s_m_Source_File>
dock_pv.maegz

> <i_m_Source_File_Index>
367

> <chembl_id>
CHEMBL563941

> <chembl_pref_name>
None

> <i_lp_mmshare_version>
53161

> <i_f3d_flags>
0

> <r_lp_tautomer_probability>
1

> <s_lp_Force_Field>
OPLS_2005

> <r_lp_Energy>
59.214182

> <b_lp_Chiralities_Consistent>
1

> <s_lp_Variant>
CHEMBL260_lig1680-1

> <s_i_glide_gridfile>
glide-grid_2qd9

> <i_i_glide_lignum>
1932

> <i_i_glide_rotatable_bonds>
6

> <r_i_docking_score>
-6.80504957088668

> <r_i_glide_ligand_efficiency>
-0.206213623360203

> <r_i_glide_ligand_efficiency_sa>
-0.661437275469772

> <r_i_glide_ligand_efficiency_ln>
-1.51340778990424

> <r_i_glide_gscore>
-6.80504957088668

> <r_i_glide_lipo>
-2.50733712023537

> <r_i_glide_hbond>
0

> <r_i_glide_metal>
0

> <r_i_glide_rewards>
-2.10816167927394

> <r_i_glide_evdw>
-40.0634536743164

> <r_i_glide_ecoul>
-5.21088790893555

> <r_i_glide_erotb>
0.595255098678774

> <r_i_glide_esite>
0

> <r_i_glide_emodel>
-58.7564934296879

> <r_i_glide_energy>
-45.274341583252

> <r_i_glide_einternal>
3.23851132392883

> <i_i_glide_confnum>
17

> <i_i_glide_posenum>
142

> <r_i_glide_eff_state_penalty>
0

> <s_user_duplicate_titles>
CHEMBL260_lig1680,567780

> <s_m_subgroup_title>
dock_pv

> <s_m_subgroupid>
dock_pv

> <b_m_subgroup_collapsed>
1

$$$$
364115
                    3D
 Schrodinger Suite 2021-1.
 38 41  0  0  1  0            999 V2000
   -0.3143   -0.6938   26.7868 C   0  0  0  0  0  0
   -1.6587   -0.9986   26.5925 C   0  0  0  0  0  0
   -2.1834   -1.0800   25.3022 C   0  0  0  0  0  0
   -1.3557   -0.8501   24.1847 C   0  0  0  0  0  0
    0.0080   -0.5630   24.3917 C   0  0  0  0  0  0
    0.5134   -0.4773   25.6884 C   0  0  0  0  0  0
    1.1013   -0.3130   23.0764 Cl  0  0  0  0  0  0
   -1.8852   -0.9458   22.8680 N   0  0  0  0  0  0
   -2.2614    0.2560   22.1642 C   0  0  0  0  0  0
   -1.9287    1.5301   22.6402 C   0  0  0  0  0  0
   -2.1540    2.6391   21.8348 C   0  0  0  0  0  0
   -2.7457    2.5049   20.6271 N   0  3  0  0  0  0
   -2.8350    3.5566   19.9378 O   0  5  0  0  0  0
   -3.2111    1.3163   20.1442 C   0  0  0  0  0  0
   -2.9161    0.1625   20.9102 C   0  0  0  0  0  0
   -3.1376   -1.1994   20.4082 C   0  0  0  0  0  0
   -2.6809   -2.2745   21.0785 C   0  0  0  0  0  0
   -2.0081   -2.2173   22.3579 C   0  0  0  0  0  0
   -1.6350   -3.2557   22.9106 O   0  0  0  0  0  0
   -3.9662    1.2870   18.8279 C   0  0  0  0  0  0
   -3.3856    1.6870   17.6130 C   0  0  0  0  0  0
   -4.0276    1.5202   16.3878 C   0  0  0  0  0  0
   -5.3132    1.0029   16.3569 C   0  0  0  0  0  0
   -5.9714    0.7336   17.5492 C   0  0  0  0  0  0
   -5.2953    0.8452   18.7628 C   0  0  0  0  0  0
   -5.9533    0.4870   19.8760 F   0  0  0  0  0  0
   -5.9055    0.7354   15.1769 F   0  0  0  0  0  0
   -3.8477   -1.5130   25.1253 Cl  0  0  0  0  0  0
    0.0919   -0.6386   27.7869 H   0  0  0  0  0  0
   -2.2917   -1.1845   27.4482 H   0  0  0  0  0  0
    1.5597   -0.2595   25.8455 H   0  0  0  0  0  0
   -1.4237    1.6682   23.5854 H   0  0  0  0  0  0
   -1.8371    3.6359   22.1021 H   0  0  0  0  0  0
   -3.6524   -1.3559   19.4760 H   0  0  0  0  0  0
   -2.8350   -3.2568   20.6758 H   0  0  0  0  0  0
   -2.4350    2.1616   17.5817 H   0  0  0  0  0  0
   -3.5302    1.7889   15.4668 H   0  0  0  0  0  0
   -6.9717    0.3326   17.5343 H   0  0  0  0  0  0
  1  6  1  0  0  0
  1  2  2  0  0  0
  1 29  1  0  0  0
  2  3  1  0  0  0
  2 30  1  0  0  0
  3  4  2  0  0  0
  3 28  1  0  0  0
  4  5  1  0  0  0
  4  8  1  0  0  0
  5  6  2  0  0  0
  5  7  1  0  0  0
  6 31  1  0  0  0
  8 18  1  0  0  0
  8  9  1  0  0  0
  9 15  2  0  0  0
  9 10  1  0  0  0
 10 11  2  0  0  0
 10 32  1  0  0  0
 11 12  1  0  0  0
 11 33  1  0  0  0
 12 13  1  0  0  0
 12 14  2  0  0  0
 14 15  1  0  0  0
 14 20  1  0  0  0
 15 16  1  0  0  0
 16 17  2  0  0  0
 16 34  1  0  0  0
 17 18  1  0  0  0
 17 35  1  0  0  0
 18 19  2  0  0  0
 20 25  1  0  0  0
 20 21  2  0  0  0
 21 22  1  0  0  0
 21 36  1  0  0  0
 22 23  2  0  0  0
 22 37  1  0  0  0
 23 24  1  0  0  0
 23 27  1  0  0  0
 24 25  2  0  0  0
 24 38  1  0  0  0
 25 26  1  0  0  0
M  CHG  2  12   1  13  -1
M  END
> <s_m_entry_id>
62341

> <s_m_entry_name>
ligand_docking-pose.1

> <s_m_Source_Path>
/home/csk/Desktop/cluster/DUD-E-result/mk14

> <s_m_Source_File>
ligand_docking-pose.sdf

> <i_m_Source_File_Index>
1

> <i_lp_mmshare_version>
53161

> <r_lp_tautomer_probability>
1

> <s_lp_Force_Field>
OPLS_2005

> <r_lp_Energy>
48.568034

> <b_lp_Chiralities_Consistent>
1

> <s_lp_Variant>
364115-1

> <s_i_glide_gridfile>
glide-grid_2qd9

> <i_i_glide_lignum>
462

> <i_i_glide_rotatable_bonds>
2

> <r_i_docking_score>
-10.7989403192039

> <r_i_glide_ligand_efficiency>
-0.385676439971568

> <r_i_glide_ligand_efficiency_sa>
-1.1711408230291

> <r_i_glide_ligand_efficiency_ln>
-2.49271249633761

> <r_i_glide_gscore>
-10.7989403192039

> <r_i_glide_lipo>
-4.17309152860027

> <r_i_glide_hbond>
-0.389882485875875

> <r_i_glide_metal>
0

> <r_i_glide_rewards>
-2.56625307726272

> <r_i_glide_evdw>
-34.7451972961426

> <r_i_glide_ecoul>
-14.2602472305298

> <r_i_glide_erotb>
0.225125922702938

> <r_i_glide_esite>
-0.0185422007813716

> <r_i_glide_emodel>
-68.1858672941574

> <r_i_glide_energy>
-49.0054445266724

> <r_i_glide_einternal>
0.615536630153656

> <i_i_glide_confnum>
7

> <i_i_glide_posenum>
322

> <r_i_glide_eff_state_penalty>
0

> <i_f3d_flags>
0

> <s_user_duplicate_titles>
364115

> <s_m_subgroup_title>
dock_pv

> <s_m_subgroupid>
dock_pv1

> <b_m_subgroup_collapsed>
0

$$$$
364123
                    3D
 Schrodinger Suite 2021-1.
 39 42  0  0  1  0            999 V2000
   -0.4458   -0.7654   26.9269 C   0  0  0  0  0  0
    0.3918   -0.6649   25.8188 C   0  0  0  0  0  0
   -0.1150   -0.8278   24.5308 C   0  0  0  0  0  0
   -1.4818   -1.0809   24.3412 C   0  0  0  0  0  0
   -2.3213   -1.1878   25.4616 C   0  0  0  0  0  0
   -1.8018   -1.0337   26.7472 C   0  0  0  0  0  0
   -3.6348   -1.4495   25.3080 F   0  0  0  0  0  0
   -2.0132   -1.2225   23.0304 N   0  0  0  0  0  0
   -2.2128   -2.4965   22.5737 C   0  0  0  0  0  0
   -2.0341   -3.5116   23.2427 O   0  0  0  0  0  0
   -2.7174   -2.5629   21.2190 C   0  0  0  0  0  0
   -3.0840   -1.5117   20.4759 C   0  0  0  0  0  0
   -2.9060   -0.1640   20.9834 C   0  0  0  0  0  0
   -2.3363   -0.0518   22.2739 C   0  0  0  0  0  0
   -2.0339    1.2152   22.7442 C   0  0  0  0  0  0
   -2.2268    2.2891   21.9060 C   0  0  0  0  0  0
   -2.8135    2.2130   20.6750 N   0  0  0  0  0  0
   -3.1827    0.9825   20.2195 C   0  0  0  0  0  0
   -3.8671    0.9362   18.8787 C   0  0  0  0  0  0
   -3.1500    0.8868   17.6727 C   0  0  0  0  0  0
   -3.7707    0.8938   16.4283 C   0  0  0  0  0  0
   -5.1517    0.8869   16.3588 C   0  0  0  0  0  0
   -5.8968    0.8872   17.5300 C   0  0  0  0  0  0
   -5.2631    0.8871   18.7752 C   0  0  0  0  0  0
   -6.0348    0.8717   19.8758 F   0  0  0  0  0  0
   -5.7536    0.8300   15.1558 F   0  0  0  0  0  0
   -1.6352    3.4584   22.3245 N   0  0  0  0  0  0
    0.7219   -0.7148   23.4761 F   0  0  0  0  0  0
   -0.0412   -0.6507   27.9214 H   0  0  0  0  0  0
    1.4450   -0.4661   25.9575 H   0  0  0  0  0  0
   -2.4530   -1.1240   27.6042 H   0  0  0  0  0  0
   -2.8231   -3.5129   20.7730 H   0  0  0  0  0  0
   -3.4474   -1.6694   19.4763 H   0  0  0  0  0  0
   -1.5592    1.3617   23.7061 H   0  0  0  0  0  0
   -2.0809    0.8385   17.6459 H   0  0  0  0  0  0
   -3.1865    0.8693   15.5204 H   0  0  0  0  0  0
   -6.9690    0.8559   17.4767 H   0  0  0  0  0  0
   -1.0392    3.3959   23.1386 H   0  0  0  0  0  0
   -1.3694    4.0878   21.5800 H   0  0  0  0  0  0
  1  6  1  0  0  0
  1  2  2  0  0  0
  1 29  1  0  0  0
  2  3  1  0  0  0
  2 30  1  0  0  0
  3  4  2  0  0  0
  3 28  1  0  0  0
  4  5  1  0  0  0
  4  8  1  0  0  0
  5  6  2  0  0  0
  5  7  1  0  0  0
  6 31  1  0  0  0
  8 14  1  0  0  0
  8  9  1  0  0  0
  9 10  2  0  0  0
  9 11  1  0  0  0
 11 12  2  0  0  0
 11 32  1  0  0  0
 12 13  1  0  0  0
 12 33  1  0  0  0
 13 18  2  0  0  0
 13 14  1  0  0  0
 14 15  2  0  0  0
 15 16  1  0  0  0
 15 34  1  0  0  0
 16 17  2  0  0  0
 16 27  1  0  0  0
 17 18  1  0  0  0
 18 19  1  0  0  0
 19 24  1  0  0  0
 19 20  2  0  0  0
 20 21  1  0  0  0
 20 35  1  0  0  0
 21 22  2  0  0  0
 21 36  1  0  0  0
 22 23  1  0  0  0
 22 26  1  0  0  0
 23 24  2  0  0  0
 23 37  1  0  0  0
 24 25  1  0  0  0
 27 38  1  0  0  0
 27 39  1  0  0  0
M  END
> <s_m_entry_id>
62378

> <s_m_entry_name>
ligand_docking-pose.38

> <s_m_Source_Path>
/home/csk/Desktop/cluster/DUD-E-result/mk14

> <s_m_Source_File>
ligand_docking-pose.sdf

> <i_m_Source_File_Index>
38

> <i_lp_mmshare_version>
53161

> <r_lp_tautomer_probability>
1

> <s_lp_Force_Field>
OPLS_2005

> <r_lp_Energy>
43.529851

> <b_lp_Chiralities_Consistent>
1

> <s_lp_Variant>
364123-1

> <s_i_glide_gridfile>
glide-grid_2qd9

> <i_i_glide_lignum>
551

> <i_i_glide_rotatable_bonds>
2

> <r_i_docking_score>
-9.81959293622439

> <r_i_glide_ligand_efficiency>
-0.3506997477223

> <r_i_glide_ligand_efficiency_sa>
-1.06493098519026

> <r_i_glide_ligand_efficiency_ln>
-2.2666503654573

> <r_i_glide_gscore>
-9.81959293622439

> <r_i_glide_lipo>
-3.84209517490907

> <r_i_glide_hbond>
-0.608

> <r_i_glide_metal>
0

> <r_i_glide_rewards>
-2.79324703460414

> <r_i_glide_evdw>
-26.7511520385742

> <r_i_glide_ecoul>
-9.75333118438721

> <r_i_glide_erotb>
0.262033946254656

> <r_i_glide_esite>
-0.0377273933790459

> <r_i_glide_emodel>
-42.1576503865634

> <r_i_glide_energy>
-36.5044832229614

> <r_i_glide_einternal>
2.11872220039368

> <i_i_glide_confnum>
7

> <i_i_glide_posenum>
329

> <r_i_glide_eff_state_penalty>
0

> <i_f3d_flags>
0

> <s_user_duplicate_titles>
364123

> <s_m_subgroup_title>
dock_pv

> <s_m_subgroupid>
dock_pv1

> <b_m_subgroup_collapsed>
0

$$$$
237402
                    3D
 Schrodinger Suite 2021-1.
 63 68  0  0  1  0            999 V2000
    0.7678    1.3893   27.1140 C   0  0  0  0  0  0
    0.1507    2.0120   25.9381 N   0  0  2  0  0  0
    1.1338    2.7273   25.1194 C   0  0  2  0  0  0
    1.3767    4.0589   25.8573 C   0  0  0  0  0  0
    0.0706    4.2963   26.6318 C   0  0  0  0  0  0
   -0.8021    3.0684   26.2899 C   0  0  1  0  0  0
   -1.7055    3.3022   25.0462 C   0  0  0  0  0  0
   -0.8700    3.6618   23.7839 C   0  0  1  0  0  0
    0.5064    2.9330   23.7123 C   0  0  0  0  0  0
   -1.6348    3.5454   22.5317 N   0  0  0  0  0  0
   -2.1492    2.3807   21.9365 C   0  0  0  0  0  0
   -2.7716    2.4457   20.6734 C   0  0  0  0  0  0
   -3.1710    1.2835   19.9868 C   0  0  0  0  0  0
   -2.8571    0.0383   20.5711 C   0  0  0  0  0  0
   -2.3198   -0.0222   21.8675 C   0  0  0  0  0  0
   -1.9880    1.1478   22.5353 C   0  0  0  0  0  0
   -2.0412   -1.2719   22.4604 N   0  0  0  0  0  0
   -1.9728   -2.4523   21.7881 C   0  0  0  0  0  0
   -1.6392   -3.5130   22.2920 O   0  0  0  0  0  0
   -2.3595   -2.4169   20.4946 N   0  0  0  0  0  0
   -2.9946   -1.2796   19.8168 C   0  0  0  0  0  0
   -1.9840   -1.3499   23.8815 C   0  0  0  0  0  0
   -3.1718   -1.4580   24.6265 C   0  0  0  0  0  0
   -3.1214   -1.5358   26.0165 C   0  0  0  0  0  0
   -1.8979   -1.5119   26.6773 C   0  0  0  0  0  0
   -0.7181   -1.4029   25.9474 C   0  0  0  0  0  0
   -0.7494   -1.3018   24.5586 C   0  0  0  0  0  0
    0.7537   -1.0865   23.7265 Cl  0  0  0  0  0  0
   -4.7173   -1.5036   23.8572 Cl  0  0  0  0  0  0
   -3.8754    1.3397   18.6508 C   0  0  0  0  0  0
   -3.2357    1.7678   17.4736 C   0  0  0  0  0  0
   -3.8416    1.7114   16.2209 C   0  0  0  0  0  0
   -5.1473    1.2645   16.1097 C   0  0  0  0  0  0
   -5.8275    0.8869   17.2591 C   0  0  0  0  0  0
   -5.2088    0.9178   18.5091 C   0  0  0  0  0  0
   -6.1600    0.4875   19.8723 Cl  0  0  0  0  0  0
    1.5025    0.6439   26.8078 H   0  0  0  0  0  0
    1.2817    2.1059   27.7574 H   0  0  0  0  0  0
    0.0126    0.8849   27.7175 H   0  0  0  0  0  0
    2.0577    2.1558   25.0200 H   0  0  0  0  0  0
    1.6213    4.8774   25.1798 H   0  0  0  0  0  0
    2.2162    3.9543   26.5479 H   0  0  0  0  0  0
   -0.4100    5.2368   26.3637 H   0  0  0  0  0  0
    0.2723    4.3313   27.7033 H   0  0  0  0  0  0
   -1.4317    2.7785   27.1342 H   0  0  0  0  0  0
   -2.3954    4.1182   25.2595 H   0  0  0  0  0  0
   -2.3443    2.4338   24.8977 H   0  0  0  0  0  0
   -0.6400    4.7266   23.8457 H   0  0  0  0  0  0
    0.4414    1.9700   23.2112 H   0  0  0  0  0  0
    1.1939    3.5183   23.1015 H   0  0  0  0  0  0
   -1.2310    4.1288   21.8144 H   0  0  0  0  0  0
   -2.9304    3.4070   20.2113 H   0  0  0  0  0  0
   -1.5162    1.0869   23.4986 H   0  0  0  0  0  0
   -2.3964   -3.3154   20.0285 H   0  0  0  0  0  0
   -4.0349   -1.5088   19.6048 H   0  0  0  0  0  0
   -2.4959   -1.1735   18.8523 H   0  0  0  0  0  0
   -4.0352   -1.6198   26.5851 H   0  0  0  0  0  0
   -1.8580   -1.5809   27.7546 H   0  0  0  0  0  0
    0.2301   -1.3799   26.4646 H   0  0  0  0  0  0
   -2.2627    2.2053   17.4761 H   0  0  0  0  0  0
   -3.3087    2.0451   15.3427 H   0  0  0  0  0  0
   -5.6311    1.2238   15.1446 H   0  0  0  0  0  0
   -6.8371    0.5333   17.1811 H   0  0  0  0  0  0
  1  2  1  0  0  0
  1 37  1  0  0  0
  1 38  1  0  0  0
  1 39  1  0  0  0
  2  6  1  0  0  0
  2  3  1  0  0  0
  3  9  1  0  0  0
  3  4  1  0  0  0
  3 40  1  0  0  0
  4  5  1  0  0  0
  4 41  1  0  0  0
  4 42  1  0  0  0
  5  6  1  0  0  0
  5 43  1  0  0  0
  5 44  1  0  0  0
  6  7  1  0  0  0
  6 45  1  0  0  0
  7  8  1  0  0  0
  7 46  1  0  0  0
  7 47  1  0  0  0
  8  9  1  0  0  0
  8 10  1  0  0  0
  8 48  1  0  0  0
  9 49  1  0  0  0
  9 50  1  0  0  0
 10 11  1  0  0  0
 10 51  1  0  0  0
 11 16  1  0  0  0
 11 12  2  0  0  0
 12 13  1  0  0  0
 12 52  1  0  0  0
 13 14  2  0  0  0
 13 30  1  0  0  0
 14 21  1  0  0  0
 14 15  1  0  0  0
 15 16  2  0  0  0
 15 17  1  0  0  0
 16 53  1  0  0  0
 17 18  1  0  0  0
 17 22  1  0  0  0
 18 19  2  0  0  0
 18 20  1  0  0  0
 20 21  1  0  0  0
 20 54  1  0  0  0
 21 55  1  0  0  0
 21 56  1  0  0  0
 22 27  1  0  0  0
 22 23  2  0  0  0
 23 24  1  0  0  0
 23 29  1  0  0  0
 24 25  2  0  0  0
 24 57  1  0  0  0
 25 26  1  0  0  0
 25 58  1  0  0  0
 26 27  2  0  0  0
 26 59  1  0  0  0
 27 28  1  0  0  0
 30 35  1  0  0  0
 30 31  2  0  0  0
 31 32  1  0  0  0
 31 60  1  0  0  0
 32 33  2  0  0  0
 32 61  1  0  0  0
 33 34  1  0  0  0
 33 62  1  0  0  0
 34 35  2  0  0  0
 34 63  1  0  0  0
 35 36  1  0  0  0
M  END
> <s_m_entry_id>
62379

> <s_m_entry_name>
ligand_docking-pose.39

> <s_m_Source_Path>
/home/csk/Desktop/cluster/DUD-E-result/mk14

> <s_m_Source_File>
ligand_docking-pose.sdf

> <i_m_Source_File_Index>
39

> <i_lp_mmshare_version>
53161

> <r_lp_tautomer_probability>
1

> <s_lp_Force_Field>
OPLS_2005

> <r_lp_Energy>
85.878392

> <b_lp_Chiralities_Consistent>
1

> <s_lp_Variant>
237402-1

> <s_i_glide_gridfile>
glide-grid_2qd9

> <i_i_glide_lignum>
2277

> <i_i_glide_rotatable_bonds>
4

> <r_i_docking_score>
-9.80028675034292

> <r_i_glide_ligand_efficiency>
-0.272230187509525

> <r_i_glide_ligand_efficiency_sa>
-0.898884273035673

> <r_i_glide_ligand_efficiency_ln>
-2.13815779577514

> <r_i_glide_gscore>
-9.80028675034292

> <r_i_glide_lipo>
-4.23589656172292

> <r_i_glide_hbond>
-0.553384952579233

> <r_i_glide_metal>
0

> <r_i_glide_rewards>
-1.84189773681663

> <r_i_glide_evdw>
-40.7435913085938

> <r_i_glide_ecoul>
-9.15257358551025

> <r_i_glide_erotb>
0.281735835768185

> <r_i_glide_esite>
-0.0407777317360989

> <r_i_glide_emodel>
-54.667604374494

> <r_i_glide_energy>
-49.896164894104

> <r_i_glide_einternal>
3.77142357826233

> <i_i_glide_confnum>
13

> <i_i_glide_posenum>
165

> <r_i_glide_eff_state_penalty>
0

> <i_f3d_flags>
0

> <s_user_duplicate_titles>
237402

> <s_m_subgroup_title>
dock_pv

> <s_m_subgroupid>
dock_pv1

> <b_m_subgroup_collapsed>
0

$$$$
364132
                    3D
 Schrodinger Suite 2021-1.
 42 45  0  0  1  0            999 V2000
   -0.7361    3.6543   23.8130 C   0  0  0  0  0  0
   -1.6368    3.6180   22.6636 N   0  0  0  0  0  0
   -2.1687    2.4267   22.1415 C   0  0  0  0  0  0
   -1.9839    1.2434   22.8412 C   0  0  0  0  0  0
   -2.2895    0.0308   22.2356 C   0  0  0  0  0  0
   -2.8878    0.0593   20.9580 C   0  0  0  0  0  0
   -2.9669   -1.2289   20.2666 C   0  0  0  0  0  0
   -2.4637   -2.3439   20.8256 C   0  0  0  0  0  0
   -1.9888   -2.4256   22.1932 C   0  0  0  0  0  0
   -1.7425   -3.5126   22.7124 O   0  0  0  0  0  0
   -1.9060   -1.2158   22.8317 N   0  0  0  0  0  0
   -1.4446   -1.2190   24.1756 C   0  0  0  0  0  0
   -0.0966   -0.9443   24.4568 C   0  0  0  0  0  0
    0.3420   -0.8741   25.7776 C   0  0  0  0  0  0
   -0.5454   -1.1038   26.8267 C   0  0  0  0  0  0
   -1.8810   -1.3950   26.5555 C   0  0  0  0  0  0
   -2.3332   -1.4495   25.2375 C   0  0  0  0  0  0
   -3.6344   -1.7231   25.0036 F   0  0  0  0  0  0
    0.7870   -0.7141   23.4591 F   0  0  0  0  0  0
   -3.1975    1.2885   20.3392 C   0  0  0  0  0  0
   -2.7858    2.4615   20.9132 N   0  0  0  0  0  0
   -3.9107    1.3584   19.0043 C   0  0  0  0  0  0
   -3.2785    1.8400   17.8521 C   0  0  0  0  0  0
   -3.8133    1.6879   16.5743 C   0  0  0  0  0  0
   -5.0984    1.1964   16.4321 C   0  0  0  0  0  0
   -5.8274    0.8742   17.5678 C   0  0  0  0  0  0
   -5.2223    0.8881   18.8263 C   0  0  0  0  0  0
   -5.9532    0.4875   19.8761 F   0  0  0  0  0  0
   -5.6359    1.0536   15.2031 F   0  0  0  0  0  0
   -0.4256    4.6795   24.0133 H   0  0  0  0  0  0
   -1.2223    3.2747   24.7128 H   0  0  0  0  0  0
    0.1636    3.0660   23.6229 H   0  0  0  0  0  0
   -1.4520    4.3105   21.9549 H   0  0  0  0  0  0
   -1.5057    1.2613   23.8065 H   0  0  0  0  0  0
   -3.3232   -1.2715   19.2518 H   0  0  0  0  0  0
   -2.4356   -3.2514   20.2471 H   0  0  0  0  0  0
    1.3767   -0.6531   25.9887 H   0  0  0  0  0  0
   -0.1949   -1.0620   27.8487 H   0  0  0  0  0  0
   -2.5668   -1.5786   27.3693 H   0  0  0  0  0  0
   -2.4353    2.4705   17.9342 H   0  0  0  0  0  0
   -3.2738    2.0381   15.7046 H   0  0  0  0  0  0
   -6.8352    0.5049   17.4664 H   0  0  0  0  0  0
  1  2  1  0  0  0
  1 30  1  0  0  0
  1 31  1  0  0  0
  1 32  1  0  0  0
  2  3  1  0  0  0
  2 33  1  0  0  0
  3 21  1  0  0  0
  3  4  2  0  0  0
  4  5  1  0  0  0
  4 34  1  0  0  0
  5 11  1  0  0  0
  5  6  2  0  0  0
  6  7  1  0  0  0
  6 20  1  0  0  0
  7  8  2  0  0  0
  7 35  1  0  0  0
  8  9  1  0  0  0
  8 36  1  0  0  0
  9 10  2  0  0  0
  9 11  1  0  0  0
 11 12  1  0  0  0
 12 17  1  0  0  0
 12 13  2  0  0  0
 13 14  1  0  0  0
 13 19  1  0  0  0
 14 15  2  0  0  0
 14 37  1  0  0  0
 15 16  1  0  0  0
 15 38  1  0  0  0
 16 17  2  0  0  0
 16 39  1  0  0  0
 17 18  1  0  0  0
 20 21  2  0  0  0
 20 22  1  0  0  0
 22 27  1  0  0  0
 22 23  2  0  0  0
 23 24  1  0  0  0
 23 40  1  0  0  0
 24 25  2  0  0  0
 24 41  1  0  0  0
 25 26  1  0  0  0
 25 29  1  0  0  0
 26 27  2  0  0  0
 26 42  1  0  0  0
 27 28  1  0  0  0
M  END
> <s_m_entry_id>
62385

> <s_m_entry_name>
ligand_docking-pose.45

> <s_m_Source_Path>
/home/csk/Desktop/cluster/DUD-E-result/mk14

> <s_m_Source_File>
ligand_docking-pose.sdf

> <i_m_Source_File_Index>
45

> <i_lp_mmshare_version>
53161

> <r_lp_tautomer_probability>
1

> <s_lp_Force_Field>
OPLS_2005

> <r_lp_Energy>
44.393788

> <b_lp_Chiralities_Consistent>
1

> <s_lp_Variant>
364132-1

> <s_i_glide_gridfile>
glide-grid_2qd9

> <i_i_glide_lignum>
2419

> <i_i_glide_rotatable_bonds>
3

> <r_i_docking_score>
-9.72916416456908

> <r_i_glide_ligand_efficiency>
-0.335488419467899

> <r_i_glide_ligand_efficiency_sa>
-1.03072671479706

> <r_i_glide_ligand_efficiency_ln>
-2.22773188336986

> <r_i_glide_gscore>
-9.72916416456908

> <r_i_glide_lipo>
-3.93864834913162

> <r_i_glide_hbond>
-0.367082098731722

> <r_i_glide_metal>
0

> <r_i_glide_rewards>
-2.82835541071553

> <r_i_glide_evdw>
-30.821102142334

> <r_i_glide_ecoul>
-8.39533233642578

> <r_i_glide_erotb>
0.245728137884555

> <r_i_glide_esite>
-0.0404514862942011

> <r_i_glide_emodel>
-46.4727709888487

> <r_i_glide_energy>
-39.2164344787598

> <r_i_glide_einternal>
3.75271439552307

> <i_i_glide_confnum>
3

> <i_i_glide_posenum>
132

> <r_i_glide_eff_state_penalty>
0

> <i_f3d_flags>
0

> <s_user_duplicate_titles>
364132

> <s_m_subgroup_title>
dock_pv

> <s_m_subgroupid>
dock_pv1

> <b_m_subgroup_collapsed>
0

$$$$
364114
                    3D
 Schrodinger Suite 2021-1.
 37 40  0  0  1  0            999 V2000
   -0.4347   -0.6023   26.5100 C   0  0  0  0  0  0
   -1.8032   -0.7665   26.3019 C   0  0  0  0  0  0
   -2.3115   -0.8290   25.0046 C   0  0  0  0  0  0
   -1.4520   -0.7292   23.9010 C   0  0  0  0  0  0
   -0.0766   -0.5597   24.1183 C   0  0  0  0  0  0
    0.4246   -0.4957   25.4178 C   0  0  0  0  0  0
    0.7789   -0.4592   23.0785 F   0  0  0  0  0  0
   -1.9639   -0.8430   22.5827 N   0  0  0  0  0  0
   -2.3149    0.3506   21.8551 C   0  0  0  0  0  0
   -2.0467    1.6367   22.3265 C   0  0  0  0  0  0
   -2.3504    2.7208   21.5103 C   0  0  0  0  0  0
   -2.9113    2.6284   20.2760 N   0  0  0  0  0  0
   -3.2350    1.3900   19.8281 C   0  0  0  0  0  0
   -2.9186    0.2438   20.5832 C   0  0  0  0  0  0
   -3.0818   -1.1005   20.0630 C   0  0  0  0  0  0
   -2.6742   -2.1694   20.7582 C   0  0  0  0  0  0
   -2.1591   -2.1228   22.1114 C   0  0  0  0  0  0
   -1.9815   -3.1655   22.7480 O   0  0  0  0  0  0
   -3.9089    1.3363   18.4918 C   0  0  0  0  0  0
   -3.2354    1.6879   17.3088 C   0  0  0  0  0  0
   -3.8187    1.5113   16.0580 C   0  0  0  0  0  0
   -5.1093    1.0134   15.9679 C   0  0  0  0  0  0
   -5.8356    0.7650   17.1266 C   0  0  0  0  0  0
   -5.2325    0.8871   18.3776 C   0  0  0  0  0  0
   -5.9415    0.5444   19.4762 F   0  0  0  0  0  0
   -5.6350    0.7344   14.7595 F   0  0  0  0  0  0
   -3.6364   -1.0091   24.8228 F   0  0  0  0  0  0
   -0.0380   -0.5614   27.5146 H   0  0  0  0  0  0
   -2.4702   -0.8551   27.1466 H   0  0  0  0  0  0
    1.4858   -0.3742   25.5779 H   0  0  0  0  0  0
   -1.5713    1.8042   23.2819 H   0  0  0  0  0  0
   -2.0687    3.6870   21.8557 H   0  0  0  0  0  0
   -3.4713   -1.2355   19.0760 H   0  0  0  0  0  0
   -2.7776   -3.1138   20.2786 H   0  0  0  0  0  0
   -2.2516    2.1145   17.3142 H   0  0  0  0  0  0
   -3.2662    1.7441   15.1587 H   0  0  0  0  0  0
   -6.8348    0.3705   17.0589 H   0  0  0  0  0  0
  1  6  1  0  0  0
  1  2  2  0  0  0
  1 28  1  0  0  0
  2  3  1  0  0  0
  2 29  1  0  0  0
  3  4  2  0  0  0
  3 27  1  0  0  0
  4  5  1  0  0  0
  4  8  1  0  0  0
  5  6  2  0  0  0
  5  7  1  0  0  0
  6 30  1  0  0  0
  8 17  1  0  0  0
  8  9  1  0  0  0
  9 14  2  0  0  0
  9 10  1  0  0  0
 10 11  2  0  0  0
 10 31  1  0  0  0
 11 12  1  0  0  0
 11 32  1  0  0  0
 12 13  2  0  0  0
 13 14  1  0  0  0
 13 19  1  0  0  0
 14 15  1  0  0  0
 15 16  2  0  0  0
 15 33  1  0  0  0
 16 17  1  0  0  0
 16 34  1  0  0  0
 17 18  2  0  0  0
 19 24  1  0  0  0
 19 20  2  0  0  0
 20 21  1  0  0  0
 20 35  1  0  0  0
 21 22  2  0  0  0
 21 36  1  0  0  0
 22 23  1  0  0  0
 22 26  1  0  0  0
 23 24  2  0  0  0
 23 37  1  0  0  0
 24 25  1  0  0  0
M  END
> <s_m_entry_id>
62408

> <s_m_entry_name>
ligand_docking-pose.68

> <s_m_Source_Path>
/home/csk/Desktop/cluster/DUD-E-result/mk14

> <s_m_Source_File>
ligand_docking-pose.sdf

> <i_m_Source_File_Index>
68

> <i_lp_mmshare_version>
53161

> <r_lp_tautomer_probability>
1

> <s_lp_Force_Field>
OPLS_2005

> <r_lp_Energy>
44.175978

> <b_lp_Chiralities_Consistent>
1

> <s_lp_Variant>
364114-1

> <s_i_glide_gridfile>
glide-grid_2qd9

> <i_i_glide_lignum>
548

> <i_i_glide_rotatable_bonds>
2

> <r_i_docking_score>
-9.48594129666486

> <r_i_glide_ligand_efficiency>
-0.351331159135735

> <r_i_glide_ligand_efficiency_sa>
-1.05399347624928

> <r_i_glide_ligand_efficiency_ln>
-2.20817074589892

> <r_i_glide_gscore>
-9.48594129666486

> <r_i_glide_lipo>
-3.89025417952885

> <r_i_glide_hbond>
-0.32

> <r_i_glide_metal>
0

> <r_i_glide_rewards>
-2.78749167949146

> <r_i_glide_evdw>
-36.0828590393066

> <r_i_glide_ecoul>
-6.43610668182373

> <r_i_glide_erotb>
0.281363516594342

> <r_i_glide_esite>
0

> <r_i_glide_emodel>
-60.4457675279861

> <r_i_glide_energy>
-42.5189657211304

> <r_i_glide_einternal>
1.32704961299896

> <i_i_glide_confnum>
2

> <i_i_glide_posenum>
83

> <r_i_glide_eff_state_penalty>
0

> <i_f3d_flags>
0

> <s_user_duplicate_titles>
364114

> <s_m_subgroup_title>
dock_pv

> <s_m_subgroupid>
dock_pv1

> <b_m_subgroup_collapsed>
0

$$$$
627007
                    3D
 Schrodinger Suite 2021-1.
 38 41  0  0  1  0            999 V2000
   -2.2482    2.7223   21.7153 C   0  0  0  0  0  0
   -2.0364    1.6326   22.4706 C   0  0  0  0  0  0
   -2.3319    0.2943   21.9525 C   0  0  0  0  0  0
   -2.0367   -0.8333   22.6805 C   0  0  0  0  0  0
   -2.2456   -2.2018   22.1282 C   0  0  0  0  0  0
   -2.0350   -3.2519   22.7361 O   0  0  0  0  0  0
   -2.7223   -2.1877   20.7466 C   0  0  0  0  0  0
   -3.0164   -1.0491   20.0935 C   0  0  0  0  0  0
   -2.8848    0.2135   20.6479 N   0  0  0  0  0  0
   -3.1947    1.3783   19.8984 C   0  0  0  0  0  0
   -2.8350    2.5900   20.3899 C   0  0  0  0  0  0
   -3.8860    1.3048   18.5724 C   0  0  0  0  0  0
   -3.2350    1.6870   17.3890 C   0  0  0  0  0  0
   -3.8226    1.5252   16.1407 C   0  0  0  0  0  0
   -5.1114    1.0281   16.0557 C   0  0  0  0  0  0
   -5.8338    0.7813   17.2178 C   0  0  0  0  0  0
   -5.2210    0.8870   18.4673 C   0  0  0  0  0  0
   -5.9248    0.5449   19.5680 F   0  0  0  0  0  0
   -5.6350    0.7519   14.8472 F   0  0  0  0  0  0
   -1.4698   -0.7797   24.0561 C   0  0  0  0  0  0
   -2.3051   -0.9271   25.1737 C   0  0  0  0  0  0
   -1.7770   -0.8954   26.4645 C   0  0  0  0  0  0
   -0.4085   -0.7159   26.6557 C   0  0  0  0  0  0
    0.4304   -0.5716   25.5528 C   0  0  0  0  0  0
   -0.0928   -0.6052   24.2613 C   0  0  0  0  0  0
    0.7456   -0.4616   23.2103 F   0  0  0  0  0  0
   -3.6349   -1.1123   25.0123 F   0  0  0  0  0  0
   -1.9787    3.6870   22.1063 H   0  0  0  0  0  0
   -1.6012    1.7586   23.4514 H   0  0  0  0  0  0
   -2.8355   -3.1130   20.2132 H   0  0  0  0  0  0
   -3.3543   -1.0943   19.0760 H   0  0  0  0  0  0
   -3.0470    3.4846   19.8262 H   0  0  0  0  0  0
   -2.2620    2.1330   17.3928 H   0  0  0  0  0  0
   -3.2773    1.7714   15.2405 H   0  0  0  0  0  0
   -6.8350    0.3942   17.1500 H   0  0  0  0  0  0
   -2.4291   -1.0149   27.3173 H   0  0  0  0  0  0
    0.0042   -0.6966   27.6544 H   0  0  0  0  0  0
    1.4934   -0.4427   25.6976 H   0  0  0  0  0  0
  1 11  1  0  0  0
  1  2  2  0  0  0
  1 28  1  0  0  0
  2  3  1  0  0  0
  2 29  1  0  0  0
  3  9  1  0  0  0
  3  4  2  0  0  0
  4  5  1  0  0  0
  4 20  1  0  0  0
  5  6  2  0  0  0
  5  7  1  0  0  0
  7  8  2  0  0  0
  7 30  1  0  0  0
  8  9  1  0  0  0
  8 31  1  0  0  0
  9 10  1  0  0  0
 10 11  2  0  0  0
 10 12  1  0  0  0
 11 32  1  0  0  0
 12 17  1  0  0  0
 12 13  2  0  0  0
 13 14  1  0  0  0
 13 33  1  0  0  0
 14 15  2  0  0  0
 14 34  1  0  0  0
 15 16  1  0  0  0
 15 19  1  0  0  0
 16 17  2  0  0  0
 16 35  1  0  0  0
 17 18  1  0  0  0
 20 25  1  0  0  0
 20 21  2  0  0  0
 21 22  1  0  0  0
 21 27  1  0  0  0
 22 23  2  0  0  0
 22 36  1  0  0  0
 23 24  1  0  0  0
 23 37  1  0  0  0
 24 25  2  0  0  0
 24 38  1  0  0  0
 25 26  1  0  0  0
M  END
> <s_m_entry_id>
62409

> <s_m_entry_name>
ligand_docking-pose.69

> <s_m_Source_Path>
/home/csk/Desktop/cluster/DUD-E-result/mk14

> <s_m_Source_File>
ligand_docking-pose.sdf

> <i_m_Source_File_Index>
69

> <i_lp_mmshare_version>
53161

> <r_lp_tautomer_probability>
1

> <s_lp_Force_Field>
OPLS_2005

> <r_lp_Energy>
27.158509

> <b_lp_Chiralities_Consistent>
1

> <s_lp_Variant>
627007-1

> <s_i_glide_gridfile>
glide-grid_2qd9

> <i_i_glide_lignum>
26

> <i_i_glide_rotatable_bonds>
2

> <r_i_docking_score>
-9.46959700925443

> <r_i_glide_ligand_efficiency>
-0.350725815157571

> <r_i_glide_ligand_efficiency_sa>
-1.05217744431678

> <r_i_glide_ligand_efficiency_ln>
-2.20436606524641

> <r_i_glide_gscore>
-9.46959700925443

> <r_i_glide_lipo>
-3.79332189999036

> <r_i_glide_hbond>
-0.32

> <r_i_glide_metal>
0

> <r_i_glide_rewards>
-2.97525798355471

> <r_i_glide_evdw>
-35.8417663574219

> <r_i_glide_ecoul>
-5.81092691421509

> <r_i_glide_erotb>
0.282710229293997

> <r_i_glide_esite>
0

> <r_i_glide_emodel>
-57.2142109678825

> <r_i_glide_energy>
-41.652693271637

> <r_i_glide_einternal>
1.755863904953

> <i_i_glide_confnum>
2

> <i_i_glide_posenum>
381

> <r_i_glide_eff_state_penalty>
0

> <i_f3d_flags>
0

> <s_user_duplicate_titles>
627007

> <s_m_subgroup_title>
dock_pv

> <s_m_subgroupid>
dock_pv1

> <b_m_subgroup_collapsed>
0

$$$$
364122
                    3D
 Schrodinger Suite 2021-1.
 38 41  0  0  1  0            999 V2000
   -0.4045   -0.6912   26.9808 C   0  0  0  0  0  0
   -1.7760   -0.8667   26.8033 C   0  0  0  0  0  0
   -2.3030   -1.0097   25.5202 C   0  0  0  0  0  0
   -1.4534   -0.9853   24.4028 C   0  0  0  0  0  0
   -0.0744   -0.8071   24.5860 C   0  0  0  0  0  0
    0.4400   -0.6556   25.8722 C   0  0  0  0  0  0
    0.7650   -0.7644   23.5249 F   0  0  0  0  0  0
   -1.9832   -1.1539   23.0998 N   0  0  0  0  0  0
   -2.2372   -2.4429   22.7096 C   0  0  0  0  0  0
   -2.0350   -3.4604   23.3787 O   0  0  0  0  0  0
   -2.8350   -2.5389   21.3984 C   0  0  0  0  0  0
   -3.1556   -1.5021   20.6062 C   0  0  0  0  0  0
   -2.8736   -0.1378   21.0307 C   0  0  0  0  0  0
   -2.2601    0.0039   22.2950 C   0  0  0  0  0  0
   -1.9064    1.2854   22.7049 C   0  0  0  0  0  0
   -2.1484    2.3683   21.8760 C   0  0  0  0  0  0
   -2.7897    2.2338   20.6760 N   0  0  0  0  0  0
   -3.1539    0.9922   20.2422 C   0  0  0  0  0  0
   -3.8390    0.9322   18.8978 C   0  0  0  0  0  0
   -3.1171    0.8870   17.6947 C   0  0  0  0  0  0
   -3.7292    0.8899   16.4460 C   0  0  0  0  0  0
   -5.1091    0.8870   16.3642 C   0  0  0  0  0  0
   -5.8619    0.8870   17.5327 C   0  0  0  0  0  0
   -5.2350    0.8870   18.7810 C   0  0  0  0  0  0
   -6.0113    0.8717   19.8760 F   0  0  0  0  0  0
   -5.6989    0.8393   15.1539 F   0  0  0  0  0  0
   -1.6350    3.5275   22.3756 O   0  0  0  0  0  0
   -3.6350   -1.1855   25.3674 F   0  0  0  0  0  0
    0.0065   -0.5855   27.9750 H   0  0  0  0  0  0
   -2.4306   -0.8980   27.6618 H   0  0  0  0  0  0
    1.5034   -0.5233   26.0110 H   0  0  0  0  0  0
   -3.0962   -3.5130   21.0760 H   0  0  0  0  0  0
   -3.6332   -1.6850   19.6572 H   0  0  0  0  0  0
   -1.4083    1.4403   23.6502 H   0  0  0  0  0  0
   -2.0483    0.8227   17.6743 H   0  0  0  0  0  0
   -3.1360    0.8632   15.5434 H   0  0  0  0  0  0
   -6.9348    0.8561   17.4762 H   0  0  0  0  0  0
   -1.0889    3.3748   23.1497 H   0  0  0  0  0  0
  1  6  1  0  0  0
  1  2  2  0  0  0
  1 29  1  0  0  0
  2  3  1  0  0  0
  2 30  1  0  0  0
  3  4  2  0  0  0
  3 28  1  0  0  0
  4  5  1  0  0  0
  4  8  1  0  0  0
  5  6  2  0  0  0
  5  7  1  0  0  0
  6 31  1  0  0  0
  8 14  1  0  0  0
  8  9  1  0  0  0
  9 10  2  0  0  0
  9 11  1  0  0  0
 11 12  2  0  0  0
 11 32  1  0  0  0
 12 13  1  0  0  0
 12 33  1  0  0  0
 13 18  2  0  0  0
 13 14  1  0  0  0
 14 15  2  0  0  0
 15 16  1  0  0  0
 15 34  1  0  0  0
 16 17  2  0  0  0
 16 27  1  0  0  0
 17 18  1  0  0  0
 18 19  1  0  0  0
 19 24  1  0  0  0
 19 20  2  0  0  0
 20 21  1  0  0  0
 20 35  1  0  0  0
 21 22  2  0  0  0
 21 36  1  0  0  0
 22 23  1  0  0  0
 22 26  1  0  0  0
 23 24  2  0  0  0
 23 37  1  0  0  0
 24 25  1  0  0  0
 27 38  1  0  0  0
M  END
> <s_m_entry_id>
62423

> <s_m_entry_name>
ligand_docking-pose.83

> <s_m_Source_Path>
/home/csk/Desktop/cluster/DUD-E-result/mk14

> <s_m_Source_File>
ligand_docking-pose.sdf

> <i_m_Source_File_Index>
83

> <i_lp_mmshare_version>
53161

> <r_lp_tautomer_probability>
1

> <s_lp_Force_Field>
OPLS_2005

> <r_lp_Energy>
42.031288

> <b_lp_Chiralities_Consistent>
1

> <s_lp_Variant>
364122-1

> <s_i_glide_gridfile>
glide-grid_2qd9

> <i_i_glide_lignum>
552

> <i_i_glide_rotatable_bonds>
3

> <r_i_docking_score>
-9.32417579329582

> <r_i_glide_ligand_efficiency>
-0.333006278331993

> <r_i_glide_ligand_efficiency_sa>
-1.01120319122511

> <r_i_glide_ligand_efficiency_ln>
-2.15229354279

> <r_i_glide_gscore>
-9.32417579329582

> <r_i_glide_lipo>
-3.79864093779303

> <r_i_glide_hbond>
-0.592998652574926

> <r_i_glide_metal>
0

> <r_i_glide_rewards>
-2.24386065659202

> <r_i_glide_evdw>
-28.2042217254639

> <r_i_glide_ecoul>
-10.2620077133179

> <r_i_glide_erotb>
0.260836696935037

> <r_i_glide_esite>
0

> <r_i_glide_emodel>
-49.9949362383092

> <r_i_glide_energy>
-38.4662294387817

> <r_i_glide_einternal>
1.98607397079468

> <i_i_glide_confnum>
1

> <i_i_glide_posenum>
97

> <r_i_glide_eff_state_penalty>
0

> <i_f3d_flags>
0

> <s_user_duplicate_titles>
364122

> <s_m_subgroup_title>
dock_pv

> <s_m_subgroupid>
dock_pv1

> <b_m_subgroup_collapsed>
0

$$$$
190052
                    3D
 Schrodinger Suite 2021-1.
 39 42  0  0  1  0            999 V2000
   -0.2929   -0.3206   27.4966 C   0  0  0  0  0  0
   -1.5833   -0.7940   27.2849 C   0  0  0  0  0  0
   -2.0140   -1.1077   25.9959 C   0  0  0  0  0  0
   -1.1471   -0.9654   24.8946 C   0  0  0  0  0  0
    0.1616   -0.4995   25.1248 C   0  0  0  0  0  0
    0.5704   -0.1676   26.4172 C   0  0  0  0  0  0
    1.2994   -0.3130   23.8315 Cl  0  0  0  0  0  0
   -1.6119   -1.2951   23.5131 C   0  0  0  0  0  0
   -2.0328   -0.3392   22.6530 C   0  0  0  0  0  0
   -2.0496    1.0894   22.9423 C   0  0  0  0  0  0
   -2.4350    1.9263   21.9630 C   0  0  0  0  0  0
   -2.8350    1.3994   20.6760 C   0  0  0  0  0  0
   -2.8572    0.1401   20.4103 N   0  0  0  0  0  0
   -2.4645   -0.7089   21.3656 N   0  0  0  0  0  0
   -2.4350   -2.0482   20.9990 C   0  0  0  0  0  0
   -2.0417   -2.9870   21.7703 N   0  0  0  0  0  0
   -1.6065   -2.6966   23.0704 C   0  0  0  0  0  0
   -1.2350   -3.5130   23.8760 O   0  0  0  0  0  0
   -3.2350    2.5687   19.4302 S   0  0  0  0  0  0
   -4.0334    1.6306   18.1301 C   0  0  0  0  0  0
   -5.2446    0.9903   18.4108 C   0  0  0  0  0  0
   -6.0350    0.4872   17.3759 C   0  0  0  0  0  0
   -5.5670    0.5198   16.0639 C   0  0  0  0  0  0
   -4.3417    1.1091   15.7771 C   0  0  0  0  0  0
   -3.5850    1.6870   16.7936 C   0  0  0  0  0  0
   -2.4350    2.3795   16.4149 N   0  0  0  0  0  0
   -6.2858   -0.0383   15.0693 F   0  0  0  0  0  0
   -3.6350   -1.6741   25.8017 Cl  0  0  0  0  0  0
    0.0423   -0.0757   28.4946 H   0  0  0  0  0  0
   -2.2513   -0.9171   28.1250 H   0  0  0  0  0  0
    1.5650    0.2070   26.5941 H   0  0  0  0  0  0
   -1.7442    1.4701   23.9061 H   0  0  0  0  0  0
   -2.4347    2.9882   22.1545 H   0  0  0  0  0  0
   -2.7756   -2.2663   19.9880 H   0  0  0  0  0  0
   -5.6202    0.9556   19.4234 H   0  0  0  0  0  0
   -6.9842    0.0233   17.5980 H   0  0  0  0  0  0
   -4.0013    1.1393   14.7526 H   0  0  0  0  0  0
   -2.2082    2.4686   15.4343 H   0  0  0  0  0  0
   -1.8059    2.7318   17.1233 H   0  0  0  0  0  0
  1  6  1  0  0  0
  1  2  2  0  0  0
  1 29  1  0  0  0
  2  3  1  0  0  0
  2 30  1  0  0  0
  3  4  2  0  0  0
  3 28  1  0  0  0
  4  5  1  0  0  0
  4  8  1  0  0  0
  5  6  2  0  0  0
  5  7  1  0  0  0
  6 31  1  0  0  0
  8 17  1  0  0  0
  8  9  2  0  0  0
  9 14  1  0  0  0
  9 10  1  0  0  0
 10 11  2  0  0  0
 10 32  1  0  0  0
 11 12  1  0  0  0
 11 33  1  0  0  0
 12 13  2  0  0  0
 12 19  1  0  0  0
 13 14  1  0  0  0
 14 15  1  0  0  0
 15 16  2  0  0  0
 15 34  1  0  0  0
 16 17  1  0  0  0
 17 18  2  0  0  0
 19 20  1  0  0  0
 20 25  1  0  0  0
 20 21  2  0  0  0
 21 22  1  0  0  0
 21 35  1  0  0  0
 22 23  2  0  0  0
 22 36  1  0  0  0
 23 24  1  0  0  0
 23 27  1  0  0  0
 24 25  2  0  0  0
 24 37  1  0  0  0
 25 26  1  0  0  0
 26 38  1  0  0  0
 26 39  1  0  0  0
M  END
> <s_m_entry_id>
62426

> <s_m_entry_name>
ligand_docking-pose.86

> <s_m_Source_Path>
/home/csk/Desktop/cluster/DUD-E-result/mk14

> <s_m_Source_File>
ligand_docking-pose.sdf

> <i_m_Source_File_Index>
86

> <i_lp_mmshare_version>
53161

> <r_lp_tautomer_probability>
1

> <s_lp_Force_Field>
OPLS_2005

> <r_lp_Energy>
46.546426

> <b_lp_Chiralities_Consistent>
1

> <s_lp_Variant>
190052-1

> <s_i_glide_gridfile>
glide-grid_2qd9

> <i_i_glide_lignum>
411

> <i_i_glide_rotatable_bonds>
3

> <r_i_docking_score>
-9.31525680383915

> <r_i_glide_ligand_efficiency>
-0.332687742994255

> <r_i_glide_ligand_efficiency_sa>
-1.01023593033246

> <r_i_glide_ligand_efficiency_ln>
-2.15023477815049

> <r_i_glide_gscore>
-9.31525680383915

> <r_i_glide_lipo>
-3.74843233101026

> <r_i_glide_hbond>
-0.498138544996123

> <r_i_glide_metal>
0

> <r_i_glide_rewards>
-2.17983423772735

> <r_i_glide_evdw>
-34.3248825073242

> <r_i_glide_ecoul>
-9.93799018859863

> <r_i_glide_erotb>
0.318090963550588

> <r_i_glide_esite>
0

> <r_i_glide_emodel>
-64.6287114213691

> <r_i_glide_energy>
-44.2628726959229

> <r_i_glide_einternal>
0.89195191860199

> <i_i_glide_confnum>
7

> <i_i_glide_posenum>
114

> <r_i_glide_eff_state_penalty>
0

> <i_f3d_flags>
0

> <s_user_duplicate_titles>
190052

> <s_m_subgroup_title>
dock_pv

> <s_m_subgroupid>
dock_pv1

> <b_m_subgroup_collapsed>
0

$$$$
190134
                    3D
 Schrodinger Suite 2021-1.
 40 43  0  0  1  0            999 V2000
   -2.6779    2.2210   16.0769 C   0  0  0  0  0  0
   -3.9097    1.5617   16.6847 C   0  0  0  0  0  0
   -4.8327    1.0006   15.7993 C   0  0  0  0  0  0
   -6.0350    0.4870   16.2693 C   0  0  0  0  0  0
   -6.3077    0.4870   17.6351 C   0  0  0  0  0  0
   -5.3551    0.9337   18.5371 C   0  0  0  0  0  0
   -4.1828    1.5339   18.0723 C   0  0  0  0  0  0
   -3.2350    2.4870   19.2343 S   0  0  0  0  0  0
   -2.8350    1.3531   20.5302 C   0  0  0  0  0  0
   -2.4350    1.9072   21.8061 C   0  0  0  0  0  0
   -2.0409    1.0911   22.8019 C   0  0  0  0  0  0
   -2.0228   -0.3455   22.5478 C   0  0  0  0  0  0
   -1.6113   -1.2863   23.4325 C   0  0  0  0  0  0
   -1.6350   -2.7023   23.0325 C   0  0  0  0  0  0
   -1.3303   -3.5130   23.8760 O   0  0  0  0  0  0
   -2.0350   -3.0135   21.7256 N   0  0  0  0  0  0
   -2.4203   -2.0900   20.9311 C   0  0  0  0  0  0
   -2.4522   -0.7428   21.2686 N   0  0  0  0  0  0
   -2.8466    0.0862   20.2947 N   0  0  0  0  0  0
   -1.1475   -0.9312   24.8081 C   0  0  0  0  0  0
   -2.0143   -1.0523   25.9115 C   0  0  0  0  0  0
   -1.5835   -0.7237   27.1965 C   0  0  0  0  0  0
   -0.2913   -0.2543   27.4021 C   0  0  0  0  0  0
    0.5715   -0.1190   26.3202 C   0  0  0  0  0  0
    0.1631   -0.4690   25.0324 C   0  0  0  0  0  0
    1.3041   -0.3130   23.7380 Cl  0  0  0  0  0  0
   -3.6350   -1.6153   25.7250 Cl  0  0  0  0  0  0
   -1.7856    2.0856   16.6760 H   0  0  0  0  0  0
   -2.4426    1.7874   15.1043 H   0  0  0  0  0  0
   -2.8414    3.2870   15.9366 H   0  0  0  0  0  0
   -4.6427    1.0016   14.7358 H   0  0  0  0  0  0
   -6.7560    0.0833   15.5741 H   0  0  0  0  0  0
   -7.2396    0.0870   17.9988 H   0  0  0  0  0  0
   -5.5907    0.9272   19.5915 H   0  0  0  0  0  0
   -2.4350    2.9730   21.9735 H   0  0  0  0  0  0
   -1.7316    1.4935   23.7555 H   0  0  0  0  0  0
   -2.7484   -2.3289   19.9206 H   0  0  0  0  0  0
   -2.2527   -0.8321   28.0377 H   0  0  0  0  0  0
    0.0447    0.0039   28.3963 H   0  0  0  0  0  0
    1.5650    0.2570   26.4929 H   0  0  0  0  0  0
  1  2  1  0  0  0
  1 28  1  0  0  0
  1 29  1  0  0  0
  1 30  1  0  0  0
  2  7  1  0  0  0
  2  3  2  0  0  0
  3  4  1  0  0  0
  3 31  1  0  0  0
  4  5  2  0  0  0
  4 32  1  0  0  0
  5  6  1  0  0  0
  5 33  1  0  0  0
  6  7  2  0  0  0
  6 34  1  0  0  0
  7  8  1  0  0  0
  8  9  1  0  0  0
  9 19  2  0  0  0
  9 10  1  0  0  0
 10 11  2  0  0  0
 10 35  1  0  0  0
 11 12  1  0  0  0
 11 36  1  0  0  0
 12 18  1  0  0  0
 12 13  2  0  0  0
 13 14  1  0  0  0
 13 20  1  0  0  0
 14 15  2  0  0  0
 14 16  1  0  0  0
 16 17  2  0  0  0
 17 18  1  0  0  0
 17 37  1  0  0  0
 18 19  1  0  0  0
 20 25  1  0  0  0
 20 21  2  0  0  0
 21 22  1  0  0  0
 21 27  1  0  0  0
 22 23  2  0  0  0
 22 38  1  0  0  0
 23 24  1  0  0  0
 23 39  1  0  0  0
 24 25  2  0  0  0
 24 40  1  0  0  0
 25 26  1  0  0  0
M  END
> <s_m_entry_id>
62429

> <s_m_entry_name>
ligand_docking-pose.89

> <s_m_Source_Path>
/home/csk/Desktop/cluster/DUD-E-result/mk14

> <s_m_Source_File>
ligand_docking-pose.sdf

> <i_m_Source_File_Index>
89

> <i_lp_mmshare_version>
53161

> <r_lp_tautomer_probability>
1

> <s_lp_Force_Field>
OPLS_2005

> <r_lp_Energy>
38.134983

> <b_lp_Chiralities_Consistent>
1

> <s_lp_Variant>
190134-1

> <s_i_glide_gridfile>
glide-grid_2qd9

> <i_i_glide_lignum>
1246

> <i_i_glide_rotatable_bonds>
3

> <r_i_docking_score>
-9.29300862939948

> <r_i_glide_ligand_efficiency>
-0.344185504792573

> <r_i_glide_ligand_efficiency_sa>
-1.03255651324334

> <r_i_glide_ligand_efficiency_ln>
-2.16325920170315

> <r_i_glide_gscore>
-9.29300862939948

> <r_i_glide_lipo>
-3.8740270876578

> <r_i_glide_hbond>
-0.50576558213298

> <r_i_glide_metal>
0

> <r_i_glide_rewards>
-2.13249951036108

> <r_i_glide_evdw>
-32.2391204833984

> <r_i_glide_ecoul>
-10.0913200378418

> <r_i_glide_erotb>
0.344937580598567

> <r_i_glide_esite>
0

> <r_i_glide_emodel>
-55.4196054001234

> <r_i_glide_energy>
-42.3304405212402

> <r_i_glide_einternal>
1.1339248418808

> <i_i_glide_confnum>
5

> <i_i_glide_posenum>
231

> <r_i_glide_eff_state_penalty>
0

> <i_f3d_flags>
0

> <s_user_duplicate_titles>
190134

> <s_m_subgroup_title>
dock_pv

> <s_m_subgroupid>
dock_pv1

> <b_m_subgroup_collapsed>
0

$$$$
364106
                    3D
 Schrodinger Suite 2021-1.
 37 40  0  0  1  0            999 V2000
   -0.6425   -0.4972   26.6311 C   0  0  0  0  0  0
    0.3117   -0.3737   25.6236 C   0  0  0  0  0  0
   -0.0572   -0.4833   24.2824 C   0  0  0  0  0  0
   -1.4024   -0.7226   23.9432 C   0  0  0  0  0  0
   -2.3645   -0.8297   24.9653 C   0  0  0  0  0  0
   -1.9777   -0.7200   26.3015 C   0  0  0  0  0  0
   -4.0326   -1.1150   24.6033 Cl  0  0  0  0  0  0
   -1.7901   -0.8871   22.5890 N   0  0  0  0  0  0
   -2.2072    0.2699   21.8399 C   0  0  0  0  0  0
   -2.0488    1.5805   22.3131 C   0  0  0  0  0  0
   -2.4349    2.6430   21.5003 C   0  0  0  0  0  0
   -2.9927    2.4833   20.2759 N   0  0  0  0  0  0
   -3.1782    1.2214   19.8080 C   0  0  0  0  0  0
   -2.7777    0.0978   20.5598 C   0  0  0  0  0  0
   -2.8346   -1.2771   20.0574 C   0  0  0  0  0  0
   -2.3557   -2.3088   20.7756 C   0  0  0  0  0  0
   -1.8712   -2.1865   22.1353 C   0  0  0  0  0  0
   -1.6351   -3.1979   22.8018 O   0  0  0  0  0  0
   -3.8199    1.1484   18.4597 C   0  0  0  0  0  0
   -3.0967    1.2871   17.2577 C   0  0  0  0  0  0
   -3.7047    1.1644   16.0139 C   0  0  0  0  0  0
   -5.0601    0.8987   15.9444 C   0  0  0  0  0  0
   -5.8024    0.8250   17.1152 C   0  0  0  0  0  0
   -5.1930    0.9060   18.3634 C   0  0  0  0  0  0
   -5.9445    0.7396   19.4758 F   0  0  0  0  0  0
   -5.6347    0.6532   14.7506 F   0  0  0  0  0  0
    1.1717   -0.3129   23.0765 Cl  0  0  0  0  0  0
   -0.3449   -0.4185   27.6672 H   0  0  0  0  0  0
    1.3444   -0.1976   25.8882 H   0  0  0  0  0  0
   -2.7139   -0.8140   27.0870 H   0  0  0  0  0  0
   -1.6044    1.7855   23.2759 H   0  0  0  0  0  0
   -2.2869    3.6597   21.8296 H   0  0  0  0  0  0
   -3.2174   -1.4689   19.0762 H   0  0  0  0  0  0
   -2.3774   -3.2983   20.3500 H   0  0  0  0  0  0
   -2.0350    1.4465   17.2210 H   0  0  0  0  0  0
   -3.1201    1.2312   15.1077 H   0  0  0  0  0  0
   -6.8354    0.5782   17.0606 H   0  0  0  0  0  0
  1  6  1  0  0  0
  1  2  2  0  0  0
  1 28  1  0  0  0
  2  3  1  0  0  0
  2 29  1  0  0  0
  3  4  2  0  0  0
  3 27  1  0  0  0
  4  5  1  0  0  0
  4  8  1  0  0  0
  5  6  2  0  0  0
  5  7  1  0  0  0
  6 30  1  0  0  0
  8 17  1  0  0  0
  8  9  1  0  0  0
  9 14  2  0  0  0
  9 10  1  0  0  0
 10 11  2  0  0  0
 10 31  1  0  0  0
 11 12  1  0  0  0
 11 32  1  0  0  0
 12 13  2  0  0  0
 13 14  1  0  0  0
 13 19  1  0  0  0
 14 15  1  0  0  0
 15 16  2  0  0  0
 15 33  1  0  0  0
 16 17  1  0  0  0
 16 34  1  0  0  0
 17 18  2  0  0  0
 19 24  1  0  0  0
 19 20  2  0  0  0
 20 21  1  0  0  0
 20 35  1  0  0  0
 21 22  2  0  0  0
 21 36  1  0  0  0
 22 23  1  0  0  0
 22 26  1  0  0  0
 23 24  2  0  0  0
 23 37  1  0  0  0
 24 25  1  0  0  0
M  END
> <s_m_entry_id>
62430

> <s_m_entry_name>
ligand_docking-pose.90

> <s_m_Source_Path>
/home/csk/Desktop/cluster/DUD-E-result/mk14

> <s_m_Source_File>
ligand_docking-pose.sdf

> <i_m_Source_File_Index>
90

> <i_lp_mmshare_version>
53161

> <r_lp_tautomer_probability>
1

> <s_lp_Force_Field>
OPLS_2005

> <r_lp_Energy>
43.965989

> <b_lp_Chiralities_Consistent>
1

> <s_lp_Variant>
364106-1

> <s_i_glide_gridfile>
glide-grid_2qd9

> <i_i_glide_lignum>
461

> <i_i_glide_rotatable_bonds>
2

> <r_i_docking_score>
-9.27606980715674

> <r_i_glide_ligand_efficiency>
-0.343558141005805

> <r_i_glide_ligand_efficiency_sa>
-1.0306744218851

> <r_i_glide_ligand_efficiency_ln>
-2.15931612314335

> <r_i_glide_gscore>
-9.27606980715674

> <r_i_glide_lipo>
-4.13867023482586

> <r_i_glide_hbond>
-0.32

> <r_i_glide_metal>
0

> <r_i_glide_rewards>
-2.28379124731317

> <r_i_glide_evdw>
-37.0942039489746

> <r_i_glide_ecoul>
-6.13599300384521

> <r_i_glide_erotb>
0.241500823007805

> <r_i_glide_esite>
0

> <r_i_glide_emodel>
-58.0342844464157

> <r_i_glide_energy>
-43.2301969528198

> <r_i_glide_einternal>
1.68370723724365

> <i_i_glide_confnum>
1

> <i_i_glide_posenum>
337

> <r_i_glide_eff_state_penalty>
0

> <i_f3d_flags>
0

> <s_user_duplicate_titles>
364106

> <s_m_subgroup_title>
dock_pv

> <s_m_subgroupid>
dock_pv1

> <b_m_subgroup_collapsed>
0

$$$$
386118
                    3D
 Schrodinger Suite 2021-1.
 47 51  0  0  1  0            999 V2000
   -0.0722   -0.1394   29.4759 C   0  0  0  0  0  0
   -1.1373   -0.6912   28.6543 N   0  0  0  0  0  0
   -2.3700   -1.0913   29.1162 C   0  0  0  0  0  0
   -3.1157   -1.5985   28.0741 C   0  0  0  0  0  0
   -2.3058   -1.5132   26.8995 C   0  0  0  0  0  0
   -1.0566   -0.9547   27.2961 C   0  0  0  0  0  0
   -0.0081   -0.7769   26.3905 C   0  0  0  0  0  0
   -0.2045   -1.2057   25.0784 C   0  0  0  0  0  0
   -1.4442   -1.7176   24.6462 C   0  0  0  0  0  0
   -2.4944   -1.8735   25.5586 C   0  0  0  0  0  0
   -1.6459   -2.1913   23.2259 C   0  0  0  0  0  0
   -1.7856   -3.4009   23.0345 O   0  0  0  0  0  0
   -1.6155   -1.2699   22.2225 N   0  0  0  0  0  0
   -1.5865   -1.7197   20.8087 C   0  0  0  0  0  0
   -2.7862   -1.1203   20.0317 C   0  0  0  0  0  0
   -2.8352    0.3710   20.2948 C   0  0  0  0  0  0
   -2.2497    0.9827   21.3863 C   0  0  0  0  0  0
   -2.4350    2.3479   21.1489 C   0  0  0  0  0  0
   -3.0299    2.5947   20.0038 N   0  0  0  0  0  0
   -3.2552    1.3857   19.4644 N   0  0  0  0  0  0
   -3.8738    1.3019   18.2031 C   0  0  0  0  0  0
   -3.1724    1.6865   17.0492 C   0  0  0  0  0  0
   -3.7856    1.6425   15.8020 C   0  0  0  0  0  0
   -5.1121    1.2405   15.6930 C   0  0  0  0  0  0
   -5.8159    0.8868   16.8381 C   0  0  0  0  0  0
   -5.2110    0.8979   18.0928 C   0  0  0  0  0  0
   -6.1616    0.4869   19.4761 Cl  0  0  0  0  0  0
   -1.5658    0.1915   22.4889 C   0  0  0  0  0  0
    1.1650   -1.1007   24.0205 Cl  0  0  0  0  0  0
   -0.4136    0.0158   30.4995 H   0  0  0  0  0  0
    0.7648   -0.8344   29.4759 H   0  0  0  0  0  0
    0.2557    0.8130   29.0580 H   0  0  0  0  0  0
   -2.6090   -0.9924   30.1662 H   0  0  0  0  0  0
   -4.1158   -1.9950   28.1573 H   0  0  0  0  0  0
    0.9461   -0.3770   26.7030 H   0  0  0  0  0  0
   -3.4352   -2.3037   25.2475 H   0  0  0  0  0  0
   -0.6584   -1.3554   20.3654 H   0  0  0  0  0  0
   -1.5631   -2.8064   20.7024 H   0  0  0  0  0  0
   -2.6692   -1.3324   18.9730 H   0  0  0  0  0  0
   -3.7082   -1.6063   20.3421 H   0  0  0  0  0  0
   -2.1015    3.1453   21.7958 H   0  0  0  0  0  0
   -2.1463    2.0195   17.0760 H   0  0  0  0  0  0
   -3.2283    1.9224   14.9210 H   0  0  0  0  0  0
   -5.5909    1.2008   14.7263 H   0  0  0  0  0  0
   -6.8350    0.5598   16.7519 H   0  0  0  0  0  0
   -2.0025    0.4524   23.4541 H   0  0  0  0  0  0
   -0.5314    0.5160   22.6029 H   0  0  0  0  0  0
  1  2  1  0  0  0
  1 30  1  0  0  0
  1 31  1  0  0  0
  1 32  1  0  0  0
  2  6  1  0  0  0
  2  3  1  0  0  0
  3  4  2  0  0  0
  3 33  1  0  0  0
  4  5  1  0  0  0
  4 34  1  0  0  0
  5 10  2  0  0  0
  5  6  1  0  0  0
  6  7  2  0  0  0
  7  8  1  0  0  0
  7 35  1  0  0  0
  8  9  2  0  0  0
  8 29  1  0  0  0
  9 10  1  0  0  0
  9 11  1  0  0  0
 10 36  1  0  0  0
 11 12  2  0  0  0
 11 13  1  0  0  0
 13 28  1  0  0  0
 13 14  1  0  0  0
 14 15  1  0  0  0
 14 37  1  0  0  0
 14 38  1  0  0  0
 15 16  1  0  0  0
 15 39  1  0  0  0
 15 40  1  0  0  0
 16 20  1  0  0  0
 16 17  2  0  0  0
 17 18  1  0  0  0
 17 28  1  0  0  0
 18 19  2  0  0  0
 18 41  1  0  0  0
 19 20  1  0  0  0
 20 21  1  0  0  0
 21 26  1  0  0  0
 21 22  2  0  0  0
 22 23  1  0  0  0
 22 42  1  0  0  0
 23 24  2  0  0  0
 23 43  1  0  0  0
 24 25  1  0  0  0
 24 44  1  0  0  0
 25 26  2  0  0  0
 25 45  1  0  0  0
 26 27  1  0  0  0
 28 46  1  0  0  0
 28 47  1  0  0  0
M  END
> <s_m_entry_id>
62431

> <s_m_entry_name>
ligand_docking-pose.91

> <s_m_Source_Path>
/home/csk/Desktop/cluster/DUD-E-result/mk14

> <s_m_Source_File>
ligand_docking-pose.sdf

> <i_m_Source_File_Index>
91

> <i_lp_mmshare_version>
53161

> <r_lp_tautomer_probability>
1

> <s_lp_Force_Field>
OPLS_2005

> <r_lp_Energy>
37.569118

> <b_lp_Chiralities_Consistent>
1

> <s_lp_Variant>
386118-1

> <s_i_glide_gridfile>
glide-grid_2qd9

> <i_i_glide_lignum>
2354

> <i_i_glide_rotatable_bonds>
3

> <r_i_docking_score>
-9.27406417738114

> <r_i_glide_ligand_efficiency>
-0.319795316461419

> <r_i_glide_ligand_efficiency_sa>
-0.982512530437143

> <r_i_glide_ligand_efficiency_ln>
-2.12352552664376

> <r_i_glide_gscore>
-9.27406417738114

> <r_i_glide_lipo>
-4.15215516641237

> <r_i_glide_hbond>
-0.517085639773091

> <r_i_glide_metal>
0

> <r_i_glide_rewards>
-1.52905402664448

> <r_i_glide_evdw>
-45.9831008911133

> <r_i_glide_ecoul>
-7.37061214447021

> <r_i_glide_erotb>
0.328977521674997

> <r_i_glide_esite>
0

> <r_i_glide_emodel>
-77.1337395655151

> <r_i_glide_energy>
-53.3537130355835

> <r_i_glide_einternal>
6.28723287582397

> <i_i_glide_confnum>
17

> <i_i_glide_posenum>
52

> <r_i_glide_eff_state_penalty>
0

> <i_f3d_flags>
0

> <s_user_duplicate_titles>
386118

> <s_m_subgroup_title>
dock_pv

> <s_m_subgroupid>
dock_pv1

> <b_m_subgroup_collapsed>
0

$$$$
364107
                    3D
 Schrodinger Suite 2021-1.
 37 40  0  0  1  0            999 V2000
   -2.4479   -0.7456   26.3348 C   0  0  0  0  0  0
   -1.1205   -0.6311   26.7464 C   0  0  0  0  0  0
   -0.1012   -0.5460   25.7990 C   0  0  0  0  0  0
   -0.4002   -0.5856   24.4363 C   0  0  0  0  0  0
   -1.7375   -0.7161   24.0160 C   0  0  0  0  0  0
   -2.7584   -0.7829   24.9752 C   0  0  0  0  0  0
   -2.0760   -0.8310   22.6447 N   0  0  0  0  0  0
   -2.3791    0.3591   21.8942 C   0  0  0  0  0  0
   -2.0691    1.6422   22.3490 C   0  0  0  0  0  0
   -2.3242    2.7238   21.5130 C   0  0  0  0  0  0
   -2.8836    2.6287   20.2782 N   0  0  0  0  0  0
   -3.2350    1.3927   19.8398 C   0  0  0  0  0  0
   -2.9520    0.2476   20.6091 C   0  0  0  0  0  0
   -3.0861   -1.1007   20.0814 C   0  0  0  0  0  0
   -2.6734   -2.1649   20.7837 C   0  0  0  0  0  0
   -2.2137   -2.1120   22.1573 C   0  0  0  0  0  0
   -2.0349   -3.1526   22.7968 O   0  0  0  0  0  0
   -3.9081    1.3365   18.5015 C   0  0  0  0  0  0
   -3.2350    1.6872   17.3187 C   0  0  0  0  0  0
   -3.8164    1.5106   16.0668 C   0  0  0  0  0  0
   -5.1077    1.0142   15.9748 C   0  0  0  0  0  0
   -5.8347    0.7665   17.1326 C   0  0  0  0  0  0
   -5.2323    0.8873   18.3841 C   0  0  0  0  0  0
   -5.9442    0.5446   19.4799 F   0  0  0  0  0  0
   -5.6350    0.7370   14.7666 F   0  0  0  0  0  0
    0.9028   -0.4709   23.3075 Cl  0  0  0  0  0  0
   -3.2339   -0.8135   27.0714 H   0  0  0  0  0  0
   -0.8788   -0.6087   27.7994 H   0  0  0  0  0  0
    0.9259   -0.4554   26.1240 H   0  0  0  0  0  0
   -3.7893   -0.8885   24.6681 H   0  0  0  0  0  0
   -1.5944    1.8048   23.3058 H   0  0  0  0  0  0
   -2.0021    3.6870   21.8373 H   0  0  0  0  0  0
   -3.4293   -1.2392   19.0760 H   0  0  0  0  0  0
   -2.7304   -3.1138   20.2998 H   0  0  0  0  0  0
   -2.2529    2.1165   17.3284 H   0  0  0  0  0  0
   -3.2630    1.7441   15.1683 H   0  0  0  0  0  0
   -6.8350    0.3743   17.0621 H   0  0  0  0  0  0
  1  6  1  0  0  0
  1  2  2  0  0  0
  1 27  1  0  0  0
  2  3  1  0  0  0
  2 28  1  0  0  0
  3  4  2  0  0  0
  3 29  1  0  0  0
  4  5  1  0  0  0
  4 26  1  0  0  0
  5  6  2  0  0  0
  5  7  1  0  0  0
  6 30  1  0  0  0
  7 16  1  0  0  0
  7  8  1  0  0  0
  8 13  2  0  0  0
  8  9  1  0  0  0
  9 10  2  0  0  0
  9 31  1  0  0  0
 10 11  1  0  0  0
 10 32  1  0  0  0
 11 12  2  0  0  0
 12 13  1  0  0  0
 12 18  1  0  0  0
 13 14  1  0  0  0
 14 15  2  0  0  0
 14 33  1  0  0  0
 15 16  1  0  0  0
 15 34  1  0  0  0
 16 17  2  0  0  0
 18 23  1  0  0  0
 18 19  2  0  0  0
 19 20  1  0  0  0
 19 35  1  0  0  0
 20 21  2  0  0  0
 20 36  1  0  0  0
 21 22  1  0  0  0
 21 25  1  0  0  0
 22 23  2  0  0  0
 22 37  1  0  0  0
 23 24  1  0  0  0
M  END
> <s_m_entry_id>
62434

> <s_m_entry_name>
ligand_docking-pose.94

> <s_m_Source_Path>
/home/csk/Desktop/cluster/DUD-E-result/mk14

> <s_m_Source_File>
ligand_docking-pose.sdf

> <i_m_Source_File_Index>
94

> <i_lp_mmshare_version>
53161

> <r_lp_tautomer_probability>
1

> <s_lp_Force_Field>
OPLS_2005

> <r_lp_Energy>
45.78344

> <b_lp_Chiralities_Consistent>
1

> <s_lp_Variant>
364107-1

> <s_i_glide_gridfile>
glide-grid_2qd9

> <i_i_glide_lignum>
568

> <i_i_glide_rotatable_bonds>
2

> <r_i_docking_score>
-9.25043302014462

> <r_i_glide_ligand_efficiency>
-0.355785885390178

> <r_i_glide_ligand_efficiency_sa>
-1.05401428551854

> <r_i_glide_ligand_efficiency_ln>
-2.17243384163451

> <r_i_glide_gscore>
-9.25043302014462

> <r_i_glide_lipo>
-4.00017522683942

> <r_i_glide_hbond>
-0.32

> <r_i_glide_metal>
0

> <r_i_glide_rewards>
-2.48154099446676

> <r_i_glide_evdw>
-36.8433837890625

> <r_i_glide_ecoul>
-5.93339395523071

> <r_i_glide_erotb>
0.283461483899287

> <r_i_glide_esite>
0

> <r_i_glide_emodel>
-63.247076363962

> <r_i_glide_energy>
-42.7767777442932

> <r_i_glide_einternal>
0.801009237766266

> <i_i_glide_confnum>
5

> <i_i_glide_posenum>
92

> <r_i_glide_eff_state_penalty>
0

> <i_f3d_flags>
0

> <s_user_duplicate_titles>
364107

> <s_m_subgroup_title>
dock_pv

> <s_m_subgroupid>
dock_pv1

> <b_m_subgroup_collapsed>
0

$$$$
189201
                    3D
 Schrodinger Suite 2021-1.
 37 40  0  0  1  0            999 V2000
   -6.0350    0.5953   17.4062 C   0  0  0  0  0  0
   -5.4888    0.5288   16.1239 C   0  0  0  0  0  0
   -4.1893    0.9846   15.9021 C   0  0  0  0  0  0
   -3.4617    1.5733   16.9377 C   0  0  0  0  0  0
   -4.0201    1.6574   18.2156 C   0  0  0  0  0  0
   -5.2766    1.1086   18.4584 C   0  0  0  0  0  0
   -3.2350    2.6219   19.4760 S   0  0  0  0  0  0
   -2.8350    1.4453   20.7233 C   0  0  0  0  0  0
   -2.4350    1.9583   22.0166 C   0  0  0  0  0  0
   -2.0486    1.1107   22.9879 C   0  0  0  0  0  0
   -2.0309   -0.3165   22.6867 C   0  0  0  0  0  0
   -1.6111   -1.2835   23.5372 C   0  0  0  0  0  0
   -1.6067   -2.6825   23.0817 C   0  0  0  0  0  0
   -1.2352   -3.5130   23.8760 O   0  0  0  0  0  0
   -2.0438   -2.9565   21.7783 N   0  0  0  0  0  0
   -2.4346   -2.0087   21.0164 C   0  0  0  0  0  0
   -2.4624   -0.6729   21.3964 N   0  0  0  0  0  0
   -2.8552    0.1863   20.4498 N   0  0  0  0  0  0
   -1.1465   -0.9676   24.9215 C   0  0  0  0  0  0
    0.1626   -0.5053   25.1563 C   0  0  0  0  0  0
    0.5701   -0.1822   26.4514 C   0  0  0  0  0  0
   -0.2945   -0.3412   27.5288 C   0  0  0  0  0  0
   -1.5850   -0.8122   27.3125 C   0  0  0  0  0  0
   -2.0145   -1.1169   26.0209 C   0  0  0  0  0  0
   -3.6350   -1.6824   25.8214 Cl  0  0  0  0  0  0
    1.3025   -0.3130   23.8658 Cl  0  0  0  0  0  0
   -3.6350    0.8554   14.6814 F   0  0  0  0  0  0
   -7.0213    0.2009   17.5998 H   0  0  0  0  0  0
   -6.0557    0.0921   15.3146 H   0  0  0  0  0  0
   -2.4812    1.9797   16.7362 H   0  0  0  0  0  0
   -5.7118    1.1616   19.4462 H   0  0  0  0  0  0
   -2.4345    3.0182   22.2187 H   0  0  0  0  0  0
   -1.7429    1.4820   23.9552 H   0  0  0  0  0  0
   -2.7752   -2.2159   20.0032 H   0  0  0  0  0  0
    1.5650    0.1901   26.6319 H   0  0  0  0  0  0
    0.0398   -0.1033   28.5287 H   0  0  0  0  0  0
   -2.2539   -0.9407   28.1511 H   0  0  0  0  0  0
  1  6  1  0  0  0
  1  2  2  0  0  0
  1 28  1  0  0  0
  2  3  1  0  0  0
  2 29  1  0  0  0
  3  4  2  0  0  0
  3 27  1  0  0  0
  4  5  1  0  0  0
  4 30  1  0  0  0
  5  6  2  0  0  0
  5  7  1  0  0  0
  6 31  1  0  0  0
  7  8  1  0  0  0
  8 18  2  0  0  0
  8  9  1  0  0  0
  9 10  2  0  0  0
  9 32  1  0  0  0
 10 11  1  0  0  0
 10 33  1  0  0  0
 11 17  1  0  0  0
 11 12  2  0  0  0
 12 13  1  0  0  0
 12 19  1  0  0  0
 13 14  2  0  0  0
 13 15  1  0  0  0
 15 16  2  0  0  0
 16 17  1  0  0  0
 16 34  1  0  0  0
 17 18  1  0  0  0
 19 24  1  0  0  0
 19 20  2  0  0  0
 20 21  1  0  0  0
 20 26  1  0  0  0
 21 22  2  0  0  0
 21 35  1  0  0  0
 22 23  1  0  0  0
 22 36  1  0  0  0
 23 24  2  0  0  0
 23 37  1  0  0  0
 24 25  1  0  0  0
M  END
> <s_m_entry_id>
62439

> <s_m_entry_name>
ligand_docking-pose.99

> <s_m_Source_Path>
/home/csk/Desktop/cluster/DUD-E-result/mk14

> <s_m_Source_File>
ligand_docking-pose.sdf

> <i_m_Source_File_Index>
99

> <i_lp_mmshare_version>
53161

> <r_lp_tautomer_probability>
1

> <s_lp_Force_Field>
OPLS_2005

> <r_lp_Energy>
37.42019

> <b_lp_Chiralities_Consistent>
1

> <s_lp_Variant>
189201-1

> <s_i_glide_gridfile>
glide-grid_2qd9

> <i_i_glide_lignum>
635

> <i_i_glide_rotatable_bonds>
3

> <r_i_docking_score>
-9.17786324389125

> <r_i_glide_ligand_efficiency>
-0.339920860884861

> <r_i_glide_ligand_efficiency_sa>
-1.01976258153426

> <r_i_glide_ligand_efficiency_ln>
-2.13645525427687

> <r_i_glide_gscore>
-9.17786324389125

> <r_i_glide_lipo>
-3.73758288326839

> <r_i_glide_hbond>
-0.480414646072524

> <r_i_glide_metal>
0

> <r_i_glide_rewards>
-2.31744624306898

> <r_i_glide_evdw>
-31.6239814758301

> <r_i_glide_ecoul>
-9.33517265319824

> <r_i_glide_erotb>
0.339055500289884

> <r_i_glide_esite>
0

> <r_i_glide_emodel>
-61.47370500636

> <r_i_glide_energy>
-40.9591541290283

> <r_i_glide_einternal>
0.663170993328094

> <i_i_glide_confnum>
14

> <i_i_glide_posenum>
23

> <r_i_glide_eff_state_penalty>
0

> <i_f3d_flags>
0

> <s_user_duplicate_titles>
189201

> <s_m_subgroup_title>
dock_pv

> <s_m_subgroupid>
dock_pv1

> <b_m_subgroup_collapsed>
0

$$$$
627010
                    3D
 Schrodinger Suite 2021-1.
 44 47  0  0  1  0            999 V2000
   -0.6098   -1.1640   30.5444 C   0  0  0  0  0  0
   -0.9692   -1.1128   29.1710 O   0  0  0  0  0  0
   -0.1995   -0.4426   28.2800 C   0  0  0  0  0  0
    0.8152    0.1854   28.5859 O   0  0  0  0  0  0
   -0.6670   -0.6027   26.8673 C   0  0  0  0  0  0
    0.2079   -0.3122   25.8125 C   0  0  0  0  0  0
   -0.2000   -0.4243   24.4848 C   0  0  0  0  0  0
   -1.5156   -0.7960   24.1810 C   0  0  0  0  0  0
   -2.3892   -1.1036   25.2326 C   0  0  0  0  0  0
   -1.9701   -1.0153   26.5579 C   0  0  0  0  0  0
   -3.6564   -1.4924   24.9747 F   0  0  0  0  0  0
   -1.9895   -0.8520   22.7730 C   0  0  0  0  0  0
   -2.2805    0.2798   22.0493 C   0  0  0  0  0  0
   -2.0354    1.6213   22.5902 C   0  0  0  0  0  0
   -2.2512    2.7149   21.8416 C   0  0  0  0  0  0
   -2.8350    2.5819   20.5132 C   0  0  0  0  0  0
   -3.1369    1.3670   19.9966 C   0  0  0  0  0  0
   -2.7692    0.2021   20.7216 N   0  0  0  0  0  0
   -2.7674   -1.0479   20.1223 C   0  0  0  0  0  0
   -2.4571   -2.1916   20.7646 C   0  0  0  0  0  0
   -2.1189   -2.2164   22.1863 C   0  0  0  0  0  0
   -1.9436   -3.2709   22.7969 O   0  0  0  0  0  0
   -3.9034    1.2871   18.7122 C   0  0  0  0  0  0
   -3.3737    1.6870   17.4727 C   0  0  0  0  0  0
   -4.0609    1.4652   16.2787 C   0  0  0  0  0  0
   -5.3250    0.8913   16.3108 C   0  0  0  0  0  0
   -5.9238    0.6351   17.5370 C   0  0  0  0  0  0
   -5.2221    0.8215   18.7216 C   0  0  0  0  0  0
   -5.8245    0.4870   19.8760 F   0  0  0  0  0  0
   -5.9517    0.5496   15.1652 F   0  0  0  0  0  0
    0.6804   -0.1405   23.4956 F   0  0  0  0  0  0
   -1.3453   -1.7483   31.0972 H   0  0  0  0  0  0
   -0.5706   -0.1643   30.9791 H   0  0  0  0  0  0
    0.3652   -1.6366   30.6752 H   0  0  0  0  0  0
    1.2162    0.0088   26.0145 H   0  0  0  0  0  0
   -2.6788   -1.2565   27.3377 H   0  0  0  0  0  0
   -1.6163    1.7501   23.5773 H   0  0  0  0  0  0
   -2.0023    3.6821   22.2485 H   0  0  0  0  0  0
   -3.1111    3.4730   19.9766 H   0  0  0  0  0  0
   -2.9794   -1.0617   19.0760 H   0  0  0  0  0  0
   -2.4317   -3.1121   20.2042 H   0  0  0  0  0  0
   -2.4350    2.1889   17.3933 H   0  0  0  0  0  0
   -3.6073    1.7203   15.3323 H   0  0  0  0  0  0
   -6.8781    0.1543   17.5811 H   0  0  0  0  0  0
  1  2  1  0  0  0
  1 32  1  0  0  0
  1 33  1  0  0  0
  1 34  1  0  0  0
  2  3  1  0  0  0
  3  4  2  0  0  0
  3  5  1  0  0  0
  5 10  1  0  0  0
  5  6  2  0  0  0
  6  7  1  0  0  0
  6 35  1  0  0  0
  7  8  2  0  0  0
  7 31  1  0  0  0
  8  9  1  0  0  0
  8 12  1  0  0  0
  9 10  2  0  0  0
  9 11  1  0  0  0
 10 36  1  0  0  0
 12 21  1  0  0  0
 12 13  2  0  0  0
 13 18  1  0  0  0
 13 14  1  0  0  0
 14 15  2  0  0  0
 14 37  1  0  0  0
 15 16  1  0  0  0
 15 38  1  0  0  0
 16 17  2  0  0  0
 16 39  1  0  0  0
 17 18  1  0  0  0
 17 23  1  0  0  0
 18 19  1  0  0  0
 19 20  2  0  0  0
 19 40  1  0  0  0
 20 21  1  0  0  0
 20 41  1  0  0  0
 21 22  2  0  0  0
 23 28  1  0  0  0
 23 24  2  0  0  0
 24 25  1  0  0  0
 24 42  1  0  0  0
 25 26  2  0  0  0
 25 43  1  0  0  0
 26 27  1  0  0  0
 26 30  1  0  0  0
 27 28  2  0  0  0
 27 44  1  0  0  0
 28 29  1  0  0  0
M  END
> <s_m_entry_id>
62441

> <s_m_entry_name>
ligand_docking-pose.101

> <s_m_Source_Path>
/home/csk/Desktop/cluster/DUD-E-result/mk14

> <s_m_Source_File>
ligand_docking-pose.sdf

> <i_m_Source_File_Index>
101

> <i_lp_mmshare_version>
53161

> <r_lp_tautomer_probability>
1

> <s_lp_Force_Field>
OPLS_2005

> <r_lp_Energy>
28.381602

> <b_lp_Chiralities_Consistent>
1

> <s_lp_Variant>
627010-1

> <s_i_glide_gridfile>
glide-grid_2qd9

> <i_i_glide_lignum>
2597

> <i_i_glide_rotatable_bonds>
4

> <r_i_docking_score>
-9.13287331502117

> <r_i_glide_ligand_efficiency>
-0.294608816613586

> <r_i_glide_ligand_efficiency_sa>
-0.925478435474483

> <r_i_glide_ligand_efficiency_ln>
-2.05974282149099

> <r_i_glide_gscore>
-9.13287331502117

> <r_i_glide_lipo>
-3.80384838281595

> <r_i_glide_hbond>
-0.32

> <r_i_glide_metal>
0

> <r_i_glide_rewards>
-2.7568084745303

> <r_i_glide_evdw>
-38.5069847106934

> <r_i_glide_ecoul>
-4.35340452194214

> <r_i_glide_erotb>
0.326143456151067

> <r_i_glide_esite>
0

> <r_i_glide_emodel>
-45.3935875095806

> <r_i_glide_energy>
-42.8603892326355

> <r_i_glide_einternal>
3.49769568443298

> <i_i_glide_confnum>
7

> <i_i_glide_posenum>
70

> <r_i_glide_eff_state_penalty>
0

> <i_f3d_flags>
0

> <s_user_duplicate_titles>
627010

> <s_m_subgroup_title>
dock_pv

> <s_m_subgroupid>
dock_pv1

> <b_m_subgroup_collapsed>
0

$$$$
158591
                    3D
 Schrodinger Suite 2021-1.
 55 59  0  0  1  0            999 V2000
   -1.0186   -0.5561   27.4309 C   0  0  0  0  0  0
   -2.2850   -1.1205   27.2755 C   0  0  0  0  0  0
   -2.5758   -1.8584   26.1302 C   0  0  0  0  0  0
   -1.5938   -2.0389   25.1560 C   0  0  0  0  0  0
   -0.3288   -1.4679   25.3135 C   0  0  0  0  0  0
   -0.0419   -0.7164   26.4507 C   0  0  0  0  0  0
   -1.8566   -2.8377   24.0670 O   0  0  0  0  0  0
   -2.0953   -2.2959   22.8208 C   0  0  0  0  0  0
   -1.9929   -3.1732   21.7975 N   0  0  0  0  0  0
   -2.1572   -2.6616   20.5526 C   0  0  0  0  0  0
   -2.4343   -1.3122   20.3226 C   0  0  0  0  0  0
   -2.5120   -0.4735   21.4410 C   0  0  0  0  0  0
   -2.3551   -0.9673   22.6974 N   0  0  0  0  0  0
   -2.5676    1.0193   21.2697 C   0  0  0  0  0  0
   -3.0436    1.7782   20.1817 C   0  0  0  0  0  0
   -2.6688    3.0415   20.2759 N   0  0  0  0  0  0
   -2.0351    3.1223   21.4122 C   0  0  0  0  0  0
   -2.0357    1.9643   22.1470 N   0  0  0  0  0  0
   -1.4648    1.7907   23.5028 C   0  0  2  0  0  0
   -2.5558    1.5325   24.5698 C   0  0  0  0  0  0
   -3.2535    2.8124   25.0480 C   0  0  0  0  0  0
   -2.2598    3.8720   25.5584 C   0  0  1  0  0  0
   -1.1237    4.1582   24.5482 C   0  0  0  0  0  0
   -0.4621    2.8774   23.9777 C   0  0  0  0  0  0
   -2.9601    5.0598   25.8749 O   0  0  0  0  0  0
   -3.8845    1.3768   19.0109 C   0  0  0  0  0  0
   -3.4285    1.5603   17.6962 C   0  0  0  0  0  0
   -4.2665    1.2953   16.6209 C   0  0  0  0  0  0
   -5.5714    0.8863   16.8547 C   0  0  0  0  0  0
   -6.0316    0.6682   18.1535 C   0  0  0  0  0  0
   -5.1763    0.8867   19.2326 C   0  0  0  0  0  0
   -6.3689    0.6136   15.8023 F   0  0  0  0  0  0
   -0.7887    0.0103   28.3214 H   0  0  0  0  0  0
   -3.0338   -0.9956   28.0432 H   0  0  0  0  0  0
   -3.5506   -2.3066   26.0048 H   0  0  0  0  0  0
    0.4341   -1.6222   24.5648 H   0  0  0  0  0  0
    0.9377   -0.2795   26.5837 H   0  0  0  0  0  0
   -2.0358   -3.3528   19.7302 H   0  0  0  0  0  0
   -2.5132   -0.9332   19.3154 H   0  0  0  0  0  0
   -1.4814    3.9736   21.7634 H   0  0  0  0  0  0
   -0.8572    0.8936   23.3873 H   0  0  0  0  0  0
   -3.2977    0.8136   24.2234 H   0  0  0  0  0  0
   -2.0967    1.0213   25.4135 H   0  0  0  0  0  0
   -3.9656    2.5558   25.8351 H   0  0  0  0  0  0
   -3.8412    3.2254   24.2276 H   0  0  0  0  0  0
   -1.7998    3.5346   26.4891 H   0  0  0  0  0  0
   -0.3573    4.7639   25.0344 H   0  0  0  0  0  0
   -1.5073    4.7802   23.7444 H   0  0  0  0  0  0
    0.1716    2.4313   24.7467 H   0  0  0  0  0  0
    0.2619    3.1051   23.1928 H   0  0  0  0  0  0
   -3.7369    4.8229   26.3933 H   0  0  0  0  0  0
   -2.4365    1.9275   17.4767 H   0  0  0  0  0  0
   -3.9149    1.4326   15.6087 H   0  0  0  0  0  0
   -7.0390    0.3122   18.3141 H   0  0  0  0  0  0
   -5.5356    0.7307   20.2393 H   0  0  0  0  0  0
  1  6  1  0  0  0
  1  2  2  0  0  0
  1 33  1  0  0  0
  2  3  1  0  0  0
  2 34  1  0  0  0
  3  4  2  0  0  0
  3 35  1  0  0  0
  4  5  1  0  0  0
  4  7  1  0  0  0
  5  6  2  0  0  0
  5 36  1  0  0  0
  6 37  1  0  0  0
  7  8  1  0  0  0
  8 13  1  0  0  0
  8  9  2  0  0  0
  9 10  1  0  0  0
 10 11  2  0  0  0
 10 38  1  0  0  0
 11 12  1  0  0  0
 11 39  1  0  0  0
 12 13  2  0  0  0
 12 14  1  0  0  0
 14 18  1  0  0  0
 14 15  2  0  0  0
 15 16  1  0  0  0
 15 26  1  0  0  0
 16 17  2  0  0  0
 17 18  1  0  0  0
 17 40  1  0  0  0
 18 19  1  0  0  0
 19 24  1  0  0  0
 19 20  1  0  0  0
 19 41  1  0  0  0
 20 21  1  0  0  0
 20 42  1  0  0  0
 20 43  1  0  0  0
 21 22  1  0  0  0
 21 44  1  0  0  0
 21 45  1  0  0  0
 22 23  1  0  0  0
 22 25  1  0  0  0
 22 46  1  0  0  0
 23 24  1  0  0  0
 23 47  1  0  0  0
 23 48  1  0  0  0
 24 49  1  0  0  0
 24 50  1  0  0  0
 25 51  1  0  0  0
 26 31  1  0  0  0
 26 27  2  0  0  0
 27 28  1  0  0  0
 27 52  1  0  0  0
 28 29  2  0  0  0
 28 53  1  0  0  0
 29 30  1  0  0  0
 29 32  1  0  0  0
 30 31  2  0  0  0
 30 54  1  0  0  0
 31 55  1  0  0  0
M  END
> <s_m_entry_id>
62445

> <s_m_entry_name>
ligand_docking-pose.105

> <s_m_Source_Path>
/home/csk/Desktop/cluster/DUD-E-result/mk14

> <s_m_Source_File>
ligand_docking-pose.sdf

> <i_m_Source_File_Index>
105

> <i_lp_mmshare_version>
53161

> <r_lp_tautomer_probability>
1

> <s_lp_Force_Field>
OPLS_2005

> <r_lp_Energy>
33.77157

> <b_lp_Chiralities_Consistent>
1

> <s_lp_Variant>
158591-1

> <s_i_glide_gridfile>
glide-grid_2qd9

> <i_i_glide_lignum>
616

> <i_i_glide_rotatable_bonds>
6

> <r_i_docking_score>
-9.0898529785428

> <r_i_glide_ligand_efficiency>
-0.284057905579463

> <r_i_glide_ligand_efficiency_sa>
-0.901827635231613

> <r_i_glide_ligand_efficiency_ln>
-2.03546586192973

> <r_i_glide_gscore>
-9.0898529785428

> <r_i_glide_lipo>
-3.72445368280679

> <r_i_glide_hbond>
-0.527446196006517

> <r_i_glide_metal>
0

> <r_i_glide_rewards>
-2.25700994738425

> <r_i_glide_evdw>
-41.8487663269043

> <r_i_glide_ecoul>
-6.59390544891357

> <r_i_glide_erotb>
0.536444547349832

> <r_i_glide_esite>
-0.0358635660128218

> <r_i_glide_emodel>
-66.0327621494497

> <r_i_glide_energy>
-48.4426717758179

> <r_i_glide_einternal>
8.23714637756348

> <i_i_glide_confnum>
104

> <i_i_glide_posenum>
267

> <r_i_glide_eff_state_penalty>
0

> <i_f3d_flags>
0

> <s_user_duplicate_titles>
158591

> <s_m_subgroup_title>
dock_pv

> <s_m_subgroupid>
dock_pv1

> <b_m_subgroup_collapsed>
0

$$$$
627151
                    3D
 Schrodinger Suite 2021-1.
 46 50  0  0  1  0            999 V2000
   -4.5187   -3.5134   29.3348 C   0  0  0  0  0  0
   -3.6348   -2.3534   28.9524 C   0  0  0  0  0  0
   -3.1266   -1.4300   29.7279 N   0  0  0  0  0  0
   -2.2889   -0.6727   28.9146 N   0  0  0  0  0  0
   -2.3839   -1.1867   27.7107 C   0  0  0  0  0  0
   -3.2364   -2.2413   27.6614 O   0  0  0  0  0  0
   -1.5921   -0.8518   26.4977 C   0  0  0  0  0  0
   -0.2554   -0.4707   26.6355 C   0  0  0  0  0  0
    0.5249   -0.2381   25.5074 C   0  0  0  0  0  0
   -0.0259   -0.3630   24.2349 C   0  0  0  0  0  0
   -1.3807   -0.6893   24.0750 C   0  0  0  0  0  0
   -2.1502   -0.9537   25.2173 C   0  0  0  0  0  0
   -1.9697   -0.8328   22.7165 C   0  0  0  0  0  0
   -2.3136    0.2434   21.9317 C   0  0  0  0  0  0
   -2.1367    1.6232   22.4010 C   0  0  0  0  0  0
   -2.4341    2.6661   21.6050 C   0  0  0  0  0  0
   -2.9729    2.4370   20.2762 C   0  0  0  0  0  0
   -3.1848    1.1832   19.8159 C   0  0  0  0  0  0
   -2.8191    0.0706   20.6164 N   0  0  0  0  0  0
   -2.8262   -1.2163   20.1043 C   0  0  0  0  0  0
   -2.4630   -2.3065   20.8082 C   0  0  0  0  0  0
   -2.0793   -2.2329   22.2163 C   0  0  0  0  0  0
   -1.8598   -3.2433   22.8846 O   0  0  0  0  0  0
   -3.8261    1.0593   18.4773 C   0  0  0  0  0  0
   -3.0943    1.1775   17.2842 C   0  0  0  0  0  0
   -3.6899    1.0916   16.0318 C   0  0  0  0  0  0
   -5.0539    0.8872   15.9486 C   0  0  0  0  0  0
   -5.8024    0.8316   17.1155 C   0  0  0  0  0  0
   -5.2069    0.8873   18.3717 C   0  0  0  0  0  0
   -5.9773    0.7665   19.4761 F   0  0  0  0  0  0
   -5.6349    0.6817   14.7497 F   0  0  0  0  0  0
    0.7697   -0.1847   23.1571 F   0  0  0  0  0  0
   -4.8422   -3.4550   30.3742 H   0  0  0  0  0  0
   -3.9922   -4.4595   29.2140 H   0  0  0  0  0  0
   -5.4132   -3.5603   28.7158 H   0  0  0  0  0  0
    0.1940   -0.3912   27.6158 H   0  0  0  0  0  0
    1.5648    0.0205   25.6174 H   0  0  0  0  0  0
   -3.1834   -1.2518   25.1077 H   0  0  0  0  0  0
   -1.7382    1.8206   23.3856 H   0  0  0  0  0  0
   -2.2736    3.6743   21.9598 H   0  0  0  0  0  0
   -3.2478    3.2875   19.6724 H   0  0  0  0  0  0
   -3.1045   -1.3129   19.0760 H   0  0  0  0  0  0
   -2.4350   -3.2594   20.3081 H   0  0  0  0  0  0
   -2.0350    1.2934   17.2769 H   0  0  0  0  0  0
   -3.0923    1.1416   15.1331 H   0  0  0  0  0  0
   -6.8365    0.6272   17.0462 H   0  0  0  0  0  0
  1  2  1  0  0  0
  1 33  1  0  0  0
  1 34  1  0  0  0
  1 35  1  0  0  0
  2  6  1  0  0  0
  2  3  2  0  0  0
  3  4  1  0  0  0
  4  5  2  0  0  0
  5  6  1  0  0  0
  5  7  1  0  0  0
  7 12  1  0  0  0
  7  8  2  0  0  0
  8  9  1  0  0  0
  8 36  1  0  0  0
  9 10  2  0  0  0
  9 37  1  0  0  0
 10 11  1  0  0  0
 10 32  1  0  0  0
 11 12  2  0  0  0
 11 13  1  0  0  0
 12 38  1  0  0  0
 13 22  1  0  0  0
 13 14  2  0  0  0
 14 19  1  0  0  0
 14 15  1  0  0  0
 15 16  2  0  0  0
 15 39  1  0  0  0
 16 17  1  0  0  0
 16 40  1  0  0  0
 17 18  2  0  0  0
 17 41  1  0  0  0
 18 19  1  0  0  0
 18 24  1  0  0  0
 19 20  1  0  0  0
 20 21  2  0  0  0
 20 42  1  0  0  0
 21 22  1  0  0  0
 21 43  1  0  0  0
 22 23  2  0  0  0
 24 29  1  0  0  0
 24 25  2  0  0  0
 25 26  1  0  0  0
 25 44  1  0  0  0
 26 27  2  0  0  0
 26 45  1  0  0  0
 27 28  1  0  0  0
 27 31  1  0  0  0
 28 29  2  0  0  0
 28 46  1  0  0  0
 29 30  1  0  0  0
M  END
> <s_m_entry_id>
62446

> <s_m_entry_name>
ligand_docking-pose.106

> <s_m_Source_Path>
/home/csk/Desktop/cluster/DUD-E-result/mk14

> <s_m_Source_File>
ligand_docking-pose.sdf

> <i_m_Source_File_Index>
106

> <i_lp_mmshare_version>
53161

> <r_lp_tautomer_probability>
1

> <s_lp_Force_Field>
OPLS_2005

> <r_lp_Energy>
28.327956

> <b_lp_Chiralities_Consistent>
1

> <s_lp_Variant>
627151-1

> <s_i_glide_gridfile>
glide-grid_2qd9

> <i_i_glide_lignum>
1383

> <i_i_glide_rotatable_bonds>
3

> <r_i_docking_score>
-9.07024100691573

> <r_i_glide_ligand_efficiency>
-0.283445031466117

> <r_i_glide_ligand_efficiency_sa>
-0.899881881209362

> <r_i_glide_ligand_efficiency_ln>
-2.03107420688028

> <r_i_glide_gscore>
-9.07024100691573

> <r_i_glide_lipo>
-3.84259306516645

> <r_i_glide_hbond>
-0.359891760693254

> <r_i_glide_metal>
0

> <r_i_glide_rewards>
-2.31685884283396

> <r_i_glide_evdw>
-41.8760375976562

> <r_i_glide_ecoul>
-5.16706323623657

> <r_i_glide_erotb>
0.317964027096235

> <r_i_glide_esite>
0

> <r_i_glide_emodel>
-65.163811256949

> <r_i_glide_energy>
-47.0431008338928

> <r_i_glide_einternal>
3.10742044448853

> <i_i_glide_confnum>
6

> <i_i_glide_posenum>
49

> <r_i_glide_eff_state_penalty>
0

> <i_f3d_flags>
0

> <s_user_duplicate_titles>
627151

> <s_m_subgroup_title>
dock_pv

> <s_m_subgroupid>
dock_pv1

> <b_m_subgroup_collapsed>
0

$$$$
237925
                    3D
 Schrodinger Suite 2021-1.
 54 58  0  0  1  0            999 V2000
   -3.6919    1.2870   16.2839 C   0  0  0  0  0  0
   -5.0583    1.1272   16.1699 C   0  0  0  0  0  0
   -5.7892    0.8870   17.3198 C   0  0  0  0  0  0
   -5.1874    0.8508   18.5780 C   0  0  0  0  0  0
   -3.8037    1.0318   18.7505 C   0  0  0  0  0  0
   -3.0949    1.2154   17.5398 C   0  0  0  0  0  0
   -3.1410    1.0151   20.1344 C   0  0  0  0  0  0
   -2.8610   -0.1451   20.9025 C   0  0  0  0  0  0
   -2.9925   -1.5041   20.4066 C   0  0  0  0  0  0
   -2.5002   -2.5471   21.0969 C   0  0  0  0  0  0
   -1.9419   -2.4835   22.4272 C   0  0  0  0  0  0
   -1.6350   -3.5126   23.0321 O   0  0  0  0  0  0
   -1.8742   -1.2122   22.9263 N   0  0  0  0  0  0
   -2.2794   -0.0460   22.1908 C   0  0  0  0  0  0
   -2.0052    1.2133   22.6837 C   0  0  0  0  0  0
   -2.2013    2.3143   21.8763 C   0  0  0  0  0  0
   -2.7885    2.2369   20.6412 N   0  0  0  0  0  0
   -1.6347    3.5334   22.2499 N   0  0  0  0  0  0
   -0.6517    3.6871   23.3288 C   0  0  0  0  0  0
    0.1868    4.9482   23.0584 C   0  0  0  0  0  0
    1.1667    5.2272   24.2147 C   0  0  0  0  0  0
    0.4653    5.3245   25.4970 N   0  0  1  0  0  0
   -0.3395    4.1422   25.8126 C   0  0  0  0  0  0
   -1.3564    3.8369   24.6948 C   0  0  0  0  0  0
   -1.4407   -1.0823   24.2796 C   0  0  0  0  0  0
   -2.3657   -1.2186   25.3304 C   0  0  0  0  0  0
   -1.9493   -1.1121   26.6577 C   0  0  0  0  0  0
   -0.6147   -0.8516   26.9552 C   0  0  0  0  0  0
    0.3065   -0.6919   25.9240 C   0  0  0  0  0  0
   -0.0949   -0.8034   24.5929 C   0  0  0  0  0  0
    1.0977   -0.5487   23.3720 Cl  0  0  0  0  0  0
   -4.0350   -1.5130   25.0177 Cl  0  0  0  0  0  0
   -6.2303    0.4870   19.8760 Cl  0  0  0  0  0  0
   -3.0889    1.4378   15.3996 H   0  0  0  0  0  0
   -5.5402    1.1531   15.2031 H   0  0  0  0  0  0
   -6.8353    0.7001   17.2301 H   0  0  0  0  0  0
   -2.0350    1.2790   17.4760 H   0  0  0  0  0  0
   -3.4777   -1.6814   19.4760 H   0  0  0  0  0  0
   -2.5809   -3.5130   20.6756 H   0  0  0  0  0  0
   -1.5214    1.3151   23.6377 H   0  0  0  0  0  0
   -1.3729    4.0372   21.4149 H   0  0  0  0  0  0
    0.0252    2.8293   23.3302 H   0  0  0  0  0  0
    0.7649    4.8141   22.1419 H   0  0  0  0  0  0
   -0.4318    5.8295   22.8834 H   0  0  0  0  0  0
    1.9172    4.4365   24.2766 H   0  0  0  0  0  0
    1.7008    6.1613   24.0359 H   0  0  0  0  0  0
    1.1365    5.4840   26.2375 H   0  0  0  0  0  0
    0.3287    3.2909   25.9586 H   0  0  0  0  0  0
   -0.8573    4.3097   26.7580 H   0  0  0  0  0  0
   -2.1158    4.6189   24.6718 H   0  0  0  0  0  0
   -1.8980    2.9323   24.9660 H   0  0  0  0  0  0
   -2.6619   -1.2296   27.4612 H   0  0  0  0  0  0
   -0.2923   -0.7723   27.9838 H   0  0  0  0  0  0
    1.3398   -0.4824   26.1610 H   0  0  0  0  0  0
  1  6  1  0  0  0
  1  2  2  0  0  0
  1 34  1  0  0  0
  2  3  1  0  0  0
  2 35  1  0  0  0
  3  4  2  0  0  0
  3 36  1  0  0  0
  4  5  1  0  0  0
  4 33  1  0  0  0
  5  6  2  0  0  0
  5  7  1  0  0  0
  6 37  1  0  0  0
  7 17  1  0  0  0
  7  8  2  0  0  0
  8 14  1  0  0  0
  8  9  1  0  0  0
  9 10  2  0  0  0
  9 38  1  0  0  0
 10 11  1  0  0  0
 10 39  1  0  0  0
 11 12  2  0  0  0
 11 13  1  0  0  0
 13 14  1  0  0  0
 13 25  1  0  0  0
 14 15  2  0  0  0
 15 16  1  0  0  0
 15 40  1  0  0  0
 16 17  2  0  0  0
 16 18  1  0  0  0
 18 19  1  0  0  0
 18 41  1  0  0  0
 19 24  1  0  0  0
 19 20  1  0  0  0
 19 42  1  0  0  0
 20 21  1  0  0  0
 20 43  1  0  0  0
 20 44  1  0  0  0
 21 22  1  0  0  0
 21 45  1  0  0  0
 21 46  1  0  0  0
 22 23  1  0  0  0
 22 47  1  0  0  0
 23 24  1  0  0  0
 23 48  1  0  0  0
 23 49  1  0  0  0
 24 50  1  0  0  0
 24 51  1  0  0  0
 25 30  1  0  0  0
 25 26  2  0  0  0
 26 27  1  0  0  0
 26 32  1  0  0  0
 27 28  2  0  0  0
 27 52  1  0  0  0
 28 29  1  0  0  0
 28 53  1  0  0  0
 29 30  2  0  0  0
 29 54  1  0  0  0
 30 31  1  0  0  0
M  END
> <s_m_entry_id>
62448

> <s_m_entry_name>
ligand_docking-pose.108

> <s_m_Source_Path>
/home/csk/Desktop/cluster/DUD-E-result/mk14

> <s_m_Source_File>
ligand_docking-pose.sdf

> <i_m_Source_File_Index>
108

> <i_lp_mmshare_version>
53161

> <r_lp_tautomer_probability>
1

> <s_lp_Force_Field>
OPLS_2005

> <r_lp_Energy>
54.952969

> <b_lp_Chiralities_Consistent>
1

> <s_lp_Variant>
237925-1

> <s_i_glide_gridfile>
glide-grid_2qd9

> <i_i_glide_lignum>
70

> <i_i_glide_rotatable_bonds>
4

> <r_i_docking_score>
-9.04314573656861

> <r_i_glide_ligand_efficiency>
-0.274034719289958

> <r_i_glide_ligand_efficiency_sa>
-0.878975768708861

> <r_i_glide_ligand_efficiency_ln>
-2.01114878891014

> <r_i_glide_gscore>
-9.04314573656861

> <r_i_glide_lipo>
-4.65251113091148

> <r_i_glide_hbond>
-0.562909845345547

> <r_i_glide_metal>
0

> <r_i_glide_rewards>
-0.896730156734986

> <r_i_glide_evdw>
-32.7473487854004

> <r_i_glide_ecoul>
-10.5633068084717

> <r_i_glide_erotb>
0.326884124229827

> <r_i_glide_esite>
-0.0360152672656522

> <r_i_glide_emodel>
-52.6295028547

> <r_i_glide_energy>
-43.3106555938721

> <r_i_glide_einternal>
8.44633674621582

> <i_i_glide_confnum>
26

> <i_i_glide_posenum>
115

> <r_i_glide_eff_state_penalty>
0

> <i_f3d_flags>
0

> <s_user_duplicate_titles>
237925

> <s_m_subgroup_title>
dock_pv

> <s_m_subgroupid>
dock_pv1

> <b_m_subgroup_collapsed>
0

$$$$
617343
                    3D
 Schrodinger Suite 2021-1.
 53 55  0  0  1  0            999 V2000
   -3.2487    0.9574   25.0265 C   0  0  0  0  0  0
   -2.8411    0.0783   23.8490 C   0  0  0  0  0  0
   -2.8250    0.5997   22.6083 C   0  0  0  0  0  0
   -2.4708   -0.2475   21.4770 C   0  0  0  0  0  0
   -2.0874   -1.5211   21.7381 C   0  0  0  0  0  0
   -2.0410   -2.0794   23.0955 C   0  0  0  0  0  0
   -1.6441   -3.2334   23.2866 O   0  0  0  0  0  0
   -2.4873   -1.2469   24.1099 N   0  0  0  0  0  0
   -2.5796   -1.8629   25.4602 C   0  0  0  0  0  0
   -1.6703   -1.2517   26.5195 C   0  0  0  0  0  0
   -2.1945   -1.0194   27.7933 C   0  0  0  0  0  0
   -1.4550   -0.3053   28.7294 C   0  0  0  0  0  0
   -0.1872    0.1758   28.3967 C   0  0  0  0  0  0
    0.3644   -0.1178   27.1462 C   0  0  0  0  0  0
   -0.3729   -0.8356   26.2095 C   0  0  0  0  0  0
    0.5582    1.0749   29.3795 C   0  0  0  0  0  0
    1.1650    2.2688   28.7853 N   0  0  0  0  0  0
    0.5204    3.2902   28.1868 C   0  0  0  0  0  0
   -0.7068    3.3237   28.0864 O   0  0  0  0  0  0
    1.3377    4.4565   27.5841 C   0  0  0  0  0  0
    2.6926    4.4869   28.0281 O   0  0  0  0  0  0
   -1.6629   -2.6066   20.4006 Cl  0  0  0  0  0  0
   -2.5791    0.1439   20.1737 O   0  0  0  0  0  0
   -3.1908    1.3968   19.8535 C   0  0  0  0  0  0
   -3.9612    1.2528   18.5463 C   0  0  0  0  0  0
   -3.3462    1.4348   17.2984 C   0  0  0  0  0  0
   -4.0598    1.2287   16.1215 C   0  0  0  0  0  0
   -5.3916    0.8352   16.1852 C   0  0  0  0  0  0
   -6.0298    0.7099   17.4150 C   0  0  0  0  0  0
   -5.3103    0.8873   18.5901 C   0  0  0  0  0  0
   -5.9271    0.6795   19.7733 F   0  0  0  0  0  0
   -6.0346    0.4870   15.0580 F   0  0  0  0  0  0
   -3.6350    1.9204   24.6940 H   0  0  0  0  0  0
   -4.0350    0.4805   25.6099 H   0  0  0  0  0  0
   -2.4005    1.1727   25.6764 H   0  0  0  0  0  0
   -3.0576    1.6448   22.4786 H   0  0  0  0  0  0
   -2.4010   -2.9382   25.4718 H   0  0  0  0  0  0
   -3.6155   -1.7551   25.7840 H   0  0  0  0  0  0
   -3.1929   -1.3469   28.0457 H   0  0  0  0  0  0
   -1.8902   -0.0895   29.6938 H   0  0  0  0  0  0
    1.3502    0.2434   26.8877 H   0  0  0  0  0  0
    0.0486   -1.0231   25.2331 H   0  0  0  0  0  0
    1.3628    0.4888   29.8254 H   0  0  0  0  0  0
   -0.0951    1.3852   30.1991 H   0  0  0  0  0  0
    2.1772    2.2405   28.7100 H   0  0  0  0  0  0
    0.8579    5.4049   27.8310 H   0  0  0  0  0  0
    1.3294    4.3599   26.4984 H   0  0  0  0  0  0
    3.1123    3.6237   27.8764 H   0  0  0  0  0  0
   -3.9278    1.7051   20.5913 H   0  0  0  0  0  0
   -2.4414    2.1907   19.8198 H   0  0  0  0  0  0
   -2.3128    1.7097   17.1987 H   0  0  0  0  0  0
   -3.5713    1.3206   15.1620 H   0  0  0  0  0  0
   -7.0496    0.3700   17.4761 H   0  0  0  0  0  0
  1  2  1  0  0  0
  1 33  1  0  0  0
  1 34  1  0  0  0
  1 35  1  0  0  0
  2  8  1  0  0  0
  2  3  2  0  0  0
  3  4  1  0  0  0
  3 36  1  0  0  0
  4  5  2  0  0  0
  4 23  1  0  0  0
  5  6  1  0  0  0
  5 22  1  0  0  0
  6  7  2  0  0  0
  6  8  1  0  0  0
  8  9  1  0  0  0
  9 10  1  0  0  0
  9 37  1  0  0  0
  9 38  1  0  0  0
 10 15  1  0  0  0
 10 11  2  0  0  0
 11 12  1  0  0  0
 11 39  1  0  0  0
 12 13  2  0  0  0
 12 40  1  0  0  0
 13 14  1  0  0  0
 13 16  1  0  0  0
 14 15  2  0  0  0
 14 41  1  0  0  0
 15 42  1  0  0  0
 16 17  1  0  0  0
 16 43  1  0  0  0
 16 44  1  0  0  0
 17 18  1  0  0  0
 17 45  1  0  0  0
 18 19  2  0  0  0
 18 20  1  0  0  0
 20 21  1  0  0  0
 20 46  1  0  0  0
 20 47  1  0  0  0
 21 48  1  0  0  0
 23 24  1  0  0  0
 24 25  1  0  0  0
 24 49  1  0  0  0
 24 50  1  0  0  0
 25 30  1  0  0  0
 25 26  2  0  0  0
 26 27  1  0  0  0
 26 51  1  0  0  0
 27 28  2  0  0  0
 27 52  1  0  0  0
 28 29  1  0  0  0
 28 32  1  0  0  0
 29 30  2  0  0  0
 29 53  1  0  0  0
 30 31  1  0  0  0
M  END
> <s_m_entry_id>
62461

> <s_m_entry_name>
ligand_docking-pose.121

> <s_m_Source_Path>
/home/csk/Desktop/cluster/DUD-E-result/mk14

> <s_m_Source_File>
ligand_docking-pose.sdf

> <i_m_Source_File_Index>
121

> <i_lp_mmshare_version>
53161

> <r_lp_tautomer_probability>
1

> <s_lp_Force_Field>
OPLS_2005

> <r_lp_Energy>
28.096714

> <b_lp_Chiralities_Consistent>
1

> <s_lp_Variant>
617343-1

> <s_i_glide_gridfile>
glide-grid_2qd9

> <i_i_glide_lignum>
1294

> <i_i_glide_rotatable_bonds>
10

> <r_i_docking_score>
-8.84247524078531

> <r_i_glide_ligand_efficiency>
-0.276327351274541

> <r_i_glide_ligand_efficiency_sa>
-0.877284655188106

> <r_i_glide_ligand_efficiency_ln>
-1.98007124318338

> <r_i_glide_gscore>
-8.84247524078531

> <r_i_glide_lipo>
-3.8162676986413

> <r_i_glide_hbond>
-0.922182378322483

> <r_i_glide_metal>
0

> <r_i_glide_rewards>
-1.32558116439754

> <r_i_glide_evdw>
-41.6199913024902

> <r_i_glide_ecoul>
-10.2917776107788

> <r_i_glide_erotb>
0.846322207317347

> <r_i_glide_esite>
0

> <r_i_glide_emodel>
-74.33506150167

> <r_i_glide_energy>
-51.911768913269

> <r_i_glide_einternal>
8.87230968475342

> <i_i_glide_confnum>
69

> <i_i_glide_posenum>
387

> <r_i_glide_eff_state_penalty>
0

> <i_f3d_flags>
0

> <s_user_duplicate_titles>
617343

> <s_m_subgroup_title>
dock_pv

> <s_m_subgroupid>
dock_pv1

> <b_m_subgroup_collapsed>
0

$$$$
198484
                    3D
 Schrodinger Suite 2021-1.
 42 45  0  0  1  0            999 V2000
   -1.1049   -0.5208   30.7769 C   0  0  0  0  0  0
   -1.0223   -0.6250   29.2766 C   0  0  0  0  0  0
    0.0854   -0.2156   28.5757 N   0  0  0  0  0  0
   -0.1553   -0.4873   27.2508 C   0  0  0  0  0  0
    0.5876   -0.3132   26.0863 C   0  0  0  0  0  0
    0.0350   -0.7997   24.8996 C   0  0  0  0  0  0
   -1.2532   -1.3745   24.8678 C   0  0  0  0  0  0
   -2.0028   -1.5135   26.0455 C   0  0  0  0  0  0
   -1.4441   -1.0709   27.2498 C   0  0  0  0  0  0
   -1.9681   -1.1147   28.5138 N   0  0  0  0  0  0
   -1.8508   -1.9007   23.6071 C   0  0  0  0  0  0
   -2.0309   -3.1144   23.4904 O   0  0  0  0  0  0
   -2.2734   -0.9460   22.5294 C   0  0  0  0  0  0
   -2.1260    0.4417   22.6787 C   0  0  0  0  0  0
   -2.5100    1.3053   21.6580 C   0  0  0  0  0  0
   -3.0706    0.8019   20.4878 C   0  0  0  0  0  0
   -3.2347   -0.5776   20.3385 C   0  0  0  0  0  0
   -2.8358   -1.4458   21.3479 C   0  0  0  0  0  0
   -3.4198    1.7094   19.4766 N   0  0  0  0  0  0
   -4.0024    1.4033   18.2387 C   0  0  0  0  0  0
   -3.3043    1.6872   17.0579 C   0  0  0  0  0  0
   -3.8594    1.3698   15.8202 C   0  0  0  0  0  0
   -5.1294    0.8059   15.7536 C   0  0  0  0  0  0
   -5.8634    0.6070   16.9152 C   0  0  0  0  0  0
   -5.3047    0.8873   18.1592 C   0  0  0  0  0  0
   -6.0286    0.6345   19.2765 F   0  0  0  0  0  0
   -5.6349    0.4043   14.5724 F   0  0  0  0  0  0
    1.0188   -0.6681   23.4787 Cl  0  0  0  0  0  0
    0.9143    0.1679   29.0092 H   0  0  0  0  0  0
   -2.0474   -0.9101   31.1622 H   0  0  0  0  0  0
   -1.0190    0.5106   31.1149 H   0  0  0  0  0  0
   -0.3049   -1.0905   31.2481 H   0  0  0  0  0  0
    1.5645    0.1405   26.1036 H   0  0  0  0  0  0
   -2.9849   -1.9650   26.0406 H   0  0  0  0  0  0
   -1.7026    0.8736   23.5742 H   0  0  0  0  0  0
   -2.3705    2.3682   21.7845 H   0  0  0  0  0  0
   -3.6619   -0.9921   19.4402 H   0  0  0  0  0  0
   -2.9699   -2.5086   21.1946 H   0  0  0  0  0  0
   -2.8577    2.5467   19.4907 H   0  0  0  0  0  0
   -2.3161    2.1201   17.0756 H   0  0  0  0  0  0
   -3.2983    1.5406   14.9137 H   0  0  0  0  0  0
   -6.8350    0.1496   16.8604 H   0  0  0  0  0  0
  1  2  1  0  0  0
  1 30  1  0  0  0
  1 31  1  0  0  0
  1 32  1  0  0  0
  2 10  2  0  0  0
  2  3  1  0  0  0
  3 29  1  0  0  0
  3  4  1  0  0  0
  4  9  2  0  0  0
  4  5  1  0  0  0
  5  6  2  0  0  0
  5 33  1  0  0  0
  6  7  1  0  0  0
  6 28  1  0  0  0
  7  8  2  0  0  0
  7 11  1  0  0  0
  8  9  1  0  0  0
  8 34  1  0  0  0
  9 10  1  0  0  0
 11 12  2  0  0  0
 11 13  1  0  0  0
 13 18  1  0  0  0
 13 14  2  0  0  0
 14 15  1  0  0  0
 14 35  1  0  0  0
 15 16  2  0  0  0
 15 36  1  0  0  0
 16 17  1  0  0  0
 16 19  1  0  0  0
 17 18  2  0  0  0
 17 37  1  0  0  0
 18 38  1  0  0  0
 19 20  1  0  0  0
 19 39  1  0  0  0
 20 25  1  0  0  0
 20 21  2  0  0  0
 21 22  1  0  0  0
 21 40  1  0  0  0
 22 23  2  0  0  0
 22 41  1  0  0  0
 23 24  1  0  0  0
 23 27  1  0  0  0
 24 25  2  0  0  0
 24 42  1  0  0  0
 25 26  1  0  0  0
M  END
> <s_m_entry_id>
62469

> <s_m_entry_name>
ligand_docking-pose.129

> <s_m_Source_Path>
/home/csk/Desktop/cluster/DUD-E-result/mk14

> <s_m_Source_File>
ligand_docking-pose.sdf

> <i_m_Source_File_Index>
129

> <i_lp_mmshare_version>
53161

> <r_lp_tautomer_probability>
1

> <s_lp_Force_Field>
OPLS_2005

> <r_lp_Energy>
23.484152

> <b_lp_Chiralities_Consistent>
1

> <s_lp_Variant>
198484-1

> <s_i_glide_gridfile>
glide-grid_2qd9

> <i_i_glide_lignum>
1376

> <i_i_glide_rotatable_bonds>
4

> <r_i_docking_score>
-8.78192218894789

> <r_i_glide_ligand_efficiency>
-0.31364007817671

> <r_i_glide_ligand_efficiency_sa>
-0.95239600147176

> <r_i_glide_ligand_efficiency_ln>
-2.02712548964886

> <r_i_glide_gscore>
-8.78192218894789

> <r_i_glide_lipo>
-4.08159498676733

> <r_i_glide_hbond>
-0.504062680462897

> <r_i_glide_metal>
0

> <r_i_glide_rewards>
-1.80040543746434

> <r_i_glide_evdw>
-44.2061004638672

> <r_i_glide_ecoul>
-4.53620386123657

> <r_i_glide_erotb>
0.494876518125519

> <r_i_glide_esite>
0

> <r_i_glide_emodel>
-68.2839882986904

> <r_i_glide_energy>
-48.7423043251038

> <r_i_glide_einternal>
7.77299356460571

> <i_i_glide_confnum>
4

> <i_i_glide_posenum>
135

> <r_i_glide_eff_state_penalty>
0

> <i_f3d_flags>
0

> <s_user_duplicate_titles>
198484

> <s_m_subgroup_title>
dock_pv

> <s_m_subgroupid>
dock_pv1

> <b_m_subgroup_collapsed>
0

$$$$
158592
                    3D
 Schrodinger Suite 2021-1.
 48 51  0  0  1  0            999 V2000
   -1.5577   -2.3112   25.0315 C   0  0  0  0  0  0
   -1.6512   -3.1120   23.8519 O   0  0  0  0  0  0
   -1.9377   -2.4869   22.6511 C   0  0  0  0  0  0
   -1.8606   -3.2915   21.5676 N   0  0  0  0  0  0
   -2.0884   -2.7041   20.3659 C   0  0  0  0  0  0
   -2.3975   -1.3504   20.2352 C   0  0  0  0  0  0
   -2.4414   -0.5833   21.4057 C   0  0  0  0  0  0
   -2.2238   -1.1549   22.6208 N   0  0  0  0  0  0
   -2.5249    0.9186   21.3261 C   0  0  0  0  0  0
   -2.9970    1.7405   20.2760 C   0  0  0  0  0  0
   -2.6345    2.9956   20.4483 N   0  0  0  0  0  0
   -2.0554    3.0195   21.6133 C   0  0  0  0  0  0
   -2.0355    1.8204   22.2738 N   0  0  0  0  0  0
   -1.4775    1.5938   23.6285 C   0  0  2  0  0  0
   -2.5673    1.2529   24.6698 C   0  0  0  0  0  0
   -3.3494    2.4908   25.1373 C   0  0  0  0  0  0
   -2.4470    3.6186   25.6743 C   0  0  1  0  0  0
   -1.2434    3.9441   24.7588 C   0  0  0  0  0  0
   -0.5276    2.6956   24.1751 C   0  0  0  0  0  0
   -3.2349    4.7758   25.8736 O   0  0  0  0  0  0
   -3.8300    1.4114   19.0756 C   0  0  0  0  0  0
   -5.1092    0.8796   19.2667 C   0  0  0  0  0  0
   -5.9363    0.6398   18.1693 C   0  0  0  0  0  0
   -5.4621    0.8872   16.8798 C   0  0  0  0  0  0
   -4.1915    1.4021   16.6763 C   0  0  0  0  0  0
   -3.3886    1.6857   17.7714 C   0  0  0  0  0  0
   -6.2090    0.5715   15.8028 F   0  0  0  0  0  0
   -1.2340   -2.9181   25.8743 H   0  0  0  0  0  0
   -2.5224   -1.8723   25.2901 H   0  0  0  0  0  0
   -0.8234   -1.5112   24.9157 H   0  0  0  0  0  0
   -2.0346   -3.3401   19.4931 H   0  0  0  0  0  0
   -2.5334   -0.9154   19.2563 H   0  0  0  0  0  0
   -1.5646    3.8675   22.0447 H   0  0  0  0  0  0
   -0.8348    0.7264   23.4822 H   0  0  0  0  0  0
   -3.2549    0.4989   24.2928 H   0  0  0  0  0  0
   -2.1022    0.7443   25.5167 H   0  0  0  0  0  0
   -4.0348    2.1922   25.9282 H   0  0  0  0  0  0
   -3.9638    2.8582   24.3143 H   0  0  0  0  0  0
   -2.0539    3.3432   26.6552 H   0  0  0  0  0  0
   -0.5140    4.5208   25.3290 H   0  0  0  0  0  0
   -1.5662    4.6199   23.9714 H   0  0  0  0  0  0
    0.0964    2.2426   24.9486 H   0  0  0  0  0  0
    0.2167    2.9687   23.4250 H   0  0  0  0  0  0
   -4.0475    4.5140   26.3229 H   0  0  0  0  0  0
   -5.4690    0.6738   20.2634 H   0  0  0  0  0  0
   -6.9246    0.2237   18.3041 H   0  0  0  0  0  0
   -3.8391    1.5958   15.6734 H   0  0  0  0  0  0
   -2.4350    2.1423   17.5707 H   0  0  0  0  0  0
  1  2  1  0  0  0
  1 28  1  0  0  0
  1 29  1  0  0  0
  1 30  1  0  0  0
  2  3  1  0  0  0
  3  8  1  0  0  0
  3  4  2  0  0  0
  4  5  1  0  0  0
  5  6  2  0  0  0
  5 31  1  0  0  0
  6  7  1  0  0  0
  6 32  1  0  0  0
  7  8  2  0  0  0
  7  9  1  0  0  0
  9 13  1  0  0  0
  9 10  2  0  0  0
 10 11  1  0  0  0
 10 21  1  0  0  0
 11 12  2  0  0  0
 12 13  1  0  0  0
 12 33  1  0  0  0
 13 14  1  0  0  0
 14 19  1  0  0  0
 14 15  1  0  0  0
 14 34  1  0  0  0
 15 16  1  0  0  0
 15 35  1  0  0  0
 15 36  1  0  0  0
 16 17  1  0  0  0
 16 37  1  0  0  0
 16 38  1  0  0  0
 17 18  1  0  0  0
 17 20  1  0  0  0
 17 39  1  0  0  0
 18 19  1  0  0  0
 18 40  1  0  0  0
 18 41  1  0  0  0
 19 42  1  0  0  0
 19 43  1  0  0  0
 20 44  1  0  0  0
 21 26  1  0  0  0
 21 22  2  0  0  0
 22 23  1  0  0  0
 22 45  1  0  0  0
 23 24  2  0  0  0
 23 46  1  0  0  0
 24 25  1  0  0  0
 24 27  1  0  0  0
 25 26  2  0  0  0
 25 47  1  0  0  0
 26 48  1  0  0  0
M  END
> <s_m_entry_id>
62474

> <s_m_entry_name>
ligand_docking-pose.134

> <s_m_Source_Path>
/home/csk/Desktop/cluster/DUD-E-result/mk14

> <s_m_Source_File>
ligand_docking-pose.sdf

> <i_m_Source_File_Index>
134

> <i_lp_mmshare_version>
53161

> <r_lp_tautomer_probability>
1

> <s_lp_Force_Field>
OPLS_2005

> <r_lp_Energy>
25.850836

> <b_lp_Chiralities_Consistent>
1

> <s_lp_Variant>
158592-1

> <s_i_glide_gridfile>
glide-grid_2qd9

> <i_i_glide_lignum>
2550

> <i_i_glide_rotatable_bonds>
5

> <r_i_docking_score>
-8.73442982143325

> <r_i_glide_ligand_efficiency>
-0.323497400793824

> <r_i_glide_ligand_efficiency_sa>
-0.970492201315278

> <r_i_glide_ligand_efficiency_ln>
-2.03323126409997

> <r_i_glide_gscore>
-8.73442982143325

> <r_i_glide_lipo>
-2.99105081470564

> <r_i_glide_hbond>
-0.70652580250442

> <r_i_glide_metal>
0

> <r_i_glide_rewards>
-2.71982866783962

> <r_i_glide_evdw>
-31.2693710327148

> <r_i_glide_ecoul>
-7.6545033454895

> <r_i_glide_erotb>
0.425932561610475

> <r_i_glide_esite>
-0.0313130445348787

> <r_i_glide_emodel>
-57.3722218168744

> <r_i_glide_energy>
-38.9238743782043

> <r_i_glide_einternal>
6.55130624771118

> <i_i_glide_confnum>
70

> <i_i_glide_posenum>
173

> <r_i_glide_eff_state_penalty>
0

> <i_f3d_flags>
0

> <s_user_duplicate_titles>
158592

> <s_m_subgroup_title>
dock_pv

> <s_m_subgroupid>
dock_pv1

> <b_m_subgroup_collapsed>
0

$$$$
190053
                    3D
 Schrodinger Suite 2021-1.
 38 41  0  0  1  0            999 V2000
   -4.8408    0.7974   15.6113 C   0  0  0  0  0  0
   -3.5575    1.3338   15.6610 C   0  0  0  0  0  0
   -3.0439    1.7941   16.8699 C   0  0  0  0  0  0
   -3.7847    1.6870   18.0523 C   0  0  0  0  0  0
   -5.0475    1.0721   18.0114 C   0  0  0  0  0  0
   -5.5855    0.6762   16.7827 C   0  0  0  0  0  0
   -5.7944    0.8771   19.1447 O   0  0  0  0  0  0
   -3.2362    2.6378   19.4745 S   0  0  0  0  0  0
   -2.8347    1.4573   20.6883 C   0  0  0  0  0  0
   -2.4353    1.9654   21.9827 C   0  0  0  0  0  0
   -2.0230    1.1148   22.9377 C   0  0  0  0  0  0
   -2.0032   -0.3069   22.6199 C   0  0  0  0  0  0
   -1.6120   -1.2802   23.4710 C   0  0  0  0  0  0
   -1.7061   -2.6770   23.0268 C   0  0  0  0  0  0
   -1.5566   -3.5130   23.8762 O   0  0  0  0  0  0
   -2.0380   -2.9377   21.6920 N   0  0  0  0  0  0
   -2.4032   -1.9830   20.9299 C   0  0  0  0  0  0
   -2.4327   -0.6534   21.3247 N   0  0  0  0  0  0
   -2.8368    0.2070   20.3919 N   0  0  0  0  0  0
   -1.1639   -0.9737   24.8651 C   0  0  0  0  0  0
   -2.0674   -1.0505   25.9421 C   0  0  0  0  0  0
   -1.6577   -0.7493   27.2408 C   0  0  0  0  0  0
   -0.3482   -0.3512   27.4859 C   0  0  0  0  0  0
    0.5528   -0.2599   26.4306 C   0  0  0  0  0  0
    0.1620   -0.5815   25.1300 C   0  0  0  0  0  0
    1.3455   -0.4741   23.8714 Cl  0  0  0  0  0  0
   -3.7109   -1.5156   25.7018 Cl  0  0  0  0  0  0
   -5.2546    0.4625   14.6717 H   0  0  0  0  0  0
   -2.9672    1.4316   14.7607 H   0  0  0  0  0  0
   -2.0870    2.2940   16.8712 H   0  0  0  0  0  0
   -6.5678    0.2299   16.7379 H   0  0  0  0  0  0
   -6.6061    0.3957   18.9671 H   0  0  0  0  0  0
   -2.4380    3.0234   22.1935 H   0  0  0  0  0  0
   -1.7076    1.4794   23.9044 H   0  0  0  0  0  0
   -2.7098   -2.1768   19.9037 H   0  0  0  0  0  0
   -2.3561   -0.8225   28.0619 H   0  0  0  0  0  0
   -0.0269   -0.1171   28.4910 H   0  0  0  0  0  0
    1.5645    0.0513   26.6335 H   0  0  0  0  0  0
  1  6  1  0  0  0
  1  2  2  0  0  0
  1 28  1  0  0  0
  2  3  1  0  0  0
  2 29  1  0  0  0
  3  4  2  0  0  0
  3 30  1  0  0  0
  4  5  1  0  0  0
  4  8  1  0  0  0
  5  6  2  0  0  0
  5  7  1  0  0  0
  6 31  1  0  0  0
  7 32  1  0  0  0
  8  9  1  0  0  0
  9 19  2  0  0  0
  9 10  1  0  0  0
 10 11  2  0  0  0
 10 33  1  0  0  0
 11 12  1  0  0  0
 11 34  1  0  0  0
 12 18  1  0  0  0
 12 13  2  0  0  0
 13 14  1  0  0  0
 13 20  1  0  0  0
 14 15  2  0  0  0
 14 16  1  0  0  0
 16 17  2  0  0  0
 17 18  1  0  0  0
 17 35  1  0  0  0
 18 19  1  0  0  0
 20 25  1  0  0  0
 20 21  2  0  0  0
 21 22  1  0  0  0
 21 27  1  0  0  0
 22 23  2  0  0  0
 22 36  1  0  0  0
 23 24  1  0  0  0
 23 37  1  0  0  0
 24 25  2  0  0  0
 24 38  1  0  0  0
 25 26  1  0  0  0
M  END
> <s_m_entry_id>
62476

> <s_m_entry_name>
ligand_docking-pose.136

> <s_m_Source_Path>
/home/csk/Desktop/cluster/DUD-E-result/mk14

> <s_m_Source_File>
ligand_docking-pose.sdf

> <i_m_Source_File_Index>
136

> <i_lp_mmshare_version>
53161

> <r_lp_tautomer_probability>
0.999999999997365

> <s_lp_Force_Field>
OPLS_2005

> <r_lp_Energy>
44.807004

> <b_lp_Chiralities_Consistent>
1

> <s_lp_Variant>
190053-1

> <s_i_glide_gridfile>
glide-grid_2qd9

> <i_i_glide_lignum>
632

> <i_i_glide_rotatable_bonds>
4

> <r_i_docking_score>
-8.71142350064901

> <r_i_glide_ligand_efficiency>
-0.322645314838852

> <r_i_glide_ligand_efficiency_sa>
-0.96793594345317

> <r_i_glide_ligand_efficiency_ln>
-2.02787577191024

> <r_i_glide_gscore>
-8.71142350064901

> <r_i_glide_lipo>
-3.60722576554466

> <r_i_glide_hbond>
-0.478373474377074

> <r_i_glide_metal>
0

> <r_i_glide_rewards>
-1.44262866076376

> <r_i_glide_evdw>
-37.0078544616699

> <r_i_glide_ecoul>
-11.1652927398682

> <r_i_glide_erotb>
0.341991034100201

> <r_i_glide_esite>
0

> <r_i_glide_emodel>
-62.4177958962339

> <r_i_glide_energy>
-48.1731472015381

> <r_i_glide_einternal>
1.11686205863953

> <i_i_glide_confnum>
12

> <i_i_glide_posenum>
173

> <r_i_glide_eff_state_penalty>
0

> <i_f3d_flags>
0

> <s_user_duplicate_titles>
190053

> <s_m_subgroup_title>
dock_pv

> <s_m_subgroupid>
dock_pv1

> <b_m_subgroup_collapsed>
0

$$$$
189552
                    3D
 Schrodinger Suite 2021-1.
 37 40  0  0  1  0            999 V2000
   -3.7445    1.1781   15.5001 C   0  0  0  0  0  0
   -5.0271    0.6389   15.5020 C   0  0  0  0  0  0
   -5.7365    0.5689   16.6963 C   0  0  0  0  0  0
   -5.1698    1.0134   17.8926 C   0  0  0  0  0  0
   -3.8834    1.5763   17.8904 C   0  0  0  0  0  0
   -3.1806    1.6551   16.6840 C   0  0  0  0  0  0
   -3.2441    2.4865   19.2825 S   0  0  0  0  0  0
   -2.8340    1.3187   20.5326 C   0  0  0  0  0  0
   -2.4389    1.8738   21.8106 C   0  0  0  0  0  0
   -2.0669    1.0627   22.8154 C   0  0  0  0  0  0
   -2.0521   -0.3713   22.5632 C   0  0  0  0  0  0
   -1.6362   -1.3038   23.4529 C   0  0  0  0  0  0
   -1.6186   -2.7133   23.0453 C   0  0  0  0  0  0
   -1.2536   -3.5131   23.8755 O   0  0  0  0  0  0
   -2.0358   -3.0364   21.7466 N   0  0  0  0  0  0
   -2.4308   -2.1209   20.9480 C   0  0  0  0  0  0
   -2.4715   -0.7727   21.2788 N   0  0  0  0  0  0
   -2.8535    0.0537   20.2935 N   0  0  0  0  0  0
   -1.1670   -0.9534   24.8286 C   0  0  0  0  0  0
   -2.0049   -1.1418   25.9474 C   0  0  0  0  0  0
   -1.5534   -0.8244   27.2291 C   0  0  0  0  0  0
   -0.2708   -0.3191   27.4181 C   0  0  0  0  0  0
    0.5682   -0.1351   26.3239 C   0  0  0  0  0  0
    0.1354   -0.4578   25.0375 C   0  0  0  0  0  0
    1.2452   -0.2388   23.7248 Cl  0  0  0  0  0  0
   -3.6010   -1.7976   25.7916 Cl  0  0  0  0  0  0
   -6.2168    0.8860   19.4761 Br  0  0  0  0  0  0
   -3.2021    1.2491   14.5732 H   0  0  0  0  0  0
   -5.4690    0.2776   14.5843 H   0  0  0  0  0  0
   -6.7274    0.1391   16.7059 H   0  0  0  0  0  0
   -2.2065    2.1208   16.6571 H   0  0  0  0  0  0
   -2.4440    2.9398   21.9777 H   0  0  0  0  0  0
   -1.7720    1.4657   23.7727 H   0  0  0  0  0  0
   -2.7611   -2.3678   19.9397 H   0  0  0  0  0  0
   -2.1958   -0.9805   28.0837 H   0  0  0  0  0  0
    0.0794   -0.0803   28.4120 H   0  0  0  0  0  0
    1.5642    0.2517   26.4811 H   0  0  0  0  0  0
  1  6  1  0  0  0
  1  2  2  0  0  0
  1 28  1  0  0  0
  2  3  1  0  0  0
  2 29  1  0  0  0
  3  4  2  0  0  0
  3 30  1  0  0  0
  4  5  1  0  0  0
  4 27  1  0  0  0
  5  6  2  0  0  0
  5  7  1  0  0  0
  6 31  1  0  0  0
  7  8  1  0  0  0
  8 18  2  0  0  0
  8  9  1  0  0  0
  9 10  2  0  0  0
  9 32  1  0  0  0
 10 11  1  0  0  0
 10 33  1  0  0  0
 11 17  1  0  0  0
 11 12  2  0  0  0
 12 13  1  0  0  0
 12 19  1  0  0  0
 13 14  2  0  0  0
 13 15  1  0  0  0
 15 16  2  0  0  0
 16 17  1  0  0  0
 16 34  1  0  0  0
 17 18  1  0  0  0
 19 24  1  0  0  0
 19 20  2  0  0  0
 20 21  1  0  0  0
 20 26  1  0  0  0
 21 22  2  0  0  0
 21 35  1  0  0  0
 22 23  1  0  0  0
 22 36  1  0  0  0
 23 24  2  0  0  0
 23 37  1  0  0  0
 24 25  1  0  0  0
M  END
> <s_m_entry_id>
62483

> <s_m_entry_name>
ligand_docking-pose.143

> <s_m_Source_Path>
/home/csk/Desktop/cluster/DUD-E-result/mk14

> <s_m_Source_File>
ligand_docking-pose.sdf

> <i_m_Source_File_Index>
143

> <i_lp_mmshare_version>
53161

> <r_lp_tautomer_probability>
1

> <s_lp_Force_Field>
OPLS_2005

> <r_lp_Energy>
36.777618

> <b_lp_Chiralities_Consistent>
1

> <s_lp_Variant>
189552-1

> <s_i_glide_gridfile>
glide-grid_2qd9

> <i_i_glide_lignum>
634

> <i_i_glide_rotatable_bonds>
3

> <r_i_docking_score>
-8.62009882747981

> <r_i_glide_ligand_efficiency>
-0.319262919536289

> <r_i_glide_ligand_efficiency_sa>
-0.957788757556629

> <r_i_glide_ligand_efficiency_ln>
-2.00661689360136

> <r_i_glide_gscore>
-8.62009882747981

> <r_i_glide_lipo>
-3.94974357581833

> <r_i_glide_hbond>
-0.52391882599705

> <r_i_glide_metal>
0

> <r_i_glide_rewards>
-1.05269056188294

> <r_i_glide_evdw>
-37.1440162658691

> <r_i_glide_ecoul>
-10.0092153549194

> <r_i_glide_erotb>
0.264837252749883

> <r_i_glide_esite>
0

> <r_i_glide_emodel>
-59.7256046508084

> <r_i_glide_energy>
-47.1532316207886

> <r_i_glide_einternal>
3.16008949279785

> <i_i_glide_confnum>
9

> <i_i_glide_posenum>
153

> <r_i_glide_eff_state_penalty>
0

> <i_f3d_flags>
0

> <s_user_duplicate_titles>
189552

> <s_m_subgroup_title>
dock_pv

> <s_m_subgroupid>
dock_pv1

> <b_m_subgroup_collapsed>
0

$$$$
648414
                    3D
 Schrodinger Suite 2021-1.
 39 41  0  0  1  0            999 V2000
   -3.8234    1.6050   15.8769 C   0  0  0  0  0  0
   -5.1488    1.2030   15.8010 C   0  0  0  0  0  0
   -5.8310    0.8845   16.9693 C   0  0  0  0  0  0
   -5.2098    0.9393   18.2129 C   0  0  0  0  0  0
   -3.8761    1.3552   18.3016 C   0  0  0  0  0  0
   -3.1935    1.6873   17.1138 C   0  0  0  0  0  0
   -3.2351    1.4999   19.6456 C   0  0  0  0  0  0
   -2.9547    2.6113   20.1003 O   0  0  0  0  0  0
   -2.8934    0.2747   20.3769 C   0  0  0  0  0  0
   -2.2459    0.1421   21.6217 C   0  0  0  0  0  0
   -2.0965   -1.2218   21.9283 C   0  0  0  0  0  0
   -2.6753   -1.9087   20.8928 N   0  0  0  0  0  0
   -3.1388   -1.0216   19.9643 C   0  0  0  0  0  0
   -1.5193   -1.8930   23.0614 C   0  0  0  0  0  0
   -1.6355   -3.1129   23.2137 O   0  0  0  0  0  0
   -0.8546   -1.0840   23.9032 N   0  0  0  0  0  0
   -0.1320   -1.5143   25.1002 C   0  0  0  0  0  0
   -0.7909   -1.0899   26.4110 C   0  0  0  0  0  0
   -0.0797   -0.3155   27.3367 C   0  0  0  0  0  0
   -0.6435    0.0141   28.5677 C   0  0  0  0  0  0
   -1.9249   -0.4264   28.8900 C   0  0  0  0  0  0
   -2.6448   -1.1884   27.9726 C   0  0  0  0  0  0
   -2.0871   -1.5131   26.7367 C   0  0  0  0  0  0
   -2.8060   -2.2693   25.8758 F   0  0  0  0  0  0
    1.1649    0.1208   27.0521 F   0  0  0  0  0  0
   -5.9178    0.5959   19.3165 F   0  0  0  0  0  0
   -2.7368   -2.9166   20.8233 H   0  0  0  0  0  0
   -3.2780    1.8566   14.9794 H   0  0  0  0  0  0
   -5.6363    1.1252   14.8411 H   0  0  0  0  0  0
   -6.8349    0.5244   16.9126 H   0  0  0  0  0  0
   -2.1675    2.0240   17.0804 H   0  0  0  0  0  0
   -1.9105    0.9694   22.2307 H   0  0  0  0  0  0
   -3.6172   -1.3796   19.0763 H   0  0  0  0  0  0
   -0.8316   -0.0977   23.6991 H   0  0  0  0  0  0
   -0.0347   -2.6031   25.1327 H   0  0  0  0  0  0
    0.8907   -1.1392   25.0299 H   0  0  0  0  0  0
   -0.0764    0.6026   29.2744 H   0  0  0  0  0  0
   -2.3558   -0.1818   29.8498 H   0  0  0  0  0  0
   -3.6350   -1.5402   28.2210 H   0  0  0  0  0  0
  1  6  1  0  0  0
  1  2  2  0  0  0
  1 28  1  0  0  0
  2  3  1  0  0  0
  2 29  1  0  0  0
  3  4  2  0  0  0
  3 30  1  0  0  0
  4  5  1  0  0  0
  4 26  1  0  0  0
  5  6  2  0  0  0
  5  7  1  0  0  0
  6 31  1  0  0  0
  7  8  2  0  0  0
  7  9  1  0  0  0
  9 13  2  0  0  0
  9 10  1  0  0  0
 10 11  2  0  0  0
 10 32  1  0  0  0
 11 12  1  0  0  0
 11 14  1  0  0  0
 12 27  1  0  0  0
 12 13  1  0  0  0
 13 33  1  0  0  0
 14 15  2  0  0  0
 14 16  1  0  0  0
 16 17  1  0  0  0
 16 34  1  0  0  0
 17 18  1  0  0  0
 17 35  1  0  0  0
 17 36  1  0  0  0
 18 23  1  0  0  0
 18 19  2  0  0  0
 19 20  1  0  0  0
 19 25  1  0  0  0
 20 21  2  0  0  0
 20 37  1  0  0  0
 21 22  1  0  0  0
 21 38  1  0  0  0
 22 23  2  0  0  0
 22 39  1  0  0  0
 23 24  1  0  0  0
M  END
> <s_m_entry_id>
62487

> <s_m_entry_name>
ligand_docking-pose.147

> <s_m_Source_Path>
/home/csk/Desktop/cluster/DUD-E-result/mk14

> <s_m_Source_File>
ligand_docking-pose.sdf

> <i_m_Source_File_Index>
147

> <i_lp_mmshare_version>
53161

> <r_lp_tautomer_probability>
1

> <s_lp_Force_Field>
OPLS_2005

> <r_lp_Energy>
19.051813

> <b_lp_Chiralities_Consistent>
1

> <s_lp_Variant>
648414-1

> <s_i_glide_gridfile>
glide-grid_2qd9

> <i_i_glide_lignum>
504

> <i_i_glide_rotatable_bonds>
6

> <r_i_docking_score>
-8.58623413196699

> <r_i_glide_ligand_efficiency>
-0.330239774306423

> <r_i_glide_ligand_efficiency_sa>
-0.978334031952012

> <r_i_glide_ligand_efficiency_ln>
-2.01644891216031

> <r_i_glide_gscore>
-8.58623413196699

> <r_i_glide_lipo>
-3.33252931041905

> <r_i_glide_hbond>
-0.420729991566748

> <r_i_glide_metal>
0

> <r_i_glide_rewards>
-2.32843456573853

> <r_i_glide_evdw>
-40.6519241333008

> <r_i_glide_ecoul>
-8.11928939819336

> <r_i_glide_erotb>
0.745949352151388

> <r_i_glide_esite>
0

> <r_i_glide_emodel>
-71.8656641441283

> <r_i_glide_energy>
-48.7712135314941

> <r_i_glide_einternal>
4.36945486068726

> <i_i_glide_confnum>
39

> <i_i_glide_posenum>
189

> <r_i_glide_eff_state_penalty>
0

> <i_f3d_flags>
0

> <s_user_duplicate_titles>
648414

> <s_m_subgroup_title>
dock_pv

> <s_m_subgroupid>
dock_pv1

> <b_m_subgroup_collapsed>
0

$$$$
619384
                    3D
 Schrodinger Suite 2021-1.
 49 51  0  0  1  0            999 V2000
   -1.7191    2.2849   23.6371 C   0  0  0  0  0  0
   -2.0984    1.4395   22.4822 N   0  0  0  0  0  0
   -2.0391    0.0296   22.6382 C   0  0  0  0  0  0
   -2.3705   -0.8128   21.5683 C   0  0  0  0  0  0
   -2.8373   -0.1706   20.3254 C   0  0  0  0  0  0
   -2.8582    1.1871   20.2269 C   0  0  0  0  0  0
   -2.4350    2.0652   21.3157 C   0  0  0  0  0  0
   -2.4350    3.2870   21.1681 O   0  0  0  0  0  0
   -3.2350    1.8969   19.1214 O   0  0  0  0  0  0
   -3.8654    1.3438   18.0380 C   0  0  0  0  0  0
   -3.2566    1.4251   16.7809 C   0  0  0  0  0  0
   -3.9400    1.0026   15.6417 C   0  0  0  0  0  0
   -5.2435    0.5292   15.7511 C   0  0  0  0  0  0
   -5.8604    0.4884   16.9960 C   0  0  0  0  0  0
   -5.1801    0.8870   18.1412 C   0  0  0  0  0  0
   -5.8005    0.8364   19.3430 F   0  0  0  0  0  0
   -5.9025    0.0870   14.6622 F   0  0  0  0  0  0
   -2.1528   -2.1838   21.7537 C   0  0  0  0  0  0
   -1.6350   -2.6851   22.9141 N   0  0  0  0  0  0
   -1.3621   -1.7869   23.9010 C   0  0  0  0  0  0
   -1.5775   -0.4572   23.8113 N   0  0  0  0  0  0
   -0.7768   -2.2797   25.0760 N   0  0  0  0  0  0
   -0.6740   -1.5351   26.3462 C   0  0  0  0  0  0
   -2.0643   -1.4613   27.0317 C   0  0  0  0  0  0
   -2.0388   -1.1056   28.5285 C   0  0  0  0  0  0
   -3.2350   -1.5131   29.1553 O   0  0  0  0  0  0
    0.0221   -0.1477   26.2317 C   0  0  0  0  0  0
    0.8617    0.2836   27.4478 C   0  0  0  0  0  0
    1.1650    1.6564   27.3456 O   0  0  0  0  0  0
   -1.7960    3.3576   23.4560 H   0  0  0  0  0  0
   -2.3535    2.0545   24.4939 H   0  0  0  0  0  0
   -0.6866    2.0810   23.9257 H   0  0  0  0  0  0
   -3.1456   -0.7827   19.4900 H   0  0  0  0  0  0
   -2.2641    1.8349   16.6760 H   0  0  0  0  0  0
   -3.4622    1.0410   14.6761 H   0  0  0  0  0  0
   -6.8350    0.0667   17.1022 H   0  0  0  0  0  0
   -2.3615   -2.8933   20.9652 H   0  0  0  0  0  0
   -0.5637   -3.2624   25.1075 H   0  0  0  0  0  0
   -0.0350   -2.1471   26.9776 H   0  0  0  0  0  0
   -2.5566   -2.4257   26.9196 H   0  0  0  0  0  0
   -2.7083   -0.7569   26.5032 H   0  0  0  0  0  0
   -1.8732   -0.0382   28.6758 H   0  0  0  0  0  0
   -1.2174   -1.6212   29.0286 H   0  0  0  0  0  0
   -3.1501   -2.4427   29.3864 H   0  0  0  0  0  0
    0.6872   -0.1388   25.3663 H   0  0  0  0  0  0
   -0.7314    0.6161   26.0357 H   0  0  0  0  0  0
    0.3386    0.1271   28.3877 H   0  0  0  0  0  0
    1.7683   -0.3130   27.5313 H   0  0  0  0  0  0
    2.0903    1.7835   27.6149 H   0  0  0  0  0  0
  1  2  1  0  0  0
  1 30  1  0  0  0
  1 31  1  0  0  0
  1 32  1  0  0  0
  2  7  1  0  0  0
  2  3  1  0  0  0
  3 21  2  0  0  0
  3  4  1  0  0  0
  4  5  1  0  0  0
  4 18  2  0  0  0
  5  6  2  0  0  0
  5 33  1  0  0  0
  6  7  1  0  0  0
  6  9  1  0  0  0
  7  8  2  0  0  0
  9 10  1  0  0  0
 10 15  1  0  0  0
 10 11  2  0  0  0
 11 12  1  0  0  0
 11 34  1  0  0  0
 12 13  2  0  0  0
 12 35  1  0  0  0
 13 14  1  0  0  0
 13 17  1  0  0  0
 14 15  2  0  0  0
 14 36  1  0  0  0
 15 16  1  0  0  0
 18 19  1  0  0  0
 18 37  1  0  0  0
 19 20  2  0  0  0
 20 21  1  0  0  0
 20 22  1  0  0  0
 22 23  1  0  0  0
 22 38  1  0  0  0
 23 24  1  0  0  0
 23 27  1  0  0  0
 23 39  1  0  0  0
 24 25  1  0  0  0
 24 40  1  0  0  0
 24 41  1  0  0  0
 25 26  1  0  0  0
 25 42  1  0  0  0
 25 43  1  0  0  0
 26 44  1  0  0  0
 27 28  1  0  0  0
 27 45  1  0  0  0
 27 46  1  0  0  0
 28 29  1  0  0  0
 28 47  1  0  0  0
 28 48  1  0  0  0
 29 49  1  0  0  0
M  END
> <s_m_entry_id>
62492

> <s_m_entry_name>
ligand_docking-pose.152

> <s_m_Source_Path>
/home/csk/Desktop/cluster/DUD-E-result/mk14

> <s_m_Source_File>
ligand_docking-pose.sdf

> <i_m_Source_File_Index>
152

> <i_lp_mmshare_version>
53161

> <r_lp_tautomer_probability>
1

> <s_lp_Force_Field>
OPLS_2005

> <r_lp_Energy>
27.565165

> <b_lp_Chiralities_Consistent>
1

> <s_lp_Variant>
619384-1

> <s_i_glide_gridfile>
glide-grid_2qd9

> <i_i_glide_lignum>
2329

> <i_i_glide_rotatable_bonds>
10

> <r_i_docking_score>
-8.53028854773251

> <r_i_glide_ligand_efficiency>
-0.294147880956293

> <r_i_glide_ligand_efficiency_sa>
-0.903715482887498

> <r_i_glide_ligand_efficiency_ln>
-1.95321976797686

> <r_i_glide_gscore>
-8.53028854773251

> <r_i_glide_lipo>
-3.30815061381265

> <r_i_glide_hbond>
-0.16

> <r_i_glide_metal>
0

> <r_i_glide_rewards>
-2.84730042886529

> <r_i_glide_evdw>
-38.8499641418457

> <r_i_glide_ecoul>
-8.16524219512939

> <r_i_glide_erotb>
0.952447031307137

> <r_i_glide_esite>
0

> <r_i_glide_emodel>
-60.071023534302

> <r_i_glide_energy>
-47.0152063369751

> <r_i_glide_einternal>
7.69252300262451

> <i_i_glide_confnum>
240

> <i_i_glide_posenum>
368

> <r_i_glide_eff_state_penalty>
0

> <i_f3d_flags>
0

> <s_user_duplicate_titles>
619384

> <s_m_subgroup_title>
dock_pv

> <s_m_subgroupid>
dock_pv1

> <b_m_subgroup_collapsed>
0

$$$$
627150
                    3D
 Schrodinger Suite 2021-1.
 43 47  0  0  1  0            999 V2000
   -2.2623    2.6930   21.6449 C   0  0  0  0  0  0
   -2.0350    1.6662   22.4789 C   0  0  0  0  0  0
   -2.3057    0.2873   22.0659 C   0  0  0  0  0  0
   -2.0157   -0.7738   22.8919 C   0  0  0  0  0  0
   -2.2359   -2.1794   22.4549 C   0  0  0  0  0  0
   -2.0331   -3.1779   23.1453 O   0  0  0  0  0  0
   -2.7131   -2.2845   21.0806 C   0  0  0  0  0  0
   -2.9884   -1.2076   20.3173 C   0  0  0  0  0  0
   -2.8475    0.0970   20.7657 N   0  0  0  0  0  0
   -3.1589    1.1982   19.9283 C   0  0  0  0  0  0
   -2.8392    2.4509   20.3332 C   0  0  0  0  0  0
   -3.9034    1.0552   18.6421 C   0  0  0  0  0  0
   -3.2633    1.1358   17.3932 C   0  0  0  0  0  0
   -3.9781    0.9905   16.2024 C   0  0  0  0  0  0
   -5.3529    0.7827   16.2412 C   0  0  0  0  0  0
   -6.0142    0.7912   17.4635 C   0  0  0  0  0  0
   -5.2934    0.8870   18.6549 C   0  0  0  0  0  0
   -5.9578    0.8213   19.8264 F   0  0  0  0  0  0
   -6.0326    0.4879   15.1099 F   0  0  0  0  0  0
   -1.3854   -0.6146   24.2342 C   0  0  0  0  0  0
   -2.1023   -0.9393   25.3958 C   0  0  0  0  0  0
   -1.5059   -0.8596   26.6615 C   0  0  0  0  0  0
   -0.1828   -0.4207   26.7645 C   0  0  0  0  0  0
    0.5408   -0.1019   25.6210 C   0  0  0  0  0  0
   -0.0461   -0.2181   24.3642 C   0  0  0  0  0  0
    0.6998    0.0564   23.2727 F   0  0  0  0  0  0
   -2.2497   -1.2601   27.8887 C   0  0  0  0  0  0
   -3.3832   -1.9130   27.9745 N   0  0  0  0  0  0
   -3.6356   -2.0785   29.3325 N   0  0  0  0  0  0
   -2.6335   -1.5139   29.9562 C   0  0  0  0  0  0
   -1.7238   -0.9775   29.1078 O   0  0  0  0  0  0
   -2.0084    3.6869   21.9636 H   0  0  0  0  0  0
   -1.6071    1.8784   23.4484 H   0  0  0  0  0  0
   -2.8349   -3.2671   20.6697 H   0  0  0  0  0  0
   -3.3183   -1.3320   19.2998 H   0  0  0  0  0  0
   -3.0925    3.2932   19.7087 H   0  0  0  0  0  0
   -2.2009    1.2729   17.3114 H   0  0  0  0  0  0
   -3.4626    0.9972   15.2529 H   0  0  0  0  0  0
   -7.0751    0.6196   17.4805 H   0  0  0  0  0  0
   -3.1257   -1.2800   25.3076 H   0  0  0  0  0  0
    0.3001   -0.3483   27.7295 H   0  0  0  0  0  0
    1.5648    0.2222   25.7075 H   0  0  0  0  0  0
   -2.4303   -1.4330   31.0125 H   0  0  0  0  0  0
  1 11  1  0  0  0
  1  2  2  0  0  0
  1 32  1  0  0  0
  2  3  1  0  0  0
  2 33  1  0  0  0
  3  9  1  0  0  0
  3  4  2  0  0  0
  4  5  1  0  0  0
  4 20  1  0  0  0
  5  6  2  0  0  0
  5  7  1  0  0  0
  7  8  2  0  0  0
  7 34  1  0  0  0
  8  9  1  0  0  0
  8 35  1  0  0  0
  9 10  1  0  0  0
 10 11  2  0  0  0
 10 12  1  0  0  0
 11 36  1  0  0  0
 12 17  1  0  0  0
 12 13  2  0  0  0
 13 14  1  0  0  0
 13 37  1  0  0  0
 14 15  2  0  0  0
 14 38  1  0  0  0
 15 16  1  0  0  0
 15 19  1  0  0  0
 16 17  2  0  0  0
 16 39  1  0  0  0
 17 18  1  0  0  0
 20 25  1  0  0  0
 20 21  2  0  0  0
 21 22  1  0  0  0
 21 40  1  0  0  0
 22 23  2  0  0  0
 22 27  1  0  0  0
 23 24  1  0  0  0
 23 41  1  0  0  0
 24 25  2  0  0  0
 24 42  1  0  0  0
 25 26  1  0  0  0
 27 31  1  0  0  0
 27 28  2  0  0  0
 28 29  1  0  0  0
 29 30  2  0  0  0
 30 31  1  0  0  0
 30 43  1  0  0  0
M  END
> <s_m_entry_id>
62495

> <s_m_entry_name>
ligand_docking-pose.155

> <s_m_Source_Path>
/home/csk/Desktop/cluster/DUD-E-result/mk14

> <s_m_Source_File>
ligand_docking-pose.sdf

> <i_m_Source_File_Index>
155

> <i_lp_mmshare_version>
53161

> <r_lp_tautomer_probability>
1

> <s_lp_Force_Field>
OPLS_2005

> <r_lp_Energy>
29.333135

> <b_lp_Chiralities_Consistent>
1

> <s_lp_Variant>
627150-1

> <s_i_glide_gridfile>
glide-grid_2qd9

> <i_i_glide_lignum>
21

> <i_i_glide_rotatable_bonds>
3

> <r_i_docking_score>
-8.51925242630064

> <r_i_glide_ligand_efficiency>
-0.274814594396795

> <r_i_glide_ligand_efficiency_sa>
-0.863297248844696

> <r_i_glide_ligand_efficiency_ln>
-1.92135250586269

> <r_i_glide_gscore>
-8.51925242630064

> <r_i_glide_lipo>
-3.73434964832485

> <r_i_glide_hbond>
-0.469820047659765

> <r_i_glide_metal>
0

> <r_i_glide_rewards>
-1.90033938420239

> <r_i_glide_evdw>
-38.9188270568848

> <r_i_glide_ecoul>
-5.37517309188843

> <r_i_glide_erotb>
0.337473970513873

> <r_i_glide_esite>
0

> <r_i_glide_emodel>
-61.7936137887837

> <r_i_glide_energy>
-44.2940001487732

> <r_i_glide_einternal>
1.38752210140228

> <i_i_glide_confnum>
4

> <i_i_glide_posenum>
112

> <r_i_glide_eff_state_penalty>
0

> <i_f3d_flags>
0

> <s_user_duplicate_titles>
627150

> <s_m_subgroup_title>
dock_pv

> <s_m_subgroupid>
dock_pv1

> <b_m_subgroup_collapsed>
0

$$$$
627008
                    3D
 Schrodinger Suite 2021-1.
 39 42  0  0  1  0            999 V2000
   -2.1229    2.7518   21.8193 C   0  0  0  0  0  0
   -1.9324    1.6946   22.6158 C   0  0  0  0  0  0
   -2.2945    0.3537   22.1660 C   0  0  0  0  0  0
   -2.0080   -0.7442   22.9393 C   0  0  0  0  0  0
   -2.2663   -2.1271   22.4676 C   0  0  0  0  0  0
   -2.0350   -3.1512   23.1106 O   0  0  0  0  0  0
   -2.8350   -2.1611   21.1231 C   0  0  0  0  0  0
   -3.1243   -1.0461   20.4226 C   0  0  0  0  0  0
   -2.8964    0.2378   20.8861 N   0  0  0  0  0  0
   -3.1855    1.3819   20.0870 C   0  0  0  0  0  0
   -2.7796    2.5977   20.5266 C   0  0  0  0  0  0
   -3.9215    1.2869   18.7780 C   0  0  0  0  0  0
   -3.3632    1.6870   17.5486 C   0  0  0  0  0  0
   -4.0144    1.4732   16.3351 C   0  0  0  0  0  0
   -5.2779    0.9040   16.3286 C   0  0  0  0  0  0
   -5.9082    0.6425   17.5370 C   0  0  0  0  0  0
   -5.2421    0.8253   18.7436 C   0  0  0  0  0  0
   -5.8829    0.4870   19.8760 F   0  0  0  0  0  0
   -5.8736    0.5787   15.1623 F   0  0  0  0  0  0
   -1.4378   -0.6139   24.3045 C   0  0  0  0  0  0
   -0.0542   -0.5434   24.5158 C   0  0  0  0  0  0
    0.4491   -0.3150   25.7969 C   0  0  0  0  0  0
   -0.4193   -0.1521   26.8796 C   0  0  0  0  0  0
   -1.7950   -0.2765   26.6810 C   0  0  0  0  0  0
   -2.2988   -0.5082   25.4034 C   0  0  0  0  0  0
   -3.6350   -0.6017   25.2289 F   0  0  0  0  0  0
    0.0872    0.1942   28.1999 C   0  0  0  0  0  0
    0.4780    0.4811   29.2495 N   0  0  0  0  0  0
    0.8050   -0.6608   23.4768 F   0  0  0  0  0  0
   -1.7373    3.6870   22.1581 H   0  0  0  0  0  0
   -1.4275    1.8473   23.5588 H   0  0  0  0  0  0
   -3.0327   -3.1130   20.6760 H   0  0  0  0  0  0
   -3.5555   -1.1182   19.4492 H   0  0  0  0  0  0
   -2.9636    3.4755   19.9295 H   0  0  0  0  0  0
   -2.4350    2.2063   17.4760 H   0  0  0  0  0  0
   -3.5364    1.7395   15.4037 H   0  0  0  0  0  0
   -6.8610    0.1601   17.5465 H   0  0  0  0  0  0
    1.5174   -0.2505   25.9313 H   0  0  0  0  0  0
   -2.4842   -0.1698   27.5068 H   0  0  0  0  0  0
  1 11  1  0  0  0
  1  2  2  0  0  0
  1 30  1  0  0  0
  2  3  1  0  0  0
  2 31  1  0  0  0
  3  9  1  0  0  0
  3  4  2  0  0  0
  4  5  1  0  0  0
  4 20  1  0  0  0
  5  6  2  0  0  0
  5  7  1  0  0  0
  7  8  2  0  0  0
  7 32  1  0  0  0
  8  9  1  0  0  0
  8 33  1  0  0  0
  9 10  1  0  0  0
 10 11  2  0  0  0
 10 12  1  0  0  0
 11 34  1  0  0  0
 12 17  1  0  0  0
 12 13  2  0  0  0
 13 14  1  0  0  0
 13 35  1  0  0  0
 14 15  2  0  0  0
 14 36  1  0  0  0
 15 16  1  0  0  0
 15 19  1  0  0  0
 16 17  2  0  0  0
 16 37  1  0  0  0
 17 18  1  0  0  0
 20 25  1  0  0  0
 20 21  2  0  0  0
 21 22  1  0  0  0
 21 29  1  0  0  0
 22 23  2  0  0  0
 22 38  1  0  0  0
 23 24  1  0  0  0
 23 27  1  0  0  0
 24 25  2  0  0  0
 24 39  1  0  0  0
 25 26  1  0  0  0
 27 28  3  0  0  0
M  END
> <s_m_entry_id>
62500

> <s_m_entry_name>
ligand_docking-pose.160

> <s_m_Source_Path>
/home/csk/Desktop/cluster/DUD-E-result/mk14

> <s_m_Source_File>
ligand_docking-pose.sdf

> <i_m_Source_File_Index>
160

> <i_lp_mmshare_version>
53161

> <r_lp_tautomer_probability>
1

> <s_lp_Force_Field>
OPLS_2005

> <r_lp_Energy>
25.507729

> <b_lp_Chiralities_Consistent>
1

> <s_lp_Variant>
627008-1

> <s_i_glide_gridfile>
glide-grid_2qd9

> <i_i_glide_lignum>
24

> <i_i_glide_rotatable_bonds>
2

> <r_i_docking_score>
-8.49001760743915

> <r_i_glide_ligand_efficiency>
-0.292759227842729

> <r_i_glide_ligand_efficiency_sa>
-0.899449100566444

> <r_i_glide_ligand_efficiency_ln>
-1.94399874383262

> <r_i_glide_gscore>
-8.49001760743915

> <r_i_glide_lipo>
-3.60148391948971

> <r_i_glide_hbond>
-0.435125556149389

> <r_i_glide_metal>
0

> <r_i_glide_rewards>
-2.40436832352818

> <r_i_glide_evdw>
-34.042163848877

> <r_i_glide_ecoul>
-3.98876714706421

> <r_i_glide_erotb>
0.251383456231611

> <r_i_glide_esite>
0

> <r_i_glide_emodel>
-43.9376251582975

> <r_i_glide_energy>
-38.0309309959412

> <r_i_glide_einternal>
2.5100691318512

> <i_i_glide_confnum>
2

> <i_i_glide_posenum>
36

> <r_i_glide_eff_state_penalty>
0

> <i_f3d_flags>
0

> <s_user_duplicate_titles>
627008

> <s_m_subgroup_title>
dock_pv

> <s_m_subgroupid>
dock_pv1

> <b_m_subgroup_collapsed>
0

$$$$
648453
                    3D
 Schrodinger Suite 2021-1.
 40 42  0  0  1  0            999 V2000
    0.2817    0.7427   28.0619 C   0  0  0  0  0  0
    0.7539    2.0104   27.7281 C   0  0  0  0  0  0
    1.1650    2.2821   26.4238 C   0  0  0  0  0  0
    1.1100    1.2850   25.4502 C   0  0  0  0  0  0
    0.6239    0.0076   25.7776 C   0  0  0  0  0  0
    0.2154   -0.2551   27.0904 C   0  0  0  0  0  0
    0.5863   -1.1127   24.7447 C   0  0  0  0  0  0
   -0.2889   -0.7991   23.6247 N   0  0  0  0  0  0
   -1.2035   -1.6172   23.0863 C   0  0  0  0  0  0
   -1.4322   -2.7663   23.4745 O   0  0  0  0  0  0
   -1.9175   -1.0327   21.9882 C   0  0  0  0  0  0
   -2.0644    0.3025   21.5815 C   0  0  0  0  0  0
   -2.8778    0.3613   20.4359 C   0  0  0  0  0  0
   -3.2637   -0.9530   20.2100 C   0  0  0  0  0  0
   -2.6965   -1.7750   21.1419 N   0  0  0  0  0  0
   -3.2358    1.5516   19.6496 C   0  0  0  0  0  0
   -2.9180    2.6833   20.0219 O   0  0  0  0  0  0
   -3.9096    1.3416   18.3331 C   0  0  0  0  0  0
   -3.2350    1.6336   17.1301 C   0  0  0  0  0  0
   -3.8325    1.3744   15.9035 C   0  0  0  0  0  0
   -5.1195    0.8636   15.8577 C   0  0  0  0  0  0
   -5.8396    0.6793   17.0318 C   0  0  0  0  0  0
   -5.2337    0.8880   18.2712 C   0  0  0  0  0  0
   -5.9395    0.6313   19.3986 F   0  0  0  0  0  0
   -5.6375    0.4870   14.6759 F   0  0  0  0  0  0
    1.5647    1.5711   24.1895 O   0  0  0  0  0  0
   -2.8186   -2.7781   21.1918 H   0  0  0  0  0  0
   -0.0147    0.5266   29.0770 H   0  0  0  0  0  0
    0.8232    2.7782   28.4847 H   0  0  0  0  0  0
    1.5465    3.2623   26.1817 H   0  0  0  0  0  0
   -0.1419   -1.2377   27.3689 H   0  0  0  0  0  0
    0.3073   -2.0543   25.2222 H   0  0  0  0  0  0
    1.5948   -1.2756   24.3664 H   0  0  0  0  0  0
   -0.0918    0.0739   23.1586 H   0  0  0  0  0  0
   -1.6061    1.1586   22.0564 H   0  0  0  0  0  0
   -3.9199   -1.3841   19.4759 H   0  0  0  0  0  0
   -2.2292    2.0191   17.0790 H   0  0  0  0  0  0
   -3.2834    1.5383   14.9879 H   0  0  0  0  0  0
   -6.8341    0.2705   16.9923 H   0  0  0  0  0  0
    2.2115    2.2879   24.1963 H   0  0  0  0  0  0
  1  6  1  0  0  0
  1  2  2  0  0  0
  1 28  1  0  0  0
  2  3  1  0  0  0
  2 29  1  0  0  0
  3  4  2  0  0  0
  3 30  1  0  0  0
  4  5  1  0  0  0
  4 26  1  0  0  0
  5  6  2  0  0  0
  5  7  1  0  0  0
  6 31  1  0  0  0
  7  8  1  0  0  0
  7 32  1  0  0  0
  7 33  1  0  0  0
  8  9  1  0  0  0
  8 34  1  0  0  0
  9 10  2  0  0  0
  9 11  1  0  0  0
 11 15  1  0  0  0
 11 12  2  0  0  0
 12 13  1  0  0  0
 12 35  1  0  0  0
 13 14  2  0  0  0
 13 16  1  0  0  0
 14 15  1  0  0  0
 14 36  1  0  0  0
 15 27  1  0  0  0
 16 17  2  0  0  0
 16 18  1  0  0  0
 18 23  1  0  0  0
 18 19  2  0  0  0
 19 20  1  0  0  0
 19 37  1  0  0  0
 20 21  2  0  0  0
 20 38  1  0  0  0
 21 22  1  0  0  0
 21 25  1  0  0  0
 22 23  2  0  0  0
 22 39  1  0  0  0
 23 24  1  0  0  0
 26 40  1  0  0  0
M  END
> <s_m_entry_id>
62505

> <s_m_entry_name>
ligand_docking-pose.165

> <s_m_Source_Path>
/home/csk/Desktop/cluster/DUD-E-result/mk14

> <s_m_Source_File>
ligand_docking-pose.sdf

> <i_m_Source_File_Index>
165

> <i_lp_mmshare_version>
53161

> <r_lp_tautomer_probability>
0.999999999997365

> <s_lp_Force_Field>
OPLS_2005

> <r_lp_Energy>
19.561293

> <b_lp_Chiralities_Consistent>
1

> <s_lp_Variant>
648453-1

> <s_i_glide_gridfile>
glide-grid_2qd9

> <i_i_glide_lignum>
494

> <i_i_glide_rotatable_bonds>
7

> <r_i_docking_score>
-8.47024826472301

> <r_i_glide_ligand_efficiency>
-0.325778779412424

> <r_i_glide_ligand_efficiency_sa>
-0.965118352131707

> <r_i_glide_ligand_efficiency_ln>
-1.98921001181873

> <r_i_glide_gscore>
-8.47024826472301

> <r_i_glide_lipo>
-3.00156323187602

> <r_i_glide_hbond>
-0.416876680174578

> <r_i_glide_metal>
0

> <r_i_glide_rewards>
-2.40961140210994

> <r_i_glide_evdw>
-41.1192436218262

> <r_i_glide_ecoul>
-9.93535614013672

> <r_i_glide_erotb>
0.904068651549337

> <r_i_glide_esite>
0

> <r_i_glide_emodel>
-73.0931871501555

> <r_i_glide_energy>
-51.0545997619629

> <r_i_glide_einternal>
5.95935249328613

> <i_i_glide_confnum>
119

> <i_i_glide_posenum>
251

> <r_i_glide_eff_state_penalty>
0

> <i_f3d_flags>
0

> <s_user_duplicate_titles>
648453

> <s_m_subgroup_title>
dock_pv

> <s_m_subgroupid>
dock_pv1

> <b_m_subgroup_collapsed>
0

$$$$
198316
                    3D
 Schrodinger Suite 2021-1.
 40 43  0  0  1  0            999 V2000
   -0.3808   -0.3908   27.4423 C   0  0  0  0  0  0
   -1.6894   -0.7676   27.1573 C   0  0  0  0  0  0
   -2.0657   -1.0638   25.8477 C   0  0  0  0  0  0
   -1.1204   -0.9987   24.8045 C   0  0  0  0  0  0
    0.2034   -0.6239   25.1019 C   0  0  0  0  0  0
    0.5559   -0.3130   26.4162 C   0  0  0  0  0  0
    1.4230   -0.5272   23.8760 Cl  0  0  0  0  0  0
   -1.5002   -1.2919   23.4650 N   0  0  0  0  0  0
   -1.8507   -0.2400   22.6075 C   0  0  0  0  0  0
   -2.0167    1.0808   23.0595 C   0  0  0  0  0  0
   -2.3564    2.0818   22.1604 C   0  0  0  0  0  0
   -2.5470    1.7489   20.8246 C   0  0  0  0  0  0
   -2.4342    0.4401   20.3898 C   0  0  0  0  0  0
   -2.0658   -0.5506   21.2562 C   0  0  0  0  0  0
   -1.8849   -1.9568   20.7279 C   0  0  0  0  0  0
   -1.5691   -2.8979   21.7876 N   0  0  0  0  0  0
   -1.5420   -2.6015   23.1018 C   0  0  0  0  0  0
   -1.6350   -3.5130   23.8760 O   0  0  0  0  0  0
   -2.8350    2.9862   19.6518 S   0  0  0  0  0  0
   -3.6132    2.0689   18.3171 C   0  0  0  0  0  0
   -3.0328    2.0870   17.0399 C   0  0  0  0  0  0
   -3.6968    1.5169   15.9538 C   0  0  0  0  0  0
   -4.9498    0.9344   16.1311 C   0  0  0  0  0  0
   -5.5189    0.8870   17.4018 C   0  0  0  0  0  0
   -4.8350    1.4011   18.5024 C   0  0  0  0  0  0
   -5.3863    1.2870   19.7327 F   0  0  0  0  0  0
   -5.6066    0.4034   15.0760 F   0  0  0  0  0  0
   -3.7064   -1.5130   25.5564 Cl  0  0  0  0  0  0
   -0.0887   -0.1620   28.4574 H   0  0  0  0  0  0
   -2.4129   -0.8304   27.9571 H   0  0  0  0  0  0
    1.5650   -0.0182   26.6531 H   0  0  0  0  0  0
   -1.8643    1.3491   24.0945 H   0  0  0  0  0  0
   -2.4350    3.1050   22.4942 H   0  0  0  0  0  0
   -2.5366    0.1603   19.3538 H   0  0  0  0  0  0
   -1.0838   -1.9753   19.9871 H   0  0  0  0  0  0
   -2.7910   -2.2907   20.2185 H   0  0  0  0  0  0
   -1.4460   -3.8643   21.5283 H   0  0  0  0  0  0
   -2.0856    2.5828   16.8781 H   0  0  0  0  0  0
   -3.2529    1.5490   14.9696 H   0  0  0  0  0  0
   -6.4819    0.4154   17.5367 H   0  0  0  0  0  0
  1  6  1  0  0  0
  1  2  2  0  0  0
  1 29  1  0  0  0
  2  3  1  0  0  0
  2 30  1  0  0  0
  3  4  2  0  0  0
  3 28  1  0  0  0
  4  5  1  0  0  0
  4  8  1  0  0  0
  5  6  2  0  0  0
  5  7  1  0  0  0
  6 31  1  0  0  0
  8 17  1  0  0  0
  8  9  1  0  0  0
  9 14  2  0  0  0
  9 10  1  0  0  0
 10 11  2  0  0  0
 10 32  1  0  0  0
 11 12  1  0  0  0
 11 33  1  0  0  0
 12 13  2  0  0  0
 12 19  1  0  0  0
 13 14  1  0  0  0
 13 34  1  0  0  0
 14 15  1  0  0  0
 15 16  1  0  0  0
 15 35  1  0  0  0
 15 36  1  0  0  0
 16 17  1  0  0  0
 16 37  1  0  0  0
 17 18  2  0  0  0
 19 20  1  0  0  0
 20 25  1  0  0  0
 20 21  2  0  0  0
 21 22  1  0  0  0
 21 38  1  0  0  0
 22 23  2  0  0  0
 22 39  1  0  0  0
 23 24  1  0  0  0
 23 27  1  0  0  0
 24 25  2  0  0  0
 24 40  1  0  0  0
 25 26  1  0  0  0
M  END
> <s_m_entry_id>
62511

> <s_m_entry_name>
ligand_docking-pose.171

> <s_m_Source_Path>
/home/csk/Desktop/cluster/DUD-E-result/mk14

> <s_m_Source_File>
ligand_docking-pose.sdf

> <i_m_Source_File_Index>
171

> <i_lp_mmshare_version>
53161

> <r_lp_tautomer_probability>
1

> <s_lp_Force_Field>
OPLS_2005

> <r_lp_Energy>
42.937579

> <b_lp_Chiralities_Consistent>
1

> <s_lp_Variant>
198316-1

> <s_i_glide_gridfile>
glide-grid_2qd9

> <i_i_glide_lignum>
437

> <i_i_glide_rotatable_bonds>
3

> <r_i_docking_score>
-8.43161726937668

> <r_i_glide_ligand_efficiency>
-0.301129188192024

> <r_i_glide_ligand_efficiency_sa>
-0.91440557095811

> <r_i_glide_ligand_efficiency_ln>
-1.94626482881245

> <r_i_glide_gscore>
-8.43161726937668

> <r_i_glide_lipo>
-3.55431748708617

> <r_i_glide_hbond>
-0.466879093568132

> <r_i_glide_metal>
0

> <r_i_glide_rewards>
-1.9556064215452

> <r_i_glide_evdw>
-27.1821479797363

> <r_i_glide_ecoul>
-9.39024639129639

> <r_i_glide_erotb>
0.312830090504099

> <r_i_glide_esite>
0

> <r_i_glide_emodel>
-49.2586876637566

> <r_i_glide_energy>
-36.5723943710327

> <r_i_glide_einternal>
3.32919645309448

> <i_i_glide_confnum>
8

> <i_i_glide_posenum>
231

> <r_i_glide_eff_state_penalty>
0

> <i_f3d_flags>
0

> <s_user_duplicate_titles>
198316

> <s_m_subgroup_title>
dock_pv

> <s_m_subgroupid>
dock_pv1

> <b_m_subgroup_collapsed>
0

$$$$
237884
                    3D
 Schrodinger Suite 2021-1.
 61 66  0  0  1  0            999 V2000
    1.8091    5.5285   24.4215 C   0  0  0  0  0  0
    1.1505    4.7077   25.4394 N   0  0  1  0  0  0
   -0.2205    5.0535   25.8090 C   0  0  2  0  0  0
   -0.4966    3.9877   26.8891 C   0  0  0  0  0  0
    0.3823    2.7897   26.4797 C   0  0  0  0  0  0
    1.0981    3.2645   25.2020 C   0  0  1  0  0  0
    0.2896    2.9417   23.9063 C   0  0  0  0  0  0
   -1.1556    3.5094   23.9643 C   0  0  1  0  0  0
   -1.1727    4.9318   24.5788 C   0  0  0  0  0  0
   -1.7562    3.5342   22.6228 N   0  0  0  0  0  0
   -2.2556    2.4108   21.9374 C   0  0  0  0  0  0
   -2.1811    1.1848   22.5689 C   0  0  0  0  0  0
   -2.3612    0.0211   21.8412 C   0  0  0  0  0  0
   -2.7328    0.1337   20.4908 C   0  0  0  0  0  0
   -2.6684   -1.1115   19.7300 C   0  0  0  0  0  0
   -2.2790   -2.2721   20.2917 C   0  0  0  0  0  0
   -1.9792   -2.4208   21.7025 C   0  0  0  0  0  0
   -1.6915   -3.5101   22.1907 O   0  0  0  0  0  0
   -2.0708   -1.2544   22.4152 N   0  0  0  0  0  0
   -1.9542   -1.3375   23.8258 C   0  0  0  0  0  0
   -3.1156   -1.4657   24.6084 C   0  0  0  0  0  0
   -3.0142   -1.5174   25.9991 C   0  0  0  0  0  0
   -1.7665   -1.4370   26.6164 C   0  0  0  0  0  0
   -0.6167   -1.2726   25.8457 C   0  0  0  0  0  0
   -0.7003   -1.2046   24.4557 C   0  0  0  0  0  0
    0.7444   -0.8801   23.5552 Cl  0  0  0  0  0  0
   -4.6880   -1.5101   23.8814 Cl  0  0  0  0  0  0
   -3.0088    1.3975   19.9204 C   0  0  0  0  0  0
   -2.6995    2.5346   20.6353 N   0  0  0  0  0  0
   -3.6241    1.5210   18.5213 C   0  0  0  0  0  0
   -2.9646    2.0935   17.4070 C   0  0  0  0  0  0
   -3.4875    2.0589   16.1129 C   0  0  0  0  0  0
   -4.7262    1.4807   15.8827 C   0  0  0  0  0  0
   -5.4407    0.9595   16.9520 C   0  0  0  0  0  0
   -4.9038    0.9804   18.2429 C   0  0  0  0  0  0
   -5.9264    0.3674   19.4800 Cl  0  0  0  0  0  0
    1.8090    6.5742   24.7305 H   0  0  0  0  0  0
    2.8505    5.2258   24.2984 H   0  0  0  0  0  0
    1.3255    5.4683   23.4468 H   0  0  0  0  0  0
   -0.2640    6.0608   26.2237 H   0  0  0  0  0  0
   -1.5524    3.7272   26.9632 H   0  0  0  0  0  0
   -0.1896    4.3538   27.8741 H   0  0  0  0  0  0
   -0.1924    1.8746   26.3228 H   0  0  0  0  0  0
    1.1131    2.5778   27.2641 H   0  0  0  0  0  0
    2.0986    2.8369   25.1395 H   0  0  0  0  0  0
    0.2589    1.8595   23.7870 H   0  0  0  0  0  0
    0.8304    3.3094   23.0308 H   0  0  0  0  0  0
   -1.7653    2.8762   24.6073 H   0  0  0  0  0  0
   -0.9010    5.6854   23.8396 H   0  0  0  0  0  0
   -2.1896    5.1681   24.8912 H   0  0  0  0  0  0
   -1.3607    4.2197   21.9982 H   0  0  0  0  0  0
   -1.8616    1.1149   23.5942 H   0  0  0  0  0  0
   -2.8439   -1.0851   18.6760 H   0  0  0  0  0  0
   -2.2005   -3.1553   19.6748 H   0  0  0  0  0  0
   -3.9028   -1.6204   26.6050 H   0  0  0  0  0  0
   -1.6921   -1.4865   27.6941 H   0  0  0  0  0  0
    0.3433   -1.1868   26.3326 H   0  0  0  0  0  0
   -2.0428    2.6544   17.4728 H   0  0  0  0  0  0
   -2.9429    2.5076   15.2948 H   0  0  0  0  0  0
   -5.1473    1.4694   14.8867 H   0  0  0  0  0  0
   -6.4239    0.5379   16.7813 H   0  0  0  0  0  0
  1  2  1  0  0  0
  1 37  1  0  0  0
  1 38  1  0  0  0
  1 39  1  0  0  0
  2  6  1  0  0  0
  2  3  1  0  0  0
  3  9  1  0  0  0
  3  4  1  0  0  0
  3 40  1  0  0  0
  4  5  1  0  0  0
  4 41  1  0  0  0
  4 42  1  0  0  0
  5  6  1  0  0  0
  5 43  1  0  0  0
  5 44  1  0  0  0
  6  7  1  0  0  0
  6 45  1  0  0  0
  7  8  1  0  0  0
  7 46  1  0  0  0
  7 47  1  0  0  0
  8  9  1  0  0  0
  8 10  1  0  0  0
  8 48  1  0  0  0
  9 49  1  0  0  0
  9 50  1  0  0  0
 10 11  1  0  0  0
 10 51  1  0  0  0
 11 29  1  0  0  0
 11 12  2  0  0  0
 12 13  1  0  0  0
 12 52  1  0  0  0
 13 19  1  0  0  0
 13 14  2  0  0  0
 14 15  1  0  0  0
 14 28  1  0  0  0
 15 16  2  0  0  0
 15 53  1  0  0  0
 16 17  1  0  0  0
 16 54  1  0  0  0
 17 18  2  0  0  0
 17 19  1  0  0  0
 19 20  1  0  0  0
 20 25  1  0  0  0
 20 21  2  0  0  0
 21 22  1  0  0  0
 21 27  1  0  0  0
 22 23  2  0  0  0
 22 55  1  0  0  0
 23 24  1  0  0  0
 23 56  1  0  0  0
 24 25  2  0  0  0
 24 57  1  0  0  0
 25 26  1  0  0  0
 28 29  2  0  0  0
 28 30  1  0  0  0
 30 35  1  0  0  0
 30 31  2  0  0  0
 31 32  1  0  0  0
 31 58  1  0  0  0
 32 33  2  0  0  0
 32 59  1  0  0  0
 33 34  1  0  0  0
 33 60  1  0  0  0
 34 35  2  0  0  0
 34 61  1  0  0  0
 35 36  1  0  0  0
M  END
> <s_m_entry_id>
62512

> <s_m_entry_name>
ligand_docking-pose.172

> <s_m_Source_Path>
/home/csk/Desktop/cluster/DUD-E-result/mk14

> <s_m_Source_File>
ligand_docking-pose.sdf

> <i_m_Source_File_Index>
172

> <i_lp_mmshare_version>
53161

> <r_lp_tautomer_probability>
1

> <s_lp_Force_Field>
OPLS_2005

> <r_lp_Energy>
81.780315

> <b_lp_Chiralities_Consistent>
1

> <s_lp_Variant>
237884-1

> <s_i_glide_gridfile>
glide-grid_2qd9

> <i_i_glide_lignum>
2275

> <i_i_glide_rotatable_bonds>
4

> <r_i_docking_score>
-8.41411923296791

> <r_i_glide_ligand_efficiency>
-0.233725534249109

> <r_i_glide_ligand_efficiency_sa>
-0.771744709377732

> <r_i_glide_ligand_efficiency_ln>
-1.83573349340236

> <r_i_glide_gscore>
-8.41411923296791

> <r_i_glide_lipo>
-4.43086360779399

> <r_i_glide_hbond>
-0.32

> <r_i_glide_metal>
0

> <r_i_glide_rewards>
-1.01494803030214

> <r_i_glide_evdw>
-36.7948570251465

> <r_i_glide_ecoul>
-6.98133182525635

> <r_i_glide_erotb>
0.283678708344303

> <r_i_glide_esite>
-0.0450436781703034

> <r_i_glide_emodel>
-43.2358949885669

> <r_i_glide_energy>
-43.7761888504028

> <r_i_glide_einternal>
7.85035800933838

> <i_i_glide_confnum>
48

> <i_i_glide_posenum>
318

> <r_i_glide_eff_state_penalty>
0

> <i_f3d_flags>
0

> <s_user_duplicate_titles>
237884

> <s_m_subgroup_title>
dock_pv

> <s_m_subgroupid>
dock_pv1

> <b_m_subgroup_collapsed>
0

$$$$
150469
                    3D
 Schrodinger Suite 2021-1.
 52 56  0  0  1  0            999 V2000
   -0.3977   -0.4099   27.4990 C   0  0  0  0  0  0
   -1.6962   -0.7988   27.1914 C   0  0  0  0  0  0
   -2.0350   -1.1477   25.8853 C   0  0  0  0  0  0
   -1.0532   -1.1539   24.8701 C   0  0  0  0  0  0
    0.2620   -0.7690   25.1949 C   0  0  0  0  0  0
    0.5683   -0.3777   26.4993 C   0  0  0  0  0  0
    1.5162   -0.7125   24.0017 Cl  0  0  0  0  0  0
   -1.4048   -1.3934   23.5064 N   0  0  0  0  0  0
   -1.6880   -0.2925   22.6945 C   0  0  0  0  0  0
   -1.7517    0.9940   23.2112 C   0  0  0  0  0  0
   -2.1376    2.0648   22.4252 C   0  0  0  0  0  0
   -2.4354    1.7798   21.0715 C   0  0  0  0  0  0
   -2.3779    0.5279   20.5619 N   0  0  0  0  0  0
   -1.9969   -0.4879   21.3476 C   0  0  0  0  0  0
   -1.9251   -1.8825   20.7531 C   0  0  0  0  0  0
   -1.6455   -2.9003   21.7744 N   0  0  0  0  0  0
   -1.6621   -2.6619   23.1078 C   0  0  0  0  0  0
   -2.0281   -3.5129   23.8767 O   0  0  0  0  0  0
   -2.8353    3.0147   19.8759 S   0  0  0  0  0  0
   -3.4618    2.0870   18.4564 C   0  0  0  0  0  0
   -2.8392    2.1955   17.1947 C   0  0  0  0  0  0
   -3.4439    1.6473   16.0634 C   0  0  0  0  0  0
   -4.6744    1.0036   16.1744 C   0  0  0  0  0  0
   -5.2895    0.8869   17.4191 C   0  0  0  0  0  0
   -4.6700    1.3841   18.5642 C   0  0  0  0  0  0
   -5.2847    1.2474   19.7628 F   0  0  0  0  0  0
   -5.2725    0.4907   15.0769 F   0  0  0  0  0  0
   -2.1331    3.3142   23.0263 N   0  0  0  0  0  0
   -2.9057    3.5093   24.2770 C   0  0  0  0  0  0
   -2.1177    3.3863   25.6082 C   0  0  0  0  0  0
   -0.9054    4.1230   25.5458 O   0  0  0  0  0  0
   -0.0802    3.7169   24.4626 C   0  0  0  0  0  0
   -0.8311    4.0031   23.1440 C   0  0  0  0  0  0
   -3.6910   -1.5131   25.5631 Cl  0  0  0  0  0  0
   -0.1384   -0.1260   28.5089 H   0  0  0  0  0  0
   -2.4483   -0.8070   27.9669 H   0  0  0  0  0  0
    1.5652   -0.0592   26.7533 H   0  0  0  0  0  0
   -1.5008    1.1699   24.2394 H   0  0  0  0  0  0
   -1.1456   -1.9214   19.9907 H   0  0  0  0  0  0
   -2.8685   -2.1322   20.2636 H   0  0  0  0  0  0
   -1.6743   -3.8634   21.4765 H   0  0  0  0  0  0
   -1.9257    2.7610   17.0758 H   0  0  0  0  0  0
   -2.9769    1.7487   15.0940 H   0  0  0  0  0  0
   -6.2465    0.3912   17.4971 H   0  0  0  0  0  0
   -3.3673    4.4873   24.2514 H   0  0  0  0  0  0
   -3.7497    2.8180   24.2907 H   0  0  0  0  0  0
   -1.9254    2.3541   25.8988 H   0  0  0  0  0  0
   -2.7199    3.7980   26.4181 H   0  0  0  0  0  0
    0.2108    2.6693   24.5529 H   0  0  0  0  0  0
    0.8449    4.2926   24.4956 H   0  0  0  0  0  0
   -0.1951    3.7576   22.2943 H   0  0  0  0  0  0
   -0.9785    5.0791   23.0783 H   0  0  0  0  0  0
  1  6  1  0  0  0
  1  2  2  0  0  0
  1 35  1  0  0  0
  2  3  1  0  0  0
  2 36  1  0  0  0
  3  4  2  0  0  0
  3 34  1  0  0  0
  4  5  1  0  0  0
  4  8  1  0  0  0
  5  6  2  0  0  0
  5  7  1  0  0  0
  6 37  1  0  0  0
  8 17  1  0  0  0
  8  9  1  0  0  0
  9 14  2  0  0  0
  9 10  1  0  0  0
 10 11  2  0  0  0
 10 38  1  0  0  0
 11 12  1  0  0  0
 11 28  1  0  0  0
 12 13  2  0  0  0
 12 19  1  0  0  0
 13 14  1  0  0  0
 14 15  1  0  0  0
 15 16  1  0  0  0
 15 39  1  0  0  0
 15 40  1  0  0  0
 16 17  1  0  0  0
 16 41  1  0  0  0
 17 18  2  0  0  0
 19 20  1  0  0  0
 20 25  1  0  0  0
 20 21  2  0  0  0
 21 22  1  0  0  0
 21 42  1  0  0  0
 22 23  2  0  0  0
 22 43  1  0  0  0
 23 24  1  0  0  0
 23 27  1  0  0  0
 24 25  2  0  0  0
 24 44  1  0  0  0
 25 26  1  0  0  0
 28 33  1  0  0  0
 28 29  1  0  0  0
 29 30  1  0  0  0
 29 45  1  0  0  0
 29 46  1  0  0  0
 30 31  1  0  0  0
 30 47  1  0  0  0
 30 48  1  0  0  0
 31 32  1  0  0  0
 32 33  1  0  0  0
 32 49  1  0  0  0
 32 50  1  0  0  0
 33 51  1  0  0  0
 33 52  1  0  0  0
M  END
> <s_m_entry_id>
62515

> <s_m_entry_name>
ligand_docking-pose.175

> <s_m_Source_Path>
/home/csk/Desktop/cluster/DUD-E-result/mk14

> <s_m_Source_File>
ligand_docking-pose.sdf

> <i_m_Source_File_Index>
175

> <i_lp_mmshare_version>
53161

> <r_lp_tautomer_probability>
1

> <s_lp_Force_Field>
OPLS_2005

> <r_lp_Energy>
59.639273

> <b_lp_Chiralities_Consistent>
1

> <s_lp_Variant>
150469-1

> <s_i_glide_gridfile>
glide-grid_2qd9

> <i_i_glide_lignum>
457

> <i_i_glide_rotatable_bonds>
4

> <r_i_docking_score>
-8.3619278636161

> <r_i_glide_ligand_efficiency>
-0.245939054812238

> <r_i_glide_ligand_efficiency_sa>
-0.796747063428218

> <r_i_glide_ligand_efficiency_ln>
-1.84738440920483

> <r_i_glide_gscore>
-8.3619278636161

> <r_i_glide_lipo>
-3.18382594602418

> <r_i_glide_hbond>
-0.50121199139721

> <r_i_glide_metal>
0

> <r_i_glide_rewards>
-1.65578135078982

> <r_i_glide_evdw>
-36.9098205566406

> <r_i_glide_ecoul>
-9.58187770843506

> <r_i_glide_erotb>
0.300366693956883

> <r_i_glide_esite>
-0.0387025852644872

> <r_i_glide_emodel>
-44.1265128324708

> <r_i_glide_energy>
-46.4916982650757

> <r_i_glide_einternal>
6.38115882873535

> <i_i_glide_confnum>
26

> <i_i_glide_posenum>
240

> <r_i_glide_eff_state_penalty>
0

> <i_f3d_flags>
0

> <s_user_duplicate_titles>
150469

> <s_m_subgroup_title>
dock_pv

> <s_m_subgroupid>
dock_pv1

> <b_m_subgroup_collapsed>
0

$$$$
648450
                    3D
 Schrodinger Suite 2021-1.
 40 42  0  0  1  0            999 V2000
    0.1203    0.9774   28.0303 C   0  0  0  0  0  0
    0.6994    2.1651   27.5864 C   0  0  0  0  0  0
    1.1650    2.2670   26.2760 C   0  0  0  0  0  0
    1.0588    1.1812   25.4073 C   0  0  0  0  0  0
    0.4685   -0.0171   25.8471 C   0  0  0  0  0  0
    0.0046   -0.1095   27.1648 C   0  0  0  0  0  0
    0.3650   -1.2297   24.9312 C   0  0  0  0  0  0
   -0.4241   -0.9490   23.7412 N   0  0  0  0  0  0
   -1.2965   -1.7766   23.1509 C   0  0  0  0  0  0
   -1.5442   -2.9274   23.5233 O   0  0  0  0  0  0
   -1.9657   -1.1817   22.0301 C   0  0  0  0  0  0
   -2.0896    0.1593   21.6360 C   0  0  0  0  0  0
   -2.8882    0.2432   20.4802 C   0  0  0  0  0  0
   -3.2680   -1.0667   20.2224 C   0  0  0  0  0  0
   -2.7232   -1.9069   21.1509 N   0  0  0  0  0  0
   -3.2350    1.4552   19.7247 C   0  0  0  0  0  0
   -2.9062    2.5686   20.1425 O   0  0  0  0  0  0
   -3.8992    1.3100   18.3932 C   0  0  0  0  0  0
   -3.2350    1.6870   17.2108 C   0  0  0  0  0  0
   -3.8617    1.6202   15.9704 C   0  0  0  0  0  0
   -5.1754    1.1849   15.8895 C   0  0  0  0  0  0
   -5.8475    0.8344   17.0553 C   0  0  0  0  0  0
   -5.2285    0.8870   18.3019 C   0  0  0  0  0  0
   -5.9290    0.5196   19.4019 F   0  0  0  0  0  0
    1.5650    1.3036   24.1380 O   0  0  0  0  0  0
   -2.8571   -2.9089   21.1855 H   0  0  0  0  0  0
   -0.2265    0.8943   29.0500 H   0  0  0  0  0  0
    0.8074    3.0000   28.2628 H   0  0  0  0  0  0
    1.6341    3.1839   25.9503 H   0  0  0  0  0  0
   -0.4364   -1.0268   27.5285 H   0  0  0  0  0  0
   -0.0263   -2.0927   25.4760 H   0  0  0  0  0  0
    1.3730   -1.5130   24.6248 H   0  0  0  0  0  0
   -0.1567   -0.1099   23.2481 H   0  0  0  0  0  0
   -1.6350    1.0059   22.1318 H   0  0  0  0  0  0
   -3.9189   -1.4803   19.4760 H   0  0  0  0  0  0
   -2.2264    2.0602   17.1977 H   0  0  0  0  0  0
   -3.3276    1.9078   15.0760 H   0  0  0  0  0  0
   -5.6588    1.1071   14.9280 H   0  0  0  0  0  0
   -6.8350    0.4379   16.9928 H   0  0  0  0  0  0
    2.1855    2.0389   24.0666 H   0  0  0  0  0  0
  1  6  1  0  0  0
  1  2  2  0  0  0
  1 27  1  0  0  0
  2  3  1  0  0  0
  2 28  1  0  0  0
  3  4  2  0  0  0
  3 29  1  0  0  0
  4  5  1  0  0  0
  4 25  1  0  0  0
  5  6  2  0  0  0
  5  7  1  0  0  0
  6 30  1  0  0  0
  7  8  1  0  0  0
  7 31  1  0  0  0
  7 32  1  0  0  0
  8  9  1  0  0  0
  8 33  1  0  0  0
  9 10  2  0  0  0
  9 11  1  0  0  0
 11 15  1  0  0  0
 11 12  2  0  0  0
 12 13  1  0  0  0
 12 34  1  0  0  0
 13 14  2  0  0  0
 13 16  1  0  0  0
 14 15  1  0  0  0
 14 35  1  0  0  0
 15 26  1  0  0  0
 16 17  2  0  0  0
 16 18  1  0  0  0
 18 23  1  0  0  0
 18 19  2  0  0  0
 19 20  1  0  0  0
 19 36  1  0  0  0
 20 21  2  0  0  0
 20 37  1  0  0  0
 21 22  1  0  0  0
 21 38  1  0  0  0
 22 23  2  0  0  0
 22 39  1  0  0  0
 23 24  1  0  0  0
 25 40  1  0  0  0
M  END
> <s_m_entry_id>
62517

> <s_m_entry_name>
ligand_docking-pose.177

> <s_m_Source_Path>
/home/csk/Desktop/cluster/DUD-E-result/mk14

> <s_m_Source_File>
ligand_docking-pose.sdf

> <i_m_Source_File_Index>
177

> <i_lp_mmshare_version>
53161

> <r_lp_tautomer_probability>
0.999999999997365

> <s_lp_Force_Field>
OPLS_2005

> <r_lp_Energy>
19.019725

> <b_lp_Chiralities_Consistent>
1

> <s_lp_Variant>
648450-1

> <s_i_glide_gridfile>
glide-grid_2qd9

> <i_i_glide_lignum>
495

> <i_i_glide_rotatable_bonds>
7

> <r_i_docking_score>
-8.32507179475922

> <r_i_glide_ligand_efficiency>
-0.333002871790369

> <r_i_glide_ligand_efficiency_sa>
-0.973706302946117

> <r_i_glide_ligand_efficiency_ln>
-1.97329149762764

> <r_i_glide_gscore>
-8.32507179475922

> <r_i_glide_lipo>
-2.93995069696285

> <r_i_glide_hbond>
-0.542548437041244

> <r_i_glide_metal>
0

> <r_i_glide_rewards>
-2.25615495053981

> <r_i_glide_evdw>
-41.260814666748

> <r_i_glide_ecoul>
-10.0973148345947

> <r_i_glide_erotb>
0.991220248311292

> <r_i_glide_esite>
0

> <r_i_glide_emodel>
-73.904002211564

> <r_i_glide_energy>
-51.3581295013428

> <r_i_glide_einternal>
5.69752597808838

> <i_i_glide_confnum>
138

> <i_i_glide_posenum>
154

> <r_i_glide_eff_state_penalty>
0

> <i_f3d_flags>
0

> <s_user_duplicate_titles>
648450

> <s_m_subgroup_title>
dock_pv

> <s_m_subgroupid>
dock_pv1

> <b_m_subgroup_collapsed>
0

$$$$
189449
                    3D
 Schrodinger Suite 2021-1.
 37 40  0  0  1  0            999 V2000
   -3.2942    1.8397   15.5230 C   0  0  0  0  0  0
   -2.6663    2.3056   16.6673 C   0  0  0  0  0  0
   -3.2357    2.0332   17.9007 C   0  0  0  0  0  0
   -4.4093    1.2869   17.9750 C   0  0  0  0  0  0
   -5.0732    0.8870   16.8179 C   0  0  0  0  0  0
   -4.5019    1.1491   15.5808 C   0  0  0  0  0  0
   -5.1081    0.8792   19.5345 S   0  0  0  0  0  0
   -3.6588    0.4138   20.5057 C   0  0  0  0  0  0
   -2.9259    1.4326   21.2325 C   0  0  0  0  0  0
   -2.0355    1.0837   22.1836 C   0  0  0  0  0  0
   -1.8051   -0.3361   22.4373 C   0  0  0  0  0  0
   -1.0971   -0.8399   23.4862 C   0  0  0  0  0  0
   -1.0058   -2.3029   23.6828 C   0  0  0  0  0  0
   -0.4311   -2.7138   24.6831 O   0  0  0  0  0  0
   -1.6352   -3.1090   22.7069 N   0  0  0  0  0  0
   -2.3004   -2.5794   21.7439 C   0  0  0  0  0  0
   -2.4480   -1.2109   21.5477 N   0  0  0  0  0  0
   -3.3668   -0.8407   20.6256 N   0  0  0  0  0  0
   -0.5040    0.0667   24.5100 C   0  0  0  0  0  0
   -1.2739    0.4746   25.6184 C   0  0  0  0  0  0
   -0.7436    1.3555   26.5617 C   0  0  0  0  0  0
    0.5464    1.8545   26.4090 C   0  0  0  0  0  0
    1.3108    1.4671   25.3136 C   0  0  0  0  0  0
    0.8073    0.5637   24.3785 C   0  0  0  0  0  0
    1.8438    0.0870   23.0765 Cl  0  0  0  0  0  0
   -2.8985   -0.0826   25.8502 Cl  0  0  0  0  0  0
   -2.8342    2.0576   14.5850 H   0  0  0  0  0  0
   -1.7545    2.8827   16.5957 H   0  0  0  0  0  0
   -2.8325    2.4482   18.8028 H   0  0  0  0  0  0
   -6.0075    0.3459   16.8754 H   0  0  0  0  0  0
   -4.9924    0.8144   14.6806 H   0  0  0  0  0  0
   -3.0972    2.4799   21.0426 H   0  0  0  0  0  0
   -1.4936    1.8391   22.7334 H   0  0  0  0  0  0
   -2.8065   -3.2016   21.0104 H   0  0  0  0  0  0
   -1.3350    1.6562   27.4141 H   0  0  0  0  0  0
    0.9620    2.5320   27.1414 H   0  0  0  0  0  0
    2.3167    1.8496   25.2070 H   0  0  0  0  0  0
  1  6  1  0  0  0
  1  2  2  0  0  0
  1 27  1  0  0  0
  2  3  1  0  0  0
  2 28  1  0  0  0
  3  4  2  0  0  0
  3 29  1  0  0  0
  4  5  1  0  0  0
  4  7  1  0  0  0
  5  6  2  0  0  0
  5 30  1  0  0  0
  6 31  1  0  0  0
  7  8  1  0  0  0
  8 18  2  0  0  0
  8  9  1  0  0  0
  9 10  2  0  0  0
  9 32  1  0  0  0
 10 11  1  0  0  0
 10 33  1  0  0  0
 11 17  1  0  0  0
 11 12  2  0  0  0
 12 13  1  0  0  0
 12 19  1  0  0  0
 13 14  2  0  0  0
 13 15  1  0  0  0
 15 16  2  0  0  0
 16 17  1  0  0  0
 16 34  1  0  0  0
 17 18  1  0  0  0
 19 24  1  0  0  0
 19 20  2  0  0  0
 20 21  1  0  0  0
 20 26  1  0  0  0
 21 22  2  0  0  0
 21 35  1  0  0  0
 22 23  1  0  0  0
 22 36  1  0  0  0
 23 24  2  0  0  0
 23 37  1  0  0  0
 24 25  1  0  0  0
M  END
> <s_m_entry_id>
62518

> <s_m_entry_name>
ligand_docking-pose.178

> <s_m_Source_Path>
/home/csk/Desktop/cluster/DUD-E-result/mk14

> <s_m_Source_File>
ligand_docking-pose.sdf

> <i_m_Source_File_Index>
178

> <i_lp_mmshare_version>
53161

> <r_lp_tautomer_probability>
1

> <s_lp_Force_Field>
OPLS_2005

> <r_lp_Energy>
44.718376

> <b_lp_Chiralities_Consistent>
1

> <s_lp_Variant>
189449-1

> <s_i_glide_gridfile>
glide-grid_2qd9

> <i_i_glide_lignum>
633

> <i_i_glide_rotatable_bonds>
3

> <r_i_docking_score>
-8.32034494009657

> <r_i_glide_ligand_efficiency>
-0.320013266926791

> <r_i_glide_ligand_efficiency_sa>
-0.948038044079218

> <r_i_glide_ligand_efficiency_ln>
-1.95400570790314

> <r_i_glide_gscore>
-8.32034494009657

> <r_i_glide_lipo>
-3.1556261327001

> <r_i_glide_hbond>
-0.346630038545249

> <r_i_glide_metal>
0

> <r_i_glide_rewards>
-2.36649201459413

> <r_i_glide_evdw>
-41.0173645019531

> <r_i_glide_ecoul>
-5.11842250823975

> <r_i_glide_erotb>
0.367034847076526

> <r_i_glide_esite>
0

> <r_i_glide_emodel>
-58.5760699602098

> <r_i_glide_energy>
-46.1357870101929

> <r_i_glide_einternal>
5.66110897064209

> <i_i_glide_confnum>
17

> <i_i_glide_posenum>
339

> <r_i_glide_eff_state_penalty>
0

> <i_f3d_flags>
0

> <s_user_duplicate_titles>
189449

> <s_m_subgroup_title>
dock_pv

> <s_m_subgroupid>
dock_pv1

> <b_m_subgroup_collapsed>
0

$$$$
617199
                    3D
 Schrodinger Suite 2021-1.
 47 49  0  0  1  0            999 V2000
   -3.0390    1.2746   24.8776 C   0  0  0  0  0  0
   -2.6528    0.3469   23.7266 C   0  0  0  0  0  0
   -2.8351    0.7463   22.4534 C   0  0  0  0  0  0
   -2.5553   -0.1765   21.3624 C   0  0  0  0  0  0
   -2.1274   -1.4200   21.6921 C   0  0  0  0  0  0
   -1.9414   -1.8758   23.0737 C   0  0  0  0  0  0
   -1.6352   -3.0509   23.3131 O   0  0  0  0  0  0
   -2.1531   -0.9166   24.0495 N   0  0  0  0  0  0
   -1.7325   -1.2878   25.4257 C   0  0  0  0  0  0
   -0.6121   -0.4053   25.9788 C   0  0  0  0  0  0
    0.3090    0.2173   25.1237 C   0  0  0  0  0  0
    1.1649    1.1998   25.6092 C   0  0  0  0  0  0
    1.1483    1.5272   26.9619 C   0  0  0  0  0  0
    0.2994    0.8568   27.8462 C   0  0  0  0  0  0
   -0.5919   -0.1006   27.3436 C   0  0  0  0  0  0
    0.3048    1.2414   29.3200 C   0  0  0  0  0  0
    0.3649    0.0870   30.1988 N   0  0  0  0  0  0
   -1.6920   -2.7220   20.2759 Br  0  0  0  0  0  0
   -2.7208    0.1345   20.0417 O   0  0  0  0  0  0
   -3.2633    1.4082   19.6689 C   0  0  0  0  0  0
   -3.9101    1.2871   18.2935 C   0  0  0  0  0  0
   -3.2007    1.5293   17.1036 C   0  0  0  0  0  0
   -3.7934    1.2988   15.8668 C   0  0  0  0  0  0
   -5.1024    0.8447   15.8045 C   0  0  0  0  0  0
   -5.8393    0.6898   16.9694 C   0  0  0  0  0  0
   -5.2472    0.8870   18.2113 C   0  0  0  0  0  0
   -5.9677    0.6453   19.3313 F   0  0  0  0  0  0
   -5.6350    0.4870   14.6230 F   0  0  0  0  0  0
   -3.6345    2.1189   24.5293 H   0  0  0  0  0  0
   -3.6349    0.7523   25.6251 H   0  0  0  0  0  0
   -2.1568    1.6884   25.3649 H   0  0  0  0  0  0
   -3.2167    1.7355   22.2703 H   0  0  0  0  0  0
   -1.3988   -2.3224   25.5205 H   0  0  0  0  0  0
   -2.6015   -1.2028   26.0789 H   0  0  0  0  0  0
    0.3265   -0.0060   24.0673 H   0  0  0  0  0  0
    1.8487    1.7056   24.9421 H   0  0  0  0  0  0
    1.8197    2.2930   27.3226 H   0  0  0  0  0  0
   -1.3008   -0.5730   28.0078 H   0  0  0  0  0  0
   -0.5959    1.8175   29.5351 H   0  0  0  0  0  0
    1.1586    1.8849   29.5401 H   0  0  0  0  0  0
   -0.3282   -0.6015   29.9469 H   0  0  0  0  0  0
    1.2773   -0.3679   30.1440 H   0  0  0  0  0  0
   -4.0558    1.7283   20.3455 H   0  0  0  0  0  0
   -2.5028    2.1888   19.7062 H   0  0  0  0  0  0
   -2.1718    1.8539   17.0763 H   0  0  0  0  0  0
   -3.2277    1.4323   14.9566 H   0  0  0  0  0  0
   -6.8350    0.2990   16.9193 H   0  0  0  0  0  0
  1  2  1  0  0  0
  1 29  1  0  0  0
  1 30  1  0  0  0
  1 31  1  0  0  0
  2  8  1  0  0  0
  2  3  2  0  0  0
  3  4  1  0  0  0
  3 32  1  0  0  0
  4  5  2  0  0  0
  4 19  1  0  0  0
  5  6  1  0  0  0
  5 18  1  0  0  0
  6  7  2  0  0  0
  6  8  1  0  0  0
  8  9  1  0  0  0
  9 10  1  0  0  0
  9 33  1  0  0  0
  9 34  1  0  0  0
 10 15  1  0  0  0
 10 11  2  0  0  0
 11 12  1  0  0  0
 11 35  1  0  0  0
 12 13  2  0  0  0
 12 36  1  0  0  0
 13 14  1  0  0  0
 13 37  1  0  0  0
 14 15  2  0  0  0
 14 16  1  0  0  0
 15 38  1  0  0  0
 16 17  1  0  0  0
 16 39  1  0  0  0
 16 40  1  0  0  0
 17 41  1  0  0  0
 17 42  1  0  0  0
 19 20  1  0  0  0
 20 21  1  0  0  0
 20 43  1  0  0  0
 20 44  1  0  0  0
 21 26  1  0  0  0
 21 22  2  0  0  0
 22 23  1  0  0  0
 22 45  1  0  0  0
 23 24  2  0  0  0
 23 46  1  0  0  0
 24 25  1  0  0  0
 24 28  1  0  0  0
 25 26  2  0  0  0
 25 47  1  0  0  0
 26 27  1  0  0  0
M  END
> <s_m_entry_id>
62522

> <s_m_entry_name>
ligand_docking-pose.182

> <s_m_Source_Path>
/home/csk/Desktop/cluster/DUD-E-result/mk14

> <s_m_Source_File>
ligand_docking-pose.sdf

> <i_m_Source_File_Index>
182

> <i_lp_mmshare_version>
53161

> <r_lp_tautomer_probability>
1

> <s_lp_Force_Field>
OPLS_2005

> <r_lp_Energy>
28.683948

> <b_lp_Chiralities_Consistent>
1

> <s_lp_Variant>
617199-1

> <s_i_glide_gridfile>
glide-grid_2qd9

> <i_i_glide_lignum>
1289

> <i_i_glide_rotatable_bonds>
6

> <r_i_docking_score>
-8.28174307442394

> <r_i_glide_ligand_efficiency>
-0.295776538372284

> <r_i_glide_ligand_efficiency_sa>
-0.898151773563227

> <r_i_glide_ligand_efficiency_ln>
-1.91166946411978

> <r_i_glide_gscore>
-8.28174307442394

> <r_i_glide_lipo>
-3.53665913335944

> <r_i_glide_hbond>
-0.653811153651416

> <r_i_glide_metal>
0

> <r_i_glide_rewards>
-1.4257706948276

> <r_i_glide_evdw>
-40.1235237121582

> <r_i_glide_ecoul>
-7.70467472076416

> <r_i_glide_erotb>
0.49637530113705

> <r_i_glide_esite>
0

> <r_i_glide_emodel>
-68.2832722603817

> <r_i_glide_energy>
-47.8281984329224

> <r_i_glide_einternal>
4.62693500518799

> <i_i_glide_confnum>
57

> <i_i_glide_posenum>
398

> <r_i_glide_eff_state_penalty>
0

> <i_f3d_flags>
0

> <s_user_duplicate_titles>
617199

> <s_m_subgroup_title>
dock_pv

> <s_m_subgroupid>
dock_pv1

> <b_m_subgroup_collapsed>
0

$$$$
158657
                    3D
 Schrodinger Suite 2021-1.
 56 60  0  0  1  0            999 V2000
   -1.0905   -0.7375   27.5093 C   0  0  0  0  0  0
   -2.3084   -1.3275   27.1682 C   0  0  0  0  0  0
   -2.4659   -1.9104   25.9125 C   0  0  0  0  0  0
   -1.4004   -1.9121   25.0127 C   0  0  0  0  0  0
   -0.1886   -1.3072   25.3481 C   0  0  0  0  0  0
   -0.0354   -0.7131   26.5993 C   0  0  0  0  0  0
   -1.5193   -2.5943   23.7987 N   0  0  0  0  0  0
   -1.9564   -2.1095   22.5641 C   0  0  0  0  0  0
   -1.8297   -2.9814   21.5367 N   0  0  0  0  0  0
   -2.1544   -2.5134   20.3060 C   0  0  0  0  0  0
   -2.5813   -1.2034   20.0907 C   0  0  0  0  0  0
   -2.6648   -0.3583   21.2034 C   0  0  0  0  0  0
   -2.3868   -0.8237   22.4533 N   0  0  0  0  0  0
   -2.7849    1.1302   20.9862 C   0  0  0  0  0  0
   -3.2351    1.8388   19.8491 C   0  0  0  0  0  0
   -2.8354    3.0932   19.8779 N   0  0  0  0  0  0
   -2.2291    3.2288   21.0113 C   0  0  0  0  0  0
   -2.2877    2.1258   21.8301 N   0  0  0  0  0  0
   -1.7970    2.0353   23.2302 C   0  0  2  0  0  0
   -3.0569    1.9461   24.1404 C   0  0  0  0  0  0
   -2.7153    2.0179   25.6413 C   0  0  0  0  0  0
   -1.8755    3.2598   26.0022 C   0  0  1  0  0  0
   -0.5994    3.2914   25.1322 C   0  0  0  0  0  0
   -0.9257    3.2658   23.6251 C   0  0  0  0  0  0
   -2.6478    4.4373   25.8148 O   0  0  0  0  0  0
   -3.9944    1.4031   18.6435 C   0  0  0  0  0  0
   -3.4309    1.6028   17.3774 C   0  0  0  0  0  0
   -4.1477    1.2870   16.2318 C   0  0  0  0  0  0
   -5.4388    0.7892   16.3504 C   0  0  0  0  0  0
   -6.0329    0.6204   17.6053 C   0  0  0  0  0  0
   -5.2887    0.8869   18.7562 C   0  0  0  0  0  0
   -6.0823    0.4070   15.2311 F   0  0  0  0  0  0
   -0.9622   -0.2949   28.4854 H   0  0  0  0  0  0
   -3.1186   -1.3432   27.8806 H   0  0  0  0  0  0
   -3.4013   -2.3815   25.6528 H   0  0  0  0  0  0
    0.6416   -1.3194   24.6564 H   0  0  0  0  0  0
    0.9055   -0.2548   26.8696 H   0  0  0  0  0  0
   -0.9462   -3.4181   23.7139 H   0  0  0  0  0  0
   -2.0367   -3.2015   19.4813 H   0  0  0  0  0  0
   -2.7533   -0.8552   19.0838 H   0  0  0  0  0  0
   -1.6354    4.0863   21.2734 H   0  0  0  0  0  0
   -1.1743    1.1426   23.2692 H   0  0  0  0  0  0
   -3.7978    2.7018   23.8747 H   0  0  0  0  0  0
   -3.5519    0.9875   23.9840 H   0  0  0  0  0  0
   -2.1549    1.1274   25.9103 H   0  0  0  0  0  0
   -3.6311    1.9891   26.2378 H   0  0  0  0  0  0
   -1.5803    3.2350   27.0521 H   0  0  0  0  0  0
    0.0358    2.4399   25.3889 H   0  0  0  0  0  0
   -0.0121    4.1808   25.3718 H   0  0  0  0  0  0
    0.0253    3.2142   23.0849 H   0  0  0  0  0  0
   -1.3886    4.2149   23.3528 H   0  0  0  0  0  0
   -3.4863    4.3152   26.2711 H   0  0  0  0  0  0
   -2.4378    2.0141   17.2695 H   0  0  0  0  0  0
   -3.7047    1.4165   15.2552 H   0  0  0  0  0  0
   -7.0285    0.2124   17.6896 H   0  0  0  0  0  0
   -5.7329    0.7363   19.7292 H   0  0  0  0  0  0
  1  6  1  0  0  0
  1  2  2  0  0  0
  1 33  1  0  0  0
  2  3  1  0  0  0
  2 34  1  0  0  0
  3  4  2  0  0  0
  3 35  1  0  0  0
  4  5  1  0  0  0
  4  7  1  0  0  0
  5  6  2  0  0  0
  5 36  1  0  0  0
  6 37  1  0  0  0
  7  8  1  0  0  0
  7 38  1  0  0  0
  8 13  1  0  0  0
  8  9  2  0  0  0
  9 10  1  0  0  0
 10 11  2  0  0  0
 10 39  1  0  0  0
 11 12  1  0  0  0
 11 40  1  0  0  0
 12 13  2  0  0  0
 12 14  1  0  0  0
 14 18  1  0  0  0
 14 15  2  0  0  0
 15 16  1  0  0  0
 15 26  1  0  0  0
 16 17  2  0  0  0
 17 18  1  0  0  0
 17 41  1  0  0  0
 18 19  1  0  0  0
 19 24  1  0  0  0
 19 20  1  0  0  0
 19 42  1  0  0  0
 20 21  1  0  0  0
 20 43  1  0  0  0
 20 44  1  0  0  0
 21 22  1  0  0  0
 21 45  1  0  0  0
 21 46  1  0  0  0
 22 23  1  0  0  0
 22 25  1  0  0  0
 22 47  1  0  0  0
 23 24  1  0  0  0
 23 48  1  0  0  0
 23 49  1  0  0  0
 24 50  1  0  0  0
 24 51  1  0  0  0
 25 52  1  0  0  0
 26 31  1  0  0  0
 26 27  2  0  0  0
 27 28  1  0  0  0
 27 53  1  0  0  0
 28 29  2  0  0  0
 28 54  1  0  0  0
 29 30  1  0  0  0
 29 32  1  0  0  0
 30 31  2  0  0  0
 30 55  1  0  0  0
 31 56  1  0  0  0
M  END
> <s_m_entry_id>
62523

> <s_m_entry_name>
ligand_docking-pose.183

> <s_m_Source_Path>
/home/csk/Desktop/cluster/DUD-E-result/mk14

> <s_m_Source_File>
ligand_docking-pose.sdf

> <i_m_Source_File_Index>
183

> <i_lp_mmshare_version>
53161

> <r_lp_tautomer_probability>
0.999999987636

> <s_lp_Force_Field>
OPLS_2005

> <r_lp_Energy>
29.545144

> <b_lp_Chiralities_Consistent>
1

> <s_lp_Variant>
158657-1

> <s_i_glide_gridfile>
glide-grid_2qd9

> <i_i_glide_lignum>
597

> <i_i_glide_rotatable_bonds>
6

> <r_i_docking_score>
-8.27485867518553

> <r_i_glide_ligand_efficiency>
-0.258589333599548

> <r_i_glide_ligand_efficiency_sa>
-0.820969959418934

> <r_i_glide_ligand_efficiency_ln>
-1.85296642150238

> <r_i_glide_gscore>
-8.27485867518553

> <r_i_glide_lipo>
-3.90661749467834

> <r_i_glide_hbond>
0

> <r_i_glide_metal>
0

> <r_i_glide_rewards>
-2.14943817136422

> <r_i_glide_evdw>
-44.6083869934082

> <r_i_glide_ecoul>
-3.2518150806427

> <r_i_glide_erotb>
0.53867452390385

> <r_i_glide_esite>
-0.0392859212800029

> <r_i_glide_emodel>
-56.8363156947883

> <r_i_glide_energy>
-47.8602020740509

> <r_i_glide_einternal>
11.3001279830933

> <i_i_glide_confnum>
170

> <i_i_glide_posenum>
311

> <r_i_glide_eff_state_penalty>
0

> <i_f3d_flags>
0

> <s_user_duplicate_titles>
158657

> <s_m_subgroup_title>
dock_pv

> <s_m_subgroupid>
dock_pv1

> <b_m_subgroup_collapsed>
0

$$$$
151899
                    3D
 Schrodinger Suite 2021-1.
 56 60  0  0  1  0            999 V2000
   -0.3617   -0.4632   27.4981 C   0  0  0  0  0  0
    0.5445   -0.4202   26.4433 C   0  0  0  0  0  0
    0.1514   -0.7643   25.1495 C   0  0  0  0  0  0
   -1.1895   -1.1119   24.8957 C   0  0  0  0  0  0
   -2.1051   -1.1349   25.9670 C   0  0  0  0  0  0
   -1.6829   -0.8271   27.2598 C   0  0  0  0  0  0
   -3.7717   -1.5130   25.7304 Cl  0  0  0  0  0  0
   -1.6270   -1.3282   23.5575 N   0  0  0  0  0  0
   -1.9020   -0.2162   22.7598 C   0  0  0  0  0  0
   -1.8751    1.0893   23.2548 C   0  0  0  0  0  0
   -2.0349    2.1698   22.3925 C   0  0  0  0  0  0
   -2.4350    1.8593   21.0760 C   0  0  0  0  0  0
   -2.5031    0.5994   20.6085 N   0  0  0  0  0  0
   -2.2013   -0.4163   21.4115 C   0  0  0  0  0  0
   -2.1954   -1.8055   20.8094 C   0  0  0  0  0  0
   -1.8321   -2.8196   21.7959 N   0  0  0  0  0  0
   -1.8062   -2.6024   23.1298 C   0  0  0  0  0  0
   -2.0350   -3.5130   23.8760 O   0  0  0  0  0  0
   -2.8350    3.0623   19.8686 S   0  0  0  0  0  0
   -3.4598    2.0870   18.4645 C   0  0  0  0  0  0
   -2.8350    2.1808   17.2024 C   0  0  0  0  0  0
   -3.4375    1.6258   16.0738 C   0  0  0  0  0  0
   -4.6722    0.9914   16.1838 C   0  0  0  0  0  0
   -5.2918    0.8870   17.4273 C   0  0  0  0  0  0
   -4.6762    1.3958   18.5702 C   0  0  0  0  0  0
   -5.3062    1.2865   19.7623 F   0  0  0  0  0  0
   -5.2722    0.4832   15.0847 F   0  0  0  0  0  0
   -1.6606    3.4683   22.8020 N   0  0  0  0  0  0
   -0.9400    3.7122   24.0648 C   0  0  0  0  0  0
    0.4922    3.1253   24.0388 C   0  0  0  0  0  0
    1.2123    3.4406   25.3669 C   0  0  0  0  0  0
    1.3140    4.8890   25.5424 N   0  0  2  0  0  0
   -0.0031    5.5205   25.6093 C   0  0  0  0  0  0
   -0.8350    5.2231   24.3423 C   0  0  0  0  0  0
    1.3369   -0.7130   23.8872 Cl  0  0  0  0  0  0
   -0.0369   -0.2159   28.4988 H   0  0  0  0  0  0
    1.5650   -0.1360   26.6428 H   0  0  0  0  0  0
   -2.3843   -0.8564   28.0809 H   0  0  0  0  0  0
   -1.6330    1.2583   24.2901 H   0  0  0  0  0  0
   -3.1784   -2.0474   20.4005 H   0  0  0  0  0  0
   -1.4819   -1.8508   19.9849 H   0  0  0  0  0  0
   -1.8092   -3.7768   21.4785 H   0  0  0  0  0  0
   -1.9221    2.7456   17.0760 H   0  0  0  0  0  0
   -2.9677    1.7206   15.1052 H   0  0  0  0  0  0
   -6.2539    0.4013   17.5053 H   0  0  0  0  0  0
   -1.3207    4.0219   22.0286 H   0  0  0  0  0  0
   -1.5031    3.2524   24.8785 H   0  0  0  0  0  0
    1.0697    3.5056   23.1941 H   0  0  0  0  0  0
    0.4812    2.0459   23.9106 H   0  0  0  0  0  0
    2.2066    2.9939   25.4004 H   0  0  0  0  0  0
    0.6585    3.0225   26.2097 H   0  0  0  0  0  0
    1.8114    5.2497   24.7396 H   0  0  0  0  0  0
    0.1387    6.5961   25.7225 H   0  0  0  0  0  0
   -0.5228    5.1710   26.5035 H   0  0  0  0  0  0
   -1.8318    5.6179   24.5208 H   0  0  0  0  0  0
   -0.4373    5.7766   23.4898 H   0  0  0  0  0  0
  1  6  1  0  0  0
  1  2  2  0  0  0
  1 36  1  0  0  0
  2  3  1  0  0  0
  2 37  1  0  0  0
  3  4  2  0  0  0
  3 35  1  0  0  0
  4  5  1  0  0  0
  4  8  1  0  0  0
  5  6  2  0  0  0
  5  7  1  0  0  0
  6 38  1  0  0  0
  8 17  1  0  0  0
  8  9  1  0  0  0
  9 14  2  0  0  0
  9 10  1  0  0  0
 10 11  2  0  0  0
 10 39  1  0  0  0
 11 12  1  0  0  0
 11 28  1  0  0  0
 12 13  2  0  0  0
 12 19  1  0  0  0
 13 14  1  0  0  0
 14 15  1  0  0  0
 15 16  1  0  0  0
 15 40  1  0  0  0
 15 41  1  0  0  0
 16 17  1  0  0  0
 16 42  1  0  0  0
 17 18  2  0  0  0
 19 20  1  0  0  0
 20 25  1  0  0  0
 20 21  2  0  0  0
 21 22  1  0  0  0
 21 43  1  0  0  0
 22 23  2  0  0  0
 22 44  1  0  0  0
 23 24  1  0  0  0
 23 27  1  0  0  0
 24 25  2  0  0  0
 24 45  1  0  0  0
 25 26  1  0  0  0
 28 29  1  0  0  0
 28 46  1  0  0  0
 29 34  1  0  0  0
 29 30  1  0  0  0
 29 47  1  0  0  0
 30 31  1  0  0  0
 30 48  1  0  0  0
 30 49  1  0  0  0
 31 32  1  0  0  0
 31 50  1  0  0  0
 31 51  1  0  0  0
 32 33  1  0  0  0
 32 52  1  0  0  0
 33 34  1  0  0  0
 33 53  1  0  0  0
 33 54  1  0  0  0
 34 55  1  0  0  0
 34 56  1  0  0  0
M  END
> <s_m_entry_id>
62529

> <s_m_entry_name>
ligand_docking-pose.189

> <s_m_Source_Path>
/home/csk/Desktop/cluster/DUD-E-result/mk14

> <s_m_Source_File>
ligand_docking-pose.sdf

> <i_m_Source_File_Index>
189

> <i_lp_mmshare_version>
53161

> <r_lp_tautomer_probability>
0.999999999999999

> <s_lp_Force_Field>
OPLS_2005

> <r_lp_Energy>
51.117087

> <b_lp_Chiralities_Consistent>
1

> <s_lp_Variant>
151899-1

> <s_i_glide_gridfile>
glide-grid_2qd9

> <i_i_glide_lignum>
458

> <i_i_glide_rotatable_bonds>
5

> <r_i_docking_score>
-8.23531128604067

> <r_i_glide_ligand_efficiency>
-0.235294608172591

> <r_i_glide_ligand_efficiency_sa>
-0.769664264850245

> <r_i_glide_ligand_efficiency_ln>
-1.80783360017238

> <r_i_glide_gscore>
-8.23531128604067

> <r_i_glide_lipo>
-3.10708918494519

> <r_i_glide_hbond>
-0.502835652634535

> <r_i_glide_metal>
0

> <r_i_glide_rewards>
-1.65069299532933

> <r_i_glide_evdw>
-36.5084228515625

> <r_i_glide_ecoul>
-9.75693416595459

> <r_i_glide_erotb>
0.358823085012006

> <r_i_glide_esite>
-0.0445552706723083

> <r_i_glide_emodel>
-59.0059971061362

> <r_i_glide_energy>
-46.2653570175171

> <r_i_glide_einternal>
5.59710025787354

> <i_i_glide_confnum>
74

> <i_i_glide_posenum>
231

> <r_i_glide_eff_state_penalty>
0

> <i_f3d_flags>
0

> <s_user_duplicate_titles>
151899

> <s_m_subgroup_title>
dock_pv

> <s_m_subgroupid>
dock_pv1

> <b_m_subgroup_collapsed>
0

$$$$
648378
                    3D
 Schrodinger Suite 2021-1.
 39 41  0  0  1  0            999 V2000
   -6.1063    0.4930   19.2603 C   0  0  0  0  0  0
   -5.2294    0.8879   18.0866 C   0  0  0  0  0  0
   -5.8132    0.8861   16.8172 C   0  0  0  0  0  0
   -5.0925    1.2496   15.6883 C   0  0  0  0  0  0
   -3.7716    1.6500   15.8234 C   0  0  0  0  0  0
   -3.1811    1.6866   17.0801 C   0  0  0  0  0  0
   -3.8876    1.2977   18.2378 C   0  0  0  0  0  0
   -3.2357    1.4261   19.5930 C   0  0  0  0  0  0
   -2.9298    2.5379   20.0321 O   0  0  0  0  0  0
   -2.8519    0.2081   20.3285 C   0  0  0  0  0  0
   -2.1756    0.0954   21.5646 C   0  0  0  0  0  0
   -1.9894   -1.2621   21.8837 C   0  0  0  0  0  0
   -2.5871   -1.9671   20.8743 N   0  0  0  0  0  0
   -3.0704   -1.1001   19.9398 C   0  0  0  0  0  0
   -1.3980   -1.9177   23.0205 C   0  0  0  0  0  0
   -1.6343   -3.1047   23.2761 O   0  0  0  0  0  0
   -0.5731   -1.1360   23.7363 N   0  0  0  0  0  0
    0.1936   -1.5750   24.9019 C   0  0  0  0  0  0
   -0.4337   -1.1131   26.1987 C   0  0  0  0  0  0
    0.0029   -0.3138   27.2461 C   0  0  0  0  0  0
   -1.0181   -0.2961   28.1975 C   0  0  0  0  0  0
   -2.0378   -1.0796   27.6865 C   0  0  0  0  0  0
   -1.6828   -1.5753   26.4741 O   0  0  0  0  0  0
   -2.6407   -2.9772   20.8214 H   0  0  0  0  0  0
   -5.6154   -0.2553   19.8729 H   0  0  0  0  0  0
   -6.2943    1.3650   19.8776 H   0  0  0  0  0  0
   -7.0644    0.0876   18.9394 H   0  0  0  0  0  0
   -6.8349    0.5726   16.6984 H   0  0  0  0  0  0
   -5.5558    1.2236   14.7129 H   0  0  0  0  0  0
   -3.1967    1.9397   14.9562 H   0  0  0  0  0  0
   -2.1563    2.0264   17.0844 H   0  0  0  0  0  0
   -1.8499    0.9319   22.1670 H   0  0  0  0  0  0
   -3.5593   -1.4898   19.0765 H   0  0  0  0  0  0
   -0.4342   -0.1834   23.4357 H   0  0  0  0  0  0
    0.3638   -2.6545   24.9048 H   0  0  0  0  0  0
    1.1908   -1.1401   24.8133 H   0  0  0  0  0  0
    0.9603    0.1845   27.3187 H   0  0  0  0  0  0
   -1.0081    0.2208   29.1462 H   0  0  0  0  0  0
   -3.0108   -1.3700   28.0561 H   0  0  0  0  0  0
  1  2  1  0  0  0
  1 25  1  0  0  0
  1 26  1  0  0  0
  1 27  1  0  0  0
  2  7  1  0  0  0
  2  3  2  0  0  0
  3  4  1  0  0  0
  3 28  1  0  0  0
  4  5  2  0  0  0
  4 29  1  0  0  0
  5  6  1  0  0  0
  5 30  1  0  0  0
  6  7  2  0  0  0
  6 31  1  0  0  0
  7  8  1  0  0  0
  8  9  2  0  0  0
  8 10  1  0  0  0
 10 14  2  0  0  0
 10 11  1  0  0  0
 11 12  2  0  0  0
 11 32  1  0  0  0
 12 13  1  0  0  0
 12 15  1  0  0  0
 13 24  1  0  0  0
 13 14  1  0  0  0
 14 33  1  0  0  0
 15 16  2  0  0  0
 15 17  1  0  0  0
 17 18  1  0  0  0
 17 34  1  0  0  0
 18 19  1  0  0  0
 18 35  1  0  0  0
 18 36  1  0  0  0
 19 23  1  0  0  0
 19 20  2  0  0  0
 20 21  1  0  0  0
 20 37  1  0  0  0
 21 22  2  0  0  0
 21 38  1  0  0  0
 22 23  1  0  0  0
 22 39  1  0  0  0
M  END
> <s_m_entry_id>
62539

> <s_m_entry_name>
ligand_docking-pose.199

> <s_m_Source_Path>
/home/csk/Desktop/cluster/DUD-E-result/mk14

> <s_m_Source_File>
ligand_docking-pose.sdf

> <i_m_Source_File_Index>
199

> <i_lp_mmshare_version>
53161

> <r_lp_tautomer_probability>
1

> <s_lp_Force_Field>
OPLS_2005

> <r_lp_Energy>
13.278939

> <b_lp_Chiralities_Consistent>
1

> <s_lp_Variant>
648378-1

> <s_i_glide_gridfile>
glide-grid_2qd9

> <i_i_glide_lignum>
927

> <i_i_glide_rotatable_bonds>
6

> <r_i_docking_score>
-8.16062330531359

> <r_i_glide_ligand_efficiency>
-0.354809708926678

> <r_i_glide_ligand_efficiency_sa>
-1.00903161429272

> <r_i_glide_ligand_efficiency_ln>
-1.97331271166585

> <r_i_glide_gscore>
-8.16062330531359

> <r_i_glide_lipo>
-3.42295032223106

> <r_i_glide_hbond>
-0.432888757927768

> <r_i_glide_metal>
0

> <r_i_glide_rewards>
-2.05501669763654

> <r_i_glide_evdw>
-38.4758491516113

> <r_i_glide_ecoul>
-8.65973091125488

> <r_i_glide_erotb>
0.972984566750576

> <r_i_glide_esite>
0

> <r_i_glide_emodel>
-67.4850886896716

> <r_i_glide_energy>
-47.1355800628662

> <r_i_glide_einternal>
5.72021102905273

> <i_i_glide_confnum>
37

> <i_i_glide_posenum>
118

> <r_i_glide_eff_state_penalty>
0

> <i_f3d_flags>
0

> <s_user_duplicate_titles>
648378

> <s_m_subgroup_title>
dock_pv

> <s_m_subgroupid>
dock_pv1

> <b_m_subgroup_collapsed>
0

$$$$
210639
                    3D
 Schrodinger Suite 2021-1.
 43 46  0  0  1  0            999 V2000
    2.3650    0.0867   23.8355 C   0  0  0  0  0  0
    0.9691   -0.7112   24.7622 S   0  0  2  0  0  0
    0.4217   -1.8314   23.8758 O   0  0  0  0  0  0
   -0.1585    0.6823   24.5301 C   0  0  0  0  0  0
   -0.3998    1.5928   25.5578 C   0  0  0  0  0  0
   -1.2874    2.6492   25.3434 C   0  0  0  0  0  0
   -1.9234    2.7952   24.1063 C   0  0  0  0  0  0
   -1.6701    1.8795   23.0764 C   0  0  0  0  0  0
   -0.7792    0.8280   23.2964 C   0  0  0  0  0  0
   -2.2822    2.0310   21.8146 N   0  0  0  0  0  0
   -2.2416    3.1800   21.0725 C   0  0  0  0  0  0
   -2.8351    3.0942   19.9206 N   0  0  0  0  0  0
   -3.2451    1.8405   19.8375 C   0  0  0  0  0  0
   -2.8672    1.0968   20.9710 C   0  0  0  0  0  0
   -2.8891   -0.3717   21.2580 C   0  0  0  0  0  0
   -3.1559   -0.8803   22.5365 C   0  0  0  0  0  0
   -2.8353   -2.2106   22.8106 C   0  0  0  0  0  0
   -2.3606   -3.0682   21.8751 N   0  0  0  0  0  0
   -2.1849   -2.5839   20.6195 C   0  0  0  0  0  0
   -2.4361   -1.2548   20.2721 C   0  0  0  0  0  0
   -3.9775    1.4338   18.6071 C   0  0  0  0  0  0
   -5.2584    0.8870   18.7003 C   0  0  0  0  0  0
   -5.9869    0.6410   17.5379 C   0  0  0  0  0  0
   -5.3938    0.8508   16.2907 C   0  0  0  0  0  0
   -4.1131    1.3772   16.1912 C   0  0  0  0  0  0
   -3.4131    1.6868   17.3494 C   0  0  0  0  0  0
   -6.0350    0.4864   15.1636 F   0  0  0  0  0  0
    2.6115    1.0522   24.2739 H   0  0  0  0  0  0
    3.2513   -0.5453   23.8747 H   0  0  0  0  0  0
    2.0993    0.2351   22.7903 H   0  0  0  0  0  0
    0.0952    1.4814   26.5119 H   0  0  0  0  0  0
   -1.4801    3.3557   26.1384 H   0  0  0  0  0  0
   -2.6125    3.6130   23.9581 H   0  0  0  0  0  0
   -0.5563    0.1176   22.5128 H   0  0  0  0  0  0
   -1.6350    3.9999   21.4158 H   0  0  0  0  0  0
   -3.4886   -0.2331   23.3352 H   0  0  0  0  0  0
   -2.9085   -2.5950   23.8158 H   0  0  0  0  0  0
   -1.8204   -3.2848   19.8822 H   0  0  0  0  0  0
   -2.2177   -0.9076   19.2724 H   0  0  0  0  0  0
   -5.7045    0.6954   19.6660 H   0  0  0  0  0  0
   -6.9732    0.2099   17.6055 H   0  0  0  0  0  0
   -3.6683    1.5434   15.2205 H   0  0  0  0  0  0
   -2.4354    2.1289   17.2613 H   0  0  0  0  0  0
  1  2  1  0  0  0
  1 28  1  0  0  0
  1 29  1  0  0  0
  1 30  1  0  0  0
  2  3  2  0  0  0
  2  4  1  0  0  0
  4  9  1  0  0  0
  4  5  2  0  0  0
  5  6  1  0  0  0
  5 31  1  0  0  0
  6  7  2  0  0  0
  6 32  1  0  0  0
  7  8  1  0  0  0
  7 33  1  0  0  0
  8  9  2  0  0  0
  8 10  1  0  0  0
  9 34  1  0  0  0
 10 14  1  0  0  0
 10 11  1  0  0  0
 11 12  2  0  0  0
 11 35  1  0  0  0
 12 13  1  0  0  0
 13 14  2  0  0  0
 13 21  1  0  0  0
 14 15  1  0  0  0
 15 20  1  0  0  0
 15 16  2  0  0  0
 16 17  1  0  0  0
 16 36  1  0  0  0
 17 18  2  0  0  0
 17 37  1  0  0  0
 18 19  1  0  0  0
 19 20  2  0  0  0
 19 38  1  0  0  0
 20 39  1  0  0  0
 21 26  1  0  0  0
 21 22  2  0  0  0
 22 23  1  0  0  0
 22 40  1  0  0  0
 23 24  2  0  0  0
 23 41  1  0  0  0
 24 25  1  0  0  0
 24 27  1  0  0  0
 25 26  2  0  0  0
 25 42  1  0  0  0
 26 43  1  0  0  0
M  END
> <s_m_entry_id>
62542

> <s_m_entry_name>
ligand_docking-pose.202

> <s_m_Source_Path>
/home/csk/Desktop/cluster/DUD-E-result/mk14

> <s_m_Source_File>
ligand_docking-pose.sdf

> <i_m_Source_File_Index>
202

> <i_lp_mmshare_version>
53161

> <r_lp_tautomer_probability>
1

> <s_lp_Force_Field>
OPLS_2005

> <r_lp_Energy>
13.45949

> <b_lp_Chiralities_Consistent>
1

> <s_lp_Variant>
210639-1

> <s_i_glide_gridfile>
glide-grid_2qd9

> <i_i_glide_lignum>
2692

> <i_i_glide_rotatable_bonds>
4

> <r_i_docking_score>
-8.14406669444167

> <r_i_glide_ligand_efficiency>
-0.301632099794136

> <r_i_glide_ligand_efficiency_sa>
-0.904896298388278

> <r_i_glide_ligand_efficiency_ln>
-1.89580446103315

> <r_i_glide_gscore>
-8.14406669444167

> <r_i_glide_lipo>
-3.72192256521317

> <r_i_glide_hbond>
-0.173101827286035

> <r_i_glide_metal>
0

> <r_i_glide_rewards>
-2.33068717127736

> <r_i_glide_evdw>
-38.4128074645996

> <r_i_glide_ecoul>
-2.45992946624756

> <r_i_glide_erotb>
0.407877351591229

> <r_i_glide_esite>
-0.0366026890892152

> <r_i_glide_emodel>
-51.3935592346556

> <r_i_glide_energy>
-40.8727369308472

> <r_i_glide_einternal>
5.69466114044189

> <i_i_glide_confnum>
8

> <i_i_glide_posenum>
161

> <r_i_glide_eff_state_penalty>
0

> <i_f3d_flags>
0

> <s_user_duplicate_titles>
210639

> <s_m_subgroup_title>
dock_pv

> <s_m_subgroupid>
dock_pv1

> <b_m_subgroup_collapsed>
0

$$$$
151687
                    3D
 Schrodinger Suite 2021-1.
 55 59  0  0  1  0            999 V2000
   -0.3768   -0.4107   27.5350 C   0  0  0  0  0  0
   -1.6858   -0.7954   27.2644 C   0  0  0  0  0  0
   -2.0707   -1.1159   25.9629 C   0  0  0  0  0  0
   -1.1278   -1.0879   24.9149 C   0  0  0  0  0  0
    0.2003   -0.7147   25.2020 C   0  0  0  0  0  0
    0.5552   -0.3573   26.5038 C   0  0  0  0  0  0
    1.4165   -0.6476   23.9702 Cl  0  0  0  0  0  0
   -1.5239   -1.3158   23.5671 N   0  0  0  0  0  0
   -1.7773   -0.1992   22.7561 C   0  0  0  0  0  0
   -1.7637    1.1175   23.2356 C   0  0  0  0  0  0
   -2.0350    2.1834   22.3764 C   0  0  0  0  0  0
   -2.4350    1.8542   21.0735 C   0  0  0  0  0  0
   -2.4350    0.5907   20.6048 N   0  0  0  0  0  0
   -2.0869   -0.4120   21.4106 C   0  0  0  0  0  0
   -2.0545   -1.8059   20.8177 C   0  0  0  0  0  0
   -1.6988   -2.8130   21.8160 N   0  0  0  0  0  0
   -1.7301   -2.5957   23.1497 C   0  0  0  0  0  0
   -2.0263   -3.5130   23.8760 O   0  0  0  0  0  0
   -2.8350    3.0652   19.8760 S   0  0  0  0  0  0
   -3.6478    2.0870   18.6044 C   0  0  0  0  0  0
   -4.8350    1.4330   18.9410 C   0  0  0  0  0  0
   -5.6412    0.8870   17.9456 C   0  0  0  0  0  0
   -5.2251    0.8870   16.6168 C   0  0  0  0  0  0
   -4.0087    1.4656   16.2758 C   0  0  0  0  0  0
   -3.2349    2.0870   17.2546 C   0  0  0  0  0  0
   -2.1733    2.8217   16.8444 F   0  0  0  0  0  0
   -5.9992    0.3261   15.6615 F   0  0  0  0  0  0
   -1.8867    3.4931   22.7872 O   0  0  0  0  0  0
   -0.7410    3.7963   23.5999 C   0  0  0  0  0  0
    0.0112    5.0226   23.0652 C   0  0  0  0  0  0
    1.2530    5.3096   23.9333 C   0  0  0  0  0  0
    0.8859    5.4927   25.3409 N   0  0  1  0  0  0
    0.1033    4.3902   25.9077 C   0  0  0  0  0  0
   -1.1459    4.0852   25.0546 C   0  0  0  0  0  0
   -3.7274   -1.5130   25.6888 Cl  0  0  0  0  0  0
   -0.0817   -0.1537   28.5425 H   0  0  0  0  0  0
   -2.4079   -0.8299   28.0673 H   0  0  0  0  0  0
    1.5650   -0.0545   26.7288 H   0  0  0  0  0  0
   -1.5145    1.3240   24.2638 H   0  0  0  0  0  0
   -1.3261   -1.8469   20.0063 H   0  0  0  0  0  0
   -3.0268   -2.0620   20.3922 H   0  0  0  0  0  0
   -1.6852   -3.7729   21.5071 H   0  0  0  0  0  0
   -5.1843    1.4279   19.9638 H   0  0  0  0  0  0
   -6.5866    0.4306   18.2040 H   0  0  0  0  0  0
   -3.6974    1.4926   15.2417 H   0  0  0  0  0  0
   -0.0197    2.9736   23.5937 H   0  0  0  0  0  0
    0.3329    4.8496   22.0368 H   0  0  0  0  0  0
   -0.6125    5.9159   23.0761 H   0  0  0  0  0  0
    1.9650    4.4848   23.8623 H   0  0  0  0  0  0
    1.7642    6.2056   23.5785 H   0  0  0  0  0  0
    1.7193    5.6397   25.8959 H   0  0  0  0  0  0
    0.7425    3.5071   25.9736 H   0  0  0  0  0  0
   -0.1891    4.6508   26.9259 H   0  0  0  0  0  0
   -1.8220    4.9378   25.1207 H   0  0  0  0  0  0
   -1.6617    3.2294   25.4885 H   0  0  0  0  0  0
  1  6  1  0  0  0
  1  2  2  0  0  0
  1 36  1  0  0  0
  2  3  1  0  0  0
  2 37  1  0  0  0
  3  4  2  0  0  0
  3 35  1  0  0  0
  4  5  1  0  0  0
  4  8  1  0  0  0
  5  6  2  0  0  0
  5  7  1  0  0  0
  6 38  1  0  0  0
  8 17  1  0  0  0
  8  9  1  0  0  0
  9 14  2  0  0  0
  9 10  1  0  0  0
 10 11  2  0  0  0
 10 39  1  0  0  0
 11 12  1  0  0  0
 11 28  1  0  0  0
 12 13  2  0  0  0
 12 19  1  0  0  0
 13 14  1  0  0  0
 14 15  1  0  0  0
 15 16  1  0  0  0
 15 40  1  0  0  0
 15 41  1  0  0  0
 16 17  1  0  0  0
 16 42  1  0  0  0
 17 18  2  0  0  0
 19 20  1  0  0  0
 20 25  1  0  0  0
 20 21  2  0  0  0
 21 22  1  0  0  0
 21 43  1  0  0  0
 22 23  2  0  0  0
 22 44  1  0  0  0
 23 24  1  0  0  0
 23 27  1  0  0  0
 24 25  2  0  0  0
 24 45  1  0  0  0
 25 26  1  0  0  0
 28 29  1  0  0  0
 29 34  1  0  0  0
 29 30  1  0  0  0
 29 46  1  0  0  0
 30 31  1  0  0  0
 30 47  1  0  0  0
 30 48  1  0  0  0
 31 32  1  0  0  0
 31 49  1  0  0  0
 31 50  1  0  0  0
 32 33  1  0  0  0
 32 51  1  0  0  0
 33 34  1  0  0  0
 33 52  1  0  0  0
 33 53  1  0  0  0
 34 54  1  0  0  0
 34 55  1  0  0  0
M  END
> <s_m_entry_id>
62543

> <s_m_entry_name>
ligand_docking-pose.203

> <s_m_Source_Path>
/home/csk/Desktop/cluster/DUD-E-result/mk14

> <s_m_Source_File>
ligand_docking-pose.sdf

> <i_m_Source_File_Index>
203

> <i_lp_mmshare_version>
53161

> <r_lp_tautomer_probability>
1

> <s_lp_Force_Field>
OPLS_2005

> <r_lp_Energy>
55.381462

> <b_lp_Chiralities_Consistent>
1

> <s_lp_Variant>
151687-1

> <s_i_glide_gridfile>
glide-grid_2qd9

> <i_i_glide_lignum>
459

> <i_i_glide_rotatable_bonds>
5

> <r_i_docking_score>
-8.14070961253177

> <r_i_glide_ligand_efficiency>
-0.232591703215193

> <r_i_glide_ligand_efficiency_sa>
-0.760822883514938

> <r_i_glide_ligand_efficiency_ln>
-1.78706643326615

> <r_i_glide_gscore>
-8.14070961253177

> <r_i_glide_lipo>
-3.23439858489397

> <r_i_glide_hbond>
-0.501285015727946

> <r_i_glide_metal>
0

> <r_i_glide_rewards>
-1.1692567708217

> <r_i_glide_evdw>
-38.4315795898438

> <r_i_glide_ecoul>
-10.8807334899902

> <r_i_glide_erotb>
0.357612225527132

> <r_i_glide_esite>
-0.0396924636245554

> <r_i_glide_emodel>
-63.7852574426736

> <r_i_glide_energy>
-49.312313079834

> <r_i_glide_einternal>
2.3932409286499

> <i_i_glide_confnum>
8

> <i_i_glide_posenum>
69

> <r_i_glide_eff_state_penalty>
0

> <i_f3d_flags>
0

> <s_user_duplicate_titles>
151687

> <s_m_subgroup_title>
dock_pv

> <s_m_subgroupid>
dock_pv1

> <b_m_subgroup_collapsed>
0

$$$$
648412
                    3D
 Schrodinger Suite 2021-1.
 42 44  0  0  1  0            999 V2000
   -6.2203    0.5383   19.1458 C   0  0  0  0  0  0
   -5.3160    0.8871   17.9711 C   0  0  0  0  0  0
   -5.8333    0.7588   16.6789 C   0  0  0  0  0  0
   -5.0593    1.0570   15.5643 C   0  0  0  0  0  0
   -3.7601    1.5214   15.7341 C   0  0  0  0  0  0
   -3.2350    1.6805   17.0136 C   0  0  0  0  0  0
   -3.9952    1.3445   18.1485 C   0  0  0  0  0  0
   -3.4185    1.5130   19.5196 C   0  0  0  0  0  0
   -3.2338    2.6355   19.9913 O   0  0  0  0  0  0
   -3.0373    0.3016   20.2543 C   0  0  0  0  0  0
   -2.8544    0.1365   21.6429 C   0  0  0  0  0  0
   -2.5632   -1.2108   21.9170 C   0  0  0  0  0  0
   -2.4970   -1.8377   20.6988 N   0  0  0  0  0  0
   -2.7610   -0.9391   19.7022 C   0  0  0  0  0  0
   -2.3426   -1.9214   23.1513 C   0  0  0  0  0  0
   -2.0348   -3.1149   23.1520 O   0  0  0  0  0  0
   -2.5004   -1.1897   24.2687 N   0  0  0  0  0  0
   -2.3066   -1.7023   25.6291 C   0  0  0  0  0  0
   -1.3720   -0.8749   26.5090 C   0  0  0  0  0  0
   -1.6671   -0.7162   27.8708 C   0  0  0  0  0  0
   -0.8025   -0.0069   28.7053 C   0  0  0  0  0  0
    0.3642    0.5546   28.1913 C   0  0  0  0  0  0
    0.6651    0.4027   26.8402 C   0  0  0  0  0  0
   -0.1846   -0.3205   26.0034 C   0  0  0  0  0  0
    0.1642   -0.4790   24.7049 F   0  0  0  0  0  0
   -2.7897   -1.2573   28.3970 F   0  0  0  0  0  0
   -2.2935   -2.8189   20.5640 H   0  0  0  0  0  0
   -6.2756    1.3509   19.8706 H   0  0  0  0  0  0
   -7.2352    0.3008   18.8258 H   0  0  0  0  0  0
   -5.8048   -0.3132   19.6658 H   0  0  0  0  0  0
   -6.8347    0.3841   16.5317 H   0  0  0  0  0  0
   -5.4710    0.9185   14.5765 H   0  0  0  0  0  0
   -3.1584    1.7604   14.8715 H   0  0  0  0  0  0
   -2.2240    2.0559   17.0764 H   0  0  0  0  0  0
   -2.9664    0.9217   22.3777 H   0  0  0  0  0  0
   -2.7232   -1.2609   18.6761 H   0  0  0  0  0  0
   -2.8259   -0.2403   24.1820 H   0  0  0  0  0  0
   -3.2944   -1.7814   26.0857 H   0  0  0  0  0  0
   -1.9058   -2.7135   25.6264 H   0  0  0  0  0  0
   -1.0348    0.1028   29.7532 H   0  0  0  0  0  0
    1.0418    1.1017   28.8323 H   0  0  0  0  0  0
    1.5650    0.8427   26.4363 H   0  0  0  0  0  0
  1  2  1  0  0  0
  1 28  1  0  0  0
  1 29  1  0  0  0
  1 30  1  0  0  0
  2  7  1  0  0  0
  2  3  2  0  0  0
  3  4  1  0  0  0
  3 31  1  0  0  0
  4  5  2  0  0  0
  4 32  1  0  0  0
  5  6  1  0  0  0
  5 33  1  0  0  0
  6  7  2  0  0  0
  6 34  1  0  0  0
  7  8  1  0  0  0
  8  9  2  0  0  0
  8 10  1  0  0  0
 10 14  2  0  0  0
 10 11  1  0  0  0
 11 12  2  0  0  0
 11 35  1  0  0  0
 12 13  1  0  0  0
 12 15  1  0  0  0
 13 27  1  0  0  0
 13 14  1  0  0  0
 14 36  1  0  0  0
 15 16  2  0  0  0
 15 17  1  0  0  0
 17 18  1  0  0  0
 17 37  1  0  0  0
 18 19  1  0  0  0
 18 38  1  0  0  0
 18 39  1  0  0  0
 19 24  1  0  0  0
 19 20  2  0  0  0
 20 21  1  0  0  0
 20 26  1  0  0  0
 21 22  2  0  0  0
 21 40  1  0  0  0
 22 23  1  0  0  0
 22 41  1  0  0  0
 23 24  2  0  0  0
 23 42  1  0  0  0
 24 25  1  0  0  0
M  END
> <s_m_entry_id>
62544

> <s_m_entry_name>
ligand_docking-pose.204

> <s_m_Source_Path>
/home/csk/Desktop/cluster/DUD-E-result/mk14

> <s_m_Source_File>
ligand_docking-pose.sdf

> <i_m_Source_File_Index>
204

> <i_lp_mmshare_version>
53161

> <r_lp_tautomer_probability>
1

> <s_lp_Force_Field>
OPLS_2005

> <r_lp_Energy>
21.192675

> <b_lp_Chiralities_Consistent>
1

> <s_lp_Variant>
648412-1

> <s_i_glide_gridfile>
glide-grid_2qd9

> <i_i_glide_lignum>
924

> <i_i_glide_rotatable_bonds>
6

> <r_i_docking_score>
-8.13666521716227

> <r_i_glide_ligand_efficiency>
-0.312948662198549

> <r_i_glide_ligand_efficiency_sa>
-0.927109180369677

> <r_i_glide_ligand_efficiency_ln>
-1.91086912767435

> <r_i_glide_gscore>
-8.13666521716227

> <r_i_glide_lipo>
-3.3604119091199

> <r_i_glide_hbond>
-0.422458982560203

> <r_i_glide_metal>
0

> <r_i_glide_rewards>
-1.90947628884772

> <r_i_glide_evdw>
-41.8234252929688

> <r_i_glide_ecoul>
-7.42680835723877

> <r_i_glide_erotb>
0.760874481599809

> <r_i_glide_esite>
0

> <r_i_glide_emodel>
-69.7963972347451

> <r_i_glide_energy>
-49.2502336502075

> <r_i_glide_einternal>
7.4748706817627

> <i_i_glide_confnum>
23

> <i_i_glide_posenum>
381

> <r_i_glide_eff_state_penalty>
0

> <i_f3d_flags>
0

> <s_user_duplicate_titles>
648412

> <s_m_subgroup_title>
dock_pv

> <s_m_subgroupid>
dock_pv1

> <b_m_subgroup_collapsed>
0

$$$$
150501
                    3D
 Schrodinger Suite 2021-1.
 58 62  0  0  1  0            999 V2000
   -2.4319    4.9466   26.7130 C   0  0  0  0  0  0
   -1.7377    4.0631   25.6718 C   0  0  1  0  0  0
   -2.6319    3.6870   24.4418 C   0  0  0  0  0  0
   -1.9908    3.4115   23.1316 N   0  0  0  0  0  0
   -0.6825    4.0896   23.0722 C   0  0  0  0  0  0
    0.2345    3.9073   24.2936 C   0  0  1  0  0  0
   -0.4148    4.5285   25.3917 O   0  0  0  0  0  0
    0.7708    2.5026   24.6070 C   0  0  0  0  0  0
   -2.1178    2.1510   22.5539 C   0  0  0  0  0  0
   -1.8524    1.0521   23.3614 C   0  0  0  0  0  0
   -1.7684   -0.2304   22.8239 C   0  0  0  0  0  0
   -1.9966   -0.3994   21.4579 C   0  0  0  0  0  0
   -2.3333    0.6249   20.6762 N   0  0  0  0  0  0
   -2.4039    1.8669   21.1940 C   0  0  0  0  0  0
   -2.8355    3.0668   19.9877 S   0  0  0  0  0  0
   -3.4542    2.0908   18.6055 C   0  0  0  0  0  0
   -2.8354    2.2436   17.3431 C   0  0  0  0  0  0
   -3.4158    1.6865   16.2038 C   0  0  0  0  0  0
   -4.6324    1.0154   16.3011 C   0  0  0  0  0  0
   -5.2592    0.8869   17.5395 C   0  0  0  0  0  0
   -4.6607    1.3837   18.6947 C   0  0  0  0  0  0
   -5.3094    1.2573   19.8738 F   0  0  0  0  0  0
   -5.2158    0.5032   15.1944 F   0  0  0  0  0  0
   -1.8954   -1.7718   20.8212 C   0  0  0  0  0  0
   -1.6420   -2.8138   21.8158 N   0  0  0  0  0  0
   -1.7006   -2.6161   23.1536 C   0  0  0  0  0  0
   -2.0351   -3.5129   23.8757 O   0  0  0  0  0  0
   -1.5170   -1.3549   23.6111 N   0  0  0  0  0  0
   -1.2206   -1.1734   24.9930 C   0  0  0  0  0  0
   -2.2466   -1.1879   25.9615 C   0  0  0  0  0  0
   -1.9519   -0.9259   27.2992 C   0  0  0  0  0  0
   -0.6488   -0.6274   27.6869 C   0  0  0  0  0  0
    0.3679   -0.6089   26.7372 C   0  0  0  0  0  0
    0.0973   -0.8970   25.3988 C   0  0  0  0  0  0
    1.4122   -0.8722   24.2740 Cl  0  0  0  0  0  0
   -3.8918   -1.5120   25.5427 Cl  0  0  0  0  0  0
   -3.4369    4.5877   26.9328 H   0  0  0  0  0  0
   -1.8733    4.9577   27.6487 H   0  0  0  0  0  0
   -2.5116    5.9749   26.3626 H   0  0  0  0  0  0
   -1.5519    3.1096   26.1689 H   0  0  0  0  0  0
   -3.3575    4.4825   24.2917 H   0  0  0  0  0  0
   -3.2602    2.8393   24.7226 H   0  0  0  0  0  0
   -0.1507    3.9747   22.1283 H   0  0  0  0  0  0
   -0.8700    5.1631   23.0764 H   0  0  0  0  0  0
    1.1195    4.5250   24.1298 H   0  0  0  0  0  0
    0.9925    1.9497   23.6937 H   0  0  0  0  0  0
    1.7009    2.5687   25.1740 H   0  0  0  0  0  0
    0.0945    1.9199   25.2227 H   0  0  0  0  0  0
   -1.6973    1.2051   24.4150 H   0  0  0  0  0  0
   -1.9695    2.8845   17.2263 H   0  0  0  0  0  0
   -2.9519    1.8194   15.2365 H   0  0  0  0  0  0
   -6.2142    0.3852   17.6034 H   0  0  0  0  0  0
   -2.8220   -2.0113   20.2936 H   0  0  0  0  0  0
   -1.0891   -1.7835   20.0845 H   0  0  0  0  0  0
   -1.6134   -3.7666   21.4870 H   0  0  0  0  0  0
   -2.7366   -0.9462   28.0405 H   0  0  0  0  0  0
   -0.4233   -0.4197   28.7234 H   0  0  0  0  0  0
    1.3778   -0.3779   27.0455 H   0  0  0  0  0  0
  1  2  1  0  0  0
  1 37  1  0  0  0
  1 38  1  0  0  0
  1 39  1  0  0  0
  2  7  1  0  0  0
  2  3  1  0  0  0
  2 40  1  0  0  0
  3  4  1  0  0  0
  3 41  1  0  0  0
  3 42  1  0  0  0
  4  5  1  0  0  0
  4  9  1  0  0  0
  5  6  1  0  0  0
  5 43  1  0  0  0
  5 44  1  0  0  0
  6  7  1  0  0  0
  6  8  1  0  0  0
  6 45  1  0  0  0
  8 46  1  0  0  0
  8 47  1  0  0  0
  8 48  1  0  0  0
  9 14  1  0  0  0
  9 10  2  0  0  0
 10 11  1  0  0  0
 10 49  1  0  0  0
 11 28  1  0  0  0
 11 12  2  0  0  0
 12 13  1  0  0  0
 12 24  1  0  0  0
 13 14  2  0  0  0
 14 15  1  0  0  0
 15 16  1  0  0  0
 16 21  1  0  0  0
 16 17  2  0  0  0
 17 18  1  0  0  0
 17 50  1  0  0  0
 18 19  2  0  0  0
 18 51  1  0  0  0
 19 20  1  0  0  0
 19 23  1  0  0  0
 20 21  2  0  0  0
 20 52  1  0  0  0
 21 22  1  0  0  0
 24 25  1  0  0  0
 24 53  1  0  0  0
 24 54  1  0  0  0
 25 26  1  0  0  0
 25 55  1  0  0  0
 26 27  2  0  0  0
 26 28  1  0  0  0
 28 29  1  0  0  0
 29 34  1  0  0  0
 29 30  2  0  0  0
 30 31  1  0  0  0
 30 36  1  0  0  0
 31 32  2  0  0  0
 31 56  1  0  0  0
 32 33  1  0  0  0
 32 57  1  0  0  0
 33 34  2  0  0  0
 33 58  1  0  0  0
 34 35  1  0  0  0
M  END
> <s_m_entry_id>
62547

> <s_m_entry_name>
ligand_docking-pose.207

> <s_m_Source_Path>
/home/csk/Desktop/cluster/DUD-E-result/mk14

> <s_m_Source_File>
ligand_docking-pose.sdf

> <i_m_Source_File_Index>
207

> <i_lp_mmshare_version>
53161

> <r_lp_tautomer_probability>
1

> <s_lp_Force_Field>
OPLS_2005

> <r_lp_Energy>
62.148049

> <b_lp_Chiralities_Consistent>
1

> <s_lp_Variant>
150501-2

> <s_i_glide_gridfile>
glide-grid_2qd9

> <i_i_glide_lignum>
1321

> <i_i_glide_rotatable_bonds>
4

> <r_i_docking_score>
-8.11391972088015

> <r_i_glide_ligand_efficiency>
-0.225386658913338

> <r_i_glide_ligand_efficiency_sa>
-0.744210349714304

> <r_i_glide_ligand_efficiency_ln>
-1.77023807031835

> <r_i_glide_gscore>
-8.11391972088015

> <r_i_glide_lipo>
-2.91786628726918

> <r_i_glide_hbond>
-0.503113086315019

> <r_i_glide_metal>
0

> <r_i_glide_rewards>
-1.59569828197226

> <r_i_glide_evdw>
-36.498836517334

> <r_i_glide_ecoul>
-9.5264139175415

> <r_i_glide_erotb>
0.202648248755914

> <r_i_glide_esite>
-0.0459864005816824

> <r_i_glide_emodel>
-48.277594901921

> <r_i_glide_energy>
-46.0252504348755

> <r_i_glide_einternal>
6.85233736038208

> <i_i_glide_confnum>
8

> <i_i_glide_posenum>
96

> <r_i_glide_eff_state_penalty>
0

> <i_f3d_flags>
0

> <s_user_duplicate_titles>
150501

> <s_m_subgroup_title>
dock_pv

> <s_m_subgroupid>
dock_pv1

> <b_m_subgroup_collapsed>
0

$$$$
648449
                    3D
 Schrodinger Suite 2021-1.
 44 45  0  0  1  0            999 V2000
   -2.8185   -1.8426   26.5188 C   0  0  0  0  0  0
   -1.5150   -1.3607   25.8358 C   0  0  2  0  0  0
   -0.7839   -0.1839   26.5814 C   0  0  0  0  0  0
   -1.6131    1.1261   26.5419 C   0  0  0  0  0  0
    0.5869    0.0891   25.9077 C   0  0  0  0  0  0
   -0.5122   -0.5404   28.0633 C   0  0  0  0  0  0
   -1.7790   -1.0243   24.4316 N   0  0  0  0  0  0
   -2.0322   -1.8857   23.4327 C   0  0  0  0  0  0
   -2.0349   -3.1130   23.5565 O   0  0  0  0  0  0
   -2.3609   -1.2526   22.1832 C   0  0  0  0  0  0
   -2.5063    0.1000   21.8364 C   0  0  0  0  0  0
   -2.9238    0.2034   20.4954 C   0  0  0  0  0  0
   -2.9746   -1.1054   20.0357 C   0  0  0  0  0  0
   -2.6451   -1.9644   21.0465 N   0  0  0  0  0  0
   -3.2350    1.4294   19.7487 C   0  0  0  0  0  0
   -2.9332    2.5352   20.2039 O   0  0  0  0  0  0
   -3.8890    1.3046   18.4080 C   0  0  0  0  0  0
   -3.2345    1.6891   17.2241 C   0  0  0  0  0  0
   -3.8672    1.6356   15.9859 C   0  0  0  0  0  0
   -5.1825    1.2061   15.9092 C   0  0  0  0  0  0
   -5.8474    0.8481   17.0763 C   0  0  0  0  0  0
   -5.2202    0.8870   18.3191 C   0  0  0  0  0  0
   -5.9157    0.5085   19.4188 F   0  0  0  0  0  0
   -2.6313   -2.9736   20.9738 H   0  0  0  0  0  0
   -2.6480   -2.1388   27.5532 H   0  0  0  0  0  0
   -3.5802   -1.0636   26.5342 H   0  0  0  0  0  0
   -3.2350   -2.7130   26.0128 H   0  0  0  0  0  0
   -0.8256   -2.2104   25.8435 H   0  0  0  0  0  0
   -1.0964    1.9375   27.0569 H   0  0  0  0  0  0
   -2.5822    1.0084   27.0274 H   0  0  0  0  0  0
   -1.7986    1.4652   25.5226 H   0  0  0  0  0  0
    1.2087   -0.8065   25.8893 H   0  0  0  0  0  0
    0.4792    0.4259   24.8761 H   0  0  0  0  0  0
    1.1527    0.8595   26.4348 H   0  0  0  0  0  0
   -0.0350   -1.5130   28.1577 H   0  0  0  0  0  0
    0.1452    0.1877   28.5417 H   0  0  0  0  0  0
   -1.4271   -0.5688   28.6554 H   0  0  0  0  0  0
   -1.6536   -0.0549   24.1900 H   0  0  0  0  0  0
   -2.3594    0.9420   22.4979 H   0  0  0  0  0  0
   -3.2349   -1.5072   19.0760 H   0  0  0  0  0  0
   -2.2254    2.0597   17.2080 H   0  0  0  0  0  0
   -3.3383    1.9289   15.0897 H   0  0  0  0  0  0
   -5.6729    1.1374   14.9507 H   0  0  0  0  0  0
   -6.8350    0.4534   17.0175 H   0  0  0  0  0  0
  1  2  1  0  0  0
  1 25  1  0  0  0
  1 26  1  0  0  0
  1 27  1  0  0  0
  2  3  1  0  0  0
  2  7  1  0  0  0
  2 28  1  0  0  0
  3  4  1  0  0  0
  3  5  1  0  0  0
  3  6  1  0  0  0
  4 29  1  0  0  0
  4 30  1  0  0  0
  4 31  1  0  0  0
  5 32  1  0  0  0
  5 33  1  0  0  0
  5 34  1  0  0  0
  6 35  1  0  0  0
  6 36  1  0  0  0
  6 37  1  0  0  0
  7  8  1  0  0  0
  7 38  1  0  0  0
  8  9  2  0  0  0
  8 10  1  0  0  0
 10 14  1  0  0  0
 10 11  2  0  0  0
 11 12  1  0  0  0
 11 39  1  0  0  0
 12 13  2  0  0  0
 12 15  1  0  0  0
 13 14  1  0  0  0
 13 40  1  0  0  0
 14 24  1  0  0  0
 15 16  2  0  0  0
 15 17  1  0  0  0
 17 22  1  0  0  0
 17 18  2  0  0  0
 18 19  1  0  0  0
 18 41  1  0  0  0
 19 20  2  0  0  0
 19 42  1  0  0  0
 20 21  1  0  0  0
 20 43  1  0  0  0
 21 22  2  0  0  0
 21 44  1  0  0  0
 22 23  1  0  0  0
M  END
> <s_m_entry_id>
62548

> <s_m_entry_name>
ligand_docking-pose.208

> <s_m_Source_Path>
/home/csk/Desktop/cluster/DUD-E-result/mk14

> <s_m_Source_File>
ligand_docking-pose.sdf

> <i_m_Source_File_Index>
208

> <i_lp_mmshare_version>
53161

> <r_lp_tautomer_probability>
1

> <s_lp_Force_Field>
OPLS_2005

> <r_lp_Energy>
21.496516

> <b_lp_Chiralities_Consistent>
1

> <s_lp_Variant>
648449-1

> <s_i_glide_gridfile>
glide-grid_2qd9

> <i_i_glide_lignum>
1704

> <i_i_glide_rotatable_bonds>
6

> <r_i_docking_score>
-8.11388358719092

> <r_i_glide_ligand_efficiency>
-0.352777547269171

> <r_i_glide_ligand_efficiency_sa>
-1.00325241686326

> <r_i_glide_ligand_efficiency_ln>
-1.96201062401146

> <r_i_glide_gscore>
-8.11388358719092

> <r_i_glide_lipo>
-3.1162010065163

> <r_i_glide_hbond>
-0.494976495240497

> <r_i_glide_metal>
0

> <r_i_glide_rewards>
-2.37812038371303

> <r_i_glide_evdw>
-37.7172966003418

> <r_i_glide_ecoul>
-7.79116630554199

> <r_i_glide_erotb>
0.929954074127288

> <r_i_glide_esite>
0

> <r_i_glide_emodel>
-64.8482227843397

> <r_i_glide_energy>
-45.5084629058838

> <r_i_glide_einternal>
4.75618028640747

> <i_i_glide_confnum>
51

> <i_i_glide_posenum>
151

> <r_i_glide_eff_state_penalty>
0

> <i_f3d_flags>
0

> <s_user_duplicate_titles>
648449

> <s_m_subgroup_title>
dock_pv

> <s_m_subgroupid>
dock_pv1

> <b_m_subgroup_collapsed>
0

$$$$
648413
                    3D
 Schrodinger Suite 2021-1.
 42 44  0  0  1  0            999 V2000
   -6.3454    0.4947   18.9580 C   0  0  0  0  0  0
   -5.4126    0.8867   17.8193 C   0  0  0  0  0  0
   -5.7858    0.4935   16.5315 C   0  0  0  0  0  0
   -4.9078    0.6352   15.4689 C   0  0  0  0  0  0
   -3.6849    1.2741   15.6582 C   0  0  0  0  0  0
   -3.3035    1.6868   16.9351 C   0  0  0  0  0  0
   -4.1406    1.4491   18.0348 C   0  0  0  0  0  0
   -3.6348    1.7057   19.4124 C   0  0  0  0  0  0
   -3.5233    2.8444   19.8686 O   0  0  0  0  0  0
   -3.2003    0.5454   20.1825 C   0  0  0  0  0  0
   -3.0440    0.4734   21.5727 C   0  0  0  0  0  0
   -2.5940   -0.7959   21.9182 C   0  0  0  0  0  0
   -2.4748   -1.5074   20.7484 N   0  0  0  0  0  0
   -2.8362   -0.7065   19.6975 C   0  0  0  0  0  0
   -2.3071   -1.2935   23.2240 C   0  0  0  0  0  0
   -3.0306   -1.0283   24.1831 O   0  0  0  0  0  0
   -1.1543   -1.9800   23.2984 N   0  0  0  0  0  0
   -0.5087   -2.3401   24.5597 C   0  0  0  0  0  0
   -0.0679   -1.1266   25.3782 C   0  0  0  0  0  0
    0.7883   -0.1646   24.8241 C   0  0  0  0  0  0
    1.1639    0.9531   25.5675 C   0  0  0  0  0  0
    0.7139    1.1035   26.8778 C   0  0  0  0  0  0
   -0.1400    0.1505   27.4332 C   0  0  0  0  0  0
   -0.5397   -0.9552   26.6839 C   0  0  0  0  0  0
   -1.3949   -1.8544   27.2252 F   0  0  0  0  0  0
    1.2623   -0.3095   23.5635 F   0  0  0  0  0  0
   -5.2297    0.0870   14.2765 F   0  0  0  0  0  0
   -2.1776   -2.4713   20.6758 H   0  0  0  0  0  0
   -6.4601    1.2870   19.6929 H   0  0  0  0  0  0
   -7.3357    0.2380   18.5889 H   0  0  0  0  0  0
   -5.9383   -0.3704   19.4741 H   0  0  0  0  0  0
   -6.7228   -0.0169   16.3634 H   0  0  0  0  0  0
   -3.0122    1.4014   14.8245 H   0  0  0  0  0  0
   -2.3309    2.1390   17.0630 H   0  0  0  0  0  0
   -3.2356    1.2773   22.2694 H   0  0  0  0  0  0
   -2.7854   -1.0834   18.6871 H   0  0  0  0  0  0
   -0.5571   -1.9681   22.4855 H   0  0  0  0  0  0
   -1.1654   -2.9912   25.1363 H   0  0  0  0  0  0
    0.3770   -2.9322   24.3275 H   0  0  0  0  0  0
    1.8326    1.6865   25.1379 H   0  0  0  0  0  0
    1.0335    1.9529   27.4626 H   0  0  0  0  0  0
   -0.4953    0.2676   28.4457 H   0  0  0  0  0  0
  1  2  1  0  0  0
  1 29  1  0  0  0
  1 30  1  0  0  0
  1 31  1  0  0  0
  2  7  1  0  0  0
  2  3  2  0  0  0
  3  4  1  0  0  0
  3 32  1  0  0  0
  4  5  2  0  0  0
  4 27  1  0  0  0
  5  6  1  0  0  0
  5 33  1  0  0  0
  6  7  2  0  0  0
  6 34  1  0  0  0
  7  8  1  0  0  0
  8  9  2  0  0  0
  8 10  1  0  0  0
 10 14  2  0  0  0
 10 11  1  0  0  0
 11 12  2  0  0  0
 11 35  1  0  0  0
 12 13  1  0  0  0
 12 15  1  0  0  0
 13 28  1  0  0  0
 13 14  1  0  0  0
 14 36  1  0  0  0
 15 16  2  0  0  0
 15 17  1  0  0  0
 17 18  1  0  0  0
 17 37  1  0  0  0
 18 19  1  0  0  0
 18 38  1  0  0  0
 18 39  1  0  0  0
 19 24  1  0  0  0
 19 20  2  0  0  0
 20 21  1  0  0  0
 20 26  1  0  0  0
 21 22  2  0  0  0
 21 40  1  0  0  0
 22 23  1  0  0  0
 22 41  1  0  0  0
 23 24  2  0  0  0
 23 42  1  0  0  0
 24 25  1  0  0  0
M  END
> <s_m_entry_id>
62555

> <s_m_entry_name>
ligand_docking-pose.215

> <s_m_Source_Path>
/home/csk/Desktop/cluster/DUD-E-result/mk14

> <s_m_Source_File>
ligand_docking-pose.sdf

> <i_m_Source_File_Index>
215

> <i_lp_mmshare_version>
53161

> <r_lp_tautomer_probability>
1

> <s_lp_Force_Field>
OPLS_2005

> <r_lp_Energy>
21.274779

> <b_lp_Chiralities_Consistent>
1

> <s_lp_Variant>
648413-1

> <s_i_glide_gridfile>
glide-grid_2qd9

> <i_i_glide_lignum>
925

> <i_i_glide_rotatable_bonds>
6

> <r_i_docking_score>
-8.06744240989502

> <r_i_glide_ligand_efficiency>
-0.298794163329445

> <r_i_glide_ligand_efficiency_sa>
-0.896382489003559

> <r_i_glide_ligand_efficiency_ln>
-1.87796759084075

> <r_i_glide_gscore>
-8.06744240989502

> <r_i_glide_lipo>
-3.79737064503344

> <r_i_glide_hbond>
0

> <r_i_glide_metal>
0

> <r_i_glide_rewards>
-2.31153395207146

> <r_i_glide_evdw>
-41.0698127746582

> <r_i_glide_ecoul>
-4.01052284240723

> <r_i_glide_erotb>
0.696531252303868

> <r_i_glide_esite>
0

> <r_i_glide_emodel>
-57.3985250227043

> <r_i_glide_energy>
-45.0803356170654

> <r_i_glide_einternal>
11.4088039398193

> <i_i_glide_confnum>
23

> <i_i_glide_posenum>
216

> <r_i_glide_eff_state_penalty>
0

> <i_f3d_flags>
0

> <s_user_duplicate_titles>
648413

> <s_m_subgroup_title>
dock_pv

> <s_m_subgroupid>
dock_pv1

> <b_m_subgroup_collapsed>
0

$$$$
377183
                    3D
 Schrodinger Suite 2021-1.
 37 40  0  0  1  0            999 V2000
   -6.0781    0.4870   19.2009 C   0  0  0  0  0  0
   -5.2223    0.8870   18.0157 C   0  0  0  0  0  0
   -5.8075    0.8870   16.7487 C   0  0  0  0  0  0
   -5.0759    1.2476   15.6263 C   0  0  0  0  0  0
   -3.7478    1.6283   15.7641 C   0  0  0  0  0  0
   -3.1615    1.6499   17.0242 C   0  0  0  0  0  0
   -3.8789    1.2749   18.1715 C   0  0  0  0  0  0
   -3.2362    1.3388   19.5135 C   0  0  0  0  0  0
   -2.9150    0.2261   20.3124 C   0  0  0  0  0  0
   -2.4043    0.4551   21.5600 C   0  0  0  0  0  0
   -2.1495    1.6862   22.0660 N   0  0  0  0  0  0
   -2.4350    2.7045   21.2140 C   0  0  0  0  0  0
   -2.9817    2.6015   19.9694 N   0  0  0  0  0  0
   -2.2130   -0.7715   22.1589 N   0  0  0  0  0  0
   -2.5058   -1.7721   21.2859 C   0  0  0  0  0  0
   -2.4108   -2.9850   21.4760 O   0  0  0  0  0  0
   -2.9576   -1.1443   20.1726 N   0  0  0  0  0  0
   -1.9032   -0.9532   23.5144 C   0  0  0  0  0  0
   -0.5719   -0.9390   23.9483 C   0  0  0  0  0  0
   -0.2783   -1.1439   25.2965 C   0  0  0  0  0  0
   -1.3075   -1.3519   26.2154 C   0  0  0  0  0  0
   -2.6361   -1.3430   25.7881 C   0  0  0  0  0  0
   -2.9364   -1.1367   24.4412 C   0  0  0  0  0  0
   -4.2280   -1.1130   24.0375 F   0  0  0  0  0  0
    0.4355   -0.7130   23.0760 F   0  0  0  0  0  0
   -3.2482   -1.6361   19.3404 H   0  0  0  0  0  0
   -5.5905   -0.3130   19.7483 H   0  0  0  0  0  0
   -6.1974    1.3297   19.8760 H   0  0  0  0  0  0
   -7.0644    0.1358   18.8995 H   0  0  0  0  0  0
   -6.8350    0.5855   16.6276 H   0  0  0  0  0  0
   -5.5449    1.2291   14.6572 H   0  0  0  0  0  0
   -3.1686    1.9104   14.8983 H   0  0  0  0  0  0
   -2.1311    1.9650   17.0760 H   0  0  0  0  0  0
   -2.1846    3.6870   21.5663 H   0  0  0  0  0  0
    0.7506   -1.1394   25.6282 H   0  0  0  0  0  0
   -1.0737   -1.5130   27.2585 H   0  0  0  0  0  0
   -3.4340   -1.4927   26.5006 H   0  0  0  0  0  0
  1  2  1  0  0  0
  1 27  1  0  0  0
  1 28  1  0  0  0
  1 29  1  0  0  0
  2  7  1  0  0  0
  2  3  2  0  0  0
  3  4  1  0  0  0
  3 30  1  0  0  0
  4  5  2  0  0  0
  4 31  1  0  0  0
  5  6  1  0  0  0
  5 32  1  0  0  0
  6  7  2  0  0  0
  6 33  1  0  0  0
  7  8  1  0  0  0
  8 13  1  0  0  0
  8  9  2  0  0  0
  9 17  1  0  0  0
  9 10  1  0  0  0
 10 11  2  0  0  0
 10 14  1  0  0  0
 11 12  1  0  0  0
 12 13  2  0  0  0
 12 34  1  0  0  0
 14 15  1  0  0  0
 14 18  1  0  0  0
 15 16  2  0  0  0
 15 17  1  0  0  0
 17 26  1  0  0  0
 18 23  1  0  0  0
 18 19  2  0  0  0
 19 20  1  0  0  0
 19 25  1  0  0  0
 20 21  2  0  0  0
 20 35  1  0  0  0
 21 22  1  0  0  0
 21 36  1  0  0  0
 22 23  2  0  0  0
 22 37  1  0  0  0
 23 24  1  0  0  0
M  END
> <s_m_entry_id>
62556

> <s_m_entry_name>
ligand_docking-pose.216

> <s_m_Source_Path>
/home/csk/Desktop/cluster/DUD-E-result/mk14

> <s_m_Source_File>
ligand_docking-pose.sdf

> <i_m_Source_File_Index>
216

> <i_lp_mmshare_version>
53161

> <r_lp_tautomer_probability>
0.999998935671072

> <s_lp_Force_Field>
OPLS_2005

> <r_lp_Energy>
47.996335

> <b_lp_Chiralities_Consistent>
1

> <s_lp_Variant>
377183-1

> <s_i_glide_gridfile>
glide-grid_2qd9

> <i_i_glide_lignum>
696

> <i_i_glide_rotatable_bonds>
2

> <r_i_docking_score>
-8.06102784440583

> <r_i_glide_ligand_efficiency>
-0.322441113776233

> <r_i_glide_ligand_efficiency_sa>
-0.942823535199208

> <r_i_glide_ligand_efficiency_ln>
-1.91070516863522

> <r_i_glide_gscore>
-8.06102784440583

> <r_i_glide_lipo>
-3.47549947719125

> <r_i_glide_hbond>
0

> <r_i_glide_metal>
0

> <r_i_glide_rewards>
-2.56115084798623

> <r_i_glide_evdw>
-40.1151466369629

> <r_i_glide_ecoul>
-2.20283079147339

> <r_i_glide_erotb>
0.330443984663128

> <r_i_glide_esite>
-0.0186395533223236

> <r_i_glide_emodel>
-57.5883491548137

> <r_i_glide_energy>
-42.3179774284363

> <r_i_glide_einternal>
1.07618069648743

> <i_i_glide_confnum>
3

> <i_i_glide_posenum>
205

> <r_i_glide_eff_state_penalty>
0

> <i_f3d_flags>
0

> <s_user_duplicate_titles>
377183

> <s_m_subgroup_title>
dock_pv

> <s_m_subgroupid>
dock_pv1

> <b_m_subgroup_collapsed>
0

$$$$
458822
                    3D
 Schrodinger Suite 2021-1.
 37 40  0  0  1  0            999 V2000
   -2.4298   -1.5122   27.5276 C   0  0  0  0  0  0
   -2.5535   -1.9127   26.1966 C   0  0  0  0  0  0
   -1.8817   -1.1987   25.1963 C   0  0  0  0  0  0
   -1.1206   -0.0834   25.5635 C   0  0  0  0  0  0
   -0.9926    0.3117   26.8592 N   0  0  0  0  0  0
   -1.6314   -0.4062   27.8186 C   0  0  0  0  0  0
   -0.4538    0.7603   24.4936 C   0  0  0  0  0  0
   -1.4321    1.3751   23.6662 O   0  0  0  0  0  0
   -2.0491    0.6519   22.6642 C   0  0  0  0  0  0
   -2.4321    1.4093   21.5581 C   0  0  0  0  0  0
   -3.0057    0.8275   20.4350 C   0  0  0  0  0  0
   -3.2052   -0.5527   20.4104 C   0  0  0  0  0  0
   -2.8364   -1.3359   21.4997 C   0  0  0  0  0  0
   -2.2719   -0.7485   22.6464 C   0  0  0  0  0  0
   -1.9930   -1.6908   23.7910 C   0  0  0  0  0  0
   -2.0360   -2.9159   23.6096 O   0  0  0  0  0  0
   -3.3159    1.6555   19.3466 N   0  0  0  0  0  0
   -4.0211    1.2958   18.1907 C   0  0  0  0  0  0
   -3.4121    1.4175   16.9375 C   0  0  0  0  0  0
   -4.0996    1.0388   15.7825 C   0  0  0  0  0  0
   -5.4025    0.5536   15.8759 C   0  0  0  0  0  0
   -6.0349    0.5070   17.1171 C   0  0  0  0  0  0
   -5.3563    0.8868   18.2711 C   0  0  0  0  0  0
   -5.9892    0.7992   19.4665 F   0  0  0  0  0  0
   -6.0348    0.0875   14.7763 F   0  0  0  0  0  0
   -2.9331   -2.0553   28.3149 H   0  0  0  0  0  0
   -3.1841   -2.7517   25.9475 H   0  0  0  0  0  0
   -1.4972   -0.0709   28.8376 H   0  0  0  0  0  0
    0.1402    1.5493   24.9568 H   0  0  0  0  0  0
    0.2464    0.1616   23.9072 H   0  0  0  0  0  0
   -2.2514    2.4734   21.5747 H   0  0  0  0  0  0
   -3.6346   -1.0321   19.5431 H   0  0  0  0  0  0
   -3.0213   -2.4003   21.4319 H   0  0  0  0  0  0
   -2.6787    2.4291   19.2418 H   0  0  0  0  0  0
   -2.3944    1.7694   16.8558 H   0  0  0  0  0  0
   -3.6153    1.0908   14.8181 H   0  0  0  0  0  0
   -7.0196    0.0867   17.2163 H   0  0  0  0  0  0
  1  6  1  0  0  0
  1  2  2  0  0  0
  1 26  1  0  0  0
  2  3  1  0  0  0
  2 27  1  0  0  0
  3 15  1  0  0  0
  3  4  2  0  0  0
  4  5  1  0  0  0
  4  7  1  0  0  0
  5  6  2  0  0  0
  6 28  1  0  0  0
  7  8  1  0  0  0
  7 29  1  0  0  0
  7 30  1  0  0  0
  8  9  1  0  0  0
  9 14  2  0  0  0
  9 10  1  0  0  0
 10 11  2  0  0  0
 10 31  1  0  0  0
 11 12  1  0  0  0
 11 17  1  0  0  0
 12 13  2  0  0  0
 12 32  1  0  0  0
 13 14  1  0  0  0
 13 33  1  0  0  0
 14 15  1  0  0  0
 15 16  2  0  0  0
 17 18  1  0  0  0
 17 34  1  0  0  0
 18 23  1  0  0  0
 18 19  2  0  0  0
 19 20  1  0  0  0
 19 35  1  0  0  0
 20 21  2  0  0  0
 20 36  1  0  0  0
 21 22  1  0  0  0
 21 25  1  0  0  0
 22 23  2  0  0  0
 22 37  1  0  0  0
 23 24  1  0  0  0
M  END
> <s_m_entry_id>
62560

> <s_m_entry_name>
ligand_docking-pose.220

> <s_m_Source_Path>
/home/csk/Desktop/cluster/DUD-E-result/mk14

> <s_m_Source_File>
ligand_docking-pose.sdf

> <i_m_Source_File_Index>
220

> <i_lp_mmshare_version>
53161

> <r_lp_tautomer_probability>
1

> <s_lp_Force_Field>
OPLS_2005

> <r_lp_Energy>
34.605369

> <b_lp_Chiralities_Consistent>
1

> <s_lp_Variant>
458822-1

> <s_i_glide_gridfile>
glide-grid_2qd9

> <i_i_glide_lignum>
28

> <i_i_glide_rotatable_bonds>
2

> <r_i_docking_score>
-8.04080739616114

> <r_i_glide_ligand_efficiency>
-0.321632295846445

> <r_i_glide_ligand_efficiency_sa>
-0.940458537228061

> <r_i_glide_ligand_efficiency_ln>
-1.90591231644329

> <r_i_glide_gscore>
-8.04080739616114

> <r_i_glide_lipo>
-3.48570723209911

> <r_i_glide_hbond>
-0.27796932139967

> <r_i_glide_metal>
0

> <r_i_glide_rewards>
-2.14777378633918

> <r_i_glide_evdw>
-36.2918128967285

> <r_i_glide_ecoul>
-4.30144071578979

> <r_i_glide_erotb>
0.330449695881723

> <r_i_glide_esite>
0

> <r_i_glide_emodel>
-54.4030790270788

> <r_i_glide_energy>
-40.5932536125183

> <r_i_glide_einternal>
7.69195556640625

> <i_i_glide_confnum>
6

> <i_i_glide_posenum>
381

> <r_i_glide_eff_state_penalty>
0

> <i_f3d_flags>
0

> <s_user_duplicate_titles>
458822

> <s_m_subgroup_title>
dock_pv

> <s_m_subgroupid>
dock_pv1

> <b_m_subgroup_collapsed>
0

$$$$
213577
                    3D
 Schrodinger Suite 2021-1.
 39 42  0  0  1  0            999 V2000
   -5.8058    0.5018   16.2125 C   0  0  0  0  0  0
   -4.5576    0.9956   15.8404 C   0  0  0  0  0  0
   -3.7178    1.5287   16.8131 C   0  0  0  0  0  0
   -4.1348    1.5354   18.1452 C   0  0  0  0  0  0
   -5.3392    0.9520   18.5285 C   0  0  0  0  0  0
   -6.2042    0.4871   17.5512 C   0  0  0  0  0  0
   -3.2356    2.4877   19.3225 S   0  0  0  0  0  0
   -2.8397    1.4055   20.5937 C   0  0  0  0  0  0
   -2.4363    1.9214   21.8193 C   0  0  0  0  0  0
   -1.9947    1.0244   22.7796 C   0  0  0  0  0  0
   -1.9517   -0.3440   22.4676 C   0  0  0  0  0  0
   -2.3892   -0.7600   21.1989 C   0  0  0  0  0  0
   -2.8389    0.1004   20.2819 N   0  0  0  0  0  0
   -2.3401   -2.2164   20.7974 C   0  0  0  0  0  0
   -1.6429   -3.0209   21.7907 N   0  0  0  0  0  0
   -1.4145   -2.6436   23.0663 C   0  0  0  0  0  0
   -1.2380   -3.5130   23.8775 O   0  0  0  0  0  0
   -1.4829   -1.3171   23.3609 N   0  0  0  0  0  0
   -1.0939   -0.9217   24.6712 C   0  0  0  0  0  0
   -2.0116   -0.9871   25.7374 C   0  0  0  0  0  0
   -1.6234   -0.6175   27.0247 C   0  0  0  0  0  0
   -0.3329   -0.1546   27.2611 C   0  0  0  0  0  0
    0.5720   -0.0612   26.2081 C   0  0  0  0  0  0
    0.2107   -0.4507   24.9176 C   0  0  0  0  0  0
    1.3889   -0.3171   23.6545 Cl  0  0  0  0  0  0
   -3.6352   -1.5177   25.4988 Cl  0  0  0  0  0  0
   -6.4652    0.1052   15.4554 H   0  0  0  0  0  0
   -4.2578    0.9941   14.8018 H   0  0  0  0  0  0
   -2.7787    1.9806   16.5276 H   0  0  0  0  0  0
   -5.6550    0.9613   19.5618 H   0  0  0  0  0  0
   -7.1655    0.0863   17.8459 H   0  0  0  0  0  0
   -2.4188    2.9830   22.0113 H   0  0  0  0  0  0
   -1.6622    1.4048   23.7342 H   0  0  0  0  0  0
   -1.8167   -2.3252   19.8471 H   0  0  0  0  0  0
   -3.3481   -2.6103   20.6585 H   0  0  0  0  0  0
   -1.4108   -3.9693   21.5402 H   0  0  0  0  0  0
   -2.3260   -0.6835   27.8429 H   0  0  0  0  0  0
   -0.0323    0.1401   28.2568 H   0  0  0  0  0  0
    1.5595    0.3180   26.4053 H   0  0  0  0  0  0
  1  6  1  0  0  0
  1  2  2  0  0  0
  1 27  1  0  0  0
  2  3  1  0  0  0
  2 28  1  0  0  0
  3  4  2  0  0  0
  3 29  1  0  0  0
  4  5  1  0  0  0
  4  7  1  0  0  0
  5  6  2  0  0  0
  5 30  1  0  0  0
  6 31  1  0  0  0
  7  8  1  0  0  0
  8 13  1  0  0  0
  8  9  2  0  0  0
  9 10  1  0  0  0
  9 32  1  0  0  0
 10 11  2  0  0  0
 10 33  1  0  0  0
 11 18  1  0  0  0
 11 12  1  0  0  0
 12 13  2  0  0  0
 12 14  1  0  0  0
 14 15  1  0  0  0
 14 34  1  0  0  0
 14 35  1  0  0  0
 15 16  1  0  0  0
 15 36  1  0  0  0
 16 17  2  0  0  0
 16 18  1  0  0  0
 18 19  1  0  0  0
 19 24  1  0  0  0
 19 20  2  0  0  0
 20 21  1  0  0  0
 20 26  1  0  0  0
 21 22  2  0  0  0
 21 37  1  0  0  0
 22 23  1  0  0  0
 22 38  1  0  0  0
 23 24  2  0  0  0
 23 39  1  0  0  0
 24 25  1  0  0  0
M  END
> <s_m_entry_id>
62564

> <s_m_entry_name>
ligand_docking-pose.224

> <s_m_Source_Path>
/home/csk/Desktop/cluster/DUD-E-result/mk14

> <s_m_Source_File>
ligand_docking-pose.sdf

> <i_m_Source_File_Index>
224

> <i_lp_mmshare_version>
53161

> <r_lp_tautomer_probability>
1

> <s_lp_Force_Field>
OPLS_2005

> <r_lp_Energy>
40.490922

> <b_lp_Chiralities_Consistent>
1

> <s_lp_Variant>
213577-1

> <s_i_glide_gridfile>
glide-grid_2qd9

> <i_i_glide_lignum>
636

> <i_i_glide_rotatable_bonds>
3

> <r_i_docking_score>
-8.01997329170385

> <r_i_glide_ligand_efficiency>
-0.308460511219379

> <r_i_glide_ligand_efficiency_sa>
-0.913813050753908

> <r_i_glide_ligand_efficiency_ln>
-1.88346441187788

> <r_i_glide_gscore>
-8.01997329170385

> <r_i_glide_lipo>
-3.94967201123714

> <r_i_glide_hbond>
-0.427929592497789

> <r_i_glide_metal>
0

> <r_i_glide_rewards>
-1.22629518754475

> <r_i_glide_evdw>
-30.7590637207031

> <r_i_glide_ecoul>
-8.27902221679688

> <r_i_glide_erotb>
0.363730018130513

> <r_i_glide_esite>
0

> <r_i_glide_emodel>
-52.0844992296553

> <r_i_glide_energy>
-39.0380859375

> <r_i_glide_einternal>
0.193500459194183

> <i_i_glide_confnum>
15

> <i_i_glide_posenum>
122

> <r_i_glide_eff_state_penalty>
0

> <i_f3d_flags>
0

> <s_user_duplicate_titles>
213577

> <s_m_subgroup_title>
dock_pv

> <s_m_subgroupid>
dock_pv1

> <b_m_subgroup_collapsed>
0

$$$$
150961
                    3D
 Schrodinger Suite 2021-1.
 63 68  0  0  1  0            999 V2000
    2.0832    4.1686   26.6782 C   0  0  0  0  0  0
    0.5649    3.9542   26.8475 C   0  0  0  0  0  0
    0.3286    2.8798   27.9305 C   0  0  0  0  0  0
   -0.0535    3.5448   25.5730 N   0  0  1  0  0  0
   -1.5160    3.3721   25.6396 C   0  0  0  0  0  0
   -2.0362    4.0872   24.3678 C   0  0  1  0  0  0
   -1.1831    5.3452   24.4970 C   0  0  0  0  0  0
    0.0725    4.5156   24.4688 C   0  0  2  0  0  0
   -0.1712    3.7652   23.1478 C   0  0  0  0  0  0
   -1.6183    3.4793   23.0768 N   0  0  0  0  0  0
   -1.9744    2.2128   22.5786 C   0  0  0  0  0  0
   -1.6322    1.1009   23.3446 C   0  0  0  0  0  0
   -1.7522   -0.1949   22.8442 C   0  0  0  0  0  0
   -2.1528   -0.3582   21.5210 C   0  0  0  0  0  0
   -2.4958    0.6812   20.7691 N   0  0  0  0  0  0
   -2.4335    1.9335   21.2652 C   0  0  0  0  0  0
   -2.8351    3.1454   20.0513 S   0  0  0  0  0  0
   -3.4484    2.1559   18.6726 C   0  0  0  0  0  0
   -2.8350    2.2756   17.4063 C   0  0  0  0  0  0
   -3.4096    1.6879   16.2787 C   0  0  0  0  0  0
   -4.6210    1.0114   16.3877 C   0  0  0  0  0  0
   -5.2347    0.8872   17.6315 C   0  0  0  0  0  0
   -4.6385    1.4227   18.7719 C   0  0  0  0  0  0
   -5.2595    1.2802   19.9578 F   0  0  0  0  0  0
   -5.2063    0.4864   15.2885 F   0  0  0  0  0  0
   -2.1995   -1.7339   20.8877 C   0  0  0  0  0  0
   -1.7686   -2.7719   21.8224 N   0  0  0  0  0  0
   -1.7354   -2.5940   23.1615 C   0  0  0  0  0  0
   -2.0347   -3.5130   23.8775 O   0  0  0  0  0  0
   -1.5032   -1.3344   23.6166 N   0  0  0  0  0  0
   -1.2150   -1.1632   25.0010 C   0  0  0  0  0  0
   -2.2395   -1.2150   25.9692 C   0  0  0  0  0  0
   -1.9454   -1.0081   27.3166 C   0  0  0  0  0  0
   -0.6442   -0.7182   27.7133 C   0  0  0  0  0  0
    0.3648   -0.6306   26.7594 C   0  0  0  0  0  0
    0.0969   -0.8607   25.4103 C   0  0  0  0  0  0
    1.3986   -0.7139   24.2756 Cl  0  0  0  0  0  0
   -3.8841   -1.5159   25.5396 Cl  0  0  0  0  0  0
    2.5662    4.3196   27.6438 H   0  0  0  0  0  0
    2.5608    3.3020   26.2177 H   0  0  0  0  0  0
    2.3264    5.0431   26.0772 H   0  0  0  0  0  0
    0.1156    4.8926   27.1781 H   0  0  0  0  0  0
    0.7453    3.1949   28.8875 H   0  0  0  0  0  0
   -0.7271    2.6695   28.0970 H   0  0  0  0  0  0
    0.8184    1.9440   27.6637 H   0  0  0  0  0  0
   -1.8629    2.3521   25.7842 H   0  0  0  0  0  0
   -1.9199    3.9032   26.5049 H   0  0  0  0  0  0
   -3.1075    4.2779   24.4171 H   0  0  0  0  0  0
   -1.2351    6.0400   23.6581 H   0  0  0  0  0  0
   -1.3200    5.9049   25.4252 H   0  0  0  0  0  0
    0.9949    5.0943   24.4411 H   0  0  0  0  0  0
    0.1094    4.3959   22.3028 H   0  0  0  0  0  0
    0.4810    2.8923   23.0748 H   0  0  0  0  0  0
   -1.1823    1.2410   24.3075 H   0  0  0  0  0  0
   -1.9566    2.8882   17.2721 H   0  0  0  0  0  0
   -2.9439    1.8023   15.3102 H   0  0  0  0  0  0
   -6.1791    0.3688   17.7109 H   0  0  0  0  0  0
   -3.2102   -1.9619   20.5444 H   0  0  0  0  0  0
   -1.5474   -1.7610   20.0132 H   0  0  0  0  0  0
   -1.7636   -3.7212   21.4832 H   0  0  0  0  0  0
   -2.7292   -1.0633   28.0580 H   0  0  0  0  0  0
   -0.4158   -0.5514   28.7562 H   0  0  0  0  0  0
    1.3708   -0.3868   27.0718 H   0  0  0  0  0  0
  1  2  1  0  0  0
  1 39  1  0  0  0
  1 40  1  0  0  0
  1 41  1  0  0  0
  2  3  1  0  0  0
  2  4  1  0  0  0
  2 42  1  0  0  0
  3 43  1  0  0  0
  3 44  1  0  0  0
  3 45  1  0  0  0
  4  8  1  0  0  0
  4  5  1  0  0  0
  5  6  1  0  0  0
  5 46  1  0  0  0
  5 47  1  0  0  0
  6 10  1  0  0  0
  6  7  1  0  0  0
  6 48  1  0  0  0
  7  8  1  0  0  0
  7 49  1  0  0  0
  7 50  1  0  0  0
  8  9  1  0  0  0
  8 51  1  0  0  0
  9 10  1  0  0  0
  9 52  1  0  0  0
  9 53  1  0  0  0
 10 11  1  0  0  0
 11 16  1  0  0  0
 11 12  2  0  0  0
 12 13  1  0  0  0
 12 54  1  0  0  0
 13 30  1  0  0  0
 13 14  2  0  0  0
 14 15  1  0  0  0
 14 26  1  0  0  0
 15 16  2  0  0  0
 16 17  1  0  0  0
 17 18  1  0  0  0
 18 23  1  0  0  0
 18 19  2  0  0  0
 19 20  1  0  0  0
 19 55  1  0  0  0
 20 21  2  0  0  0
 20 56  1  0  0  0
 21 22  1  0  0  0
 21 25  1  0  0  0
 22 23  2  0  0  0
 22 57  1  0  0  0
 23 24  1  0  0  0
 26 27  1  0  0  0
 26 58  1  0  0  0
 26 59  1  0  0  0
 27 28  1  0  0  0
 27 60  1  0  0  0
 28 29  2  0  0  0
 28 30  1  0  0  0
 30 31  1  0  0  0
 31 36  1  0  0  0
 31 32  2  0  0  0
 32 33  1  0  0  0
 32 38  1  0  0  0
 33 34  2  0  0  0
 33 61  1  0  0  0
 34 35  1  0  0  0
 34 62  1  0  0  0
 35 36  2  0  0  0
 35 63  1  0  0  0
 36 37  1  0  0  0
M  END
> <s_m_entry_id>
62567

> <s_m_entry_name>
ligand_docking-pose.227

> <s_m_Source_Path>
/home/csk/Desktop/cluster/DUD-E-result/mk14

> <s_m_Source_File>
ligand_docking-pose.sdf

> <i_m_Source_File_Index>
227

> <i_lp_mmshare_version>
53161

> <r_lp_tautomer_probability>
1

> <s_lp_Force_Field>
OPLS_2005

> <r_lp_Energy>
114.098223

> <b_lp_Chiralities_Consistent>
1

> <s_lp_Variant>
150961-2

> <s_i_glide_gridfile>
glide-grid_2qd9

> <i_i_glide_lignum>
1846

> <i_i_glide_rotatable_bonds>
5

> <r_i_docking_score>
-7.9927544059835

> <r_i_glide_ligand_efficiency>
-0.210335642262724

> <r_i_glide_ligand_efficiency_sa>
-0.70714325560311

> <r_i_glide_ligand_efficiency_ln>
-1.72347297294312

> <r_i_glide_gscore>
-7.9927544059835

> <r_i_glide_lipo>
-2.90075164367697

> <r_i_glide_hbond>
-0.501895610812287

> <r_i_glide_metal>
0

> <r_i_glide_rewards>
-1.56123514402671

> <r_i_glide_evdw>
-34.7558174133301

> <r_i_glide_ecoul>
-9.35265159606934

> <r_i_glide_erotb>
0.155185943221249

> <r_i_glide_esite>
-0.0433693406118859

> <r_i_glide_emodel>
-54.3924649967966

> <r_i_glide_energy>
-44.1084690093994

> <r_i_glide_einternal>
13.097638130188

> <i_i_glide_confnum>
1

> <i_i_glide_posenum>
192

> <r_i_glide_eff_state_penalty>
0

> <i_f3d_flags>
0

> <s_user_duplicate_titles>
150961

> <s_m_subgroup_title>
dock_pv

> <s_m_subgroupid>
dock_pv1

> <b_m_subgroup_collapsed>
0

$$$$
377168
                    3D
 Schrodinger Suite 2021-1.
 34 37  0  0  1  0            999 V2000
   -3.7739    1.5909   15.8118 C   0  0  0  0  0  0
   -5.1048    1.2156   15.6974 C   0  0  0  0  0  0
   -5.8167    0.8787   16.8415 C   0  0  0  0  0  0
   -5.2165    0.8882   18.0981 C   0  0  0  0  0  0
   -3.8736    1.2705   18.2279 C   0  0  0  0  0  0
   -3.1684    1.6252   17.0629 C   0  0  0  0  0  0
   -3.2350    1.3403   19.5677 C   0  0  0  0  0  0
   -2.9281    0.2277   20.3715 C   0  0  0  0  0  0
   -2.4110    0.4548   21.6167 C   0  0  0  0  0  0
   -2.1510    1.6860   22.1207 N   0  0  0  0  0  0
   -2.4350    2.7046   21.2679 C   0  0  0  0  0  0
   -2.9713    2.6021   20.0191 N   0  0  0  0  0  0
   -2.2168   -0.7733   22.2132 N   0  0  0  0  0  0
   -2.5269   -1.7720   21.3425 C   0  0  0  0  0  0
   -2.4350   -2.9861   21.5258 O   0  0  0  0  0  0
   -2.9908   -1.1415   20.2361 N   0  0  0  0  0  0
   -1.8757   -0.9541   23.5623 C   0  0  0  0  0  0
   -0.5356   -0.9338   23.9690 C   0  0  0  0  0  0
   -0.2130   -1.1252   25.3125 C   0  0  0  0  0  0
   -1.2215   -1.3297   26.2545 C   0  0  0  0  0  0
   -2.5583   -1.3298   25.8549 C   0  0  0  0  0  0
   -2.8872   -1.1340   24.5132 C   0  0  0  0  0  0
   -4.1866   -1.1130   24.1389 F   0  0  0  0  0  0
    0.4541   -0.7130   23.0760 F   0  0  0  0  0  0
   -6.1838    0.4870   19.4760 Cl  0  0  0  0  0  0
   -3.3075   -1.6318   19.4128 H   0  0  0  0  0  0
   -3.2061    1.8554   14.9326 H   0  0  0  0  0  0
   -5.5812    1.1801   14.7288 H   0  0  0  0  0  0
   -6.8350    0.5619   16.7526 H   0  0  0  0  0  0
   -2.1345    1.9333   17.0760 H   0  0  0  0  0  0
   -2.1807    3.6870   21.6188 H   0  0  0  0  0  0
    0.8225   -1.1130   25.6225 H   0  0  0  0  0  0
   -0.9654   -1.4817   27.2937 H   0  0  0  0  0  0
   -3.3408   -1.4762   26.5851 H   0  0  0  0  0  0
  1  6  1  0  0  0
  1  2  2  0  0  0
  1 27  1  0  0  0
  2  3  1  0  0  0
  2 28  1  0  0  0
  3  4  2  0  0  0
  3 29  1  0  0  0
  4  5  1  0  0  0
  4 25  1  0  0  0
  5  6  2  0  0  0
  5  7  1  0  0  0
  6 30  1  0  0  0
  7 12  1  0  0  0
  7  8  2  0  0  0
  8 16  1  0  0  0
  8  9  1  0  0  0
  9 10  2  0  0  0
  9 13  1  0  0  0
 10 11  1  0  0  0
 11 12  2  0  0  0
 11 31  1  0  0  0
 13 14  1  0  0  0
 13 17  1  0  0  0
 14 15  2  0  0  0
 14 16  1  0  0  0
 16 26  1  0  0  0
 17 22  1  0  0  0
 17 18  2  0  0  0
 18 19  1  0  0  0
 18 24  1  0  0  0
 19 20  2  0  0  0
 19 32  1  0  0  0
 20 21  1  0  0  0
 20 33  1  0  0  0
 21 22  2  0  0  0
 21 34  1  0  0  0
 22 23  1  0  0  0
M  END
> <s_m_entry_id>
62568

> <s_m_entry_name>
ligand_docking-pose.228

> <s_m_Source_Path>
/home/csk/Desktop/cluster/DUD-E-result/mk14

> <s_m_Source_File>
ligand_docking-pose.sdf

> <i_m_Source_File_Index>
228

> <i_lp_mmshare_version>
53161

> <r_lp_tautomer_probability>
0.999998935671072

> <s_lp_Force_Field>
OPLS_2005

> <r_lp_Energy>
47.67538

> <b_lp_Chiralities_Consistent>
1

> <s_lp_Variant>
377168-1

> <s_i_glide_gridfile>
glide-grid_2qd9

> <i_i_glide_lignum>
77

> <i_i_glide_rotatable_bonds>
2

> <r_i_docking_score>
-7.99225870508027

> <r_i_glide_ligand_efficiency>
-0.319690348203211

> <r_i_glide_ligand_efficiency_sa>
-0.934780247878655

> <r_i_glide_ligand_efficiency_ln>
-1.89440482177025

> <r_i_glide_gscore>
-7.99225870508027

> <r_i_glide_lipo>
-3.4919815777635

> <r_i_glide_hbond>
0

> <r_i_glide_metal>
0

> <r_i_glide_rewards>
-2.39251947244446

> <r_i_glide_evdw>
-41.2623558044434

> <r_i_glide_ecoul>
-2.16211414337158

> <r_i_glide_erotb>
0.297764729893506

> <r_i_glide_esite>
-0.0180874730379081

> <r_i_glide_emodel>
-61.4517723897636

> <r_i_glide_energy>
-43.4244699478149

> <r_i_glide_einternal>
1.23259663581848

> <i_i_glide_confnum>
5

> <i_i_glide_posenum>
55

> <r_i_glide_eff_state_penalty>
0

> <i_f3d_flags>
0

> <s_user_duplicate_titles>
377168

> <s_m_subgroup_title>
dock_pv

> <s_m_subgroupid>
dock_pv1

> <b_m_subgroup_collapsed>
0

$$$$
198317
                    3D
 Schrodinger Suite 2021-1.
 41 44  0  0  1  0            999 V2000
   -0.3034    0.7770   27.0502 C   0  0  0  0  0  0
   -1.5740    0.2171   26.9311 C   0  0  0  0  0  0
   -1.9707   -0.3857   25.7367 C   0  0  0  0  0  0
   -1.0821   -0.4294   24.6452 C   0  0  0  0  0  0
    0.2053    0.1307   24.7747 C   0  0  0  0  0  0
    0.5803    0.7368   25.9743 C   0  0  0  0  0  0
    1.3563    0.0860   23.4790 Cl  0  0  0  0  0  0
   -1.4664   -1.0635   23.4364 N   0  0  0  0  0  0
   -2.0656   -0.2802   22.4072 C   0  0  0  0  0  0
   -2.0322    1.1235   22.4046 C   0  0  0  0  0  0
   -2.5629    1.8422   21.3370 C   0  0  0  0  0  0
   -3.1715    1.1823   20.2716 C   0  0  0  0  0  0
   -3.2350   -0.2121   20.2854 C   0  0  0  0  0  0
   -2.6696   -0.9462   21.3289 C   0  0  0  0  0  0
   -2.6504   -2.4638   21.3110 C   0  0  0  0  0  0
   -1.6342   -3.0054   22.2244 N   0  0  0  0  0  0
   -1.2352   -2.4129   23.3744 C   0  0  0  0  0  0
   -0.7693   -3.1128   24.2735 O   0  0  0  0  0  0
   -3.6312    1.9413   19.1866 N   0  0  0  0  0  0
   -4.1150    1.4567   17.9633 C   0  0  0  0  0  0
   -3.3560    1.6417   16.8009 C   0  0  0  0  0  0
   -3.8370    1.1958   15.5681 C   0  0  0  0  0  0
   -5.0928    0.5984   15.4862 C   0  0  0  0  0  0
   -5.8784    0.4870   16.6272 C   0  0  0  0  0  0
   -5.3899    0.8871   17.8685 C   0  0  0  0  0  0
   -6.1482    0.6934   18.9739 F   0  0  0  0  0  0
   -5.5399    0.0872   14.3190 F   0  0  0  0  0  0
   -3.5498   -1.0928   25.6509 Cl  0  0  0  0  0  0
    0.0025    1.2364   27.9790 H   0  0  0  0  0  0
   -2.2496    0.2438   27.7737 H   0  0  0  0  0  0
    1.5639    1.1722   26.0794 H   0  0  0  0  0  0
   -1.5611    1.6727   23.2063 H   0  0  0  0  0  0
   -2.4832    2.9186   21.3387 H   0  0  0  0  0  0
   -3.6861   -0.7439   19.4618 H   0  0  0  0  0  0
   -2.4340   -2.8199   20.3021 H   0  0  0  0  0  0
   -3.6320   -2.8568   21.5759 H   0  0  0  0  0  0
   -1.2490   -3.9140   22.0246 H   0  0  0  0  0  0
   -3.1435    2.8201   19.1141 H   0  0  0  0  0  0
   -2.3834    2.1078   16.8504 H   0  0  0  0  0  0
   -3.2342    1.2986   14.6776 H   0  0  0  0  0  0
   -6.8350   -0.0008   16.5649 H   0  0  0  0  0  0
  1  6  1  0  0  0
  1  2  2  0  0  0
  1 29  1  0  0  0
  2  3  1  0  0  0
  2 30  1  0  0  0
  3  4  2  0  0  0
  3 28  1  0  0  0
  4  5  1  0  0  0
  4  8  1  0  0  0
  5  6  2  0  0  0
  5  7  1  0  0  0
  6 31  1  0  0  0
  8 17  1  0  0  0
  8  9  1  0  0  0
  9 14  2  0  0  0
  9 10  1  0  0  0
 10 11  2  0  0  0
 10 32  1  0  0  0
 11 12  1  0  0  0
 11 33  1  0  0  0
 12 13  2  0  0  0
 12 19  1  0  0  0
 13 14  1  0  0  0
 13 34  1  0  0  0
 14 15  1  0  0  0
 15 16  1  0  0  0
 15 35  1  0  0  0
 15 36  1  0  0  0
 16 17  1  0  0  0
 16 37  1  0  0  0
 17 18  2  0  0  0
 19 20  1  0  0  0
 19 38  1  0  0  0
 20 25  1  0  0  0
 20 21  2  0  0  0
 21 22  1  0  0  0
 21 39  1  0  0  0
 22 23  2  0  0  0
 22 40  1  0  0  0
 23 24  1  0  0  0
 23 27  1  0  0  0
 24 25  2  0  0  0
 24 41  1  0  0  0
 25 26  1  0  0  0
M  END
> <s_m_entry_id>
62571

> <s_m_entry_name>
ligand_docking-pose.231

> <s_m_Source_Path>
/home/csk/Desktop/cluster/DUD-E-result/mk14

> <s_m_Source_File>
ligand_docking-pose.sdf

> <i_m_Source_File_Index>
231

> <i_lp_mmshare_version>
53161

> <r_lp_tautomer_probability>
1

> <s_lp_Force_Field>
OPLS_2005

> <r_lp_Energy>
47.972742

> <b_lp_Chiralities_Consistent>
1

> <s_lp_Variant>
198317-1

> <s_i_glide_gridfile>
glide-grid_2qd9

> <i_i_glide_lignum>
433

> <i_i_glide_rotatable_bonds>
3

> <r_i_docking_score>
-7.9707474909276

> <r_i_glide_ligand_efficiency>
-0.284669553247414

> <r_i_glide_ligand_efficiency_sa>
-0.864424425059724

> <r_i_glide_ligand_efficiency_ln>
-1.83988255222172

> <r_i_glide_gscore>
-7.9707474909276

> <r_i_glide_lipo>
-3.65546449893238

> <r_i_glide_hbond>
-0.22189463999966

> <r_i_glide_metal>
0

> <r_i_glide_rewards>
-1.88604833424913

> <r_i_glide_evdw>
-42.6048011779785

> <r_i_glide_ecoul>
-2.75528407096863

> <r_i_glide_erotb>
0.336192651797791

> <r_i_glide_esite>
0

> <r_i_glide_emodel>
-61.9854288979053

> <r_i_glide_energy>
-45.3600852489471

> <r_i_glide_einternal>
6.41925811767578

> <i_i_glide_confnum>
10

> <i_i_glide_posenum>
22

> <r_i_glide_eff_state_penalty>
0

> <i_f3d_flags>
0

> <s_user_duplicate_titles>
198317

> <s_m_subgroup_title>
dock_pv

> <s_m_subgroupid>
dock_pv1

> <b_m_subgroup_collapsed>
0

$$$$
620884
                    3D
 Schrodinger Suite 2021-1.
 49 52  0  0  1  0            999 V2000
    0.1838    6.1214   24.4998 C   0  0  0  0  0  0
   -0.0218    4.6923   24.7111 N   0  0  2  0  0  0
    0.6932    3.8992   23.6992 C   0  0  0  0  0  0
    0.4507    2.3823   23.8585 C   0  0  0  0  0  0
   -1.0416    1.9875   23.9528 C   0  0  0  0  0  0
   -1.6848    2.8452   25.0647 C   0  0  0  0  0  0
   -1.4410    4.3626   24.9020 C   0  0  0  0  0  0
   -1.7836    2.0645   22.6154 C   0  0  0  0  0  0
   -2.3586    1.1145   21.7618 C   0  0  0  0  0  0
   -2.8353    1.8450   20.6427 C   0  0  0  0  0  0
   -2.4405    3.0972   20.6975 N   0  0  0  0  0  0
   -1.9073    3.2287   21.9111 N   0  0  0  0  0  0
   -3.7416    1.4027   19.5297 C   0  0  0  0  0  0
   -4.9266    0.7572   19.8762 C   0  0  0  0  0  0
   -5.9233    0.5202   18.9342 C   0  0  0  0  0  0
   -5.7169    0.8847   17.6065 C   0  0  0  0  0  0
   -4.4819    1.3838   17.2032 C   0  0  0  0  0  0
   -3.5227    1.6869   18.1764 C   0  0  0  0  0  0
   -4.2345    1.6431   15.7256 C   0  0  0  0  0  0
   -3.0260    2.1574   15.4917 F   0  0  0  0  0  0
   -4.3333    0.4859   15.0742 F   0  0  0  0  0  0
   -5.1609    2.4856   15.2693 F   0  0  0  0  0  0
   -2.3912   -0.3568   21.9795 C   0  0  0  0  0  0
   -2.1240   -1.2230   20.9120 C   0  0  0  0  0  0
   -2.0182   -2.5897   21.1671 C   0  0  0  0  0  0
   -2.1496   -3.1131   22.4111 N   0  0  0  0  0  0
   -2.4351   -2.2702   23.4323 C   0  0  0  0  0  0
   -2.5899   -0.8975   23.2548 C   0  0  0  0  0  0
   -1.4719    4.0887   22.2066 H   0  0  0  0  0  0
   -0.2572    6.7009   25.3118 H   0  0  0  0  0  0
    1.2494    6.3560   24.4768 H   0  0  0  0  0  0
   -0.2571    6.4561   23.5595 H   0  0  0  0  0  0
    1.7619    4.1145   23.7581 H   0  0  0  0  0  0
    0.3840    4.2248   22.7059 H   0  0  0  0  0  0
    0.9312    2.1537   24.8123 H   0  0  0  0  0  0
    0.9877    1.7752   23.1296 H   0  0  0  0  0  0
   -1.0328    0.9645   24.3235 H   0  0  0  0  0  0
   -2.7293    2.5804   25.2332 H   0  0  0  0  0  0
   -1.1838    2.6134   26.0070 H   0  0  0  0  0  0
   -1.8253    4.9004   25.7703 H   0  0  0  0  0  0
   -2.0008    4.7356   24.0465 H   0  0  0  0  0  0
   -5.0997    0.4871   20.9006 H   0  0  0  0  0  0
   -6.8636    0.0871   19.2340 H   0  0  0  0  0  0
   -6.4891    0.6888   16.8766 H   0  0  0  0  0  0
   -2.6254    2.1992   17.8737 H   0  0  0  0  0  0
   -1.9686   -0.8449   19.9120 H   0  0  0  0  0  0
   -1.8079   -3.2870   20.3684 H   0  0  0  0  0  0
   -2.5500   -2.7115   24.4112 H   0  0  0  0  0  0
   -2.8255   -0.2684   24.0997 H   0  0  0  0  0  0
  1  2  1  0  0  0
  1 30  1  0  0  0
  1 31  1  0  0  0
  1 32  1  0  0  0
  2  7  1  0  0  0
  2  3  1  0  0  0
  3  4  1  0  0  0
  3 33  1  0  0  0
  3 34  1  0  0  0
  4  5  1  0  0  0
  4 35  1  0  0  0
  4 36  1  0  0  0
  5  6  1  0  0  0
  5  8  1  0  0  0
  5 37  1  0  0  0
  6  7  1  0  0  0
  6 38  1  0  0  0
  6 39  1  0  0  0
  7 40  1  0  0  0
  7 41  1  0  0  0
  8 12  1  0  0  0
  8  9  2  0  0  0
  9 10  1  0  0  0
  9 23  1  0  0  0
 10 11  2  0  0  0
 10 13  1  0  0  0
 11 12  1  0  0  0
 12 29  1  0  0  0
 13 18  1  0  0  0
 13 14  2  0  0  0
 14 15  1  0  0  0
 14 42  1  0  0  0
 15 16  2  0  0  0
 15 43  1  0  0  0
 16 17  1  0  0  0
 16 44  1  0  0  0
 17 18  2  0  0  0
 17 19  1  0  0  0
 18 45  1  0  0  0
 19 20  1  0  0  0
 19 21  1  0  0  0
 19 22  1  0  0  0
 23 28  1  0  0  0
 23 24  2  0  0  0
 24 25  1  0  0  0
 24 46  1  0  0  0
 25 26  2  0  0  0
 25 47  1  0  0  0
 26 27  1  0  0  0
 27 28  2  0  0  0
 27 48  1  0  0  0
 28 49  1  0  0  0
M  END
> <s_m_entry_id>
62578

> <s_m_entry_name>
ligand_docking-pose.238

> <s_m_Source_Path>
/home/csk/Desktop/cluster/DUD-E-result/mk14

> <s_m_Source_File>
ligand_docking-pose.sdf

> <i_m_Source_File_Index>
238

> <i_lp_mmshare_version>
53161

> <r_lp_tautomer_probability>
0.5

> <s_lp_Force_Field>
OPLS_2005

> <r_lp_Energy>
27.115228

> <b_lp_Chiralities_Consistent>
1

> <s_lp_Variant>
620884-1

> <s_i_glide_gridfile>
glide-grid_2qd9

> <i_i_glide_lignum>
2369

> <i_i_glide_rotatable_bonds>
4

> <r_i_docking_score>
-7.9033944379629

> <r_i_glide_ligand_efficiency>
-0.282264087070104

> <r_i_glide_ligand_efficiency_sa>
-0.857120013001595

> <r_i_glide_ligand_efficiency_ln>
-1.8243354900259

> <r_i_glide_gscore>
-7.9033944379629

> <r_i_glide_lipo>
-3.30100832632451

> <r_i_glide_hbond>
-0.32

> <r_i_glide_metal>
0

> <r_i_glide_rewards>
-2.90876383552348

> <r_i_glide_evdw>
-32.1108589172363

> <r_i_glide_ecoul>
-0.843831717967987

> <r_i_glide_erotb>
0.39104751572599

> <r_i_glide_esite>
-0.0325520882838784

> <r_i_glide_emodel>
-39.2834704961981

> <r_i_glide_energy>
-32.9546906352043

> <r_i_glide_einternal>
3.33733153343201

> <i_i_glide_confnum>
108

> <i_i_glide_posenum>
200

> <r_i_glide_eff_state_penalty>
0

> <i_f3d_flags>
0

> <s_user_duplicate_titles>
620884

> <s_m_subgroup_title>
dock_pv

> <s_m_subgroupid>
dock_pv1

> <b_m_subgroup_collapsed>
0

$$$$
180674
                    3D
 Schrodinger Suite 2021-1.
 42 44  0  0  1  0            999 V2000
   -1.4833   -1.8418   26.1303 C   0  0  0  0  0  0
   -0.5483   -2.3489   25.0176 C   0  0  0  0  0  0
    0.4753   -1.3041   24.5216 C   0  0  0  0  0  0
   -1.2384   -3.1130   24.0155 O   0  0  0  0  0  0
   -1.7486   -2.5199   22.8909 C   0  0  0  0  0  0
   -2.1775   -1.2047   22.8628 C   0  0  0  0  0  0
   -2.3857   -0.5892   21.6325 C   0  0  0  0  0  0
   -2.3486   -1.3601   20.4688 C   0  0  0  0  0  0
   -2.0350   -2.7130   20.5931 C   0  0  0  0  0  0
   -1.7226   -3.2941   21.7808 N   0  0  0  0  0  0
   -2.4215    0.8861   21.6337 C   0  0  0  0  0  0
   -2.8350    1.8732   20.7418 C   0  0  0  0  0  0
   -2.4350    3.0790   21.1625 N   0  0  0  0  0  0
   -1.8879    2.8904   22.3542 C   0  0  0  0  0  0
   -1.8690    1.5806   22.6668 N   0  0  0  0  0  0
   -1.2346    4.0870   23.4760 S   0  0  0  0  0  0
    0.3045    3.2404   23.9516 C   0  0  0  0  0  0
   -3.6578    1.6229   19.5158 C   0  0  0  0  0  0
   -4.8350    0.8870   19.6911 C   0  0  0  0  0  0
   -5.6324    0.5553   18.6035 C   0  0  0  0  0  0
   -5.2218    0.9031   17.3187 C   0  0  0  0  0  0
   -4.0439    1.6204   17.1247 C   0  0  0  0  0  0
   -3.2841    2.0173   18.2253 C   0  0  0  0  0  0
   -5.9756    0.5540   16.2526 F   0  0  0  0  0  0
   -1.4655    1.1834   23.5017 H   0  0  0  0  0  0
   -0.9119   -1.3742   26.9331 H   0  0  0  0  0  0
   -2.0359   -2.6683   26.5712 H   0  0  0  0  0  0
   -2.2171   -1.1154   25.7920 H   0  0  0  0  0  0
    0.0624   -3.1130   25.4760 H   0  0  0  0  0  0
    1.0753   -0.9298   25.3523 H   0  0  0  0  0  0
    1.1650   -1.7555   23.8107 H   0  0  0  0  0  0
    0.0249   -0.4372   24.0444 H   0  0  0  0  0  0
   -2.2102   -0.6330   23.7705 H   0  0  0  0  0  0
   -2.5002   -0.9212   19.4939 H   0  0  0  0  0  0
   -1.9999   -3.3533   19.7231 H   0  0  0  0  0  0
    0.9656    3.9335   24.4724 H   0  0  0  0  0  0
    0.0991    2.4041   24.6199 H   0  0  0  0  0  0
    0.8356    2.8674   23.0760 H   0  0  0  0  0  0
   -5.1368    0.5668   20.6760 H   0  0  0  0  0  0
   -6.5501    0.0049   18.7441 H   0  0  0  0  0  0
   -3.7486    1.9073   16.1256 H   0  0  0  0  0  0
   -2.4350    2.6548   18.0466 H   0  0  0  0  0  0
  1  2  1  0  0  0
  1 26  1  0  0  0
  1 27  1  0  0  0
  1 28  1  0  0  0
  2  3  1  0  0  0
  2  4  1  0  0  0
  2 29  1  0  0  0
  3 30  1  0  0  0
  3 31  1  0  0  0
  3 32  1  0  0  0
  4  5  1  0  0  0
  5 10  1  0  0  0
  5  6  2  0  0  0
  6  7  1  0  0  0
  6 33  1  0  0  0
  7  8  2  0  0  0
  7 11  1  0  0  0
  8  9  1  0  0  0
  8 34  1  0  0  0
  9 10  2  0  0  0
  9 35  1  0  0  0
 11 15  1  0  0  0
 11 12  2  0  0  0
 12 13  1  0  0  0
 12 18  1  0  0  0
 13 14  2  0  0  0
 14 15  1  0  0  0
 14 16  1  0  0  0
 15 25  1  0  0  0
 16 17  1  0  0  0
 17 36  1  0  0  0
 17 37  1  0  0  0
 17 38  1  0  0  0
 18 23  1  0  0  0
 18 19  2  0  0  0
 19 20  1  0  0  0
 19 39  1  0  0  0
 20 21  2  0  0  0
 20 40  1  0  0  0
 21 22  1  0  0  0
 21 24  1  0  0  0
 22 23  2  0  0  0
 22 41  1  0  0  0
 23 42  1  0  0  0
M  END
> <s_m_entry_id>
62580

> <s_m_entry_name>
ligand_docking-pose.240

> <s_m_Source_Path>
/home/csk/Desktop/cluster/DUD-E-result/mk14

> <s_m_Source_File>
ligand_docking-pose.sdf

> <i_m_Source_File_Index>
240

> <i_lp_mmshare_version>
53161

> <r_lp_tautomer_probability>
0.999999999976373

> <s_lp_Force_Field>
OPLS_2005

> <r_lp_Energy>
9.473815

> <b_lp_Chiralities_Consistent>
1

> <s_lp_Variant>
180674-1

> <s_i_glide_gridfile>
glide-grid_2qd9

> <i_i_glide_lignum>
1943

> <i_i_glide_rotatable_bonds>
5

> <r_i_docking_score>
-7.88196926772007

> <r_i_glide_ligand_efficiency>
-0.328415386155003

> <r_i_glide_ligand_efficiency_sa>
-0.94731389812525

> <r_i_glide_ligand_efficiency_ln>
-1.88651692576772

> <r_i_glide_gscore>
-7.88196926772007

> <r_i_glide_lipo>
-3.10773761586089

> <r_i_glide_hbond>
-0.570792755847684

> <r_i_glide_metal>
0

> <r_i_glide_rewards>
-2.28175178106902

> <r_i_glide_evdw>
-25.530632019043

> <r_i_glide_ecoul>
-7.429612159729

> <r_i_glide_erotb>
0.482667183731254

> <r_i_glide_esite>
-0.0133808737622188

> <r_i_glide_emodel>
-41.3995603148966

> <r_i_glide_energy>
-32.960244178772

> <r_i_glide_einternal>
9.95901966094971

> <i_i_glide_confnum>
19

> <i_i_glide_posenum>
24

> <r_i_glide_eff_state_penalty>
0

> <i_f3d_flags>
0

> <s_user_duplicate_titles>
180674

> <s_m_subgroup_title>
dock_pv

> <s_m_subgroupid>
dock_pv1

> <b_m_subgroup_collapsed>
0

$$$$
620985
                    3D
 Schrodinger Suite 2021-1.
 44 47  0  0  1  0            999 V2000
    0.9134   -0.0727   23.6740 C   0  0  0  0  0  0
   -0.1026   -0.4782   24.7380 C   0  0  0  0  0  0
    0.3561   -0.7128   26.0340 C   0  0  0  0  0  0
   -0.5245   -1.1100   27.0358 C   0  0  0  0  0  0
   -1.8812   -1.3094   26.7526 C   0  0  0  0  0  0
   -2.3376   -1.0935   25.4458 C   0  0  0  0  0  0
   -1.4731   -0.6348   24.4444 C   0  0  0  0  0  0
   -2.0456   -0.1927   23.1505 C   0  0  0  0  0  0
   -1.9564    1.1317   22.8883 C   0  0  0  0  0  0
   -2.4343    1.6568   21.6431 C   0  0  0  0  0  0
   -2.4347    2.8873   21.0346 C   0  0  0  0  0  0
   -3.0337    2.8731   19.8759 N   0  0  0  0  0  0
   -3.3654    1.5830   19.6608 N   0  0  0  0  0  0
   -2.9721    0.7758   20.7314 C   0  0  0  0  0  0
   -3.0093   -0.6100   20.9812 N   0  0  0  0  0  0
   -2.6058   -1.1574   22.1868 C   0  0  0  0  0  0
   -2.6752   -2.3638   22.4492 O   0  0  0  0  0  0
   -3.2751   -1.5232   19.8754 C   0  0  0  0  0  0
   -4.0906    1.3082   18.4803 C   0  0  0  0  0  0
   -5.3809    0.7858   18.5873 C   0  0  0  0  0  0
   -6.1416    0.5711   17.4418 C   0  0  0  0  0  0
   -5.6351    0.8800   16.1819 C   0  0  0  0  0  0
   -4.3696    1.4402   16.0660 C   0  0  0  0  0  0
   -3.6075    1.6765   17.2074 C   0  0  0  0  0  0
   -2.4351    2.3260   17.0529 F   0  0  0  0  0  0
   -5.9120    0.4871   19.7923 F   0  0  0  0  0  0
   -2.8353   -1.7658   27.8244 C   0  0  0  0  0  0
   -3.9040   -2.3132   27.5644 O   0  0  0  0  0  0
   -2.4299   -1.5139   29.0992 O   0  0  0  0  0  0
    1.9102   -0.4462   23.9172 H   0  0  0  0  0  0
    0.6557   -0.4991   22.7024 H   0  0  0  0  0  0
    0.9610    1.0131   23.5771 H   0  0  0  0  0  0
    1.4031   -0.5901   26.2732 H   0  0  0  0  0  0
   -0.1324   -1.2795   28.0293 H   0  0  0  0  0  0
   -3.3875   -1.2182   25.2141 H   0  0  0  0  0  0
   -1.5115    1.7980   23.6149 H   0  0  0  0  0  0
   -1.9500    3.7442   21.4485 H   0  0  0  0  0  0
   -2.5567   -1.3456   19.0754 H   0  0  0  0  0  0
   -3.2109   -2.5810   20.1400 H   0  0  0  0  0  0
   -4.2719   -1.3559   19.4777 H   0  0  0  0  0  0
   -7.1218    0.1275   17.5307 H   0  0  0  0  0  0
   -6.2291    0.6883   15.3013 H   0  0  0  0  0  0
   -3.9867    1.7167   15.0939 H   0  0  0  0  0  0
   -3.0613   -1.8805   29.7198 H   0  0  0  0  0  0
  1  2  1  0  0  0
  1 30  1  0  0  0
  1 31  1  0  0  0
  1 32  1  0  0  0
  2  7  1  0  0  0
  2  3  2  0  0  0
  3  4  1  0  0  0
  3 33  1  0  0  0
  4  5  2  0  0  0
  4 34  1  0  0  0
  5  6  1  0  0  0
  5 27  1  0  0  0
  6  7  2  0  0  0
  6 35  1  0  0  0
  7  8  1  0  0  0
  8 16  1  0  0  0
  8  9  2  0  0  0
  9 10  1  0  0  0
  9 36  1  0  0  0
 10 14  2  0  0  0
 10 11  1  0  0  0
 11 12  2  0  0  0
 11 37  1  0  0  0
 12 13  1  0  0  0
 13 14  1  0  0  0
 13 19  1  0  0  0
 14 15  1  0  0  0
 15 16  1  0  0  0
 15 18  1  0  0  0
 16 17  2  0  0  0
 18 38  1  0  0  0
 18 39  1  0  0  0
 18 40  1  0  0  0
 19 24  1  0  0  0
 19 20  2  0  0  0
 20 21  1  0  0  0
 20 26  1  0  0  0
 21 22  2  0  0  0
 21 41  1  0  0  0
 22 23  1  0  0  0
 22 42  1  0  0  0
 23 24  2  0  0  0
 23 43  1  0  0  0
 24 25  1  0  0  0
 27 28  2  0  0  0
 27 29  1  0  0  0
 29 44  1  0  0  0
M  END
> <s_m_entry_id>
62584

> <s_m_entry_name>
ligand_docking-pose.244

> <s_m_Source_Path>
/home/csk/Desktop/cluster/DUD-E-result/mk14

> <s_m_Source_File>
ligand_docking-pose.sdf

> <i_m_Source_File_Index>
244

> <i_lp_mmshare_version>
53161

> <r_lp_tautomer_probability>
1

> <s_lp_Force_Field>
OPLS_2005

> <r_lp_Energy>
45.751983

> <b_lp_Chiralities_Consistent>
1

> <s_lp_Variant>
620985-1

> <s_i_glide_gridfile>
glide-grid_2qd9

> <i_i_glide_lignum>
707

> <i_i_glide_rotatable_bonds>
4

> <r_i_docking_score>
-7.87231806031228

> <r_i_glide_ligand_efficiency>
-0.271459243459044

> <r_i_glide_ligand_efficiency_sa>
-0.834008800231054

> <r_i_glide_ligand_efficiency_ln>
-1.8025612110496

> <r_i_glide_gscore>
-7.87231806031228

> <r_i_glide_lipo>
-3.52814592765952

> <r_i_glide_hbond>
0

> <r_i_glide_metal>
0

> <r_i_glide_rewards>
-2.26918531224653

> <r_i_glide_evdw>
-37.2896308898926

> <r_i_glide_ecoul>
-3.82805681228638

> <r_i_glide_erotb>
0.375297643288502

> <r_i_glide_esite>
-0.0115943973571542

> <r_i_glide_emodel>
-54.4990600849849

> <r_i_glide_energy>
-41.117687702179

> <r_i_glide_einternal>
1.1798335313797

> <i_i_glide_confnum>
11

> <i_i_glide_posenum>
77

> <r_i_glide_eff_state_penalty>
0

> <i_f3d_flags>
0

> <s_user_duplicate_titles>
620985

> <s_m_subgroup_title>
dock_pv

> <s_m_subgroupid>
dock_pv1

> <b_m_subgroup_collapsed>
0

$$$$
190055
                    3D
 Schrodinger Suite 2021-1.
 43 46  0  0  1  0            999 V2000
   -0.8324    0.0995   28.6032 C   0  0  0  0  0  0
   -1.0954   -0.6254   27.2965 C   0  0  0  0  0  0
   -2.3381   -1.2104   27.0475 C   0  0  0  0  0  0
   -2.5608   -1.9022   25.8579 C   0  0  0  0  0  0
   -1.5413   -2.0308   24.9115 C   0  0  0  0  0  0
   -0.2921   -1.4268   25.1488 C   0  0  0  0  0  0
   -0.0815   -0.7291   26.3431 C   0  0  0  0  0  0
    0.8470   -1.5122   24.1459 C   0  0  0  0  0  0
   -1.8775   -2.9542   23.4200 S   0  0  0  0  0  0
   -2.2720   -1.6550   22.2487 C   0  0  0  0  0  0
   -2.7784   -1.9841   20.9310 C   0  0  0  0  0  0
   -3.1029   -0.9943   20.0652 C   0  0  0  0  0  0
   -2.9187    0.3994   20.4628 C   0  0  0  0  0  0
   -3.2298    1.5077   19.7100 C   0  0  0  0  0  0
   -2.7245    2.8068   20.2428 C   0  0  0  0  0  0
   -2.4355    3.6877   19.4605 O   0  0  0  0  0  0
   -2.4350    2.8869   21.6142 N   0  0  0  0  0  0
   -2.2172    1.8215   22.2759 C   0  0  0  0  0  0
   -2.3856    0.5518   21.7572 N   0  0  0  0  0  0
   -2.0955   -0.4333   22.6105 N   0  0  0  0  0  0
   -3.9666    1.3833   18.3736 C   0  0  0  0  0  0
   -5.2878    0.8871   18.4158 C   0  0  0  0  0  0
   -6.0351    0.6507   17.2703 C   0  0  0  0  0  0
   -5.5144    0.8872   16.0138 C   0  0  0  0  0  0
   -4.2427    1.4164   15.9178 C   0  0  0  0  0  0
   -3.4866    1.6867   17.0604 C   0  0  0  0  0  0
   -2.0349    2.5180   16.6760 Cl  0  0  0  0  0  0
   -6.0903    0.4885   19.8761 Cl  0  0  0  0  0  0
   -1.5416   -0.1946   29.3782 H   0  0  0  0  0  0
   -0.8811    1.1796   28.4600 H   0  0  0  0  0  0
    0.1634   -0.1463   28.9774 H   0  0  0  0  0  0
   -3.1308   -1.1372   27.7773 H   0  0  0  0  0  0
   -3.5294   -2.3439   25.6782 H   0  0  0  0  0  0
    0.8801   -0.2753   26.5398 H   0  0  0  0  0  0
    0.6008   -0.9699   23.2337 H   0  0  0  0  0  0
    1.7811   -1.1136   24.5453 H   0  0  0  0  0  0
    1.0228   -2.5524   23.8761 H   0  0  0  0  0  0
   -2.8985   -3.0142   20.6265 H   0  0  0  0  0  0
   -3.4588   -1.2193   19.0769 H   0  0  0  0  0  0
   -1.8949    1.8688   23.3150 H   0  0  0  0  0  0
   -7.0123    0.2104   17.3848 H   0  0  0  0  0  0
   -6.0908    0.6711   15.1268 H   0  0  0  0  0  0
   -3.8457    1.6460   14.9395 H   0  0  0  0  0  0
  1  2  1  0  0  0
  1 29  1  0  0  0
  1 30  1  0  0  0
  1 31  1  0  0  0
  2  7  1  0  0  0
  2  3  2  0  0  0
  3  4  1  0  0  0
  3 32  1  0  0  0
  4  5  2  0  0  0
  4 33  1  0  0  0
  5  6  1  0  0  0
  5  9  1  0  0  0
  6  7  2  0  0  0
  6  8  1  0  0  0
  7 34  1  0  0  0
  8 35  1  0  0  0
  8 36  1  0  0  0
  8 37  1  0  0  0
  9 10  1  0  0  0
 10 20  2  0  0  0
 10 11  1  0  0  0
 11 12  2  0  0  0
 11 38  1  0  0  0
 12 13  1  0  0  0
 12 39  1  0  0  0
 13 19  1  0  0  0
 13 14  2  0  0  0
 14 15  1  0  0  0
 14 21  1  0  0  0
 15 16  2  0  0  0
 15 17  1  0  0  0
 17 18  2  0  0  0
 18 19  1  0  0  0
 18 40  1  0  0  0
 19 20  1  0  0  0
 21 26  1  0  0  0
 21 22  2  0  0  0
 22 23  1  0  0  0
 22 28  1  0  0  0
 23 24  2  0  0  0
 23 41  1  0  0  0
 24 25  1  0  0  0
 24 42  1  0  0  0
 25 26  2  0  0  0
 25 43  1  0  0  0
 26 27  1  0  0  0
M  END
> <s_m_entry_id>
62585

> <s_m_entry_name>
ligand_docking-pose.245

> <s_m_Source_Path>
/home/csk/Desktop/cluster/DUD-E-result/mk14

> <s_m_Source_File>
ligand_docking-pose.sdf

> <i_m_Source_File_Index>
245

> <i_lp_mmshare_version>
53161

> <r_lp_tautomer_probability>
1

> <s_lp_Force_Field>
OPLS_2005

> <r_lp_Energy>
37.874082

> <b_lp_Chiralities_Consistent>
1

> <s_lp_Variant>
190055-1

> <s_i_glide_gridfile>
glide-grid_2qd9

> <i_i_glide_lignum>
955

> <i_i_glide_rotatable_bonds>
3

> <r_i_docking_score>
-7.8720758001599

> <r_i_glide_ligand_efficiency>
-0.281145564291425

> <r_i_glide_ligand_efficiency_sa>
-0.853723519070841

> <r_i_glide_ligand_efficiency_ln>
-1.81710622886581

> <r_i_glide_gscore>
-7.8720758001599

> <r_i_glide_lipo>
-4.07965004380766

> <r_i_glide_hbond>
0

> <r_i_glide_metal>
0

> <r_i_glide_rewards>
-1.01816595803585

> <r_i_glide_evdw>
-39.9971809387207

> <r_i_glide_ecoul>
-7.32789993286133

> <r_i_glide_erotb>
0.324784238548849

> <r_i_glide_esite>
0

> <r_i_glide_emodel>
-57.0700361130562

> <r_i_glide_energy>
-47.325080871582

> <r_i_glide_einternal>
11.0664052963257

> <i_i_glide_confnum>
3

> <i_i_glide_posenum>
58

> <r_i_glide_eff_state_penalty>
0

> <i_f3d_flags>
0

> <s_user_duplicate_titles>
190055

> <s_m_subgroup_title>
dock_pv

> <s_m_subgroupid>
dock_pv1

> <b_m_subgroup_collapsed>
0

$$$$
189522
                    3D
 Schrodinger Suite 2021-1.
 37 40  0  0  1  0            999 V2000
   -6.1853    0.4874   18.7137 C   0  0  0  0  0  0
   -5.2207    1.0903   19.5184 C   0  0  0  0  0  0
   -4.0970    1.6856   18.9413 C   0  0  0  0  0  0
   -3.8853    1.5774   17.5674 C   0  0  0  0  0  0
   -4.8597    0.9845   16.7655 C   0  0  0  0  0  0
   -6.0349    0.4894   17.3286 C   0  0  0  0  0  0
   -4.6058    0.8511   15.0760 Cl  0  0  0  0  0  0
   -3.0155    2.6917   19.9152 S   0  0  0  0  0  0
   -2.5480    1.5824   21.2479 C   0  0  0  0  0  0
   -2.2500    2.1575   22.5450 C   0  0  0  0  0  0
   -1.8532    1.3684   23.5654 C   0  0  0  0  0  0
   -1.7125   -0.0649   23.3247 C   0  0  0  0  0  0
   -1.2468   -0.9721   24.2254 C   0  0  0  0  0  0
   -1.0583   -2.3759   23.8152 C   0  0  0  0  0  0
   -0.4346   -3.1129   24.5670 O   0  0  0  0  0  0
   -1.6040   -2.7502   22.5699 N   0  0  0  0  0  0
   -2.0152   -1.8567   21.7464 C   0  0  0  0  0  0
   -2.0713   -0.4964   22.0364 N   0  0  0  0  0  0
   -2.4678    0.3087   21.0311 N   0  0  0  0  0  0
   -0.8599   -0.5983   25.6143 C   0  0  0  0  0  0
   -1.7447   -0.8342   26.6852 C   0  0  0  0  0  0
   -1.3658   -0.5306   27.9931 C   0  0  0  0  0  0
   -0.1125    0.0179   28.2521 C   0  0  0  0  0  0
    0.7649    0.2678   27.2010 C   0  0  0  0  0  0
    0.4039   -0.0430   25.8882 C   0  0  0  0  0  0
    1.5478    0.2595   24.6217 Cl  0  0  0  0  0  0
   -3.3149   -1.5215   26.4279 Cl  0  0  0  0  0  0
   -7.0816    0.0877   19.1580 H   0  0  0  0  0  0
   -5.3701    1.1469   20.5853 H   0  0  0  0  0  0
   -3.0004    2.0006   17.1134 H   0  0  0  0  0  0
   -6.7939    0.0388   16.7055 H   0  0  0  0  0  0
   -2.3375    3.2197   22.7111 H   0  0  0  0  0  0
   -1.6248    1.7910   24.5331 H   0  0  0  0  0  0
   -2.3674   -2.1346   20.7543 H   0  0  0  0  0  0
   -2.0415   -0.7296   28.8123 H   0  0  0  0  0  0
    0.1852    0.2440   29.2661 H   0  0  0  0  0  0
    1.7360    0.6922   27.4152 H   0  0  0  0  0  0
  1  6  1  0  0  0
  1  2  2  0  0  0
  1 28  1  0  0  0
  2  3  1  0  0  0
  2 29  1  0  0  0
  3  4  2  0  0  0
  3  8  1  0  0  0
  4  5  1  0  0  0
  4 30  1  0  0  0
  5  6  2  0  0  0
  5  7  1  0  0  0
  6 31  1  0  0  0
  8  9  1  0  0  0
  9 19  2  0  0  0
  9 10  1  0  0  0
 10 11  2  0  0  0
 10 32  1  0  0  0
 11 12  1  0  0  0
 11 33  1  0  0  0
 12 18  1  0  0  0
 12 13  2  0  0  0
 13 14  1  0  0  0
 13 20  1  0  0  0
 14 15  2  0  0  0
 14 16  1  0  0  0
 16 17  2  0  0  0
 17 18  1  0  0  0
 17 34  1  0  0  0
 18 19  1  0  0  0
 20 25  1  0  0  0
 20 21  2  0  0  0
 21 22  1  0  0  0
 21 27  1  0  0  0
 22 23  2  0  0  0
 22 35  1  0  0  0
 23 24  1  0  0  0
 23 36  1  0  0  0
 24 25  2  0  0  0
 24 37  1  0  0  0
 25 26  1  0  0  0
M  END
> <s_m_entry_id>
62590

> <s_m_entry_name>
ligand_docking-pose.250

> <s_m_Source_Path>
/home/csk/Desktop/cluster/DUD-E-result/mk14

> <s_m_Source_File>
ligand_docking-pose.sdf

> <i_m_Source_File_Index>
250

> <i_lp_mmshare_version>
53161

> <r_lp_tautomer_probability>
1

> <s_lp_Force_Field>
OPLS_2005

> <r_lp_Energy>
37.284108

> <b_lp_Chiralities_Consistent>
1

> <s_lp_Variant>
189522-1

> <s_i_glide_gridfile>
glide-grid_2qd9

> <i_i_glide_lignum>
470

> <i_i_glide_rotatable_bonds>
3

> <r_i_docking_score>
-7.81066361822115

> <r_i_glide_ligand_efficiency>
-0.289283837711894

> <r_i_glide_ligand_efficiency_sa>
-0.867851512182251

> <r_i_glide_ligand_efficiency_ln>
-1.8181937214683

> <r_i_glide_gscore>
-7.81066361822115

> <r_i_glide_lipo>
-3.44536905876049

> <r_i_glide_hbond>
-0.141932103944375

> <r_i_glide_metal>
0

> <r_i_glide_rewards>
-1.91335106508008

> <r_i_glide_evdw>
-37.4223098754883

> <r_i_glide_ecoul>
-5.0338659286499

> <r_i_glide_erotb>
0.316183992635701

> <r_i_glide_esite>
0

> <r_i_glide_emodel>
-57.3183424787025

> <r_i_glide_energy>
-42.4561758041382

> <r_i_glide_einternal>
2.443514585495

> <i_i_glide_confnum>
14

> <i_i_glide_posenum>
390

> <r_i_glide_eff_state_penalty>
0

> <i_f3d_flags>
0

> <s_user_duplicate_titles>
189522

> <s_m_subgroup_title>
dock_pv

> <s_m_subgroupid>
dock_pv1

> <b_m_subgroup_collapsed>
0

$$$$
151165
                    3D
 Schrodinger Suite 2021-1.
 54 58  0  0  1  0            999 V2000
   -0.3366   -0.4405   27.6036 C   0  0  0  0  0  0
   -1.6393   -0.8667   27.3662 C   0  0  0  0  0  0
   -2.0577   -1.1616   26.0689 C   0  0  0  0  0  0
   -1.1553   -1.0661   24.9910 C   0  0  0  0  0  0
    0.1717   -0.6645   25.2455 C   0  0  0  0  0  0
    0.5572   -0.3266   26.5438 C   0  0  0  0  0  0
    1.3442   -0.5252   23.9774 Cl  0  0  0  0  0  0
   -1.5992   -1.2497   23.6510 N   0  0  0  0  0  0
   -1.8676   -0.0985   22.8872 C   0  0  0  0  0  0
   -1.8309    1.2011   23.4101 C   0  0  0  0  0  0
   -2.0357    2.3247   22.6035 C   0  0  0  0  0  0
   -2.4122    2.0538   21.2616 C   0  0  0  0  0  0
   -2.4377    0.7986   20.7636 N   0  0  0  0  0  0
   -2.1643   -0.2501   21.5369 C   0  0  0  0  0  0
   -2.1886   -1.6208   20.8932 C   0  0  0  0  0  0
   -1.8594   -2.6807   21.8454 N   0  0  0  0  0  0
   -1.7405   -2.5236   23.1831 C   0  0  0  0  0  0
   -1.8266   -3.5126   23.8758 O   0  0  0  0  0  0
   -2.8086    3.2829   20.0396 S   0  0  0  0  0  0
   -3.4253    2.2597   18.6761 C   0  0  0  0  0  0
   -2.8350    2.3564   17.3983 C   0  0  0  0  0  0
   -3.3944    1.7109   16.2946 C   0  0  0  0  0  0
   -4.5787    0.9951   16.4364 C   0  0  0  0  0  0
   -5.1773    0.8897   17.6886 C   0  0  0  0  0  0
   -4.5972    1.4923   18.8043 C   0  0  0  0  0  0
   -5.2219    1.3642   19.9931 F   0  0  0  0  0  0
   -5.1518    0.4109   15.3608 F   0  0  0  0  0  0
   -1.7075    3.5862   23.1110 N   0  0  0  0  0  0
   -0.4349    4.1970   22.6762 C   0  0  0  0  0  0
    0.7716    3.6711   23.4772 C   0  0  0  0  0  0
    0.6331    4.0568   24.9562 C   0  0  0  0  0  0
   -0.7426    3.6369   25.4983 C   0  0  0  0  0  0
   -1.9146    3.9710   24.5283 C   0  0  0  0  0  0
   -3.7058   -1.6130   25.8367 Cl  0  0  0  0  0  0
   -0.0148   -0.2006   28.6072 H   0  0  0  0  0  0
   -2.3302   -0.9526   28.1923 H   0  0  0  0  0  0
    1.5611    0.0087   26.7440 H   0  0  0  0  0  0
   -1.5778    1.3350   24.4425 H   0  0  0  0  0  0
   -1.4690   -1.6573   20.0730 H   0  0  0  0  0  0
   -3.1739   -1.8217   20.4677 H   0  0  0  0  0  0
   -1.8539   -3.6263   21.4939 H   0  0  0  0  0  0
   -1.9605    2.9708   17.2433 H   0  0  0  0  0  0
   -2.9366    1.8039   15.3203 H   0  0  0  0  0  0
   -6.1027    0.3416   17.7934 H   0  0  0  0  0  0
   -0.2838    4.0878   21.6042 H   0  0  0  0  0  0
   -0.4896    5.2751   22.8351 H   0  0  0  0  0  0
    0.8607    2.5883   23.3694 H   0  0  0  0  0  0
    1.6954    4.0881   23.0727 H   0  0  0  0  0  0
    0.7523    5.1362   25.0599 H   0  0  0  0  0  0
    1.4324    3.6022   25.5446 H   0  0  0  0  0  0
   -0.9199    4.1582   26.4399 H   0  0  0  0  0  0
   -0.7355    2.5922   25.7992 H   0  0  0  0  0  0
   -2.0958    5.0449   24.5704 H   0  0  0  0  0  0
   -2.8363    3.5074   24.8838 H   0  0  0  0  0  0
  1  6  1  0  0  0
  1  2  2  0  0  0
  1 35  1  0  0  0
  2  3  1  0  0  0
  2 36  1  0  0  0
  3  4  2  0  0  0
  3 34  1  0  0  0
  4  5  1  0  0  0
  4  8  1  0  0  0
  5  6  2  0  0  0
  5  7  1  0  0  0
  6 37  1  0  0  0
  8 17  1  0  0  0
  8  9  1  0  0  0
  9 14  2  0  0  0
  9 10  1  0  0  0
 10 11  2  0  0  0
 10 38  1  0  0  0
 11 12  1  0  0  0
 11 28  1  0  0  0
 12 13  2  0  0  0
 12 19  1  0  0  0
 13 14  1  0  0  0
 14 15  1  0  0  0
 15 16  1  0  0  0
 15 39  1  0  0  0
 15 40  1  0  0  0
 16 17  1  0  0  0
 16 41  1  0  0  0
 17 18  2  0  0  0
 19 20  1  0  0  0
 20 25  1  0  0  0
 20 21  2  0  0  0
 21 22  1  0  0  0
 21 42  1  0  0  0
 22 23  2  0  0  0
 22 43  1  0  0  0
 23 24  1  0  0  0
 23 27  1  0  0  0
 24 25  2  0  0  0
 24 44  1  0  0  0
 25 26  1  0  0  0
 28 33  1  0  0  0
 28 29  1  0  0  0
 29 30  1  0  0  0
 29 45  1  0  0  0
 29 46  1  0  0  0
 30 31  1  0  0  0
 30 47  1  0  0  0
 30 48  1  0  0  0
 31 32  1  0  0  0
 31 49  1  0  0  0
 31 50  1  0  0  0
 32 33  1  0  0  0
 32 51  1  0  0  0
 32 52  1  0  0  0
 33 53  1  0  0  0
 33 54  1  0  0  0
M  END
> <s_m_entry_id>
62594

> <s_m_entry_name>
ligand_docking-pose.254

> <s_m_Source_Path>
/home/csk/Desktop/cluster/DUD-E-result/mk14

> <s_m_Source_File>
ligand_docking-pose.sdf

> <i_m_Source_File_Index>
254

> <i_lp_mmshare_version>
53161

> <r_lp_tautomer_probability>
1

> <s_lp_Force_Field>
OPLS_2005

> <r_lp_Energy>
57.372533

> <b_lp_Chiralities_Consistent>
1

> <s_lp_Variant>
151165-1

> <s_i_glide_gridfile>
glide-grid_2qd9

> <i_i_glide_lignum>
455

> <i_i_glide_rotatable_bonds>
4

> <r_i_docking_score>
-7.76999645204852

> <r_i_glide_ligand_efficiency>
-0.228529307413192

> <r_i_glide_ligand_efficiency_sa>
-0.740346240363303

> <r_i_glide_ligand_efficiency_ln>
-1.71661015727584

> <r_i_glide_gscore>
-7.76999645204852

> <r_i_glide_lipo>
-3.02338432337545

> <r_i_glide_hbond>
-0.473255808432778

> <r_i_glide_metal>
0

> <r_i_glide_rewards>
-1.56592304359426

> <r_i_glide_evdw>
-27.6082725524902

> <r_i_glide_ecoul>
-10.5691919326782

> <r_i_glide_erotb>
0.302460365425608

> <r_i_glide_esite>
-0.0441012245453989

> <r_i_glide_emodel>
-50.6039792633302

> <r_i_glide_energy>
-38.1774644851685

> <r_i_glide_einternal>
7.91358232498169

> <i_i_glide_confnum>
44

> <i_i_glide_posenum>
255

> <r_i_glide_eff_state_penalty>
0

> <i_f3d_flags>
0

> <s_user_duplicate_titles>
151165

> <s_m_subgroup_title>
dock_pv

> <s_m_subgroupid>
dock_pv1

> <b_m_subgroup_collapsed>
0

$$$$
617200
                    3D
 Schrodinger Suite 2021-1.
 47 49  0  0  1  0            999 V2000
   -3.2286    1.1321   24.9238 C   0  0  0  0  0  0
   -2.8095    0.2325   23.7659 C   0  0  0  0  0  0
   -2.8329    0.7041   22.5020 C   0  0  0  0  0  0
   -2.4863   -0.1828   21.3985 C   0  0  0  0  0  0
   -2.0954   -1.4420   21.7107 C   0  0  0  0  0  0
   -2.0236   -1.9527   23.0829 C   0  0  0  0  0  0
   -1.6520   -3.1127   23.2952 O   0  0  0  0  0  0
   -2.4190   -1.0717   24.0754 N   0  0  0  0  0  0
   -2.3944   -1.6135   25.4616 C   0  0  0  0  0  0
   -1.3425   -1.0238   26.4016 C   0  0  0  0  0  0
   -0.1826   -0.4071   25.9205 C   0  0  0  0  0  0
    0.6810    0.2348   26.8029 C   0  0  0  0  0  0
    0.4110    0.2544   28.1725 C   0  0  0  0  0  0
   -0.7200   -0.4153   28.6575 C   0  0  0  0  0  0
   -1.5938   -1.0436   27.7746 C   0  0  0  0  0  0
    1.3837    1.0150   29.0769 C   0  0  0  0  0  0
    0.9279    1.2003   30.4466 N   0  0  0  0  0  0
   -1.6349   -2.7173   20.2756 Br  0  0  0  0  0  0
   -2.5967    0.1563   20.0779 O   0  0  0  0  0  0
   -3.1744    1.4138   19.7033 C   0  0  0  0  0  0
   -3.8181    1.2873   18.3218 C   0  0  0  0  0  0
   -3.0928    1.4258   17.1200 C   0  0  0  0  0  0
   -3.7126    1.2185   15.8911 C   0  0  0  0  0  0
   -5.0594    0.8869   15.8456 C   0  0  0  0  0  0
   -5.8006    0.8399   17.0175 C   0  0  0  0  0  0
   -5.1827    0.9908   18.2510 C   0  0  0  0  0  0
   -5.9183    0.8358   19.3769 F   0  0  0  0  0  0
   -5.6330    0.5497   14.6758 F   0  0  0  0  0  0
   -3.6480    2.0761   24.5745 H   0  0  0  0  0  0
   -3.9920    0.6453   25.5272 H   0  0  0  0  0  0
   -2.3794    1.3734   25.5631 H   0  0  0  0  0  0
   -3.1129    1.7295   22.3298 H   0  0  0  0  0  0
   -2.2783   -2.6975   25.4961 H   0  0  0  0  0  0
   -3.3772   -1.4354   25.8981 H   0  0  0  0  0  0
    0.0389   -0.3873   24.8633 H   0  0  0  0  0  0
    1.5542    0.7419   26.4190 H   0  0  0  0  0  0
   -0.9422   -0.4427   29.7135 H   0  0  0  0  0  0
   -2.4770   -1.5295   28.1642 H   0  0  0  0  0  0
    1.5627    2.0022   28.6472 H   0  0  0  0  0  0
    2.3392    0.4871   29.0856 H   0  0  0  0  0  0
   -0.0004    1.5965   30.4585 H   0  0  0  0  0  0
    0.8982    0.2998   30.9055 H   0  0  0  0  0  0
   -3.9665    1.7165   20.3885 H   0  0  0  0  0  0
   -2.4354    2.2142   19.7423 H   0  0  0  0  0  0
   -2.0354    1.6499   17.0760 H   0  0  0  0  0  0
   -3.1414    1.2727   14.9761 H   0  0  0  0  0  0
   -6.8350    0.5623   16.9823 H   0  0  0  0  0  0
  1  2  1  0  0  0
  1 29  1  0  0  0
  1 30  1  0  0  0
  1 31  1  0  0  0
  2  8  1  0  0  0
  2  3  2  0  0  0
  3  4  1  0  0  0
  3 32  1  0  0  0
  4  5  2  0  0  0
  4 19  1  0  0  0
  5  6  1  0  0  0
  5 18  1  0  0  0
  6  7  2  0  0  0
  6  8  1  0  0  0
  8  9  1  0  0  0
  9 10  1  0  0  0
  9 33  1  0  0  0
  9 34  1  0  0  0
 10 15  1  0  0  0
 10 11  2  0  0  0
 11 12  1  0  0  0
 11 35  1  0  0  0
 12 13  2  0  0  0
 12 36  1  0  0  0
 13 14  1  0  0  0
 13 16  1  0  0  0
 14 15  2  0  0  0
 14 37  1  0  0  0
 15 38  1  0  0  0
 16 17  1  0  0  0
 16 39  1  0  0  0
 16 40  1  0  0  0
 17 41  1  0  0  0
 17 42  1  0  0  0
 19 20  1  0  0  0
 20 21  1  0  0  0
 20 43  1  0  0  0
 20 44  1  0  0  0
 21 26  1  0  0  0
 21 22  2  0  0  0
 22 23  1  0  0  0
 22 45  1  0  0  0
 23 24  2  0  0  0
 23 46  1  0  0  0
 24 25  1  0  0  0
 24 28  1  0  0  0
 25 26  2  0  0  0
 25 47  1  0  0  0
 26 27  1  0  0  0
M  END
> <s_m_entry_id>
62596

> <s_m_entry_name>
ligand_docking-pose.256

> <s_m_Source_Path>
/home/csk/Desktop/cluster/DUD-E-result/mk14

> <s_m_Source_File>
ligand_docking-pose.sdf

> <i_m_Source_File_Index>
256

> <i_lp_mmshare_version>
53161

> <r_lp_tautomer_probability>
1

> <s_lp_Force_Field>
OPLS_2005

> <r_lp_Energy>
28.918265

> <b_lp_Chiralities_Consistent>
1

> <s_lp_Variant>
617200-1

> <s_i_glide_gridfile>
glide-grid_2qd9

> <i_i_glide_lignum>
1287

> <i_i_glide_rotatable_bonds>
6

> <r_i_docking_score>
-7.75977098713074

> <r_i_glide_ligand_efficiency>
-0.277134678111812

> <r_i_glide_ligand_efficiency_sa>
-0.841544106343908

> <r_i_glide_ligand_efficiency_ln>
-1.79118298060608

> <r_i_glide_gscore>
-7.75977098713074

> <r_i_glide_lipo>
-3.54790099139542

> <r_i_glide_hbond>
-0.453636209319314

> <r_i_glide_metal>
0

> <r_i_glide_rewards>
-1.4237917219067

> <r_i_glide_evdw>
-42.2466049194336

> <r_i_glide_ecoul>
-4.78991413116455

> <r_i_glide_erotb>
0.49637530113705

> <r_i_glide_esite>
0

> <r_i_glide_emodel>
-63.2081749715308

> <r_i_glide_energy>
-47.0365190505981

> <r_i_glide_einternal>
8.4030590057373

> <i_i_glide_confnum>
30

> <i_i_glide_posenum>
161

> <r_i_glide_eff_state_penalty>
0

> <i_f3d_flags>
0

> <s_user_duplicate_titles>
617200

> <s_m_subgroup_title>
dock_pv

> <s_m_subgroupid>
dock_pv1

> <b_m_subgroup_collapsed>
0

$$$$
151425
                    3D
 Schrodinger Suite 2021-1.
 39 42  0  0  1  0            999 V2000
   -0.3750   -0.4258   27.5592 C   0  0  0  0  0  0
    0.5670   -0.3553   26.5393 C   0  0  0  0  0  0
    0.2380   -0.7213   25.2322 C   0  0  0  0  0  0
   -1.0796   -1.1159   24.9292 C   0  0  0  0  0  0
   -2.0398   -1.1424   25.9632 C   0  0  0  0  0  0
   -1.6766   -0.8226   27.2717 C   0  0  0  0  0  0
   -3.6964   -1.5140   25.6629 Cl  0  0  0  0  0  0
   -1.4544   -1.3536   23.5769 N   0  0  0  0  0  0
   -1.7295   -0.2500   22.7656 C   0  0  0  0  0  0
   -2.0081    1.0097   23.2947 C   0  0  0  0  0  0
   -2.3713    2.0428   22.4524 C   0  0  0  0  0  0
   -2.4355    1.7885   21.0729 C   0  0  0  0  0  0
   -2.1769    0.5645   20.5618 N   0  0  0  0  0  0
   -1.8265   -0.4359   21.3836 C   0  0  0  0  0  0
   -1.5723   -1.8078   20.7864 C   0  0  0  0  0  0
   -1.5380   -2.8493   21.8215 N   0  0  0  0  0  0
   -1.6519   -2.6265   23.1521 C   0  0  0  0  0  0
   -2.0346   -3.5130   23.8760 O   0  0  0  0  0  0
   -2.8350    3.0192   19.8770 S   0  0  0  0  0  0
   -3.6484    2.0686   18.6081 C   0  0  0  0  0  0
   -4.8346    1.4146   18.9445 C   0  0  0  0  0  0
   -5.6438    0.8865   17.9437 C   0  0  0  0  0  0
   -5.2246    0.8871   16.6157 C   0  0  0  0  0  0
   -4.0077    1.4694   16.2759 C   0  0  0  0  0  0
   -3.2350    2.0870   17.2589 C   0  0  0  0  0  0
   -2.1687    2.8218   16.8562 F   0  0  0  0  0  0
   -5.9972    0.3268   15.6580 F   0  0  0  0  0  0
   -2.7635    3.6871   23.2983 Br  0  0  0  0  0  0
    1.4680   -0.6381   24.0162 Cl  0  0  0  0  0  0
   -0.0955   -0.1650   28.5711 H   0  0  0  0  0  0
    1.5651   -0.0304   26.7793 H   0  0  0  0  0  0
   -2.4098   -0.8601   28.0636 H   0  0  0  0  0  0
   -1.9702    1.1989   24.3578 H   0  0  0  0  0  0
   -0.6247   -1.8074   20.2464 H   0  0  0  0  0  0
   -2.3564   -2.0626   20.0712 H   0  0  0  0  0  0
   -1.5301   -3.8087   21.5107 H   0  0  0  0  0  0
   -5.1794    1.3999   19.9698 H   0  0  0  0  0  0
   -6.5903    0.4288   18.1996 H   0  0  0  0  0  0
   -3.6960    1.5018   15.2422 H   0  0  0  0  0  0
  1  6  1  0  0  0
  1  2  2  0  0  0
  1 30  1  0  0  0
  2  3  1  0  0  0
  2 31  1  0  0  0
  3  4  2  0  0  0
  3 29  1  0  0  0
  4  5  1  0  0  0
  4  8  1  0  0  0
  5  6  2  0  0  0
  5  7  1  0  0  0
  6 32  1  0  0  0
  8 17  1  0  0  0
  8  9  1  0  0  0
  9 14  2  0  0  0
  9 10  1  0  0  0
 10 11  2  0  0  0
 10 33  1  0  0  0
 11 12  1  0  0  0
 11 28  1  0  0  0
 12 13  2  0  0  0
 12 19  1  0  0  0
 13 14  1  0  0  0
 14 15  1  0  0  0
 15 16  1  0  0  0
 15 34  1  0  0  0
 15 35  1  0  0  0
 16 17  1  0  0  0
 16 36  1  0  0  0
 17 18  2  0  0  0
 19 20  1  0  0  0
 20 25  1  0  0  0
 20 21  2  0  0  0
 21 22  1  0  0  0
 21 37  1  0  0  0
 22 23  2  0  0  0
 22 38  1  0  0  0
 23 24  1  0  0  0
 23 27  1  0  0  0
 24 25  2  0  0  0
 24 39  1  0  0  0
 25 26  1  0  0  0
M  END
> <s_m_entry_id>
62599

> <s_m_entry_name>
ligand_docking-pose.259

> <s_m_Source_Path>
/home/csk/Desktop/cluster/DUD-E-result/mk14

> <s_m_Source_File>
ligand_docking-pose.sdf

> <i_m_Source_File_Index>
259

> <i_lp_mmshare_version>
53161

> <r_lp_tautomer_probability>
1

> <s_lp_Force_Field>
OPLS_2005

> <r_lp_Energy>
41.176347

> <b_lp_Chiralities_Consistent>
1

> <s_lp_Variant>
151425-1

> <s_i_glide_gridfile>
glide-grid_2qd9

> <i_i_glide_lignum>
445

> <i_i_glide_rotatable_bonds>
3

> <r_i_docking_score>
-7.71885663881271

> <r_i_glide_ligand_efficiency>
-0.266167470303886

> <r_i_glide_ligand_efficiency_sa>
-0.817750796546999

> <r_i_glide_ligand_efficiency_ln>
-1.76742243697208

> <r_i_glide_gscore>
-7.71885663881271

> <r_i_glide_lipo>
-3.29096058186935

> <r_i_glide_hbond>
-0.502769898384235

> <r_i_glide_metal>
0

> <r_i_glide_rewards>
-1.1546851744318

> <r_i_glide_evdw>
-31.4060821533203

> <r_i_glide_ecoul>
-9.27123165130615

> <r_i_glide_erotb>
0.230272675527954

> <r_i_glide_esite>
-0.0397248042933325

> <r_i_glide_emodel>
-57.7549218361804

> <r_i_glide_energy>
-40.6773138046265

> <r_i_glide_einternal>
0.945569574832916

> <i_i_glide_confnum>
1

> <i_i_glide_posenum>
31

> <r_i_glide_eff_state_penalty>
0

> <i_f3d_flags>
0

> <s_user_duplicate_titles>
151425

> <s_m_subgroup_title>
dock_pv

> <s_m_subgroupid>
dock_pv1

> <b_m_subgroup_collapsed>
0

$$$$
648381
                    3D
 Schrodinger Suite 2021-1.
 46 48  0  0  1  0            999 V2000
   -6.3465    0.4867   18.8359 C   0  0  0  0  0  0
   -5.3758    0.8869   17.7296 C   0  0  0  0  0  0
   -5.7431    0.6062   16.4089 C   0  0  0  0  0  0
   -4.8550    0.8157   15.3629 C   0  0  0  0  0  0
   -3.6093    1.3789   15.6198 C   0  0  0  0  0  0
   -3.2350    1.6867   16.9259 C   0  0  0  0  0  0
   -4.0950    1.4064   17.9987 C   0  0  0  0  0  0
   -3.6355    1.6510   19.3968 C   0  0  0  0  0  0
   -3.5901    2.7849   19.8758 O   0  0  0  0  0  0
   -3.1786    0.4978   20.1679 C   0  0  0  0  0  0
   -3.0414    0.4226   21.5616 C   0  0  0  0  0  0
   -2.5698   -0.8378   21.9127 C   0  0  0  0  0  0
   -2.3995   -1.5349   20.7412 N   0  0  0  0  0  0
   -2.7648   -0.7400   19.6860 C   0  0  0  0  0  0
   -2.3147   -1.3439   23.2239 C   0  0  0  0  0  0
   -3.0976   -1.1367   24.1509 O   0  0  0  0  0  0
   -1.1415   -1.9888   23.3403 N   0  0  0  0  0  0
   -0.5601   -2.3889   24.6222 C   0  0  0  0  0  0
   -0.2065   -1.2057   25.5218 C   0  0  0  0  0  0
   -0.8193   -1.1043   26.7763 C   0  0  0  0  0  0
   -0.5285   -0.0349   27.6180 C   0  0  0  0  0  0
    0.3694    0.9463   27.2083 C   0  0  0  0  0  0
    0.9861    0.8510   25.9623 C   0  0  0  0  0  0
    0.7307   -0.2401   25.1132 C   0  0  0  0  0  0
    1.3484   -0.4214   23.8869 O   0  0  0  0  0  0
    2.3621    0.4881   23.4728 C   0  0  0  0  0  0
   -2.0700   -2.4881   20.6688 H   0  0  0  0  0  0
   -5.9244   -0.3323   19.4146 H   0  0  0  0  0  0
   -6.5343    1.2871   19.5420 H   0  0  0  0  0  0
   -7.3027    0.1599   18.4316 H   0  0  0  0  0  0
   -6.6989    0.1531   16.1944 H   0  0  0  0  0  0
   -5.1331    0.5152   14.3624 H   0  0  0  0  0  0
   -2.9199    1.5624   14.8104 H   0  0  0  0  0  0
   -2.2564    2.1161   17.0760 H   0  0  0  0  0  0
   -3.2613    1.2195   22.2579 H   0  0  0  0  0  0
   -2.6735   -1.1128   18.6768 H   0  0  0  0  0  0
   -0.4819   -1.8655   22.5884 H   0  0  0  0  0  0
   -1.2009   -3.1019   25.1388 H   0  0  0  0  0  0
    0.3665   -2.9108   24.3807 H   0  0  0  0  0  0
   -1.5267   -1.8528   27.1039 H   0  0  0  0  0  0
   -0.9994    0.0340   28.5874 H   0  0  0  0  0  0
    0.6023    1.7753   27.8609 H   0  0  0  0  0  0
    1.6898    1.6225   25.6877 H   0  0  0  0  0  0
    2.7572    0.1764   22.5061 H   0  0  0  0  0  0
    1.9653    1.4985   23.3594 H   0  0  0  0  0  0
    3.1965    0.5078   24.1743 H   0  0  0  0  0  0
  1  2  1  0  0  0
  1 28  1  0  0  0
  1 29  1  0  0  0
  1 30  1  0  0  0
  2  7  1  0  0  0
  2  3  2  0  0  0
  3  4  1  0  0  0
  3 31  1  0  0  0
  4  5  2  0  0  0
  4 32  1  0  0  0
  5  6  1  0  0  0
  5 33  1  0  0  0
  6  7  2  0  0  0
  6 34  1  0  0  0
  7  8  1  0  0  0
  8  9  2  0  0  0
  8 10  1  0  0  0
 10 14  2  0  0  0
 10 11  1  0  0  0
 11 12  2  0  0  0
 11 35  1  0  0  0
 12 13  1  0  0  0
 12 15  1  0  0  0
 13 27  1  0  0  0
 13 14  1  0  0  0
 14 36  1  0  0  0
 15 16  2  0  0  0
 15 17  1  0  0  0
 17 18  1  0  0  0
 17 37  1  0  0  0
 18 19  1  0  0  0
 18 38  1  0  0  0
 18 39  1  0  0  0
 19 24  1  0  0  0
 19 20  2  0  0  0
 20 21  1  0  0  0
 20 40  1  0  0  0
 21 22  2  0  0  0
 21 41  1  0  0  0
 22 23  1  0  0  0
 22 42  1  0  0  0
 23 24  2  0  0  0
 23 43  1  0  0  0
 24 25  1  0  0  0
 25 26  1  0  0  0
 26 44  1  0  0  0
 26 45  1  0  0  0
 26 46  1  0  0  0
M  END
> <s_m_entry_id>
62600

> <s_m_entry_name>
ligand_docking-pose.260

> <s_m_Source_Path>
/home/csk/Desktop/cluster/DUD-E-result/mk14

> <s_m_Source_File>
ligand_docking-pose.sdf

> <i_m_Source_File_Index>
260

> <i_lp_mmshare_version>
53161

> <r_lp_tautomer_probability>
1

> <s_lp_Force_Field>
OPLS_2005

> <r_lp_Energy>
23.99835

> <b_lp_Chiralities_Consistent>
1

> <s_lp_Variant>
648381-1

> <s_i_glide_gridfile>
glide-grid_2qd9

> <i_i_glide_lignum>
926

> <i_i_glide_rotatable_bonds>
7

> <r_i_docking_score>
-7.71002225537298

> <r_i_glide_ligand_efficiency>
-0.296539317514345

> <r_i_glide_ligand_efficiency_sa>
-0.878496561310378

> <r_i_glide_ligand_efficiency_ln>
-1.81067342802787

> <r_i_glide_gscore>
-7.71002225537298

> <r_i_glide_lipo>
-4.09990578603769

> <r_i_glide_hbond>
0

> <r_i_glide_metal>
0

> <r_i_glide_rewards>
-1.72537045275087

> <r_i_glide_evdw>
-45.6081771850586

> <r_i_glide_ecoul>
-3.63550615310669

> <r_i_glide_erotb>
0.940988765634516

> <r_i_glide_esite>
0

> <r_i_glide_emodel>
-67.3654739649728

> <r_i_glide_energy>
-49.2436833381653

> <r_i_glide_einternal>
9.757399559021

> <i_i_glide_confnum>
74

> <i_i_glide_posenum>
266

> <r_i_glide_eff_state_penalty>
0

> <i_f3d_flags>
0

> <s_user_duplicate_titles>
648381

> <s_m_subgroup_title>
dock_pv

> <s_m_subgroupid>
dock_pv1

> <b_m_subgroup_collapsed>
0

$$$$
619398
                    3D
 Schrodinger Suite 2021-1.
 56 58  0  0  1  0            999 V2000
   -3.2350   -2.2617   25.8760 C   0  0  0  0  0  0
   -1.8037   -1.7710   26.1656 C   0  0  0  0  0  0
   -1.8290   -0.2931   26.5994 C   0  0  0  0  0  0
   -0.7738   -2.0974   25.0392 C   0  0  0  0  0  0
   -1.3103   -1.9701   23.6817 N   0  0  0  0  0  0
   -1.6245   -0.8195   22.9840 C   0  0  0  0  0  0
   -1.4940    0.5252   23.3006 C   0  0  0  0  0  0
   -1.9869    1.4709   22.3920 C   0  0  0  0  0  0
   -2.5404    1.0801   21.1395 C   0  0  0  0  0  0
   -2.5877   -0.2950   20.8255 C   0  0  0  0  0  0
   -2.1640   -1.2479   21.7587 C   0  0  0  0  0  0
   -2.1109   -2.6712   21.8308 C   0  0  0  0  0  0
   -1.6350   -3.0769   22.9804 N   0  0  0  0  0  0
   -2.9739    2.0286   20.2033 O   0  0  0  0  0  0
   -3.7505    1.6716   19.0973 C   0  0  0  0  0  0
   -4.9732    1.0111   19.2839 C   0  0  0  0  0  0
   -5.7780    0.6565   18.2010 C   0  0  0  0  0  0
   -5.3338    0.8870   16.9002 C   0  0  0  0  0  0
   -4.1319    1.5378   16.6862 C   0  0  0  0  0  0
   -3.3763    1.9762   17.7692 C   0  0  0  0  0  0
   -2.4350    2.8870   17.4760 F   0  0  0  0  0  0
   -6.0493    0.4672   15.8380 F   0  0  0  0  0  0
   -1.8546    2.9044   22.8411 C   0  0  0  0  0  0
   -2.8350    3.6052   23.0760 O   0  0  0  0  0  0
   -0.5915    3.3123   23.0760 N   0  0  0  0  0  0
   -0.1493    4.6740   23.3868 C   0  0  0  0  0  0
   -0.6855    5.2602   24.7173 C   0  0  0  0  0  0
   -0.8350    6.7211   24.6760 N   0  0  0  0  0  0
    0.4548    7.3937   24.5165 C   0  0  0  0  0  0
   -1.4610    7.1866   25.9123 C   0  0  0  0  0  0
   -3.7306   -1.6302   25.1373 H   0  0  0  0  0  0
   -3.8489   -2.2548   26.7776 H   0  0  0  0  0  0
   -3.2350   -3.2723   25.4760 H   0  0  0  0  0  0
   -1.4561   -2.3130   27.0448 H   0  0  0  0  0  0
   -2.3750    0.3334   25.8958 H   0  0  0  0  0  0
   -2.3304   -0.1840   27.5619 H   0  0  0  0  0  0
   -0.8232    0.1127   26.7157 H   0  0  0  0  0  0
    0.1072   -1.4580   25.1156 H   0  0  0  0  0  0
   -0.3962   -3.1130   25.1620 H   0  0  0  0  0  0
   -1.0406    0.8274   24.2334 H   0  0  0  0  0  0
   -2.9606   -0.6377   19.8731 H   0  0  0  0  0  0
   -2.4270   -3.3746   21.0760 H   0  0  0  0  0  0
   -5.3106    0.7812   20.2760 H   0  0  0  0  0  0
   -6.7229    0.1582   18.3603 H   0  0  0  0  0  0
   -3.8269    1.7776   15.6775 H   0  0  0  0  0  0
    0.1454    2.6392   22.9214 H   0  0  0  0  0  0
    0.9416    4.6921   23.3967 H   0  0  0  0  0  0
   -0.4350    5.3030   22.5429 H   0  0  0  0  0  0
   -1.6908    4.8735   24.8850 H   0  0  0  0  0  0
   -0.0886    4.9148   25.5638 H   0  0  0  0  0  0
    0.9268    7.1276   23.5703 H   0  0  0  0  0  0
    0.3284    8.4775   24.5124 H   0  0  0  0  0  0
    1.1458    7.1373   25.3220 H   0  0  0  0  0  0
   -2.4404    6.7268   26.0523 H   0  0  0  0  0  0
   -0.8521    6.9511   26.7876 H   0  0  0  0  0  0
   -1.6119    8.2671   25.8881 H   0  0  0  0  0  0
  1  2  1  0  0  0
  1 31  1  0  0  0
  1 32  1  0  0  0
  1 33  1  0  0  0
  2  3  1  0  0  0
  2  4  1  0  0  0
  2 34  1  0  0  0
  3 35  1  0  0  0
  3 36  1  0  0  0
  3 37  1  0  0  0
  4  5  1  0  0  0
  4 38  1  0  0  0
  4 39  1  0  0  0
  5 13  1  0  0  0
  5  6  1  0  0  0
  6 11  2  0  0  0
  6  7  1  0  0  0
  7  8  2  0  0  0
  7 40  1  0  0  0
  8  9  1  0  0  0
  8 23  1  0  0  0
  9 10  2  0  0  0
  9 14  1  0  0  0
 10 11  1  0  0  0
 10 41  1  0  0  0
 11 12  1  0  0  0
 12 13  2  0  0  0
 12 42  1  0  0  0
 14 15  1  0  0  0
 15 20  1  0  0  0
 15 16  2  0  0  0
 16 17  1  0  0  0
 16 43  1  0  0  0
 17 18  2  0  0  0
 17 44  1  0  0  0
 18 19  1  0  0  0
 18 22  1  0  0  0
 19 20  2  0  0  0
 19 45  1  0  0  0
 20 21  1  0  0  0
 23 24  2  0  0  0
 23 25  1  0  0  0
 25 26  1  0  0  0
 25 46  1  0  0  0
 26 27  1  0  0  0
 26 47  1  0  0  0
 26 48  1  0  0  0
 27 28  1  0  0  0
 27 49  1  0  0  0
 27 50  1  0  0  0
 28 29  1  0  0  0
 28 30  1  0  0  0
 29 51  1  0  0  0
 29 52  1  0  0  0
 29 53  1  0  0  0
 30 54  1  0  0  0
 30 55  1  0  0  0
 30 56  1  0  0  0
M  END
> <s_m_entry_id>
62602

> <s_m_entry_name>
ligand_docking-pose.262

> <s_m_Source_Path>
/home/csk/Desktop/cluster/DUD-E-result/mk14

> <s_m_Source_File>
ligand_docking-pose.sdf

> <i_m_Source_File_Index>
262

> <i_lp_mmshare_version>
53161

> <r_lp_tautomer_probability>
1

> <s_lp_Force_Field>
OPLS_2005

> <r_lp_Energy>
26.491067

> <b_lp_Chiralities_Consistent>
1

> <s_lp_Variant>
619398-1

> <s_i_glide_gridfile>
glide-grid_2qd9

> <i_i_glide_lignum>
1749

> <i_i_glide_rotatable_bonds>
9

> <r_i_docking_score>
-7.68375113364745

> <r_i_glide_ligand_efficiency>
-0.256125037788248

> <r_i_glide_ligand_efficiency_sa>
-0.795840042102036

> <r_i_glide_ligand_efficiency_ln>
-1.74583197873884

> <r_i_glide_gscore>
-7.68375113364745

> <r_i_glide_lipo>
-3.198092719382

> <r_i_glide_hbond>
-0.315133312636077

> <r_i_glide_metal>
0

> <r_i_glide_rewards>
-2.17733419409328

> <r_i_glide_evdw>
-27.245569229126

> <r_i_glide_ecoul>
-9.05208778381348

> <r_i_glide_erotb>
0.797344752536247

> <r_i_glide_esite>
-0.0704440310440171

> <r_i_glide_emodel>
-44.8587001936313

> <r_i_glide_energy>
-36.2976570129395

> <r_i_glide_einternal>
14.9483518600464

> <i_i_glide_confnum>
66

> <i_i_glide_posenum>
288

> <r_i_glide_eff_state_penalty>
0

> <i_f3d_flags>
0

> <s_user_duplicate_titles>
619398

> <s_m_subgroup_title>
dock_pv

> <s_m_subgroupid>
dock_pv1

> <b_m_subgroup_collapsed>
0

$$$$
146890
                    3D
 Schrodinger Suite 2021-1.
 44 47  0  0  1  0            999 V2000
    2.0669    4.7420   26.5541 C   0  0  0  0  0  0
    1.3718    6.1994   25.6404 S   0  0  2  0  0  0
    0.3997    6.8905   26.5980 O   0  0  0  0  0  0
    0.3340    5.2284   24.5078 C   0  0  0  0  0  0
   -0.7432    4.5093   25.0183 C   0  0  0  0  0  0
   -1.5170    3.7342   24.1640 C   0  0  0  0  0  0
   -1.2350    3.6870   22.7891 C   0  0  0  0  0  0
   -0.1687    4.4650   22.2833 C   0  0  0  0  0  0
    0.6223    5.2190   23.1452 C   0  0  0  0  0  0
   -2.0342    2.8467   21.9675 N   0  0  0  0  0  0
   -2.4350    2.9670   20.6741 C   0  0  0  0  0  0
   -3.0641    1.6838   20.3783 C   0  0  0  0  0  0
   -2.8350    0.8580   21.4204 C   0  0  0  0  0  0
   -2.3249    1.6050   22.4406 N   0  0  0  0  0  0
   -2.7742   -0.6115   21.5171 C   0  0  0  0  0  0
   -2.4380   -1.3874   20.4012 C   0  0  0  0  0  0
   -2.0561   -2.7130   20.6026 C   0  0  0  0  0  0
   -2.0350   -3.3029   21.8236 N   0  0  0  0  0  0
   -2.4350   -2.5676   22.8864 C   0  0  0  0  0  0
   -2.8139   -1.2329   22.7758 C   0  0  0  0  0  0
   -3.8402    1.3882   19.1396 C   0  0  0  0  0  0
   -5.1217    0.8376   19.2666 C   0  0  0  0  0  0
   -5.9150    0.6147   18.1416 C   0  0  0  0  0  0
   -5.4015    0.8870   16.8734 C   0  0  0  0  0  0
   -4.1300    1.4147   16.7243 C   0  0  0  0  0  0
   -3.3698    1.6870   17.8528 C   0  0  0  0  0  0
   -6.1110    0.5897   15.7671 F   0  0  0  0  0  0
   -2.2841    3.9261   19.9111 O   0  0  0  0  0  0
    2.5959    4.0715   25.8756 H   0  0  0  0  0  0
    1.2782    4.1804   27.0532 H   0  0  0  0  0  0
    2.7653    5.0821   27.3179 H   0  0  0  0  0  0
   -0.9656    4.5380   26.0758 H   0  0  0  0  0  0
   -2.3367    3.1669   24.5826 H   0  0  0  0  0  0
    0.0616    4.4870   21.2255 H   0  0  0  0  0  0
    1.4515    5.7900   22.7517 H   0  0  0  0  0  0
   -2.3789   -0.9558   19.4127 H   0  0  0  0  0  0
   -1.7566   -3.3361   19.7729 H   0  0  0  0  0  0
   -2.4216   -3.0549   23.8494 H   0  0  0  0  0  0
   -3.0650   -0.6746   23.6660 H   0  0  0  0  0  0
   -5.5197    0.6100   20.2446 H   0  0  0  0  0  0
   -6.9036    0.1907   18.2430 H   0  0  0  0  0  0
   -3.7479    1.6370   15.7384 H   0  0  0  0  0  0
   -2.4350    2.1875   17.6898 H   0  0  0  0  0  0
   -1.5560    1.3226   23.0335 H   0  0  0  0  0  0
  1  2  1  0  0  0
  1 29  1  0  0  0
  1 30  1  0  0  0
  1 31  1  0  0  0
  2  3  2  0  0  0
  2  4  1  0  0  0
  4  9  1  0  0  0
  4  5  2  0  0  0
  5  6  1  0  0  0
  5 32  1  0  0  0
  6  7  2  0  0  0
  6 33  1  0  0  0
  7  8  1  0  0  0
  7 10  1  0  0  0
  8  9  2  0  0  0
  8 34  1  0  0  0
  9 35  1  0  0  0
 10 14  1  0  0  0
 10 11  1  0  0  0
 11 12  1  0  0  0
 11 28  2  0  0  0
 12 21  1  0  0  0
 12 13  2  0  0  0
 13 15  1  0  0  0
 13 14  1  0  0  0
 14 44  1  0  0  0
 15 20  1  0  0  0
 15 16  2  0  0  0
 16 17  1  0  0  0
 16 36  1  0  0  0
 17 18  2  0  0  0
 17 37  1  0  0  0
 18 19  1  0  0  0
 19 20  2  0  0  0
 19 38  1  0  0  0
 20 39  1  0  0  0
 21 26  1  0  0  0
 21 22  2  0  0  0
 22 23  1  0  0  0
 22 40  1  0  0  0
 23 24  2  0  0  0
 23 41  1  0  0  0
 24 25  1  0  0  0
 24 27  1  0  0  0
 25 26  2  0  0  0
 25 42  1  0  0  0
 26 43  1  0  0  0
M  END
> <s_m_entry_id>
62606

> <s_m_entry_name>
ligand_docking-pose.266

> <s_m_Source_Path>
/home/csk/Desktop/cluster/DUD-E-result/mk14

> <s_m_Source_File>
ligand_docking-pose.sdf

> <i_m_Source_File_Index>
266

> <i_lp_mmshare_version>
53161

> <r_lp_tautomer_probability>
0.0650725321382239

> <s_lp_Force_Field>
OPLS_2005

> <r_lp_Energy>
36.514744

> <b_lp_Chiralities_Consistent>
1

> <s_lp_Variant>
146890-7

> <s_i_glide_gridfile>
glide-grid_2qd9

> <i_i_glide_lignum>
2688

> <i_i_glide_rotatable_bonds>
4

> <r_i_docking_score>
-7.65445551389153

> <r_i_glide_ligand_efficiency>
-0.273373411210412

> <r_i_glide_ligand_efficiency_sa>
-0.830122684763521

> <r_i_glide_ligand_efficiency_ln>
-1.76687307718582

> <r_i_glide_gscore>
-7.65445551389153

> <r_i_glide_lipo>
-3.23512103094466

> <r_i_glide_hbond>
-0.32

> <r_i_glide_metal>
0

> <r_i_glide_rewards>
-2.08915294237935

> <r_i_glide_evdw>
-30.3289203643799

> <r_i_glide_ecoul>
-5.65344142913818

> <r_i_glide_erotb>
0.378603226087609

> <r_i_glide_esite>
-0.0243225340654023

> <r_i_glide_emodel>
-40.5481870314202

> <r_i_glide_energy>
-35.9823617935181

> <r_i_glide_einternal>
8.20791625976562

> <i_i_glide_confnum>
44

> <i_i_glide_posenum>
144

> <r_i_glide_eff_state_penalty>
0

> <i_f3d_flags>
0

> <s_user_duplicate_titles>
146890

> <s_m_subgroup_title>
dock_pv

> <s_m_subgroupid>
dock_pv1

> <b_m_subgroup_collapsed>
0

$$$$
621956
                    3D
 Schrodinger Suite 2021-1.
 46 49  0  0  1  0            999 V2000
    1.5409   -0.4671   24.5577 C   0  0  0  0  0  0
    0.4957    0.5444   24.6911 N   0  0  1  0  0  0
    1.0339    1.7778   25.2741 C   0  0  0  0  0  0
   -0.0657    2.8499   25.4136 C   0  0  0  0  0  0
   -0.8009    3.1348   24.0890 C   0  0  0  0  0  0
   -1.3044    1.8187   23.4474 C   0  0  2  0  0  0
   -0.1653    0.7675   23.4018 C   0  0  0  0  0  0
   -2.0355    1.9763   22.1081 C   0  0  0  0  0  0
   -2.6708    1.0787   21.2408 C   0  0  0  0  0  0
   -3.1445    1.8551   20.1537 C   0  0  0  0  0  0
   -2.7672    3.1088   20.2763 N   0  0  0  0  0  0
   -2.0996    3.1615   21.4294 N   0  0  0  0  0  0
   -3.9203    1.4476   18.9402 C   0  0  0  0  0  0
   -3.4047    1.6859   17.6567 C   0  0  0  0  0  0
   -4.1544    1.3896   16.5278 C   0  0  0  0  0  0
   -5.4374    0.8868   16.6753 C   0  0  0  0  0  0
   -5.9738    0.6528   17.9431 C   0  0  0  0  0  0
   -5.1961    0.8893   19.0771 C   0  0  0  0  0  0
   -6.1286    0.5507   15.5676 F   0  0  0  0  0  0
   -2.7020   -0.3935   21.4323 C   0  0  0  0  0  0
   -2.9819   -0.9404   22.6893 C   0  0  0  0  0  0
   -2.7170   -2.2904   22.9018 C   0  0  0  0  0  0
   -2.2557   -3.1128   21.9286 N   0  0  0  0  0  0
   -2.0603   -2.5867   20.6936 C   0  0  0  0  0  0
   -2.2705   -1.2382   20.4039 C   0  0  0  0  0  0
   -1.6382    4.0028   21.7389 H   0  0  0  0  0  0
    2.3532   -0.1294   23.9122 H   0  0  0  0  0  0
    1.1392   -1.3921   24.1420 H   0  0  0  0  0  0
    1.9602   -0.7147   25.5311 H   0  0  0  0  0  0
    1.4544    1.5532   26.2563 H   0  0  0  0  0  0
    1.8643    2.1464   24.6671 H   0  0  0  0  0  0
   -0.7649    2.5505   26.1957 H   0  0  0  0  0  0
    0.3887    3.7714   25.7794 H   0  0  0  0  0  0
   -1.6317    3.8078   24.3035 H   0  0  0  0  0  0
   -0.0858    3.6261   23.4262 H   0  0  0  0  0  0
   -2.0238    1.3941   24.1479 H   0  0  0  0  0  0
    0.5795    1.0831   22.6762 H   0  0  0  0  0  0
   -0.5379   -0.1847   23.0297 H   0  0  0  0  0  0
   -2.4353    2.1304   17.4990 H   0  0  0  0  0  0
   -3.7503    1.5604   15.5404 H   0  0  0  0  0  0
   -6.9660    0.2357   18.0380 H   0  0  0  0  0  0
   -5.6048    0.6936   20.0578 H   0  0  0  0  0  0
   -3.3138   -0.3207   23.5081 H   0  0  0  0  0  0
   -2.8347   -2.7171   23.8858 H   0  0  0  0  0  0
   -1.7103   -3.2682   19.9310 H   0  0  0  0  0  0
   -2.0408   -0.8508   19.4224 H   0  0  0  0  0  0
  1  2  1  0  0  0
  1 27  1  0  0  0
  1 28  1  0  0  0
  1 29  1  0  0  0
  2  7  1  0  0  0
  2  3  1  0  0  0
  3  4  1  0  0  0
  3 30  1  0  0  0
  3 31  1  0  0  0
  4  5  1  0  0  0
  4 32  1  0  0  0
  4 33  1  0  0  0
  5  6  1  0  0  0
  5 34  1  0  0  0
  5 35  1  0  0  0
  6  7  1  0  0  0
  6  8  1  0  0  0
  6 36  1  0  0  0
  7 37  1  0  0  0
  7 38  1  0  0  0
  8 12  1  0  0  0
  8  9  2  0  0  0
  9 10  1  0  0  0
  9 20  1  0  0  0
 10 11  2  0  0  0
 10 13  1  0  0  0
 11 12  1  0  0  0
 12 26  1  0  0  0
 13 18  1  0  0  0
 13 14  2  0  0  0
 14 15  1  0  0  0
 14 39  1  0  0  0
 15 16  2  0  0  0
 15 40  1  0  0  0
 16 17  1  0  0  0
 16 19  1  0  0  0
 17 18  2  0  0  0
 17 41  1  0  0  0
 18 42  1  0  0  0
 20 25  1  0  0  0
 20 21  2  0  0  0
 21 22  1  0  0  0
 21 43  1  0  0  0
 22 23  2  0  0  0
 22 44  1  0  0  0
 23 24  1  0  0  0
 24 25  2  0  0  0
 24 45  1  0  0  0
 25 46  1  0  0  0
M  END
> <s_m_entry_id>
62610

> <s_m_entry_name>
ligand_docking-pose.270

> <s_m_Source_Path>
/home/csk/Desktop/cluster/DUD-E-result/mk14

> <s_m_Source_File>
ligand_docking-pose.sdf

> <i_m_Source_File_Index>
270

> <i_lp_mmshare_version>
53161

> <r_lp_tautomer_probability>
0.5

> <s_lp_Force_Field>
OPLS_2005

> <r_lp_Energy>
27.48363

> <b_lp_Chiralities_Consistent>
1

> <s_lp_Variant>
621956-2

> <s_i_glide_gridfile>
glide-grid_2qd9

> <i_i_glide_lignum>
2380

> <i_i_glide_rotatable_bonds>
3

> <r_i_docking_score>
-7.64901540865164

> <r_i_glide_ligand_efficiency>
-0.305960616346066

> <r_i_glide_ligand_efficiency_sa>
-0.894634268430532

> <r_i_glide_ligand_efficiency_ln>
-1.81304587434512

> <r_i_glide_gscore>
-7.64901540865164

> <r_i_glide_lipo>
-3.72172978776671

> <r_i_glide_hbond>
-0.226814543736466

> <r_i_glide_metal>
0

> <r_i_glide_rewards>
-2.49182083601252

> <r_i_glide_evdw>
-30.8155288696289

> <r_i_glide_ecoul>
-0.888335227966309

> <r_i_glide_erotb>
0.500648619966027

> <r_i_glide_esite>
-0.0352721334255848

> <r_i_glide_emodel>
-38.7408892103069

> <r_i_glide_energy>
-31.7038640975952

> <r_i_glide_einternal>
3.44838619232178

> <i_i_glide_confnum>
56

> <i_i_glide_posenum>
268

> <r_i_glide_eff_state_penalty>
0

> <i_f3d_flags>
0

> <s_user_duplicate_titles>
621956

> <s_m_subgroup_title>
dock_pv

> <s_m_subgroupid>
dock_pv1

> <b_m_subgroup_collapsed>
0

$$$$
621955
                    3D
 Schrodinger Suite 2021-1.
 43 46  0  0  1  0            999 V2000
   -3.3992    1.6868   17.6343 C   0  0  0  0  0  0
   -4.1629    1.3969   16.5130 C   0  0  0  0  0  0
   -5.4415    0.8867   16.6752 C   0  0  0  0  0  0
   -5.9650    0.6555   17.9487 C   0  0  0  0  0  0
   -5.1721    0.8870   19.0732 C   0  0  0  0  0  0
   -3.8918    1.4294   18.9200 C   0  0  0  0  0  0
   -3.0963    1.8055   20.1254 C   0  0  0  0  0  0
   -2.6037    1.1208   21.2439 C   0  0  0  0  0  0
   -2.0414    2.1217   22.0841 C   0  0  0  0  0  0
   -2.0351    3.2854   21.4718 N   0  0  0  0  0  0
   -2.6431    3.0810   20.3063 N   0  0  0  0  0  0
   -1.4860    1.9971   23.5073 C   0  0  1  0  0  0
   -0.2085    2.8271   23.7976 C   0  0  0  0  0  0
   -0.5029    4.3021   24.1296 C   0  0  0  0  0  0
   -1.6309    4.4578   25.1676 C   0  0  0  0  0  0
   -2.8410    3.7467   24.7570 N   0  0  1  0  0  0
   -2.5828    2.3156   24.5653 C   0  0  0  0  0  0
   -2.6040   -0.3531   21.4834 C   0  0  0  0  0  0
   -2.8582   -0.9030   22.7455 C   0  0  0  0  0  0
   -2.6743   -2.2721   22.9352 C   0  0  0  0  0  0
   -2.2805   -3.1091   21.9441 N   0  0  0  0  0  0
   -2.0783   -2.5747   20.7134 C   0  0  0  0  0  0
   -2.2349   -1.2148   20.4426 C   0  0  0  0  0  0
   -6.1452    0.5482   15.5772 F   0  0  0  0  0  0
   -2.7554    3.8204   19.6326 H   0  0  0  0  0  0
   -2.4350    2.1351   17.4762 H   0  0  0  0  0  0
   -3.7709    1.5748   15.5218 H   0  0  0  0  0  0
   -6.9567    0.2407   18.0550 H   0  0  0  0  0  0
   -5.5658    0.6851   20.0581 H   0  0  0  0  0  0
   -1.1880    0.9619   23.6706 H   0  0  0  0  0  0
    0.1803    2.4586   24.7498 H   0  0  0  0  0  0
    0.5904    2.6645   23.0760 H   0  0  0  0  0  0
    0.4033    4.7685   24.5169 H   0  0  0  0  0  0
   -0.7407    4.8744   23.2335 H   0  0  0  0  0  0
   -1.3069    4.0771   26.1374 H   0  0  0  0  0  0
   -1.8706    5.5129   25.3049 H   0  0  0  0  0  0
   -3.5394    3.8428   25.4840 H   0  0  0  0  0  0
   -3.5286    1.8733   24.2485 H   0  0  0  0  0  0
   -2.3432    1.8391   25.5183 H   0  0  0  0  0  0
   -3.1599   -0.2844   23.5747 H   0  0  0  0  0  0
   -2.8345   -2.7130   23.9074 H   0  0  0  0  0  0
   -1.7867   -3.2628   19.9329 H   0  0  0  0  0  0
   -2.0351   -0.8349   19.4518 H   0  0  0  0  0  0
  1  6  1  0  0  0
  1  2  2  0  0  0
  1 26  1  0  0  0
  2  3  1  0  0  0
  2 27  1  0  0  0
  3  4  2  0  0  0
  3 24  1  0  0  0
  4  5  1  0  0  0
  4 28  1  0  0  0
  5  6  2  0  0  0
  5 29  1  0  0  0
  6  7  1  0  0  0
  7 11  1  0  0  0
  7  8  2  0  0  0
  8  9  1  0  0  0
  8 18  1  0  0  0
  9 12  1  0  0  0
  9 10  2  0  0  0
 10 11  1  0  0  0
 11 25  1  0  0  0
 12 17  1  0  0  0
 12 13  1  0  0  0
 12 30  1  0  0  0
 13 14  1  0  0  0
 13 31  1  0  0  0
 13 32  1  0  0  0
 14 15  1  0  0  0
 14 33  1  0  0  0
 14 34  1  0  0  0
 15 16  1  0  0  0
 15 35  1  0  0  0
 15 36  1  0  0  0
 16 17  1  0  0  0
 16 37  1  0  0  0
 17 38  1  0  0  0
 17 39  1  0  0  0
 18 23  1  0  0  0
 18 19  2  0  0  0
 19 20  1  0  0  0
 19 40  1  0  0  0
 20 21  2  0  0  0
 20 41  1  0  0  0
 21 22  1  0  0  0
 22 23  2  0  0  0
 22 42  1  0  0  0
 23 43  1  0  0  0
M  END
> <s_m_entry_id>
62611

> <s_m_entry_name>
ligand_docking-pose.271

> <s_m_Source_Path>
/home/csk/Desktop/cluster/DUD-E-result/mk14

> <s_m_Source_File>
ligand_docking-pose.sdf

> <i_m_Source_File_Index>
271

> <i_lp_mmshare_version>
53161

> <r_lp_tautomer_probability>
0.5

> <s_lp_Force_Field>
OPLS_2005

> <r_lp_Energy>
21.674473

> <b_lp_Chiralities_Consistent>
1

> <s_lp_Variant>
621955-4

> <s_i_glide_gridfile>
glide-grid_2qd9

> <i_i_glide_lignum>
174

> <i_i_glide_rotatable_bonds>
3

> <r_i_docking_score>
-7.64123894727062

> <r_i_glide_ligand_efficiency>
-0.318384956136276

> <r_i_glide_ligand_efficiency_sa>
-0.918381131386886

> <r_i_glide_ligand_efficiency_ln>
-1.82889911368956

> <r_i_glide_gscore>
-7.64123894727062

> <r_i_glide_lipo>
-3.3766638311976

> <r_i_glide_hbond>
-0.227502977693973

> <r_i_glide_metal>
0

> <r_i_glide_rewards>
-2.58650346221673

> <r_i_glide_evdw>
-31.5341033935547

> <r_i_glide_ecoul>
-2.54882764816284

> <r_i_glide_erotb>
0.539780778548385

> <r_i_glide_esite>
-0.031320137808546

> <r_i_glide_emodel>
-44.8910371834576

> <r_i_glide_energy>
-34.0829310417175

> <r_i_glide_einternal>
7.54989051818848

> <i_i_glide_confnum>
151

> <i_i_glide_posenum>
211

> <r_i_glide_eff_state_penalty>
0

> <i_f3d_flags>
0

> <s_user_duplicate_titles>
621955

> <s_m_subgroup_title>
dock_pv

> <s_m_subgroupid>
dock_pv1

> <b_m_subgroup_collapsed>
0

$$$$
189595
                    3D
 Schrodinger Suite 2021-1.
 37 40  0  0  1  0            999 V2000
    0.3794    1.8347   26.4206 C   0  0  0  0  0  0
    1.1650    1.4335   25.3450 C   0  0  0  0  0  0
    0.6587    0.5556   24.3868 C   0  0  0  0  0  0
   -0.6641    0.0782   24.4874 C   0  0  0  0  0  0
   -1.4526    0.5004   25.5765 C   0  0  0  0  0  0
   -0.9278    1.3696   26.5340 C   0  0  0  0  0  0
   -3.0889   -0.0359   25.7722 Cl  0  0  0  0  0  0
   -1.2269   -0.8645   23.4776 C   0  0  0  0  0  0
   -1.9751   -0.4328   22.4215 C   0  0  0  0  0  0
   -2.3486    0.9520   22.1693 C   0  0  0  0  0  0
   -3.2350    1.2068   21.1858 C   0  0  0  0  0  0
   -3.7895    0.1375   20.3763 C   0  0  0  0  0  0
   -3.3911   -1.0820   20.5271 N   0  0  0  0  0  0
   -2.5205   -1.3656   21.5224 N   0  0  0  0  0  0
   -2.3043   -2.7130   21.7627 C   0  0  0  0  0  0
   -1.6350   -3.1696   22.7526 N   0  0  0  0  0  0
   -1.0321   -2.3130   23.6942 C   0  0  0  0  0  0
   -0.4047   -2.6909   24.6760 O   0  0  0  0  0  0
   -5.1326    0.4870   19.2054 S   0  0  0  0  0  0
   -4.2683    1.2052   17.8368 C   0  0  0  0  0  0
   -3.2350    2.0870   18.0754 C   0  0  0  0  0  0
   -2.4696    2.6123   17.0411 C   0  0  0  0  0  0
   -2.7707    2.2887   15.7429 C   0  0  0  0  0  0
   -3.8205    1.4047   15.4760 C   0  0  0  0  0  0
   -4.5933    0.8870   16.5182 C   0  0  0  0  0  0
   -2.0350    2.8870   14.7783 F   0  0  0  0  0  0
    1.7130    0.0778   23.0999 Cl  0  0  0  0  0  0
    0.7915    2.4986   27.1672 H   0  0  0  0  0  0
    2.1814    1.7942   25.2646 H   0  0  0  0  0  0
   -1.5339    1.6809   27.3722 H   0  0  0  0  0  0
   -1.9396    1.7530   22.7673 H   0  0  0  0  0  0
   -3.5290    2.2224   21.0197 H   0  0  0  0  0  0
   -2.7657   -3.3929   21.0529 H   0  0  0  0  0  0
   -2.9596    2.4134   19.0565 H   0  0  0  0  0  0
   -1.6495    3.2870   17.2432 H   0  0  0  0  0  0
   -4.0314    1.1060   14.4659 H   0  0  0  0  0  0
   -5.4008    0.2017   16.3020 H   0  0  0  0  0  0
  1  6  1  0  0  0
  1  2  2  0  0  0
  1 28  1  0  0  0
  2  3  1  0  0  0
  2 29  1  0  0  0
  3  4  2  0  0  0
  3 27  1  0  0  0
  4  5  1  0  0  0
  4  8  1  0  0  0
  5  6  2  0  0  0
  5  7  1  0  0  0
  6 30  1  0  0  0
  8 17  1  0  0  0
  8  9  2  0  0  0
  9 14  1  0  0  0
  9 10  1  0  0  0
 10 11  2  0  0  0
 10 31  1  0  0  0
 11 12  1  0  0  0
 11 32  1  0  0  0
 12 13  2  0  0  0
 12 19  1  0  0  0
 13 14  1  0  0  0
 14 15  1  0  0  0
 15 16  2  0  0  0
 15 33  1  0  0  0
 16 17  1  0  0  0
 17 18  2  0  0  0
 19 20  1  0  0  0
 20 25  1  0  0  0
 20 21  2  0  0  0
 21 22  1  0  0  0
 21 34  1  0  0  0
 22 23  2  0  0  0
 22 35  1  0  0  0
 23 24  1  0  0  0
 23 26  1  0  0  0
 24 25  2  0  0  0
 24 36  1  0  0  0
 25 37  1  0  0  0
M  END
> <s_m_entry_id>
62614

> <s_m_entry_name>
ligand_docking-pose.274

> <s_m_Source_Path>
/home/csk/Desktop/cluster/DUD-E-result/mk14

> <s_m_Source_File>
ligand_docking-pose.sdf

> <i_m_Source_File_Index>
274

> <i_lp_mmshare_version>
53161

> <r_lp_tautomer_probability>
1

> <s_lp_Force_Field>
OPLS_2005

> <r_lp_Energy>
44.256359

> <b_lp_Chiralities_Consistent>
1

> <s_lp_Variant>
189595-1

> <s_i_glide_gridfile>
glide-grid_2qd9

> <i_i_glide_lignum>
409

> <i_i_glide_rotatable_bonds>
3

> <r_i_docking_score>
-7.6072757528158

> <r_i_glide_ligand_efficiency>
-0.281750953807993

> <r_i_glide_ligand_efficiency_sa>
-0.845252860495373

> <r_i_glide_ligand_efficiency_ln>
-1.77084837951296

> <r_i_glide_gscore>
-7.6072757528158

> <r_i_glide_lipo>
-3.06234196634628

> <r_i_glide_hbond>
-0.369414908829575

> <r_i_glide_metal>
0

> <r_i_glide_rewards>
-2.35505528066013

> <r_i_glide_evdw>
-29.7847175598145

> <r_i_glide_ecoul>
-4.31614017486572

> <r_i_glide_erotb>
0.339055500289884

> <r_i_glide_esite>
-0.0228621930491137

> <r_i_glide_emodel>
-41.1087975593339

> <r_i_glide_energy>
-34.1008577346802

> <r_i_glide_einternal>
3.34250259399414

> <i_i_glide_confnum>
16

> <i_i_glide_posenum>
36

> <r_i_glide_eff_state_penalty>
0

> <i_f3d_flags>
0

> <s_user_duplicate_titles>
189595

> <s_m_subgroup_title>
dock_pv

> <s_m_subgroupid>
dock_pv1

> <b_m_subgroup_collapsed>
0

$$$$
623510
                    3D
 Schrodinger Suite 2021-1.
 55 57  0  0  1  0            999 V2000
   -0.0868    6.6738   23.1855 C   0  0  0  0  0  0
    0.2204    5.1860   22.9165 C   0  0  1  0  0  0
    1.7432    4.9346   22.7809 C   0  0  0  0  0  0
    2.3645    5.8311   21.8760 O   0  0  0  0  0  0
   -0.3260    4.3970   24.0199 N   0  0  0  0  0  0
   -1.1853    3.2962   23.8951 C   0  0  0  0  0  0
   -1.5066    2.7107   25.0722 N   0  0  0  0  0  0
   -2.3252    1.6354   25.0150 C   0  0  0  0  0  0
   -2.8139    1.1333   23.8107 C   0  0  0  0  0  0
   -2.4364    1.7767   22.6150 C   0  0  0  0  0  0
   -1.6346    2.8874   22.6762 N   0  0  0  0  0  0
   -2.9278    1.2741   21.3588 N   0  0  0  0  0  0
   -3.0398   -0.2037   21.2079 C   0  0  0  0  0  0
   -1.7015   -0.9175   20.9129 C   0  0  0  0  0  0
   -1.6064   -2.2979   21.5849 C   0  0  0  0  0  0
   -1.2712   -2.1732   23.0842 C   0  0  0  0  0  0
   -2.0350   -3.1130   23.8760 N   0  0  0  0  0  0
   -3.1588    2.0910   20.2752 C   0  0  0  0  0  0
   -2.8347    3.2830   20.2167 O   0  0  0  0  0  0
   -3.9590    1.5638   19.1047 C   0  0  0  0  0  0
   -5.2352    1.0065   19.3056 C   0  0  0  0  0  0
   -6.0113    0.5698   18.2303 C   0  0  0  0  0  0
   -5.4656    0.6610   16.9543 C   0  0  0  0  0  0
   -4.2108    1.1837   16.7312 C   0  0  0  0  0  0
   -3.4691    1.6855   17.7933 C   0  0  0  0  0  0
   -3.9059    1.0602   15.2821 C   0  0  0  0  0  0
   -5.1318    0.3040   14.7542 C   0  0  0  0  0  0
   -6.0351    0.1174   15.8377 O   0  0  0  0  0  0
   -0.2471    4.8889   21.9761 H   0  0  0  0  0  0
    0.1551    7.2898   22.3186 H   0  0  0  0  0  0
   -1.1371    6.8394   23.4153 H   0  0  0  0  0  0
    0.4915    7.0533   24.0294 H   0  0  0  0  0  0
    1.9333    3.9136   22.4509 H   0  0  0  0  0  0
    2.2397    5.0503   23.7458 H   0  0  0  0  0  0
    2.0207    5.6870   20.9682 H   0  0  0  0  0  0
    0.0066    4.6080   24.9496 H   0  0  0  0  0  0
   -2.5890    1.1789   25.9585 H   0  0  0  0  0  0
   -3.4842    0.2912   23.8481 H   0  0  0  0  0  0
   -3.4765   -0.6244   22.1086 H   0  0  0  0  0  0
   -3.7515   -0.5212   20.4508 H   0  0  0  0  0  0
   -1.6067   -1.0322   19.8332 H   0  0  0  0  0  0
   -0.8477   -0.3126   21.2188 H   0  0  0  0  0  0
   -2.5397   -2.8398   21.4146 H   0  0  0  0  0  0
   -0.8355   -2.8976   21.0992 H   0  0  0  0  0  0
   -0.2035   -2.3127   23.2590 H   0  0  0  0  0  0
   -1.5049   -1.1751   23.4524 H   0  0  0  0  0  0
   -1.8910   -2.8567   24.8456 H   0  0  0  0  0  0
   -3.0165   -2.9469   23.7009 H   0  0  0  0  0  0
   -5.6395    0.9186   20.2993 H   0  0  0  0  0  0
   -6.9787    0.1160   18.3917 H   0  0  0  0  0  0
   -2.5115    2.1395   17.5839 H   0  0  0  0  0  0
   -3.8174    2.0356   14.8124 H   0  0  0  0  0  0
   -3.0002    0.4921   15.0782 H   0  0  0  0  0  0
   -4.8454   -0.6481   14.3053 H   0  0  0  0  0  0
   -5.6350    0.8867   14.0018 H   0  0  0  0  0  0
  1  2  1  0  0  0
  1 30  1  0  0  0
  1 31  1  0  0  0
  1 32  1  0  0  0
  2 29  1  0  0  0
  2  3  1  0  0  0
  2  5  1  0  0  0
  3  4  1  0  0  0
  3 33  1  0  0  0
  3 34  1  0  0  0
  4 35  1  0  0  0
  5  6  1  0  0  0
  5 36  1  0  0  0
  6 11  1  0  0  0
  6  7  2  0  0  0
  7  8  1  0  0  0
  8  9  2  0  0  0
  8 37  1  0  0  0
  9 10  1  0  0  0
  9 38  1  0  0  0
 10 11  2  0  0  0
 10 12  1  0  0  0
 12 13  1  0  0  0
 12 18  1  0  0  0
 13 14  1  0  0  0
 13 39  1  0  0  0
 13 40  1  0  0  0
 14 15  1  0  0  0
 14 41  1  0  0  0
 14 42  1  0  0  0
 15 16  1  0  0  0
 15 43  1  0  0  0
 15 44  1  0  0  0
 16 17  1  0  0  0
 16 45  1  0  0  0
 16 46  1  0  0  0
 17 47  1  0  0  0
 17 48  1  0  0  0
 18 19  2  0  0  0
 18 20  1  0  0  0
 20 25  1  0  0  0
 20 21  2  0  0  0
 21 22  1  0  0  0
 21 49  1  0  0  0
 22 23  2  0  0  0
 22 50  1  0  0  0
 23 28  1  0  0  0
 23 24  1  0  0  0
 24 25  2  0  0  0
 24 26  1  0  0  0
 25 51  1  0  0  0
 26 27  1  0  0  0
 26 52  1  0  0  0
 26 53  1  0  0  0
 27 28  1  0  0  0
 27 54  1  0  0  0
 27 55  1  0  0  0
M  END
> <s_m_entry_id>
62616

> <s_m_entry_name>
ligand_docking-pose.276

> <s_m_Source_Path>
/home/csk/Desktop/cluster/DUD-E-result/mk14

> <s_m_Source_File>
ligand_docking-pose.sdf

> <i_m_Source_File_Index>
276

> <i_lp_mmshare_version>
53161

> <r_lp_tautomer_probability>
0.999999987636

> <s_lp_Force_Field>
OPLS_2005

> <r_lp_Energy>
30.971098

> <b_lp_Chiralities_Consistent>
1

> <s_lp_Variant>
623510-1

> <s_i_glide_gridfile>
glide-grid_2qd9

> <i_i_glide_lignum>
2095

> <i_i_glide_rotatable_bonds>
11

> <r_i_docking_score>
-7.59111610997121

> <r_i_glide_ligand_efficiency>
-0.271111289641829

> <r_i_glide_ligand_efficiency_sa>
-0.82325355136295

> <r_i_glide_ligand_efficiency_ln>
-1.7522524830353

> <r_i_glide_gscore>
-7.59111610997121

> <r_i_glide_lipo>
-3.59133986317457

> <r_i_glide_hbond>
-0.519661045560027

> <r_i_glide_metal>
0

> <r_i_glide_rewards>
-1.29518776175477

> <r_i_glide_evdw>
-30.0215072631836

> <r_i_glide_ecoul>
-11.9896068572998

> <r_i_glide_erotb>
1.17835368277608

> <r_i_glide_esite>
-0.0637647305037627

> <r_i_glide_emodel>
-54.2400960039453

> <r_i_glide_energy>
-42.0111141204834

> <r_i_glide_einternal>
14.236701965332

> <i_i_glide_confnum>
216

> <i_i_glide_posenum>
281

> <r_i_glide_eff_state_penalty>
0

> <i_f3d_flags>
0

> <s_user_duplicate_titles>
623510

> <s_m_subgroup_title>
dock_pv

> <s_m_subgroupid>
dock_pv1

> <b_m_subgroup_collapsed>
0

$$$$
210660
                    3D
 Schrodinger Suite 2021-1.
 43 46  0  0  1  0            999 V2000
    0.0031   -0.3997   27.8150 C   0  0  0  0  0  0
    0.7643    1.2217   27.3378 S   0  0  2  0  0  0
    0.1572    2.2641   28.2811 O   0  0  0  0  0  0
   -0.1207    1.3968   25.7514 C   0  0  0  0  0  0
    0.1901    0.5449   24.6910 C   0  0  0  0  0  0
   -0.4724    0.6946   23.4760 C   0  0  0  0  0  0
   -1.4349    1.7007   23.3162 C   0  0  0  0  0  0
   -1.7330    2.5548   24.3856 C   0  0  0  0  0  0
   -1.0793    2.3986   25.6050 C   0  0  0  0  0  0
   -2.0896    1.9049   22.0749 N   0  0  0  0  0  0
   -2.1196    3.0938   21.4009 C   0  0  0  0  0  0
   -2.7806    3.0636   20.2754 N   0  0  0  0  0  0
   -3.1672    1.8072   20.1278 C   0  0  0  0  0  0
   -2.7273    1.0240   21.2123 C   0  0  0  0  0  0
   -2.7425   -0.4386   21.4524 C   0  0  0  0  0  0
   -2.3004   -1.2958   20.4408 C   0  0  0  0  0  0
   -2.0522   -2.6291   20.7631 C   0  0  0  0  0  0
   -2.2315   -3.1206   22.0127 N   0  0  0  0  0  0
   -2.7188   -2.2967   22.9672 C   0  0  0  0  0  0
   -3.0146   -0.9590   22.7223 C   0  0  0  0  0  0
   -3.9400    1.4301   18.9027 C   0  0  0  0  0  0
   -5.2255    0.8871   19.0100 C   0  0  0  0  0  0
   -5.9814    0.6603   17.8579 C   0  0  0  0  0  0
   -5.4148    0.8871   16.6020 C   0  0  0  0  0  0
   -4.1314    1.3977   16.4835 C   0  0  0  0  0  0
   -3.4047    1.6857   17.6299 C   0  0  0  0  0  0
   -6.0783    0.5472   15.4775 F   0  0  0  0  0  0
    0.2271   -1.1688   27.0762 H   0  0  0  0  0  0
   -1.0778   -0.2962   27.9047 H   0  0  0  0  0  0
    0.3981   -0.7166   28.7787 H   0  0  0  0  0  0
    0.9443   -0.2212   24.8050 H   0  0  0  0  0  0
   -0.2255    0.0248   22.6674 H   0  0  0  0  0  0
   -2.4739    3.3328   24.2790 H   0  0  0  0  0  0
   -1.3138    3.0578   26.4286 H   0  0  0  0  0  0
   -1.5472    3.9152   21.7971 H   0  0  0  0  0  0
   -2.0868   -0.9265   19.4493 H   0  0  0  0  0  0
   -1.6861   -3.3209   20.0179 H   0  0  0  0  0  0
   -2.8352   -2.7127   23.9557 H   0  0  0  0  0  0
   -3.3513   -0.3231   23.5272 H   0  0  0  0  0  0
   -5.6527    0.6882   19.9827 H   0  0  0  0  0  0
   -6.9747    0.2427   17.9314 H   0  0  0  0  0  0
   -3.7046    1.5738   15.5060 H   0  0  0  0  0  0
   -2.4352    2.1349   17.4901 H   0  0  0  0  0  0
  1  2  1  0  0  0
  1 28  1  0  0  0
  1 29  1  0  0  0
  1 30  1  0  0  0
  2  3  2  0  0  0
  2  4  1  0  0  0
  4  9  1  0  0  0
  4  5  2  0  0  0
  5  6  1  0  0  0
  5 31  1  0  0  0
  6  7  2  0  0  0
  6 32  1  0  0  0
  7  8  1  0  0  0
  7 10  1  0  0  0
  8  9  2  0  0  0
  8 33  1  0  0  0
  9 34  1  0  0  0
 10 14  1  0  0  0
 10 11  1  0  0  0
 11 12  2  0  0  0
 11 35  1  0  0  0
 12 13  1  0  0  0
 13 14  2  0  0  0
 13 21  1  0  0  0
 14 15  1  0  0  0
 15 20  1  0  0  0
 15 16  2  0  0  0
 16 17  1  0  0  0
 16 36  1  0  0  0
 17 18  2  0  0  0
 17 37  1  0  0  0
 18 19  1  0  0  0
 19 20  2  0  0  0
 19 38  1  0  0  0
 20 39  1  0  0  0
 21 26  1  0  0  0
 21 22  2  0  0  0
 22 23  1  0  0  0
 22 40  1  0  0  0
 23 24  2  0  0  0
 23 41  1  0  0  0
 24 25  1  0  0  0
 24 27  1  0  0  0
 25 26  2  0  0  0
 25 42  1  0  0  0
 26 43  1  0  0  0
M  END
> <s_m_entry_id>
62617

> <s_m_entry_name>
ligand_docking-pose.277

> <s_m_Source_Path>
/home/csk/Desktop/cluster/DUD-E-result/mk14

> <s_m_Source_File>
ligand_docking-pose.sdf

> <i_m_Source_File_Index>
277

> <i_lp_mmshare_version>
53161

> <r_lp_tautomer_probability>
1

> <s_lp_Force_Field>
OPLS_2005

> <r_lp_Energy>
15.227535

> <b_lp_Chiralities_Consistent>
1

> <s_lp_Variant>
210660-1

> <s_i_glide_gridfile>
glide-grid_2qd9

> <i_i_glide_lignum>
2690

> <i_i_glide_rotatable_bonds>
4

> <r_i_docking_score>
-7.58904266060878

> <r_i_glide_ligand_efficiency>
-0.281075654096621

> <r_i_glide_ligand_efficiency_sa>
-0.843226961363485

> <r_i_glide_ligand_efficiency_ln>
-1.76660401624318

> <r_i_glide_gscore>
-7.58904266060878

> <r_i_glide_lipo>
-3.44438703620179

> <r_i_glide_hbond>
-0.255892662382038

> <r_i_glide_metal>
0

> <r_i_glide_rewards>
-2.31963068722504

> <r_i_glide_evdw>
-35.401439666748

> <r_i_glide_ecoul>
-0.971391677856445

> <r_i_glide_erotb>
0.407877351591229

> <r_i_glide_esite>
-0.0612288913752776

> <r_i_glide_emodel>
-43.4392497064003

> <r_i_glide_energy>
-36.3728313446045

> <r_i_glide_einternal>
6.15058088302612

> <i_i_glide_confnum>
21

> <i_i_glide_posenum>
285

> <r_i_glide_eff_state_penalty>
0

> <i_f3d_flags>
0

> <s_user_duplicate_titles>
210660

> <s_m_subgroup_title>
dock_pv

> <s_m_subgroupid>
dock_pv1

> <b_m_subgroup_collapsed>
0

$$$$
616645
                    3D
 Schrodinger Suite 2021-1.
 37 40  0  0  1  0            999 V2000
   -0.3318   -0.5038   27.8709 C   0  0  0  0  0  0
   -1.6267   -0.9176   27.5792 C   0  0  0  0  0  0
   -2.0153   -1.1279   26.2564 C   0  0  0  0  0  0
   -1.1027   -0.9431   25.2008 C   0  0  0  0  0  0
    0.2129   -0.5493   25.5118 C   0  0  0  0  0  0
    0.5790   -0.3130   26.8377 C   0  0  0  0  0  0
    1.4118   -0.3329   24.2787 Cl  0  0  0  0  0  0
   -1.5241   -1.1188   23.7841 C   0  0  0  0  0  0
   -1.7797   -0.0666   22.9666 C   0  0  0  0  0  0
   -1.7140    1.3431   23.3470 C   0  0  0  0  0  0
   -2.0381    2.2675   22.4200 C   0  0  0  0  0  0
   -2.4350    1.8483   21.0898 C   0  0  0  0  0  0
   -2.4668    0.6124   20.7364 N   0  0  0  0  0  0
   -2.1517   -0.3202   21.6216 N   0  0  0  0  0  0
   -2.2492   -1.5298   21.0587 N   0  0  0  0  0  0
   -2.0350   -2.5457   21.8092 C   0  0  0  0  0  0
   -1.7011   -2.4867   23.2378 C   0  0  0  0  0  0
   -1.6350   -3.5130   23.8760 O   0  0  0  0  0  0
   -2.8350    3.0718   19.8760 S   0  0  0  0  0  0
   -3.6250    2.0870   18.5981 C   0  0  0  0  0  0
   -3.1066    2.0870   17.2923 C   0  0  0  0  0  0
   -3.8049    1.4849   16.2465 C   0  0  0  0  0  0
   -5.0432    0.8989   16.4902 C   0  0  0  0  0  0
   -5.5598    0.8870   17.7839 C   0  0  0  0  0  0
   -4.8350    1.4324   18.8427 C   0  0  0  0  0  0
   -5.3728    1.4056   20.0828 F   0  0  0  0  0  0
   -5.7387    0.3393   15.4760 F   0  0  0  0  0  0
   -3.6433   -1.6187   25.9634 Cl  0  0  0  0  0  0
   -0.0284   -0.3378   28.8949 H   0  0  0  0  0  0
   -2.3315   -1.0726   28.3831 H   0  0  0  0  0  0
    1.5796    0.0080   27.0765 H   0  0  0  0  0  0
   -1.4070    1.6406   24.3396 H   0  0  0  0  0  0
   -1.9837    3.3127   22.6820 H   0  0  0  0  0  0
   -2.1227   -3.5130   21.3225 H   0  0  0  0  0  0
   -2.1748    2.5910   17.0760 H   0  0  0  0  0  0
   -3.4035    1.4994   15.2433 H   0  0  0  0  0  0
   -6.5196    0.4257   17.9683 H   0  0  0  0  0  0
  1  6  1  0  0  0
  1  2  2  0  0  0
  1 29  1  0  0  0
  2  3  1  0  0  0
  2 30  1  0  0  0
  3  4  2  0  0  0
  3 28  1  0  0  0
  4  5  1  0  0  0
  4  8  1  0  0  0
  5  6  2  0  0  0
  5  7  1  0  0  0
  6 31  1  0  0  0
  8 17  1  0  0  0
  8  9  2  0  0  0
  9 14  1  0  0  0
  9 10  1  0  0  0
 10 11  2  0  0  0
 10 32  1  0  0  0
 11 12  1  0  0  0
 11 33  1  0  0  0
 12 13  2  0  0  0
 12 19  1  0  0  0
 13 14  1  0  0  0
 14 15  1  0  0  0
 15 16  2  0  0  0
 16 17  1  0  0  0
 16 34  1  0  0  0
 17 18  2  0  0  0
 19 20  1  0  0  0
 20 25  1  0  0  0
 20 21  2  0  0  0
 21 22  1  0  0  0
 21 35  1  0  0  0
 22 23  2  0  0  0
 22 36  1  0  0  0
 23 24  1  0  0  0
 23 27  1  0  0  0
 24 25  2  0  0  0
 24 37  1  0  0  0
 25 26  1  0  0  0
M  END
> <s_m_entry_id>
62619

> <s_m_entry_name>
ligand_docking-pose.279

> <s_m_Source_Path>
/home/csk/Desktop/cluster/DUD-E-result/mk14

> <s_m_Source_File>
ligand_docking-pose.sdf

> <i_m_Source_File_Index>
279

> <i_lp_mmshare_version>
53161

> <r_lp_tautomer_probability>
1

> <s_lp_Force_Field>
OPLS_2005

> <r_lp_Energy>
35.841543

> <b_lp_Chiralities_Consistent>
1

> <s_lp_Variant>
616645-1

> <s_i_glide_gridfile>
glide-grid_2qd9

> <i_i_glide_lignum>
412

> <i_i_glide_rotatable_bonds>
3

> <r_i_docking_score>
-7.56845710117837

> <r_i_glide_ligand_efficiency>
-0.270302039327799

> <r_i_glide_ligand_efficiency_sa>
-0.820796190786609

> <r_i_glide_ligand_efficiency_ln>
-1.7470221185085

> <r_i_glide_gscore>
-7.56845710117837

> <r_i_glide_lipo>
-3.09989726930441

> <r_i_glide_hbond>
-0.466877795556952

> <r_i_glide_metal>
0

> <r_i_glide_rewards>
-1.58320059734689

> <r_i_glide_evdw>
-32.0259628295898

> <r_i_glide_ecoul>
-7.54234266281128

> <r_i_glide_erotb>
0.314168101931062

> <r_i_glide_esite>
0

> <r_i_glide_emodel>
-50.5084314752656

> <r_i_glide_energy>
-39.5683054924011

> <r_i_glide_einternal>
1.10073065757751

> <i_i_glide_confnum>
8

> <i_i_glide_posenum>
250

> <r_i_glide_eff_state_penalty>
0

> <i_f3d_flags>
0

> <s_user_duplicate_titles>
616645

> <s_m_subgroup_title>
dock_pv

> <s_m_subgroupid>
dock_pv1

> <b_m_subgroup_collapsed>
0

$$$$
620810
                    3D
 Schrodinger Suite 2021-1.
 48 51  0  0  1  0            999 V2000
    1.0861    5.7079   24.5621 C   0  0  0  0  0  0
   -0.2698    5.1412   24.9913 C   0  0  0  0  0  0
   -1.2345    5.9100   25.0133 O   0  0  0  0  0  0
   -0.3261    3.8684   25.4668 N   0  0  0  0  0  0
    0.6188    2.8375   25.0160 C   0  0  0  0  0  0
    0.1041    2.3120   23.6538 C   0  0  0  0  0  0
   -1.4336    2.0624   23.5621 C   0  0  0  0  0  0
   -2.3298    2.7447   24.6412 C   0  0  0  0  0  0
   -1.5969    3.2718   25.8989 C   0  0  0  0  0  0
   -2.0359    2.0716   22.1666 C   0  0  0  0  0  0
   -2.5924    1.1205   21.3055 C   0  0  0  0  0  0
   -3.0634    1.8691   20.1925 C   0  0  0  0  0  0
   -2.6977    3.1297   20.2761 N   0  0  0  0  0  0
   -2.0774    3.2294   21.4469 N   0  0  0  0  0  0
   -3.8587    1.4449   18.9973 C   0  0  0  0  0  0
   -3.3912    1.6869   17.6963 C   0  0  0  0  0  0
   -4.1794    1.3909   16.5941 C   0  0  0  0  0  0
   -5.4554    0.8868   16.7869 C   0  0  0  0  0  0
   -5.9430    0.6432   18.0722 C   0  0  0  0  0  0
   -5.1286    0.8874   19.1779 C   0  0  0  0  0  0
   -6.1886    0.5578   15.7050 F   0  0  0  0  0  0
   -2.6070   -0.3524   21.5252 C   0  0  0  0  0  0
   -2.8621   -0.8976   22.7887 C   0  0  0  0  0  0
   -2.6792   -2.2667   22.9795 C   0  0  0  0  0  0
   -2.2920   -3.1058   21.9873 N   0  0  0  0  0  0
   -2.0912   -2.5737   20.7553 C   0  0  0  0  0  0
   -2.2419   -1.2130   20.4830 C   0  0  0  0  0  0
   -1.6499    4.0880   21.7548 H   0  0  0  0  0  0
    1.3646    5.3321   23.5774 H   0  0  0  0  0  0
    1.8666    5.4367   25.2737 H   0  0  0  0  0  0
    1.0478    6.7962   24.5123 H   0  0  0  0  0  0
    1.6542    3.1820   25.0183 H   0  0  0  0  0  0
    0.6203    2.0387   25.7599 H   0  0  0  0  0  0
    0.3506    3.1253   22.9704 H   0  0  0  0  0  0
    0.6820    1.4443   23.3310 H   0  0  0  0  0  0
   -1.4244    1.0613   23.9915 H   0  0  0  0  0  0
   -3.1883    2.1297   24.9162 H   0  0  0  0  0  0
   -2.7308    3.6578   24.2000 H   0  0  0  0  0  0
   -1.3627    2.4512   26.5792 H   0  0  0  0  0  0
   -2.1754    3.9642   26.5136 H   0  0  0  0  0  0
   -2.4351    2.1436   17.5045 H   0  0  0  0  0  0
   -3.8125    1.5691   15.5936 H   0  0  0  0  0  0
   -6.9308    0.2248   18.2020 H   0  0  0  0  0  0
   -5.5034    0.6945   20.1726 H   0  0  0  0  0  0
   -3.1617   -0.2727   23.6160 H   0  0  0  0  0  0
   -2.8349   -2.7079   23.9524 H   0  0  0  0  0  0
   -1.8005   -3.2641   19.9761 H   0  0  0  0  0  0
   -2.0369   -0.8325   19.4931 H   0  0  0  0  0  0
  1  2  1  0  0  0
  1 29  1  0  0  0
  1 30  1  0  0  0
  1 31  1  0  0  0
  2  3  2  0  0  0
  2  4  1  0  0  0
  4  9  1  0  0  0
  4  5  1  0  0  0
  5  6  1  0  0  0
  5 32  1  0  0  0
  5 33  1  0  0  0
  6  7  1  0  0  0
  6 34  1  0  0  0
  6 35  1  0  0  0
  7  8  1  0  0  0
  7 10  1  0  0  0
  7 36  1  0  0  0
  8  9  1  0  0  0
  8 37  1  0  0  0
  8 38  1  0  0  0
  9 39  1  0  0  0
  9 40  1  0  0  0
 10 14  1  0  0  0
 10 11  2  0  0  0
 11 12  1  0  0  0
 11 22  1  0  0  0
 12 13  2  0  0  0
 12 15  1  0  0  0
 13 14  1  0  0  0
 14 28  1  0  0  0
 15 20  1  0  0  0
 15 16  2  0  0  0
 16 17  1  0  0  0
 16 41  1  0  0  0
 17 18  2  0  0  0
 17 42  1  0  0  0
 18 19  1  0  0  0
 18 21  1  0  0  0
 19 20  2  0  0  0
 19 43  1  0  0  0
 20 44  1  0  0  0
 22 27  1  0  0  0
 22 23  2  0  0  0
 23 24  1  0  0  0
 23 45  1  0  0  0
 24 25  2  0  0  0
 24 46  1  0  0  0
 25 26  1  0  0  0
 26 27  2  0  0  0
 26 47  1  0  0  0
 27 48  1  0  0  0
M  END
> <s_m_entry_id>
62620

> <s_m_entry_name>
ligand_docking-pose.280

> <s_m_Source_Path>
/home/csk/Desktop/cluster/DUD-E-result/mk14

> <s_m_Source_File>
ligand_docking-pose.sdf

> <i_m_Source_File_Index>
280

> <i_lp_mmshare_version>
53161

> <r_lp_tautomer_probability>
0.5

> <s_lp_Force_Field>
OPLS_2005

> <r_lp_Energy>
35.611645

> <b_lp_Chiralities_Consistent>
1

> <s_lp_Variant>
620810-1

> <s_i_glide_gridfile>
glide-grid_2qd9

> <i_i_glide_lignum>
2232

> <i_i_glide_rotatable_bonds>
4

> <r_i_docking_score>
-7.56820712876012

> <r_i_glide_ligand_efficiency>
-0.280303967731856

> <r_i_glide_ligand_efficiency_sa>
-0.840911902271733

> <r_i_glide_ligand_efficiency_ln>
-1.7617538479294

> <r_i_glide_gscore>
-7.56820712876012

> <r_i_glide_lipo>
-3.3190151988326

> <r_i_glide_hbond>
-0.236158984686249

> <r_i_glide_metal>
0

> <r_i_glide_rewards>
-2.22578813660994

> <r_i_glide_evdw>
-32.757137298584

> <r_i_glide_ecoul>
-3.34126210212708

> <r_i_glide_erotb>
0.434292807857165

> <r_i_glide_esite>
-0.0824914362402348

> <r_i_glide_emodel>
-41.0748177860952

> <r_i_glide_energy>
-36.0983994007111

> <r_i_glide_einternal>
4.49821996688843

> <i_i_glide_confnum>
51

> <i_i_glide_posenum>
309

> <r_i_glide_eff_state_penalty>
0

> <i_f3d_flags>
0

> <s_user_duplicate_titles>
620810

> <s_m_subgroup_title>
dock_pv

> <s_m_subgroupid>
dock_pv1

> <b_m_subgroup_collapsed>
0

$$$$
557421
                    3D
 Schrodinger Suite 2021-1.
 51 55  0  0  1  0            999 V2000
   -5.1726    1.1369   15.8770 C   0  0  0  0  0  0
   -3.8427    1.5343   15.8742 C   0  0  0  0  0  0
   -3.1785    1.6881   17.0845 C   0  0  0  0  0  0
   -3.8254    1.4317   18.2981 C   0  0  0  0  0  0
   -5.1489    0.9953   18.2923 C   0  0  0  0  0  0
   -5.8228    0.8835   17.0796 C   0  0  0  0  0  0
   -3.1007    1.6561   19.5545 C   0  0  0  0  0  0
   -3.0951    0.8476   20.6297 C   0  0  0  0  0  0
   -2.3446    1.1015   21.8803 C   0  0  0  0  0  0
   -2.0866    2.4178   22.3052 C   0  0  0  0  0  0
   -1.3618    2.6741   23.4684 C   0  0  0  0  0  0
   -0.8652    1.6164   24.2201 C   0  0  0  0  0  0
   -1.0963    0.3118   23.7869 C   0  0  0  0  0  0
   -1.8158    0.0364   22.6358 C   0  0  0  0  0  0
   -1.7893   -1.4181   22.4700 C   0  0  0  0  0  0
   -2.2821   -2.0902   21.4873 N   0  0  0  0  0  0
   -2.0353   -3.4825   21.4760 O   0  0  0  0  0  0
   -1.0970   -1.9343   23.6680 C   0  0  0  0  0  0
   -0.9390   -3.1129   23.9835 O   0  0  0  0  0  0
   -0.6667   -0.8595   24.3622 N   0  0  0  0  0  0
    0.0936   -0.9770   25.6124 C   0  0  0  0  0  0
   -0.7305   -0.7188   26.8704 C   0  0  0  0  0  0
   -1.8509   -1.5132   27.1323 C   0  0  0  0  0  0
   -2.5806   -1.3415   28.3057 C   0  0  0  0  0  0
   -2.2220   -0.3458   29.2125 C   0  0  0  0  0  0
   -1.1269    0.4827   28.9565 C   0  0  0  0  0  0
   -0.3745    0.2792   27.7887 C   0  0  0  0  0  0
    0.7656    1.0191   27.5344 O   0  0  0  0  0  0
    0.8088    2.2400   28.2277 C   0  0  0  0  0  0
    0.6585    2.0164   29.6062 O   0  0  0  0  0  0
   -0.6735    1.5852   29.9032 C   0  0  0  0  0  0
   -3.6355   -2.1448   28.5646 F   0  0  0  0  0  0
   -5.6947    1.0075   14.9422 H   0  0  0  0  0  0
   -3.3278    1.7176   14.9441 H   0  0  0  0  0  0
   -2.1525    2.0214   17.0714 H   0  0  0  0  0  0
   -5.6698    0.7752   19.2131 H   0  0  0  0  0  0
   -6.8350    0.5341   17.0759 H   0  0  0  0  0  0
   -2.5280    2.5716   19.5945 H   0  0  0  0  0  0
   -3.6845   -0.0574   20.5927 H   0  0  0  0  0  0
   -2.4383    3.2615   21.7310 H   0  0  0  0  0  0
   -1.1704    3.6906   23.7795 H   0  0  0  0  0  0
   -0.2923    1.8192   25.1131 H   0  0  0  0  0  0
   -2.5264   -3.7836   20.6993 H   0  0  0  0  0  0
    0.5253   -1.9722   25.7010 H   0  0  0  0  0  0
    0.9375   -0.2892   25.5642 H   0  0  0  0  0  0
   -2.1305   -2.3112   26.4574 H   0  0  0  0  0  0
   -2.7964   -0.2230   30.1185 H   0  0  0  0  0  0
    1.8122    2.6445   28.0869 H   0  0  0  0  0  0
    0.0599    2.9377   27.8429 H   0  0  0  0  0  0
   -1.3481    2.4368   29.8024 H   0  0  0  0  0  0
   -0.7247    1.2511   30.9406 H   0  0  0  0  0  0
  1  6  1  0  0  0
  1  2  2  0  0  0
  1 33  1  0  0  0
  2  3  1  0  0  0
  2 34  1  0  0  0
  3  4  2  0  0  0
  3 35  1  0  0  0
  4  5  1  0  0  0
  4  7  1  0  0  0
  5  6  2  0  0  0
  5 36  1  0  0  0
  6 37  1  0  0  0
  7  8  2  0  0  0
  7 38  1  0  0  0
  8  9  1  0  0  0
  8 39  1  0  0  0
  9 14  1  0  0  0
  9 10  2  0  0  0
 10 11  1  0  0  0
 10 40  1  0  0  0
 11 12  2  0  0  0
 11 41  1  0  0  0
 12 13  1  0  0  0
 12 42  1  0  0  0
 13 20  1  0  0  0
 13 14  2  0  0  0
 14 15  1  0  0  0
 15 16  2  0  0  0
 15 18  1  0  0  0
 16 17  1  0  0  0
 17 43  1  0  0  0
 18 19  2  0  0  0
 18 20  1  0  0  0
 20 21  1  0  0  0
 21 22  1  0  0  0
 21 44  1  0  0  0
 21 45  1  0  0  0
 22 27  1  0  0  0
 22 23  2  0  0  0
 23 24  1  0  0  0
 23 46  1  0  0  0
 24 25  2  0  0  0
 24 32  1  0  0  0
 25 26  1  0  0  0
 25 47  1  0  0  0
 26 31  1  0  0  0
 26 27  2  0  0  0
 27 28  1  0  0  0
 28 29  1  0  0  0
 29 30  1  0  0  0
 29 48  1  0  0  0
 29 49  1  0  0  0
 30 31  1  0  0  0
 31 50  1  0  0  0
 31 51  1  0  0  0
M  END
> <s_m_entry_id>
62624

> <s_m_entry_name>
ligand_docking-pose.284

> <s_m_Source_Path>
/home/csk/Desktop/cluster/DUD-E-result/mk14

> <s_m_Source_File>
ligand_docking-pose.sdf

> <i_m_Source_File_Index>
284

> <i_lp_mmshare_version>
53161

> <r_lp_tautomer_probability>
1

> <s_lp_Force_Field>
OPLS_2005

> <r_lp_Energy>
50.724641

> <b_lp_Chiralities_Consistent>
1

> <s_lp_Variant>
557421-1

> <s_i_glide_gridfile>
glide-grid_2qd9

> <i_i_glide_lignum>
384

> <i_i_glide_rotatable_bonds>
5

> <r_i_docking_score>
-7.55575096450592

> <r_i_glide_ligand_efficiency>
-0.23611721764081

> <r_i_glide_ligand_efficiency_sa>
-0.749625438475651

> <r_i_glide_ligand_efficiency_ln>
-1.69193860294536

> <r_i_glide_gscore>
-7.55575096450592

> <r_i_glide_lipo>
-2.93824654927693

> <r_i_glide_hbond>
-0.266924169019495

> <r_i_glide_metal>
0

> <r_i_glide_rewards>
-1.361405180896

> <r_i_glide_evdw>
-42.2096824645996

> <r_i_glide_ecoul>
-8.91564083099365

> <r_i_glide_erotb>
0.536549217003004

> <r_i_glide_esite>
-0.0778940344374621

> <r_i_glide_emodel>
-71.3635985425788

> <r_i_glide_energy>
-51.1253232955933

> <r_i_glide_einternal>
3.58984327316284

> <i_i_glide_confnum>
8

> <i_i_glide_posenum>
110

> <r_i_glide_eff_state_penalty>
0

> <i_f3d_flags>
0

> <s_user_duplicate_titles>
557421

> <s_m_subgroup_title>
dock_pv

> <s_m_subgroupid>
dock_pv1

> <b_m_subgroup_collapsed>
0

$$$$
147185
                    3D
 Schrodinger Suite 2021-1.
 39 42  0  0  1  0            999 V2000
   -1.8154    3.7178   25.1816 C   0  0  0  0  0  0
   -2.7088    2.6495   25.1693 C   0  0  0  0  0  0
   -2.9174    1.9421   23.9888 C   0  0  0  0  0  0
   -2.2487    2.3124   22.8177 C   0  0  0  0  0  0
   -1.3601    3.3880   22.8389 C   0  0  0  0  0  0
   -1.1367    4.0876   24.0224 C   0  0  0  0  0  0
   -2.4840    1.5123   21.5818 C   0  0  0  0  0  0
   -2.3535    0.1378   21.3852 C   0  0  0  0  0  0
   -2.8418   -0.1345   20.1010 C   0  0  0  0  0  0
   -3.2350    1.0479   19.4966 C   0  0  0  0  0  0
   -2.9562    2.0421   20.4013 N   0  0  0  0  0  0
   -3.8797    1.2474   18.1729 C   0  0  0  0  0  0
   -3.1642    1.6638   17.0411 C   0  0  0  0  0  0
   -3.7714    1.6913   15.7899 C   0  0  0  0  0  0
   -5.0998    1.3040   15.6495 C   0  0  0  0  0  0
   -5.8180    0.9024   16.7706 C   0  0  0  0  0  0
   -5.2243    0.8871   18.0295 C   0  0  0  0  0  0
   -5.9551    0.4873   19.0974 F   0  0  0  0  0  0
   -1.8410   -0.8565   22.3628 C   0  0  0  0  0  0
   -0.7247   -0.5788   23.1637 C   0  0  0  0  0  0
   -0.3108   -1.5308   24.0958 C   0  0  0  0  0  0
   -0.9516   -2.7129   24.2650 N   0  0  0  0  0  0
   -2.0256   -2.9703   23.4762 C   0  0  0  0  0  0
   -2.4938   -2.0825   22.5120 C   0  0  0  0  0  0
   -3.1582    3.0183   20.2544 H   0  0  0  0  0  0
   -1.6390    4.2567   26.1013 H   0  0  0  0  0  0
   -3.2264    2.3621   26.0730 H   0  0  0  0  0  0
   -3.6007    1.1046   23.9839 H   0  0  0  0  0  0
   -0.8350    3.6870   21.9439 H   0  0  0  0  0  0
   -0.4341    4.9082   24.0429 H   0  0  0  0  0  0
   -2.9137   -1.1155   19.6537 H   0  0  0  0  0  0
   -2.1192    1.9274   17.0760 H   0  0  0  0  0  0
   -3.1984    1.9943   14.9272 H   0  0  0  0  0  0
   -5.5681    1.3069   14.6765 H   0  0  0  0  0  0
   -6.8350    0.5771   16.6654 H   0  0  0  0  0  0
   -0.1932    0.3571   23.0738 H   0  0  0  0  0  0
    0.5450   -1.3520   24.7316 H   0  0  0  0  0  0
   -2.5257   -3.9110   23.6353 H   0  0  0  0  0  0
   -3.3585   -2.3300   21.9133 H   0  0  0  0  0  0
  1  6  1  0  0  0
  1  2  2  0  0  0
  1 26  1  0  0  0
  2  3  1  0  0  0
  2 27  1  0  0  0
  3  4  2  0  0  0
  3 28  1  0  0  0
  4  5  1  0  0  0
  4  7  1  0  0  0
  5  6  2  0  0  0
  5 29  1  0  0  0
  6 30  1  0  0  0
  7 11  1  0  0  0
  7  8  2  0  0  0
  8  9  1  0  0  0
  8 19  1  0  0  0
  9 10  2  0  0  0
  9 31  1  0  0  0
 10 11  1  0  0  0
 10 12  1  0  0  0
 11 25  1  0  0  0
 12 17  1  0  0  0
 12 13  2  0  0  0
 13 14  1  0  0  0
 13 32  1  0  0  0
 14 15  2  0  0  0
 14 33  1  0  0  0
 15 16  1  0  0  0
 15 34  1  0  0  0
 16 17  2  0  0  0
 16 35  1  0  0  0
 17 18  1  0  0  0
 19 24  1  0  0  0
 19 20  2  0  0  0
 20 21  1  0  0  0
 20 36  1  0  0  0
 21 22  2  0  0  0
 21 37  1  0  0  0
 22 23  1  0  0  0
 23 24  2  0  0  0
 23 38  1  0  0  0
 24 39  1  0  0  0
M  END
> <s_m_entry_id>
62625

> <s_m_entry_name>
ligand_docking-pose.285

> <s_m_Source_Path>
/home/csk/Desktop/cluster/DUD-E-result/mk14

> <s_m_Source_File>
ligand_docking-pose.sdf

> <i_m_Source_File_Index>
285

> <i_lp_mmshare_version>
53161

> <r_lp_tautomer_probability>
1

> <s_lp_Force_Field>
OPLS_2005

> <r_lp_Energy>
17.158352

> <b_lp_Chiralities_Consistent>
1

> <s_lp_Variant>
147185-1

> <s_i_glide_gridfile>
glide-grid_2qd9

> <i_i_glide_lignum>
142

> <i_i_glide_rotatable_bonds>
3

> <r_i_docking_score>
-7.55129212036726

> <r_i_glide_ligand_efficiency>
-0.314637171681969

> <r_i_glide_ligand_efficiency_sa>
-0.907570650360681

> <r_i_glide_ligand_efficiency_ln>
-1.80737071062064

> <r_i_glide_gscore>
-7.55129212036726

> <r_i_glide_lipo>
-3.53039305348992

> <r_i_glide_hbond>
-0.203087783758287

> <r_i_glide_metal>
0

> <r_i_glide_rewards>
-2.70842460455019

> <r_i_glide_evdw>
-36.2029647827148

> <r_i_glide_ecoul>
0.909892141819

> <r_i_glide_erotb>
0.564277739294026

> <r_i_glide_esite>
0

> <r_i_glide_emodel>
-44.9885945429765

> <r_i_glide_energy>
-35.2930726408958

> <r_i_glide_einternal>
8.31296253204346

> <i_i_glide_confnum>
30

> <i_i_glide_posenum>
306

> <r_i_glide_eff_state_penalty>
0

> <i_f3d_flags>
0

> <s_user_duplicate_titles>
147185

> <s_m_subgroup_title>
dock_pv

> <s_m_subgroupid>
dock_pv1

> <b_m_subgroup_collapsed>
0

$$$$
210614
                    3D
 Schrodinger Suite 2021-1.
 42 45  0  0  1  0            999 V2000
    2.4199   -0.0672   23.7595 C   0  0  0  0  0  0
    1.1612   -0.3129   25.0409 S   0  0  0  0  0  0
   -0.0934    0.8840   24.7455 C   0  0  0  0  0  0
   -0.5559    1.6866   25.7887 C   0  0  0  0  0  0
   -1.5470    2.6400   25.5458 C   0  0  0  0  0  0
   -2.0743    2.7906   24.2615 C   0  0  0  0  0  0
   -1.6206    1.9735   23.2185 C   0  0  0  0  0  0
   -0.6320    1.0180   23.4697 C   0  0  0  0  0  0
   -2.1443    2.1392   21.9199 N   0  0  0  0  0  0
   -2.0355    3.2869   21.1880 C   0  0  0  0  0  0
   -2.6112    3.2419   20.0190 N   0  0  0  0  0  0
   -3.0428    1.9956   19.9017 C   0  0  0  0  0  0
   -2.7192    1.2340   21.0435 C   0  0  0  0  0  0
   -2.7939   -0.2324   21.3155 C   0  0  0  0  0  0
   -2.4268   -1.1252   20.3028 C   0  0  0  0  0  0
   -2.2580   -2.4720   20.6246 C   0  0  0  0  0  0
   -2.4354   -2.9625   21.8767 N   0  0  0  0  0  0
   -2.8354   -2.0940   22.8374 C   0  0  0  0  0  0
   -3.0587   -0.7400   22.5937 C   0  0  0  0  0  0
   -3.7716    1.5836   18.6647 C   0  0  0  0  0  0
   -3.2361    1.6859   17.3658 C   0  0  0  0  0  0
   -4.0009    1.3114   16.2653 C   0  0  0  0  0  0
   -5.3119    0.8918   16.4473 C   0  0  0  0  0  0
   -5.8704    0.8616   17.7216 C   0  0  0  0  0  0
   -5.0830    1.1413   18.8337 C   0  0  0  0  0  0
   -6.0349    0.4872   15.3806 F   0  0  0  0  0  0
    3.2771   -0.7124   23.9487 H   0  0  0  0  0  0
    2.0244   -0.3006   22.7727 H   0  0  0  0  0  0
    2.7659    0.9638   23.7612 H   0  0  0  0  0  0
   -0.1421    1.5777   26.7813 H   0  0  0  0  0  0
   -1.9018    3.2633   26.3540 H   0  0  0  0  0  0
   -2.8408    3.5310   24.0871 H   0  0  0  0  0  0
   -0.2816    0.3758   22.6762 H   0  0  0  0  0  0
   -1.4262    4.0869   21.5788 H   0  0  0  0  0  0
   -2.2170   -0.7777   19.3019 H   0  0  0  0  0  0
   -1.9575   -3.1866   19.8729 H   0  0  0  0  0  0
   -2.9419   -2.4896   23.8350 H   0  0  0  0  0  0
   -3.3437   -0.0890   23.4072 H   0  0  0  0  0  0
   -2.2572    2.0788   17.1417 H   0  0  0  0  0  0
   -3.5856    1.3646   15.2692 H   0  0  0  0  0  0
   -6.8889    0.5297   17.8540 H   0  0  0  0  0  0
   -5.5135    1.0647   19.8221 H   0  0  0  0  0  0
  1  2  1  0  0  0
  1 27  1  0  0  0
  1 28  1  0  0  0
  1 29  1  0  0  0
  2  3  1  0  0  0
  3  8  1  0  0  0
  3  4  2  0  0  0
  4  5  1  0  0  0
  4 30  1  0  0  0
  5  6  2  0  0  0
  5 31  1  0  0  0
  6  7  1  0  0  0
  6 32  1  0  0  0
  7  8  2  0  0  0
  7  9  1  0  0  0
  8 33  1  0  0  0
  9 13  1  0  0  0
  9 10  1  0  0  0
 10 11  2  0  0  0
 10 34  1  0  0  0
 11 12  1  0  0  0
 12 13  2  0  0  0
 12 20  1  0  0  0
 13 14  1  0  0  0
 14 19  1  0  0  0
 14 15  2  0  0  0
 15 16  1  0  0  0
 15 35  1  0  0  0
 16 17  2  0  0  0
 16 36  1  0  0  0
 17 18  1  0  0  0
 18 19  2  0  0  0
 18 37  1  0  0  0
 19 38  1  0  0  0
 20 25  1  0  0  0
 20 21  2  0  0  0
 21 22  1  0  0  0
 21 39  1  0  0  0
 22 23  2  0  0  0
 22 40  1  0  0  0
 23 24  1  0  0  0
 23 26  1  0  0  0
 24 25  2  0  0  0
 24 41  1  0  0  0
 25 42  1  0  0  0
M  END
> <s_m_entry_id>
62628

> <s_m_entry_name>
ligand_docking-pose.288

> <s_m_Source_Path>
/home/csk/Desktop/cluster/DUD-E-result/mk14

> <s_m_Source_File>
ligand_docking-pose.sdf

> <i_m_Source_File_Index>
288

> <i_lp_mmshare_version>
53161

> <r_lp_tautomer_probability>
1

> <s_lp_Force_Field>
OPLS_2005

> <r_lp_Energy>
16.143226

> <b_lp_Chiralities_Consistent>
1

> <s_lp_Variant>
210614-1

> <s_i_glide_gridfile>
glide-grid_2qd9

> <i_i_glide_lignum>
2612

> <i_i_glide_rotatable_bonds>
4

> <r_i_docking_score>
-7.53869289611359

> <r_i_glide_ligand_efficiency>
-0.2899497267736

> <r_i_glide_ligand_efficiency_sa>
-0.858974924669706

> <r_i_glide_ligand_efficiency_ln>
-1.77043729018329

> <r_i_glide_gscore>
-7.53869289611359

> <r_i_glide_lipo>
-3.63858739396497

> <r_i_glide_hbond>
-0.0891984518037696

> <r_i_glide_metal>
0

> <r_i_glide_rewards>
-2.38413451378495

> <r_i_glide_evdw>
-34.2475280761719

> <r_i_glide_ecoul>
-0.747140884399414

> <r_i_glide_erotb>
0.440700899682324

> <r_i_glide_esite>
-0.0430258997737179

> <r_i_glide_emodel>
-36.9673936351526

> <r_i_glide_energy>
-34.9946689605713

> <r_i_glide_einternal>
6.76999807357788

> <i_i_glide_confnum>
12

> <i_i_glide_posenum>
14

> <r_i_glide_eff_state_penalty>
0

> <i_f3d_flags>
0

> <s_user_duplicate_titles>
210614

> <s_m_subgroup_title>
dock_pv

> <s_m_subgroupid>
dock_pv1

> <b_m_subgroup_collapsed>
0

$$$$
620923
                    3D
 Schrodinger Suite 2021-1.
 45 48  0  0  1  0            999 V2000
    0.9110    0.4015   23.4897 C   0  0  0  0  0  0
   -0.0610   -0.0163   24.5872 C   0  0  0  0  0  0
    0.4646   -0.3296   25.8410 C   0  0  0  0  0  0
   -0.3587   -0.7902   26.8613 C   0  0  0  0  0  0
   -1.7306   -0.9631   26.6422 C   0  0  0  0  0  0
   -2.2600   -0.6391   25.3846 C   0  0  0  0  0  0
   -1.4485   -0.1411   24.3556 C   0  0  0  0  0  0
   -2.0742    0.2707   23.0693 C   0  0  0  0  0  0
   -2.0026    1.5823   22.7303 C   0  0  0  0  0  0
   -2.4291    2.0254   21.4252 C   0  0  0  0  0  0
   -2.3263    3.1919   20.6820 C   0  0  0  0  0  0
   -2.8351    3.0540   19.4910 N   0  0  0  0  0  0
   -3.2406    1.7724   19.4005 N   0  0  0  0  0  0
   -2.9272    1.0687   20.5628 C   0  0  0  0  0  0
   -3.0016   -0.2924   20.9147 N   0  0  0  0  0  0
   -2.6482   -0.7485   22.1699 C   0  0  0  0  0  0
   -2.7878   -1.9244   22.5257 O   0  0  0  0  0  0
   -3.2629   -1.2893   19.8757 C   0  0  0  0  0  0
   -3.9666    1.4029   18.2430 C   0  0  0  0  0  0
   -5.2529    0.8870   18.4143 C   0  0  0  0  0  0
   -6.0359    0.5866   17.3080 C   0  0  0  0  0  0
   -5.5664    0.7931   16.0159 C   0  0  0  0  0  0
   -4.3003    1.3350   15.8320 C   0  0  0  0  0  0
   -3.5079    1.6622   16.9302 C   0  0  0  0  0  0
   -2.3288    2.2681   16.6760 F   0  0  0  0  0  0
   -5.7715    0.6939   19.6475 F   0  0  0  0  0  0
   -2.6290   -1.5131   27.7186 C   0  0  0  0  0  0
   -3.6356   -2.1582   27.4444 O   0  0  0  0  0  0
   -2.2838   -1.2732   28.9835 N   0  0  0  0  0  0
    1.9447    0.4323   23.8372 H   0  0  0  0  0  0
    0.8546   -0.3192   22.6761 H   0  0  0  0  0  0
    0.6697    1.3821   23.0808 H   0  0  0  0  0  0
    1.5250   -0.2425   26.0282 H   0  0  0  0  0  0
    0.0965   -1.0449   27.8085 H   0  0  0  0  0  0
   -3.3201   -0.7575   25.2025 H   0  0  0  0  0  0
   -1.5422    2.2856   23.4101 H   0  0  0  0  0  0
   -1.8082    4.0856   20.9797 H   0  0  0  0  0  0
   -2.6199   -1.0982   19.0170 H   0  0  0  0  0  0
   -3.0807   -2.3204   20.1847 H   0  0  0  0  0  0
   -4.2950   -1.2246   19.5429 H   0  0  0  0  0  0
   -7.0121    0.1572   17.4755 H   0  0  0  0  0  0
   -6.1812    0.5331   15.1666 H   0  0  0  0  0  0
   -3.9325    1.5227   14.8339 H   0  0  0  0  0  0
   -2.8458   -1.6583   29.7260 H   0  0  0  0  0  0
   -1.4423   -0.7620   29.1974 H   0  0  0  0  0  0
  1  2  1  0  0  0
  1 30  1  0  0  0
  1 31  1  0  0  0
  1 32  1  0  0  0
  2  7  1  0  0  0
  2  3  2  0  0  0
  3  4  1  0  0  0
  3 33  1  0  0  0
  4  5  2  0  0  0
  4 34  1  0  0  0
  5  6  1  0  0  0
  5 27  1  0  0  0
  6  7  2  0  0  0
  6 35  1  0  0  0
  7  8  1  0  0  0
  8 16  1  0  0  0
  8  9  2  0  0  0
  9 10  1  0  0  0
  9 36  1  0  0  0
 10 14  2  0  0  0
 10 11  1  0  0  0
 11 12  2  0  0  0
 11 37  1  0  0  0
 12 13  1  0  0  0
 13 14  1  0  0  0
 13 19  1  0  0  0
 14 15  1  0  0  0
 15 16  1  0  0  0
 15 18  1  0  0  0
 16 17  2  0  0  0
 18 38  1  0  0  0
 18 39  1  0  0  0
 18 40  1  0  0  0
 19 24  1  0  0  0
 19 20  2  0  0  0
 20 21  1  0  0  0
 20 26  1  0  0  0
 21 22  2  0  0  0
 21 41  1  0  0  0
 22 23  1  0  0  0
 22 42  1  0  0  0
 23 24  2  0  0  0
 23 43  1  0  0  0
 24 25  1  0  0  0
 27 28  2  0  0  0
 27 29  1  0  0  0
 29 44  1  0  0  0
 29 45  1  0  0  0
M  END
> <s_m_entry_id>
62634

> <s_m_entry_name>
ligand_docking-pose.294

> <s_m_Source_Path>
/home/csk/Desktop/cluster/DUD-E-result/mk14

> <s_m_Source_File>
ligand_docking-pose.sdf

> <i_m_Source_File_Index>
294

> <i_lp_mmshare_version>
53161

> <r_lp_tautomer_probability>
1

> <s_lp_Force_Field>
OPLS_2005

> <r_lp_Energy>
44.680888

> <b_lp_Chiralities_Consistent>
1

> <s_lp_Variant>
620923-1

> <s_i_glide_gridfile>
glide-grid_2qd9

> <i_i_glide_lignum>
701

> <i_i_glide_rotatable_bonds>
3

> <r_i_docking_score>
-7.48411863894878

> <r_i_glide_ligand_efficiency>
-0.258073056515475

> <r_i_glide_ligand_efficiency_sa>
-0.792882192898713

> <r_i_glide_ligand_efficiency_ln>
-1.71367338744533

> <r_i_glide_gscore>
-7.48411863894878

> <r_i_glide_lipo>
-3.28683504677153

> <r_i_glide_hbond>
0

> <r_i_glide_metal>
0

> <r_i_glide_rewards>
-2.12224055656909

> <r_i_glide_evdw>
-36.2154121398926

> <r_i_glide_ecoul>
-3.35884523391724

> <r_i_glide_erotb>
0.251322802136081

> <r_i_glide_esite>
-0.0117684456620267

> <r_i_glide_emodel>
-49.7187338886895

> <r_i_glide_energy>
-39.5742573738098

> <r_i_glide_einternal>
1.2000116109848

> <i_i_glide_confnum>
8

> <i_i_glide_posenum>
137

> <r_i_glide_eff_state_penalty>
0

> <i_f3d_flags>
0

> <s_user_duplicate_titles>
620923

> <s_m_subgroup_title>
dock_pv

> <s_m_subgroupid>
dock_pv1

> <b_m_subgroup_collapsed>
0

$$$$
620808
                    3D
 Schrodinger Suite 2021-1.
 43 46  0  0  1  0            999 V2000
   -3.4013    1.6868   17.5734 C   0  0  0  0  0  0
   -4.1104    1.3912   16.4192 C   0  0  0  0  0  0
   -5.3938    0.8789   16.5269 C   0  0  0  0  0  0
   -5.9765    0.6554   17.7760 C   0  0  0  0  0  0
   -5.2342    0.8872   18.9341 C   0  0  0  0  0  0
   -3.9526    1.4342   18.8349 C   0  0  0  0  0  0
   -3.2104    1.8486   20.0596 C   0  0  0  0  0  0
   -2.7661    1.0934   21.1774 C   0  0  0  0  0  0
   -2.2400    2.0402   22.0611 C   0  0  0  0  0  0
   -2.2628    3.2025   21.3493 N   0  0  0  0  0  0
   -2.8350    3.1054   20.1577 N   0  0  0  0  0  0
   -1.6654    1.9923   23.4696 C   0  0  0  0  0  0
   -0.2985    2.6964   23.6571 C   0  0  0  0  0  0
    0.1790    2.7140   25.1236 C   0  0  0  0  0  0
   -0.8453    3.2624   26.0098 N   0  0  1  0  0  0
   -2.0651    2.4601   25.9757 C   0  0  0  0  0  0
   -2.6755    2.4241   24.5594 C   0  0  0  0  0  0
   -2.7429   -0.3816   21.3892 C   0  0  0  0  0  0
   -2.3258   -1.2300   20.3568 C   0  0  0  0  0  0
   -2.0991   -2.5777   20.6441 C   0  0  0  0  0  0
   -2.2758   -3.1110   21.8790 N   0  0  0  0  0  0
   -2.7173   -2.2859   22.8595 C   0  0  0  0  0  0
   -2.9788   -0.9327   22.6539 C   0  0  0  0  0  0
   -6.0387    0.5202   15.4008 F   0  0  0  0  0  0
   -1.8394    4.0592   21.6699 H   0  0  0  0  0  0
   -2.4350    2.1463   17.4754 H   0  0  0  0  0  0
   -3.6747    1.5647   15.4459 H   0  0  0  0  0  0
   -6.9698    0.2363   17.8464 H   0  0  0  0  0  0
   -5.6740    0.6926   19.9014 H   0  0  0  0  0  0
   -1.4247    0.9671   23.7519 H   0  0  0  0  0  0
    0.4717    2.1868   23.0770 H   0  0  0  0  0  0
   -0.3378    3.7393   23.3406 H   0  0  0  0  0  0
    0.4391    1.7055   25.4513 H   0  0  0  0  0  0
    1.0818    3.3199   25.2161 H   0  0  0  0  0  0
   -0.4806    3.2848   26.9536 H   0  0  0  0  0  0
   -1.8404    1.4488   26.3197 H   0  0  0  0  0  0
   -2.7805    2.8871   26.6799 H   0  0  0  0  0  0
   -3.0598    3.4253   24.3626 H   0  0  0  0  0  0
   -3.5185    1.7333   24.5931 H   0  0  0  0  0  0
   -2.1281   -0.8457   19.3671 H   0  0  0  0  0  0
   -1.7616   -3.2580   19.8758 H   0  0  0  0  0  0
   -2.8349   -2.7157   23.8417 H   0  0  0  0  0  0
   -3.3062   -0.3187   23.4780 H   0  0  0  0  0  0
  1  6  1  0  0  0
  1  2  2  0  0  0
  1 26  1  0  0  0
  2  3  1  0  0  0
  2 27  1  0  0  0
  3  4  2  0  0  0
  3 24  1  0  0  0
  4  5  1  0  0  0
  4 28  1  0  0  0
  5  6  2  0  0  0
  5 29  1  0  0  0
  6  7  1  0  0  0
  7 11  2  0  0  0
  7  8  1  0  0  0
  8  9  2  0  0  0
  8 18  1  0  0  0
  9 10  1  0  0  0
  9 12  1  0  0  0
 10 25  1  0  0  0
 10 11  1  0  0  0
 12 17  1  0  0  0
 12 13  1  0  0  0
 12 30  1  0  0  0
 13 14  1  0  0  0
 13 31  1  0  0  0
 13 32  1  0  0  0
 14 15  1  0  0  0
 14 33  1  0  0  0
 14 34  1  0  0  0
 15 16  1  0  0  0
 15 35  1  0  0  0
 16 17  1  0  0  0
 16 36  1  0  0  0
 16 37  1  0  0  0
 17 38  1  0  0  0
 17 39  1  0  0  0
 18 23  1  0  0  0
 18 19  2  0  0  0
 19 20  1  0  0  0
 19 40  1  0  0  0
 20 21  2  0  0  0
 20 41  1  0  0  0
 21 22  1  0  0  0
 22 23  2  0  0  0
 22 42  1  0  0  0
 23 43  1  0  0  0
M  END
> <s_m_entry_id>
62640

> <s_m_entry_name>
ligand_docking-pose.300

> <s_m_Source_Path>
/home/csk/Desktop/cluster/DUD-E-result/mk14

> <s_m_Source_File>
ligand_docking-pose.sdf

> <i_m_Source_File_Index>
300

> <i_lp_mmshare_version>
53161

> <r_lp_tautomer_probability>
0.5

> <s_lp_Force_Field>
OPLS_2005

> <r_lp_Energy>
25.548672

> <b_lp_Chiralities_Consistent>
1

> <s_lp_Variant>
620808-1

> <s_i_glide_gridfile>
glide-grid_2qd9

> <i_i_glide_lignum>
177

> <i_i_glide_rotatable_bonds>
3

> <r_i_docking_score>
-7.46450553522596

> <r_i_glide_ligand_efficiency>
-0.311021063967748

> <r_i_glide_ligand_efficiency_sa>
-0.89713999077769

> <r_i_glide_ligand_efficiency_ln>
-1.78659869841943

> <r_i_glide_gscore>
-7.46450553522596

> <r_i_glide_lipo>
-3.41616353383602

> <r_i_glide_hbond>
-0.210461708933102

> <r_i_glide_metal>
0

> <r_i_glide_rewards>
-2.59570214309991

> <r_i_glide_evdw>
-32.5357818603516

> <r_i_glide_ecoul>
-0.814216613769531

> <r_i_glide_erotb>
0.539780778548385

> <r_i_glide_esite>
-0.0330373428223016

> <r_i_glide_emodel>
-41.484357938665

> <r_i_glide_energy>
-33.3499984741211

> <r_i_glide_einternal>
3.38750839233398

> <i_i_glide_confnum>
48

> <i_i_glide_posenum>
196

> <r_i_glide_eff_state_penalty>
0

> <i_f3d_flags>
0

> <s_user_duplicate_titles>
620808

> <s_m_subgroup_title>
dock_pv

> <s_m_subgroupid>
dock_pv1

> <b_m_subgroup_collapsed>
0

$$$$
189521
                    3D
 Schrodinger Suite 2021-1.
 40 43  0  0  1  0            999 V2000
    0.8317   -1.4316   24.2205 C   0  0  0  0  0  0
   -0.3348   -1.3663   25.1949 C   0  0  0  0  0  0
   -0.1546   -0.7130   26.4193 C   0  0  0  0  0  0
   -1.1960   -0.6429   27.3440 C   0  0  0  0  0  0
   -2.4295   -1.2208   27.0497 C   0  0  0  0  0  0
   -2.6216   -1.8712   25.8323 C   0  0  0  0  0  0
   -1.5812   -1.9520   24.9034 C   0  0  0  0  0  0
   -1.8849   -2.8124   23.3741 S   0  0  0  0  0  0
   -2.2517   -1.4733   22.2359 C   0  0  0  0  0  0
   -2.7571   -1.7861   20.9156 C   0  0  0  0  0  0
   -3.0500   -0.7900   20.0491 C   0  0  0  0  0  0
   -2.8350    0.6020   20.4485 C   0  0  0  0  0  0
   -3.1041    1.7207   19.6919 C   0  0  0  0  0  0
   -2.6568    3.0276   20.2410 C   0  0  0  0  0  0
   -2.4350    3.9556   19.4760 O   0  0  0  0  0  0
   -2.4214    3.0834   21.6245 N   0  0  0  0  0  0
   -2.1985    2.0147   22.2847 C   0  0  0  0  0  0
   -2.3364    0.7443   21.7564 N   0  0  0  0  0  0
   -2.0652   -0.2536   22.6113 N   0  0  0  0  0  0
   -3.7747    1.6087   18.3288 C   0  0  0  0  0  0
   -5.1032    1.1137   18.3375 C   0  0  0  0  0  0
   -5.8126    0.8870   17.1619 C   0  0  0  0  0  0
   -5.2247    1.1012   15.9290 C   0  0  0  0  0  0
   -3.9463    1.6291   15.8760 C   0  0  0  0  0  0
   -3.2350    1.9370   17.0371 C   0  0  0  0  0  0
   -1.8226    2.8870   16.6919 Cl  0  0  0  0  0  0
   -5.9672    0.7879   19.8012 Cl  0  0  0  0  0  0
   -0.9597    0.1604   28.8522 Cl  0  0  0  0  0  0
    0.6395   -0.8105   23.3458 H   0  0  0  0  0  0
    1.7704   -1.1130   24.6765 H   0  0  0  0  0  0
    0.9745   -2.4551   23.8760 H   0  0  0  0  0  0
    0.7985   -0.2637   26.6621 H   0  0  0  0  0  0
   -3.2350   -1.1693   27.7671 H   0  0  0  0  0  0
   -3.5824   -2.3130   25.6139 H   0  0  0  0  0  0
   -2.9159   -2.8110   20.6107 H   0  0  0  0  0  0
   -3.4344   -1.0277   19.0760 H   0  0  0  0  0  0
   -1.9030    2.0586   23.3317 H   0  0  0  0  0  0
   -6.8225    0.5041   17.2101 H   0  0  0  0  0  0
   -5.7692    0.8907   15.0208 H   0  0  0  0  0  0
   -3.5169    1.8538   14.9115 H   0  0  0  0  0  0
  1  2  1  0  0  0
  1 29  1  0  0  0
  1 30  1  0  0  0
  1 31  1  0  0  0
  2  7  1  0  0  0
  2  3  2  0  0  0
  3  4  1  0  0  0
  3 32  1  0  0  0
  4  5  2  0  0  0
  4 28  1  0  0  0
  5  6  1  0  0  0
  5 33  1  0  0  0
  6  7  2  0  0  0
  6 34  1  0  0  0
  7  8  1  0  0  0
  8  9  1  0  0  0
  9 19  2  0  0  0
  9 10  1  0  0  0
 10 11  2  0  0  0
 10 35  1  0  0  0
 11 12  1  0  0  0
 11 36  1  0  0  0
 12 18  1  0  0  0
 12 13  2  0  0  0
 13 14  1  0  0  0
 13 20  1  0  0  0
 14 15  2  0  0  0
 14 16  1  0  0  0
 16 17  2  0  0  0
 17 18  1  0  0  0
 17 37  1  0  0  0
 18 19  1  0  0  0
 20 25  1  0  0  0
 20 21  2  0  0  0
 21 22  1  0  0  0
 21 27  1  0  0  0
 22 23  2  0  0  0
 22 38  1  0  0  0
 23 24  1  0  0  0
 23 39  1  0  0  0
 24 25  2  0  0  0
 24 40  1  0  0  0
 25 26  1  0  0  0
M  END
> <s_m_entry_id>
62643

> <s_m_entry_name>
ligand_docking-pose.303

> <s_m_Source_Path>
/home/csk/Desktop/cluster/DUD-E-result/mk14

> <s_m_Source_File>
ligand_docking-pose.sdf

> <i_m_Source_File_Index>
303

> <i_lp_mmshare_version>
53161

> <r_lp_tautomer_probability>
1

> <s_lp_Force_Field>
OPLS_2005

> <r_lp_Energy>
37.954812

> <b_lp_Chiralities_Consistent>
1

> <s_lp_Variant>
189521-1

> <s_i_glide_gridfile>
glide-grid_2qd9

> <i_i_glide_lignum>
1247

> <i_i_glide_rotatable_bonds>
3

> <r_i_docking_score>
-7.44237702777795

> <r_i_glide_ligand_efficiency>
-0.265799179563498

> <r_i_glide_ligand_efficiency_sa>
-0.807122856499618

> <r_i_glide_ligand_efficiency_ln>
-1.71791913569587

> <r_i_glide_gscore>
-7.44237702777795

> <r_i_glide_lipo>
-3.92450816747986

> <r_i_glide_hbond>
-0.00519356942278897

> <r_i_glide_metal>
0

> <r_i_glide_rewards>
-0.910661175275589

> <r_i_glide_evdw>
-36.1519203186035

> <r_i_glide_ecoul>
-7.28593254089355

> <r_i_glide_erotb>
0.298471781464496

> <r_i_glide_esite>
0

> <r_i_glide_emodel>
-51.6399767004231

> <r_i_glide_energy>
-43.4378528594971

> <r_i_glide_einternal>
16.2409744262695

> <i_i_glide_confnum>
3

> <i_i_glide_posenum>
104

> <r_i_glide_eff_state_penalty>
0

> <i_f3d_flags>
0

> <s_user_duplicate_titles>
189521

> <s_m_subgroup_title>
dock_pv

> <s_m_subgroupid>
dock_pv1

> <b_m_subgroup_collapsed>
0

$$$$
211368
                    3D
 Schrodinger Suite 2021-1.
 43 46  0  0  1  0            999 V2000
   -1.6583    5.0198   25.7123 C   0  0  0  0  0  0
   -2.7694    3.5434   25.5643 S   0  0  1  0  0  0
   -3.5823    3.7359   24.2836 O   0  0  0  0  0  0
   -1.4123    2.3321   25.2671 C   0  0  0  0  0  0
   -0.6825    1.9733   26.4070 C   0  0  0  0  0  0
    0.3650    1.0582   26.3301 C   0  0  0  0  0  0
    0.6909    0.4801   25.1083 C   0  0  0  0  0  0
   -0.0292    0.8206   23.9663 C   0  0  0  0  0  0
   -1.0900    1.7385   24.0243 C   0  0  0  0  0  0
   -1.7789    2.0242   22.8197 N   0  0  0  0  0  0
   -1.8327    3.2470   22.2060 C   0  0  0  0  0  0
   -2.4349    3.2352   21.0430 N   0  0  0  0  0  0
   -2.8263    1.9862   20.8596 C   0  0  0  0  0  0
   -2.3793    1.1610   21.9103 C   0  0  0  0  0  0
   -2.4075   -0.3282   22.0674 C   0  0  0  0  0  0
   -2.1447   -1.1483   20.9619 C   0  0  0  0  0  0
   -2.0354   -2.5271   21.1535 C   0  0  0  0  0  0
   -2.1580   -3.1130   22.3714 N   0  0  0  0  0  0
   -2.4349   -2.3127   23.4305 C   0  0  0  0  0  0
   -2.5969   -0.9328   23.3170 C   0  0  0  0  0  0
   -3.6063    1.6217   19.6366 C   0  0  0  0  0  0
   -4.7378    0.8188   19.7785 C   0  0  0  0  0  0
   -5.5128    0.4872   18.6749 C   0  0  0  0  0  0
   -5.1093    0.8965   17.4045 C   0  0  0  0  0  0
   -3.9641    1.6718   17.2424 C   0  0  0  0  0  0
   -3.2420    2.0793   18.3638 C   0  0  0  0  0  0
   -5.8385    0.5492   16.3203 F   0  0  0  0  0  0
   -0.9729    4.9012   26.5506 H   0  0  0  0  0  0
   -1.0747    5.1545   24.8026 H   0  0  0  0  0  0
   -2.2541    5.9164   25.8788 H   0  0  0  0  0  0
   -0.9216    2.4081   27.3671 H   0  0  0  0  0  0
    0.9270    0.7988   27.2164 H   0  0  0  0  0  0
    1.5018   -0.2322   25.0485 H   0  0  0  0  0  0
    0.2411    0.3499   23.0339 H   0  0  0  0  0  0
   -1.3464    4.0854   22.6762 H   0  0  0  0  0  0
   -1.9952   -0.7250   19.9795 H   0  0  0  0  0  0
   -1.8303   -3.1870   20.3227 H   0  0  0  0  0  0
   -2.5346   -2.7918   24.3931 H   0  0  0  0  0  0
   -2.8085   -0.3412   24.1955 H   0  0  0  0  0  0
   -5.0367    0.4766   20.7514 H   0  0  0  0  0  0
   -6.4079   -0.1070   18.7921 H   0  0  0  0  0  0
   -3.6773    2.0074   16.2563 H   0  0  0  0  0  0
   -2.4376    2.7876   18.2273 H   0  0  0  0  0  0
  1  2  1  0  0  0
  1 28  1  0  0  0
  1 29  1  0  0  0
  1 30  1  0  0  0
  2  3  2  0  0  0
  2  4  1  0  0  0
  4  9  1  0  0  0
  4  5  2  0  0  0
  5  6  1  0  0  0
  5 31  1  0  0  0
  6  7  2  0  0  0
  6 32  1  0  0  0
  7  8  1  0  0  0
  7 33  1  0  0  0
  8  9  2  0  0  0
  8 34  1  0  0  0
  9 10  1  0  0  0
 10 14  1  0  0  0
 10 11  1  0  0  0
 11 12  2  0  0  0
 11 35  1  0  0  0
 12 13  1  0  0  0
 13 14  2  0  0  0
 13 21  1  0  0  0
 14 15  1  0  0  0
 15 20  1  0  0  0
 15 16  2  0  0  0
 16 17  1  0  0  0
 16 36  1  0  0  0
 17 18  2  0  0  0
 17 37  1  0  0  0
 18 19  1  0  0  0
 19 20  2  0  0  0
 19 38  1  0  0  0
 20 39  1  0  0  0
 21 26  1  0  0  0
 21 22  2  0  0  0
 22 23  1  0  0  0
 22 40  1  0  0  0
 23 24  2  0  0  0
 23 41  1  0  0  0
 24 25  1  0  0  0
 24 27  1  0  0  0
 25 26  2  0  0  0
 25 42  1  0  0  0
 26 43  1  0  0  0
M  END
> <s_m_entry_id>
62646

> <s_m_entry_name>
ligand_docking-pose.306

> <s_m_Source_Path>
/home/csk/Desktop/cluster/DUD-E-result/mk14

> <s_m_Source_File>
ligand_docking-pose.sdf

> <i_m_Source_File_Index>
306

> <i_lp_mmshare_version>
53161

> <r_lp_tautomer_probability>
1

> <s_lp_Force_Field>
OPLS_2005

> <r_lp_Energy>
16.166514

> <b_lp_Chiralities_Consistent>
1

> <s_lp_Variant>
211368-2

> <s_i_glide_gridfile>
glide-grid_2qd9

> <i_i_glide_lignum>
2695

> <i_i_glide_rotatable_bonds>
4

> <r_i_docking_score>
-7.42232128590159

> <r_i_glide_ligand_efficiency>
-0.274900788366725

> <r_i_glide_ligand_efficiency_sa>
-0.824702364194148

> <r_i_glide_ligand_efficiency_ln>
-1.72779402882803

> <r_i_glide_gscore>
-7.42232128590159

> <r_i_glide_lipo>
-2.8443595517651

> <r_i_glide_hbond>
-0.452434382226411

> <r_i_glide_metal>
0

> <r_i_glide_rewards>
-2.27441364575065

> <r_i_glide_evdw>
-28.8897838592529

> <r_i_glide_ecoul>
-5.06673431396484

> <r_i_glide_erotb>
0.407877351591229

> <r_i_glide_esite>
-0.0544917176932868

> <r_i_glide_emodel>
-41.3533652360496

> <r_i_glide_energy>
-33.9565181732178

> <r_i_glide_einternal>
9.35375213623047

> <i_i_glide_confnum>
24

> <i_i_glide_posenum>
166

> <r_i_glide_eff_state_penalty>
0

> <i_f3d_flags>
0

> <s_user_duplicate_titles>
211368

> <s_m_subgroup_title>
dock_pv

> <s_m_subgroupid>
dock_pv1

> <b_m_subgroup_collapsed>
0

$$$$
211375
                    3D
 Schrodinger Suite 2021-1.
 47 50  0  0  1  0            999 V2000
   -5.1634    0.8857   19.2905 C   0  0  0  0  0  0
   -5.9591    0.6395   18.1714 C   0  0  0  0  0  0
   -5.4501    0.8871   16.8958 C   0  0  0  0  0  0
   -4.1740    1.3996   16.7278 C   0  0  0  0  0  0
   -3.4035    1.6865   17.8456 C   0  0  0  0  0  0
   -3.8815    1.4202   19.1366 C   0  0  0  0  0  0
   -3.0597    1.7431   20.3466 C   0  0  0  0  0  0
   -2.5910    0.9051   21.3777 C   0  0  0  0  0  0
   -1.9468    1.7475   22.2664 N   0  0  0  0  0  0
   -2.0418    2.9823   21.6988 C   0  0  0  0  0  0
   -2.6892    2.9954   20.5612 N   0  0  0  0  0  0
   -1.1370    1.4276   23.4438 C   0  0  0  0  0  0
   -1.9650    1.4895   24.7505 C   0  0  0  0  0  0
   -1.6492    0.3609   25.6315 N   0  0  0  0  0  0
   -0.2929    0.4292   26.2025 C   0  0  0  0  0  0
   -0.0147   -0.7745   27.1312 C   0  0  0  0  0  0
   -1.0208   -0.8656   28.1362 O   0  0  0  0  0  0
   -2.3219   -1.0267   27.5827 C   0  0  0  0  0  0
   -2.6643    0.1773   26.6756 C   0  0  0  0  0  0
   -2.5668   -0.5729   21.5309 C   0  0  0  0  0  0
   -2.7595   -1.1876   22.7731 C   0  0  0  0  0  0
   -2.4449   -2.5364   22.9123 C   0  0  0  0  0  0
   -2.0351   -3.3010   21.8758 N   0  0  0  0  0  0
   -1.9316   -2.7134   20.6583 C   0  0  0  0  0  0
   -2.1856   -1.3609   20.4418 C   0  0  0  0  0  0
   -6.1662    0.5725   15.7998 F   0  0  0  0  0  0
   -5.5507    0.6729   20.2751 H   0  0  0  0  0  0
   -6.9474    0.2203   18.2822 H   0  0  0  0  0  0
   -3.7929    1.5906   15.7343 H   0  0  0  0  0  0
   -2.4414    2.1412   17.6727 H   0  0  0  0  0  0
   -1.5227    3.8027   22.1639 H   0  0  0  0  0  0
   -0.3120    2.1414   23.4914 H   0  0  0  0  0  0
   -0.6810    0.4505   23.2757 H   0  0  0  0  0  0
   -3.0312    1.4753   24.5150 H   0  0  0  0  0  0
   -1.7795    2.4294   25.2732 H   0  0  0  0  0  0
   -0.1730    1.3622   26.7553 H   0  0  0  0  0  0
    0.4524    0.4554   25.4063 H   0  0  0  0  0  0
    0.0345   -1.7020   26.5565 H   0  0  0  0  0  0
    0.9556   -0.6552   27.6139 H   0  0  0  0  0  0
   -2.3881   -1.9647   27.0277 H   0  0  0  0  0  0
   -3.0414   -1.0985   28.3990 H   0  0  0  0  0  0
   -3.6350    0.0168   26.2067 H   0  0  0  0  0  0
   -2.7568    1.0886   27.2691 H   0  0  0  0  0  0
   -3.0783   -0.6260   23.6343 H   0  0  0  0  0  0
   -2.5200   -3.0158   23.8762 H   0  0  0  0  0  0
   -1.6265   -3.3585   19.8489 H   0  0  0  0  0  0
   -2.0349   -0.9254   19.4649 H   0  0  0  0  0  0
  1  6  1  0  0  0
  1  2  2  0  0  0
  1 27  1  0  0  0
  2  3  1  0  0  0
  2 28  1  0  0  0
  3  4  2  0  0  0
  3 26  1  0  0  0
  4  5  1  0  0  0
  4 29  1  0  0  0
  5  6  2  0  0  0
  5 30  1  0  0  0
  6  7  1  0  0  0
  7 11  1  0  0  0
  7  8  2  0  0  0
  8  9  1  0  0  0
  8 20  1  0  0  0
  9 10  1  0  0  0
  9 12  1  0  0  0
 10 11  2  0  0  0
 10 31  1  0  0  0
 12 13  1  0  0  0
 12 32  1  0  0  0
 12 33  1  0  0  0
 13 14  1  0  0  0
 13 34  1  0  0  0
 13 35  1  0  0  0
 14 19  1  0  0  0
 14 15  1  0  0  0
 15 16  1  0  0  0
 15 36  1  0  0  0
 15 37  1  0  0  0
 16 17  1  0  0  0
 16 38  1  0  0  0
 16 39  1  0  0  0
 17 18  1  0  0  0
 18 19  1  0  0  0
 18 40  1  0  0  0
 18 41  1  0  0  0
 19 42  1  0  0  0
 19 43  1  0  0  0
 20 25  1  0  0  0
 20 21  2  0  0  0
 21 22  1  0  0  0
 21 44  1  0  0  0
 22 23  2  0  0  0
 22 45  1  0  0  0
 23 24  1  0  0  0
 24 25  2  0  0  0
 24 46  1  0  0  0
 25 47  1  0  0  0
M  END
> <s_m_entry_id>
62651

> <s_m_entry_name>
ligand_docking-pose.311

> <s_m_Source_Path>
/home/csk/Desktop/cluster/DUD-E-result/mk14

> <s_m_Source_File>
ligand_docking-pose.sdf

> <i_m_Source_File_Index>
311

> <i_lp_mmshare_version>
53161

> <r_lp_tautomer_probability>
1

> <s_lp_Force_Field>
OPLS_2005

> <r_lp_Energy>
34.783673

> <b_lp_Chiralities_Consistent>
1

> <s_lp_Variant>
211375-1

> <s_i_glide_gridfile>
glide-grid_2qd9

> <i_i_glide_lignum>
243

> <i_i_glide_rotatable_bonds>
5

> <r_i_docking_score>
-7.37282351789406

> <r_i_glide_ligand_efficiency>
-0.283570135303618

> <r_i_glide_ligand_efficiency_sa>
-0.840075410042365

> <r_i_glide_ligand_efficiency_ln>
-1.73148341097025

> <r_i_glide_gscore>
-7.37282351789406

> <r_i_glide_lipo>
-3.60036047162095

> <r_i_glide_hbond>
-0.32

> <r_i_glide_metal>
0

> <r_i_glide_rewards>
-2.4877255970495

> <r_i_glide_evdw>
-31.6045570373535

> <r_i_glide_ecoul>
-0.818308115005493

> <r_i_glide_erotb>
0.768362001133368

> <r_i_glide_esite>
-0.0301253812384817

> <r_i_glide_emodel>
-39.6130022431539

> <r_i_glide_energy>
-32.422865152359

> <r_i_glide_einternal>
10.9009189605713

> <i_i_glide_confnum>
362

> <i_i_glide_posenum>
290

> <r_i_glide_eff_state_penalty>
0

> <i_f3d_flags>
0

> <s_user_duplicate_titles>
211375

> <s_m_subgroup_title>
dock_pv

> <s_m_subgroupid>
dock_pv1

> <b_m_subgroup_collapsed>
0

$$$$
620886
                    3D
 Schrodinger Suite 2021-1.
 49 52  0  0  1  0            999 V2000
   -4.1513    1.7725   15.3985 C   0  0  0  0  0  0
   -4.4864    1.4160   16.8299 C   0  0  0  0  0  0
   -5.7334    0.8854   17.1430 C   0  0  0  0  0  0
   -6.0352    0.5286   18.4588 C   0  0  0  0  0  0
   -5.1155    0.7770   19.4761 C   0  0  0  0  0  0
   -3.8988    1.3993   19.1886 C   0  0  0  0  0  0
   -3.5810    1.6870   17.8552 C   0  0  0  0  0  0
   -3.0316    1.8438   20.3170 C   0  0  0  0  0  0
   -2.5420    1.1105   21.4284 C   0  0  0  0  0  0
   -1.9939    2.0756   22.2761 C   0  0  0  0  0  0
   -2.0353    3.2266   21.5407 N   0  0  0  0  0  0
   -2.6493    3.1024   20.3649 N   0  0  0  0  0  0
   -1.3109    2.0364   23.6361 C   0  0  0  0  0  0
    0.1371    2.5829   23.6729 C   0  0  0  0  0  0
    0.7465    2.6204   25.0893 C   0  0  0  0  0  0
   -0.1352    3.2972   26.0443 N   0  0  1  0  0  0
   -1.4275    2.6143   26.1494 C   0  0  0  0  0  0
   -2.1706    2.5878   24.7961 C   0  0  0  0  0  0
    0.5154    3.3736   27.3506 C   0  0  0  0  0  0
   -2.5310   -0.3646   21.6543 C   0  0  0  0  0  0
   -2.2147   -1.2258   20.5963 C   0  0  0  0  0  0
   -2.0349   -2.5843   20.8626 C   0  0  0  0  0  0
   -2.1522   -3.1128   22.1066 N   0  0  0  0  0  0
   -2.4883   -2.2752   23.1177 C   0  0  0  0  0  0
   -2.7068   -0.9103   22.9317 C   0  0  0  0  0  0
   -1.5884    4.0856   21.8228 H   0  0  0  0  0  0
   -5.0027    2.2683   14.9296 H   0  0  0  0  0  0
   -3.3076    2.4614   15.3366 H   0  0  0  0  0  0
   -3.9233    0.8743   14.8233 H   0  0  0  0  0  0
   -6.4488    0.6956   16.3576 H   0  0  0  0  0  0
   -6.9933    0.0878   18.6874 H   0  0  0  0  0  0
   -5.3703    0.5314   20.4952 H   0  0  0  0  0  0
   -2.6504    2.1735   17.6070 H   0  0  0  0  0  0
   -1.1445    1.0065   23.9512 H   0  0  0  0  0  0
    0.7912    1.9482   23.0765 H   0  0  0  0  0  0
    0.1944    3.6012   23.2888 H   0  0  0  0  0  0
    0.9899    1.6150   25.4404 H   0  0  0  0  0  0
    1.6930    3.1632   25.0470 H   0  0  0  0  0  0
   -1.2894    1.6049   26.5440 H   0  0  0  0  0  0
   -2.0433    3.1470   26.8768 H   0  0  0  0  0  0
   -2.4932    3.6103   24.5966 H   0  0  0  0  0  0
   -3.0562    1.9656   24.9329 H   0  0  0  0  0  0
    0.7347    2.3819   27.7520 H   0  0  0  0  0  0
    1.4568    3.9216   27.2821 H   0  0  0  0  0  0
   -0.1156    3.8979   28.0697 H   0  0  0  0  0  0
   -2.0680   -0.8469   19.5955 H   0  0  0  0  0  0
   -1.7769   -3.2729   20.0702 H   0  0  0  0  0  0
   -2.5835   -2.7146   24.0993 H   0  0  0  0  0  0
   -2.9665   -0.2867   23.7734 H   0  0  0  0  0  0
  1  2  1  0  0  0
  1 27  1  0  0  0
  1 28  1  0  0  0
  1 29  1  0  0  0
  2  7  1  0  0  0
  2  3  2  0  0  0
  3  4  1  0  0  0
  3 30  1  0  0  0
  4  5  2  0  0  0
  4 31  1  0  0  0
  5  6  1  0  0  0
  5 32  1  0  0  0
  6  7  2  0  0  0
  6  8  1  0  0  0
  7 33  1  0  0  0
  8 12  2  0  0  0
  8  9  1  0  0  0
  9 10  2  0  0  0
  9 20  1  0  0  0
 10 11  1  0  0  0
 10 13  1  0  0  0
 11 26  1  0  0  0
 11 12  1  0  0  0
 13 18  1  0  0  0
 13 14  1  0  0  0
 13 34  1  0  0  0
 14 15  1  0  0  0
 14 35  1  0  0  0
 14 36  1  0  0  0
 15 16  1  0  0  0
 15 37  1  0  0  0
 15 38  1  0  0  0
 16 17  1  0  0  0
 16 19  1  0  0  0
 17 18  1  0  0  0
 17 39  1  0  0  0
 17 40  1  0  0  0
 18 41  1  0  0  0
 18 42  1  0  0  0
 19 43  1  0  0  0
 19 44  1  0  0  0
 19 45  1  0  0  0
 20 25  1  0  0  0
 20 21  2  0  0  0
 21 22  1  0  0  0
 21 46  1  0  0  0
 22 23  2  0  0  0
 22 47  1  0  0  0
 23 24  1  0  0  0
 24 25  2  0  0  0
 24 48  1  0  0  0
 25 49  1  0  0  0
M  END
> <s_m_entry_id>
62653

> <s_m_entry_name>
ligand_docking-pose.313

> <s_m_Source_Path>
/home/csk/Desktop/cluster/DUD-E-result/mk14

> <s_m_Source_File>
ligand_docking-pose.sdf

> <i_m_Source_File_Index>
313

> <i_lp_mmshare_version>
53161

> <r_lp_tautomer_probability>
0.5

> <s_lp_Force_Field>
OPLS_2005

> <r_lp_Energy>
26.52409

> <b_lp_Chiralities_Consistent>
1

> <s_lp_Variant>
620886-1

> <s_i_glide_gridfile>
glide-grid_2qd9

> <i_i_glide_lignum>
863

> <i_i_glide_rotatable_bonds>
3

> <r_i_docking_score>
-7.33195748720057

> <r_i_glide_ligand_efficiency>
-0.293278299488023

> <r_i_glide_ligand_efficiency_sa>
-0.857550949015767

> <r_i_glide_ligand_efficiency_ln>
-1.73789364550203

> <r_i_glide_gscore>
-7.33195748720057

> <r_i_glide_lipo>
-3.591050160114

> <r_i_glide_hbond>
-0.273055682679726

> <r_i_glide_metal>
0

> <r_i_glide_rewards>
-2.02969533692947

> <r_i_glide_evdw>
-32.0540466308594

> <r_i_glide_ecoul>
-2.05599164962769

> <r_i_glide_erotb>
0.51126192017487

> <r_i_glide_esite>
-0.0383171486651198

> <r_i_glide_emodel>
-45.3030276768066

> <r_i_glide_energy>
-34.1100382804871

> <r_i_glide_einternal>
3.06447505950928

> <i_i_glide_confnum>
39

> <i_i_glide_posenum>
163

> <r_i_glide_eff_state_penalty>
0

> <i_f3d_flags>
0

> <s_user_duplicate_titles>
620886

> <s_m_subgroup_title>
dock_pv

> <s_m_subgroupid>
dock_pv1

> <b_m_subgroup_collapsed>
0

$$$$
620887
                    3D
 Schrodinger Suite 2021-1.
 50 53  0  0  1  0            999 V2000
   -4.9984    0.9356   19.2748 C   0  0  0  0  0  0
   -5.7576    0.6294   18.1485 C   0  0  0  0  0  0
   -5.2364    0.8864   16.8775 C   0  0  0  0  0  0
   -4.0147    1.5170   16.7165 C   0  0  0  0  0  0
   -3.2992    1.8845   17.8428 C   0  0  0  0  0  0
   -3.7680    1.5795   19.1253 C   0  0  0  0  0  0
   -2.9934    1.9802   20.3346 C   0  0  0  0  0  0
   -2.5511    1.1772   21.4178 C   0  0  0  0  0  0
   -1.9704    2.0762   22.3166 C   0  0  0  0  0  0
   -2.0349    3.2801   21.6738 N   0  0  0  0  0  0
   -2.6131    3.2322   20.4740 N   0  0  0  0  0  0
   -1.2363    1.9395   23.6480 C   0  0  0  0  0  0
   -2.0859    2.0562   24.9400 C   0  0  0  0  0  0
   -1.3640    1.6259   26.2397 C   0  0  0  0  0  0
   -0.5874    0.3912   26.0730 N   0  0  1  0  0  0
    0.4854    0.6233   25.1019 C   0  0  0  0  0  0
   -0.0568    0.9321   23.6926 C   0  0  0  0  0  0
   -0.0071   -0.1331   27.3226 C   0  0  0  0  0  0
   -0.9972   -0.4550   28.4674 C   0  0  0  0  0  0
   -1.8836   -1.5087   28.1359 O   0  0  0  0  0  0
   -2.5749   -0.3093   21.5578 C   0  0  0  0  0  0
   -2.2391   -1.1244   20.4697 C   0  0  0  0  0  0
   -2.0881   -2.4969   20.6767 C   0  0  0  0  0  0
   -2.2516   -3.0846   21.8887 N   0  0  0  0  0  0
   -2.6060   -2.2895   22.9276 C   0  0  0  0  0  0
   -2.7995   -0.9156   22.7994 C   0  0  0  0  0  0
   -6.0243    0.2866   15.4759 Cl  0  0  0  0  0  0
   -1.5784    4.1114   22.0137 H   0  0  0  0  0  0
   -5.3759    0.6989   20.2592 H   0  0  0  0  0  0
   -6.7066    0.1217   18.2540 H   0  0  0  0  0  0
   -3.6311    1.7336   15.7293 H   0  0  0  0  0  0
   -2.4351    2.4906   17.6924 H   0  0  0  0  0  0
   -0.6266    2.8304   23.8228 H   0  0  0  0  0  0
   -2.9660    1.4180   24.8789 H   0  0  0  0  0  0
   -2.4536    3.0753   25.0698 H   0  0  0  0  0  0
   -2.1435    1.4420   26.9787 H   0  0  0  0  0  0
   -0.7439    2.4256   26.6481 H   0  0  0  0  0  0
    1.1836    1.3881   25.4511 H   0  0  0  0  0  0
    1.0696   -0.2965   25.0222 H   0  0  0  0  0  0
    0.7751    1.2844   23.0813 H   0  0  0  0  0  0
   -0.3540   -0.0340   23.2889 H   0  0  0  0  0  0
    0.6642    0.6391   27.7045 H   0  0  0  0  0  0
    0.6593   -0.9819   27.1673 H   0  0  0  0  0  0
   -1.5619    0.4235   28.7769 H   0  0  0  0  0  0
   -0.4320   -0.7577   29.3500 H   0  0  0  0  0  0
   -1.4928   -2.3449   28.4178 H   0  0  0  0  0  0
   -2.0523   -0.7017   19.4937 H   0  0  0  0  0  0
   -1.8205   -3.1538   19.8622 H   0  0  0  0  0  0
   -2.7137   -2.7625   23.8920 H   0  0  0  0  0  0
   -3.0559   -0.3341   23.6679 H   0  0  0  0  0  0
  1  6  1  0  0  0
  1  2  2  0  0  0
  1 29  1  0  0  0
  2  3  1  0  0  0
  2 30  1  0  0  0
  3  4  2  0  0  0
  3 27  1  0  0  0
  4  5  1  0  0  0
  4 31  1  0  0  0
  5  6  2  0  0  0
  5 32  1  0  0  0
  6  7  1  0  0  0
  7 11  2  0  0  0
  7  8  1  0  0  0
  8  9  2  0  0  0
  8 21  1  0  0  0
  9 10  1  0  0  0
  9 12  1  0  0  0
 10 28  1  0  0  0
 10 11  1  0  0  0
 12 17  1  0  0  0
 12 13  1  0  0  0
 12 33  1  0  0  0
 13 14  1  0  0  0
 13 34  1  0  0  0
 13 35  1  0  0  0
 14 15  1  0  0  0
 14 36  1  0  0  0
 14 37  1  0  0  0
 15 16  1  0  0  0
 15 18  1  0  0  0
 16 17  1  0  0  0
 16 38  1  0  0  0
 16 39  1  0  0  0
 17 40  1  0  0  0
 17 41  1  0  0  0
 18 19  1  0  0  0
 18 42  1  0  0  0
 18 43  1  0  0  0
 19 20  1  0  0  0
 19 44  1  0  0  0
 19 45  1  0  0  0
 20 46  1  0  0  0
 21 26  1  0  0  0
 21 22  2  0  0  0
 22 23  1  0  0  0
 22 47  1  0  0  0
 23 24  2  0  0  0
 23 48  1  0  0  0
 24 25  1  0  0  0
 25 26  2  0  0  0
 25 49  1  0  0  0
 26 50  1  0  0  0
M  END
> <s_m_entry_id>
62661

> <s_m_entry_name>
ligand_docking-pose.321

> <s_m_Source_Path>
/home/csk/Desktop/cluster/DUD-E-result/mk14

> <s_m_Source_File>
ligand_docking-pose.sdf

> <i_m_Source_File_Index>
321

> <i_lp_mmshare_version>
53161

> <r_lp_tautomer_probability>
0.5

> <s_lp_Force_Field>
OPLS_2005

> <r_lp_Energy>
35.296184

> <b_lp_Chiralities_Consistent>
1

> <s_lp_Variant>
620887-1

> <s_i_glide_gridfile>
glide-grid_2qd9

> <i_i_glide_lignum>
187

> <i_i_glide_rotatable_bonds>
6

> <r_i_docking_score>
-7.28601304298023

> <r_i_glide_ligand_efficiency>
-0.269852334925194

> <r_i_glide_ligand_efficiency_sa>
-0.809557003886192

> <r_i_glide_ligand_efficiency_ln>
-1.69606371709295

> <r_i_glide_gscore>
-7.28601304298023

> <r_i_glide_lipo>
-3.72741164611505

> <r_i_glide_hbond>
-0.47199966422728

> <r_i_glide_metal>
0

> <r_i_glide_rewards>
-1.73213174517652

> <r_i_glide_evdw>
-30.4806747436523

> <r_i_glide_ecoul>
-3.02769136428833

> <r_i_glide_erotb>
0.662554396277612

> <r_i_glide_esite>
-0.0388369419131229

> <r_i_glide_emodel>
-39.8539391088153

> <r_i_glide_energy>
-33.5083661079407

> <r_i_glide_einternal>
4.58429765701294

> <i_i_glide_confnum>
180

> <i_i_glide_posenum>
82

> <r_i_glide_eff_state_penalty>
0

> <i_f3d_flags>
0

> <s_user_duplicate_titles>
620887

> <s_m_subgroup_title>
dock_pv

> <s_m_subgroupid>
dock_pv1

> <b_m_subgroup_collapsed>
0

$$$$
555703
                    3D
 Schrodinger Suite 2021-1.
 53 57  0  0  1  0            999 V2000
   -4.8828    0.7697   15.3917 C   0  0  0  0  0  0
   -3.6488    1.2869   15.7697 C   0  0  0  0  0  0
   -3.4041    1.5626   17.1094 C   0  0  0  0  0  0
   -4.3867    1.3107   18.0779 C   0  0  0  0  0  0
   -5.6518    0.8870   17.6723 C   0  0  0  0  0  0
   -5.8876    0.5914   16.3325 C   0  0  0  0  0  0
   -4.0924    1.5196   19.5659 C   0  0  0  0  0  0
   -2.7174    0.9566   19.9997 C   0  0  0  0  0  0
   -2.7501   -0.1228   21.0689 C   0  0  0  0  0  0
   -2.7678   -1.4523   20.6298 C   0  0  0  0  0  0
   -2.7657   -2.5010   21.5398 C   0  0  0  0  0  0
   -2.7876   -2.2404   22.9041 C   0  0  0  0  0  0
   -2.7972   -0.9155   23.3436 C   0  0  0  0  0  0
   -2.7276    0.1417   22.4514 C   0  0  0  0  0  0
   -2.6228    1.3552   23.2529 C   0  0  0  0  0  0
   -2.4349    2.5559   22.8291 N   0  0  0  0  0  0
   -2.4091    3.5800   23.8088 O   0  0  0  0  0  0
   -2.8057    0.9165   24.6502 C   0  0  0  0  0  0
   -2.8893    1.6524   25.6372 O   0  0  0  0  0  0
   -2.8386   -0.4356   24.6352 N   0  0  0  0  0  0
   -3.0297   -1.2388   25.8554 C   0  0  0  0  0  0
   -2.0106   -1.0628   26.9854 C   0  0  0  0  0  0
   -0.7368   -0.5292   26.7480 C   0  0  0  0  0  0
    0.1307   -0.2733   27.8061 C   0  0  0  0  0  0
   -0.2513   -0.5648   29.1121 C   0  0  0  0  0  0
   -1.4994   -1.1337   29.3714 C   0  0  0  0  0  0
   -2.3736   -1.3820   28.3015 C   0  0  0  0  0  0
   -3.6351   -1.9126   28.5161 O   0  0  0  0  0  0
   -3.7533   -2.5953   29.7367 C   0  0  0  0  0  0
   -3.3928   -1.7421   30.7882 O   0  0  0  0  0  0
   -1.9804   -1.5027   30.7650 C   0  0  0  0  0  0
    1.3383    0.2736   27.5617 F   0  0  0  0  0  0
   -5.0684    0.4935   14.3637 H   0  0  0  0  0  0
   -2.8778    1.4504   15.0335 H   0  0  0  0  0  0
   -2.4385    1.9482   17.3877 H   0  0  0  0  0  0
   -6.4342    0.7113   18.3969 H   0  0  0  0  0  0
   -6.8349    0.1833   16.0255 H   0  0  0  0  0  0
   -4.1343    2.5901   19.7704 H   0  0  0  0  0  0
   -4.8853    1.0687   20.1655 H   0  0  0  0  0  0
   -2.2286    0.4859   19.1544 H   0  0  0  0  0  0
   -2.0347    1.7572   20.2788 H   0  0  0  0  0  0
   -2.7717   -1.6833   19.5730 H   0  0  0  0  0  0
   -2.7641   -3.5130   21.1718 H   0  0  0  0  0  0
   -2.8018   -3.0672   23.5951 H   0  0  0  0  0  0
   -2.5164    3.0804   24.6319 H   0  0  0  0  0  0
   -4.0146   -0.9756   26.2434 H   0  0  0  0  0  0
   -3.0844   -2.2999   25.6172 H   0  0  0  0  0  0
   -0.4122   -0.2821   25.7480 H   0  0  0  0  0  0
    0.4378   -0.3618   29.9201 H   0  0  0  0  0  0
   -4.8126   -2.8178   29.8633 H   0  0  0  0  0  0
   -3.1637   -3.5170   29.7289 H   0  0  0  0  0  0
   -1.4607   -2.4052   31.0899 H   0  0  0  0  0  0
   -1.7342   -0.7085   31.4654 H   0  0  0  0  0  0
  1  6  1  0  0  0
  1  2  2  0  0  0
  1 33  1  0  0  0
  2  3  1  0  0  0
  2 34  1  0  0  0
  3  4  2  0  0  0
  3 35  1  0  0  0
  4  5  1  0  0  0
  4  7  1  0  0  0
  5  6  2  0  0  0
  5 36  1  0  0  0
  6 37  1  0  0  0
  7  8  1  0  0  0
  7 38  1  0  0  0
  7 39  1  0  0  0
  8  9  1  0  0  0
  8 40  1  0  0  0
  8 41  1  0  0  0
  9 14  1  0  0  0
  9 10  2  0  0  0
 10 11  1  0  0  0
 10 42  1  0  0  0
 11 12  2  0  0  0
 11 43  1  0  0  0
 12 13  1  0  0  0
 12 44  1  0  0  0
 13 20  1  0  0  0
 13 14  2  0  0  0
 14 15  1  0  0  0
 15 16  2  0  0  0
 15 18  1  0  0  0
 16 17  1  0  0  0
 17 45  1  0  0  0
 18 19  2  0  0  0
 18 20  1  0  0  0
 20 21  1  0  0  0
 21 22  1  0  0  0
 21 46  1  0  0  0
 21 47  1  0  0  0
 22 27  1  0  0  0
 22 23  2  0  0  0
 23 24  1  0  0  0
 23 48  1  0  0  0
 24 25  2  0  0  0
 24 32  1  0  0  0
 25 26  1  0  0  0
 25 49  1  0  0  0
 26 31  1  0  0  0
 26 27  2  0  0  0
 27 28  1  0  0  0
 28 29  1  0  0  0
 29 30  1  0  0  0
 29 50  1  0  0  0
 29 51  1  0  0  0
 30 31  1  0  0  0
 31 52  1  0  0  0
 31 53  1  0  0  0
M  END
> <s_m_entry_id>
62662

> <s_m_entry_name>
ligand_docking-pose.322

> <s_m_Source_Path>
/home/csk/Desktop/cluster/DUD-E-result/mk14

> <s_m_Source_File>
ligand_docking-pose.sdf

> <i_m_Source_File_Index>
322

> <i_lp_mmshare_version>
53161

> <r_lp_tautomer_probability>
1

> <s_lp_Force_Field>
OPLS_2005

> <r_lp_Energy>
46.351366

> <b_lp_Chiralities_Consistent>
1

> <s_lp_Variant>
555703-1

> <s_i_glide_gridfile>
glide-grid_2qd9

> <i_i_glide_lignum>
385

> <i_i_glide_rotatable_bonds>
6

> <r_i_docking_score>
-7.28376949860165

> <r_i_glide_ligand_efficiency>
-0.227617796831302

> <r_i_glide_ligand_efficiency_sa>
-0.722641459438556

> <r_i_glide_ligand_efficiency_ln>
-1.63103453879465

> <r_i_glide_gscore>
-7.28376949860165

> <r_i_glide_lipo>
-4.02512067817764

> <r_i_glide_hbond>
0

> <r_i_glide_metal>
0

> <r_i_glide_rewards>
-1.29627161053527

> <r_i_glide_evdw>
-43.3617553710938

> <r_i_glide_ecoul>
-2.51728558540344

> <r_i_glide_erotb>
0.63843130068131

> <r_i_glide_esite>
-0.0551279042048411

> <r_i_glide_emodel>
-53.2217673502675

> <r_i_glide_energy>
-45.8790409564972

> <r_i_glide_einternal>
18.7086753845215

> <i_i_glide_confnum>
90

> <i_i_glide_posenum>
362

> <r_i_glide_eff_state_penalty>
0

> <i_f3d_flags>
0

> <s_user_duplicate_titles>
555703

> <s_m_subgroup_title>
dock_pv

> <s_m_subgroupid>
dock_pv1

> <b_m_subgroup_collapsed>
0

$$$$
189646
                    3D
 Schrodinger Suite 2021-1.
 37 40  0  0  1  0            999 V2000
   -0.0376   -0.1101   28.3719 C   0  0  0  0  0  0
   -1.2797   -0.6968   28.1443 C   0  0  0  0  0  0
   -1.7017   -0.9681   26.8424 C   0  0  0  0  0  0
   -0.8681   -0.6644   25.7489 C   0  0  0  0  0  0
    0.3857   -0.0747   25.9892 C   0  0  0  0  0  0
    0.7848    0.2086   27.2952 C   0  0  0  0  0  0
    1.4669    0.3073   24.6861 Cl  0  0  0  0  0  0
   -1.2907   -0.9853   24.3595 C   0  0  0  0  0  0
   -1.7569   -0.0356   23.5082 C   0  0  0  0  0  0
   -1.8749    1.3839   23.8245 C   0  0  0  0  0  0
   -2.2093    2.2331   22.8341 C   0  0  0  0  0  0
   -2.4693    1.7327   21.5003 C   0  0  0  0  0  0
   -2.4352    0.4707   21.2170 N   0  0  0  0  0  0
   -2.1007   -0.3953   22.1935 N   0  0  0  0  0  0
   -2.0412   -1.7387   21.8322 C   0  0  0  0  0  0
   -1.6340   -2.6738   22.6111 N   0  0  0  0  0  0
   -1.0852   -2.3585   23.8712 C   0  0  0  0  0  0
   -0.4347   -3.1130   24.5776 O   0  0  0  0  0  0
   -2.8350    2.9475   20.2438 S   0  0  0  0  0  0
   -3.6877    2.0240   19.0006 C   0  0  0  0  0  0
   -4.8739    1.3472   19.2802 C   0  0  0  0  0  0
   -5.6350    0.8324   18.2288 C   0  0  0  0  0  0
   -5.1602    0.8870   16.9142 C   0  0  0  0  0  0
   -3.9302    1.4826   16.6510 C   0  0  0  0  0  0
   -3.2350    2.0869   17.6851 C   0  0  0  0  0  0
   -3.2350    1.4902   15.0760 Cl  0  0  0  0  0  0
   -6.0369    0.1102   15.6462 Cl  0  0  0  0  0  0
   -3.2582   -1.6958   26.6195 Cl  0  0  0  0  0  0
    0.2935    0.0921   29.3805 H   0  0  0  0  0  0
   -1.9134   -0.9484   28.9824 H   0  0  0  0  0  0
    1.7495    0.6614   27.4766 H   0  0  0  0  0  0
   -1.6776    1.7502   24.8214 H   0  0  0  0  0  0
   -2.2771    3.2871   23.0549 H   0  0  0  0  0  0
   -2.3866   -1.9634   20.8246 H   0  0  0  0  0  0
   -5.2507    1.2931   20.2897 H   0  0  0  0  0  0
   -6.5764    0.3425   18.4369 H   0  0  0  0  0  0
   -2.3347    2.6306   17.4472 H   0  0  0  0  0  0
  1  6  1  0  0  0
  1  2  2  0  0  0
  1 29  1  0  0  0
  2  3  1  0  0  0
  2 30  1  0  0  0
  3  4  2  0  0  0
  3 28  1  0  0  0
  4  5  1  0  0  0
  4  8  1  0  0  0
  5  6  2  0  0  0
  5  7  1  0  0  0
  6 31  1  0  0  0
  8 17  1  0  0  0
  8  9  2  0  0  0
  9 14  1  0  0  0
  9 10  1  0  0  0
 10 11  2  0  0  0
 10 32  1  0  0  0
 11 12  1  0  0  0
 11 33  1  0  0  0
 12 13  2  0  0  0
 12 19  1  0  0  0
 13 14  1  0  0  0
 14 15  1  0  0  0
 15 16  2  0  0  0
 15 34  1  0  0  0
 16 17  1  0  0  0
 17 18  2  0  0  0
 19 20  1  0  0  0
 20 25  1  0  0  0
 20 21  2  0  0  0
 21 22  1  0  0  0
 21 35  1  0  0  0
 22 23  2  0  0  0
 22 36  1  0  0  0
 23 24  1  0  0  0
 23 27  1  0  0  0
 24 25  2  0  0  0
 24 26  1  0  0  0
 25 37  1  0  0  0
M  END
> <s_m_entry_id>
62663

> <s_m_entry_name>
ligand_docking-pose.323

> <s_m_Source_Path>
/home/csk/Desktop/cluster/DUD-E-result/mk14

> <s_m_Source_File>
ligand_docking-pose.sdf

> <i_m_Source_File_Index>
323

> <i_lp_mmshare_version>
53161

> <r_lp_tautomer_probability>
1

> <s_lp_Force_Field>
OPLS_2005

> <r_lp_Energy>
44.703243

> <b_lp_Chiralities_Consistent>
1

> <s_lp_Variant>
189646-1

> <s_i_glide_gridfile>
glide-grid_2qd9

> <i_i_glide_lignum>
406

> <i_i_glide_rotatable_bonds>
3

> <r_i_docking_score>
-7.27992491084927

> <r_i_glide_ligand_efficiency>
-0.259997318244617

> <r_i_glide_ligand_efficiency_sa>
-0.78950498842192

> <r_i_glide_ligand_efficiency_ln>
-1.68042041730732

> <r_i_glide_gscore>
-7.27992491084927

> <r_i_glide_lipo>
-3.09364193093674

> <r_i_glide_hbond>
-0.140629585019842

> <r_i_glide_metal>
0

> <r_i_glide_rewards>
-1.67340190172955

> <r_i_glide_evdw>
-41.0360527038574

> <r_i_glide_ecoul>
-3.97126650810242

> <r_i_glide_erotb>
0.275241118245088

> <r_i_glide_esite>
0

> <r_i_glide_emodel>
-59.0567811633167

> <r_i_glide_energy>
-45.0073192119598

> <r_i_glide_einternal>
1.22470939159393

> <i_i_glide_confnum>
21

> <i_i_glide_posenum>
33

> <r_i_glide_eff_state_penalty>
0

> <i_f3d_flags>
0

> <s_user_duplicate_titles>
189646

> <s_m_subgroup_title>
dock_pv

> <s_m_subgroupid>
dock_pv1

> <b_m_subgroup_collapsed>
0

$$$$
189388
                    3D
 Schrodinger Suite 2021-1.
 37 40  0  0  1  0            999 V2000
   -5.2291    1.1908   15.9872 C   0  0  0  0  0  0
   -3.9776    1.7781   15.9181 C   0  0  0  0  0  0
   -3.2349    2.0623   17.0675 C   0  0  0  0  0  0
   -3.7317    1.6866   18.3652 C   0  0  0  0  0  0
   -5.0424    1.1392   18.3931 C   0  0  0  0  0  0
   -5.7689    0.8928   17.2254 C   0  0  0  0  0  0
   -5.8672    0.7794   19.8759 Cl  0  0  0  0  0  0
   -3.0374    1.8081   19.7190 C   0  0  0  0  0  0
   -2.7387    0.6941   20.4636 C   0  0  0  0  0  0
   -2.9412   -0.6948   20.0468 C   0  0  0  0  0  0
   -2.6138   -1.6934   20.8951 C   0  0  0  0  0  0
   -2.0687   -1.3849   22.2040 C   0  0  0  0  0  0
   -1.8881   -0.1665   22.5884 N   0  0  0  0  0  0
   -2.2019    0.8344   21.7537 N   0  0  0  0  0  0
   -2.0330    2.1042   22.2822 C   0  0  0  0  0  0
   -2.2703    3.1775   21.6282 N   0  0  0  0  0  0
   -2.5825    3.1222   20.2604 C   0  0  0  0  0  0
   -2.4347    4.0506   19.4768 O   0  0  0  0  0  0
   -1.6321   -2.7198   23.3198 S   0  0  0  0  0  0
   -1.3444   -1.8846   24.8650 C   0  0  0  0  0  0
   -2.3597   -1.9126   25.8228 C   0  0  0  0  0  0
   -2.1753   -1.2994   27.0609 C   0  0  0  0  0  0
   -0.9746   -0.6577   27.3485 C   0  0  0  0  0  0
    0.0398   -0.6181   26.3935 C   0  0  0  0  0  0
   -0.1374   -1.2236   25.1465 C   0  0  0  0  0  0
    1.1492   -1.1139   23.9968 Cl  0  0  0  0  0  0
   -0.7958   -0.0689   28.5541 F   0  0  0  0  0  0
   -1.7643    2.8889   16.6870 Cl  0  0  0  0  0  0
   -5.7874    0.9956   15.0850 H   0  0  0  0  0  0
   -3.5834    2.0537   14.9556 H   0  0  0  0  0  0
   -6.7572    0.4605   17.2868 H   0  0  0  0  0  0
   -3.3447   -0.9285   19.0762 H   0  0  0  0  0  0
   -2.7708   -2.7150   20.5782 H   0  0  0  0  0  0
   -1.7078    2.1454   23.3176 H   0  0  0  0  0  0
   -3.2919   -2.4157   25.6130 H   0  0  0  0  0  0
   -2.9583   -1.3306   27.8053 H   0  0  0  0  0  0
    0.9676   -0.1160   26.6296 H   0  0  0  0  0  0
  1  6  1  0  0  0
  1  2  2  0  0  0
  1 29  1  0  0  0
  2  3  1  0  0  0
  2 30  1  0  0  0
  3  4  2  0  0  0
  3 28  1  0  0  0
  4  5  1  0  0  0
  4  8  1  0  0  0
  5  6  2  0  0  0
  5  7  1  0  0  0
  6 31  1  0  0  0
  8 17  1  0  0  0
  8  9  2  0  0  0
  9 14  1  0  0  0
  9 10  1  0  0  0
 10 11  2  0  0  0
 10 32  1  0  0  0
 11 12  1  0  0  0
 11 33  1  0  0  0
 12 13  2  0  0  0
 12 19  1  0  0  0
 13 14  1  0  0  0
 14 15  1  0  0  0
 15 16  2  0  0  0
 15 34  1  0  0  0
 16 17  1  0  0  0
 17 18  2  0  0  0
 19 20  1  0  0  0
 20 25  1  0  0  0
 20 21  2  0  0  0
 21 22  1  0  0  0
 21 35  1  0  0  0
 22 23  2  0  0  0
 22 36  1  0  0  0
 23 24  1  0  0  0
 23 27  1  0  0  0
 24 25  2  0  0  0
 24 37  1  0  0  0
 25 26  1  0  0  0
M  END
> <s_m_entry_id>
62666

> <s_m_entry_name>
ligand_docking-pose.326

> <s_m_Source_Path>
/home/csk/Desktop/cluster/DUD-E-result/mk14

> <s_m_Source_File>
ligand_docking-pose.sdf

> <i_m_Source_File_Index>
326

> <i_lp_mmshare_version>
53161

> <r_lp_tautomer_probability>
1

> <s_lp_Force_Field>
OPLS_2005

> <r_lp_Energy>
43.849911

> <b_lp_Chiralities_Consistent>
1

> <s_lp_Variant>
189388-1

> <s_i_glide_gridfile>
glide-grid_2qd9

> <i_i_glide_lignum>
408

> <i_i_glide_rotatable_bonds>
3

> <r_i_docking_score>
-7.24948921092988

> <r_i_glide_ligand_efficiency>
-0.258910328961782

> <r_i_glide_ligand_efficiency_sa>
-0.786204248756781

> <r_i_glide_ligand_efficiency_ln>
-1.67339496413494

> <r_i_glide_gscore>
-7.24948921092988

> <r_i_glide_lipo>
-3.93951051676786

> <r_i_glide_hbond>
-0.0123549056190679

> <r_i_glide_metal>
0

> <r_i_glide_rewards>
-0.903554635882536

> <r_i_glide_evdw>
-33.2893905639648

> <r_i_glide_ecoul>
-6.82224178314209

> <r_i_glide_erotb>
0.293736643009139

> <r_i_glide_esite>
0

> <r_i_glide_emodel>
-37.7265530567632

> <r_i_glide_energy>
-40.1116323471069

> <r_i_glide_einternal>
16.0744361877441

> <i_i_glide_confnum>
8

> <i_i_glide_posenum>
155

> <r_i_glide_eff_state_penalty>
0

> <i_f3d_flags>
0

> <s_user_duplicate_titles>
189388

> <s_m_subgroup_title>
dock_pv

> <s_m_subgroupid>
dock_pv1

> <b_m_subgroup_collapsed>
0

$$$$
103047
                    3D
 Schrodinger Suite 2021-1.
 44 48  0  0  1  0            999 V2000
   -5.6350    0.9246   16.6083 C   0  0  0  0  0  0
   -4.3956    1.3568   16.1312 C   0  0  0  0  0  0
   -3.3664    1.7009   17.0085 C   0  0  0  0  0  0
   -3.6351    1.5765   18.3788 C   0  0  0  0  0  0
   -4.8315    1.0446   18.8772 C   0  0  0  0  0  0
   -5.8757    0.7728   17.9792 C   0  0  0  0  0  0
   -4.5931    0.9210   20.2760 C   0  0  0  0  0  0
   -3.3819    1.5310   20.5573 C   0  0  0  0  0  0
   -2.8351    1.9811   19.4082 O   0  0  0  0  0  0
   -2.5952    1.7943   21.7572 C   0  0  0  0  0  0
   -2.1343    1.0263   22.8260 C   0  0  0  0  0  0
   -1.4168    1.7501   23.6746 N   0  0  0  0  0  0
   -1.2707    2.9320   23.1430 C   0  0  0  0  0  0
   -2.0350    3.0212   22.0032 N   0  0  0  0  0  0
   -0.2600    3.9337   23.6426 C   0  0  0  0  0  0
    0.1952    3.9296   24.9745 C   0  0  0  0  0  0
    1.2544    4.7743   25.3373 C   0  0  0  0  0  0
    1.8628    5.6106   24.4616 N   0  0  0  0  0  0
    1.4249    5.6140   23.1824 C   0  0  0  0  0  0
    0.3615    4.8196   22.7505 C   0  0  0  0  0  0
   -0.0350    4.8870   21.4684 F   0  0  0  0  0  0
    2.1073    6.4242   22.2774 N   0  0  0  0  0  0
    1.7550    4.7744   26.6349 N   0  0  0  0  0  0
   -0.3629    3.1085   25.8993 F   0  0  0  0  0  0
   -2.2318   -0.4343   23.0494 C   0  0  0  0  0  0
   -2.1396   -0.9437   24.3503 C   0  0  0  0  0  0
   -2.0344   -2.3152   24.5201 C   0  0  0  0  0  0
   -2.0351   -3.1809   23.4774 N   0  0  0  0  0  0
   -2.1784   -2.6870   22.2234 C   0  0  0  0  0  0
   -2.2761   -1.3219   21.9675 C   0  0  0  0  0  0
   -2.0396    3.7978   21.3608 H   0  0  0  0  0  0
   -6.4224    0.6906   15.9045 H   0  0  0  0  0  0
   -4.2428    1.4558   15.0659 H   0  0  0  0  0  0
   -2.4233    2.0874   16.6513 H   0  0  0  0  0  0
   -6.8324    0.4153   18.3309 H   0  0  0  0  0  0
   -5.2367    0.4870   21.0086 H   0  0  0  0  0  0
    1.9642    6.2236   21.2880 H   0  0  0  0  0  0
    2.9775    6.8248   22.5899 H   0  0  0  0  0  0
    1.5457    3.9631   27.1984 H   0  0  0  0  0  0
    2.6224    5.2671   26.7866 H   0  0  0  0  0  0
   -2.0939   -0.2911   25.2103 H   0  0  0  0  0  0
   -1.9231   -2.7282   25.5117 H   0  0  0  0  0  0
   -2.1861   -3.4009   21.4116 H   0  0  0  0  0  0
   -2.3323   -0.9673   20.9489 H   0  0  0  0  0  0
  1  6  1  0  0  0
  1  2  2  0  0  0
  1 32  1  0  0  0
  2  3  1  0  0  0
  2 33  1  0  0  0
  3  4  2  0  0  0
  3 34  1  0  0  0
  4  9  1  0  0  0
  4  5  1  0  0  0
  5  6  2  0  0  0
  5  7  1  0  0  0
  6 35  1  0  0  0
  7  8  2  0  0  0
  7 36  1  0  0  0
  8  9  1  0  0  0
  8 10  1  0  0  0
 10 14  1  0  0  0
 10 11  2  0  0  0
 11 12  1  0  0  0
 11 25  1  0  0  0
 12 13  2  0  0  0
 13 14  1  0  0  0
 13 15  1  0  0  0
 14 31  1  0  0  0
 15 20  1  0  0  0
 15 16  2  0  0  0
 16 17  1  0  0  0
 16 24  1  0  0  0
 17 18  2  0  0  0
 17 23  1  0  0  0
 18 19  1  0  0  0
 19 20  2  0  0  0
 19 22  1  0  0  0
 20 21  1  0  0  0
 22 37  1  0  0  0
 22 38  1  0  0  0
 23 39  1  0  0  0
 23 40  1  0  0  0
 25 30  1  0  0  0
 25 26  2  0  0  0
 26 27  1  0  0  0
 26 41  1  0  0  0
 27 28  2  0  0  0
 27 42  1  0  0  0
 28 29  1  0  0  0
 29 30  2  0  0  0
 29 43  1  0  0  0
 30 44  1  0  0  0
M  END
> <s_m_entry_id>
62668

> <s_m_entry_name>
ligand_docking-pose.328

> <s_m_Source_Path>
/home/csk/Desktop/cluster/DUD-E-result/mk14

> <s_m_Source_File>
ligand_docking-pose.sdf

> <i_m_Source_File_Index>
328

> <i_lp_mmshare_version>
53161

> <r_lp_tautomer_probability>
0.499999999999999

> <s_lp_Force_Field>
OPLS_2005

> <r_lp_Energy>
15.959705

> <b_lp_Chiralities_Consistent>
1

> <s_lp_Variant>
103047-1

> <s_i_glide_gridfile>
glide-grid_2qd9

> <i_i_glide_lignum>
52

> <i_i_glide_rotatable_bonds>
3

> <r_i_docking_score>
-7.21907281698694

> <r_i_glide_ligand_efficiency>
-0.240635760566231

> <r_i_glide_ligand_efficiency_sa>
-0.747711256478619

> <r_i_glide_ligand_efficiency_ln>
-1.64025200211779

> <r_i_glide_gscore>
-7.21907281698694

> <r_i_glide_lipo>
-3.05948664727588

> <r_i_glide_hbond>
-0.675473676782515

> <r_i_glide_metal>
0

> <r_i_glide_rewards>
-1.51507856093214

> <r_i_glide_evdw>
-30.1414241790771

> <r_i_glide_ecoul>
-3.82188510894775

> <r_i_glide_erotb>
0.360375102924442

> <r_i_glide_esite>
-0.249055059624825

> <r_i_glide_emodel>
-41.534835422861

> <r_i_glide_energy>
-33.9633092880249

> <r_i_glide_einternal>
3.04962754249573

> <i_i_glide_confnum>
3

> <i_i_glide_posenum>
247

> <r_i_glide_eff_state_penalty>
0

> <i_f3d_flags>
0

> <s_user_duplicate_titles>
103047

> <s_m_subgroup_title>
dock_pv

> <s_m_subgroupid>
dock_pv1

> <b_m_subgroup_collapsed>
0

$$$$
149647
                    3D
 Schrodinger Suite 2021-1.
 50 54  0  0  1  0            999 V2000
    1.5650    0.9891   25.0766 C   0  0  0  0  0  0
    0.7421    1.3136   26.1517 C   0  0  0  0  0  0
   -0.3466    0.5007   26.4528 C   0  0  0  0  0  0
   -0.6117   -0.6305   25.6758 C   0  0  0  0  0  0
    0.3080   -1.0201   24.6878 C   0  0  0  0  0  0
    1.3896   -0.2022   24.3777 C   0  0  0  0  0  0
   -1.9221   -1.3842   25.9340 C   0  0  0  0  0  0
   -2.3121   -2.3129   24.8707 N   0  0  0  0  0  0
   -2.5154   -1.9257   23.5360 C   0  0  0  0  0  0
   -2.4361   -2.9273   22.6254 N   0  0  0  0  0  0
   -2.5388   -2.5708   21.3193 C   0  0  0  0  0  0
   -2.7100   -1.2474   20.9083 C   0  0  0  0  0  0
   -2.7520   -0.2713   21.9106 C   0  0  0  0  0  0
   -2.6942   -0.6131   23.2308 N   0  0  0  0  0  0
   -2.6836    1.1897   21.6215 C   0  0  0  0  0  0
   -2.9802    1.8839   20.4909 C   0  0  0  0  0  0
   -2.4350    3.2278   20.6153 C   0  0  0  0  0  0
   -2.2785    4.0869   19.7524 O   0  0  0  0  0  0
   -2.0320    3.2852   21.8951 N   0  0  0  0  0  0
   -2.1338    2.0888   22.5249 N   0  0  0  0  0  0
   -0.9429    1.8735   23.3148 C   0  0  0  0  0  0
   -0.0711    3.1110   23.2237 C   0  0  0  0  0  0
   -0.8941    4.0864   22.4071 C   0  0  0  0  0  0
   -3.7609    1.4629   19.2918 C   0  0  0  0  0  0
   -3.3287    1.7603   17.9904 C   0  0  0  0  0  0
   -4.0982    1.4534   16.8806 C   0  0  0  0  0  0
   -5.3455    0.8870   17.0628 C   0  0  0  0  0  0
   -5.8088    0.5741   18.3431 C   0  0  0  0  0  0
   -5.0011    0.8340   19.4507 C   0  0  0  0  0  0
   -6.0680    0.5718   15.9703 F   0  0  0  0  0  0
    2.3768    1.6512   24.8222 H   0  0  0  0  0  0
    0.9308    2.2097   26.7248 H   0  0  0  0  0  0
   -1.0148    0.7864   27.2523 H   0  0  0  0  0  0
    0.1657   -1.9241   24.1155 H   0  0  0  0  0  0
    2.0705   -0.4735   23.5846 H   0  0  0  0  0  0
   -1.8285   -1.9323   26.8725 H   0  0  0  0  0  0
   -2.7261   -0.6591   26.0705 H   0  0  0  0  0  0
   -2.3793   -3.2862   25.1103 H   0  0  0  0  0  0
   -2.4351   -3.3649   20.5958 H   0  0  0  0  0  0
   -2.7247   -0.9940   19.8589 H   0  0  0  0  0  0
   -1.2414    1.6702   24.3393 H   0  0  0  0  0  0
   -0.4077    1.0021   22.9408 H   0  0  0  0  0  0
    0.1633    3.5178   24.2085 H   0  0  0  0  0  0
    0.8684    2.8879   22.7200 H   0  0  0  0  0  0
   -0.2998    4.5531   21.6167 H   0  0  0  0  0  0
   -1.2347    4.8763   23.0763 H   0  0  0  0  0  0
   -2.4350    2.3238   17.8036 H   0  0  0  0  0  0
   -3.7508    1.6948   15.8863 H   0  0  0  0  0  0
   -6.7747    0.1045   18.4658 H   0  0  0  0  0  0
   -5.3628    0.5863   20.4364 H   0  0  0  0  0  0
  1  6  1  0  0  0
  1  2  2  0  0  0
  1 31  1  0  0  0
  2  3  1  0  0  0
  2 32  1  0  0  0
  3  4  2  0  0  0
  3 33  1  0  0  0
  4  5  1  0  0  0
  4  7  1  0  0  0
  5  6  2  0  0  0
  5 34  1  0  0  0
  6 35  1  0  0  0
  7  8  1  0  0  0
  7 36  1  0  0  0
  7 37  1  0  0  0
  8  9  1  0  0  0
  8 38  1  0  0  0
  9 14  1  0  0  0
  9 10  2  0  0  0
 10 11  1  0  0  0
 11 12  2  0  0  0
 11 39  1  0  0  0
 12 13  1  0  0  0
 12 40  1  0  0  0
 13 14  2  0  0  0
 13 15  1  0  0  0
 15 20  1  0  0  0
 15 16  2  0  0  0
 16 17  1  0  0  0
 16 24  1  0  0  0
 17 18  2  0  0  0
 17 19  1  0  0  0
 19 23  1  0  0  0
 19 20  1  0  0  0
 20 21  1  0  0  0
 21 22  1  0  0  0
 21 41  1  0  0  0
 21 42  1  0  0  0
 22 23  1  0  0  0
 22 43  1  0  0  0
 22 44  1  0  0  0
 23 45  1  0  0  0
 23 46  1  0  0  0
 24 29  1  0  0  0
 24 25  2  0  0  0
 25 26  1  0  0  0
 25 47  1  0  0  0
 26 27  2  0  0  0
 26 48  1  0  0  0
 27 28  1  0  0  0
 27 30  1  0  0  0
 28 29  2  0  0  0
 28 49  1  0  0  0
 29 50  1  0  0  0
M  END
> <s_m_entry_id>
62671

> <s_m_entry_name>
ligand_docking-pose.331

> <s_m_Source_Path>
/home/csk/Desktop/cluster/DUD-E-result/mk14

> <s_m_Source_File>
ligand_docking-pose.sdf

> <i_m_Source_File_Index>
331

> <i_lp_mmshare_version>
53161

> <r_lp_tautomer_probability>
0.999999987636

> <s_lp_Force_Field>
OPLS_2005

> <r_lp_Energy>
36.393173

> <b_lp_Chiralities_Consistent>
1

> <s_lp_Variant>
149647-1

> <s_i_glide_gridfile>
glide-grid_2qd9

> <i_i_glide_lignum>
484

> <i_i_glide_rotatable_bonds>
5

> <r_i_docking_score>
-7.21676770716913

> <r_i_glide_ligand_efficiency>
-0.240558923572304

> <r_i_glide_ligand_efficiency_sa>
-0.7474725060737

> <r_i_glide_ligand_efficiency_ln>
-1.639728256051

> <r_i_glide_gscore>
-7.21676770716913

> <r_i_glide_lipo>
-3.25261186206496

> <r_i_glide_hbond>
-0.186882502676278

> <r_i_glide_metal>
0

> <r_i_glide_rewards>
-2.26481875815822

> <r_i_glide_evdw>
-29.503173828125

> <r_i_glide_ecoul>
-4.04879713058472

> <r_i_glide_erotb>
0.608560648840512

> <r_i_glide_esite>
-0.0385369721162212

> <r_i_glide_emodel>
-33.7224780280812

> <r_i_glide_energy>
-33.5519709587097

> <r_i_glide_einternal>
3.35363841056824

> <i_i_glide_confnum>
145

> <i_i_glide_posenum>
171

> <r_i_glide_eff_state_penalty>
0

> <i_f3d_flags>
0

> <s_user_duplicate_titles>
149647

> <s_m_subgroup_title>
dock_pv

> <s_m_subgroupid>
dock_pv1

> <b_m_subgroup_collapsed>
0

$$$$
621164
                    3D
 Schrodinger Suite 2021-1.
 48 51  0  0  1  0            999 V2000
   -5.2225    0.8872   18.4966 C   0  0  0  0  0  0
   -5.9163    0.5982   17.3256 C   0  0  0  0  0  0
   -5.2623    0.6712   16.0968 C   0  0  0  0  0  0
   -3.9523    1.1291   16.0173 C   0  0  0  0  0  0
   -3.2705    1.4604   17.1821 C   0  0  0  0  0  0
   -3.8961    1.3122   18.4293 C   0  0  0  0  0  0
   -3.2352    1.7140   19.6986 C   0  0  0  0  0  0
   -2.8289    1.0793   20.8841 C   0  0  0  0  0  0
   -2.4282    2.1453   21.7374 C   0  0  0  0  0  0
   -2.4220    3.2861   21.0900 N   0  0  0  0  0  0
   -2.8581    3.0080   19.8771 N   0  0  0  0  0  0
   -1.9786    2.1715   23.1983 C   0  0  0  0  0  0
   -3.0915    1.9971   24.2740 C   0  0  0  0  0  0
   -2.5823    1.7959   25.7206 C   0  0  0  0  0  0
   -1.4262    0.8894   25.6928 N   0  0  0  0  0  0
   -0.2560    1.4856   25.0373 C   0  0  0  0  0  0
   -0.5679    1.6013   23.5254 C   0  0  0  0  0  0
   -1.5694   -0.4527   25.8608 C   0  0  0  0  0  0
   -2.6562   -0.9703   26.1335 O   0  0  0  0  0  0
   -0.3122   -1.3408   25.9636 C   0  0  0  0  0  0
    0.2911   -1.5230   24.6911 O   0  0  0  0  0  0
   -2.7669   -0.3862   21.1742 C   0  0  0  0  0  0
   -2.4300   -1.3102   20.1777 C   0  0  0  0  0  0
   -2.1782   -2.6228   20.5880 C   0  0  0  0  0  0
   -2.2760   -3.0215   21.8829 N   0  0  0  0  0  0
   -2.6382   -2.0602   22.7677 C   0  0  0  0  0  0
   -2.8839   -0.7588   22.4773 N   0  0  0  0  0  0
   -6.0348    0.0863   14.6764 Cl  0  0  0  0  0  0
   -2.9355    3.7151   19.1660 H   0  0  0  0  0  0
   -5.7204    0.7858   19.4511 H   0  0  0  0  0  0
   -6.9176    0.2111   17.3966 H   0  0  0  0  0  0
   -3.4552    1.1976   15.0605 H   0  0  0  0  0  0
   -2.2602    1.8244   17.0799 H   0  0  0  0  0  0
   -1.7324    3.1994   23.4784 H   0  0  0  0  0  0
   -3.6638    1.0990   24.0530 H   0  0  0  0  0  0
   -3.7886    2.8345   24.2678 H   0  0  0  0  0  0
   -3.3422    1.4713   26.4341 H   0  0  0  0  0  0
   -2.2302    2.7434   26.1311 H   0  0  0  0  0  0
   -0.1231    2.4772   25.4719 H   0  0  0  0  0  0
    0.6809    0.9840   25.2832 H   0  0  0  0  0  0
    0.2222    2.2042   23.0772 H   0  0  0  0  0  0
   -0.4908    0.5923   23.1180 H   0  0  0  0  0  0
   -0.5857   -2.3123   26.3702 H   0  0  0  0  0  0
    0.4012   -0.9010   26.6612 H   0  0  0  0  0  0
    1.0640   -2.0904   24.8040 H   0  0  0  0  0  0
   -2.3130   -1.0175   19.1449 H   0  0  0  0  0  0
   -1.8953   -3.3822   19.8734 H   0  0  0  0  0  0
   -2.7210   -2.3454   23.8056 H   0  0  0  0  0  0
  1  6  1  0  0  0
  1  2  2  0  0  0
  1 30  1  0  0  0
  2  3  1  0  0  0
  2 31  1  0  0  0
  3  4  2  0  0  0
  3 28  1  0  0  0
  4  5  1  0  0  0
  4 32  1  0  0  0
  5  6  2  0  0  0
  5 33  1  0  0  0
  6  7  1  0  0  0
  7 11  1  0  0  0
  7  8  2  0  0  0
  8  9  1  0  0  0
  8 22  1  0  0  0
  9 12  1  0  0  0
  9 10  2  0  0  0
 10 11  1  0  0  0
 11 29  1  0  0  0
 12 17  1  0  0  0
 12 13  1  0  0  0
 12 34  1  0  0  0
 13 14  1  0  0  0
 13 35  1  0  0  0
 13 36  1  0  0  0
 14 15  1  0  0  0
 14 37  1  0  0  0
 14 38  1  0  0  0
 15 16  1  0  0  0
 15 18  1  0  0  0
 16 17  1  0  0  0
 16 39  1  0  0  0
 16 40  1  0  0  0
 17 41  1  0  0  0
 17 42  1  0  0  0
 18 19  2  0  0  0
 18 20  1  0  0  0
 20 21  1  0  0  0
 20 43  1  0  0  0
 20 44  1  0  0  0
 21 45  1  0  0  0
 22 27  1  0  0  0
 22 23  2  0  0  0
 23 24  1  0  0  0
 23 46  1  0  0  0
 24 25  2  0  0  0
 24 47  1  0  0  0
 25 26  1  0  0  0
 26 27  2  0  0  0
 26 48  1  0  0  0
M  END
> <s_m_entry_id>
62672

> <s_m_entry_name>
ligand_docking-pose.332

> <s_m_Source_Path>
/home/csk/Desktop/cluster/DUD-E-result/mk14

> <s_m_Source_File>
ligand_docking-pose.sdf

> <i_m_Source_File_Index>
332

> <i_lp_mmshare_version>
53161

> <r_lp_tautomer_probability>
0.5

> <s_lp_Force_Field>
OPLS_2005

> <r_lp_Energy>
27.80965

> <b_lp_Chiralities_Consistent>
1

> <s_lp_Variant>
621164-2

> <s_i_glide_gridfile>
glide-grid_2qd9

> <i_i_glide_lignum>
198

> <i_i_glide_rotatable_bonds>
6

> <r_i_docking_score>
-7.21671834303367

> <r_i_glide_ligand_efficiency>
-0.257739940822631

> <r_i_glide_ligand_efficiency_sa>
-0.782650261044571

> <r_i_glide_ligand_efficiency_ln>
-1.66583048563001

> <r_i_glide_gscore>
-7.21671834303367

> <r_i_glide_lipo>
-3.56760668711757

> <r_i_glide_hbond>
-0.14494389797411

> <r_i_glide_metal>
0

> <r_i_glide_rewards>
-1.61398090117877

> <r_i_glide_evdw>
-40.6486320495605

> <r_i_glide_ecoul>
-3.09751200675964

> <r_i_glide_erotb>
0.61844758250638

> <r_i_glide_esite>
-0.0115760357776263

> <r_i_glide_emodel>
-44.9572153239225

> <r_i_glide_energy>
-43.7461440563202

> <r_i_glide_einternal>
11.6793022155762

> <i_i_glide_confnum>
160

> <i_i_glide_posenum>
171

> <r_i_glide_eff_state_penalty>
0

> <i_f3d_flags>
0

> <s_user_duplicate_titles>
621164

> <s_m_subgroup_title>
dock_pv

> <s_m_subgroupid>
dock_pv1

> <b_m_subgroup_collapsed>
0

$$$$
620952
                    3D
 Schrodinger Suite 2021-1.
 48 51  0  0  1  0            999 V2000
   -3.4013    1.6456   17.5840 C   0  0  0  0  0  0
   -4.0714    1.2922   16.4217 C   0  0  0  0  0  0
   -5.3386    0.7354   16.5102 C   0  0  0  0  0  0
   -5.9613    0.5816   17.7519 C   0  0  0  0  0  0
   -5.2610    0.8841   18.9215 C   0  0  0  0  0  0
   -3.9698    1.4068   18.8420 C   0  0  0  0  0  0
   -3.2310    1.7792   20.0843 C   0  0  0  0  0  0
   -2.7262    1.1102   21.2163 C   0  0  0  0  0  0
   -2.1701    2.1281   22.0438 C   0  0  0  0  0  0
   -2.2128    3.2831   21.4245 N   0  0  0  0  0  0
   -2.8307    3.0651   20.2758 N   0  0  0  0  0  0
   -1.5064    2.1246   23.4304 C   0  0  0  0  0  0
   -2.4180    2.4531   24.6539 C   0  0  0  0  0  0
   -1.6234    2.5635   25.9765 C   0  0  0  0  0  0
   -0.6778    1.4414   26.1587 N   0  0  2  0  0  0
    0.3483    1.3871   25.0967 C   0  0  0  0  0  0
   -0.2658    1.2116   23.6864 C   0  0  0  0  0  0
   -1.3397   -0.0931   26.7417 S   0  0  0  0  0  0
   -2.4338    0.2072   27.6666 O   0  0  0  0  0  0
   -1.5174   -1.0092   25.6134 O   0  0  0  0  0  0
   -0.0331   -0.7144   27.7017 N   0  0  0  0  0  0
   -2.7062   -0.3541   21.4734 C   0  0  0  0  0  0
   -2.3986   -1.2460   20.4394 C   0  0  0  0  0  0
   -2.2496   -2.6001   20.7424 C   0  0  0  0  0  0
   -2.4029   -3.0994   21.9953 N   0  0  0  0  0  0
   -2.7230   -2.2258   22.9813 C   0  0  0  0  0  0
   -2.8967   -0.8610   22.7612 C   0  0  0  0  0  0
   -6.0548    0.0926   15.0808 Cl  0  0  0  0  0  0
   -2.9679    3.7986   19.6003 H   0  0  0  0  0  0
   -2.4359    2.1040   17.4761 H   0  0  0  0  0  0
   -3.5968    1.4243   15.4595 H   0  0  0  0  0  0
   -6.9440    0.1359   17.8141 H   0  0  0  0  0  0
   -5.7240    0.7122   19.8832 H   0  0  0  0  0  0
   -0.9340    3.0555   23.4841 H   0  0  0  0  0  0
   -2.8975    3.4224   24.5136 H   0  0  0  0  0  0
   -3.1966    1.6998   24.7733 H   0  0  0  0  0  0
   -1.0146    3.4652   25.8921 H   0  0  0  0  0  0
   -2.2164    2.7095   26.8794 H   0  0  0  0  0  0
    0.8407    2.3607   25.0968 H   0  0  0  0  0  0
    1.1321    0.6780   25.3650 H   0  0  0  0  0  0
   -0.5170    0.1621   23.5419 H   0  0  0  0  0  0
    0.5413    1.4632   23.0035 H   0  0  0  0  0  0
   -0.2800   -0.8738   28.6809 H   0  0  0  0  0  0
    0.4168   -1.5273   27.2797 H   0  0  0  0  0  0
   -2.2408   -0.8959   19.4301 H   0  0  0  0  0  0
   -2.0050   -3.3133   19.9685 H   0  0  0  0  0  0
   -2.8339   -2.6262   23.9772 H   0  0  0  0  0  0
   -3.1326   -0.2107   23.5880 H   0  0  0  0  0  0
  1  6  1  0  0  0
  1  2  2  0  0  0
  1 30  1  0  0  0
  2  3  1  0  0  0
  2 31  1  0  0  0
  3  4  2  0  0  0
  3 28  1  0  0  0
  4  5  1  0  0  0
  4 32  1  0  0  0
  5  6  2  0  0  0
  5 33  1  0  0  0
  6  7  1  0  0  0
  7 11  1  0  0  0
  7  8  2  0  0  0
  8  9  1  0  0  0
  8 22  1  0  0  0
  9 12  1  0  0  0
  9 10  2  0  0  0
 10 11  1  0  0  0
 11 29  1  0  0  0
 12 17  1  0  0  0
 12 13  1  0  0  0
 12 34  1  0  0  0
 13 14  1  0  0  0
 13 35  1  0  0  0
 13 36  1  0  0  0
 14 15  1  0  0  0
 14 37  1  0  0  0
 14 38  1  0  0  0
 15 16  1  0  0  0
 15 18  1  0  0  0
 16 17  1  0  0  0
 16 39  1  0  0  0
 16 40  1  0  0  0
 17 41  1  0  0  0
 17 42  1  0  0  0
 18 19  2  0  0  0
 18 20  2  0  0  0
 18 21  1  0  0  0
 21 43  1  0  0  0
 21 44  1  0  0  0
 22 27  1  0  0  0
 22 23  2  0  0  0
 23 24  1  0  0  0
 23 45  1  0  0  0
 24 25  2  0  0  0
 24 46  1  0  0  0
 25 26  1  0  0  0
 26 27  2  0  0  0
 26 47  1  0  0  0
 27 48  1  0  0  0
M  END
> <s_m_entry_id>
62673

> <s_m_entry_name>
ligand_docking-pose.333

> <s_m_Source_Path>
/home/csk/Desktop/cluster/DUD-E-result/mk14

> <s_m_Source_File>
ligand_docking-pose.sdf

> <i_m_Source_File_Index>
333

> <i_lp_mmshare_version>
53161

> <r_lp_tautomer_probability>
0.5

> <s_lp_Force_Field>
OPLS_2005

> <r_lp_Energy>
15.316388

> <b_lp_Chiralities_Consistent>
1

> <s_lp_Variant>
620952-2

> <s_i_glide_gridfile>
glide-grid_2qd9

> <i_i_glide_lignum>
200

> <i_i_glide_rotatable_bonds>
4

> <r_i_docking_score>
-7.21668627848977

> <r_i_glide_ligand_efficiency>
-0.257738795660349

> <r_i_glide_ligand_efficiency_sa>
-0.782646783657417

> <r_i_glide_ligand_efficiency_ln>
-1.66582308419182

> <r_i_glide_gscore>
-7.21668627848977

> <r_i_glide_lipo>
-3.59888071368753

> <r_i_glide_hbond>
-0.226358946934416

> <r_i_glide_metal>
0

> <r_i_glide_rewards>
-1.55740554904205

> <r_i_glide_evdw>
-37.8855285644531

> <r_i_glide_ecoul>
-1.63310396671295

> <r_i_glide_erotb>
0.339581840716056

> <r_i_glide_esite>
-0.0343808863122247

> <r_i_glide_emodel>
-50.3892273511283

> <r_i_glide_energy>
-39.5186325311661

> <r_i_glide_einternal>
7.14026832580566

> <i_i_glide_confnum>
22

> <i_i_glide_posenum>
302

> <r_i_glide_eff_state_penalty>
0

> <i_f3d_flags>
0

> <s_user_duplicate_titles>
620952

> <s_m_subgroup_title>
dock_pv

> <s_m_subgroupid>
dock_pv1

> <b_m_subgroup_collapsed>
0

$$$$
621084
                    3D
 Schrodinger Suite 2021-1.
 55 58  0  0  1  0            999 V2000
   -0.6033   -1.3883   27.2706 C   0  0  0  0  0  0
   -0.5083    0.1453   27.4538 C   0  0  0  0  0  0
   -1.5361    0.5153   28.5585 C   0  0  0  0  0  0
    0.9323    0.5067   27.9532 C   0  0  0  0  0  0
    1.1631    1.8908   28.1672 O   0  0  0  0  0  0
   -0.8582    0.7098   26.1132 N   0  0  1  0  0  0
   -1.5373    2.0131   26.0835 C   0  0  0  0  0  0
   -2.2244    2.2669   24.7261 C   0  0  0  0  0  0
   -1.3282    2.0174   23.4940 C   0  0  0  0  0  0
   -0.2222    0.9480   23.6805 C   0  0  0  0  0  0
    0.2466    0.7447   25.1369 C   0  0  0  0  0  0
   -2.0366    2.0770   22.1470 C   0  0  0  0  0  0
   -2.6952    1.1512   21.3270 C   0  0  0  0  0  0
   -3.1353    1.9002   20.2028 C   0  0  0  0  0  0
   -2.7229    3.1487   20.2758 N   0  0  0  0  0  0
   -2.0510    3.2322   21.4212 N   0  0  0  0  0  0
   -3.9128    1.4672   18.9954 C   0  0  0  0  0  0
   -3.3778    1.6870   17.7193 C   0  0  0  0  0  0
   -4.0631    1.3039   16.5803 C   0  0  0  0  0  0
   -5.3166    0.7312   16.7042 C   0  0  0  0  0  0
   -5.9077    0.5612   17.9627 C   0  0  0  0  0  0
   -5.1816    0.8868   19.1117 C   0  0  0  0  0  0
   -6.0336    0.0869   15.2814 Cl  0  0  0  0  0  0
   -2.7819   -0.3154   21.5771 C   0  0  0  0  0  0
   -2.4516   -1.2426   20.5815 C   0  0  0  0  0  0
   -2.2906   -2.5718   20.9840 C   0  0  0  0  0  0
   -2.4401   -2.9726   22.2742 N   0  0  0  0  0  0
   -2.8035   -2.0028   23.1534 C   0  0  0  0  0  0
   -2.9947   -0.6911   22.8681 N   0  0  0  0  0  0
   -1.5624    4.0715   21.6944 H   0  0  0  0  0  0
   -0.4514   -1.9115   28.2143 H   0  0  0  0  0  0
   -1.5820   -1.6868   26.8925 H   0  0  0  0  0  0
    0.1318   -1.7725   26.5647 H   0  0  0  0  0  0
   -1.3307   -0.0148   29.4894 H   0  0  0  0  0  0
   -1.5171    1.5795   28.7928 H   0  0  0  0  0  0
   -2.5548    0.2644   28.2608 H   0  0  0  0  0  0
    1.6874    0.1290   27.2694 H   0  0  0  0  0  0
    1.1362    0.0005   28.8977 H   0  0  0  0  0  0
    2.1222    2.0212   28.2596 H   0  0  0  0  0  0
   -2.3568    2.0184   26.7999 H   0  0  0  0  0  0
   -0.8635    2.8160   26.3894 H   0  0  0  0  0  0
   -3.0917    1.6043   24.6990 H   0  0  0  0  0  0
   -2.5920    3.2940   24.7283 H   0  0  0  0  0  0
   -0.6831    2.8914   23.6127 H   0  0  0  0  0  0
    0.6517    1.1885   23.0759 H   0  0  0  0  0  0
   -0.5646   -0.0326   23.3596 H   0  0  0  0  0  0
    1.0100    1.4711   25.4226 H   0  0  0  0  0  0
    0.7470   -0.2243   25.1559 H   0  0  0  0  0  0
   -2.4358    2.1833   17.5735 H   0  0  0  0  0  0
   -3.6162    1.4411   15.6058 H   0  0  0  0  0  0
   -6.8799    0.0958   18.0473 H   0  0  0  0  0  0
   -5.6131    0.7127   20.0863 H   0  0  0  0  0  0
   -2.2590   -0.9390   19.5629 H   0  0  0  0  0  0
   -2.0156   -3.3362   20.2713 H   0  0  0  0  0  0
   -2.9315   -2.2909   24.1861 H   0  0  0  0  0  0
  1  2  1  0  0  0
  1 31  1  0  0  0
  1 32  1  0  0  0
  1 33  1  0  0  0
  2  3  1  0  0  0
  2  4  1  0  0  0
  2  6  1  0  0  0
  3 34  1  0  0  0
  3 35  1  0  0  0
  3 36  1  0  0  0
  4  5  1  0  0  0
  4 37  1  0  0  0
  4 38  1  0  0  0
  5 39  1  0  0  0
  6 11  1  0  0  0
  6  7  1  0  0  0
  7  8  1  0  0  0
  7 40  1  0  0  0
  7 41  1  0  0  0
  8  9  1  0  0  0
  8 42  1  0  0  0
  8 43  1  0  0  0
  9 10  1  0  0  0
  9 12  1  0  0  0
  9 44  1  0  0  0
 10 11  1  0  0  0
 10 45  1  0  0  0
 10 46  1  0  0  0
 11 47  1  0  0  0
 11 48  1  0  0  0
 12 16  1  0  0  0
 12 13  2  0  0  0
 13 14  1  0  0  0
 13 24  1  0  0  0
 14 15  2  0  0  0
 14 17  1  0  0  0
 15 16  1  0  0  0
 16 30  1  0  0  0
 17 22  1  0  0  0
 17 18  2  0  0  0
 18 19  1  0  0  0
 18 49  1  0  0  0
 19 20  2  0  0  0
 19 50  1  0  0  0
 20 21  1  0  0  0
 20 23  1  0  0  0
 21 22  2  0  0  0
 21 51  1  0  0  0
 22 52  1  0  0  0
 24 29  1  0  0  0
 24 25  2  0  0  0
 25 26  1  0  0  0
 25 53  1  0  0  0
 26 27  2  0  0  0
 26 54  1  0  0  0
 27 28  1  0  0  0
 28 29  2  0  0  0
 28 55  1  0  0  0
M  END
> <s_m_entry_id>
62675

> <s_m_entry_name>
ligand_docking-pose.335

> <s_m_Source_Path>
/home/csk/Desktop/cluster/DUD-E-result/mk14

> <s_m_Source_File>
ligand_docking-pose.sdf

> <i_m_Source_File_Index>
335

> <i_lp_mmshare_version>
53161

> <r_lp_tautomer_probability>
0.5

> <s_lp_Force_Field>
OPLS_2005

> <r_lp_Energy>
50.333888

> <b_lp_Chiralities_Consistent>
1

> <s_lp_Variant>
621084-1

> <s_i_glide_gridfile>
glide-grid_2qd9

> <i_i_glide_lignum>
1813

> <i_i_glide_rotatable_bonds>
6

> <r_i_docking_score>
-7.21388874064882

> <r_i_glide_ligand_efficiency>
-0.248754784160304

> <r_i_glide_ligand_efficiency_sa>
-0.764253507987731

> <r_i_glide_ligand_efficiency_ln>
-1.65179759317361

> <r_i_glide_gscore>
-7.21388874064882

> <r_i_glide_lipo>
-3.34724028952754

> <r_i_glide_hbond>
-0.333151979314267

> <r_i_glide_metal>
0

> <r_i_glide_rewards>
-1.70930340110214

> <r_i_glide_evdw>
-33.3501510620117

> <r_i_glide_ecoul>
-4.65800094604492

> <r_i_glide_erotb>
0.580907464246856

> <r_i_glide_esite>
-0.0388928399444053

> <r_i_glide_emodel>
-45.1014094286027

> <r_i_glide_energy>
-38.0081520080566

> <r_i_glide_einternal>
9.85283374786377

> <i_i_glide_confnum>
287

> <i_i_glide_posenum>
318

> <r_i_glide_eff_state_penalty>
0

> <i_f3d_flags>
0

> <s_user_duplicate_titles>
621084

> <s_m_subgroup_title>
dock_pv

> <s_m_subgroupid>
dock_pv1

> <b_m_subgroup_collapsed>
0

$$$$
621014
                    3D
 Schrodinger Suite 2021-1.
 48 51  0  0  1  0            999 V2000
    0.5894    5.7350   25.0408 C   0  0  0  0  0  0
   -0.7450    5.0455   25.3347 C   0  0  0  0  0  0
   -1.7426    5.7573   25.4712 O   0  0  0  0  0  0
   -0.7520    3.7090   25.5798 N   0  0  0  0  0  0
    0.2646    2.8097   25.0161 C   0  0  0  0  0  0
   -0.1900    2.4397   23.5836 C   0  0  0  0  0  0
   -1.6964    2.0649   23.4439 C   0  0  0  0  0  0
   -2.6638    2.6058   24.5391 C   0  0  0  0  0  0
   -2.0019    2.9993   25.8814 C   0  0  0  0  0  0
   -2.2713    2.0859   22.0371 C   0  0  0  0  0  0
   -2.8010    1.1334   21.1633 C   0  0  0  0  0  0
   -3.2350    1.8838   20.0365 C   0  0  0  0  0  0
   -2.8350    3.1346   20.1161 N   0  0  0  0  0  0
   -2.2641    3.2370   21.3075 N   0  0  0  0  0  0
   -3.9659    1.4551   18.8109 C   0  0  0  0  0  0
   -5.2390    0.8871   18.9023 C   0  0  0  0  0  0
   -5.9440    0.5779   17.7387 C   0  0  0  0  0  0
   -5.3226    0.7387   16.4970 C   0  0  0  0  0  0
   -4.0614    1.3086   16.3980 C   0  0  0  0  0  0
   -3.3959    1.6867   17.5540 C   0  0  0  0  0  0
   -6.0350    0.0870   15.0760 Cl  0  0  0  0  0  0
   -2.7892   -0.3414   21.3883 C   0  0  0  0  0  0
   -2.3876   -1.1934   20.3526 C   0  0  0  0  0  0
   -2.1598   -2.5404   20.6405 C   0  0  0  0  0  0
   -2.3169   -3.0709   21.8788 N   0  0  0  0  0  0
   -2.7426   -2.2433   22.8637 C   0  0  0  0  0  0
   -3.0120   -0.8901   22.6575 C   0  0  0  0  0  0
   -1.8223    4.0872   21.6181 H   0  0  0  0  0  0
    0.9058    5.5367   24.0168 H   0  0  0  0  0  0
    1.3664    5.3878   25.7223 H   0  0  0  0  0  0
    0.4988    6.8144   25.1659 H   0  0  0  0  0  0
    1.2783    3.2061   25.0929 H   0  0  0  0  0  0
    0.2981    1.9206   25.6479 H   0  0  0  0  0  0
   -0.0034    3.3451   23.0055 H   0  0  0  0  0  0
    0.4582    1.6591   23.1814 H   0  0  0  0  0  0
   -1.6010    1.0479   23.8219 H   0  0  0  0  0  0
   -3.4951    1.9231   24.7220 H   0  0  0  0  0  0
   -3.0894    3.5418   24.1754 H   0  0  0  0  0  0
   -1.7415    2.1095   26.4566 H   0  0  0  0  0  0
   -2.6383    3.5716   26.5591 H   0  0  0  0  0  0
   -5.6932    0.7151   19.8675 H   0  0  0  0  0  0
   -6.9200    0.1188   17.8059 H   0  0  0  0  0  0
   -3.5928    1.4397   15.4327 H   0  0  0  0  0  0
   -2.4349    2.1615   17.4637 H   0  0  0  0  0  0
   -2.2002   -0.8133   19.3592 H   0  0  0  0  0  0
   -1.8327   -3.2235   19.8706 H   0  0  0  0  0  0
   -2.8351   -2.6781   23.8471 H   0  0  0  0  0  0
   -3.3330   -0.2748   23.4836 H   0  0  0  0  0  0
  1  2  1  0  0  0
  1 29  1  0  0  0
  1 30  1  0  0  0
  1 31  1  0  0  0
  2  3  2  0  0  0
  2  4  1  0  0  0
  4  9  1  0  0  0
  4  5  1  0  0  0
  5  6  1  0  0  0
  5 32  1  0  0  0
  5 33  1  0  0  0
  6  7  1  0  0  0
  6 34  1  0  0  0
  6 35  1  0  0  0
  7  8  1  0  0  0
  7 10  1  0  0  0
  7 36  1  0  0  0
  8  9  1  0  0  0
  8 37  1  0  0  0
  8 38  1  0  0  0
  9 39  1  0  0  0
  9 40  1  0  0  0
 10 14  1  0  0  0
 10 11  2  0  0  0
 11 12  1  0  0  0
 11 22  1  0  0  0
 12 13  2  0  0  0
 12 15  1  0  0  0
 13 14  1  0  0  0
 14 28  1  0  0  0
 15 20  1  0  0  0
 15 16  2  0  0  0
 16 17  1  0  0  0
 16 41  1  0  0  0
 17 18  2  0  0  0
 17 42  1  0  0  0
 18 19  1  0  0  0
 18 21  1  0  0  0
 19 20  2  0  0  0
 19 43  1  0  0  0
 20 44  1  0  0  0
 22 27  1  0  0  0
 22 23  2  0  0  0
 23 24  1  0  0  0
 23 45  1  0  0  0
 24 25  2  0  0  0
 24 46  1  0  0  0
 25 26  1  0  0  0
 26 27  2  0  0  0
 26 47  1  0  0  0
 27 48  1  0  0  0
M  END
> <s_m_entry_id>
62678

> <s_m_entry_name>
ligand_docking-pose.338

> <s_m_Source_Path>
/home/csk/Desktop/cluster/DUD-E-result/mk14

> <s_m_Source_File>
ligand_docking-pose.sdf

> <i_m_Source_File_Index>
338

> <i_lp_mmshare_version>
53161

> <r_lp_tautomer_probability>
0.5

> <s_lp_Force_Field>
OPLS_2005

> <r_lp_Energy>
35.451566

> <b_lp_Chiralities_Consistent>
1

> <s_lp_Variant>
621014-1

> <s_i_glide_gridfile>
glide-grid_2qd9

> <i_i_glide_lignum>
2228

> <i_i_glide_rotatable_bonds>
4

> <r_i_docking_score>
-7.18749149711807

> <r_i_glide_ligand_efficiency>
-0.266203388782151

> <r_i_glide_ligand_efficiency_sa>
-0.79861016546909

> <r_i_glide_ligand_efficiency_ln>
-1.67312952547087

> <r_i_glide_gscore>
-7.18749149711807

> <r_i_glide_lipo>
-3.61762912710197

> <r_i_glide_hbond>
-0.178817075000999

> <r_i_glide_metal>
0

> <r_i_glide_rewards>
-1.60999900946133

> <r_i_glide_evdw>
-33.5511169433594

> <r_i_glide_ecoul>
-2.84357905387878

> <r_i_glide_erotb>
0.401312044922137

> <r_i_glide_esite>
-0.0782656252261187

> <r_i_glide_emodel>
-42.4210458465494

> <r_i_glide_energy>
-36.3946959972382

> <r_i_glide_einternal>
3.78954839706421

> <i_i_glide_confnum>
12

> <i_i_glide_posenum>
59

> <r_i_glide_eff_state_penalty>
0

> <i_f3d_flags>
0

> <s_user_duplicate_titles>
621014

> <s_m_subgroup_title>
dock_pv

> <s_m_subgroupid>
dock_pv1

> <b_m_subgroup_collapsed>
0

$$$$
340597
                    3D
 Schrodinger Suite 2021-1.
 37 39  0  0  1  0            999 V2000
   -1.6302   -1.4982   28.5344 C   0  0  0  0  0  0
   -0.7669   -1.5129   27.4029 O   0  0  0  0  0  0
   -1.2931   -1.3093   26.1449 C   0  0  0  0  0  0
   -0.4304   -1.5239   25.0691 C   0  0  0  0  0  0
   -0.8545   -1.3023   23.7625 C   0  0  0  0  0  0
   -2.1516   -0.8404   23.5393 C   0  0  0  0  0  0
   -3.0343   -0.6440   24.6019 C   0  0  0  0  0  0
   -2.6090   -0.8888   25.9027 C   0  0  0  0  0  0
   -2.5532   -0.4712   22.2454 N   0  0  0  0  0  0
   -2.7257    0.8093   21.7613 C   0  0  0  0  0  0
   -3.1955    0.6595   20.4602 C   0  0  0  0  0  0
   -3.2344   -0.7318   20.2760 C   0  0  0  0  0  0
   -2.8403   -1.4077   21.3314 N   0  0  0  0  0  0
   -3.5179    1.7250   19.5105 C   0  0  0  0  0  0
   -3.2235    2.8877   19.7828 O   0  0  0  0  0  0
   -4.0336    1.3853   18.1587 C   0  0  0  0  0  0
   -3.2767    1.6850   17.0150 C   0  0  0  0  0  0
   -3.8000    1.4402   15.7498 C   0  0  0  0  0  0
   -5.0845    0.9233   15.6224 C   0  0  0  0  0  0
   -5.8511    0.6595   16.7510 C   0  0  0  0  0  0
   -5.3305    0.8870   18.0219 C   0  0  0  0  0  0
   -2.4350    1.9233   22.5073 N   0  0  0  0  0  0
   -1.0564   -1.7573   29.4246 H   0  0  0  0  0  0
   -2.0611   -0.5092   28.6959 H   0  0  0  0  0  0
   -2.4339   -2.2299   28.4360 H   0  0  0  0  0  0
    0.5837   -1.8465   25.2548 H   0  0  0  0  0  0
   -0.1653   -1.4414   22.9415 H   0  0  0  0  0  0
   -4.0349   -0.2770   24.4264 H   0  0  0  0  0  0
   -3.3016   -0.7157   26.7113 H   0  0  0  0  0  0
   -3.5348   -1.2429   19.3760 H   0  0  0  0  0  0
   -2.2882    2.1155   17.0760 H   0  0  0  0  0  0
   -3.2148    1.6588   14.8689 H   0  0  0  0  0  0
   -5.4925    0.7259   14.6429 H   0  0  0  0  0  0
   -6.8350    0.2364   16.6446 H   0  0  0  0  0  0
   -5.9422    0.6719   18.8878 H   0  0  0  0  0  0
   -2.4866    2.8399   22.0879 H   0  0  0  0  0  0
   -2.0422    1.8536   23.4362 H   0  0  0  0  0  0
  1  2  1  0  0  0
  1 23  1  0  0  0
  1 24  1  0  0  0
  1 25  1  0  0  0
  2  3  1  0  0  0
  3  8  1  0  0  0
  3  4  2  0  0  0
  4  5  1  0  0  0
  4 26  1  0  0  0
  5  6  2  0  0  0
  5 27  1  0  0  0
  6  7  1  0  0  0
  6  9  1  0  0  0
  7  8  2  0  0  0
  7 28  1  0  0  0
  8 29  1  0  0  0
  9 13  1  0  0  0
  9 10  1  0  0  0
 10 11  2  0  0  0
 10 22  1  0  0  0
 11 12  1  0  0  0
 11 14  1  0  0  0
 12 13  2  0  0  0
 12 30  1  0  0  0
 14 15  2  0  0  0
 14 16  1  0  0  0
 16 21  1  0  0  0
 16 17  2  0  0  0
 17 18  1  0  0  0
 17 31  1  0  0  0
 18 19  2  0  0  0
 18 32  1  0  0  0
 19 20  1  0  0  0
 19 33  1  0  0  0
 20 21  2  0  0  0
 20 34  1  0  0  0
 21 35  1  0  0  0
 22 36  1  0  0  0
 22 37  1  0  0  0
M  END
> <s_m_entry_id>
62679

> <s_m_entry_name>
ligand_docking-pose.339

> <s_m_Source_Path>
/home/csk/Desktop/cluster/DUD-E-result/mk14

> <s_m_Source_File>
ligand_docking-pose.sdf

> <i_m_Source_File_Index>
339

> <i_lp_mmshare_version>
53161

> <r_lp_tautomer_probability>
1

> <s_lp_Force_Field>
OPLS_2005

> <r_lp_Energy>
28.156633

> <b_lp_Chiralities_Consistent>
1

> <s_lp_Variant>
340597-1

> <s_i_glide_gridfile>
glide-grid_2qd9

> <i_i_glide_lignum>
2533

> <i_i_glide_rotatable_bonds>
4

> <r_i_docking_score>
-7.18631850049903

> <r_i_glide_ligand_efficiency>
-0.326650840931774

> <r_i_glide_ligand_efficiency_sa>
-0.915288502739423

> <r_i_glide_ligand_efficiency_ln>
-1.75659836885824

> <r_i_glide_gscore>
-7.18631850049903

> <r_i_glide_lipo>
-3.38683642483056

> <r_i_glide_hbond>
0

> <r_i_glide_metal>
0

> <r_i_glide_rewards>
-2.11704289456517

> <r_i_glide_evdw>
-36.7452735900879

> <r_i_glide_ecoul>
-3.21509456634521

> <r_i_glide_erotb>
0.637088683352874

> <r_i_glide_esite>
0

> <r_i_glide_emodel>
-52.0363415235145

> <r_i_glide_energy>
-39.9603681564331

> <r_i_glide_einternal>
7.63989734649658

> <i_i_glide_confnum>
2

> <i_i_glide_posenum>
310

> <r_i_glide_eff_state_penalty>
0

> <i_f3d_flags>
0

> <s_user_duplicate_titles>
340597

> <s_m_subgroup_title>
dock_pv

> <s_m_subgroupid>
dock_pv1

> <b_m_subgroup_collapsed>
0

$$$$
621015
                    3D
 Schrodinger Suite 2021-1.
 49 52  0  0  1  0            999 V2000
   -5.2677    0.8870   18.8880 C   0  0  0  0  0  0
   -5.9678    0.5890   17.7177 C   0  0  0  0  0  0
   -5.3336    0.7416   16.4801 C   0  0  0  0  0  0
   -4.0659    1.3006   16.3962 C   0  0  0  0  0  0
   -3.4024    1.6593   17.5605 C   0  0  0  0  0  0
   -3.9775    1.4161   18.8116 C   0  0  0  0  0  0
   -3.2403    1.7798   20.0540 C   0  0  0  0  0  0
   -2.7686    1.0837   21.1748 C   0  0  0  0  0  0
   -2.2395    2.0799   22.0400 C   0  0  0  0  0  0
   -2.2370    3.2531   21.4476 N   0  0  0  0  0  0
   -2.8342    3.0618   20.2758 N   0  0  0  0  0  0
   -1.6276    1.9635   23.4406 C   0  0  0  0  0  0
   -0.0847    1.9912   23.4809 C   0  0  0  0  0  0
    0.5056    1.8417   24.8985 C   0  0  0  0  0  0
   -0.1190    2.8657   25.7572 N   0  0  0  0  0  0
   -1.5855    2.7452   25.8976 C   0  0  0  0  0  0
   -2.2220    2.9242   24.4981 C   0  0  0  0  0  0
    0.5922    3.6929   26.5745 C   0  0  0  0  0  0
    0.0284    4.4071   27.4111 O   0  0  0  0  0  0
    2.1228    3.8403   26.3691 C   0  0  0  0  0  0
    2.7389    4.4871   27.4762 O   0  0  0  0  0  0
   -2.7263   -0.3905   21.3949 C   0  0  0  0  0  0
   -2.2581   -1.2218   20.3696 C   0  0  0  0  0  0
   -2.0207   -2.5688   20.6480 C   0  0  0  0  0  0
   -2.2150   -3.1129   21.8759 N   0  0  0  0  0  0
   -2.7099   -2.3079   22.8468 C   0  0  0  0  0  0
   -3.0103   -0.9623   22.6400 C   0  0  0  0  0  0
   -6.0380    0.0921   15.0495 Cl  0  0  0  0  0  0
   -2.9514    3.8089   19.6121 H   0  0  0  0  0  0
   -5.7308    0.7106   19.8486 H   0  0  0  0  0  0
   -6.9493    0.1407   17.7773 H   0  0  0  0  0  0
   -3.5877    1.4318   15.4353 H   0  0  0  0  0  0
   -2.4351    2.1167   17.4755 H   0  0  0  0  0  0
   -1.8474    0.9875   23.8611 H   0  0  0  0  0  0
    0.3013    2.9244   23.0682 H   0  0  0  0  0  0
    0.3107    1.1452   22.9235 H   0  0  0  0  0  0
    1.5908    1.9037   24.8221 H   0  0  0  0  0  0
    0.2523    0.8605   25.3044 H   0  0  0  0  0  0
   -1.8040    1.7458   26.2777 H   0  0  0  0  0  0
   -2.0116    3.4641   26.5993 H   0  0  0  0  0  0
   -3.2903    2.7375   24.6146 H   0  0  0  0  0  0
   -2.0705    3.9619   24.1998 H   0  0  0  0  0  0
    2.3138    4.4096   25.4595 H   0  0  0  0  0  0
    2.6083    2.8711   26.2762 H   0  0  0  0  0  0
    3.1659    3.7973   28.0034 H   0  0  0  0  0  0
   -2.0361   -0.8246   19.3907 H   0  0  0  0  0  0
   -1.6502   -3.2350   19.8798 H   0  0  0  0  0  0
   -2.8350   -2.7512   23.8222 H   0  0  0  0  0  0
   -3.4082   -0.3725   23.4508 H   0  0  0  0  0  0
  1  6  1  0  0  0
  1  2  2  0  0  0
  1 30  1  0  0  0
  2  3  1  0  0  0
  2 31  1  0  0  0
  3  4  2  0  0  0
  3 28  1  0  0  0
  4  5  1  0  0  0
  4 32  1  0  0  0
  5  6  2  0  0  0
  5 33  1  0  0  0
  6  7  1  0  0  0
  7 11  1  0  0  0
  7  8  2  0  0  0
  8  9  1  0  0  0
  8 22  1  0  0  0
  9 12  1  0  0  0
  9 10  2  0  0  0
 10 11  1  0  0  0
 11 29  1  0  0  0
 12 17  1  0  0  0
 12 13  1  0  0  0
 12 34  1  0  0  0
 13 14  1  0  0  0
 13 35  1  0  0  0
 13 36  1  0  0  0
 14 15  1  0  0  0
 14 37  1  0  0  0
 14 38  1  0  0  0
 15 16  1  0  0  0
 15 18  1  0  0  0
 16 17  1  0  0  0
 16 39  1  0  0  0
 16 40  1  0  0  0
 17 41  1  0  0  0
 17 42  1  0  0  0
 18 19  2  0  0  0
 18 20  1  0  0  0
 20 21  1  0  0  0
 20 43  1  0  0  0
 20 44  1  0  0  0
 21 45  1  0  0  0
 22 27  1  0  0  0
 22 23  2  0  0  0
 23 24  1  0  0  0
 23 46  1  0  0  0
 24 25  2  0  0  0
 24 47  1  0  0  0
 25 26  1  0  0  0
 26 27  2  0  0  0
 26 48  1  0  0  0
 27 49  1  0  0  0
M  END
> <s_m_entry_id>
62681

> <s_m_entry_name>
ligand_docking-pose.341

> <s_m_Source_Path>
/home/csk/Desktop/cluster/DUD-E-result/mk14

> <s_m_Source_File>
ligand_docking-pose.sdf

> <i_m_Source_File_Index>
341

> <i_lp_mmshare_version>
53161

> <r_lp_tautomer_probability>
0.5

> <s_lp_Force_Field>
OPLS_2005

> <r_lp_Energy>
33.86417

> <b_lp_Chiralities_Consistent>
1

> <s_lp_Variant>
621015-2

> <s_i_glide_gridfile>
glide-grid_2qd9

> <i_i_glide_lignum>
196

> <i_i_glide_rotatable_bonds>
6

> <r_i_docking_score>
-7.18401314595117

> <r_i_glide_ligand_efficiency>
-0.256571898069685

> <r_i_glide_ligand_efficiency_sa>
-0.779103395306234

> <r_i_glide_ligand_efficiency_ln>
-1.65828116587706

> <r_i_glide_gscore>
-7.18401314595117

> <r_i_glide_lipo>
-3.66781863657561

> <r_i_glide_hbond>
-0.212506641788911

> <r_i_glide_metal>
0

> <r_i_glide_rewards>
-1.63191305510057

> <r_i_glide_evdw>
-33.9140968322754

> <r_i_glide_ecoul>
-3.54050803184509

> <r_i_glide_erotb>
0.621220177816655

> <r_i_glide_esite>
-0.066213943912215

> <r_i_glide_emodel>
-42.4946052212091

> <r_i_glide_energy>
-37.4546048641205

> <r_i_glide_einternal>
6.51827526092529

> <i_i_glide_confnum>
81

> <i_i_glide_posenum>
3

> <r_i_glide_eff_state_penalty>
0

> <i_f3d_flags>
0

> <s_user_duplicate_titles>
621015

> <s_m_subgroup_title>
dock_pv

> <s_m_subgroupid>
dock_pv1

> <b_m_subgroup_collapsed>
0

$$$$
620839
                    3D
 Schrodinger Suite 2021-1.
 52 56  0  0  1  0            999 V2000
    0.9404    0.3865   23.5036 C   0  0  0  0  0  0
   -0.0262   -0.0382   24.6006 C   0  0  0  0  0  0
    0.5008   -0.3358   25.8557 C   0  0  0  0  0  0
   -0.3171   -0.7980   26.8780 C   0  0  0  0  0  0
   -1.6893   -0.9805   26.6646 C   0  0  0  0  0  0
   -2.2190   -0.6696   25.4046 C   0  0  0  0  0  0
   -1.4125   -0.1803   24.3705 C   0  0  0  0  0  0
   -2.0497    0.2424   23.0951 C   0  0  0  0  0  0
   -1.9660    1.5578   22.7827 C   0  0  0  0  0  0
   -2.4188    2.0332   21.5040 C   0  0  0  0  0  0
   -2.2944    3.2096   20.7810 C   0  0  0  0  0  0
   -2.8350    3.1084   19.6032 N   0  0  0  0  0  0
   -3.2908    1.8425   19.5050 N   0  0  0  0  0  0
   -2.9950    1.1089   20.6501 C   0  0  0  0  0  0
   -3.0895   -0.2597   20.9703 N   0  0  0  0  0  0
   -2.6662   -0.7516   22.1917 C   0  0  0  0  0  0
   -2.7821   -1.9378   22.5220 O   0  0  0  0  0  0
   -3.4852   -1.2276   19.9398 C   0  0  0  0  0  0
   -3.9075    1.4846   18.2896 C   0  0  0  0  0  0
   -3.2213    1.6865   17.0822 C   0  0  0  0  0  0
   -3.8121    1.3614   15.8691 C   0  0  0  0  0  0
   -5.1105    0.8728   15.8475 C   0  0  0  0  0  0
   -5.8326    0.7504   17.0329 C   0  0  0  0  0  0
   -5.2300    1.0303   18.2588 C   0  0  0  0  0  0
   -5.9372    0.8799   19.4034 F   0  0  0  0  0  0
   -5.6428    0.4740   14.6761 F   0  0  0  0  0  0
   -2.5875   -1.5292   27.7444 C   0  0  0  0  0  0
   -3.6351   -2.1027   27.4435 O   0  0  0  0  0  0
   -2.1548   -1.3616   29.0103 N   0  0  0  0  0  0
   -2.6907   -1.9002   30.2649 C   0  0  0  0  0  0
   -4.1743   -2.1370   30.4435 C   0  0  0  0  0  0
   -3.2348   -3.3138   30.3262 C   0  0  0  0  0  0
    1.9782    0.3977   23.8398 H   0  0  0  0  0  0
    0.8682   -0.3176   22.6780 H   0  0  0  0  0  0
    0.7110    1.3811   23.1203 H   0  0  0  0  0  0
    1.5623   -0.2388   26.0416 H   0  0  0  0  0  0
    0.1440   -1.0443   27.8249 H   0  0  0  0  0  0
   -3.2786   -0.7888   25.2257 H   0  0  0  0  0  0
   -1.4819    2.2422   23.4665 H   0  0  0  0  0  0
   -1.7379    4.0864   21.0722 H   0  0  0  0  0  0
   -2.7417   -1.2472   19.1415 H   0  0  0  0  0  0
   -3.5949   -2.2486   20.3112 H   0  0  0  0  0  0
   -4.4465   -0.9748   19.5050 H   0  0  0  0  0  0
   -2.2124    2.0710   17.0729 H   0  0  0  0  0  0
   -3.2616    1.4683   14.9466 H   0  0  0  0  0  0
   -6.8350    0.3567   17.0145 H   0  0  0  0  0  0
   -1.3154   -0.8126   29.1180 H   0  0  0  0  0  0
   -2.1294   -1.5511   31.1287 H   0  0  0  0  0  0
   -4.8348   -1.9130   29.6153 H   0  0  0  0  0  0
   -4.6296   -1.9028   31.4041 H   0  0  0  0  0  0
   -3.0002   -3.9151   31.2036 H   0  0  0  0  0  0
   -3.2364   -3.9134   29.4158 H   0  0  0  0  0  0
  1  2  1  0  0  0
  1 33  1  0  0  0
  1 34  1  0  0  0
  1 35  1  0  0  0
  2  7  1  0  0  0
  2  3  2  0  0  0
  3  4  1  0  0  0
  3 36  1  0  0  0
  4  5  2  0  0  0
  4 37  1  0  0  0
  5  6  1  0  0  0
  5 27  1  0  0  0
  6  7  2  0  0  0
  6 38  1  0  0  0
  7  8  1  0  0  0
  8 16  1  0  0  0
  8  9  2  0  0  0
  9 10  1  0  0  0
  9 39  1  0  0  0
 10 14  2  0  0  0
 10 11  1  0  0  0
 11 12  2  0  0  0
 11 40  1  0  0  0
 12 13  1  0  0  0
 13 14  1  0  0  0
 13 19  1  0  0  0
 14 15  1  0  0  0
 15 16  1  0  0  0
 15 18  1  0  0  0
 16 17  2  0  0  0
 18 41  1  0  0  0
 18 42  1  0  0  0
 18 43  1  0  0  0
 19 24  1  0  0  0
 19 20  2  0  0  0
 20 21  1  0  0  0
 20 44  1  0  0  0
 21 22  2  0  0  0
 21 45  1  0  0  0
 22 23  1  0  0  0
 22 26  1  0  0  0
 23 24  2  0  0  0
 23 46  1  0  0  0
 24 25  1  0  0  0
 27 28  2  0  0  0
 27 29  1  0  0  0
 29 30  1  0  0  0
 29 47  1  0  0  0
 30 32  1  0  0  0
 30 31  1  0  0  0
 30 48  1  0  0  0
 31 32  1  0  0  0
 31 49  1  0  0  0
 31 50  1  0  0  0
 32 51  1  0  0  0
 32 52  1  0  0  0
M  END
> <s_m_entry_id>
62686

> <s_m_entry_name>
ligand_docking-pose.346

> <s_m_Source_Path>
/home/csk/Desktop/cluster/DUD-E-result/mk14

> <s_m_Source_File>
ligand_docking-pose.sdf

> <i_m_Source_File_Index>
346

> <i_lp_mmshare_version>
53161

> <r_lp_tautomer_probability>
1

> <s_lp_Force_Field>
OPLS_2005

> <r_lp_Energy>
58.372964

> <b_lp_Chiralities_Consistent>
1

> <s_lp_Variant>
620839-1

> <s_i_glide_gridfile>
glide-grid_2qd9

> <i_i_glide_lignum>
704

> <i_i_glide_rotatable_bonds>
5

> <r_i_docking_score>
-7.16672937057676

> <r_i_glide_ligand_efficiency>
-0.223960292830524

> <r_i_glide_ligand_efficiency_sa>
-0.711029608055146

> <r_i_glide_ligand_efficiency_ln>
-1.60482606373648

> <r_i_glide_gscore>
-7.16672937057676

> <r_i_glide_lipo>
-3.18751352293163

> <r_i_glide_hbond>
0

> <r_i_glide_metal>
0

> <r_i_glide_rewards>
-2.22510910046037

> <r_i_glide_evdw>
-39.198371887207

> <r_i_glide_ecoul>
-2.14530420303345

> <r_i_glide_erotb>
0.527607477630602

> <r_i_glide_esite>
0

> <r_i_glide_emodel>
-46.1992234127097

> <r_i_glide_energy>
-41.3436760902405

> <r_i_glide_einternal>
3.97252559661865

> <i_i_glide_confnum>
120

> <i_i_glide_posenum>
207

> <r_i_glide_eff_state_penalty>
0

> <i_f3d_flags>
0

> <s_user_duplicate_titles>
620839

> <s_m_subgroup_title>
dock_pv

> <s_m_subgroupid>
dock_pv1

> <b_m_subgroup_collapsed>
0

$$$$
193755
                    3D
 Schrodinger Suite 2021-1.
 52 56  0  0  1  0            999 V2000
    0.9731   -0.6082   24.5339 C   0  0  0  0  0  0
    0.0759   -1.7039   25.1587 C   0  0  1  0  0  0
   -0.8721   -1.2631   26.2858 C   0  0  0  0  0  0
   -2.1753   -1.7703   26.3953 C   0  0  0  0  0  0
   -2.9451   -1.4936   27.5180 C   0  0  0  0  0  0
   -2.4346   -0.6771   28.5234 C   0  0  0  0  0  0
   -1.1554   -0.1410   28.4180 C   0  0  0  0  0  0
   -0.3746   -0.4406   27.3064 C   0  0  0  0  0  0
   -0.4961   -2.6340   24.1720 N   0  0  0  0  0  0
   -1.3634   -2.2361   23.1443 C   0  0  0  0  0  0
   -1.6280   -3.1330   22.1664 N   0  0  0  0  0  0
   -2.2800   -2.6582   21.0734 C   0  0  0  0  0  0
   -2.6647   -1.3249   20.9427 C   0  0  0  0  0  0
   -2.3936   -0.4783   22.0226 C   0  0  0  0  0  0
   -1.7845   -0.9580   23.1295 N   0  0  0  0  0  0
   -2.4745    1.0181   21.9831 C   0  0  0  0  0  0
   -2.8350    1.9077   20.9473 C   0  0  0  0  0  0
   -2.4015    3.1333   21.1760 N   0  0  0  0  0  0
   -1.8658    3.0962   22.4260 C   0  0  0  0  0  0
   -2.0604    1.8476   23.0186 N   0  0  0  0  0  0
   -1.7541    1.6724   24.3529 C   0  0  0  0  0  0
   -1.1534    2.7112   25.0551 C   0  0  0  0  0  0
   -0.8835    3.8824   24.3655 C   0  0  0  0  0  0
   -1.2349    4.0863   23.0762 N   0  0  0  0  0  0
   -0.2301    4.9238   25.0024 N   0  0  0  0  0  0
   -3.6196    1.6107   19.6995 C   0  0  0  0  0  0
   -4.7872    0.8476   19.8032 C   0  0  0  0  0  0
   -5.5278    0.5116   18.6771 C   0  0  0  0  0  0
   -5.0789    0.9123   17.4210 C   0  0  0  0  0  0
   -3.9261    1.6849   17.2958 C   0  0  0  0  0  0
   -3.2360    2.0868   18.4407 C   0  0  0  0  0  0
    0.7643   -2.3128   25.7214 H   0  0  0  0  0  0
    1.5386   -0.0603   25.2850 H   0  0  0  0  0  0
    1.7070   -1.0532   23.8623 H   0  0  0  0  0  0
    0.4162    0.1239   23.9549 H   0  0  0  0  0  0
   -2.5886   -2.4231   25.6416 H   0  0  0  0  0  0
   -3.9362   -1.9128   27.6105 H   0  0  0  0  0  0
   -3.0330   -0.4644   29.3972 H   0  0  0  0  0  0
   -0.7574    0.4798   29.2079 H   0  0  0  0  0  0
    0.6358   -0.0600   27.2734 H   0  0  0  0  0  0
   -0.0842   -3.5525   24.1189 H   0  0  0  0  0  0
   -2.4289   -3.3435   20.2573 H   0  0  0  0  0  0
   -3.0733   -0.9826   20.0083 H   0  0  0  0  0  0
   -1.9761    0.7262   24.8174 H   0  0  0  0  0  0
   -0.8771    2.5891   26.0928 H   0  0  0  0  0  0
    0.1712    4.7475   25.9113 H   0  0  0  0  0  0
    0.1096    5.6754   24.4235 H   0  0  0  0  0  0
   -5.1177    0.4871   20.7589 H   0  0  0  0  0  0
   -6.4313   -0.0751   18.7706 H   0  0  0  0  0  0
   -5.6413    0.6351   16.5403 H   0  0  0  0  0  0
   -3.6083    2.0287   16.3216 H   0  0  0  0  0  0
   -2.4351    2.8043   18.3419 H   0  0  0  0  0  0
  1  2  1  0  0  0
  1 33  1  0  0  0
  1 34  1  0  0  0
  1 35  1  0  0  0
  2 32  1  0  0  0
  2  3  1  0  0  0
  2  9  1  0  0  0
  3  8  1  0  0  0
  3  4  2  0  0  0
  4  5  1  0  0  0
  4 36  1  0  0  0
  5  6  2  0  0  0
  5 37  1  0  0  0
  6  7  1  0  0  0
  6 38  1  0  0  0
  7  8  2  0  0  0
  7 39  1  0  0  0
  8 40  1  0  0  0
  9 10  1  0  0  0
  9 41  1  0  0  0
 10 15  1  0  0  0
 10 11  2  0  0  0
 11 12  1  0  0  0
 12 13  2  0  0  0
 12 42  1  0  0  0
 13 14  1  0  0  0
 13 43  1  0  0  0
 14 15  2  0  0  0
 14 16  1  0  0  0
 16 20  1  0  0  0
 16 17  2  0  0  0
 17 18  1  0  0  0
 17 26  1  0  0  0
 18 19  2  0  0  0
 19 24  1  0  0  0
 19 20  1  0  0  0
 20 21  1  0  0  0
 21 22  2  0  0  0
 21 44  1  0  0  0
 22 23  1  0  0  0
 22 45  1  0  0  0
 23 24  2  0  0  0
 23 25  1  0  0  0
 25 46  1  0  0  0
 25 47  1  0  0  0
 26 31  1  0  0  0
 26 27  2  0  0  0
 27 28  1  0  0  0
 27 48  1  0  0  0
 28 29  2  0  0  0
 28 49  1  0  0  0
 29 30  1  0  0  0
 29 50  1  0  0  0
 30 31  2  0  0  0
 30 51  1  0  0  0
 31 52  1  0  0  0
M  END
> <s_m_entry_id>
62687

> <s_m_entry_name>
ligand_docking-pose.347

> <s_m_Source_Path>
/home/csk/Desktop/cluster/DUD-E-result/mk14

> <s_m_Source_File>
ligand_docking-pose.sdf

> <i_m_Source_File_Index>
347

> <i_lp_mmshare_version>
53161

> <r_lp_tautomer_probability>
0.999999987636

> <s_lp_Force_Field>
OPLS_2005

> <r_lp_Energy>
12.939031

> <b_lp_Chiralities_Consistent>
1

> <s_lp_Variant>
193755-1

> <s_i_glide_gridfile>
glide-grid_2qd9

> <i_i_glide_lignum>
2047

> <i_i_glide_rotatable_bonds>
5

> <r_i_docking_score>
-7.16272231370392

> <r_i_glide_ligand_efficiency>
-0.231055558506578

> <r_i_glide_ligand_efficiency_sa>
-0.725833460289218

> <r_i_glide_ligand_efficiency_ln>
-1.61541339281687

> <r_i_glide_gscore>
-7.16272231370392

> <r_i_glide_lipo>
-3.2578128794544

> <r_i_glide_hbond>
-0.246825826005289

> <r_i_glide_metal>
0

> <r_i_glide_rewards>
-1.91340213616643

> <r_i_glide_evdw>
-28.8275318145752

> <r_i_glide_ecoul>
-5.64039850234985

> <r_i_glide_erotb>
0.592419343638322

> <r_i_glide_esite>
-0.0496644496348891

> <r_i_glide_emodel>
-36.6526987120524

> <r_i_glide_energy>
-34.467930316925

> <r_i_glide_einternal>
6.8149471282959

> <i_i_glide_confnum>
224

> <i_i_glide_posenum>
225

> <r_i_glide_eff_state_penalty>
0

> <i_f3d_flags>
0

> <s_user_duplicate_titles>
193755

> <s_m_subgroup_title>
dock_pv

> <s_m_subgroupid>
dock_pv1

> <b_m_subgroup_collapsed>
0

$$$$
109301
                    3D
 Schrodinger Suite 2021-1.
 42 45  0  0  1  0            999 V2000
   -2.6769   -0.6947   26.3295 C   0  0  0  0  0  0
   -2.3020   -1.9009   25.6048 N   0  0  0  0  0  0
   -2.2404   -1.9280   24.2056 C   0  0  0  0  0  0
   -1.7117   -3.0578   23.6724 N   0  0  0  0  0  0
   -1.6362   -3.1130   22.3199 C   0  0  0  0  0  0
   -2.0783   -2.0902   21.4989 C   0  0  0  0  0  0
   -2.6015   -0.9591   22.1281 C   0  0  0  0  0  0
   -2.6942   -0.8673   23.4805 N   0  0  0  0  0  0
   -2.9834    0.2177   21.2990 C   0  0  0  0  0  0
   -2.8332    1.5909   21.5496 C   0  0  0  0  0  0
   -3.0872    2.1522   20.3187 N   0  0  0  0  0  0
   -3.5238    1.1509   19.4936 C   0  0  0  0  0  0
   -3.4806   -0.0045   20.0919 N   0  0  0  0  0  0
   -4.0168    1.3202   18.1107 C   0  0  0  0  0  0
   -5.3127    0.8870   17.8283 C   0  0  0  0  0  0
   -5.8312    1.0404   16.5504 C   0  0  0  0  0  0
   -5.0621    1.6461   15.5665 C   0  0  0  0  0  0
   -3.7654    2.0729   15.8370 C   0  0  0  0  0  0
   -3.2362    1.9039   17.1076 C   0  0  0  0  0  0
   -2.4342    2.3670   22.7705 C   0  0  0  0  0  0
   -3.0584    2.0881   23.9922 C   0  0  0  0  0  0
   -2.7097    2.7825   25.1470 C   0  0  0  0  0  0
   -1.7271    3.7652   25.0860 C   0  0  0  0  0  0
   -1.1116    4.0714   23.8761 C   0  0  0  0  0  0
   -1.4749    3.3838   22.7201 C   0  0  0  0  0  0
   -3.0417    3.1325   20.0914 H   0  0  0  0  0  0
   -2.7694   -0.9116   27.3943 H   0  0  0  0  0  0
   -3.6345   -0.3073   25.9804 H   0  0  0  0  0  0
   -1.9185    0.0789   26.2032 H   0  0  0  0  0  0
   -1.8281   -2.6341   26.1112 H   0  0  0  0  0  0
   -1.2091   -3.9909   21.8761 H   0  0  0  0  0  0
   -1.9875   -2.1641   20.4240 H   0  0  0  0  0  0
   -5.9217    0.4306   18.5969 H   0  0  0  0  0  0
   -6.8347    0.7047   16.3337 H   0  0  0  0  0  0
   -5.4902    1.7995   14.5917 H   0  0  0  0  0  0
   -3.1736    2.5586   15.0760 H   0  0  0  0  0  0
   -2.2492    2.2847   17.2912 H   0  0  0  0  0  0
   -3.8305    1.3371   24.0526 H   0  0  0  0  0  0
   -3.1937    2.5535   26.0851 H   0  0  0  0  0  0
   -1.4409    4.2938   25.9831 H   0  0  0  0  0  0
   -0.3560    4.8422   23.8319 H   0  0  0  0  0  0
   -1.0104    3.6869   21.7937 H   0  0  0  0  0  0
  1  2  1  0  0  0
  1 27  1  0  0  0
  1 28  1  0  0  0
  1 29  1  0  0  0
  2  3  1  0  0  0
  2 30  1  0  0  0
  3  8  1  0  0  0
  3  4  2  0  0  0
  4  5  1  0  0  0
  5  6  2  0  0  0
  5 31  1  0  0  0
  6  7  1  0  0  0
  6 32  1  0  0  0
  7  8  2  0  0  0
  7  9  1  0  0  0
  9 10  2  0  0  0
  9 13  1  0  0  0
 10 20  1  0  0  0
 10 11  1  0  0  0
 11 26  1  0  0  0
 11 12  1  0  0  0
 12 14  1  0  0  0
 12 13  2  0  0  0
 14 19  1  0  0  0
 14 15  2  0  0  0
 15 16  1  0  0  0
 15 33  1  0  0  0
 16 17  2  0  0  0
 16 34  1  0  0  0
 17 18  1  0  0  0
 17 35  1  0  0  0
 18 19  2  0  0  0
 18 36  1  0  0  0
 19 37  1  0  0  0
 20 25  1  0  0  0
 20 21  2  0  0  0
 21 22  1  0  0  0
 21 38  1  0  0  0
 22 23  2  0  0  0
 22 39  1  0  0  0
 23 24  1  0  0  0
 23 40  1  0  0  0
 24 25  2  0  0  0
 24 41  1  0  0  0
 25 42  1  0  0  0
M  END
> <s_m_entry_id>
62688

> <s_m_entry_name>
ligand_docking-pose.348

> <s_m_Source_Path>
/home/csk/Desktop/cluster/DUD-E-result/mk14

> <s_m_Source_File>
ligand_docking-pose.sdf

> <i_m_Source_File_Index>
348

> <i_lp_mmshare_version>
53161

> <r_lp_tautomer_probability>
0.499999996908999

> <s_lp_Force_Field>
OPLS_2005

> <r_lp_Energy>
13.531004

> <b_lp_Chiralities_Consistent>
1

> <s_lp_Variant>
109301-2

> <s_i_glide_gridfile>
glide-grid_2qd9

> <i_i_glide_lignum>
2429

> <i_i_glide_rotatable_bonds>
4

> <r_i_docking_score>
-7.15944249689006

> <r_i_glide_ligand_efficiency>
-0.286377699875603

> <r_i_glide_ligand_efficiency_sa>
-0.837373473366395

> <r_i_glide_ligand_efficiency_ln>
-1.69700242294136

> <r_i_glide_gscore>
-7.15944249689006

> <r_i_glide_lipo>
-2.72888120743811

> <r_i_glide_hbond>
-0.40241140760138

> <r_i_glide_metal>
0

> <r_i_glide_rewards>
-2.69132368439203

> <r_i_glide_evdw>
-34.2137870788574

> <r_i_glide_ecoul>
-1.00964176654816

> <r_i_glide_erotb>
0.525309421466554

> <r_i_glide_esite>
0

> <r_i_glide_emodel>
-39.8212429063776

> <r_i_glide_energy>
-35.2234288454056

> <r_i_glide_einternal>
12.3452520370483

> <i_i_glide_confnum>
1

> <i_i_glide_posenum>
147

> <r_i_glide_eff_state_penalty>
0

> <i_f3d_flags>
0

> <s_user_duplicate_titles>
109301

> <s_m_subgroup_title>
dock_pv

> <s_m_subgroupid>
dock_pv1

> <b_m_subgroup_collapsed>
0

$$$$
210931
                    3D
 Schrodinger Suite 2021-1.
 48 51  0  0  1  0            999 V2000
   -1.2444   -1.1124   28.7334 C   0  0  0  0  0  0
   -0.0333   -0.4406   28.8815 C   0  0  0  0  0  0
    0.1705    0.7677   28.2262 C   0  0  0  0  0  0
   -0.8443    1.2945   27.4295 C   0  0  0  0  0  0
   -2.0513    0.6176   27.2668 C   0  0  0  0  0  0
   -2.2500   -0.5953   27.9203 C   0  0  0  0  0  0
   -0.5976    2.8400   26.6264 S   0  0  0  0  0  0
    0.4673    2.4627   25.2094 C   0  0  0  0  0  0
   -0.1948    2.7042   23.8449 C   0  0  0  0  0  0
   -1.3640    1.7349   23.5242 C   0  0  0  0  0  0
   -2.0226    1.9877   22.2298 N   0  0  0  0  0  0
   -2.0365    3.1679   21.5354 C   0  0  0  0  0  0
   -2.6413    3.1034   20.3784 N   0  0  0  0  0  0
   -3.0568    1.8512   20.2752 C   0  0  0  0  0  0
   -2.6373    1.0872   21.3780 C   0  0  0  0  0  0
   -2.6538   -0.3821   21.6182 C   0  0  0  0  0  0
   -2.2543   -1.2378   20.5852 C   0  0  0  0  0  0
   -2.0753   -2.5920   20.8686 C   0  0  0  0  0  0
   -2.2691   -3.1130   22.1050 N   0  0  0  0  0  0
   -2.6946   -2.2803   23.0858 C   0  0  0  0  0  0
   -2.9266   -0.9227   22.8792 C   0  0  0  0  0  0
   -3.8624    1.4488   19.0816 C   0  0  0  0  0  0
   -5.1308    0.8873   19.2660 C   0  0  0  0  0  0
   -5.9427    0.6313   18.1627 C   0  0  0  0  0  0
   -5.4635    0.8867   16.8767 C   0  0  0  0  0  0
   -4.1873    1.3906   16.6809 C   0  0  0  0  0  0
   -3.3950    1.6870   17.7801 C   0  0  0  0  0  0
   -6.2011    0.5635   15.7973 F   0  0  0  0  0  0
   -1.4022   -2.0438   29.2571 H   0  0  0  0  0  0
    0.7508   -0.8491   29.5019 H   0  0  0  0  0  0
    1.1095    1.2912   28.3380 H   0  0  0  0  0  0
   -2.8333    1.0274   26.6451 H   0  0  0  0  0  0
   -3.1825   -1.1291   27.8103 H   0  0  0  0  0  0
    1.3508    3.0971   25.2974 H   0  0  0  0  0  0
    0.8336    1.4366   25.2811 H   0  0  0  0  0  0
   -0.5416    3.7376   23.8354 H   0  0  0  0  0  0
    0.5728    2.6301   23.0757 H   0  0  0  0  0  0
   -0.9698    0.7181   23.5256 H   0  0  0  0  0  0
   -2.1293    1.7823   24.2993 H   0  0  0  0  0  0
   -1.4769    4.0044   21.9180 H   0  0  0  0  0  0
   -2.0362   -0.8557   19.5994 H   0  0  0  0  0  0
   -1.7550   -3.2818   20.0997 H   0  0  0  0  0  0
   -2.8342   -2.7122   24.0651 H   0  0  0  0  0  0
   -3.2460   -0.2974   23.6982 H   0  0  0  0  0  0
   -5.4944    0.6893   20.2646 H   0  0  0  0  0  0
   -6.9282    0.2067   18.2951 H   0  0  0  0  0  0
   -3.8242    1.5678   15.6788 H   0  0  0  0  0  0
   -2.4361    2.1394   17.5881 H   0  0  0  0  0  0
  1  6  1  0  0  0
  1  2  2  0  0  0
  1 29  1  0  0  0
  2  3  1  0  0  0
  2 30  1  0  0  0
  3  4  2  0  0  0
  3 31  1  0  0  0
  4  5  1  0  0  0
  4  7  1  0  0  0
  5  6  2  0  0  0
  5 32  1  0  0  0
  6 33  1  0  0  0
  7  8  1  0  0  0
  8  9  1  0  0  0
  8 34  1  0  0  0
  8 35  1  0  0  0
  9 10  1  0  0  0
  9 36  1  0  0  0
  9 37  1  0  0  0
 10 11  1  0  0  0
 10 38  1  0  0  0
 10 39  1  0  0  0
 11 15  1  0  0  0
 11 12  1  0  0  0
 12 13  2  0  0  0
 12 40  1  0  0  0
 13 14  1  0  0  0
 14 15  2  0  0  0
 14 22  1  0  0  0
 15 16  1  0  0  0
 16 21  1  0  0  0
 16 17  2  0  0  0
 17 18  1  0  0  0
 17 41  1  0  0  0
 18 19  2  0  0  0
 18 42  1  0  0  0
 19 20  1  0  0  0
 20 21  2  0  0  0
 20 43  1  0  0  0
 21 44  1  0  0  0
 22 27  1  0  0  0
 22 23  2  0  0  0
 23 24  1  0  0  0
 23 45  1  0  0  0
 24 25  2  0  0  0
 24 46  1  0  0  0
 25 26  1  0  0  0
 25 28  1  0  0  0
 26 27  2  0  0  0
 26 47  1  0  0  0
 27 48  1  0  0  0
M  END
> <s_m_entry_id>
62689

> <s_m_entry_name>
ligand_docking-pose.349

> <s_m_Source_Path>
/home/csk/Desktop/cluster/DUD-E-result/mk14

> <s_m_Source_File>
ligand_docking-pose.sdf

> <i_m_Source_File_Index>
349

> <i_lp_mmshare_version>
53161

> <r_lp_tautomer_probability>
1

> <s_lp_Force_Field>
OPLS_2005

> <r_lp_Energy>
17.1894

> <b_lp_Chiralities_Consistent>
1

> <s_lp_Variant>
210931-1

> <s_i_glide_gridfile>
glide-grid_2qd9

> <i_i_glide_lignum>
639

> <i_i_glide_rotatable_bonds>
7

> <r_i_docking_score>
-7.14349191946618

> <r_i_glide_ligand_efficiency>
-0.255124711409506

> <r_i_glide_ligand_efficiency_sa>
-0.774708884258572

> <r_i_glide_ligand_efficiency_ln>
-1.64892767704941

> <r_i_glide_gscore>
-7.14349191946618

> <r_i_glide_lipo>
-3.26624347654975

> <r_i_glide_hbond>
-0.27118046996216

> <r_i_glide_metal>
0

> <r_i_glide_rewards>
-2.21596569531028

> <r_i_glide_evdw>
-32.6164169311523

> <r_i_glide_ecoul>
-3.29177737236023

> <r_i_glide_erotb>
0.771042637323953

> <r_i_glide_esite>
-0.0365574625562926

> <r_i_glide_emodel>
-44.2563170345861

> <r_i_glide_energy>
-35.9081943035126

> <r_i_glide_einternal>
10.8931932449341

> <i_i_glide_confnum>
45

> <i_i_glide_posenum>
50

> <r_i_glide_eff_state_penalty>
0

> <i_f3d_flags>
0

> <s_user_duplicate_titles>
210931

> <s_m_subgroup_title>
dock_pv

> <s_m_subgroupid>
dock_pv1

> <b_m_subgroup_collapsed>
0

$$$$
110219
                    3D
 Schrodinger Suite 2021-1.
 38 41  0  0  1  0            999 V2000
   -4.9893    1.4560   15.6284 C   0  0  0  0  0  0
   -5.7323    0.8870   16.6545 C   0  0  0  0  0  0
   -5.2313    0.8870   17.9484 C   0  0  0  0  0  0
   -3.9736    1.4321   18.2110 C   0  0  0  0  0  0
   -3.2349    2.0116   17.1722 C   0  0  0  0  0  0
   -3.7424    2.0218   15.8762 C   0  0  0  0  0  0
   -3.4592    1.3241   19.5994 C   0  0  0  0  0  0
   -2.9925    2.2808   20.3692 N   0  0  0  0  0  0
   -2.7223    1.7053   21.5467 C   0  0  0  0  0  0
   -2.8436    0.3094   21.4587 C   0  0  0  0  0  0
   -3.3997    0.1202   20.2261 N   0  0  0  0  0  0
   -2.4827   -0.8552   22.3124 C   0  0  0  0  0  0
   -2.5233   -0.8764   23.7134 C   0  0  0  0  0  0
   -2.0886   -2.0147   24.3873 C   0  0  0  0  0  0
   -1.6352   -3.1130   23.7413 N   0  0  0  0  0  0
   -1.6223   -3.0952   22.3877 C   0  0  0  0  0  0
   -2.0251   -1.9977   21.6443 C   0  0  0  0  0  0
   -2.3167    2.5239   22.7406 C   0  0  0  0  0  0
   -1.2824    3.4623   22.6762 C   0  0  0  0  0  0
   -0.8593    4.1548   23.8117 C   0  0  0  0  0  0
   -1.5061    3.9478   25.0281 C   0  0  0  0  0  0
   -2.5860    3.0707   25.0951 C   0  0  0  0  0  0
   -2.9967    2.3820   23.9550 C   0  0  0  0  0  0
   -3.2348    2.8856   26.2640 F   0  0  0  0  0  0
   -3.6550   -0.7688   19.8210 H   0  0  0  0  0  0
   -5.3995    1.4620   14.6354 H   0  0  0  0  0  0
   -6.6921    0.4390   16.4486 H   0  0  0  0  0  0
   -5.8171    0.4387   18.7387 H   0  0  0  0  0  0
   -2.2843    2.4821   17.3553 H   0  0  0  0  0  0
   -3.1766    2.4762   15.0760 H   0  0  0  0  0  0
   -2.8658   -0.0511   24.3023 H   0  0  0  0  0  0
   -2.0936   -2.0539   25.4674 H   0  0  0  0  0  0
   -1.2348   -3.9574   21.8764 H   0  0  0  0  0  0
   -1.9487   -2.0372   20.5674 H   0  0  0  0  0  0
   -0.8314    3.6870   21.7272 H   0  0  0  0  0  0
   -0.0395    4.8561   23.7441 H   0  0  0  0  0  0
   -1.1825    4.4743   25.9142 H   0  0  0  0  0  0
   -3.8595    1.7376   24.0208 H   0  0  0  0  0  0
  1  6  1  0  0  0
  1  2  2  0  0  0
  1 26  1  0  0  0
  2  3  1  0  0  0
  2 27  1  0  0  0
  3  4  2  0  0  0
  3 28  1  0  0  0
  4  5  1  0  0  0
  4  7  1  0  0  0
  5  6  2  0  0  0
  5 29  1  0  0  0
  6 30  1  0  0  0
  7 11  1  0  0  0
  7  8  2  0  0  0
  8  9  1  0  0  0
  9 18  1  0  0  0
  9 10  2  0  0  0
 10 12  1  0  0  0
 10 11  1  0  0  0
 11 25  1  0  0  0
 12 17  1  0  0  0
 12 13  2  0  0  0
 13 14  1  0  0  0
 13 31  1  0  0  0
 14 15  2  0  0  0
 14 32  1  0  0  0
 15 16  1  0  0  0
 16 17  2  0  0  0
 16 33  1  0  0  0
 17 34  1  0  0  0
 18 23  1  0  0  0
 18 19  2  0  0  0
 19 20  1  0  0  0
 19 35  1  0  0  0
 20 21  2  0  0  0
 20 36  1  0  0  0
 21 22  1  0  0  0
 21 37  1  0  0  0
 22 23  2  0  0  0
 22 24  1  0  0  0
 23 38  1  0  0  0
M  END
> <s_m_entry_id>
62690

> <s_m_entry_name>
ligand_docking-pose.350

> <s_m_Source_Path>
/home/csk/Desktop/cluster/DUD-E-result/mk14

> <s_m_Source_File>
ligand_docking-pose.sdf

> <i_m_Source_File_Index>
350

> <i_lp_mmshare_version>
53161

> <r_lp_tautomer_probability>
0.499999999999999

> <s_lp_Force_Field>
OPLS_2005

> <r_lp_Energy>
16.714519

> <b_lp_Chiralities_Consistent>
1

> <s_lp_Variant>
110219-2

> <s_i_glide_gridfile>
glide-grid_2qd9

> <i_i_glide_lignum>
374

> <i_i_glide_rotatable_bonds>
3

> <r_i_docking_score>
-7.12631683653845

> <r_i_glide_ligand_efficiency>
-0.296929868189102

> <r_i_glide_ligand_efficiency_sa>
-0.856493948707008

> <r_i_glide_ligand_efficiency_ln>
-1.70565462435532

> <r_i_glide_gscore>
-7.12631683653845

> <r_i_glide_lipo>
-2.7676085481542

> <r_i_glide_hbond>
-0.400136196239438

> <r_i_glide_metal>
0

> <r_i_glide_rewards>
-2.57563572438445

> <r_i_glide_evdw>
-29.6800098419189

> <r_i_glide_ecoul>
-3.0673828125

> <r_i_glide_erotb>
0.561171546210585

> <r_i_glide_esite>
0

> <r_i_glide_emodel>
-39.9082547038184

> <r_i_glide_energy>
-32.7473926544189

> <r_i_glide_einternal>
8.51045417785645

> <i_i_glide_confnum>
11

> <i_i_glide_posenum>
45

> <r_i_glide_eff_state_penalty>
0

> <i_f3d_flags>
0

> <s_user_duplicate_titles>
110219

> <s_m_subgroup_title>
dock_pv

> <s_m_subgroupid>
dock_pv1

> <b_m_subgroup_collapsed>
0

$$$$
210888
                    3D
 Schrodinger Suite 2021-1.
 55 58  0  0  1  0            999 V2000
   -2.3999    3.6414   26.6480 C   0  0  0  0  0  0
   -1.5434    2.7843   25.8281 N   0  0  1  0  0  0
   -1.0060    3.5564   24.6991 C   0  0  0  0  0  0
   -0.2757    2.6738   23.6592 C   0  0  0  0  0  0
   -1.1339    1.5305   23.0565 C   0  0  0  0  0  0
   -2.0350    1.9086   21.9511 N   0  0  0  0  0  0
   -2.1114    3.1175   21.3114 C   0  0  0  0  0  0
   -2.8350    3.0989   20.2264 N   0  0  0  0  0  0
   -3.2220    1.8419   20.0825 C   0  0  0  0  0  0
   -2.7585    1.0511   21.1433 C   0  0  0  0  0  0
   -2.7399   -0.4175   21.3602 C   0  0  0  0  0  0
   -2.2856   -1.2563   20.3378 C   0  0  0  0  0  0
   -2.0347   -2.5944   20.6386 C   0  0  0  0  0  0
   -2.2174   -3.1136   21.8777 N   0  0  0  0  0  0
   -2.7109   -2.3022   22.8428 C   0  0  0  0  0  0
   -3.0097   -0.9614   22.6205 C   0  0  0  0  0  0
   -3.9911    1.4493   18.8695 C   0  0  0  0  0  0
   -5.2641    0.8871   18.9882 C   0  0  0  0  0  0
   -6.0188    0.6458   17.8411 C   0  0  0  0  0  0
   -5.4571    0.8759   16.5854 C   0  0  0  0  0  0
   -4.1739    1.3865   16.4575 C   0  0  0  0  0  0
   -3.4459    1.6869   17.5998 C   0  0  0  0  0  0
   -6.1260    0.5178   15.4736 F   0  0  0  0  0  0
   -0.4823    2.1925   26.6636 C   0  0  0  0  0  0
   -0.9324    1.0696   27.5982 C   0  0  0  0  0  0
   -2.0371    0.2602   27.2989 C   0  0  0  0  0  0
   -2.3518   -0.8234   28.1149 C   0  0  0  0  0  0
   -1.5468   -1.1130   29.2138 C   0  0  0  0  0  0
   -0.4226   -0.3414   29.4948 C   0  0  0  0  0  0
   -0.1098    0.7426   28.6802 C   0  0  0  0  0  0
   -3.2297    4.0370   26.0611 H   0  0  0  0  0  0
   -2.8349    3.0827   27.4775 H   0  0  0  0  0  0
   -1.8467    4.4841   27.0666 H   0  0  0  0  0  0
   -1.8397    4.0475   24.1951 H   0  0  0  0  0  0
   -0.3428    4.3461   25.0579 H   0  0  0  0  0  0
    0.1327    3.3060   22.8722 H   0  0  0  0  0  0
    0.6350    2.2603   24.0897 H   0  0  0  0  0  0
   -0.4684    0.7543   22.6766 H   0  0  0  0  0  0
   -1.7232    1.0584   23.8399 H   0  0  0  0  0  0
   -1.5064    3.9391   21.6506 H   0  0  0  0  0  0
   -2.0732   -0.8690   19.3520 H   0  0  0  0  0  0
   -1.6662   -3.2724   19.8818 H   0  0  0  0  0  0
   -2.8348   -2.7337   23.8238 H   0  0  0  0  0  0
   -3.3774   -0.3466   23.4281 H   0  0  0  0  0  0
   -5.6857    0.6892   19.9626 H   0  0  0  0  0  0
   -7.0098    0.2220   17.9181 H   0  0  0  0  0  0
   -3.7501    1.5502   15.4773 H   0  0  0  0  0  0
   -2.4626    2.1166   17.4761 H   0  0  0  0  0  0
    0.0727    2.9593   27.2085 H   0  0  0  0  0  0
    0.2533    1.7014   26.0310 H   0  0  0  0  0  0
   -2.6486    0.4663   26.4330 H   0  0  0  0  0  0
   -3.2060   -1.4454   27.8906 H   0  0  0  0  0  0
   -1.7791   -1.9632   29.8396 H   0  0  0  0  0  0
    0.2176   -0.5948   30.3279 H   0  0  0  0  0  0
    0.7829    1.3175   28.8857 H   0  0  0  0  0  0
  1  2  1  0  0  0
  1 31  1  0  0  0
  1 32  1  0  0  0
  1 33  1  0  0  0
  2  3  1  0  0  0
  2 24  1  0  0  0
  3  4  1  0  0  0
  3 34  1  0  0  0
  3 35  1  0  0  0
  4  5  1  0  0  0
  4 36  1  0  0  0
  4 37  1  0  0  0
  5  6  1  0  0  0
  5 38  1  0  0  0
  5 39  1  0  0  0
  6 10  1  0  0  0
  6  7  1  0  0  0
  7  8  2  0  0  0
  7 40  1  0  0  0
  8  9  1  0  0  0
  9 10  2  0  0  0
  9 17  1  0  0  0
 10 11  1  0  0  0
 11 16  1  0  0  0
 11 12  2  0  0  0
 12 13  1  0  0  0
 12 41  1  0  0  0
 13 14  2  0  0  0
 13 42  1  0  0  0
 14 15  1  0  0  0
 15 16  2  0  0  0
 15 43  1  0  0  0
 16 44  1  0  0  0
 17 22  1  0  0  0
 17 18  2  0  0  0
 18 19  1  0  0  0
 18 45  1  0  0  0
 19 20  2  0  0  0
 19 46  1  0  0  0
 20 21  1  0  0  0
 20 23  1  0  0  0
 21 22  2  0  0  0
 21 47  1  0  0  0
 22 48  1  0  0  0
 24 25  1  0  0  0
 24 49  1  0  0  0
 24 50  1  0  0  0
 25 30  1  0  0  0
 25 26  2  0  0  0
 26 27  1  0  0  0
 26 51  1  0  0  0
 27 28  2  0  0  0
 27 52  1  0  0  0
 28 29  1  0  0  0
 28 53  1  0  0  0
 29 30  2  0  0  0
 29 54  1  0  0  0
 30 55  1  0  0  0
M  END
> <s_m_entry_id>
62692

> <s_m_entry_name>
ligand_docking-pose.352

> <s_m_Source_Path>
/home/csk/Desktop/cluster/DUD-E-result/mk14

> <s_m_Source_File>
ligand_docking-pose.sdf

> <i_m_Source_File_Index>
352

> <i_lp_mmshare_version>
53161

> <r_lp_tautomer_probability>
1

> <s_lp_Force_Field>
OPLS_2005

> <r_lp_Energy>
25.726172

> <b_lp_Chiralities_Consistent>
1

> <s_lp_Variant>
210888-1

> <s_i_glide_gridfile>
glide-grid_2qd9

> <i_i_glide_lignum>
2446

> <i_i_glide_rotatable_bonds>
8

> <r_i_docking_score>
-7.11757986627854

> <r_i_glide_ligand_efficiency>
-0.237252662209285

> <r_i_glide_ligand_efficiency_sa>
-0.737199183304993

> <r_i_glide_ligand_efficiency_ln>
-1.61719169786257

> <r_i_glide_gscore>
-7.11757986627854

> <r_i_glide_lipo>
-3.39263713310863

> <r_i_glide_hbond>
-0.213528502247522

> <r_i_glide_metal>
0

> <r_i_glide_rewards>
-2.15318706612277

> <r_i_glide_evdw>
-35.2083549499512

> <r_i_glide_ecoul>
-2.79259419441223

> <r_i_glide_erotb>
0.855607720936127

> <r_i_glide_esite>
-0.0345280090763488

> <r_i_glide_emodel>
-45.9115964477912

> <r_i_glide_energy>
-38.0009491443634

> <r_i_glide_einternal>
9.62271213531494

> <i_i_glide_confnum>
10

> <i_i_glide_posenum>
267

> <r_i_glide_eff_state_penalty>
0

> <i_f3d_flags>
0

> <s_user_duplicate_titles>
210888

> <s_m_subgroup_title>
dock_pv

> <s_m_subgroupid>
dock_pv1

> <b_m_subgroup_collapsed>
0

$$$$
110185
                    3D
 Schrodinger Suite 2021-1.
 42 45  0  0  1  0            999 V2000
   -2.1997    3.0783   27.6174 C   0  0  0  0  0  0
   -2.8352    2.6235   26.4264 O   0  0  0  0  0  0
   -2.2809    2.9583   25.2086 C   0  0  0  0  0  0
   -1.2177    3.8586   25.0476 C   0  0  0  0  0  0
   -0.7116    4.1209   23.7798 C   0  0  0  0  0  0
   -1.2350    3.4537   22.6760 C   0  0  0  0  0  0
   -2.2523    2.5049   22.8060 C   0  0  0  0  0  0
   -2.8140    2.3371   24.0763 C   0  0  0  0  0  0
   -2.7351    1.6919   21.6290 C   0  0  0  0  0  0
   -2.9272    0.3013   21.5533 C   0  0  0  0  0  0
   -3.4815    0.1174   20.3197 N   0  0  0  0  0  0
   -3.4823    1.3159   19.6771 C   0  0  0  0  0  0
   -2.9645    2.2571   20.4372 N   0  0  0  0  0  0
   -3.9829    1.4287   18.2797 C   0  0  0  0  0  0
   -3.2350    2.0095   17.2487 C   0  0  0  0  0  0
   -3.7160    2.0111   15.9421 C   0  0  0  0  0  0
   -4.9590    1.4469   15.6768 C   0  0  0  0  0  0
   -5.7202    0.8870   16.6943 C   0  0  0  0  0  0
   -5.2378    0.8870   17.9964 C   0  0  0  0  0  0
   -2.6095   -0.8689   22.4122 C   0  0  0  0  0  0
   -2.8716   -0.9604   23.7849 C   0  0  0  0  0  0
   -2.4350   -2.0828   24.4819 C   0  0  0  0  0  0
   -1.8021   -3.1130   23.8760 N   0  0  0  0  0  0
   -1.6059   -3.0476   22.5377 C   0  0  0  0  0  0
   -1.9751   -1.9456   21.7796 C   0  0  0  0  0  0
   -3.7718   -0.7657   19.9252 H   0  0  0  0  0  0
   -2.6692    2.6100   28.4810 H   0  0  0  0  0  0
   -1.1430    2.8063   27.6429 H   0  0  0  0  0  0
   -2.2950    4.1591   27.7299 H   0  0  0  0  0  0
   -0.7774    4.3672   25.8916 H   0  0  0  0  0  0
    0.0968    4.8266   23.6528 H   0  0  0  0  0  0
   -0.8350    3.6870   21.7040 H   0  0  0  0  0  0
   -3.6876    1.7231   24.1966 H   0  0  0  0  0  0
   -2.2927    2.4869   17.4484 H   0  0  0  0  0  0
   -3.1378    2.4611   15.1475 H   0  0  0  0  0  0
   -5.3493    1.4497   14.6759 H   0  0  0  0  0  0
   -6.6778    0.4411   16.4746 H   0  0  0  0  0  0
   -5.8368    0.4398   18.7772 H   0  0  0  0  0  0
   -3.4045   -0.2101   24.3310 H   0  0  0  0  0  0
   -2.6037   -2.1748   25.5453 H   0  0  0  0  0  0
   -1.1120   -3.8830   22.0658 H   0  0  0  0  0  0
   -1.7518   -1.9285   20.7223 H   0  0  0  0  0  0
  1  2  1  0  0  0
  1 27  1  0  0  0
  1 28  1  0  0  0
  1 29  1  0  0  0
  2  3  1  0  0  0
  3  8  1  0  0  0
  3  4  2  0  0  0
  4  5  1  0  0  0
  4 30  1  0  0  0
  5  6  2  0  0  0
  5 31  1  0  0  0
  6  7  1  0  0  0
  6 32  1  0  0  0
  7  8  2  0  0  0
  7  9  1  0  0  0
  8 33  1  0  0  0
  9 10  2  0  0  0
  9 13  1  0  0  0
 10 20  1  0  0  0
 10 11  1  0  0  0
 11 26  1  0  0  0
 11 12  1  0  0  0
 12 14  1  0  0  0
 12 13  2  0  0  0
 14 19  1  0  0  0
 14 15  2  0  0  0
 15 16  1  0  0  0
 15 34  1  0  0  0
 16 17  2  0  0  0
 16 35  1  0  0  0
 17 18  1  0  0  0
 17 36  1  0  0  0
 18 19  2  0  0  0
 18 37  1  0  0  0
 19 38  1  0  0  0
 20 25  1  0  0  0
 20 21  2  0  0  0
 21 22  1  0  0  0
 21 39  1  0  0  0
 22 23  2  0  0  0
 22 40  1  0  0  0
 23 24  1  0  0  0
 24 25  2  0  0  0
 24 41  1  0  0  0
 25 42  1  0  0  0
M  END
> <s_m_entry_id>
62694

> <s_m_entry_name>
ligand_docking-pose.354

> <s_m_Source_Path>
/home/csk/Desktop/cluster/DUD-E-result/mk14

> <s_m_Source_File>
ligand_docking-pose.sdf

> <i_m_Source_File_Index>
354

> <i_lp_mmshare_version>
53161

> <r_lp_tautomer_probability>
0.499999999999999

> <s_lp_Force_Field>
OPLS_2005

> <r_lp_Energy>
20.909147

> <b_lp_Chiralities_Consistent>
1

> <s_lp_Variant>
110185-2

> <s_i_glide_gridfile>
glide-grid_2qd9

> <i_i_glide_lignum>
2510

> <i_i_glide_rotatable_bonds>
4

> <r_i_docking_score>
-7.10379734767513

> <r_i_glide_ligand_efficiency>
-0.284151893907005

> <r_i_glide_ligand_efficiency_sa>
-0.83086517723938

> <r_i_glide_ligand_efficiency_ln>
-1.68381285502686

> <r_i_glide_gscore>
-7.10379734767513

> <r_i_glide_lipo>
-2.75326936899224

> <r_i_glide_hbond>
-0.377553995678812

> <r_i_glide_metal>
0

> <r_i_glide_rewards>
-2.47325751755961

> <r_i_glide_evdw>
-30.2726821899414

> <r_i_glide_ecoul>
-3.40934085845947

> <r_i_glide_erotb>
0.525318772821524

> <r_i_glide_esite>
0

> <r_i_glide_emodel>
-43.4131261307825

> <r_i_glide_energy>
-33.6820230484009

> <r_i_glide_einternal>
7.75402879714966

> <i_i_glide_confnum>
6

> <i_i_glide_posenum>
347

> <r_i_glide_eff_state_penalty>
0

> <i_f3d_flags>
0

> <s_user_duplicate_titles>
110185

> <s_m_subgroup_title>
dock_pv

> <s_m_subgroupid>
dock_pv1

> <b_m_subgroup_collapsed>
0

$$$$
620954
                    3D
 Schrodinger Suite 2021-1.
 49 52  0  0  1  0            999 V2000
   -3.4091    1.6251   17.4380 C   0  0  0  0  0  0
   -4.0689    1.2834   16.2663 C   0  0  0  0  0  0
   -5.3401    0.7291   16.3385 C   0  0  0  0  0  0
   -5.9872    0.5881   17.5703 C   0  0  0  0  0  0
   -5.2991    0.8857   18.7485 C   0  0  0  0  0  0
   -3.9999    1.3905   18.6836 C   0  0  0  0  0  0
   -3.2732    1.7727   19.9247 C   0  0  0  0  0  0
   -2.8411    1.1253   21.0922 C   0  0  0  0  0  0
   -2.3114    2.1502   21.9207 C   0  0  0  0  0  0
   -2.2758    3.2842   21.2666 N   0  0  0  0  0  0
   -2.8365    3.0498   20.0920 N   0  0  0  0  0  0
   -1.7332    2.0929   23.3444 C   0  0  0  0  0  0
   -0.4331    1.2667   23.4665 C   0  0  0  0  0  0
    0.0760    1.1610   24.9156 C   0  0  0  0  0  0
    0.2385    2.4912   25.5125 N   0  0  1  0  0  0
   -0.9734    3.3194   25.4839 C   0  0  0  0  0  0
   -1.5293    3.4598   24.0498 C   0  0  0  0  0  0
    1.0046    2.5043   26.7729 C   0  0  0  0  0  0
    0.3236    1.7899   27.9648 C   0  0  0  0  0  0
   -0.8803    1.5462   28.0486 O   0  0  0  0  0  0
    1.2349    1.4927   28.9339 O   0  0  0  0  0  0
   -2.8394   -0.3275   21.4143 C   0  0  0  0  0  0
   -2.3947   -1.2576   20.4678 C   0  0  0  0  0  0
   -2.1957   -2.5803   20.8704 C   0  0  0  0  0  0
   -2.3976   -3.0042   22.1446 N   0  0  0  0  0  0
   -2.8488   -2.0937   23.0423 C   0  0  0  0  0  0
   -3.1303   -0.7733   22.7076 C   0  0  0  0  0  0
   -6.0363    0.0872   14.9006 Cl  0  0  0  0  0  0
   -2.9189    3.7676   19.3911 H   0  0  0  0  0  0
   -2.4321    2.0680   17.3654 H   0  0  0  0  0  0
   -3.5812    1.4081   15.3094 H   0  0  0  0  0  0
   -6.9707    0.1456   17.6212 H   0  0  0  0  0  0
   -5.7781    0.7280   19.7051 H   0  0  0  0  0  0
   -2.4459    1.5890   23.9934 H   0  0  0  0  0  0
    0.3704    1.7002   22.8773 H   0  0  0  0  0  0
   -0.5961    0.2436   23.1301 H   0  0  0  0  0  0
    1.0495    0.6666   24.8996 H   0  0  0  0  0  0
   -0.5746    0.5403   25.5339 H   0  0  0  0  0  0
   -1.7280    2.9327   26.1691 H   0  0  0  0  0  0
   -0.7094    4.3130   25.8492 H   0  0  0  0  0  0
   -2.4861    3.9738   24.1384 H   0  0  0  0  0  0
   -0.8379    4.0986   23.4976 H   0  0  0  0  0  0
    1.2296    3.5344   27.0521 H   0  0  0  0  0  0
    1.9676    2.0334   26.5813 H   0  0  0  0  0  0
    2.1483    1.6869   28.6758 H   0  0  0  0  0  0
   -2.1584   -0.9549   19.4581 H   0  0  0  0  0  0
   -1.8488   -3.3237   20.1670 H   0  0  0  0  0  0
   -2.9974   -2.4252   24.0584 H   0  0  0  0  0  0
   -3.5155   -0.1084   23.4624 H   0  0  0  0  0  0
  1  6  1  0  0  0
  1  2  2  0  0  0
  1 30  1  0  0  0
  2  3  1  0  0  0
  2 31  1  0  0  0
  3  4  2  0  0  0
  3 28  1  0  0  0
  4  5  1  0  0  0
  4 32  1  0  0  0
  5  6  2  0  0  0
  5 33  1  0  0  0
  6  7  1  0  0  0
  7 11  1  0  0  0
  7  8  2  0  0  0
  8  9  1  0  0  0
  8 22  1  0  0  0
  9 12  1  0  0  0
  9 10  2  0  0  0
 10 11  1  0  0  0
 11 29  1  0  0  0
 12 17  1  0  0  0
 12 13  1  0  0  0
 12 34  1  0  0  0
 13 14  1  0  0  0
 13 35  1  0  0  0
 13 36  1  0  0  0
 14 15  1  0  0  0
 14 37  1  0  0  0
 14 38  1  0  0  0
 15 16  1  0  0  0
 15 18  1  0  0  0
 16 17  1  0  0  0
 16 39  1  0  0  0
 16 40  1  0  0  0
 17 41  1  0  0  0
 17 42  1  0  0  0
 18 19  1  0  0  0
 18 43  1  0  0  0
 18 44  1  0  0  0
 19 20  2  0  0  0
 19 21  1  0  0  0
 21 45  1  0  0  0
 22 27  1  0  0  0
 22 23  2  0  0  0
 23 24  1  0  0  0
 23 46  1  0  0  0
 24 25  2  0  0  0
 24 47  1  0  0  0
 25 26  1  0  0  0
 26 27  2  0  0  0
 26 48  1  0  0  0
 27 49  1  0  0  0
M  END
> <s_m_entry_id>
62695

> <s_m_entry_name>
ligand_docking-pose.355

> <s_m_Source_Path>
/home/csk/Desktop/cluster/DUD-E-result/mk14

> <s_m_Source_File>
ligand_docking-pose.sdf

> <i_m_Source_File_Index>
355

> <i_lp_mmshare_version>
53161

> <r_lp_tautomer_probability>
0.5

> <s_lp_Force_Field>
OPLS_2005

> <r_lp_Energy>
24.746289

> <b_lp_Chiralities_Consistent>
1

> <s_lp_Variant>
620954-2

> <s_i_glide_gridfile>
glide-grid_2qd9

> <i_i_glide_lignum>
192

> <i_i_glide_rotatable_bonds>
6

> <r_i_docking_score>
-7.10248269498588

> <r_i_glide_ligand_efficiency>
-0.253660096249496

> <r_i_glide_ligand_efficiency_sa>
-0.770261450020581

> <r_i_glide_ligand_efficiency_ln>
-1.63946154395621

> <r_i_glide_gscore>
-7.10248269498588

> <r_i_glide_lipo>
-3.61555207011269

> <r_i_glide_hbond>
-0.182792433091784

> <r_i_glide_metal>
0

> <r_i_glide_rewards>
-1.61745471151129

> <r_i_glide_evdw>
-33.8346862792969

> <r_i_glide_ecoul>
-3.96358895301819

> <r_i_glide_erotb>
0.621220177816655

> <r_i_glide_esite>
-0.0216310011692012

> <r_i_glide_emodel>
-39.2744285070265

> <r_i_glide_energy>
-37.7982752323151

> <r_i_glide_einternal>
10.2450323104858

> <i_i_glide_confnum>
292

> <i_i_glide_posenum>
142

> <r_i_glide_eff_state_penalty>
0

> <i_f3d_flags>
0

> <s_user_duplicate_titles>
620954

> <s_m_subgroup_title>
dock_pv

> <s_m_subgroupid>
dock_pv1

> <b_m_subgroup_collapsed>
0

$$$$
648415
                    3D
 Schrodinger Suite 2021-1.
 56 59  0  0  1  0            999 V2000
   -2.0138    5.5034   27.3168 C   0  0  0  0  0  0
   -1.5038    4.2443   27.8475 N   0  0  0  0  0  0
   -0.0567    4.1438   27.6302 C   0  0  0  0  0  0
    0.4874    2.8036   28.1929 C   0  0  0  0  0  0
   -0.1870    1.6183   27.6253 N   0  0  0  0  0  0
   -1.6402    1.7866   27.8187 C   0  0  0  0  0  0
   -2.1512    3.1071   27.1905 C   0  0  0  0  0  0
    0.2694    0.9717   26.4790 C   0  0  0  0  0  0
    1.1644    1.5757   25.5823 C   0  0  0  0  0  0
    1.5642    0.9192   24.4194 C   0  0  0  0  0  0
    1.0955   -0.3595   24.1438 C   0  0  0  0  0  0
    0.1963   -0.9784   25.0168 C   0  0  0  0  0  0
   -0.1938   -0.3178   26.1852 C   0  0  0  0  0  0
   -0.4327   -2.3170   24.6453 C   0  0  0  0  0  0
   -1.2341   -2.1875   23.4271 N   0  0  0  0  0  0
   -2.3377   -1.4198   23.3622 C   0  0  0  0  0  0
   -2.9825   -1.0361   24.3381 O   0  0  0  0  0  0
   -2.6290   -0.9458   22.0463 C   0  0  0  0  0  0
   -3.0117    0.3397   21.6662 C   0  0  0  0  0  0
   -3.1632    0.3897   20.2721 C   0  0  0  0  0  0
   -2.8687   -0.8947   19.8292 C   0  0  0  0  0  0
   -2.5632   -1.6932   20.8971 N   0  0  0  0  0  0
   -3.5223    1.5540   19.4604 C   0  0  0  0  0  0
   -3.3597    2.7015   19.8760 O   0  0  0  0  0  0
   -4.0296    1.3209   18.0868 C   0  0  0  0  0  0
   -3.2389    1.6285   16.9700 C   0  0  0  0  0  0
   -3.7415    1.4501   15.6822 C   0  0  0  0  0  0
   -5.0415    0.9865   15.4986 C   0  0  0  0  0  0
   -5.8394    0.7183   16.6056 C   0  0  0  0  0  0
   -5.3456    0.8871   17.8973 C   0  0  0  0  0  0
   -6.1409    0.5830   18.9514 F   0  0  0  0  0  0
   -2.3231   -2.6737   20.8424 H   0  0  0  0  0  0
   -1.8282    5.5962   26.2460 H   0  0  0  0  0  0
   -3.0888    5.5808   27.4834 H   0  0  0  0  0  0
   -1.5435    6.3491   27.8212 H   0  0  0  0  0  0
    0.4441    4.9696   28.1367 H   0  0  0  0  0  0
    0.1836    4.2370   26.5695 H   0  0  0  0  0  0
    0.3478    2.7922   29.2754 H   0  0  0  0  0  0
    1.5660    2.7360   28.0372 H   0  0  0  0  0  0
   -2.1962    0.9497   27.3957 H   0  0  0  0  0  0
   -1.8575    1.7803   28.8884 H   0  0  0  0  0  0
   -1.9558    3.1126   26.1163 H   0  0  0  0  0  0
   -3.2323    3.1777   27.3109 H   0  0  0  0  0  0
    1.5578    2.5628   25.7699 H   0  0  0  0  0  0
    2.2528    1.3988   23.7391 H   0  0  0  0  0  0
    1.4095   -0.8491   23.2334 H   0  0  0  0  0  0
   -0.8916   -0.7988   26.8554 H   0  0  0  0  0  0
   -1.0320   -2.7124   25.4673 H   0  0  0  0  0  0
    0.3657   -3.0381   24.4633 H   0  0  0  0  0  0
   -0.7555   -2.3813   22.5617 H   0  0  0  0  0  0
   -3.1524    1.1719   22.3422 H   0  0  0  0  0  0
   -2.8336   -1.3057   18.8353 H   0  0  0  0  0  0
   -2.2331    2.0058   17.0760 H   0  0  0  0  0  0
   -3.1223    1.6732   14.8261 H   0  0  0  0  0  0
   -5.4352    0.8297   14.5065 H   0  0  0  0  0  0
   -6.8343    0.3329   16.4656 H   0  0  0  0  0  0
  1  2  1  0  0  0
  1 33  1  0  0  0
  1 34  1  0  0  0
  1 35  1  0  0  0
  2  7  1  0  0  0
  2  3  1  0  0  0
  3  4  1  0  0  0
  3 36  1  0  0  0
  3 37  1  0  0  0
  4  5  1  0  0  0
  4 38  1  0  0  0
  4 39  1  0  0  0
  5  6  1  0  0  0
  5  8  1  0  0  0
  6  7  1  0  0  0
  6 40  1  0  0  0
  6 41  1  0  0  0
  7 42  1  0  0  0
  7 43  1  0  0  0
  8 13  1  0  0  0
  8  9  2  0  0  0
  9 10  1  0  0  0
  9 44  1  0  0  0
 10 11  2  0  0  0
 10 45  1  0  0  0
 11 12  1  0  0  0
 11 46  1  0  0  0
 12 13  2  0  0  0
 12 14  1  0  0  0
 13 47  1  0  0  0
 14 15  1  0  0  0
 14 48  1  0  0  0
 14 49  1  0  0  0
 15 16  1  0  0  0
 15 50  1  0  0  0
 16 17  2  0  0  0
 16 18  1  0  0  0
 18 22  1  0  0  0
 18 19  2  0  0  0
 19 20  1  0  0  0
 19 51  1  0  0  0
 20 21  2  0  0  0
 20 23  1  0  0  0
 21 22  1  0  0  0
 21 52  1  0  0  0
 22 32  1  0  0  0
 23 24  2  0  0  0
 23 25  1  0  0  0
 25 30  1  0  0  0
 25 26  2  0  0  0
 26 27  1  0  0  0
 26 53  1  0  0  0
 27 28  2  0  0  0
 27 54  1  0  0  0
 28 29  1  0  0  0
 28 55  1  0  0  0
 29 30  2  0  0  0
 29 56  1  0  0  0
 30 31  1  0  0  0
M  END
> <s_m_entry_id>
62699

> <s_m_entry_name>
ligand_docking-pose.359

> <s_m_Source_Path>
/home/csk/Desktop/cluster/DUD-E-result/mk14

> <s_m_Source_File>
ligand_docking-pose.sdf

> <i_m_Source_File_Index>
359

> <i_lp_mmshare_version>
53161

> <r_lp_tautomer_probability>
1

> <s_lp_Force_Field>
OPLS_2005

> <r_lp_Energy>
48.014623

> <b_lp_Chiralities_Consistent>
1

> <s_lp_Variant>
648415-1

> <s_i_glide_gridfile>
glide-grid_2qd9

> <i_i_glide_lignum>
2401

> <i_i_glide_rotatable_bonds>
7

> <r_i_docking_score>
-7.06666259374298

> <r_i_glide_ligand_efficiency>
-0.227956857862677

> <r_i_glide_ligand_efficiency_sa>
-0.716099262050055

> <r_i_glide_ligand_efficiency_ln>
-1.5937489820888

> <r_i_glide_gscore>
-7.06666259374298

> <r_i_glide_lipo>
-3.44058604379045

> <r_i_glide_hbond>
0

> <r_i_glide_metal>
0

> <r_i_glide_rewards>
-1.64168042472618

> <r_i_glide_evdw>
-45.084545135498

> <r_i_glide_ecoul>
-3.34605550765991

> <r_i_glide_erotb>
0.783638990319167

> <r_i_glide_esite>
-0.0118995326216276

> <r_i_glide_emodel>
-57.7245958852036

> <r_i_glide_energy>
-48.430600643158

> <r_i_glide_einternal>
18.4066982269287

> <i_i_glide_confnum>
106

> <i_i_glide_posenum>
361

> <r_i_glide_eff_state_penalty>
0

> <i_f3d_flags>
0

> <s_user_duplicate_titles>
648415

> <s_m_subgroup_title>
dock_pv

> <s_m_subgroupid>
dock_pv1

> <b_m_subgroup_collapsed>
0

$$$$
621083
                    3D
 Schrodinger Suite 2021-1.
 49 52  0  0  1  0            999 V2000
   -3.4252    1.6070   17.5844 C   0  0  0  0  0  0
   -4.1321    1.2861   16.4333 C   0  0  0  0  0  0
   -5.4075    0.7448   16.5427 C   0  0  0  0  0  0
   -6.0149    0.5974   17.7943 C   0  0  0  0  0  0
   -5.2854    0.8869   18.9500 C   0  0  0  0  0  0
   -3.9851    1.3865   18.8479 C   0  0  0  0  0  0
   -3.2070    1.7532   20.0652 C   0  0  0  0  0  0
   -2.6465    1.0657   21.1562 C   0  0  0  0  0  0
   -2.0494    2.0762   21.9669 C   0  0  0  0  0  0
   -2.1756    3.2577   21.4077 N   0  0  0  0  0  0
   -2.8347    3.0474   20.2760 N   0  0  0  0  0  0
   -1.2938    1.9659   23.2958 C   0  0  0  0  0  0
   -0.1499    2.9935   23.5067 C   0  0  0  0  0  0
    0.5711    2.8151   24.8612 C   0  0  0  0  0  0
   -0.3635    2.8409   25.9968 N   0  0  1  0  0  0
   -1.4283    1.8377   25.8493 C   0  0  0  0  0  0
   -2.2169    2.0063   24.5324 C   0  0  0  0  0  0
    0.3249    2.6741   27.2874 C   0  0  0  0  0  0
    1.1144    3.9024   27.7986 C   0  0  0  0  0  0
    2.3653    4.0871   27.1658 O   0  0  0  0  0  0
   -2.6011   -0.4122   21.3881 C   0  0  0  0  0  0
   -2.4111   -1.3148   20.3343 C   0  0  0  0  0  0
   -2.2044   -2.6550   20.6759 C   0  0  0  0  0  0
   -2.2116   -3.1004   21.9600 N   0  0  0  0  0  0
   -2.4340   -2.1540   22.9062 C   0  0  0  0  0  0
   -2.6262   -0.8282   22.6849 N   0  0  0  0  0  0
   -6.1507    0.0949   15.1287 Cl  0  0  0  0  0  0
   -3.0369    3.7966   19.6350 H   0  0  0  0  0  0
   -2.4351    2.0174   17.4755 H   0  0  0  0  0  0
   -3.6713    1.4014   15.4631 H   0  0  0  0  0  0
   -7.0035    0.1677   17.8760 H   0  0  0  0  0  0
   -5.7352    0.7262   19.9195 H   0  0  0  0  0  0
   -0.7937    0.9970   23.3371 H   0  0  0  0  0  0
   -0.5191    4.0195   23.4782 H   0  0  0  0  0  0
    0.6128    2.8883   22.7372 H   0  0  0  0  0  0
    1.3037    3.6141   24.9696 H   0  0  0  0  0  0
    1.1385    1.8825   24.8766 H   0  0  0  0  0  0
   -0.9985    0.8368   25.9172 H   0  0  0  0  0  0
   -2.1220    1.9300   26.6855 H   0  0  0  0  0  0
   -2.9344    1.1857   24.4947 H   0  0  0  0  0  0
   -2.7737    2.9434   24.5899 H   0  0  0  0  0  0
    0.9012    1.7521   27.3791 H   0  0  0  0  0  0
   -0.4670    2.5508   28.0288 H   0  0  0  0  0  0
    1.3045    3.7872   28.8656 H   0  0  0  0  0  0
    0.5151    4.8083   27.6977 H   0  0  0  0  0  0
    2.9598    3.3737   27.4515 H   0  0  0  0  0  0
   -2.3763   -0.9886   19.3047 H   0  0  0  0  0  0
   -2.0349   -3.3988   19.9093 H   0  0  0  0  0  0
   -2.4431   -2.4773   23.9365 H   0  0  0  0  0  0
  1  6  1  0  0  0
  1  2  2  0  0  0
  1 29  1  0  0  0
  2  3  1  0  0  0
  2 30  1  0  0  0
  3  4  2  0  0  0
  3 27  1  0  0  0
  4  5  1  0  0  0
  4 31  1  0  0  0
  5  6  2  0  0  0
  5 32  1  0  0  0
  6  7  1  0  0  0
  7 11  1  0  0  0
  7  8  2  0  0  0
  8  9  1  0  0  0
  8 21  1  0  0  0
  9 12  1  0  0  0
  9 10  2  0  0  0
 10 11  1  0  0  0
 11 28  1  0  0  0
 12 17  1  0  0  0
 12 13  1  0  0  0
 12 33  1  0  0  0
 13 14  1  0  0  0
 13 34  1  0  0  0
 13 35  1  0  0  0
 14 15  1  0  0  0
 14 36  1  0  0  0
 14 37  1  0  0  0
 15 16  1  0  0  0
 15 18  1  0  0  0
 16 17  1  0  0  0
 16 38  1  0  0  0
 16 39  1  0  0  0
 17 40  1  0  0  0
 17 41  1  0  0  0
 18 19  1  0  0  0
 18 42  1  0  0  0
 18 43  1  0  0  0
 19 20  1  0  0  0
 19 44  1  0  0  0
 19 45  1  0  0  0
 20 46  1  0  0  0
 21 26  1  0  0  0
 21 22  2  0  0  0
 22 23  1  0  0  0
 22 47  1  0  0  0
 23 24  2  0  0  0
 23 48  1  0  0  0
 24 25  1  0  0  0
 25 26  2  0  0  0
 25 49  1  0  0  0
M  END
> <s_m_entry_id>
62700

> <s_m_entry_name>
ligand_docking-pose.360

> <s_m_Source_Path>
/home/csk/Desktop/cluster/DUD-E-result/mk14

> <s_m_Source_File>
ligand_docking-pose.sdf

> <i_m_Source_File_Index>
360

> <i_lp_mmshare_version>
53161

> <r_lp_tautomer_probability>
0.5

> <s_lp_Force_Field>
OPLS_2005

> <r_lp_Energy>
26.00516

> <b_lp_Chiralities_Consistent>
1

> <s_lp_Variant>
621083-2

> <s_i_glide_gridfile>
glide-grid_2qd9

> <i_i_glide_lignum>
190

> <i_i_glide_rotatable_bonds>
6

> <r_i_docking_score>
-7.0551927591951

> <r_i_glide_ligand_efficiency>
-0.261303435525744

> <r_i_glide_ligand_efficiency_sa>
-0.78391030571602

> <r_i_glide_ligand_efficiency_ln>
-1.64233256039755

> <r_i_glide_gscore>
-7.0551927591951

> <r_i_glide_lipo>
-3.12485857391805

> <r_i_glide_hbond>
-0.37342066744923

> <r_i_glide_metal>
0

> <r_i_glide_rewards>
-2.01678257871147

> <r_i_glide_evdw>
-31.7040977478027

> <r_i_glide_ecoul>
-3.92016267776489

> <r_i_glide_erotb>
0.659499598848631

> <r_i_glide_esite>
-0.0264012489101119

> <r_i_glide_emodel>
-46.3164209424644

> <r_i_glide_energy>
-35.6242604255676

> <r_i_glide_einternal>
4.81513071060181

> <i_i_glide_confnum>
247

> <i_i_glide_posenum>
150

> <r_i_glide_eff_state_penalty>
0

> <i_f3d_flags>
0

> <s_user_duplicate_titles>
621083

> <s_m_subgroup_title>
dock_pv

> <s_m_subgroupid>
dock_pv1

> <b_m_subgroup_collapsed>
0

$$$$
620984
                    3D
 Schrodinger Suite 2021-1.
 52 56  0  0  1  0            999 V2000
    0.9478    0.3736   23.5141 C   0  0  0  0  0  0
   -0.0217   -0.0521   24.6064 C   0  0  0  0  0  0
    0.5047   -0.3553   25.8605 C   0  0  0  0  0  0
   -0.3179   -0.8086   26.8829 C   0  0  0  0  0  0
   -1.6912   -0.9800   26.6675 C   0  0  0  0  0  0
   -2.2193   -0.6733   25.4048 C   0  0  0  0  0  0
   -1.4075   -0.1878   24.3731 C   0  0  0  0  0  0
   -2.0383    0.2265   23.0928 C   0  0  0  0  0  0
   -1.9854    1.5459   22.7878 C   0  0  0  0  0  0
   -2.4325    2.0165   21.5035 C   0  0  0  0  0  0
   -2.3250    3.1967   20.7825 C   0  0  0  0  0  0
   -2.8371    3.0793   19.5933 N   0  0  0  0  0  0
   -3.2400    1.7987   19.4830 N   0  0  0  0  0  0
   -2.9526    1.0756   20.6334 C   0  0  0  0  0  0
   -3.0212   -0.2930   20.9474 N   0  0  0  0  0  0
   -2.6114   -0.7796   22.1757 C   0  0  0  0  0  0
   -2.7008   -1.9697   22.4953 O   0  0  0  0  0  0
   -3.3597   -1.2539   19.8894 C   0  0  0  0  0  0
   -3.8397    1.4382   18.2647 C   0  0  0  0  0  0
   -3.1535    1.6303   17.0552 C   0  0  0  0  0  0
   -3.7916    1.4131   15.8372 C   0  0  0  0  0  0
   -5.1298    1.0358   15.8172 C   0  0  0  0  0  0
   -5.8145    0.8706   17.0183 C   0  0  0  0  0  0
   -5.1771    1.0432   18.2426 C   0  0  0  0  0  0
   -5.8751    0.8855   19.3927 F   0  0  0  0  0  0
   -2.5894   -1.5142   27.7526 C   0  0  0  0  0  0
   -3.6346   -2.0960   27.4576 O   0  0  0  0  0  0
   -2.1584   -1.3259   29.0165 N   0  0  0  0  0  0
   -2.6937   -1.8539   30.2772 C   0  0  0  0  0  0
   -4.1743   -2.0934   30.4591 C   0  0  0  0  0  0
   -3.2352   -3.2683   30.3521 C   0  0  0  0  0  0
    1.9898    0.3370   23.8397 H   0  0  0  0  0  0
    0.8455   -0.3127   22.6761 H   0  0  0  0  0  0
    0.7360    1.3831   23.1610 H   0  0  0  0  0  0
    1.5642   -0.2627   26.0473 H   0  0  0  0  0  0
    0.1406   -1.0552   27.8302 H   0  0  0  0  0  0
   -3.2792   -0.7893   25.2238 H   0  0  0  0  0  0
   -1.5267    2.2379   23.4803 H   0  0  0  0  0  0
   -1.7952    4.0858   21.0761 H   0  0  0  0  0  0
   -2.6424   -1.1595   19.0748 H   0  0  0  0  0  0
   -3.3367   -2.2957   20.2180 H   0  0  0  0  0  0
   -4.3540   -1.0677   19.4857 H   0  0  0  0  0  0
   -2.1298    1.9730   17.0435 H   0  0  0  0  0  0
   -3.2534    1.5580   14.9116 H   0  0  0  0  0  0
   -5.6337    0.8690   14.8765 H   0  0  0  0  0  0
   -6.8349    0.5492   17.0068 H   0  0  0  0  0  0
   -1.3210   -0.7728   29.1160 H   0  0  0  0  0  0
   -2.1385   -1.4923   31.1443 H   0  0  0  0  0  0
   -4.8346   -1.8815   29.6272 H   0  0  0  0  0  0
   -4.6270   -1.8527   31.4187 H   0  0  0  0  0  0
   -3.0012   -3.8585   31.2370 H   0  0  0  0  0  0
   -3.2386   -3.8795   29.4488 H   0  0  0  0  0  0
  1  2  1  0  0  0
  1 32  1  0  0  0
  1 33  1  0  0  0
  1 34  1  0  0  0
  2  7  1  0  0  0
  2  3  2  0  0  0
  3  4  1  0  0  0
  3 35  1  0  0  0
  4  5  2  0  0  0
  4 36  1  0  0  0
  5  6  1  0  0  0
  5 26  1  0  0  0
  6  7  2  0  0  0
  6 37  1  0  0  0
  7  8  1  0  0  0
  8 16  1  0  0  0
  8  9  2  0  0  0
  9 10  1  0  0  0
  9 38  1  0  0  0
 10 14  2  0  0  0
 10 11  1  0  0  0
 11 12  2  0  0  0
 11 39  1  0  0  0
 12 13  1  0  0  0
 13 14  1  0  0  0
 13 19  1  0  0  0
 14 15  1  0  0  0
 15 16  1  0  0  0
 15 18  1  0  0  0
 16 17  2  0  0  0
 18 40  1  0  0  0
 18 41  1  0  0  0
 18 42  1  0  0  0
 19 24  1  0  0  0
 19 20  2  0  0  0
 20 21  1  0  0  0
 20 43  1  0  0  0
 21 22  2  0  0  0
 21 44  1  0  0  0
 22 23  1  0  0  0
 22 45  1  0  0  0
 23 24  2  0  0  0
 23 46  1  0  0  0
 24 25  1  0  0  0
 26 27  2  0  0  0
 26 28  1  0  0  0
 28 29  1  0  0  0
 28 47  1  0  0  0
 29 31  1  0  0  0
 29 30  1  0  0  0
 29 48  1  0  0  0
 30 31  1  0  0  0
 30 49  1  0  0  0
 30 50  1  0  0  0
 31 51  1  0  0  0
 31 52  1  0  0  0
M  END
> <s_m_entry_id>
62703

> <s_m_entry_name>
ligand_docking-pose.363

> <s_m_Source_Path>
/home/csk/Desktop/cluster/DUD-E-result/mk14

> <s_m_Source_File>
ligand_docking-pose.sdf

> <i_m_Source_File_Index>
363

> <i_lp_mmshare_version>
53161

> <r_lp_tautomer_probability>
1

> <s_lp_Force_Field>
OPLS_2005

> <r_lp_Energy>
59.070373

> <b_lp_Chiralities_Consistent>
1

> <s_lp_Variant>
620984-1

> <s_i_glide_gridfile>
glide-grid_2qd9

> <i_i_glide_lignum>
699

> <i_i_glide_rotatable_bonds>
5

> <r_i_docking_score>
-7.04359682097419

> <r_i_glide_ligand_efficiency>
-0.227212800676587

> <r_i_glide_ligand_efficiency_sa>
-0.713761895204076

> <r_i_glide_ligand_efficiency_ln>
-1.5885469434484

> <r_i_glide_gscore>
-7.04359682097419

> <r_i_glide_lipo>
-3.22719222700142

> <r_i_glide_hbond>
0

> <r_i_glide_metal>
0

> <r_i_glide_rewards>
-2.06529843319522

> <r_i_glide_evdw>
-39.5425300598145

> <r_i_glide_ecoul>
-2.29035258293152

> <r_i_glide_erotb>
0.569573229652894

> <r_i_glide_esite>
0

> <r_i_glide_emodel>
-53.7932486635273

> <r_i_glide_energy>
-41.832882642746

> <r_i_glide_einternal>
5.16622972488403

> <i_i_glide_confnum>
60

> <i_i_glide_posenum>
348

> <r_i_glide_eff_state_penalty>
0

> <i_f3d_flags>
0

> <s_user_duplicate_titles>
620984

> <s_m_subgroup_title>
dock_pv

> <s_m_subgroupid>
dock_pv1

> <b_m_subgroup_collapsed>
0

$$$$
146397
                    3D
 Schrodinger Suite 2021-1.
 39 42  0  0  1  0            999 V2000
   -5.0715    1.4436   15.6374 C   0  0  0  0  0  0
   -5.8092    1.0006   16.7265 C   0  0  0  0  0  0
   -5.2160    0.8870   17.9755 C   0  0  0  0  0  0
   -3.8635    1.1833   18.1207 C   0  0  0  0  0  0
   -3.1208    1.6279   17.0211 C   0  0  0  0  0  0
   -3.7266    1.7591   15.7805 C   0  0  0  0  0  0
   -3.2547    0.9195   19.4410 C   0  0  0  0  0  0
   -2.8149   -0.2682   19.9999 C   0  0  0  0  0  0
   -2.3361   -0.0112   21.2920 C   0  0  0  0  0  0
   -2.5862    1.3339   21.5624 C   0  0  0  0  0  0
   -3.0949    1.8770   20.4062 N   0  0  0  0  0  0
   -2.3766    2.1196   22.8184 C   0  0  0  0  0  0
   -1.6150    3.2870   22.7352 C   0  0  0  0  0  0
   -1.3134    4.0306   23.8760 C   0  0  0  0  0  0
   -1.8009    3.6281   25.1168 C   0  0  0  0  0  0
   -2.5831    2.4794   25.2136 C   0  0  0  0  0  0
   -2.8676    1.7205   24.0767 C   0  0  0  0  0  0
   -3.8475    0.3096   24.2760 Cl  0  0  0  0  0  0
   -1.7371   -0.9842   22.2347 C   0  0  0  0  0  0
   -2.3805   -2.2016   22.4569 C   0  0  0  0  0  0
   -1.9031   -3.0171   23.4760 C   0  0  0  0  0  0
   -0.8187   -2.7130   24.2332 N   0  0  0  0  0  0
   -0.1719   -1.5516   23.9728 C   0  0  0  0  0  0
   -0.6039   -0.6589   22.9930 C   0  0  0  0  0  0
   -3.3669    2.8415   20.2987 H   0  0  0  0  0  0
   -5.5484    1.5305   14.6760 H   0  0  0  0  0  0
   -6.8350    0.7216   16.5984 H   0  0  0  0  0  0
   -5.7954    0.5194   18.8110 H   0  0  0  0  0  0
   -2.0661    1.8441   17.0760 H   0  0  0  0  0  0
   -3.1443    2.0870   14.9337 H   0  0  0  0  0  0
   -2.8121   -1.2300   19.5070 H   0  0  0  0  0  0
   -1.2350    3.6202   21.7813 H   0  0  0  0  0  0
   -0.6967    4.9144   23.7983 H   0  0  0  0  0  0
   -1.5678    4.1991   26.0040 H   0  0  0  0  0  0
   -2.9612    2.1694   26.1772 H   0  0  0  0  0  0
   -3.2699   -2.4712   21.9063 H   0  0  0  0  0  0
   -2.4350   -3.9130   23.7350 H   0  0  0  0  0  0
    0.6909   -1.3324   24.5862 H   0  0  0  0  0  0
   -0.0913    0.2808   22.8518 H   0  0  0  0  0  0
  1  6  1  0  0  0
  1  2  2  0  0  0
  1 26  1  0  0  0
  2  3  1  0  0  0
  2 27  1  0  0  0
  3  4  2  0  0  0
  3 28  1  0  0  0
  4  5  1  0  0  0
  4  7  1  0  0  0
  5  6  2  0  0  0
  5 29  1  0  0  0
  6 30  1  0  0  0
  7 11  1  0  0  0
  7  8  2  0  0  0
  8  9  1  0  0  0
  8 31  1  0  0  0
  9 10  2  0  0  0
  9 19  1  0  0  0
 10 11  1  0  0  0
 10 12  1  0  0  0
 11 25  1  0  0  0
 12 17  1  0  0  0
 12 13  2  0  0  0
 13 14  1  0  0  0
 13 32  1  0  0  0
 14 15  2  0  0  0
 14 33  1  0  0  0
 15 16  1  0  0  0
 15 34  1  0  0  0
 16 17  2  0  0  0
 16 35  1  0  0  0
 17 18  1  0  0  0
 19 24  1  0  0  0
 19 20  2  0  0  0
 20 21  1  0  0  0
 20 36  1  0  0  0
 21 22  2  0  0  0
 21 37  1  0  0  0
 22 23  1  0  0  0
 23 24  2  0  0  0
 23 38  1  0  0  0
 24 39  1  0  0  0
M  END
> <s_m_entry_id>
62705

> <s_m_entry_name>
ligand_docking-pose.365

> <s_m_Source_Path>
/home/csk/Desktop/cluster/DUD-E-result/mk14

> <s_m_Source_File>
ligand_docking-pose.sdf

> <i_m_Source_File_Index>
365

> <i_lp_mmshare_version>
53161

> <r_lp_tautomer_probability>
1

> <s_lp_Force_Field>
OPLS_2005

> <r_lp_Energy>
16.857548

> <b_lp_Chiralities_Consistent>
1

> <s_lp_Variant>
146397-1

> <s_i_glide_gridfile>
glide-grid_2qd9

> <i_i_glide_lignum>
133

> <i_i_glide_rotatable_bonds>
3

> <r_i_docking_score>
-7.03023756140286

> <r_i_glide_ligand_efficiency>
-0.292926565058453

> <r_i_glide_ligand_efficiency_sa>
-0.844946424279261

> <r_i_glide_ligand_efficiency_ln>
-1.68265844502472

> <r_i_glide_gscore>
-7.03023756140286

> <r_i_glide_lipo>
-3.67258872201748

> <r_i_glide_hbond>
-0.159987405785179

> <r_i_glide_metal>
0

> <r_i_glide_rewards>
-2.09644308919521

> <r_i_glide_evdw>
-35.902099609375

> <r_i_glide_ecoul>
1.18770480155945

> <r_i_glide_erotb>
0.515730915829838

> <r_i_glide_esite>
0

> <r_i_glide_emodel>
-44.2190927367007

> <r_i_glide_energy>
-34.7143948078156

> <r_i_glide_einternal>
7.70891761779785

> <i_i_glide_confnum>
24

> <i_i_glide_posenum>
4

> <r_i_glide_eff_state_penalty>
0

> <i_f3d_flags>
0

> <s_user_duplicate_titles>
146397

> <s_m_subgroup_title>
dock_pv

> <s_m_subgroupid>
dock_pv1

> <b_m_subgroup_collapsed>
0

$$$$
210995
                    3D
 Schrodinger Suite 2021-1.
 51 53  0  0  1  0            999 V2000
    1.3947    5.8853   26.4925 C   0  0  0  0  0  0
    1.4077    4.5917   25.6586 C   0  0  0  0  0  0
    0.7914    4.7621   24.3327 N   0  0  0  0  0  0
    1.6462    5.5606   23.4439 C   0  0  0  0  0  0
    0.8336    6.1483   22.2760 C   0  0  0  0  0  0
    0.5255    3.4422   23.7420 C   0  0  0  0  0  0
   -0.7903    2.8512   24.2920 C   0  0  0  0  0  0
   -1.3654    1.6484   23.5075 C   0  0  0  0  0  0
   -2.0351    1.9685   22.2341 N   0  0  0  0  0  0
   -2.0351    3.1644   21.5668 C   0  0  0  0  0  0
   -2.6454    3.1320   20.4064 N   0  0  0  0  0  0
   -3.0687    1.8843   20.2726 C   0  0  0  0  0  0
   -2.6558    1.0977   21.3563 C   0  0  0  0  0  0
   -2.6627   -0.3770   21.5343 C   0  0  0  0  0  0
   -2.2412   -1.1751   20.4646 C   0  0  0  0  0  0
   -2.0337   -2.5351   20.6863 C   0  0  0  0  0  0
   -2.2228   -3.1131   21.8968 N   0  0  0  0  0  0
   -2.6866   -2.3387   22.9064 C   0  0  0  0  0  0
   -2.9524   -0.9826   22.7601 C   0  0  0  0  0  0
   -3.8729    1.4786   19.0751 C   0  0  0  0  0  0
   -3.3936    1.6869   17.7735 C   0  0  0  0  0  0
   -4.1761    1.3803   16.6699 C   0  0  0  0  0  0
   -5.4569    0.8868   16.8610 C   0  0  0  0  0  0
   -5.9484    0.6534   18.1471 C   0  0  0  0  0  0
   -5.1412    0.9165   19.2544 C   0  0  0  0  0  0
   -6.1876    0.5570   15.7776 F   0  0  0  0  0  0
    1.7229    5.6802   27.5112 H   0  0  0  0  0  0
    0.3894    6.3052   26.5494 H   0  0  0  0  0  0
    2.0571    6.6530   26.0934 H   0  0  0  0  0  0
    2.4266    4.2104   25.5644 H   0  0  0  0  0  0
    0.8599    3.8400   26.2276 H   0  0  0  0  0  0
    2.0907    6.3982   23.9796 H   0  0  0  0  0  0
    2.4833    4.9655   23.0732 H   0  0  0  0  0  0
    1.4557    6.8122   21.6757 H   0  0  0  0  0  0
    0.4450    5.3833   21.6061 H   0  0  0  0  0  0
   -0.0098    6.7351   22.6390 H   0  0  0  0  0  0
    0.4953    3.4682   22.6579 H   0  0  0  0  0  0
    1.3538    2.7624   23.9542 H   0  0  0  0  0  0
   -0.5576    2.4506   25.2792 H   0  0  0  0  0  0
   -1.5392    3.6226   24.4806 H   0  0  0  0  0  0
   -0.5789    0.9229   23.2942 H   0  0  0  0  0  0
   -2.0885    1.1607   24.1569 H   0  0  0  0  0  0
   -1.4978    3.9963   21.9906 H   0  0  0  0  0  0
   -2.0350   -0.7444   19.4954 H   0  0  0  0  0  0
   -1.7001   -3.1826   19.8873 H   0  0  0  0  0  0
   -2.8349   -2.8209   23.8599 H   0  0  0  0  0  0
   -3.3313   -0.4201   23.5980 H   0  0  0  0  0  0
   -2.4351    2.1386   17.5827 H   0  0  0  0  0  0
   -3.8031    1.5468   15.6696 H   0  0  0  0  0  0
   -6.9360    0.2365   18.2765 H   0  0  0  0  0  0
   -5.5164    0.7313   20.2511 H   0  0  0  0  0  0
  1  2  1  0  0  0
  1 27  1  0  0  0
  1 28  1  0  0  0
  1 29  1  0  0  0
  2  3  1  0  0  0
  2 30  1  0  0  0
  2 31  1  0  0  0
  3  4  1  0  0  0
  3  6  1  0  0  0
  4  5  1  0  0  0
  4 32  1  0  0  0
  4 33  1  0  0  0
  5 34  1  0  0  0
  5 35  1  0  0  0
  5 36  1  0  0  0
  6  7  1  0  0  0
  6 37  1  0  0  0
  6 38  1  0  0  0
  7  8  1  0  0  0
  7 39  1  0  0  0
  7 40  1  0  0  0
  8  9  1  0  0  0
  8 41  1  0  0  0
  8 42  1  0  0  0
  9 13  1  0  0  0
  9 10  1  0  0  0
 10 11  2  0  0  0
 10 43  1  0  0  0
 11 12  1  0  0  0
 12 13  2  0  0  0
 12 20  1  0  0  0
 13 14  1  0  0  0
 14 19  1  0  0  0
 14 15  2  0  0  0
 15 16  1  0  0  0
 15 44  1  0  0  0
 16 17  2  0  0  0
 16 45  1  0  0  0
 17 18  1  0  0  0
 18 19  2  0  0  0
 18 46  1  0  0  0
 19 47  1  0  0  0
 20 25  1  0  0  0
 20 21  2  0  0  0
 21 22  1  0  0  0
 21 48  1  0  0  0
 22 23  2  0  0  0
 22 49  1  0  0  0
 23 24  1  0  0  0
 23 26  1  0  0  0
 24 25  2  0  0  0
 24 50  1  0  0  0
 25 51  1  0  0  0
M  END
> <s_m_entry_id>
62709

> <s_m_entry_name>
ligand_docking-pose.369

> <s_m_Source_Path>
/home/csk/Desktop/cluster/DUD-E-result/mk14

> <s_m_Source_File>
ligand_docking-pose.sdf

> <i_m_Source_File_Index>
369

> <i_lp_mmshare_version>
53161

> <r_lp_tautomer_probability>
1

> <s_lp_Force_Field>
OPLS_2005

> <r_lp_Energy>
24.122651

> <b_lp_Chiralities_Consistent>
1

> <s_lp_Variant>
210995-1

> <s_i_glide_gridfile>
glide-grid_2qd9

> <i_i_glide_lignum>
2179

> <i_i_glide_rotatable_bonds>
8

> <r_i_docking_score>
-7.01524508428584

> <r_i_glide_ligand_efficiency>
-0.269817118626378

> <r_i_glide_ligand_efficiency_sa>
-0.799332152251551

> <r_i_glide_ligand_efficiency_ln>
-1.6475072891479

> <r_i_glide_gscore>
-7.01524508428584

> <r_i_glide_lipo>
-3.34988657395889

> <r_i_glide_hbond>
-0.218697076694729

> <r_i_glide_metal>
0

> <r_i_glide_rewards>
-2.48071064638691

> <r_i_glide_evdw>
-29.8625202178955

> <r_i_glide_ecoul>
-2.38897609710693

> <r_i_glide_erotb>
0.921834012528225

> <r_i_glide_esite>
-0.0363123743127142

> <r_i_glide_emodel>
-38.6813148558147

> <r_i_glide_energy>
-32.2514963150024

> <r_i_glide_einternal>
8.96951198577881

> <i_i_glide_confnum>
64

> <i_i_glide_posenum>
283

> <r_i_glide_eff_state_penalty>
0

> <i_f3d_flags>
0

> <s_user_duplicate_titles>
210995

> <s_m_subgroup_title>
dock_pv

> <s_m_subgroupid>
dock_pv1

> <b_m_subgroup_collapsed>
0

$$$$
621247
                    3D
 Schrodinger Suite 2021-1.
 52 55  0  0  1  0            999 V2000
   -3.0476    5.8998   27.9693 C   0  0  0  0  0  0
   -2.3777    4.9002   27.1376 N   0  0  0  0  0  0
   -1.9702    3.6927   27.8667 C   0  0  0  0  0  0
   -1.9580    5.1805   25.8761 C   0  0  0  0  0  0
   -1.7075    6.3344   25.5114 O   0  0  0  0  0  0
   -1.8530    4.1370   25.0130 N   0  0  0  0  0  0
   -0.7813    4.1809   23.9939 C   0  0  0  0  0  0
   -0.3279    2.7289   23.7190 C   0  0  0  0  0  0
   -1.4903    1.7680   23.3621 C   0  0  0  0  0  0
   -2.4744    1.8074   24.5498 C   0  0  0  0  0  0
   -3.0121    3.2255   24.8277 C   0  0  0  0  0  0
   -2.1730    1.9753   21.9957 C   0  0  0  0  0  0
   -2.7347    1.0065   21.1219 C   0  0  0  0  0  0
   -3.2360    1.7248   20.0295 C   0  0  0  0  0  0
   -2.8344    3.0023   20.2761 N   0  0  0  0  0  0
   -2.2345    3.1685   21.4490 N   0  0  0  0  0  0
   -3.9937    1.3842   18.7968 C   0  0  0  0  0  0
   -3.4249    1.6140   17.5405 C   0  0  0  0  0  0
   -4.1203    1.2871   16.3841 C   0  0  0  0  0  0
   -5.3953    0.7423   16.4860 C   0  0  0  0  0  0
   -6.0131    0.5968   17.7314 C   0  0  0  0  0  0
   -5.2941    0.8864   18.8913 C   0  0  0  0  0  0
   -6.1283    0.0877   15.0717 Cl  0  0  0  0  0  0
   -2.6968   -0.4694   21.3182 C   0  0  0  0  0  0
   -2.3163   -1.3231   20.2768 C   0  0  0  0  0  0
   -2.0349   -2.6468   20.6224 C   0  0  0  0  0  0
   -2.1445   -3.1133   21.8936 N   0  0  0  0  0  0
   -2.5656   -2.2194   22.8205 C   0  0  0  0  0  0
   -2.8520   -0.9147   22.5949 N   0  0  0  0  0  0
   -2.9854    3.7701   19.6433 H   0  0  0  0  0  0
   -3.4145    6.7451   27.3864 H   0  0  0  0  0  0
   -2.3678    6.2810   28.7310 H   0  0  0  0  0  0
   -3.9047    5.4522   28.4725 H   0  0  0  0  0  0
   -1.4012    2.9944   27.2517 H   0  0  0  0  0  0
   -1.3382    3.9643   28.7127 H   0  0  0  0  0  0
   -2.8351    3.1603   28.2557 H   0  0  0  0  0  0
   -1.1391    4.6524   23.0841 H   0  0  0  0  0  0
    0.0981    4.7049   24.3753 H   0  0  0  0  0  0
    0.4999    2.6623   23.0170 H   0  0  0  0  0  0
    0.1116    2.3942   24.6619 H   0  0  0  0  0  0
   -1.0343    0.7775   23.3784 H   0  0  0  0  0  0
   -1.9391    1.5211   25.4576 H   0  0  0  0  0  0
   -3.2625    1.0609   24.4485 H   0  0  0  0  0  0
   -3.6384    3.1593   25.7192 H   0  0  0  0  0  0
   -3.6016    3.5615   23.9751 H   0  0  0  0  0  0
   -2.4360    2.0275   17.4469 H   0  0  0  0  0  0
   -3.6509    1.4059   15.4179 H   0  0  0  0  0  0
   -6.9996    0.1616   17.8077 H   0  0  0  0  0  0
   -5.7469    0.7203   19.8582 H   0  0  0  0  0  0
   -2.1759   -0.9671   19.2672 H   0  0  0  0  0  0
   -1.7116   -3.3590   19.8766 H   0  0  0  0  0  0
   -2.6616   -2.5668   23.8376 H   0  0  0  0  0  0
  1  2  1  0  0  0
  1 31  1  0  0  0
  1 32  1  0  0  0
  1 33  1  0  0  0
  2  3  1  0  0  0
  2  4  1  0  0  0
  3 34  1  0  0  0
  3 35  1  0  0  0
  3 36  1  0  0  0
  4  5  2  0  0  0
  4  6  1  0  0  0
  6 11  1  0  0  0
  6  7  1  0  0  0
  7  8  1  0  0  0
  7 37  1  0  0  0
  7 38  1  0  0  0
  8  9  1  0  0  0
  8 39  1  0  0  0
  8 40  1  0  0  0
  9 10  1  0  0  0
  9 41  1  0  0  0
  9 12  1  0  0  0
 10 11  1  0  0  0
 10 42  1  0  0  0
 10 43  1  0  0  0
 11 44  1  0  0  0
 11 45  1  0  0  0
 12 16  2  0  0  0
 12 13  1  0  0  0
 13 14  2  0  0  0
 13 24  1  0  0  0
 14 15  1  0  0  0
 14 17  1  0  0  0
 15 16  1  0  0  0
 15 30  1  0  0  0
 17 22  1  0  0  0
 17 18  2  0  0  0
 18 19  1  0  0  0
 18 46  1  0  0  0
 19 20  2  0  0  0
 19 47  1  0  0  0
 20 21  1  0  0  0
 20 23  1  0  0  0
 21 22  2  0  0  0
 21 48  1  0  0  0
 22 49  1  0  0  0
 24 29  1  0  0  0
 24 25  2  0  0  0
 25 26  1  0  0  0
 25 50  1  0  0  0
 26 27  2  0  0  0
 26 51  1  0  0  0
 27 28  1  0  0  0
 28 29  2  0  0  0
 28 52  1  0  0  0
M  END
> <s_m_entry_id>
62710

> <s_m_entry_name>
ligand_docking-pose.370

> <s_m_Source_Path>
/home/csk/Desktop/cluster/DUD-E-result/mk14

> <s_m_Source_File>
ligand_docking-pose.sdf

> <i_m_Source_File_Index>
370

> <i_lp_mmshare_version>
53161

> <r_lp_tautomer_probability>
0.5

> <s_lp_Force_Field>
OPLS_2005

> <r_lp_Energy>
47.11896

> <b_lp_Chiralities_Consistent>
1

> <s_lp_Variant>
621247-2

> <s_i_glide_gridfile>
glide-grid_2qd9

> <i_i_glide_lignum>
2465

> <i_i_glide_rotatable_bonds>
5

> <r_i_docking_score>
-7.01448977957034

> <r_i_glide_ligand_efficiency>
-0.241878957916219

> <r_i_glide_ligand_efficiency_sa>
-0.743128791351246

> <r_i_glide_ligand_efficiency_ln>
-1.60614028740802

> <r_i_glide_gscore>
-7.01448977957034

> <r_i_glide_lipo>
-3.27351684073355

> <r_i_glide_hbond>
-0.245733013394708

> <r_i_glide_metal>
0

> <r_i_glide_rewards>
-1.83414702982455

> <r_i_glide_evdw>
-35.9656867980957

> <r_i_glide_ecoul>
-1.45959258079529

> <r_i_glide_erotb>
0.46682569925255

> <r_i_glide_esite>
-0.110695367846003

> <r_i_glide_emodel>
-41.3484843513095

> <r_i_glide_energy>
-37.425279378891

> <r_i_glide_einternal>
15.4965085983276

> <i_i_glide_confnum>
154

> <i_i_glide_posenum>
12

> <r_i_glide_eff_state_penalty>
0

> <i_f3d_flags>
0

> <s_user_duplicate_titles>
621247

> <s_m_subgroup_title>
dock_pv

> <s_m_subgroupid>
dock_pv1

> <b_m_subgroup_collapsed>
0

$$$$
146807
                    3D
 Schrodinger Suite 2021-1.
 39 42  0  0  1  0            999 V2000
   -5.0679    1.4369   15.6433 C   0  0  0  0  0  0
   -5.8061    0.9985   16.7353 C   0  0  0  0  0  0
   -5.2108    0.8870   17.9853 C   0  0  0  0  0  0
   -3.8570    1.1817   18.1335 C   0  0  0  0  0  0
   -3.1170    1.6248   17.0300 C   0  0  0  0  0  0
   -3.7238    1.7547   15.7892 C   0  0  0  0  0  0
   -3.2506    0.9219   19.4614 C   0  0  0  0  0  0
   -2.8349   -0.2680   20.0393 C   0  0  0  0  0  0
   -2.3659   -0.0081   21.3358 C   0  0  0  0  0  0
   -2.5903    1.3423   21.5875 C   0  0  0  0  0  0
   -3.0739    1.8859   20.4194 N   0  0  0  0  0  0
   -2.3862    2.1193   22.8476 C   0  0  0  0  0  0
   -1.6232    3.2870   22.8085 C   0  0  0  0  0  0
   -1.3724    4.0132   23.9731 C   0  0  0  0  0  0
   -1.9015    3.5861   25.1884 C   0  0  0  0  0  0
   -2.6666    2.4245   25.2419 C   0  0  0  0  0  0
   -2.8999    1.6852   24.0826 C   0  0  0  0  0  0
   -3.6350    0.5530   24.1762 F   0  0  0  0  0  0
   -1.6773    4.3024   26.3118 F   0  0  0  0  0  0
   -1.7857   -0.9738   22.2988 C   0  0  0  0  0  0
   -0.6369   -0.6555   23.0375 C   0  0  0  0  0  0
   -0.1903   -1.5516   24.0079 C   0  0  0  0  0  0
   -0.8339   -2.7130   24.2758 N   0  0  0  0  0  0
   -1.9371   -3.0076   23.5423 C   0  0  0  0  0  0
   -2.4350   -2.1842   22.5384 C   0  0  0  0  0  0
   -3.3278    2.8542   20.3015 H   0  0  0  0  0  0
   -5.5388    1.5200   14.6760 H   0  0  0  0  0  0
   -6.8350    0.7237   16.6101 H   0  0  0  0  0  0
   -5.7915    0.5234   18.8215 H   0  0  0  0  0  0
   -2.0622    1.8423   17.0760 H   0  0  0  0  0  0
   -3.1417    2.0856   14.9431 H   0  0  0  0  0  0
   -2.8453   -1.2352   19.5574 H   0  0  0  0  0  0
   -1.2050    3.6350   21.8758 H   0  0  0  0  0  0
   -0.7635    4.9046   23.9373 H   0  0  0  0  0  0
   -3.0712    2.0906   26.1856 H   0  0  0  0  0  0
   -0.1157    0.2769   22.8803 H   0  0  0  0  0  0
    0.6877   -1.3391   24.6019 H   0  0  0  0  0  0
   -2.4538   -3.9130   23.7999 H   0  0  0  0  0  0
   -3.3318   -2.4516   21.9988 H   0  0  0  0  0  0
  1  6  1  0  0  0
  1  2  2  0  0  0
  1 27  1  0  0  0
  2  3  1  0  0  0
  2 28  1  0  0  0
  3  4  2  0  0  0
  3 29  1  0  0  0
  4  5  1  0  0  0
  4  7  1  0  0  0
  5  6  2  0  0  0
  5 30  1  0  0  0
  6 31  1  0  0  0
  7 11  1  0  0  0
  7  8  2  0  0  0
  8  9  1  0  0  0
  8 32  1  0  0  0
  9 10  2  0  0  0
  9 20  1  0  0  0
 10 11  1  0  0  0
 10 12  1  0  0  0
 11 26  1  0  0  0
 12 17  1  0  0  0
 12 13  2  0  0  0
 13 14  1  0  0  0
 13 33  1  0  0  0
 14 15  2  0  0  0
 14 34  1  0  0  0
 15 16  1  0  0  0
 15 19  1  0  0  0
 16 17  2  0  0  0
 16 35  1  0  0  0
 17 18  1  0  0  0
 20 25  1  0  0  0
 20 21  2  0  0  0
 21 22  1  0  0  0
 21 36  1  0  0  0
 22 23  2  0  0  0
 22 37  1  0  0  0
 23 24  1  0  0  0
 24 25  2  0  0  0
 24 38  1  0  0  0
 25 39  1  0  0  0
M  END
> <s_m_entry_id>
62711

> <s_m_entry_name>
ligand_docking-pose.371

> <s_m_Source_Path>
/home/csk/Desktop/cluster/DUD-E-result/mk14

> <s_m_Source_File>
ligand_docking-pose.sdf

> <i_m_Source_File_Index>
371

> <i_lp_mmshare_version>
53161

> <r_lp_tautomer_probability>
1

> <s_lp_Force_Field>
OPLS_2005

> <r_lp_Energy>
15.668297

> <b_lp_Chiralities_Consistent>
1

> <s_lp_Variant>
146807-1

> <s_i_glide_gridfile>
glide-grid_2qd9

> <i_i_glide_lignum>
147

> <i_i_glide_rotatable_bonds>
3

> <r_i_docking_score>
-7.01239280139937

> <r_i_glide_ligand_efficiency>
-0.280495712055975

> <r_i_glide_ligand_efficiency_sa>
-0.820174436664305

> <r_i_glide_ligand_efficiency_ln>
-1.66214723838629

> <r_i_glide_gscore>
-7.01239280139937

> <r_i_glide_lipo>
-3.6420285732418

> <r_i_glide_hbond>
-0.168273402843345

> <r_i_glide_metal>
0

> <r_i_glide_rewards>
-2.16917861905555

> <r_i_glide_evdw>
-35.7901420593262

> <r_i_glide_ecoul>
1.71924889087677

> <r_i_glide_erotb>
0.511523140290964

> <r_i_glide_esite>
-0.0128155772148456

> <r_i_glide_emodel>
-40.9901114864831

> <r_i_glide_energy>
-34.0708931684494

> <r_i_glide_einternal>
8.66847610473633

> <i_i_glide_confnum>
5

> <i_i_glide_posenum>
313

> <r_i_glide_eff_state_penalty>
0

> <i_f3d_flags>
0

> <s_user_duplicate_titles>
146807

> <s_m_subgroup_title>
dock_pv

> <s_m_subgroupid>
dock_pv1

> <b_m_subgroup_collapsed>
0

$$$$
146537
                    3D
 Schrodinger Suite 2021-1.
 39 42  0  0  1  0            999 V2000
   -5.0799    1.5652   15.6474 C   0  0  0  0  0  0
   -5.8248    0.9901   16.6708 C   0  0  0  0  0  0
   -5.2750    0.8926   17.9406 C   0  0  0  0  0  0
   -3.9872    1.3748   18.1839 C   0  0  0  0  0  0
   -3.2354    1.9393   17.1466 C   0  0  0  0  0  0
   -3.7892    2.0361   15.8755 C   0  0  0  0  0  0
   -3.4740    1.2034   19.5584 C   0  0  0  0  0  0
   -3.3980    0.0333   20.2623 C   0  0  0  0  0  0
   -2.8354    0.2653   21.5207 C   0  0  0  0  0  0
   -2.7433    1.6600   21.6655 C   0  0  0  0  0  0
   -3.0309    2.1798   20.4151 N   0  0  0  0  0  0
   -2.4229    2.5218   22.8545 C   0  0  0  0  0  0
   -1.3922    3.4692   22.8432 C   0  0  0  0  0  0
   -1.1172    4.2321   23.9750 C   0  0  0  0  0  0
   -1.9014    4.0849   25.1155 C   0  0  0  0  0  0
   -2.9563    3.1785   25.1314 C   0  0  0  0  0  0
   -3.2126    2.4022   24.0042 C   0  0  0  0  0  0
   -1.6582    4.8504   26.2013 F   0  0  0  0  0  0
   -2.4426   -0.8601   22.4118 C   0  0  0  0  0  0
   -1.9952   -2.0207   21.7667 C   0  0  0  0  0  0
   -1.6117   -3.1102   22.5253 C   0  0  0  0  0  0
   -1.6213   -3.0982   23.8764 N   0  0  0  0  0  0
   -2.0483   -1.9772   24.5062 C   0  0  0  0  0  0
   -2.4685   -0.8444   23.8130 C   0  0  0  0  0  0
   -3.0082    3.1615   20.1895 H   0  0  0  0  0  0
   -5.5219    1.6590   14.6733 H   0  0  0  0  0  0
   -6.8293    0.6308   16.4880 H   0  0  0  0  0  0
   -5.8594    0.4463   18.7328 H   0  0  0  0  0  0
   -2.2521    2.3431   17.3026 H   0  0  0  0  0  0
   -3.2219    2.4957   15.0802 H   0  0  0  0  0  0
   -3.6698   -0.9333   19.8579 H   0  0  0  0  0  0
   -0.8210    3.6702   21.9537 H   0  0  0  0  0  0
   -0.3117    4.9515   23.9623 H   0  0  0  0  0  0
   -3.5705    3.0791   26.0147 H   0  0  0  0  0  0
   -4.0350    1.7060   24.0313 H   0  0  0  0  0  0
   -1.9208   -2.0885   20.6921 H   0  0  0  0  0  0
   -1.2325   -3.9863   22.0277 H   0  0  0  0  0  0
   -2.0406   -1.9950   25.5868 H   0  0  0  0  0  0
   -2.7917    0.0057   24.3817 H   0  0  0  0  0  0
  1  6  1  0  0  0
  1  2  2  0  0  0
  1 26  1  0  0  0
  2  3  1  0  0  0
  2 27  1  0  0  0
  3  4  2  0  0  0
  3 28  1  0  0  0
  4  5  1  0  0  0
  4  7  1  0  0  0
  5  6  2  0  0  0
  5 29  1  0  0  0
  6 30  1  0  0  0
  7 11  1  0  0  0
  7  8  2  0  0  0
  8  9  1  0  0  0
  8 31  1  0  0  0
  9 10  2  0  0  0
  9 19  1  0  0  0
 10 11  1  0  0  0
 10 12  1  0  0  0
 11 25  1  0  0  0
 12 17  1  0  0  0
 12 13  2  0  0  0
 13 14  1  0  0  0
 13 32  1  0  0  0
 14 15  2  0  0  0
 14 33  1  0  0  0
 15 16  1  0  0  0
 15 18  1  0  0  0
 16 17  2  0  0  0
 16 34  1  0  0  0
 17 35  1  0  0  0
 19 24  1  0  0  0
 19 20  2  0  0  0
 20 21  1  0  0  0
 20 36  1  0  0  0
 21 22  2  0  0  0
 21 37  1  0  0  0
 22 23  1  0  0  0
 23 24  2  0  0  0
 23 38  1  0  0  0
 24 39  1  0  0  0
M  END
> <s_m_entry_id>
62712

> <s_m_entry_name>
ligand_docking-pose.372

> <s_m_Source_Path>
/home/csk/Desktop/cluster/DUD-E-result/mk14

> <s_m_Source_File>
ligand_docking-pose.sdf

> <i_m_Source_File_Index>
372

> <i_lp_mmshare_version>
53161

> <r_lp_tautomer_probability>
1

> <s_lp_Force_Field>
OPLS_2005

> <r_lp_Energy>
15.116277

> <b_lp_Chiralities_Consistent>
1

> <s_lp_Variant>
146537-1

> <s_i_glide_gridfile>
glide-grid_2qd9

> <i_i_glide_lignum>
143

> <i_i_glide_rotatable_bonds>
3

> <r_i_docking_score>
-7.00669900977776

> <r_i_glide_ligand_efficiency>
-0.291945792074074

> <r_i_glide_ligand_efficiency_sa>
-0.842117385451679

> <r_i_glide_ligand_efficiency_ln>
-1.67702458950708

> <r_i_glide_gscore>
-7.00669900977776

> <r_i_glide_lipo>
-3.26650335169373

> <r_i_glide_hbond>
-0.348010785501296

> <r_i_glide_metal>
0

> <r_i_glide_rewards>
-2.23340984528043

> <r_i_glide_evdw>
-29.0895671844482

> <r_i_glide_ecoul>
-1.65624094009399

> <r_i_glide_erotb>
0.564277739294026

> <r_i_glide_esite>
-0.0201382663598245

> <r_i_glide_emodel>
-39.120105499135

> <r_i_glide_energy>
-30.7458081245422

> <r_i_glide_einternal>
5.72652721405029

> <i_i_glide_confnum>
15

> <i_i_glide_posenum>
99

> <r_i_glide_eff_state_penalty>
0

> <i_f3d_flags>
0

> <s_user_duplicate_titles>
146537

> <s_m_subgroup_title>
dock_pv

> <s_m_subgroupid>
dock_pv1

> <b_m_subgroup_collapsed>
0

$$$$
621016
                    3D
 Schrodinger Suite 2021-1.
 52 55  0  0  1  0            999 V2000
   -1.8279   -1.5027   28.7908 C   0  0  0  0  0  0
   -2.7608   -1.5144   27.7105 O   0  0  0  0  0  0
   -2.7656   -0.3234   26.9198 C   0  0  0  0  0  0
   -1.5358   -0.2130   25.9945 C   0  0  0  0  0  0
   -0.9151   -1.2372   25.6970 O   0  0  0  0  0  0
   -1.1074    1.0295   25.6455 N   0  0  0  0  0  0
   -1.9556    2.2332   25.6904 C   0  0  0  0  0  0
   -2.6663    2.3795   24.3243 C   0  0  0  0  0  0
   -1.7300    2.1489   23.1039 C   0  0  0  0  0  0
   -0.4569    1.2760   23.3159 C   0  0  0  0  0  0
    0.0573    1.2003   24.7710 C   0  0  0  0  0  0
   -2.3668    2.1391   21.7169 C   0  0  0  0  0  0
   -2.8290    1.0745   20.8956 C   0  0  0  0  0  0
   -3.2353    1.7009   19.7067 C   0  0  0  0  0  0
   -2.8557    2.9973   19.8763 N   0  0  0  0  0  0
   -2.4056    3.2863   21.0798 N   0  0  0  0  0  0
   -3.8944    1.2891   18.4372 C   0  0  0  0  0  0
   -3.2571    1.4066   17.1904 C   0  0  0  0  0  0
   -3.9402    1.0797   16.0264 C   0  0  0  0  0  0
   -5.2614    0.6546   16.1026 C   0  0  0  0  0  0
   -5.9233    0.6031   17.3295 C   0  0  0  0  0  0
   -5.2283    0.8870   18.5011 C   0  0  0  0  0  0
   -6.0350    0.0865   14.6760 Cl  0  0  0  0  0  0
   -2.7566   -0.3851   21.2115 C   0  0  0  0  0  0
   -3.0070   -0.8707   22.5013 C   0  0  0  0  0  0
   -2.7119   -2.2026   22.7954 C   0  0  0  0  0  0
   -2.2270   -3.0731   21.8759 N   0  0  0  0  0  0
   -2.0354   -2.6075   20.6153 C   0  0  0  0  0  0
   -2.2914   -1.2851   20.2441 C   0  0  0  0  0  0
   -2.9492    3.7004   19.1629 H   0  0  0  0  0  0
   -2.0522   -2.3130   29.4791 H   0  0  0  0  0  0
   -1.8842   -0.5801   29.3697 H   0  0  0  0  0  0
   -0.8036   -1.6285   28.4391 H   0  0  0  0  0  0
   -3.6434   -0.3378   26.2761 H   0  0  0  0  0  0
   -2.8457    0.5341   27.5866 H   0  0  0  0  0  0
   -2.6086    2.2949   26.5602 H   0  0  0  0  0  0
   -1.2804    3.0751   25.8508 H   0  0  0  0  0  0
   -3.4758    1.6517   24.3155 H   0  0  0  0  0  0
   -3.1262    3.3686   24.2870 H   0  0  0  0  0  0
   -1.1913    3.0933   23.2266 H   0  0  0  0  0  0
    0.3639    1.6331   22.6986 H   0  0  0  0  0  0
   -0.6608    0.2472   23.0227 H   0  0  0  0  0  0
    0.5432    2.1352   25.0558 H   0  0  0  0  0  0
    0.8263    0.4456   24.9498 H   0  0  0  0  0  0
   -2.2403    1.7492   17.0768 H   0  0  0  0  0  0
   -3.4379    1.1324   15.0710 H   0  0  0  0  0  0
   -6.9340    0.2393   17.4016 H   0  0  0  0  0  0
   -5.7343    0.8086   19.4539 H   0  0  0  0  0  0
   -3.3632   -0.2230   23.2829 H   0  0  0  0  0  0
   -2.8349   -2.5806   23.7991 H   0  0  0  0  0  0
   -1.6629   -3.3213   19.8933 H   0  0  0  0  0  0
   -2.0837   -0.9564   19.2366 H   0  0  0  0  0  0
  1  2  1  0  0  0
  1 31  1  0  0  0
  1 32  1  0  0  0
  1 33  1  0  0  0
  2  3  1  0  0  0
  3  4  1  0  0  0
  3 34  1  0  0  0
  3 35  1  0  0  0
  4  5  2  0  0  0
  4  6  1  0  0  0
  6 11  1  0  0  0
  6  7  1  0  0  0
  7  8  1  0  0  0
  7 36  1  0  0  0
  7 37  1  0  0  0
  8  9  1  0  0  0
  8 38  1  0  0  0
  8 39  1  0  0  0
  9 10  1  0  0  0
  9 40  1  0  0  0
  9 12  1  0  0  0
 10 11  1  0  0  0
 10 41  1  0  0  0
 10 42  1  0  0  0
 11 43  1  0  0  0
 11 44  1  0  0  0
 12 16  2  0  0  0
 12 13  1  0  0  0
 13 14  2  0  0  0
 13 24  1  0  0  0
 14 15  1  0  0  0
 14 17  1  0  0  0
 15 16  1  0  0  0
 15 30  1  0  0  0
 17 22  1  0  0  0
 17 18  2  0  0  0
 18 19  1  0  0  0
 18 45  1  0  0  0
 19 20  2  0  0  0
 19 46  1  0  0  0
 20 21  1  0  0  0
 20 23  1  0  0  0
 21 22  2  0  0  0
 21 47  1  0  0  0
 22 48  1  0  0  0
 24 29  1  0  0  0
 24 25  2  0  0  0
 25 26  1  0  0  0
 25 49  1  0  0  0
 26 27  2  0  0  0
 26 50  1  0  0  0
 27 28  1  0  0  0
 28 29  2  0  0  0
 28 51  1  0  0  0
 29 52  1  0  0  0
M  END
> <s_m_entry_id>
62713

> <s_m_entry_name>
ligand_docking-pose.373

> <s_m_Source_Path>
/home/csk/Desktop/cluster/DUD-E-result/mk14

> <s_m_Source_File>
ligand_docking-pose.sdf

> <i_m_Source_File_Index>
373

> <i_lp_mmshare_version>
53161

> <r_lp_tautomer_probability>
0.5

> <s_lp_Force_Field>
OPLS_2005

> <r_lp_Energy>
31.662261

> <b_lp_Chiralities_Consistent>
1

> <s_lp_Variant>
621016-2

> <s_i_glide_gridfile>
glide-grid_2qd9

> <i_i_glide_lignum>
2578

> <i_i_glide_rotatable_bonds>
6

> <r_i_docking_score>
-6.98974651166756

> <r_i_glide_ligand_efficiency>
-0.24102574178164

> <r_i_glide_ligand_efficiency_sa>
-0.740507441067976

> <r_i_glide_ligand_efficiency_ln>
-1.60047470649342

> <r_i_glide_gscore>
-6.98974651166756

> <r_i_glide_lipo>
-3.81758785556563

> <r_i_glide_hbond>
-0.182771610694687

> <r_i_glide_metal>
0

> <r_i_glide_rewards>
-1.475823020165

> <r_i_glide_evdw>
-38.234260559082

> <r_i_glide_ecoul>
-1.1581597328186

> <r_i_glide_erotb>
0.583540579744424

> <r_i_glide_esite>
-0.0116676171097757

> <r_i_glide_emodel>
-41.2648578098487

> <r_i_glide_energy>
-39.3924202919006

> <r_i_glide_einternal>
8.76652145385742

> <i_i_glide_confnum>
11

> <i_i_glide_posenum>
238

> <r_i_glide_eff_state_penalty>
0

> <i_f3d_flags>
0

> <s_user_duplicate_titles>
621016

> <s_m_subgroup_title>
dock_pv

> <s_m_subgroupid>
dock_pv1

> <b_m_subgroup_collapsed>
0

$$$$
427911
                    3D
 Schrodinger Suite 2021-1.
 45 48  0  0  1  0            999 V2000
    0.9726   -0.5515   25.7911 C   0  0  0  0  0  0
   -0.0120    0.6082   25.6994 C   0  0  0  0  0  0
    0.2250    1.7433   26.4768 C   0  0  0  0  0  0
   -0.6661    2.8131   26.4569 C   0  0  0  0  0  0
   -1.8331    2.7590   25.6790 C   0  0  0  0  0  0
   -2.0666    1.6117   24.9061 C   0  0  0  0  0  0
   -1.1487    0.5538   24.8744 C   0  0  0  0  0  0
   -1.3602   -0.5791   24.0716 N   0  0  0  0  0  0
   -1.9612   -0.7896   22.8269 C   0  0  0  0  0  0
   -2.3259    0.2188   21.9041 C   0  0  0  0  0  0
   -2.2814    1.6405   21.7447 C   0  0  0  0  0  0
   -2.8349    2.0168   20.6171 N   0  0  0  0  0  0
   -3.2591    0.9010   19.9843 N   0  0  0  0  0  0
   -2.9291   -0.2329   20.7081 C   0  0  0  0  0  0
   -3.1447   -1.5118   20.3799 N   0  0  0  0  0  0
   -2.7095   -2.3853   21.3209 C   0  0  0  0  0  0
   -2.1432   -2.0994   22.5189 N   0  0  0  0  0  0
   -4.0431    0.9852   18.8228 C   0  0  0  0  0  0
   -3.4814    1.2873   17.5789 C   0  0  0  0  0  0
   -4.2755    1.2973   16.4364 C   0  0  0  0  0  0
   -5.6343    1.0266   16.5496 C   0  0  0  0  0  0
   -6.1943    0.7476   17.7930 C   0  0  0  0  0  0
   -5.4061    0.7257   18.9348 C   0  0  0  0  0  0
   -2.8154    3.9080   25.6468 C   0  0  0  0  0  0
   -3.5562    4.0848   24.6760 O   0  0  0  0  0  0
   -2.8348    4.7000   26.7320 N   0  0  0  0  0  0
   -3.7507    5.8155   26.9387 C   0  0  0  0  0  0
    1.5650   -0.4931   26.7045 H   0  0  0  0  0  0
    0.4481   -1.5065   25.8339 H   0  0  0  0  0  0
    1.6378   -0.5673   24.9271 H   0  0  0  0  0  0
    1.1086    1.8016   27.0979 H   0  0  0  0  0  0
   -0.4298    3.6794   27.0580 H   0  0  0  0  0  0
   -2.9742    1.5369   24.3244 H   0  0  0  0  0  0
   -1.0328   -1.4379   24.4846 H   0  0  0  0  0  0
   -1.8564    2.3774   22.4100 H   0  0  0  0  0  0
   -2.8337   -3.4323   21.0842 H   0  0  0  0  0  0
   -2.4350    1.4923   17.4760 H   0  0  0  0  0  0
   -3.8407    1.5135   15.4710 H   0  0  0  0  0  0
   -6.2596    1.0210   15.6693 H   0  0  0  0  0  0
   -7.2366    0.5049   17.8764 H   0  0  0  0  0  0
   -5.8529    0.4804   19.8872 H   0  0  0  0  0  0
   -2.2042    4.4865   27.4895 H   0  0  0  0  0  0
   -4.0714    5.8367   27.9804 H   0  0  0  0  0  0
   -4.6469    5.7401   26.3206 H   0  0  0  0  0  0
   -3.2538    6.7598   26.7165 H   0  0  0  0  0  0
  1  2  1  0  0  0
  1 28  1  0  0  0
  1 29  1  0  0  0
  1 30  1  0  0  0
  2  7  1  0  0  0
  2  3  2  0  0  0
  3  4  1  0  0  0
  3 31  1  0  0  0
  4  5  2  0  0  0
  4 32  1  0  0  0
  5  6  1  0  0  0
  5 24  1  0  0  0
  6  7  2  0  0  0
  6 33  1  0  0  0
  7  8  1  0  0  0
  8  9  1  0  0  0
  8 34  1  0  0  0
  9 17  1  0  0  0
  9 10  2  0  0  0
 10 14  1  0  0  0
 10 11  1  0  0  0
 11 12  2  0  0  0
 11 35  1  0  0  0
 12 13  1  0  0  0
 13 14  1  0  0  0
 13 18  1  0  0  0
 14 15  2  0  0  0
 15 16  1  0  0  0
 16 17  2  0  0  0
 16 36  1  0  0  0
 18 23  1  0  0  0
 18 19  2  0  0  0
 19 20  1  0  0  0
 19 37  1  0  0  0
 20 21  2  0  0  0
 20 38  1  0  0  0
 21 22  1  0  0  0
 21 39  1  0  0  0
 22 23  2  0  0  0
 22 40  1  0  0  0
 23 41  1  0  0  0
 24 25  2  0  0  0
 24 26  1  0  0  0
 26 27  1  0  0  0
 26 42  1  0  0  0
 27 43  1  0  0  0
 27 44  1  0  0  0
 27 45  1  0  0  0
M  END
> <s_m_entry_id>
62714

> <s_m_entry_name>
ligand_docking-pose.374

> <s_m_Source_Path>
/home/csk/Desktop/cluster/DUD-E-result/mk14

> <s_m_Source_File>
ligand_docking-pose.sdf

> <i_m_Source_File_Index>
374

> <i_lp_mmshare_version>
53161

> <r_lp_tautomer_probability>
1

> <s_lp_Force_Field>
OPLS_2005

> <r_lp_Energy>
18.317257

> <b_lp_Chiralities_Consistent>
1

> <s_lp_Variant>
427911-1

> <s_i_glide_gridfile>
glide-grid_2qd9

> <i_i_glide_lignum>
1068

> <i_i_glide_rotatable_bonds>
5

> <r_i_docking_score>
-6.98380650525205

> <r_i_glide_ligand_efficiency>
-0.25865950019452

> <r_i_glide_ligand_efficiency_sa>
-0.775978499731062

> <r_i_glide_ligand_efficiency_ln>
-1.62571501737399

> <r_i_glide_gscore>
-6.98380650525205

> <r_i_glide_lipo>
-2.3978776594608

> <r_i_glide_hbond>
-0.16

> <r_i_glide_metal>
0

> <r_i_glide_rewards>
-2.07739300968791

> <r_i_glide_evdw>
-39.1951675415039

> <r_i_glide_ecoul>
-6.25099229812622

> <r_i_glide_erotb>
0.596514465369582

> <r_i_glide_esite>
-0.0476430796787931

> <r_i_glide_emodel>
-62.2390798386069

> <r_i_glide_energy>
-45.4461598396301

> <r_i_glide_einternal>
7.40770959854126

> <i_i_glide_confnum>
12

> <i_i_glide_posenum>
269

> <r_i_glide_eff_state_penalty>
0

> <i_f3d_flags>
0

> <s_user_duplicate_titles>
427911

> <s_m_subgroup_title>
dock_pv

> <s_m_subgroupid>
dock_pv1

> <b_m_subgroup_collapsed>
0

$$$$
625718
                    3D
 Schrodinger Suite 2021-1.
 35 37  0  0  1  0            999 V2000
   -0.3026   -0.7131   27.7712 C   0  0  0  0  0  0
    0.5674   -0.2406   26.7929 C   0  0  0  0  0  0
    0.1622   -0.1618   25.4595 C   0  0  0  0  0  0
   -1.1479   -0.5351   25.1055 C   0  0  0  0  0  0
   -2.0210   -1.0184   26.0984 C   0  0  0  0  0  0
   -1.5903   -1.1111   27.4221 C   0  0  0  0  0  0
   -3.6347   -1.5143   25.7264 Cl  0  0  0  0  0  0
   -1.5861   -0.3981   23.7737 N   0  0  0  0  0  0
   -1.5758   -1.4891   22.9229 C   0  0  0  0  0  0
   -1.2538   -2.6416   23.2365 O   0  0  0  0  0  0
   -2.0268   -1.1228   21.5802 C   0  0  0  0  0  0
   -2.4270    0.1365   21.2595 C   0  0  0  0  0  0
   -2.4061    1.1795   22.2719 C   0  0  0  0  0  0
   -2.0135    0.9007   23.4640 N   0  0  0  0  0  0
   -2.8359    0.4070   19.9774 O   0  0  0  0  0  0
   -3.4391    1.6542   19.5964 C   0  0  0  0  0  0
   -4.1542    1.4174   18.2757 C   0  0  0  0  0  0
   -5.4284    0.8641   18.2963 C   0  0  0  0  0  0
   -6.0351    0.4873   17.1046 C   0  0  0  0  0  0
   -5.3909    0.6417   15.8832 C   0  0  0  0  0  0
   -4.1624    1.2857   15.8456 C   0  0  0  0  0  0
   -3.5594    1.6868   17.0348 C   0  0  0  0  0  0
   -2.4349    2.4152   16.9623 F   0  0  0  0  0  0
   -5.9378    0.1312   14.7574 F   0  0  0  0  0  0
   -6.0482    0.6059   19.4714 F   0  0  0  0  0  0
   -2.0371   -2.5589   20.2251 Br  0  0  0  0  0  0
    1.3003    0.4005   24.2798 Cl  0  0  0  0  0  0
    0.0284   -0.7833   28.7975 H   0  0  0  0  0  0
    1.5656    0.0578   27.0768 H   0  0  0  0  0  0
   -2.2547   -1.4903   28.1849 H   0  0  0  0  0  0
   -2.7026    2.2037   22.0729 H   0  0  0  0  0  0
   -2.7011    2.4520   19.5157 H   0  0  0  0  0  0
   -4.1817    1.9800   20.3254 H   0  0  0  0  0  0
   -6.9689   -0.0452   17.1523 H   0  0  0  0  0  0
   -3.6707    1.4639   14.9012 H   0  0  0  0  0  0
  1  6  1  0  0  0
  1  2  2  0  0  0
  1 28  1  0  0  0
  2  3  1  0  0  0
  2 29  1  0  0  0
  3  4  2  0  0  0
  3 27  1  0  0  0
  4  5  1  0  0  0
  4  8  1  0  0  0
  5  6  2  0  0  0
  5  7  1  0  0  0
  6 30  1  0  0  0
  8 14  1  0  0  0
  8  9  1  0  0  0
  9 10  2  0  0  0
  9 11  1  0  0  0
 11 12  2  0  0  0
 11 26  1  0  0  0
 12 13  1  0  0  0
 12 15  1  0  0  0
 13 14  2  0  0  0
 13 31  1  0  0  0
 15 16  1  0  0  0
 16 17  1  0  0  0
 16 32  1  0  0  0
 16 33  1  0  0  0
 17 22  1  0  0  0
 17 18  2  0  0  0
 18 19  1  0  0  0
 18 25  1  0  0  0
 19 20  2  0  0  0
 19 34  1  0  0  0
 20 21  1  0  0  0
 20 24  1  0  0  0
 21 22  2  0  0  0
 21 35  1  0  0  0
 22 23  1  0  0  0
M  END
> <s_m_entry_id>
62716

> <s_m_entry_name>
ligand_docking-pose.376

> <s_m_Source_Path>
/home/csk/Desktop/cluster/DUD-E-result/mk14

> <s_m_Source_File>
ligand_docking-pose.sdf

> <i_m_Source_File_Index>
376

> <i_lp_mmshare_version>
53161

> <r_lp_tautomer_probability>
1

> <s_lp_Force_Field>
OPLS_2005

> <r_lp_Energy>
38.794299

> <b_lp_Chiralities_Consistent>
1

> <s_lp_Variant>
625718-1

> <s_i_glide_gridfile>
glide-grid_2qd9

> <i_i_glide_lignum>
466

> <i_i_glide_rotatable_bonds>
4

> <r_i_docking_score>
-6.98080564860048

> <r_i_glide_ligand_efficiency>
-0.258548357355573

> <r_i_glide_ligand_efficiency_sa>
-0.775645071214586

> <r_i_glide_ligand_efficiency_ln>
-1.62501646741849

> <r_i_glide_gscore>
-6.98080564860048

> <r_i_glide_lipo>
-3.65225446132174

> <r_i_glide_hbond>
0

> <r_i_glide_metal>
0

> <r_i_glide_rewards>
-1.10846648470941

> <r_i_glide_evdw>
-41.2568206787109

> <r_i_glide_ecoul>
-3.27406096458435

> <r_i_glide_erotb>
0.351928105226554

> <r_i_glide_esite>
-0.0180626291726771

> <r_i_glide_emodel>
-57.6467349830503

> <r_i_glide_energy>
-44.5308816432953

> <r_i_glide_einternal>
2.62037444114685

> <i_i_glide_confnum>
8

> <i_i_glide_posenum>
311

> <r_i_glide_eff_state_penalty>
0

> <i_f3d_flags>
0

> <s_user_duplicate_titles>
625718

> <s_m_subgroup_title>
dock_pv

> <s_m_subgroupid>
dock_pv1

> <b_m_subgroup_collapsed>
0

$$$$
146339
                    3D
 Schrodinger Suite 2021-1.
 39 42  0  0  1  0            999 V2000
   -5.1353    1.3029   15.7144 C   0  0  0  0  0  0
   -3.8102    1.7081   15.8199 C   0  0  0  0  0  0
   -3.1787    1.6870   17.0563 C   0  0  0  0  0  0
   -3.8756    1.2639   18.1939 C   0  0  0  0  0  0
   -5.2118    0.8870   18.0868 C   0  0  0  0  0  0
   -5.8291    0.8872   16.8439 C   0  0  0  0  0  0
   -3.2350    1.0625   19.5145 C   0  0  0  0  0  0
   -2.8934   -0.1261   20.1357 C   0  0  0  0  0  0
   -2.3713    0.1461   21.4058 C   0  0  0  0  0  0
   -2.4712    1.5240   21.5935 C   0  0  0  0  0  0
   -2.9230    2.0580   20.4069 N   0  0  0  0  0  0
   -2.2210    2.3253   22.8247 C   0  0  0  0  0  0
   -2.8798    1.9621   24.0032 C   0  0  0  0  0  0
   -2.6720    2.6851   25.1738 C   0  0  0  0  0  0
   -1.7865    3.7602   25.1697 C   0  0  0  0  0  0
   -1.1071    4.1131   24.0056 C   0  0  0  0  0  0
   -1.3324    3.3996   22.8315 C   0  0  0  0  0  0
   -1.5356    4.6671   26.6150 Cl  0  0  0  0  0  0
   -1.8557   -0.8504   22.3778 C   0  0  0  0  0  0
   -0.7325   -0.5740   23.1696 C   0  0  0  0  0  0
   -0.3086   -1.5282   24.0942 C   0  0  0  0  0  0
   -0.9436   -2.7131   24.2606 N   0  0  0  0  0  0
   -2.0214   -2.9708   23.4764 C   0  0  0  0  0  0
   -2.5039   -2.0781   22.5250 C   0  0  0  0  0  0
   -3.0932    3.0386   20.2489 H   0  0  0  0  0  0
   -5.6251    1.2960   14.7518 H   0  0  0  0  0  0
   -3.2592    2.0170   14.9453 H   0  0  0  0  0  0
   -2.1362    1.9627   17.0760 H   0  0  0  0  0  0
   -5.7567    0.5306   18.9502 H   0  0  0  0  0  0
   -6.8349    0.5311   16.7562 H   0  0  0  0  0  0
   -3.0013   -1.1090   19.6992 H   0  0  0  0  0  0
   -3.5590    1.1215   24.0107 H   0  0  0  0  0  0
   -3.1907    2.4095   26.0804 H   0  0  0  0  0  0
   -0.4106    4.9391   24.0115 H   0  0  0  0  0  0
   -0.8179    3.6867   21.9278 H   0  0  0  0  0  0
   -0.2021    0.3632   23.0773 H   0  0  0  0  0  0
    0.5528   -1.3510   24.7224 H   0  0  0  0  0  0
   -2.5187   -3.9121   23.6348 H   0  0  0  0  0  0
   -3.3731   -2.3249   21.9332 H   0  0  0  0  0  0
  1  6  1  0  0  0
  1  2  2  0  0  0
  1 26  1  0  0  0
  2  3  1  0  0  0
  2 27  1  0  0  0
  3  4  2  0  0  0
  3 28  1  0  0  0
  4  5  1  0  0  0
  4  7  1  0  0  0
  5  6  2  0  0  0
  5 29  1  0  0  0
  6 30  1  0  0  0
  7 11  1  0  0  0
  7  8  2  0  0  0
  8  9  1  0  0  0
  8 31  1  0  0  0
  9 10  2  0  0  0
  9 19  1  0  0  0
 10 11  1  0  0  0
 10 12  1  0  0  0
 11 25  1  0  0  0
 12 17  1  0  0  0
 12 13  2  0  0  0
 13 14  1  0  0  0
 13 32  1  0  0  0
 14 15  2  0  0  0
 14 33  1  0  0  0
 15 16  1  0  0  0
 15 18  1  0  0  0
 16 17  2  0  0  0
 16 34  1  0  0  0
 17 35  1  0  0  0
 19 24  1  0  0  0
 19 20  2  0  0  0
 20 21  1  0  0  0
 20 36  1  0  0  0
 21 22  2  0  0  0
 21 37  1  0  0  0
 22 23  1  0  0  0
 23 24  2  0  0  0
 23 38  1  0  0  0
 24 39  1  0  0  0
M  END
> <s_m_entry_id>
62718

> <s_m_entry_name>
ligand_docking-pose.378

> <s_m_Source_Path>
/home/csk/Desktop/cluster/DUD-E-result/mk14

> <s_m_Source_File>
ligand_docking-pose.sdf

> <i_m_Source_File_Index>
378

> <i_lp_mmshare_version>
53161

> <r_lp_tautomer_probability>
1

> <s_lp_Force_Field>
OPLS_2005

> <r_lp_Energy>
15.015532

> <b_lp_Chiralities_Consistent>
1

> <s_lp_Variant>
146339-1

> <s_i_glide_gridfile>
glide-grid_2qd9

> <i_i_glide_lignum>
131

> <i_i_glide_rotatable_bonds>
3

> <r_i_docking_score>
-6.97875748233005

> <r_i_glide_ligand_efficiency>
-0.290781561763752

> <r_i_glide_ligand_efficiency_sa>
-0.838759164125637

> <r_i_glide_ligand_efficiency_ln>
-1.6703368998357

> <r_i_glide_gscore>
-6.97875748233005

> <r_i_glide_lipo>
-3.51689183083653

> <r_i_glide_hbond>
-0.200407639067094

> <r_i_glide_metal>
0

> <r_i_glide_rewards>
-2.15134826434636

> <r_i_glide_evdw>
-36.013744354248

> <r_i_glide_ecoul>
1.1656436920166

> <r_i_glide_erotb>
0.515730915829838

> <r_i_glide_esite>
0

> <r_i_glide_emodel>
-41.6854747245758

> <r_i_glide_energy>
-34.8481006622314

> <r_i_glide_einternal>
8.87792301177979

> <i_i_glide_confnum>
30

> <i_i_glide_posenum>
61

> <r_i_glide_eff_state_penalty>
0

> <i_f3d_flags>
0

> <s_user_duplicate_titles>
146339

> <s_m_subgroup_title>
dock_pv

> <s_m_subgroupid>
dock_pv1

> <b_m_subgroup_collapsed>
0

$$$$
620809
                    3D
 Schrodinger Suite 2021-1.
 46 49  0  0  1  0            999 V2000
   -0.9870    5.7583   25.0096 C   0  0  0  0  0  0
   -1.0133    4.3084   24.8580 N   0  0  2  0  0  0
   -0.0390    3.8526   23.8555 C   0  0  0  0  0  0
   -0.0249    2.3143   23.7372 C   0  0  0  0  0  0
   -1.4192    1.6799   23.5184 C   0  0  0  0  0  0
   -2.3477    2.2126   24.6320 C   0  0  0  0  0  0
   -2.3676    3.7551   24.7145 C   0  0  0  0  0  0
   -2.0384    1.8358   22.1199 C   0  0  0  0  0  0
   -2.6066    0.9313   21.2128 C   0  0  0  0  0  0
   -3.0837    1.7105   20.1258 C   0  0  0  0  0  0
   -2.7545    2.9725   20.2802 N   0  0  0  0  0  0
   -2.1345    3.0280   21.4618 N   0  0  0  0  0  0
   -3.8431    1.3230   18.8940 C   0  0  0  0  0  0
   -3.2449    1.3146   17.6253 C   0  0  0  0  0  0
   -3.9890    1.0665   16.4835 C   0  0  0  0  0  0
   -5.3531    0.8651   16.5948 C   0  0  0  0  0  0
   -5.9727    0.8856   17.8437 C   0  0  0  0  0  0
   -5.2092    1.0596   19.0002 C   0  0  0  0  0  0
   -6.0526    0.5877   15.4779 F   0  0  0  0  0  0
   -2.6004   -0.5417   21.3967 C   0  0  0  0  0  0
   -2.1923   -1.3741   20.3513 C   0  0  0  0  0  0
   -1.9401   -2.7159   20.6343 C   0  0  0  0  0  0
   -2.0768   -3.2493   21.8749 N   0  0  0  0  0  0
   -2.5425   -2.4457   22.8590 C   0  0  0  0  0  0
   -2.8419   -1.1024   22.6559 C   0  0  0  0  0  0
   -1.7412    3.8856   21.8165 H   0  0  0  0  0  0
   -1.2329    6.2684   24.0775 H   0  0  0  0  0  0
   -1.6857    6.0818   25.7822 H   0  0  0  0  0  0
    0.0071    6.0873   25.3145 H   0  0  0  0  0  0
   -0.2699    4.3117   22.8948 H   0  0  0  0  0  0
    0.9579    4.2072   24.1255 H   0  0  0  0  0  0
    0.7357    1.9200   23.0684 H   0  0  0  0  0  0
    0.3292    2.0029   24.7221 H   0  0  0  0  0  0
   -1.2610    0.6266   23.7398 H   0  0  0  0  0  0
   -1.9332    1.9159   25.5975 H   0  0  0  0  0  0
   -3.3346    1.7488   24.5993 H   0  0  0  0  0  0
   -2.8273    4.1708   23.8201 H   0  0  0  0  0  0
   -2.9861    4.0680   25.5580 H   0  0  0  0  0  0
   -2.2077    1.5065   17.4718 H   0  0  0  0  0  0
   -3.5147    1.0447   15.5127 H   0  0  0  0  0  0
   -7.0334    0.6996   17.9153 H   0  0  0  0  0  0
   -5.6883    1.0512   19.9699 H   0  0  0  0  0  0
   -2.0221   -0.9835   19.3586 H   0  0  0  0  0  0
   -1.6132   -3.3904   19.8540 H   0  0  0  0  0  0
   -2.6657   -2.8955   23.8332 H   0  0  0  0  0  0
   -3.1881   -0.4982   23.4803 H   0  0  0  0  0  0
  1  2  1  0  0  0
  1 27  1  0  0  0
  1 28  1  0  0  0
  1 29  1  0  0  0
  2  7  1  0  0  0
  2  3  1  0  0  0
  3  4  1  0  0  0
  3 30  1  0  0  0
  3 31  1  0  0  0
  4  5  1  0  0  0
  4 32  1  0  0  0
  4 33  1  0  0  0
  5  6  1  0  0  0
  5  8  1  0  0  0
  5 34  1  0  0  0
  6  7  1  0  0  0
  6 35  1  0  0  0
  6 36  1  0  0  0
  7 37  1  0  0  0
  7 38  1  0  0  0
  8 12  1  0  0  0
  8  9  2  0  0  0
  9 10  1  0  0  0
  9 20  1  0  0  0
 10 11  2  0  0  0
 10 13  1  0  0  0
 11 12  1  0  0  0
 12 26  1  0  0  0
 13 18  1  0  0  0
 13 14  2  0  0  0
 14 15  1  0  0  0
 14 39  1  0  0  0
 15 16  2  0  0  0
 15 40  1  0  0  0
 16 17  1  0  0  0
 16 19  1  0  0  0
 17 18  2  0  0  0
 17 41  1  0  0  0
 18 42  1  0  0  0
 20 25  1  0  0  0
 20 21  2  0  0  0
 21 22  1  0  0  0
 21 43  1  0  0  0
 22 23  2  0  0  0
 22 44  1  0  0  0
 23 24  1  0  0  0
 24 25  2  0  0  0
 24 45  1  0  0  0
 25 46  1  0  0  0
M  END
> <s_m_entry_id>
62719

> <s_m_entry_name>
ligand_docking-pose.379

> <s_m_Source_Path>
/home/csk/Desktop/cluster/DUD-E-result/mk14

> <s_m_Source_File>
ligand_docking-pose.sdf

> <i_m_Source_File_Index>
379

> <i_lp_mmshare_version>
53161

> <r_lp_tautomer_probability>
0.5

> <s_lp_Force_Field>
OPLS_2005

> <r_lp_Energy>
26.486996

> <b_lp_Chiralities_Consistent>
1

> <s_lp_Variant>
620809-1

> <s_i_glide_gridfile>
glide-grid_2qd9

> <i_i_glide_lignum>
2377

> <i_i_glide_rotatable_bonds>
3

> <r_i_docking_score>
-6.97707218590006

> <r_i_glide_ligand_efficiency>
-0.279082887436002

> <r_i_glide_ligand_efficiency_sa>
-0.816043312418955

> <r_i_glide_ligand_efficiency_ln>
-1.65377519403952

> <r_i_glide_gscore>
-6.97707218590006

> <r_i_glide_lipo>
-3.25558082818663

> <r_i_glide_hbond>
-0.311674838139433

> <r_i_glide_metal>
0

> <r_i_glide_rewards>
-2.4524910452286

> <r_i_glide_evdw>
-29.3253803253174

> <r_i_glide_ecoul>
0.256591796875

> <r_i_glide_erotb>
0.500648619966027

> <r_i_glide_esite>
-0.0301938475768072

> <r_i_glide_emodel>
-32.0964565580555

> <r_i_glide_energy>
-29.0687885284424

> <r_i_glide_einternal>
4.6648268699646

> <i_i_glide_confnum>
80

> <i_i_glide_posenum>
359

> <r_i_glide_eff_state_penalty>
0

> <i_f3d_flags>
0

> <s_user_duplicate_titles>
620809

> <s_m_subgroup_title>
dock_pv

> <s_m_subgroupid>
dock_pv1

> <b_m_subgroup_collapsed>
0

$$$$
621086
                    3D
 Schrodinger Suite 2021-1.
 53 57  0  0  1  0            999 V2000
   -5.2838    0.8842   18.8272 C   0  0  0  0  0  0
   -6.0039    0.5911   17.6685 C   0  0  0  0  0  0
   -5.3842    0.7288   16.4225 C   0  0  0  0  0  0
   -4.1097    1.2710   16.3172 C   0  0  0  0  0  0
   -3.4165    1.6043   17.4710 C   0  0  0  0  0  0
   -3.9828    1.3805   18.7288 C   0  0  0  0  0  0
   -3.2366    1.7605   19.9566 C   0  0  0  0  0  0
   -2.7934    1.1007   21.1114 C   0  0  0  0  0  0
   -2.2736    2.1325   21.9401 C   0  0  0  0  0  0
   -2.2715    3.2863   21.3112 N   0  0  0  0  0  0
   -2.8345    3.0488   20.1383 N   0  0  0  0  0  0
   -1.7123    2.1133   23.3601 C   0  0  0  0  0  0
   -2.7584    2.2576   24.4838 C   0  0  0  0  0  0
   -2.1536    2.1817   25.8980 C   0  0  0  0  0  0
   -1.3257    0.9801   26.0847 N   0  0  1  0  0  0
   -0.1662    1.0894   25.1796 C   0  0  0  0  0  0
   -0.5573    1.1307   23.6832 C   0  0  0  0  0  0
   -0.8778    0.8469   27.4881 C   0  0  2  0  0  0
   -0.0757   -0.4269   27.7513 C   0  0  0  0  0  0
   -0.4346   -0.7995   29.1847 C   0  0  0  0  0  0
   -1.8036   -0.4429   29.2701 O   0  0  0  0  0  0
   -1.9943    0.7744   28.5567 C   0  0  0  0  0  0
   -2.8037   -0.3621   21.4047 C   0  0  0  0  0  0
   -2.3411   -1.2948   20.4678 C   0  0  0  0  0  0
   -2.1722   -2.6109   20.9120 C   0  0  0  0  0  0
   -2.4342   -2.9955   22.1895 N   0  0  0  0  0  0
   -2.8977   -2.0178   23.0114 C   0  0  0  0  0  0
   -3.1122   -0.7196   22.6804 N   0  0  0  0  0  0
   -6.1209    0.0876   15.0071 Cl  0  0  0  0  0  0
   -2.9540    3.7739   19.4506 H   0  0  0  0  0  0
   -5.7395    0.7296   19.7950 H   0  0  0  0  0  0
   -6.9921    0.1608   17.7446 H   0  0  0  0  0  0
   -3.6440    1.3904   15.3498 H   0  0  0  0  0  0
   -2.4345    2.0285   17.3761 H   0  0  0  0  0  0
   -1.1613    3.0409   23.5360 H   0  0  0  0  0  0
   -3.2586    3.2223   24.4062 H   0  0  0  0  0  0
   -3.5186    1.4790   24.4168 H   0  0  0  0  0  0
   -1.5829    3.0808   26.1415 H   0  0  0  0  0  0
   -2.9941    2.1719   26.5898 H   0  0  0  0  0  0
    0.4567    1.9456   25.4474 H   0  0  0  0  0  0
    0.4678    0.2125   25.3187 H   0  0  0  0  0  0
   -0.8083    0.1039   23.4232 H   0  0  0  0  0  0
    0.3402    1.3974   23.1212 H   0  0  0  0  0  0
   -0.2404    1.7029   27.7251 H   0  0  0  0  0  0
   -0.3956   -1.2454   27.1005 H   0  0  0  0  0  0
    1.0033   -0.2775   27.6638 H   0  0  0  0  0  0
   -0.3070   -1.8608   29.3992 H   0  0  0  0  0  0
    0.1452   -0.2612   29.9389 H   0  0  0  0  0  0
   -1.9113    1.5938   29.2726 H   0  0  0  0  0  0
   -3.0049    0.7597   28.1546 H   0  0  0  0  0  0
   -2.0628   -1.0039   19.4653 H   0  0  0  0  0  0
   -1.8056   -3.3794   20.2478 H   0  0  0  0  0  0
   -3.1363   -2.2986   24.0270 H   0  0  0  0  0  0
  1  6  1  0  0  0
  1  2  2  0  0  0
  1 31  1  0  0  0
  2  3  1  0  0  0
  2 32  1  0  0  0
  3  4  2  0  0  0
  3 29  1  0  0  0
  4  5  1  0  0  0
  4 33  1  0  0  0
  5  6  2  0  0  0
  5 34  1  0  0  0
  6  7  1  0  0  0
  7 11  1  0  0  0
  7  8  2  0  0  0
  8  9  1  0  0  0
  8 23  1  0  0  0
  9 12  1  0  0  0
  9 10  2  0  0  0
 10 11  1  0  0  0
 11 30  1  0  0  0
 12 17  1  0  0  0
 12 13  1  0  0  0
 12 35  1  0  0  0
 13 14  1  0  0  0
 13 36  1  0  0  0
 13 37  1  0  0  0
 14 15  1  0  0  0
 14 38  1  0  0  0
 14 39  1  0  0  0
 15 16  1  0  0  0
 15 18  1  0  0  0
 16 17  1  0  0  0
 16 40  1  0  0  0
 16 41  1  0  0  0
 17 42  1  0  0  0
 17 43  1  0  0  0
 18 22  1  0  0  0
 18 19  1  0  0  0
 18 44  1  0  0  0
 19 20  1  0  0  0
 19 45  1  0  0  0
 19 46  1  0  0  0
 20 21  1  0  0  0
 20 47  1  0  0  0
 20 48  1  0  0  0
 21 22  1  0  0  0
 22 49  1  0  0  0
 22 50  1  0  0  0
 23 28  1  0  0  0
 23 24  2  0  0  0
 24 25  1  0  0  0
 24 51  1  0  0  0
 25 26  2  0  0  0
 25 52  1  0  0  0
 26 27  1  0  0  0
 27 28  2  0  0  0
 27 53  1  0  0  0
M  END
> <s_m_entry_id>
62721

> <s_m_entry_name>
ligand_docking-pose.381

> <s_m_Source_Path>
/home/csk/Desktop/cluster/DUD-E-result/mk14

> <s_m_Source_File>
ligand_docking-pose.sdf

> <i_m_Source_File_Index>
381

> <i_lp_mmshare_version>
53161

> <r_lp_tautomer_probability>
0.5

> <s_lp_Force_Field>
OPLS_2005

> <r_lp_Energy>
44.47269

> <b_lp_Chiralities_Consistent>
1

> <s_lp_Variant>
621086-3

> <s_i_glide_gridfile>
glide-grid_2qd9

> <i_i_glide_lignum>
181

> <i_i_glide_rotatable_bonds>
4

> <r_i_docking_score>
-6.97535640135873

> <r_i_glide_ligand_efficiency>
-0.240529531081335

> <r_i_glide_ligand_efficiency_sa>
-0.738982924586056

> <r_i_glide_ligand_efficiency_ln>
-1.59717973613442

> <r_i_glide_gscore>
-6.97535640135873

> <r_i_glide_lipo>
-3.29841796037343

> <r_i_glide_hbond>
-0.187076682037142

> <r_i_glide_metal>
0

> <r_i_glide_rewards>
-1.79164731269809

> <r_i_glide_evdw>
-39.8216667175293

> <r_i_glide_ecoul>
-1.02108061313629

> <r_i_glide_erotb>
0.468857698927157

> <r_i_glide_esite>
-0.0228267173303123

> <r_i_glide_emodel>
-49.917638176723

> <r_i_glide_energy>
-40.8427473306656

> <r_i_glide_einternal>
8.23392009735107

> <i_i_glide_confnum>
48

> <i_i_glide_posenum>
178

> <r_i_glide_eff_state_penalty>
0

> <i_f3d_flags>
0

> <s_user_duplicate_titles>
621086

> <s_m_subgroup_title>
dock_pv

> <s_m_subgroupid>
dock_pv1

> <b_m_subgroup_collapsed>
0

$$$$
616721
                    3D
 Schrodinger Suite 2021-1.
 39 41  0  0  1  0            999 V2000
   -1.4382   -0.5273   29.1437 C   0  0  0  0  0  0
   -2.2475   -1.0873   28.1569 C   0  0  0  0  0  0
   -1.7471   -1.2600   26.8688 C   0  0  0  0  0  0
   -0.4321   -0.8787   26.5722 C   0  0  0  0  0  0
    0.3681   -0.3111   27.5674 C   0  0  0  0  0  0
   -0.1329   -0.1373   28.8536 C   0  0  0  0  0  0
    0.1719   -1.0977   25.1869 C   0  0  0  0  0  0
   -0.7289   -0.8628   24.0435 N   0  0  0  0  0  0
   -1.0059    0.4059   23.5911 C   0  0  0  0  0  0
   -1.8081    0.6924   22.5499 C   0  0  0  0  0  0
   -2.4178   -0.4326   21.8373 C   0  0  0  0  0  0
   -2.1708   -1.6857   22.2957 C   0  0  0  0  0  0
   -1.3387   -1.9597   23.4684 C   0  0  0  0  0  0
   -1.2299   -3.1130   23.8860 O   0  0  0  0  0  0
   -2.8384   -3.1040   21.4757 Cl  0  0  0  0  0  0
   -3.1977   -0.2934   20.7297 O   0  0  0  0  0  0
   -3.3918    1.0114   20.1940 C   0  0  0  0  0  0
   -4.2645    0.9343   18.9556 C   0  0  0  0  0  0
   -3.7482    1.2874   17.7040 C   0  0  0  0  0  0
   -4.5719    1.2848   16.5829 C   0  0  0  0  0  0
   -5.8968    0.8869   16.7131 C   0  0  0  0  0  0
   -6.4095    0.4883   17.9495 C   0  0  0  0  0  0
   -5.5938    0.5244   19.0754 C   0  0  0  0  0  0
   -1.8225   -0.4038   30.1455 H   0  0  0  0  0  0
   -3.2542   -1.3990   28.3942 H   0  0  0  0  0  0
   -2.3760   -1.7129   26.1179 H   0  0  0  0  0  0
    1.3891   -0.0205   27.3588 H   0  0  0  0  0  0
    0.4960    0.2831   29.6249 H   0  0  0  0  0  0
    1.0400   -0.4486   25.0673 H   0  0  0  0  0  0
    0.5783   -2.1104   25.1632 H   0  0  0  0  0  0
   -0.5224    1.1664   24.1882 H   0  0  0  0  0  0
   -1.9793    1.7191   22.2689 H   0  0  0  0  0  0
   -3.8849    1.6589   20.9197 H   0  0  0  0  0  0
   -2.4350    1.4704   19.9454 H   0  0  0  0  0  0
   -2.7213    1.5929   17.5874 H   0  0  0  0  0  0
   -4.1795    1.5713   15.6175 H   0  0  0  0  0  0
   -6.5243    0.8591   15.8368 H   0  0  0  0  0  0
   -7.4256    0.1374   18.0383 H   0  0  0  0  0  0
   -5.9964    0.2347   20.0323 H   0  0  0  0  0  0
  1  6  1  0  0  0
  1  2  2  0  0  0
  1 24  1  0  0  0
  2  3  1  0  0  0
  2 25  1  0  0  0
  3  4  2  0  0  0
  3 26  1  0  0  0
  4  5  1  0  0  0
  4  7  1  0  0  0
  5  6  2  0  0  0
  5 27  1  0  0  0
  6 28  1  0  0  0
  7  8  1  0  0  0
  7 29  1  0  0  0
  7 30  1  0  0  0
  8 13  1  0  0  0
  8  9  1  0  0  0
  9 10  2  0  0  0
  9 31  1  0  0  0
 10 11  1  0  0  0
 10 32  1  0  0  0
 11 12  2  0  0  0
 11 16  1  0  0  0
 12 13  1  0  0  0
 12 15  1  0  0  0
 13 14  2  0  0  0
 16 17  1  0  0  0
 17 18  1  0  0  0
 17 33  1  0  0  0
 17 34  1  0  0  0
 18 23  1  0  0  0
 18 19  2  0  0  0
 19 20  1  0  0  0
 19 35  1  0  0  0
 20 21  2  0  0  0
 20 36  1  0  0  0
 21 22  1  0  0  0
 21 37  1  0  0  0
 22 23  2  0  0  0
 22 38  1  0  0  0
 23 39  1  0  0  0
M  END
> <s_m_entry_id>
62722

> <s_m_entry_name>
ligand_docking-pose.382

> <s_m_Source_Path>
/home/csk/Desktop/cluster/DUD-E-result/mk14

> <s_m_Source_File>
ligand_docking-pose.sdf

> <i_m_Source_File_Index>
382

> <i_lp_mmshare_version>
53161

> <r_lp_tautomer_probability>
1

> <s_lp_Force_Field>
OPLS_2005

> <r_lp_Energy>
24.762455

> <b_lp_Chiralities_Consistent>
1

> <s_lp_Variant>
616721-1

> <s_i_glide_gridfile>
glide-grid_2qd9

> <i_i_glide_lignum>
473

> <i_i_glide_rotatable_bonds>
5

> <r_i_docking_score>
-6.96919200656269

> <r_i_glide_ligand_efficiency>
-0.303008348111421

> <r_i_glide_ligand_efficiency_sa>
-0.861715434912805

> <r_i_glide_ligand_efficiency_ln>
-1.68521382032616

> <r_i_glide_gscore>
-6.96919200656269

> <r_i_glide_lipo>
-3.37517990605893

> <r_i_glide_hbond>
-0.32

> <r_i_glide_metal>
0

> <r_i_glide_rewards>
-1.47790467328902

> <r_i_glide_evdw>
-36.1156158447266

> <r_i_glide_ecoul>
-5.82279586791992

> <r_i_glide_erotb>
0.883092745209577

> <r_i_glide_esite>
0

> <r_i_glide_emodel>
-58.3158418126479

> <r_i_glide_energy>
-41.9384117126465

> <r_i_glide_einternal>
1.84933471679688

> <i_i_glide_confnum>
25

> <i_i_glide_posenum>
397

> <r_i_glide_eff_state_penalty>
0

> <i_f3d_flags>
0

> <s_user_duplicate_titles>
616721

> <s_m_subgroup_title>
dock_pv

> <s_m_subgroupid>
dock_pv1

> <b_m_subgroup_collapsed>
0

$$$$
211373
                    3D
 Schrodinger Suite 2021-1.
 52 55  0  0  1  0            999 V2000
   -2.4259   -1.5098   29.4268 C   0  0  0  0  0  0
   -1.1393   -1.1127   29.7881 C   0  0  0  0  0  0
   -0.2382   -0.7126   28.8046 C   0  0  0  0  0  0
   -0.6274   -0.7128   27.4622 C   0  0  0  0  0  0
   -1.9186   -1.1126   27.1074 C   0  0  0  0  0  0
   -2.8192   -1.5132   28.0904 C   0  0  0  0  0  0
    0.3569   -0.2979   26.3821 C   0  0  0  0  0  0
    0.4248    1.1575   26.3388 N   0  0  2  0  0  0
    1.0643    1.6801   25.1364 C   0  0  0  0  0  0
    0.2374    1.4654   23.8491 C   0  0  0  0  0  0
   -1.2532    1.8510   23.9799 C   0  0  0  0  0  0
   -1.8898    2.0382   22.6750 N   0  0  0  0  0  0
   -1.9451    3.2356   22.0257 C   0  0  0  0  0  0
   -2.4350    3.1679   20.8161 N   0  0  0  0  0  0
   -2.8347    1.9141   20.6779 C   0  0  0  0  0  0
   -2.4099    1.1285   21.7689 C   0  0  0  0  0  0
   -2.3871   -0.3497   21.9607 C   0  0  0  0  0  0
   -1.9220   -1.1659   20.9215 C   0  0  0  0  0  0
   -1.7765   -2.5356   21.1510 C   0  0  0  0  0  0
   -2.0501   -3.1126   22.3486 N   0  0  0  0  0  0
   -2.5239   -2.3128   23.3367 C   0  0  0  0  0  0
   -2.7394   -0.9468   23.1743 C   0  0  0  0  0  0
   -3.6349    1.5193   19.4769 C   0  0  0  0  0  0
   -3.2810    1.9098   18.1773 C   0  0  0  0  0  0
   -4.0733    1.5558   17.0934 C   0  0  0  0  0  0
   -5.2672    0.8871   17.3147 C   0  0  0  0  0  0
   -5.6483    0.5118   18.6046 C   0  0  0  0  0  0
   -4.8119    0.7959   19.6792 C   0  0  0  0  0  0
   -6.0349    0.5613   16.2544 F   0  0  0  0  0  0
   -3.1197   -1.8288   30.1901 H   0  0  0  0  0  0
   -0.8372   -1.1247   30.8252 H   0  0  0  0  0  0
    0.7635   -0.4156   29.0843 H   0  0  0  0  0  0
   -2.2212   -1.1152   26.0725 H   0  0  0  0  0  0
   -3.8137   -1.8337   27.8182 H   0  0  0  0  0  0
    1.3467   -0.6987   26.6061 H   0  0  0  0  0  0
    0.0193   -0.6883   25.4214 H   0  0  0  0  0  0
    0.9720    1.4684   27.1327 H   0  0  0  0  0  0
    1.1797    2.7535   25.2942 H   0  0  0  0  0  0
    2.0750    1.2855   25.0305 H   0  0  0  0  0  0
    0.7103    2.0684   23.0761 H   0  0  0  0  0  0
    0.3227    0.4332   23.5074 H   0  0  0  0  0  0
   -1.8027    1.1345   24.5836 H   0  0  0  0  0  0
   -1.3366    2.7941   24.5228 H   0  0  0  0  0  0
   -1.4776    4.0869   22.4938 H   0  0  0  0  0  0
   -1.6498   -0.7438   19.9653 H   0  0  0  0  0  0
   -1.4212   -3.1920   20.3695 H   0  0  0  0  0  0
   -2.7528   -2.7792   24.2821 H   0  0  0  0  0  0
   -3.1517   -0.3687   23.9857 H   0  0  0  0  0  0
   -2.4350    2.5425   17.9732 H   0  0  0  0  0  0
   -3.7949    1.8479   16.0911 H   0  0  0  0  0  0
   -6.5760   -0.0178   18.7577 H   0  0  0  0  0  0
   -5.0983    0.4891   20.6745 H   0  0  0  0  0  0
  1  6  1  0  0  0
  1  2  2  0  0  0
  1 30  1  0  0  0
  2  3  1  0  0  0
  2 31  1  0  0  0
  3  4  2  0  0  0
  3 32  1  0  0  0
  4  5  1  0  0  0
  4  7  1  0  0  0
  5  6  2  0  0  0
  5 33  1  0  0  0
  6 34  1  0  0  0
  7  8  1  0  0  0
  7 35  1  0  0  0
  7 36  1  0  0  0
  8  9  1  0  0  0
  8 37  1  0  0  0
  9 10  1  0  0  0
  9 38  1  0  0  0
  9 39  1  0  0  0
 10 11  1  0  0  0
 10 40  1  0  0  0
 10 41  1  0  0  0
 11 12  1  0  0  0
 11 42  1  0  0  0
 11 43  1  0  0  0
 12 16  1  0  0  0
 12 13  1  0  0  0
 13 14  2  0  0  0
 13 44  1  0  0  0
 14 15  1  0  0  0
 15 16  2  0  0  0
 15 23  1  0  0  0
 16 17  1  0  0  0
 17 22  1  0  0  0
 17 18  2  0  0  0
 18 19  1  0  0  0
 18 45  1  0  0  0
 19 20  2  0  0  0
 19 46  1  0  0  0
 20 21  1  0  0  0
 21 22  2  0  0  0
 21 47  1  0  0  0
 22 48  1  0  0  0
 23 28  1  0  0  0
 23 24  2  0  0  0
 24 25  1  0  0  0
 24 49  1  0  0  0
 25 26  2  0  0  0
 25 50  1  0  0  0
 26 27  1  0  0  0
 26 29  1  0  0  0
 27 28  2  0  0  0
 27 51  1  0  0  0
 28 52  1  0  0  0
M  END
> <s_m_entry_id>
62729

> <s_m_entry_name>
ligand_docking-pose.389

> <s_m_Source_Path>
/home/csk/Desktop/cluster/DUD-E-result/mk14

> <s_m_Source_File>
ligand_docking-pose.sdf

> <i_m_Source_File_Index>
389

> <i_lp_mmshare_version>
53161

> <r_lp_tautomer_probability>
1

> <s_lp_Force_Field>
OPLS_2005

> <r_lp_Energy>
24.728195

> <b_lp_Chiralities_Consistent>
1

> <s_lp_Variant>
211373-1

> <s_i_glide_gridfile>
glide-grid_2qd9

> <i_i_glide_lignum>
491

> <i_i_glide_rotatable_bonds>
8

> <r_i_docking_score>
-6.93558953083905

> <r_i_glide_ligand_efficiency>
-0.239158259684105

> <r_i_glide_ligand_efficiency_sa>
-0.734769944404493

> <r_i_glide_ligand_efficiency_ln>
-1.58807413118624

> <r_i_glide_gscore>
-6.93558953083905

> <r_i_glide_lipo>
-3.27031769715823

> <r_i_glide_hbond>
-0.313957764642428

> <r_i_glide_metal>
0

> <r_i_glide_rewards>
-2.2433072771561

> <r_i_glide_evdw>
-32.604190826416

> <r_i_glide_ecoul>
-2.37480807304382

> <r_i_glide_erotb>
0.912227408862005

> <r_i_glide_esite>
-0.0338034484669288

> <r_i_glide_emodel>
-42.3247965914363

> <r_i_glide_energy>
-34.9789988994598

> <r_i_glide_einternal>
9.37656021118164

> <i_i_glide_confnum>
25

> <i_i_glide_posenum>
107

> <r_i_glide_eff_state_penalty>
0

> <i_f3d_flags>
0

> <s_user_duplicate_titles>
211373

> <s_m_subgroup_title>
dock_pv

> <s_m_subgroupid>
dock_pv1

> <b_m_subgroup_collapsed>
0

$$$$
295272
                    3D
 Schrodinger Suite 2021-1.
 55 60  0  0  1  0            999 V2000
   -0.6434   -0.6826   27.8432 C   0  0  0  0  0  0
   -1.9416   -0.9899   27.4461 C   0  0  0  0  0  0
   -2.2375   -1.1782   26.0960 C   0  0  0  0  0  0
   -1.2194   -1.0861   25.1285 C   0  0  0  0  0  0
    0.0949   -0.7924   25.5389 C   0  0  0  0  0  0
    0.3648   -0.5727   26.8899 C   0  0  0  0  0  0
    1.4000   -0.6688   24.4050 Cl  0  0  0  0  0  0
   -1.5219   -1.2194   23.7488 N   0  0  0  0  0  0
   -1.7202   -0.0408   23.0011 C   0  0  0  0  0  0
   -1.5262    1.2607   23.5022 C   0  0  0  0  0  0
   -1.6372    2.3922   22.6761 C   0  0  0  0  0  0
   -2.1065    2.1268   21.3585 C   0  0  0  0  0  0
   -2.2995    0.8795   20.8953 N   0  0  0  0  0  0
   -2.0936   -0.1762   21.6685 C   0  0  0  0  0  0
   -2.2682   -1.5363   21.0297 C   0  0  0  0  0  0
   -1.8001   -2.6039   21.9055 N   0  0  0  0  0  0
   -1.6231   -2.4850   23.2383 C   0  0  0  0  0  0
   -1.6357   -3.5130   23.8760 O   0  0  0  0  0  0
   -2.4352    3.3264   20.0904 S   0  0  0  0  0  0
   -3.2486    2.3852   18.7600 C   0  0  0  0  0  0
   -2.8350    2.4867   17.4176 C   0  0  0  0  0  0
   -3.5031    1.8263   16.3850 C   0  0  0  0  0  0
   -4.6483    1.0911   16.6668 C   0  0  0  0  0  0
   -5.0992    0.9916   17.9797 C   0  0  0  0  0  0
   -4.4153    1.6345   19.0134 C   0  0  0  0  0  0
   -4.9151    1.5282   20.2616 F   0  0  0  0  0  0
   -5.3274    0.4863   15.6671 F   0  0  0  0  0  0
   -1.1927    3.6451   23.1694 N   0  0  0  0  0  0
   -0.1095    4.4606   22.5664 C   0  0  0  0  0  0
    0.3989    5.3627   23.7145 C   0  0  2  0  0  0
    1.2900    4.5384   24.6477 C   0  0  0  0  0  0
    0.2871    3.5120   25.2048 C   0  0  0  0  0  0
   -1.0648    4.0014   24.6007 C   0  0  1  0  0  0
   -0.8390    5.5055   24.5687 C   0  0  0  0  0  0
   -3.8717   -1.5134   25.6557 Cl  0  0  0  0  0  0
   -0.4153   -0.5305   28.8885 H   0  0  0  0  0  0
   -2.7214   -1.0730   28.1890 H   0  0  0  0  0  0
    1.3709   -0.3303   27.2055 H   0  0  0  0  0  0
   -1.2256    1.3862   24.5279 H   0  0  0  0  0  0
   -3.3159   -1.7093   20.7793 H   0  0  0  0  0  0
   -1.7010   -1.5871   20.0984 H   0  0  0  0  0  0
   -1.7774   -3.5377   21.5250 H   0  0  0  0  0  0
   -1.9687    3.0831   17.1664 H   0  0  0  0  0  0
   -3.1557    1.9145   15.3654 H   0  0  0  0  0  0
   -5.9971    0.4308   18.1948 H   0  0  0  0  0  0
    0.7198    3.8310   22.2429 H   0  0  0  0  0  0
   -0.4350    5.0818   21.7351 H   0  0  0  0  0  0
    0.8540    6.2973   23.3850 H   0  0  0  0  0  0
    2.1067    4.0873   24.0969 H   0  0  0  0  0  0
    1.7221    5.1503   25.4415 H   0  0  0  0  0  0
    0.2668    3.5472   26.2951 H   0  0  0  0  0  0
    0.5636    2.4983   24.9161 H   0  0  0  0  0  0
   -1.9339    3.6956   25.1854 H   0  0  0  0  0  0
   -1.6314    6.0655   24.0901 H   0  0  0  0  0  0
   -0.6577    5.9472   25.5522 H   0  0  0  0  0  0
  1  6  1  0  0  0
  1  2  2  0  0  0
  1 36  1  0  0  0
  2  3  1  0  0  0
  2 37  1  0  0  0
  3  4  2  0  0  0
  3 35  1  0  0  0
  4  5  1  0  0  0
  4  8  1  0  0  0
  5  6  2  0  0  0
  5  7  1  0  0  0
  6 38  1  0  0  0
  8 17  1  0  0  0
  8  9  1  0  0  0
  9 14  2  0  0  0
  9 10  1  0  0  0
 10 11  2  0  0  0
 10 39  1  0  0  0
 11 12  1  0  0  0
 11 28  1  0  0  0
 12 13  2  0  0  0
 12 19  1  0  0  0
 13 14  1  0  0  0
 14 15  1  0  0  0
 15 16  1  0  0  0
 15 40  1  0  0  0
 15 41  1  0  0  0
 16 17  1  0  0  0
 16 42  1  0  0  0
 17 18  2  0  0  0
 19 20  1  0  0  0
 20 25  1  0  0  0
 20 21  2  0  0  0
 21 22  1  0  0  0
 21 43  1  0  0  0
 22 23  2  0  0  0
 22 44  1  0  0  0
 23 24  1  0  0  0
 23 27  1  0  0  0
 24 25  2  0  0  0
 24 45  1  0  0  0
 25 26  1  0  0  0
 28 33  1  0  0  0
 28 29  1  0  0  0
 29 30  1  0  0  0
 29 46  1  0  0  0
 29 47  1  0  0  0
 30 34  1  0  0  0
 30 31  1  0  0  0
 30 48  1  0  0  0
 31 32  1  0  0  0
 31 49  1  0  0  0
 31 50  1  0  0  0
 32 33  1  0  0  0
 32 51  1  0  0  0
 32 52  1  0  0  0
 33 34  1  0  0  0
 33 53  1  0  0  0
 34 54  1  0  0  0
 34 55  1  0  0  0
M  END
> <s_m_entry_id>
62731

> <s_m_entry_name>
ligand_docking-pose.391

> <s_m_Source_Path>
/home/csk/Desktop/cluster/DUD-E-result/mk14

> <s_m_Source_File>
ligand_docking-pose.sdf

> <i_m_Source_File_Index>
391

> <i_lp_mmshare_version>
53161

> <r_lp_tautomer_probability>
1

> <s_lp_Force_Field>
OPLS_2005

> <r_lp_Energy>
97.471401

> <b_lp_Chiralities_Consistent>
1

> <s_lp_Variant>
295272-2

> <s_i_glide_gridfile>
glide-grid_2qd9

> <i_i_glide_lignum>
454

> <i_i_glide_rotatable_bonds>
4

> <r_i_docking_score>
-6.92998229185665

> <r_i_glide_ligand_efficiency>
-0.197999494053047

> <r_i_glide_ligand_efficiency_sa>
-0.647669473663745

> <r_i_glide_ligand_efficiency_ln>
-1.52128491573283

> <r_i_glide_gscore>
-6.92998229185665

> <r_i_glide_lipo>
-2.72928430772609

> <r_i_glide_hbond>
-0.466953365613036

> <r_i_glide_metal>
0

> <r_i_glide_rewards>
-1.35178495261624

> <r_i_glide_evdw>
-21.8423938751221

> <r_i_glide_ecoul>
-10.2924184799194

> <r_i_glide_erotb>
0.290044042729246

> <r_i_glide_esite>
-0.0360212428865126

> <r_i_glide_emodel>
-43.3144833237808

> <r_i_glide_energy>
-32.1348123550415

> <r_i_glide_einternal>
8.77805423736572

> <i_i_glide_confnum>
16

> <i_i_glide_posenum>
125

> <r_i_glide_eff_state_penalty>
0

> <i_f3d_flags>
0

> <s_user_duplicate_titles>
295272

> <s_m_subgroup_title>
dock_pv

> <s_m_subgroupid>
dock_pv1

> <b_m_subgroup_collapsed>
0

$$$$
621162
                    3D
 Schrodinger Suite 2021-1.
 54 58  0  0  1  0            999 V2000
   -3.3999    1.6711   17.4571 C   0  0  0  0  0  0
   -4.0654    1.3166   16.2908 C   0  0  0  0  0  0
   -5.3293    0.7469   16.3732 C   0  0  0  0  0  0
   -5.9626    0.5947   17.6095 C   0  0  0  0  0  0
   -5.2625    0.8868   18.7804 C   0  0  0  0  0  0
   -3.9705    1.4090   18.7065 C   0  0  0  0  0  0
   -3.2396    1.7509   19.9568 C   0  0  0  0  0  0
   -2.7904    1.0402   21.0794 C   0  0  0  0  0  0
   -2.3041    2.0364   21.9681 C   0  0  0  0  0  0
   -2.2981    3.2166   21.3943 N   0  0  0  0  0  0
   -2.8347    3.0298   20.1982 N   0  0  0  0  0  0
   -1.7450    1.9373   23.3846 C   0  0  0  0  0  0
   -2.7861    1.8521   24.5258 C   0  0  0  0  0  0
   -2.1671    1.6458   25.9239 C   0  0  0  0  0  0
   -1.1739    0.5644   25.9418 N   0  0  1  0  0  0
   -0.0499    0.9083   25.0638 C   0  0  0  0  0  0
   -0.4685    1.0852   23.5896 C   0  0  0  0  0  0
   -0.6619    0.3151   27.2973 C   0  0  0  0  0  0
   -1.7158   -0.2299   28.2534 C   0  0  0  0  0  0
   -2.0701    0.4909   29.3992 C   0  0  0  0  0  0
   -3.0283   -0.0478   30.2606 C   0  0  0  0  0  0
   -3.6301   -1.2433   30.0384 N   0  0  0  0  0  0
   -3.2731   -1.9320   28.9252 C   0  0  0  0  0  0
   -2.3309   -1.4618   28.0090 C   0  0  0  0  0  0
   -2.7527   -0.4378   21.2908 C   0  0  0  0  0  0
   -2.3180   -1.2989   20.2757 C   0  0  0  0  0  0
   -2.0726   -2.6291   20.6311 C   0  0  0  0  0  0
   -2.2513   -3.0943   21.8955 N   0  0  0  0  0  0
   -2.7015   -2.1883   22.7996 C   0  0  0  0  0  0
   -2.9693   -0.8803   22.5595 N   0  0  0  0  0  0
   -6.0359    0.0931   14.9456 Cl  0  0  0  0  0  0
   -2.9416    3.7849   19.5414 H   0  0  0  0  0  0
   -2.4347    2.1335   17.3771 H   0  0  0  0  0  0
   -3.5894    1.4544   15.3299 H   0  0  0  0  0  0
   -6.9412    0.1417   17.6695 H   0  0  0  0  0  0
   -5.7242    0.7017   19.7405 H   0  0  0  0  0  0
   -1.3073    2.8984   23.6699 H   0  0  0  0  0  0
   -3.4792    1.0257   24.3685 H   0  0  0  0  0  0
   -3.3742    2.7698   24.5683 H   0  0  0  0  0  0
   -2.9778    1.3856   26.6064 H   0  0  0  0  0  0
   -1.7341    2.5708   26.3093 H   0  0  0  0  0  0
    0.4776    1.7905   25.4339 H   0  0  0  0  0  0
    0.6717    0.0899   25.1071 H   0  0  0  0  0  0
    0.3773    1.5431   23.0762 H   0  0  0  0  0  0
   -0.5868    0.0809   23.1862 H   0  0  0  0  0  0
   -0.2166    1.2236   27.7097 H   0  0  0  0  0  0
    0.1409   -0.4241   27.2544 H   0  0  0  0  0  0
   -1.6096    1.4419   29.6223 H   0  0  0  0  0  0
   -3.3237    0.4789   31.1557 H   0  0  0  0  0  0
   -3.7544   -2.8864   28.7773 H   0  0  0  0  0  0
   -2.0695   -2.0421   27.1365 H   0  0  0  0  0  0
   -2.1153   -0.9439   19.2754 H   0  0  0  0  0  0
   -1.7201   -3.3425   19.8995 H   0  0  0  0  0  0
   -2.8332   -2.5263   23.8167 H   0  0  0  0  0  0
  1  6  1  0  0  0
  1  2  2  0  0  0
  1 33  1  0  0  0
  2  3  1  0  0  0
  2 34  1  0  0  0
  3  4  2  0  0  0
  3 31  1  0  0  0
  4  5  1  0  0  0
  4 35  1  0  0  0
  5  6  2  0  0  0
  5 36  1  0  0  0
  6  7  1  0  0  0
  7 11  1  0  0  0
  7  8  2  0  0  0
  8  9  1  0  0  0
  8 25  1  0  0  0
  9 12  1  0  0  0
  9 10  2  0  0  0
 10 11  1  0  0  0
 11 32  1  0  0  0
 12 17  1  0  0  0
 12 13  1  0  0  0
 12 37  1  0  0  0
 13 14  1  0  0  0
 13 38  1  0  0  0
 13 39  1  0  0  0
 14 15  1  0  0  0
 14 40  1  0  0  0
 14 41  1  0  0  0
 15 16  1  0  0  0
 15 18  1  0  0  0
 16 17  1  0  0  0
 16 42  1  0  0  0
 16 43  1  0  0  0
 17 44  1  0  0  0
 17 45  1  0  0  0
 18 19  1  0  0  0
 18 46  1  0  0  0
 18 47  1  0  0  0
 19 24  1  0  0  0
 19 20  2  0  0  0
 20 21  1  0  0  0
 20 48  1  0  0  0
 21 22  2  0  0  0
 21 49  1  0  0  0
 22 23  1  0  0  0
 23 24  2  0  0  0
 23 50  1  0  0  0
 24 51  1  0  0  0
 25 30  1  0  0  0
 25 26  2  0  0  0
 26 27  1  0  0  0
 26 52  1  0  0  0
 27 28  2  0  0  0
 27 53  1  0  0  0
 28 29  1  0  0  0
 29 30  2  0  0  0
 29 54  1  0  0  0
M  END
> <s_m_entry_id>
62733

> <s_m_entry_name>
ligand_docking-pose.393

> <s_m_Source_Path>
/home/csk/Desktop/cluster/DUD-E-result/mk14

> <s_m_Source_File>
ligand_docking-pose.sdf

> <i_m_Source_File_Index>
393

> <i_lp_mmshare_version>
53161

> <r_lp_tautomer_probability>
0.5

> <s_lp_Force_Field>
OPLS_2005

> <r_lp_Energy>
20.026994

> <b_lp_Chiralities_Consistent>
1

> <s_lp_Variant>
621162-2

> <s_i_glide_gridfile>
glide-grid_2qd9

> <i_i_glide_lignum>
186

> <i_i_glide_rotatable_bonds>
5

> <r_i_docking_score>
-6.91246816363327

> <r_i_glide_ligand_efficiency>
-0.22298284398817

> <r_i_glide_ligand_efficiency_sa>
-0.70047399111784

> <r_i_glide_ligand_efficiency_ln>
-1.55897341260729

> <r_i_glide_gscore>
-6.91246816363327

> <r_i_glide_lipo>
-3.34876475366103

> <r_i_glide_hbond>
-0.203694205700646

> <r_i_glide_metal>
0

> <r_i_glide_rewards>
-1.70538906042152

> <r_i_glide_evdw>
-42.7372360229492

> <r_i_glide_ecoul>
-0.199782714247704

> <r_i_glide_erotb>
0.53541170063127

> <r_i_glide_esite>
-0.0232026361967313

> <r_i_glide_emodel>
-51.0923372768931

> <r_i_glide_energy>
-42.9370187371969

> <r_i_glide_einternal>
10.3685989379883

> <i_i_glide_confnum>
66

> <i_i_glide_posenum>
222

> <r_i_glide_eff_state_penalty>
0

> <i_f3d_flags>
0

> <s_user_duplicate_titles>
621162

> <s_m_subgroup_title>
dock_pv

> <s_m_subgroupid>
dock_pv1

> <b_m_subgroup_collapsed>
0

$$$$
146831
                    3D
 Schrodinger Suite 2021-1.
 39 42  0  0  1  0            999 V2000
   -5.1303    1.6870   15.6840 C   0  0  0  0  0  0
   -5.8181    1.0738   16.7267 C   0  0  0  0  0  0
   -5.1966    0.8870   17.9567 C   0  0  0  0  0  0
   -3.8669    1.2743   18.1288 C   0  0  0  0  0  0
   -3.1716    1.8571   17.0643 C   0  0  0  0  0  0
   -3.8090    2.0860   15.8593 C   0  0  0  0  0  0
   -3.2353    1.0113   19.4445 C   0  0  0  0  0  0
   -2.8942   -0.1863   20.0548 C   0  0  0  0  0  0
   -2.3692    0.0793   21.3276 C   0  0  0  0  0  0
   -2.4755    1.4528   21.5326 C   0  0  0  0  0  0
   -2.9338    1.9954   20.3537 N   0  0  0  0  0  0
   -2.2256    2.2451   22.7688 C   0  0  0  0  0  0
   -2.8436    1.8483   23.9611 C   0  0  0  0  0  0
   -2.6506    2.5723   25.1374 C   0  0  0  0  0  0
   -1.8242    3.6947   25.1347 C   0  0  0  0  0  0
   -1.1890    4.0874   23.9541 C   0  0  0  0  0  0
   -1.3875    3.3613   22.7794 C   0  0  0  0  0  0
   -0.4044    5.1888   23.9378 F   0  0  0  0  0  0
   -1.6518    4.4059   26.2713 F   0  0  0  0  0  0
   -1.8447   -0.9073   22.3026 C   0  0  0  0  0  0
   -0.7100   -0.6226   23.0760 C   0  0  0  0  0  0
   -0.2945   -1.5485   24.0317 C   0  0  0  0  0  0
   -0.9521   -2.7128   24.2483 N   0  0  0  0  0  0
   -2.0348   -2.9845   23.4766 C   0  0  0  0  0  0
   -2.5067   -2.1202   22.4919 C   0  0  0  0  0  0
   -3.1097    2.9757   20.2073 H   0  0  0  0  0  0
   -5.6187    1.8515   14.7340 H   0  0  0  0  0  0
   -6.8330    0.7445   16.5850 H   0  0  0  0  0  0
   -5.7432    0.4174   18.7638 H   0  0  0  0  0  0
   -2.1366    2.1545   17.1072 H   0  0  0  0  0  0
   -3.2617    2.5793   15.0759 H   0  0  0  0  0  0
   -2.9985   -1.1643   19.6086 H   0  0  0  0  0  0
   -3.4858    0.9789   23.9739 H   0  0  0  0  0  0
   -3.1420    2.2674   26.0500 H   0  0  0  0  0  0
   -0.8918    3.6873   21.8768 H   0  0  0  0  0  0
   -0.1670    0.3018   22.9539 H   0  0  0  0  0  0
    0.5723   -1.3620   24.6510 H   0  0  0  0  0  0
   -2.5495   -3.9092   23.6769 H   0  0  0  0  0  0
   -3.3858   -2.3695   21.9163 H   0  0  0  0  0  0
  1  6  1  0  0  0
  1  2  2  0  0  0
  1 27  1  0  0  0
  2  3  1  0  0  0
  2 28  1  0  0  0
  3  4  2  0  0  0
  3 29  1  0  0  0
  4  5  1  0  0  0
  4  7  1  0  0  0
  5  6  2  0  0  0
  5 30  1  0  0  0
  6 31  1  0  0  0
  7 11  1  0  0  0
  7  8  2  0  0  0
  8  9  1  0  0  0
  8 32  1  0  0  0
  9 10  2  0  0  0
  9 20  1  0  0  0
 10 11  1  0  0  0
 10 12  1  0  0  0
 11 26  1  0  0  0
 12 17  1  0  0  0
 12 13  2  0  0  0
 13 14  1  0  0  0
 13 33  1  0  0  0
 14 15  2  0  0  0
 14 34  1  0  0  0
 15 16  1  0  0  0
 15 19  1  0  0  0
 16 17  2  0  0  0
 16 18  1  0  0  0
 17 35  1  0  0  0
 20 25  1  0  0  0
 20 21  2  0  0  0
 21 22  1  0  0  0
 21 36  1  0  0  0
 22 23  2  0  0  0
 22 37  1  0  0  0
 23 24  1  0  0  0
 24 25  2  0  0  0
 24 38  1  0  0  0
 25 39  1  0  0  0
M  END
> <s_m_entry_id>
62734

> <s_m_entry_name>
ligand_docking-pose.394

> <s_m_Source_Path>
/home/csk/Desktop/cluster/DUD-E-result/mk14

> <s_m_Source_File>
ligand_docking-pose.sdf

> <i_m_Source_File_Index>
394

> <i_lp_mmshare_version>
53161

> <r_lp_tautomer_probability>
1

> <s_lp_Force_Field>
OPLS_2005

> <r_lp_Energy>
15.342311

> <b_lp_Chiralities_Consistent>
1

> <s_lp_Variant>
146831-1

> <s_i_glide_gridfile>
glide-grid_2qd9

> <i_i_glide_lignum>
146

> <i_i_glide_rotatable_bonds>
3

> <r_i_docking_score>
-6.90589404690257

> <r_i_glide_ligand_efficiency>
-0.276235761876103

> <r_i_glide_ligand_efficiency_sa>
-0.807718266787821

> <r_i_glide_ligand_efficiency_ln>
-1.63690384206042

> <r_i_glide_gscore>
-6.90589404690257

> <r_i_glide_lipo>
-3.45020074836122

> <r_i_glide_hbond>
-0.201771780045682

> <r_i_glide_metal>
0

> <r_i_glide_rewards>
-2.16860525107037

> <r_i_glide_evdw>
-33.7832489013672

> <r_i_glide_ecoul>
1.02796626091003

> <r_i_glide_erotb>
0.511523140290964

> <r_i_glide_esite>
-0.0618719017843988

> <r_i_glide_emodel>
-39.2711623138061

> <r_i_glide_energy>
-32.7552826404572

> <r_i_glide_einternal>
8.55131816864014

> <i_i_glide_confnum>
14

> <i_i_glide_posenum>
146

> <r_i_glide_eff_state_penalty>
0

> <i_f3d_flags>
0

> <s_user_duplicate_titles>
146831

> <s_m_subgroup_title>
dock_pv

> <s_m_subgroupid>
dock_pv1

> <b_m_subgroup_collapsed>
0

$$$$
470145
                    3D
 Schrodinger Suite 2021-1.
 55 58  0  0  1  0            999 V2000
   -1.6349    3.2870   22.6434 C   0  0  0  0  0  0
   -1.3914    3.8917   23.8759 C   0  0  0  0  0  0
   -2.0161    3.4031   25.0199 C   0  0  0  0  0  0
   -2.8689    2.3071   24.9423 C   0  0  0  0  0  0
   -3.0824    1.6882   23.7146 C   0  0  0  0  0  0
   -2.4705    2.1780   22.5531 C   0  0  0  0  0  0
   -2.7287    1.5032   21.2396 C   0  0  0  0  0  0
   -2.4562    0.1769   20.9123 C   0  0  0  0  0  0
   -3.0446    0.0069   19.6890 N   0  0  0  0  0  0
   -3.6708    1.1668   19.3686 C   0  0  0  0  0  0
   -3.4289    2.0890   20.2720 N   0  0  0  0  0  0
   -4.8336    1.2870   18.0551 S   0  0  0  0  0  0
   -3.7750    0.8941   16.6339 C   0  0  0  0  0  0
   -3.5290    2.0159   15.6176 C   0  0  0  0  0  0
   -2.4891    2.8870   16.0127 O   0  0  0  0  0  0
   -1.8693   -0.9421   21.6757 C   0  0  0  0  0  0
   -2.0231   -2.2379   21.1870 C   0  0  0  0  0  0
   -1.6691   -3.2856   22.0086 C   0  0  0  0  0  0
   -1.2350   -3.1130   23.2817 N   0  0  0  0  0  0
   -1.0403   -1.8612   23.7429 C   0  0  0  0  0  0
   -1.2806   -0.7526   22.9320 C   0  0  0  0  0  0
   -0.6161   -1.7818   25.0752 N   0  0  0  0  0  0
   -0.6605   -0.5665   25.8870 C   0  0  2  0  0  0
    0.7661   -0.2432   26.3482 C   0  0  0  0  0  0
    0.7918    0.9507   27.3212 C   0  0  0  0  0  0
   -0.1313    0.7313   28.5384 C   0  0  1  0  0  0
   -1.5692    0.3968   28.0737 C   0  0  0  0  0  0
   -1.6226   -0.7859   27.0760 C   0  0  0  0  0  0
    0.3579   -0.3132   29.3587 O   0  0  0  0  0  0
   -1.7975    4.0002   26.2121 F   0  0  0  0  0  0
   -3.1130   -0.8598   19.1768 H   0  0  0  0  0  0
   -1.1781    3.6869   21.7514 H   0  0  0  0  0  0
   -0.7262    4.7397   23.9451 H   0  0  0  0  0  0
   -3.3506    1.9295   25.8318 H   0  0  0  0  0  0
   -3.7034    0.8072   23.6704 H   0  0  0  0  0  0
   -2.8297    0.4867   16.9765 H   0  0  0  0  0  0
   -4.2816    0.0871   16.1065 H   0  0  0  0  0  0
   -3.2314    1.5627   14.6761 H   0  0  0  0  0  0
   -4.4411    2.5829   15.4235 H   0  0  0  0  0  0
   -2.3967    3.5639   15.3284 H   0  0  0  0  0  0
   -2.4434   -2.4531   20.2155 H   0  0  0  0  0  0
   -1.7848   -4.2868   21.6310 H   0  0  0  0  0  0
   -1.0541    0.2343   23.2860 H   0  0  0  0  0  0
   -0.3512   -2.6375   25.5395 H   0  0  0  0  0  0
   -1.0277    0.2794   25.3122 H   0  0  0  0  0  0
    1.1650   -1.1131   26.8612 H   0  0  0  0  0  0
    1.4146   -0.0502   25.4917 H   0  0  0  0  0  0
    0.4997    1.8620   26.7977 H   0  0  0  0  0  0
    1.8130    1.1167   27.6587 H   0  0  0  0  0  0
   -0.1608    1.6304   29.1558 H   0  0  0  0  0  0
   -2.0070    1.2845   27.6184 H   0  0  0  0  0  0
   -2.1945    0.1710   28.9388 H   0  0  0  0  0  0
   -2.6435   -0.9140   26.7133 H   0  0  0  0  0  0
   -1.3669   -1.7074   27.6034 H   0  0  0  0  0  0
    1.3187   -0.2628   29.4279 H   0  0  0  0  0  0
  1  6  1  0  0  0
  1  2  2  0  0  0
  1 32  1  0  0  0
  2  3  1  0  0  0
  2 33  1  0  0  0
  3  4  2  0  0  0
  3 30  1  0  0  0
  4  5  1  0  0  0
  4 34  1  0  0  0
  5  6  2  0  0  0
  5 35  1  0  0  0
  6  7  1  0  0  0
  7 11  1  0  0  0
  7  8  2  0  0  0
  8  9  1  0  0  0
  8 16  1  0  0  0
  9 31  1  0  0  0
  9 10  1  0  0  0
 10 11  2  0  0  0
 10 12  1  0  0  0
 12 13  1  0  0  0
 13 14  1  0  0  0
 13 36  1  0  0  0
 13 37  1  0  0  0
 14 15  1  0  0  0
 14 38  1  0  0  0
 14 39  1  0  0  0
 15 40  1  0  0  0
 16 21  1  0  0  0
 16 17  2  0  0  0
 17 18  1  0  0  0
 17 41  1  0  0  0
 18 19  2  0  0  0
 18 42  1  0  0  0
 19 20  1  0  0  0
 20 21  2  0  0  0
 20 22  1  0  0  0
 21 43  1  0  0  0
 22 23  1  0  0  0
 22 44  1  0  0  0
 23 28  1  0  0  0
 23 24  1  0  0  0
 23 45  1  0  0  0
 24 25  1  0  0  0
 24 46  1  0  0  0
 24 47  1  0  0  0
 25 26  1  0  0  0
 25 48  1  0  0  0
 25 49  1  0  0  0
 26 27  1  0  0  0
 26 29  1  0  0  0
 26 50  1  0  0  0
 27 28  1  0  0  0
 27 51  1  0  0  0
 27 52  1  0  0  0
 28 53  1  0  0  0
 28 54  1  0  0  0
 29 55  1  0  0  0
M  END
> <s_m_entry_id>
62735

> <s_m_entry_name>
ligand_docking-pose.395

> <s_m_Source_Path>
/home/csk/Desktop/cluster/DUD-E-result/mk14

> <s_m_Source_File>
ligand_docking-pose.sdf

> <i_m_Source_File_Index>
395

> <i_lp_mmshare_version>
53161

> <r_lp_tautomer_probability>
0.999999772176425

> <s_lp_Force_Field>
OPLS_2005

> <r_lp_Energy>
16.419189

> <b_lp_Chiralities_Consistent>
1

> <s_lp_Variant>
470145-1

> <s_i_glide_gridfile>
glide-grid_2qd9

> <i_i_glide_lignum>
310

> <i_i_glide_rotatable_bonds>
9

> <r_i_docking_score>
-6.9023178499671

> <r_i_glide_ligand_efficiency>
-0.23007726166557

> <r_i_glide_ligand_efficiency_sa>
-0.714903545517602

> <r_i_glide_ligand_efficiency_ln>
-1.56828182228909

> <r_i_glide_gscore>
-6.9023178499671

> <r_i_glide_lipo>
-2.62723163091128

> <r_i_glide_hbond>
-0.598311200394287

> <r_i_glide_metal>
0

> <r_i_glide_rewards>
-1.63609475233736

> <r_i_glide_evdw>
-38.681884765625

> <r_i_glide_ecoul>
-5.67622661590576

> <r_i_glide_erotb>
0.75722411985278

> <r_i_glide_esite>
-0.012376155509841

> <r_i_glide_emodel>
-54.9687598444988

> <r_i_glide_energy>
-44.3581113815308

> <r_i_glide_einternal>
10.1988496780396

> <i_i_glide_confnum>
137

> <i_i_glide_posenum>
77

> <r_i_glide_eff_state_penalty>
0

> <i_f3d_flags>
0

> <s_user_duplicate_titles>
470145

> <s_m_subgroup_title>
dock_pv

> <s_m_subgroupid>
dock_pv1

> <b_m_subgroup_collapsed>
0

$$$$
146939
                    3D
 Schrodinger Suite 2021-1.
 42 45  0  0  1  0            999 V2000
   -5.1343    1.3032   15.7187 C   0  0  0  0  0  0
   -3.8097    1.7091   15.8244 C   0  0  0  0  0  0
   -3.1783    1.6870   17.0604 C   0  0  0  0  0  0
   -3.8756    1.2654   18.1989 C   0  0  0  0  0  0
   -5.2115    0.8870   18.0911 C   0  0  0  0  0  0
   -5.8287    0.8870   16.8477 C   0  0  0  0  0  0
   -3.2350    1.0623   19.5198 C   0  0  0  0  0  0
   -2.8817   -0.1254   20.1372 C   0  0  0  0  0  0
   -2.3605    0.1465   21.4082 C   0  0  0  0  0  0
   -2.4615    1.5244   21.5963 C   0  0  0  0  0  0
   -2.9235    2.0571   20.4131 N   0  0  0  0  0  0
   -2.2173    2.3256   22.8289 C   0  0  0  0  0  0
   -1.3285    3.3984   22.8483 C   0  0  0  0  0  0
   -1.1218    4.1136   24.0244 C   0  0  0  0  0  0
   -1.8217    3.7758   25.1872 C   0  0  0  0  0  0
   -2.7036    2.6903   25.1701 C   0  0  0  0  0  0
   -2.8915    1.9649   23.9979 C   0  0  0  0  0  0
   -1.6087    4.5896   26.4629 C   0  0  0  0  0  0
   -0.3174    4.8783   26.6291 F   0  0  0  0  0  0
   -2.0351    3.9448   27.5506 F   0  0  0  0  0  0
   -2.2894    5.7311   26.3529 F   0  0  0  0  0  0
   -1.8406   -0.8493   22.3794 C   0  0  0  0  0  0
   -0.7159   -0.5718   23.1689 C   0  0  0  0  0  0
   -0.2881   -1.5267   24.0913 C   0  0  0  0  0  0
   -0.9212   -2.7130   24.2591 N   0  0  0  0  0  0
   -2.0014   -2.9706   23.4791 C   0  0  0  0  0  0
   -2.4863   -2.0787   22.5278 C   0  0  0  0  0  0
   -3.0966    3.0373   20.2561 H   0  0  0  0  0  0
   -5.6201    1.2952   14.7544 H   0  0  0  0  0  0
   -3.2584    2.0179   14.9502 H   0  0  0  0  0  0
   -2.1355    1.9617   17.0760 H   0  0  0  0  0  0
   -5.7563    0.5306   18.9543 H   0  0  0  0  0  0
   -6.8350    0.5308   16.7600 H   0  0  0  0  0  0
   -2.9843   -1.1078   19.6987 H   0  0  0  0  0  0
   -0.7989    3.6870   21.9535 H   0  0  0  0  0  0
   -0.4233    4.9386   24.0268 H   0  0  0  0  0  0
   -3.2467    2.4037   26.0596 H   0  0  0  0  0  0
   -3.5715    1.1247   23.9966 H   0  0  0  0  0  0
   -0.1863    0.3651   23.0759 H   0  0  0  0  0  0
    0.5752   -1.3487   24.7174 H   0  0  0  0  0  0
   -2.4970   -3.9127   23.6396 H   0  0  0  0  0  0
   -3.3564   -2.3270   21.9377 H   0  0  0  0  0  0
  1  6  1  0  0  0
  1  2  2  0  0  0
  1 29  1  0  0  0
  2  3  1  0  0  0
  2 30  1  0  0  0
  3  4  2  0  0  0
  3 31  1  0  0  0
  4  5  1  0  0  0
  4  7  1  0  0  0
  5  6  2  0  0  0
  5 32  1  0  0  0
  6 33  1  0  0  0
  7 11  1  0  0  0
  7  8  2  0  0  0
  8  9  1  0  0  0
  8 34  1  0  0  0
  9 10  2  0  0  0
  9 22  1  0  0  0
 10 11  1  0  0  0
 10 12  1  0  0  0
 11 28  1  0  0  0
 12 17  1  0  0  0
 12 13  2  0  0  0
 13 14  1  0  0  0
 13 35  1  0  0  0
 14 15  2  0  0  0
 14 36  1  0  0  0
 15 16  1  0  0  0
 15 18  1  0  0  0
 16 17  2  0  0  0
 16 37  1  0  0  0
 17 38  1  0  0  0
 18 19  1  0  0  0
 18 20  1  0  0  0
 18 21  1  0  0  0
 22 27  1  0  0  0
 22 23  2  0  0  0
 23 24  1  0  0  0
 23 39  1  0  0  0
 24 25  2  0  0  0
 24 40  1  0  0  0
 25 26  1  0  0  0
 26 27  2  0  0  0
 26 41  1  0  0  0
 27 42  1  0  0  0
M  END
> <s_m_entry_id>
62736

> <s_m_entry_name>
ligand_docking-pose.396

> <s_m_Source_Path>
/home/csk/Desktop/cluster/DUD-E-result/mk14

> <s_m_Source_File>
ligand_docking-pose.sdf

> <i_m_Source_File_Index>
396

> <i_lp_mmshare_version>
53161

> <r_lp_tautomer_probability>
1

> <s_lp_Force_Field>
OPLS_2005

> <r_lp_Energy>
17.689798

> <b_lp_Chiralities_Consistent>
1

> <s_lp_Variant>
146939-1

> <s_i_glide_gridfile>
glide-grid_2qd9

> <i_i_glide_lignum>
129

> <i_i_glide_rotatable_bonds>
4

> <r_i_docking_score>
-6.89536464197953

> <r_i_glide_ligand_efficiency>
-0.255383875628871

> <r_i_glide_ligand_efficiency_sa>
-0.766151626044911

> <r_i_glide_ligand_efficiency_ln>
-1.60512720968222

> <r_i_glide_gscore>
-6.89536464197953

> <r_i_glide_lipo>
-3.51999404326794

> <r_i_glide_hbond>
-0.193486624956805

> <r_i_glide_metal>
0

> <r_i_glide_rewards>
-1.92244486070028

> <r_i_glide_evdw>
-36.6859245300293

> <r_i_glide_ecoul>
1.20668184757233

> <r_i_glide_erotb>
0.434405414512401

> <r_i_glide_esite>
-0.0405505782012936

> <r_i_glide_emodel>
-43.035520029868

> <r_i_glide_energy>
-35.479242682457

> <r_i_glide_einternal>
7.34996891021729

> <i_i_glide_confnum>
5

> <i_i_glide_posenum>
16

> <r_i_glide_eff_state_penalty>
0

> <i_f3d_flags>
0

> <s_user_duplicate_titles>
146939

> <s_m_subgroup_title>
dock_pv

> <s_m_subgroupid>
dock_pv1

> <b_m_subgroup_collapsed>
0

$$$$
147075
                    3D
 Schrodinger Suite 2021-1.
 36 39  0  0  1  0            999 V2000
   -5.1384    1.2871   15.7564 C   0  0  0  0  0  0
   -5.8236    0.8870   16.8964 C   0  0  0  0  0  0
   -5.1914    0.8870   18.1320 C   0  0  0  0  0  0
   -3.8546    1.2687   18.2260 C   0  0  0  0  0  0
   -3.1706    1.6869   17.0759 C   0  0  0  0  0  0
   -3.8122    1.6903   15.8453 C   0  0  0  0  0  0
   -3.2350    1.1669   19.5718 C   0  0  0  0  0  0
   -2.8350    2.1263   20.4923 C   0  0  0  0  0  0
   -2.4580    1.4938   21.6911 C   0  0  0  0  0  0
   -2.4401    0.1210   21.4198 C   0  0  0  0  0  0
   -2.9412   -0.0410   20.1514 N   0  0  0  0  0  0
   -2.0196   -1.0211   22.2205 C   0  0  0  0  0  0
   -1.0203   -1.0284   23.2015 C   0  0  0  0  0  0
   -0.9414   -2.3129   23.7084 C   0  0  0  0  0  0
   -1.8365   -3.1128   23.0770 O   0  0  0  0  0  0
   -2.4842   -2.3321   22.1729 C   0  0  0  0  0  0
   -2.1712    2.1706   22.9898 C   0  0  0  0  0  0
   -1.3312    3.2872   23.0756 C   0  0  0  0  0  0
   -1.1346    3.8908   24.3188 C   0  0  0  0  0  0
   -1.7400    3.4565   25.4525 N   0  0  0  0  0  0
   -2.5547    2.3755   25.3599 C   0  0  0  0  0  0
   -2.7922    1.7082   24.1574 C   0  0  0  0  0  0
   -3.0743   -0.9348   19.7011 H   0  0  0  0  0  0
   -5.6344    1.2729   14.7977 H   0  0  0  0  0  0
   -6.8350    0.5414   16.8238 H   0  0  0  0  0  0
   -5.7358    0.5563   19.0056 H   0  0  0  0  0  0
   -2.1342    1.9859   17.0760 H   0  0  0  0  0  0
   -3.2705    1.9959   14.9643 H   0  0  0  0  0  0
   -2.9187    3.1923   20.3486 H   0  0  0  0  0  0
   -0.4211   -0.1832   23.5095 H   0  0  0  0  0  0
   -0.3213   -2.7727   24.4652 H   0  0  0  0  0  0
   -3.2341   -2.8283   21.5735 H   0  0  0  0  0  0
   -0.8349    3.6837   22.2019 H   0  0  0  0  0  0
   -0.4763    4.7414   24.4223 H   0  0  0  0  0  0
   -3.0217    2.0452   26.2762 H   0  0  0  0  0  0
   -3.4525    0.8533   24.1309 H   0  0  0  0  0  0
  1  6  1  0  0  0
  1  2  2  0  0  0
  1 24  1  0  0  0
  2  3  1  0  0  0
  2 25  1  0  0  0
  3  4  2  0  0  0
  3 26  1  0  0  0
  4  5  1  0  0  0
  4  7  1  0  0  0
  5  6  2  0  0  0
  5 27  1  0  0  0
  6 28  1  0  0  0
  7 11  1  0  0  0
  7  8  2  0  0  0
  8  9  1  0  0  0
  8 29  1  0  0  0
  9 10  2  0  0  0
  9 17  1  0  0  0
 10 11  1  0  0  0
 10 12  1  0  0  0
 11 23  1  0  0  0
 12 16  2  0  0  0
 12 13  1  0  0  0
 13 14  2  0  0  0
 13 30  1  0  0  0
 14 15  1  0  0  0
 14 31  1  0  0  0
 15 16  1  0  0  0
 16 32  1  0  0  0
 17 22  1  0  0  0
 17 18  2  0  0  0
 18 19  1  0  0  0
 18 33  1  0  0  0
 19 20  2  0  0  0
 19 34  1  0  0  0
 20 21  1  0  0  0
 21 22  2  0  0  0
 21 35  1  0  0  0
 22 36  1  0  0  0
M  END
> <s_m_entry_id>
62737

> <s_m_entry_name>
ligand_docking-pose.397

> <s_m_Source_Path>
/home/csk/Desktop/cluster/DUD-E-result/mk14

> <s_m_Source_File>
ligand_docking-pose.sdf

> <i_m_Source_File_Index>
397

> <i_lp_mmshare_version>
53161

> <r_lp_tautomer_probability>
1

> <s_lp_Force_Field>
OPLS_2005

> <r_lp_Energy>
10.836777

> <b_lp_Chiralities_Consistent>
1

> <s_lp_Variant>
147075-1

> <s_i_glide_gridfile>
glide-grid_2qd9

> <i_i_glide_lignum>
162

> <i_i_glide_rotatable_bonds>
3

> <r_i_docking_score>
-6.88890868422215

> <r_i_glide_ligand_efficiency>
-0.313132212919189

> <r_i_glide_ligand_efficiency_sa>
-0.877408775390687

> <r_i_glide_ligand_efficiency_ln>
-1.68390056147354

> <r_i_glide_gscore>
-6.88890868422215

> <r_i_glide_lipo>
-3.38242154422642

> <r_i_glide_hbond>
-0.38904575683528

> <r_i_glide_metal>
0

> <r_i_glide_rewards>
-1.65935700206354

> <r_i_glide_evdw>
-36.0306434631348

> <r_i_glide_ecoul>
-2.14008593559265

> <r_i_glide_erotb>
0.664460682398731

> <r_i_glide_esite>
0

> <r_i_glide_emodel>
-49.3556591421271

> <r_i_glide_energy>
-38.1707293987274

> <r_i_glide_einternal>
4.84291076660156

> <i_i_glide_confnum>
3

> <i_i_glide_posenum>
227

> <r_i_glide_eff_state_penalty>
0

> <i_f3d_flags>
0

> <s_user_duplicate_titles>
147075

> <s_m_subgroup_title>
dock_pv

> <s_m_subgroupid>
dock_pv1

> <b_m_subgroup_collapsed>
0

$$$$
620841
                    3D
 Schrodinger Suite 2021-1.
 52 56  0  0  1  0            999 V2000
    0.8684    0.1811   23.6000 C   0  0  0  0  0  0
   -0.0674   -0.1730   24.7482 C   0  0  0  0  0  0
    0.5037   -0.3795   25.9999 C   0  0  0  0  0  0
   -0.2782   -0.7398   27.0843 C   0  0  0  0  0  0
   -1.6500   -0.9507   26.9336 C   0  0  0  0  0  0
   -2.2361   -0.7439   25.6681 C   0  0  0  0  0  0
   -1.4622   -0.3131   24.5733 C   0  0  0  0  0  0
   -2.1080    0.0994   23.2902 C   0  0  0  0  0  0
   -1.9868    1.4094   22.9528 C   0  0  0  0  0  0
   -2.4099    1.8812   21.6581 C   0  0  0  0  0  0
   -2.3095    3.0617   20.9365 C   0  0  0  0  0  0
   -2.8771    2.9606   19.7683 N   0  0  0  0  0  0
   -3.2984    1.6852   19.6586 N   0  0  0  0  0  0
   -2.9435    0.9495   20.7883 C   0  0  0  0  0  0
   -3.0199   -0.4182   21.1099 N   0  0  0  0  0  0
   -2.6841   -0.8985   22.3647 C   0  0  0  0  0  0
   -2.8288   -2.0797   22.6956 O   0  0  0  0  0  0
   -3.2260   -1.3868   20.0253 C   0  0  0  0  0  0
   -4.0522    1.3563   18.5055 C   0  0  0  0  0  0
   -5.3349    0.8181   18.6599 C   0  0  0  0  0  0
   -6.1357    0.5897   17.5475 C   0  0  0  0  0  0
   -5.6719    0.8752   16.2666 C   0  0  0  0  0  0
   -4.4075    1.4214   16.0959 C   0  0  0  0  0  0
   -3.6074    1.6849   17.2042 C   0  0  0  0  0  0
   -2.4353    2.3169   16.9831 F   0  0  0  0  0  0
   -5.8291    0.4979   19.8758 F   0  0  0  0  0  0
   -2.4458   -1.3360   28.1555 C   0  0  0  0  0  0
   -2.1408   -0.8875   29.2621 O   0  0  0  0  0  0
   -3.4544   -2.2059   27.9779 N   0  0  0  0  0  0
   -4.3101   -2.6535   29.0742 C   0  0  0  0  0  0
   -4.9263   -4.0297   29.0026 C   0  0  0  0  0  0
   -3.8343   -3.7409   30.0086 C   0  0  0  0  0  0
    1.8936   -0.1354   23.7997 H   0  0  0  0  0  0
    0.5607   -0.3423   22.6973 H   0  0  0  0  0  0
    0.8642    1.2541   23.4082 H   0  0  0  0  0  0
    1.5650   -0.2604   26.1441 H   0  0  0  0  0  0
    0.2026   -0.8792   28.0436 H   0  0  0  0  0  0
   -3.3040   -0.8487   25.5404 H   0  0  0  0  0  0
   -1.5048    2.0946   23.6372 H   0  0  0  0  0  0
   -1.7736    3.9526   21.2279 H   0  0  0  0  0  0
   -2.6087   -1.1254   19.1650 H   0  0  0  0  0  0
   -2.9703   -2.4138   20.2965 H   0  0  0  0  0  0
   -4.2600   -1.3795   19.6961 H   0  0  0  0  0  0
   -7.1135    0.1524   17.6886 H   0  0  0  0  0  0
   -6.2973    0.6721   15.4112 H   0  0  0  0  0  0
   -4.0555    1.6715   15.1047 H   0  0  0  0  0  0
   -3.7858   -2.3611   27.0396 H   0  0  0  0  0  0
   -4.8335   -1.8392   29.5719 H   0  0  0  0  0  0
   -4.7063   -4.6617   28.1417 H   0  0  0  0  0  0
   -5.9515   -4.1511   29.3525 H   0  0  0  0  0  0
   -4.0944   -3.6564   31.0637 H   0  0  0  0  0  0
   -2.8365   -4.1533   29.8766 H   0  0  0  0  0  0
  1  2  1  0  0  0
  1 33  1  0  0  0
  1 34  1  0  0  0
  1 35  1  0  0  0
  2  7  1  0  0  0
  2  3  2  0  0  0
  3  4  1  0  0  0
  3 36  1  0  0  0
  4  5  2  0  0  0
  4 37  1  0  0  0
  5  6  1  0  0  0
  5 27  1  0  0  0
  6  7  2  0  0  0
  6 38  1  0  0  0
  7  8  1  0  0  0
  8 16  1  0  0  0
  8  9  2  0  0  0
  9 10  1  0  0  0
  9 39  1  0  0  0
 10 14  2  0  0  0
 10 11  1  0  0  0
 11 12  2  0  0  0
 11 40  1  0  0  0
 12 13  1  0  0  0
 13 14  1  0  0  0
 13 19  1  0  0  0
 14 15  1  0  0  0
 15 16  1  0  0  0
 15 18  1  0  0  0
 16 17  2  0  0  0
 18 41  1  0  0  0
 18 42  1  0  0  0
 18 43  1  0  0  0
 19 24  1  0  0  0
 19 20  2  0  0  0
 20 21  1  0  0  0
 20 26  1  0  0  0
 21 22  2  0  0  0
 21 44  1  0  0  0
 22 23  1  0  0  0
 22 45  1  0  0  0
 23 24  2  0  0  0
 23 46  1  0  0  0
 24 25  1  0  0  0
 27 28  2  0  0  0
 27 29  1  0  0  0
 29 30  1  0  0  0
 29 47  1  0  0  0
 30 32  1  0  0  0
 30 31  1  0  0  0
 30 48  1  0  0  0
 31 32  1  0  0  0
 31 49  1  0  0  0
 31 50  1  0  0  0
 32 51  1  0  0  0
 32 52  1  0  0  0
M  END
> <s_m_entry_id>
62738

> <s_m_entry_name>
ligand_docking-pose.398

> <s_m_Source_Path>
/home/csk/Desktop/cluster/DUD-E-result/mk14

> <s_m_Source_File>
ligand_docking-pose.sdf

> <i_m_Source_File_Index>
398

> <i_lp_mmshare_version>
53161

> <r_lp_tautomer_probability>
1

> <s_lp_Force_Field>
OPLS_2005

> <r_lp_Energy>
60.272106

> <b_lp_Chiralities_Consistent>
1

> <s_lp_Variant>
620841-1

> <s_i_glide_gridfile>
glide-grid_2qd9

> <i_i_glide_lignum>
702

> <i_i_glide_rotatable_bonds>
5

> <r_i_docking_score>
-6.87606682660299

> <r_i_glide_ligand_efficiency>
-0.214877088331344

> <r_i_glide_ligand_efficiency_sa>
-0.682192231333978

> <r_i_glide_ligand_efficiency_ln>
-1.53973879697905

> <r_i_glide_gscore>
-6.87606682660299

> <r_i_glide_lipo>
-3.32887197789924

> <r_i_glide_hbond>
0

> <r_i_glide_metal>
0

> <r_i_glide_rewards>
-1.96275305630817

> <r_i_glide_evdw>
-36.273609161377

> <r_i_glide_ecoul>
-1.91170501708984

> <r_i_glide_erotb>
0.527607477630602

> <r_i_glide_esite>
-0.0116130593938628

> <r_i_glide_emodel>
-47.6991948613596

> <r_i_glide_energy>
-38.1853141784668

> <r_i_glide_einternal>
2.37501811981201

> <i_i_glide_confnum>
133

> <i_i_glide_posenum>
272

> <r_i_glide_eff_state_penalty>
0

> <i_f3d_flags>
0

> <s_user_duplicate_titles>
620841

> <s_m_subgroup_title>
dock_pv

> <s_m_subgroupid>
dock_pv1

> <b_m_subgroup_collapsed>
0

$$$$
616644
                    3D
 Schrodinger Suite 2021-1.
 42 44  0  0  1  0            999 V2000
   -0.8451    0.2055   27.9319 C   0  0  0  0  0  0
   -1.7723   -0.7623   27.5499 C   0  0  0  0  0  0
   -1.5510   -1.5131   26.3985 C   0  0  0  0  0  0
   -0.4019   -1.2949   25.6341 C   0  0  0  0  0  0
    0.5159   -0.3124   26.0162 C   0  0  0  0  0  0
    0.2986    0.4346   27.1699 C   0  0  0  0  0  0
   -0.1330   -2.1388   24.3941 C   0  0  0  0  0  0
   -1.1444   -1.9053   23.2614 C   0  0  0  0  0  0
   -1.1786   -0.5118   22.9780 O   0  0  0  0  0  0
   -1.9504   -0.0582   21.9574 C   0  0  0  0  0  0
   -2.7394   -0.9214   21.0788 C   0  0  0  0  0  0
   -3.5723   -0.3141   20.2147 C   0  0  0  0  0  0
   -3.6920    1.0468   20.0609 N   0  0  0  0  0  0
   -2.8350    1.9049   20.7226 C   0  0  0  0  0  0
   -2.7556    3.1135   20.4748 O   0  0  0  0  0  0
   -2.0378    1.2852   21.7886 C   0  0  0  0  0  0
   -1.1344    2.5015   23.0762 Br  0  0  0  0  0  0
   -4.7591    1.6418   19.2377 C   0  0  0  0  0  0
   -4.7278    1.2870   17.7567 C   0  0  0  0  0  0
   -3.5425    1.3378   17.0187 C   0  0  0  0  0  0
   -3.5400    0.9459   15.6830 C   0  0  0  0  0  0
   -4.7108    0.4807   15.0946 C   0  0  0  0  0  0
   -5.9000    0.4737   15.8124 C   0  0  0  0  0  0
   -5.9122    0.8870   17.1397 C   0  0  0  0  0  0
   -1.0105    0.7805   28.8311 H   0  0  0  0  0  0
   -2.6517   -0.9378   28.1513 H   0  0  0  0  0  0
   -2.2642   -2.2721   26.1129 H   0  0  0  0  0  0
    1.4079   -0.1368   25.4323 H   0  0  0  0  0  0
    1.0191    1.1811   27.4748 H   0  0  0  0  0  0
    0.8700   -1.9236   24.0226 H   0  0  0  0  0  0
   -0.1141   -3.1892   24.6805 H   0  0  0  0  0  0
   -0.8347   -2.4787   22.3859 H   0  0  0  0  0  0
   -2.1327   -2.2593   23.5608 H   0  0  0  0  0  0
   -2.6567   -1.9979   21.0899 H   0  0  0  0  0  0
   -4.1517   -0.8613   19.4832 H   0  0  0  0  0  0
   -5.7024    1.2871   19.6572 H   0  0  0  0  0  0
   -4.8004    2.7271   19.3290 H   0  0  0  0  0  0
   -2.6221    1.6644   17.4757 H   0  0  0  0  0  0
   -2.6225    0.9653   15.1146 H   0  0  0  0  0  0
   -4.6936    0.0872   14.0876 H   0  0  0  0  0  0
   -6.8042    0.1046   15.3519 H   0  0  0  0  0  0
   -6.8351    0.8438   17.6980 H   0  0  0  0  0  0
  1  6  1  0  0  0
  1  2  2  0  0  0
  1 25  1  0  0  0
  2  3  1  0  0  0
  2 26  1  0  0  0
  3  4  2  0  0  0
  3 27  1  0  0  0
  4  5  1  0  0  0
  4  7  1  0  0  0
  5  6  2  0  0  0
  5 28  1  0  0  0
  6 29  1  0  0  0
  7  8  1  0  0  0
  7 30  1  0  0  0
  7 31  1  0  0  0
  8  9  1  0  0  0
  8 32  1  0  0  0
  8 33  1  0  0  0
  9 10  1  0  0  0
 10 16  2  0  0  0
 10 11  1  0  0  0
 11 12  2  0  0  0
 11 34  1  0  0  0
 12 13  1  0  0  0
 12 35  1  0  0  0
 13 14  1  0  0  0
 13 18  1  0  0  0
 14 15  2  0  0  0
 14 16  1  0  0  0
 16 17  1  0  0  0
 18 19  1  0  0  0
 18 36  1  0  0  0
 18 37  1  0  0  0
 19 24  1  0  0  0
 19 20  2  0  0  0
 20 21  1  0  0  0
 20 38  1  0  0  0
 21 22  2  0  0  0
 21 39  1  0  0  0
 22 23  1  0  0  0
 22 40  1  0  0  0
 23 24  2  0  0  0
 23 41  1  0  0  0
 24 42  1  0  0  0
M  END
> <s_m_entry_id>
62742

> <s_m_entry_name>
ligand_docking-pose.402

> <s_m_Source_Path>
/home/csk/Desktop/cluster/DUD-E-result/mk14

> <s_m_Source_File>
ligand_docking-pose.sdf

> <i_m_Source_File_Index>
402

> <i_lp_mmshare_version>
53161

> <r_lp_tautomer_probability>
1

> <s_lp_Force_Field>
OPLS_2005

> <r_lp_Energy>
21.244475

> <b_lp_Chiralities_Consistent>
1

> <s_lp_Variant>
616644-1

> <s_i_glide_gridfile>
glide-grid_2qd9

> <i_i_glide_lignum>
397

> <i_i_glide_rotatable_bonds>
6

> <r_i_docking_score>
-6.86466178797003

> <r_i_glide_ligand_efficiency>
-0.286027574498751

> <r_i_glide_ligand_efficiency_sa>
-0.825046291959774

> <r_i_glide_ligand_efficiency_ln>
-1.64302856466508

> <r_i_glide_gscore>
-6.86466178797003

> <r_i_glide_lipo>
-4.07173714782648

> <r_i_glide_hbond>
0

> <r_i_glide_metal>
0

> <r_i_glide_rewards>
-1.31176239202771

> <r_i_glide_evdw>
-38.9688987731934

> <r_i_glide_ecoul>
-1.27340269088745

> <r_i_glide_erotb>
0.658293094176943

> <r_i_glide_esite>
0

> <r_i_glide_emodel>
-53.9924871430611

> <r_i_glide_energy>
-40.2423014640808

> <r_i_glide_einternal>
3.41118621826172

> <i_i_glide_confnum>
4

> <i_i_glide_posenum>
195

> <r_i_glide_eff_state_penalty>
0

> <i_f3d_flags>
0

> <s_user_duplicate_titles>
616644

> <s_m_subgroup_title>
dock_pv

> <s_m_subgroupid>
dock_pv1

> <b_m_subgroup_collapsed>
0

$$$$
180694
                    3D
 Schrodinger Suite 2021-1.
 51 54  0  0  1  0            999 V2000
    1.1629    2.2281   27.6429 C   0  0  0  0  0  0
    0.3593    1.2857   28.3471 O   0  0  0  0  0  0
   -0.3398    0.3500   27.6155 C   0  0  0  0  0  0
    0.0510   -0.1148   26.3521 C   0  0  0  0  0  0
   -0.7517   -1.0156   25.6589 C   0  0  0  0  0  0
   -1.9649   -1.4458   26.2113 C   0  0  0  0  0  0
   -2.3188   -1.0284   27.4951 C   0  0  0  0  0  0
   -1.5053   -0.1447   28.1952 C   0  0  0  0  0  0
   -2.9655   -2.3183   25.4530 C   0  0  0  0  0  0
   -2.4351   -3.0526   24.2947 N   0  0  0  0  0  0
   -2.3517   -2.4599   23.0341 C   0  0  0  0  0  0
   -2.5552   -1.1008   22.8794 C   0  0  0  0  0  0
   -2.4097   -0.5341   21.6243 C   0  0  0  0  0  0
   -2.1637   -1.3458   20.5169 C   0  0  0  0  0  0
   -2.0053   -2.7125   20.7413 C   0  0  0  0  0  0
   -2.0754   -3.2684   21.9807 N   0  0  0  0  0  0
   -2.3929    0.9280   21.6025 C   0  0  0  0  0  0
   -2.8262    1.9032   20.7173 C   0  0  0  0  0  0
   -2.4349    3.1088   21.1383 N   0  0  0  0  0  0
   -1.7731    2.9123   22.2759 C   0  0  0  0  0  0
   -1.7804    1.6060   22.6110 N   0  0  0  0  0  0
   -0.8349    4.0867   23.1929 S   0  0  0  0  0  0
    0.4763    3.0244   23.8754 C   0  0  0  0  0  0
   -3.6591    1.6334   19.5031 C   0  0  0  0  0  0
   -3.2902    2.0138   18.2074 C   0  0  0  0  0  0
   -4.0603    1.6124   17.1149 C   0  0  0  0  0  0
   -5.2387    0.8990   17.3218 C   0  0  0  0  0  0
   -5.6347    0.5511   18.6107 C   0  0  0  0  0  0
   -4.8283    0.8882   19.6899 C   0  0  0  0  0  0
   -6.0067    0.5507   16.2652 F   0  0  0  0  0  0
   -1.3143    1.1936   23.4061 H   0  0  0  0  0  0
    1.6405    2.8968   28.3589 H   0  0  0  0  0  0
    0.5490    2.8439   26.9828 H   0  0  0  0  0  0
    1.9427    1.7560   27.0471 H   0  0  0  0  0  0
    0.9712    0.2110   25.8940 H   0  0  0  0  0  0
   -0.4311   -1.3496   24.6838 H   0  0  0  0  0  0
   -3.2358   -1.3712   27.9511 H   0  0  0  0  0  0
   -1.7975    0.1893   29.1799 H   0  0  0  0  0  0
   -3.4234   -3.0253   26.1391 H   0  0  0  0  0  0
   -3.8041   -1.6919   25.1458 H   0  0  0  0  0  0
   -2.7987   -3.9909   24.2265 H   0  0  0  0  0  0
   -2.7632   -0.4702   23.7290 H   0  0  0  0  0  0
   -2.0482   -0.9276   19.5276 H   0  0  0  0  0  0
   -1.7997   -3.3878   19.9220 H   0  0  0  0  0  0
    1.2383    3.6361   24.3583 H   0  0  0  0  0  0
    0.0708    2.3386   24.6184 H   0  0  0  0  0  0
    0.9597    2.4456   23.0892 H   0  0  0  0  0  0
   -2.4352    2.6428   18.0214 H   0  0  0  0  0  0
   -3.7722    1.8928   16.1120 H   0  0  0  0  0  0
   -6.5481   -0.0037   18.7604 H   0  0  0  0  0  0
   -5.1206    0.5678   20.6769 H   0  0  0  0  0  0
  1  2  1  0  0  0
  1 32  1  0  0  0
  1 33  1  0  0  0
  1 34  1  0  0  0
  2  3  1  0  0  0
  3  8  1  0  0  0
  3  4  2  0  0  0
  4  5  1  0  0  0
  4 35  1  0  0  0
  5  6  2  0  0  0
  5 36  1  0  0  0
  6  7  1  0  0  0
  6  9  1  0  0  0
  7  8  2  0  0  0
  7 37  1  0  0  0
  8 38  1  0  0  0
  9 10  1  0  0  0
  9 39  1  0  0  0
  9 40  1  0  0  0
 10 11  1  0  0  0
 10 41  1  0  0  0
 11 16  1  0  0  0
 11 12  2  0  0  0
 12 13  1  0  0  0
 12 42  1  0  0  0
 13 14  2  0  0  0
 13 17  1  0  0  0
 14 15  1  0  0  0
 14 43  1  0  0  0
 15 16  2  0  0  0
 15 44  1  0  0  0
 17 21  1  0  0  0
 17 18  2  0  0  0
 18 19  1  0  0  0
 18 24  1  0  0  0
 19 20  2  0  0  0
 20 21  1  0  0  0
 20 22  1  0  0  0
 21 31  1  0  0  0
 22 23  1  0  0  0
 23 45  1  0  0  0
 23 46  1  0  0  0
 23 47  1  0  0  0
 24 29  1  0  0  0
 24 25  2  0  0  0
 25 26  1  0  0  0
 25 48  1  0  0  0
 26 27  2  0  0  0
 26 49  1  0  0  0
 27 28  1  0  0  0
 27 30  1  0  0  0
 28 29  2  0  0  0
 28 50  1  0  0  0
 29 51  1  0  0  0
M  END
> <s_m_entry_id>
62751

> <s_m_entry_name>
ligand_docking-pose.411

> <s_m_Source_Path>
/home/csk/Desktop/cluster/DUD-E-result/mk14

> <s_m_Source_File>
ligand_docking-pose.sdf

> <i_m_Source_File_Index>
411

> <i_lp_mmshare_version>
53161

> <r_lp_tautomer_probability>
0.999999772176425

> <s_lp_Force_Field>
OPLS_2005

> <r_lp_Energy>
16.992351

> <b_lp_Chiralities_Consistent>
1

> <s_lp_Variant>
180694-1

> <s_i_glide_gridfile>
glide-grid_2qd9

> <i_i_glide_lignum>
2517

> <i_i_glide_rotatable_bonds>
7

> <r_i_docking_score>
-6.8355600105569

> <r_i_glide_ligand_efficiency>
-0.227852000351897

> <r_i_glide_ligand_efficiency_sa>
-0.707989141237353

> <r_i_glide_ligand_efficiency_ln>
-1.55311371379017

> <r_i_glide_gscore>
-6.8355600105569

> <r_i_glide_lipo>
-3.41978102477526

> <r_i_glide_hbond>
-0.32

> <r_i_glide_metal>
0

> <r_i_glide_rewards>
-1.80967569467668

> <r_i_glide_evdw>
-25.5239486694336

> <r_i_glide_ecoul>
-3.58767604827881

> <r_i_glide_erotb>
0.559684044285318

> <r_i_glide_esite>
-0.0314384946767647

> <r_i_glide_emodel>
-30.0184496373141

> <r_i_glide_energy>
-29.1116247177124

> <r_i_glide_einternal>
9.69533824920654

> <i_i_glide_confnum>
27

> <i_i_glide_posenum>
179

> <r_i_glide_eff_state_penalty>
0

> <i_f3d_flags>
0

> <s_user_duplicate_titles>
180694

> <s_m_subgroup_title>
dock_pv

> <s_m_subgroupid>
dock_pv1

> <b_m_subgroup_collapsed>
0

$$$$
211177
                    3D
 Schrodinger Suite 2021-1.
 49 52  0  0  1  0            999 V2000
   -1.7106   -1.2644   26.7959 C   0  0  0  0  0  0
   -2.7235   -0.3793   26.4373 C   0  0  0  0  0  0
   -2.4362    0.9747   26.2928 C   0  0  0  0  0  0
   -1.1285    1.4256   26.4786 C   0  0  0  0  0  0
   -0.1162    0.5396   26.8537 C   0  0  0  0  0  0
   -0.4112   -0.8115   27.0087 C   0  0  0  0  0  0
   -0.7355    3.1962   26.2614 S   0  0  2  0  0  0
   -2.0195    3.8693   25.7657 O   0  0  0  0  0  0
    0.3998    3.0173   24.7945 C   0  0  0  0  0  0
   -0.3362    3.1649   23.4480 C   0  0  0  0  0  0
   -1.2795    1.9928   23.0764 C   0  0  0  0  0  0
   -2.0352    2.1827   21.8296 N   0  0  0  0  0  0
   -2.0355    3.2870   21.0194 C   0  0  0  0  0  0
   -2.7939    3.1855   19.9683 N   0  0  0  0  0  0
   -3.2339    1.9400   19.9834 C   0  0  0  0  0  0
   -2.7690    1.2487   21.1179 C   0  0  0  0  0  0
   -2.7984   -0.1951   21.4854 C   0  0  0  0  0  0
   -2.4376   -1.1453   20.5237 C   0  0  0  0  0  0
   -2.2678   -2.4724   20.9220 C   0  0  0  0  0  0
   -2.4397   -2.8873   22.2028 N   0  0  0  0  0  0
   -2.8351   -1.9627   23.1135 C   0  0  0  0  0  0
   -3.0402   -0.6212   22.7962 C   0  0  0  0  0  0
   -4.0539    1.4714   18.8363 C   0  0  0  0  0  0
   -3.5981    1.6756   17.5273 C   0  0  0  0  0  0
   -4.3873    1.3064   16.4442 C   0  0  0  0  0  0
   -5.6416    0.7554   16.6715 C   0  0  0  0  0  0
   -6.1035    0.5468   17.9731 C   0  0  0  0  0  0
   -5.2990    0.8858   19.0585 C   0  0  0  0  0  0
   -6.3931    0.3643   15.6195 F   0  0  0  0  0  0
   -1.9350   -2.3113   26.9203 H   0  0  0  0  0  0
   -3.7269   -0.7439   26.2776 H   0  0  0  0  0  0
   -3.2206    1.6674   26.0233 H   0  0  0  0  0  0
    0.8947    0.8894   27.0190 H   0  0  0  0  0  0
    0.3649   -1.5077   27.2926 H   0  0  0  0  0  0
    1.1441    3.8090   24.8799 H   0  0  0  0  0  0
    0.9650    2.0865   24.8424 H   0  0  0  0  0  0
   -0.8967    4.1004   23.4680 H   0  0  0  0  0  0
    0.4224    3.2880   22.6759 H   0  0  0  0  0  0
   -0.7171    1.0606   23.0066 H   0  0  0  0  0  0
   -2.0196    1.8659   23.8594 H   0  0  0  0  0  0
   -1.3526    4.0868   21.2301 H   0  0  0  0  0  0
   -2.2429   -0.8549   19.5016 H   0  0  0  0  0  0
   -1.9732   -3.2273   20.2073 H   0  0  0  0  0  0
   -2.9713   -2.3108   24.1262 H   0  0  0  0  0  0
   -3.3336    0.0760   23.5646 H   0  0  0  0  0  0
   -2.6351    2.1288   17.3441 H   0  0  0  0  0  0
   -4.0354    1.4535   15.4334 H   0  0  0  0  0  0
   -7.0721    0.0955   18.1315 H   0  0  0  0  0  0
   -5.6535    0.7206   20.0654 H   0  0  0  0  0  0
  1  6  1  0  0  0
  1  2  2  0  0  0
  1 30  1  0  0  0
  2  3  1  0  0  0
  2 31  1  0  0  0
  3  4  2  0  0  0
  3 32  1  0  0  0
  4  5  1  0  0  0
  4  7  1  0  0  0
  5  6  2  0  0  0
  5 33  1  0  0  0
  6 34  1  0  0  0
  7  8  2  0  0  0
  7  9  1  0  0  0
  9 10  1  0  0  0
  9 35  1  0  0  0
  9 36  1  0  0  0
 10 11  1  0  0  0
 10 37  1  0  0  0
 10 38  1  0  0  0
 11 12  1  0  0  0
 11 39  1  0  0  0
 11 40  1  0  0  0
 12 16  1  0  0  0
 12 13  1  0  0  0
 13 14  2  0  0  0
 13 41  1  0  0  0
 14 15  1  0  0  0
 15 16  2  0  0  0
 15 23  1  0  0  0
 16 17  1  0  0  0
 17 22  1  0  0  0
 17 18  2  0  0  0
 18 19  1  0  0  0
 18 42  1  0  0  0
 19 20  2  0  0  0
 19 43  1  0  0  0
 20 21  1  0  0  0
 21 22  2  0  0  0
 21 44  1  0  0  0
 22 45  1  0  0  0
 23 28  1  0  0  0
 23 24  2  0  0  0
 24 25  1  0  0  0
 24 46  1  0  0  0
 25 26  2  0  0  0
 25 47  1  0  0  0
 26 27  1  0  0  0
 26 29  1  0  0  0
 27 28  2  0  0  0
 27 48  1  0  0  0
 28 49  1  0  0  0
M  END
> <s_m_entry_id>
62752

> <s_m_entry_name>
ligand_docking-pose.412

> <s_m_Source_Path>
/home/csk/Desktop/cluster/DUD-E-result/mk14

> <s_m_Source_File>
ligand_docking-pose.sdf

> <i_m_Source_File_Index>
412

> <i_lp_mmshare_version>
53161

> <r_lp_tautomer_probability>
1

> <s_lp_Force_Field>
OPLS_2005

> <r_lp_Energy>
19.820277

> <b_lp_Chiralities_Consistent>
1

> <s_lp_Variant>
211177-1

> <s_i_glide_gridfile>
glide-grid_2qd9

> <i_i_glide_lignum>
640

> <i_i_glide_rotatable_bonds>
7

> <r_i_docking_score>
-6.80982190005192

> <r_i_glide_ligand_efficiency>
-0.234821444829377

> <r_i_glide_ligand_efficiency_sa>
-0.721445875171381

> <r_i_glide_ligand_efficiency_ln>
-1.55927653292793

> <r_i_glide_gscore>
-6.80982190005192

> <r_i_glide_lipo>
-3.77427690630333

> <r_i_glide_hbond>
-0.105079224456911

> <r_i_glide_metal>
0

> <r_i_glide_rewards>
-1.33915797010656

> <r_i_glide_evdw>
-34.396427154541

> <r_i_glide_ecoul>
-3.56350040435791

> <r_i_glide_erotb>
0.717177949876128

> <r_i_glide_esite>
-0.0541393306805132

> <r_i_glide_emodel>
-44.9831489767338

> <r_i_glide_energy>
-37.9599275588989

> <r_i_glide_einternal>
8.8298282623291

> <i_i_glide_confnum>
24

> <i_i_glide_posenum>
399

> <r_i_glide_eff_state_penalty>
0

> <i_f3d_flags>
0

> <s_user_duplicate_titles>
211177

> <s_m_subgroup_title>
dock_pv

> <s_m_subgroupid>
dock_pv1

> <b_m_subgroup_collapsed>
0

$$$$
