CHEMBL1782_lig158
                    3D
 Schrodinger Suite 2021-1.
 31 32  0  0  1  0            999 V2000
   16.5441   35.2893   -8.9682 C   0  0  0  0  0  0
   17.3339   34.5520  -10.4969 P   0  0  0  0  0  0
   16.2858   37.1218   -9.2907 P   0  0  0  0  0  0
   18.8226   35.3800  -10.6150 O   0  0  0  0  0  0
   17.7010   32.9649   -9.9650 O   0  0  0  0  0  0
   16.5010   34.5800  -11.7491 O   0  0  0  0  0  0
   14.9010   37.4862   -8.3650 O   0  0  0  0  0  0
   16.1010   37.4730  -10.7574 O   0  0  0  0  0  0
   17.6808   37.7925   -8.5899 O   0  0  0  0  0  0
   15.2297   34.5958   -8.4264 C   0  0  0  0  0  0
   15.0649   33.1660   -8.7315 N   0  0  0  0  0  0
   14.6928   32.6907   -9.9647 C   0  0  0  0  0  0
   14.6516   31.3987  -10.0670 N   0  0  0  0  0  0
   15.1073   32.0326   -7.9174 C   0  0  0  0  0  0
   14.9057   30.9521   -8.8190 C   0  0  0  0  0  0
   14.9821   29.6256   -8.3973 C   0  0  0  0  0  0
   15.2004   29.3877   -7.0504 C   0  0  0  0  0  0
   15.3461   30.4418   -6.1553 C   0  0  0  0  0  0
   15.3010   31.7878   -6.5538 C   0  0  0  0  0  0
   17.2855   35.1788   -8.1646 H   0  0  0  0  0  0
   18.9010   36.3088  -10.9571 H   0  0  0  0  0  0
   16.9195   32.3828   -9.7771 H   0  0  0  0  0  0
   14.0055   37.2264   -8.6886 H   0  0  0  0  0  0
   18.0027   38.6724   -8.8968 H   0  0  0  0  0  0
   15.1412   34.7278   -7.3475 H   0  0  0  0  0  0
   14.3466   35.0797   -8.8449 H   0  0  0  0  0  0
   14.5014   33.3800  -10.7650 H   0  0  0  0  0  0
   14.9010   28.8102   -9.0991 H   0  0  0  0  0  0
   15.2729   28.3650   -6.7125 H   0  0  0  0  0  0
   15.5579   30.1800   -5.1325 H   0  0  0  0  0  0
   15.4494   32.5827   -5.8419 H   0  0  0  0  0  0
  1 10  1  0  0  0
  1  3  1  0  0  0
  1  2  1  0  0  0
  1 20  1  0  0  0
  2  6  2  0  0  0
  2  4  1  0  0  0
  2  5  1  0  0  0
  3  7  1  0  0  0
  3  8  2  0  0  0
  3  9  1  0  0  0
  4 21  1  0  0  0
  5 22  1  0  0  0
  7 23  1  0  0  0
  9 24  1  0  0  0
 10 11  1  0  0  0
 10 25  1  0  0  0
 10 26  1  0  0  0
 11 12  1  0  0  0
 11 14  1  0  0  0
 12 13  2  0  0  0
 12 27  1  0  0  0
 13 15  1  0  0  0
 14 15  2  0  0  0
 14 19  1  0  0  0
 15 16  1  0  0  0
 16 17  2  0  0  0
 16 28  1  0  0  0
 17 18  1  0  0  0
 17 29  1  0  0  0
 18 19  2  0  0  0
 18 30  1  0  0  0
 19 31  1  0  0  0
M  END
> <s_m_entry_id>
2987

> <s_m_entry_name>
dock_pv.2

> <s_m_Source_Path>
/home/csk/Desktop/cluster/DUD-E-result/fpps

> <s_m_Source_File>
dock_pv.maegz

> <i_m_Source_File_Index>
2

> <chembl_id>
CHEMBL457423

> <chembl_pref_name>
None

> <i_lp_mmshare_version>
53161

> <r_lp_tautomer_probability>
1

> <s_lp_Force_Field>
OPLS_2005

> <r_lp_Energy>
3.879332

> <b_lp_Chiralities_Consistent>
1

> <s_lp_Variant>
CHEMBL1782_lig158-1

> <s_i_glide_gridfile>
glide-grid_1zw5

> <i_i_glide_lignum>
179

> <i_i_glide_rotatable_bonds>
8

> <r_i_docking_score>
-9.44055919832922

> <r_i_glide_ligand_efficiency>
-0.496871536754169

> <r_i_glide_ligand_efficiency_sa>
-1.32585282657653

> <r_i_glide_ligand_efficiency_ln>
-2.39338452139631

> <r_i_glide_gscore>
-9.44055919832922

> <r_i_glide_lipo>
-0.770993603918184

> <r_i_glide_hbond>
-0.004487280265157

> <r_i_glide_metal>
-2.3

> <r_i_glide_rewards>
-1.47171204545454

> <r_i_glide_evdw>
-19.514274597168

> <r_i_glide_ecoul>
-38.6470642089844

> <r_i_glide_erotb>
0.413777998380038

> <r_i_glide_esite>
-0.331430537212972

> <r_i_glide_emodel>
-98.2819574609188

> <r_i_glide_energy>
-58.1613388061523

> <r_i_glide_einternal>
11.4076871871948

> <i_i_glide_confnum>
7

> <i_i_glide_posenum>
135

> <r_i_glide_eff_state_penalty>
0

> <s_user_duplicate_titles>
CHEMBL1782_lig158,513234

> <i_f3d_flags>
0

> <s_m_subgroup_title>
dock_pv

> <s_m_subgroupid>
dock_pv

> <b_m_subgroup_collapsed>
1

$$$$
CHEMBL1782_lig161
                    3D
 Schrodinger Suite 2021-1.
 32 33  0  0  1  0            999 V2000
   16.2137   35.0708  -10.4130 C   0  0  0  0  0  0
   16.2932   36.7301   -9.4744 P   0  0  0  0  0  0
   17.7328   34.0364  -10.3912 P   0  0  0  0  0  0
   15.0304   34.1098  -10.0216 C   0  0  0  0  0  0
   14.9009   33.0192   -6.4033 N   0  0  0  0  0  0
   15.0700   33.4404   -8.6405 C   0  0  0  0  0  0
   15.0983   32.0662   -8.4593 N   0  0  0  0  0  0
   14.9811   31.8410   -7.0734 C   0  0  0  0  0  0
   14.9010   33.9353   -7.3456 C   0  0  0  0  0  0
   17.7010   32.5800  -10.7650 O   0  0  0  0  0  0
   15.3351   36.9460   -8.3270 O   0  0  0  0  0  0
   15.2107   31.0247   -9.3409 C   0  0  0  0  0  0
   16.1010   35.4293  -11.7853 O   0  0  0  0  0  0
   14.9789   30.5086   -6.6075 C   0  0  0  0  0  0
   15.2021   29.7161   -8.8776 C   0  0  0  0  0  0
   17.9370   36.7748   -8.9653 O   0  0  0  0  0  0
   16.1010   37.8820  -10.7650 O   0  0  0  0  0  0
   19.0052   34.9628  -11.0427 O   0  0  0  0  0  0
   18.0262   34.0110   -8.7650 O   0  0  0  0  0  0
   15.0754   29.4615   -7.5202 C   0  0  0  0  0  0
   14.0590   34.5800  -10.0884 H   0  0  0  0  0  0
   14.9527   33.3510  -10.7989 H   0  0  0  0  0  0
   14.7577   34.9716   -7.0843 H   0  0  0  0  0  0
   15.3092   31.2675  -10.3737 H   0  0  0  0  0  0
   16.9381   35.7800  -12.1139 H   0  0  0  0  0  0
   14.9080   30.2645   -5.5650 H   0  0  0  0  0  0
   15.3010   28.8889   -9.5650 H   0  0  0  0  0  0
   18.5518   37.4617   -9.3076 H   0  0  0  0  0  0
   16.8394   38.5271  -10.9317 H   0  0  0  0  0  0
   18.9841   35.5051  -11.8603 H   0  0  0  0  0  0
   17.3010   33.6538   -8.1885 H   0  0  0  0  0  0
   15.0673   28.4374   -7.1717 H   0  0  0  0  0  0
  1  2  1  0  0  0
  1  3  1  0  0  0
  1  4  1  0  0  0
  1 13  1  0  0  0
  2 11  2  0  0  0
  2 16  1  0  0  0
  2 17  1  0  0  0
  3 10  2  0  0  0
  3 18  1  0  0  0
  3 19  1  0  0  0
  4  6  1  0  0  0
  4 21  1  0  0  0
  4 22  1  0  0  0
  5  9  1  0  0  0
  5  8  2  0  0  0
  6  7  1  0  0  0
  6  9  2  0  0  0
  7  8  1  0  0  0
  7 12  1  0  0  0
  8 14  1  0  0  0
  9 23  1  0  0  0
 12 15  2  0  0  0
 12 24  1  0  0  0
 13 25  1  0  0  0
 14 20  2  0  0  0
 14 26  1  0  0  0
 15 20  1  0  0  0
 15 27  1  0  0  0
 16 28  1  0  0  0
 17 29  1  0  0  0
 18 30  1  0  0  0
 19 31  1  0  0  0
 20 32  1  0  0  0
M  END
> <s_m_entry_id>
2988

> <s_m_entry_name>
dock_pv.3

> <s_m_Source_Path>
/home/csk/Desktop/cluster/DUD-E-result/fpps

> <s_m_Source_File>
dock_pv.maegz

> <i_m_Source_File_Index>
3

> <chembl_id>
CHEMBL319144

> <chembl_pref_name>
MINODRONIC ACID

> <i_lp_mmshare_version>
53161

> <r_lp_tautomer_probability>
1

> <s_lp_Force_Field>
OPLS_2005

> <r_lp_Energy>
6.737071

> <b_lp_Chiralities_Consistent>
1

> <s_lp_Variant>
CHEMBL1782_lig161-1

> <s_i_glide_gridfile>
glide-grid_1zw5

> <i_i_glide_lignum>
182

> <i_i_glide_rotatable_bonds>
9

> <r_i_docking_score>
-9.37761826894718

> <r_i_glide_ligand_efficiency>
-0.468880913447359

> <r_i_glide_ligand_efficiency_sa>
-1.27273861027569

> <r_i_glide_ligand_efficiency_ln>
-2.34690855816681

> <r_i_glide_gscore>
-9.37761826894718

> <r_i_glide_lipo>
-0.637610834643048

> <r_i_glide_hbond>
-0.16

> <r_i_glide_metal>
-2.3

> <r_i_glide_rewards>
-1.36262522727273

> <r_i_glide_evdw>
-23.8228244781494

> <r_i_glide_ecoul>
-41.5233001708984

> <r_i_glide_erotb>
0.540463600969487

> <r_i_glide_esite>
-0.266704584093419

> <r_i_glide_emodel>
-112.755289738416

> <r_i_glide_energy>
-65.3461246490479

> <r_i_glide_einternal>
22.1191158294678

> <i_i_glide_confnum>
17

> <i_i_glide_posenum>
310

> <r_i_glide_eff_state_penalty>
0

> <s_user_duplicate_titles>
CHEMBL1782_lig161,161549

> <i_f3d_flags>
0

> <s_m_subgroup_title>
dock_pv

> <s_m_subgroupid>
dock_pv

> <b_m_subgroup_collapsed>
1

$$$$
CHEMBL1782_lig69
                    3D
 Schrodinger Suite 2021-1.
 29 29  0  0  1  0            999 V2000
   16.3324   34.5339   -9.2545 C   0  0  0  0  0  0
   17.0386   35.5450  -10.6639 P   0  0  0  0  0  0
   16.0750   35.5852   -7.7056 P   0  0  0  0  0  0
   15.0508   33.7527   -9.6764 C   0  0  0  0  0  0
   14.1949   30.3071   -8.6302 N   0  0  0  0  0  0
   14.7968   32.3985   -9.0050 C   0  0  0  0  0  0
   15.1929   32.0937   -7.7722 N   0  0  0  0  0  0
   14.8479   30.8443   -7.5561 C   0  0  0  0  0  0
   14.1612   31.3065   -9.5608 C   0  0  0  0  0  0
   17.3573   36.1800   -7.1650 O   0  0  0  0  0  0
   16.1010   36.5800  -11.2372 O   0  0  0  0  0  0
   17.3522   33.5791   -8.9906 O   0  0  0  0  0  0
   14.9010   36.7283   -8.1817 O   0  0  0  0  0  0
   18.4619   36.1800   -9.9650 O   0  0  0  0  0  0
   15.3010   34.5657   -6.5745 O   0  0  0  0  0  0
   17.5961   34.3719  -11.7671 O   0  0  0  0  0  0
   15.1281   30.0711   -6.2883 C   0  0  0  0  0  0
   14.1759   34.3926   -9.5545 H   0  0  0  0  0  0
   15.0995   33.5661  -10.7503 H   0  0  0  0  0  0
   13.8199   29.3700   -8.7194 H   0  0  0  0  0  0
   13.7010   31.1669  -10.5184 H   0  0  0  0  0  0
   16.9056   32.8856   -8.4768 H   0  0  0  0  0  0
   14.3105   36.6326   -8.9654 H   0  0  0  0  0  0
   18.9000   36.9333  -10.4391 H   0  0  0  0  0  0
   15.6092   33.6593   -6.3661 H   0  0  0  0  0  0
   17.9484   34.6456  -12.6388 H   0  0  0  0  0  0
   15.7010   30.6519   -5.5649 H   0  0  0  0  0  0
   14.2057   29.7647   -5.7933 H   0  0  0  0  0  0
   15.7010   29.1652   -6.4888 H   0  0  0  0  0  0
  1  2  1  0  0  0
  1  3  1  0  0  0
  1  4  1  0  0  0
  1 12  1  0  0  0
  2 11  2  0  0  0
  2 14  1  0  0  0
  2 16  1  0  0  0
  3 10  2  0  0  0
  3 13  1  0  0  0
  3 15  1  0  0  0
  4  6  1  0  0  0
  4 18  1  0  0  0
  4 19  1  0  0  0
  5  9  1  0  0  0
  5  8  1  0  0  0
  5 20  1  0  0  0
  6  7  1  0  0  0
  6  9  2  0  0  0
  7  8  2  0  0  0
  8 17  1  0  0  0
  9 21  1  0  0  0
 12 22  1  0  0  0
 13 23  1  0  0  0
 14 24  1  0  0  0
 15 25  1  0  0  0
 16 26  1  0  0  0
 17 27  1  0  0  0
 17 28  1  0  0  0
 17 29  1  0  0  0
M  END
> <s_m_entry_id>
2989

> <s_m_entry_name>
dock_pv.4

> <s_m_Source_Path>
/home/csk/Desktop/cluster/DUD-E-result/fpps

> <s_m_Source_File>
dock_pv.maegz

> <i_m_Source_File_Index>
4

> <chembl_id>
CHEMBL323299

> <chembl_pref_name>
None

> <i_lp_mmshare_version>
53161

> <r_lp_tautomer_probability>
0.499999999999999

> <s_lp_Force_Field>
OPLS_2005

> <r_lp_Energy>
-4.476826

> <b_lp_Chiralities_Consistent>
1

> <s_lp_Variant>
CHEMBL1782_lig69-1

> <s_i_glide_gridfile>
glide-grid_1zw5

> <i_i_glide_lignum>
75

> <i_i_glide_rotatable_bonds>
9

> <r_i_docking_score>
-9.11751042200134

> <r_i_glide_ligand_efficiency>
-0.536324142470667

> <r_i_glide_ligand_efficiency_sa>
-1.37904039285802

> <r_i_glide_ligand_efficiency_ln>
-2.37855543212562

> <r_i_glide_gscore>
-9.11751042200134

> <r_i_glide_lipo>
-0.307024796104922

> <r_i_glide_hbond>
-0.0309565937113517

> <r_i_glide_metal>
-2.3

> <r_i_glide_rewards>
-2.20829863636364

> <r_i_glide_evdw>
-18.0696296691895

> <r_i_glide_ecoul>
-47.9591941833496

> <r_i_glide_erotb>
0.887085752104285

> <r_i_glide_esite>
-0.254834664466241

> <r_i_glide_emodel>
-122.557859317929

> <r_i_glide_energy>
-66.0288238525391

> <r_i_glide_einternal>
21.0077800750732

> <i_i_glide_confnum>
3

> <i_i_glide_posenum>
339

> <r_i_glide_eff_state_penalty>
0

> <s_user_duplicate_titles>
CHEMBL1782_lig69,CHEMBL1782_lig69

> <i_f3d_flags>
0

> <s_m_subgroup_title>
dock_pv

> <s_m_subgroupid>
dock_pv

> <b_m_subgroup_collapsed>
1

$$$$
CHEMBL1782_lig15
                    3D
 Schrodinger Suite 2021-1.
 38 39  0  0  1  0            999 V2000
   10.7764   33.8464   -8.3320 C   0  0  0  0  0  0
   10.5010   32.4926   -8.4813 C   0  0  0  0  0  0
   11.4959   31.5236   -8.3650 C   0  0  0  0  0  0
   12.0721   34.2853   -8.0771 C   0  0  0  0  0  0
   13.1175   33.3563   -8.0062 C   0  0  0  0  0  0
   12.8057   31.9671   -8.1315 C   0  0  0  0  0  0
   13.9988   31.2772   -7.9915 N   0  0  0  0  0  0
   15.0024   32.1862   -7.7567 C   0  0  0  0  0  0
   14.5403   33.4869   -7.8438 C   0  0  0  0  0  0
   15.3405   34.7824   -7.8011 C   0  0  0  0  0  0
   15.7792   35.3051   -9.2032 C   0  0  0  0  0  0
   16.8845   34.1085  -10.0513 P   0  0  0  0  0  0
   16.4806   37.0257   -9.0832 P   0  0  0  0  0  0
   15.7006   37.9630   -8.1966 O   0  0  0  0  0  0
   18.0776   36.6884   -8.4863 O   0  0  0  0  0  0
   16.5010   37.4744  -10.7650 O   0  0  0  0  0  0
   15.9001   32.7593  -10.3653 O   0  0  0  0  0  0
   17.2639   34.8258  -11.5527 O   0  0  0  0  0  0
   18.1010   33.7800   -9.2221 O   0  0  0  0  0  0
   14.1915   29.8322   -8.0703 C   0  0  0  0  0  0
   14.5007   29.2311   -6.6906 C   0  0  0  0  0  0
    9.9804   34.5698   -8.4325 H   0  0  0  0  0  0
    9.4916   32.1804   -8.7044 H   0  0  0  0  0  0
   11.2563   30.4766   -8.4702 H   0  0  0  0  0  0
   12.2775   35.3358   -7.9650 H   0  0  0  0  0  0
   16.0049   31.8138   -7.6071 H   0  0  0  0  0  0
   16.2125   34.6573   -7.1619 H   0  0  0  0  0  0
   14.7424   35.5488   -7.3066 H   0  0  0  0  0  0
   14.9010   35.3531   -9.8221 H   0  0  0  0  0  0
   18.6895   37.4511   -8.3725 H   0  0  0  0  0  0
   17.3594   37.7803  -11.1857 H   0  0  0  0  0  0
   15.3014   32.3776   -9.6892 H   0  0  0  0  0  0
   17.7044   35.6942  -11.6642 H   0  0  0  0  0  0
   13.3007   29.3796   -8.5040 H   0  0  0  0  0  0
   15.0068   29.6306   -8.7674 H   0  0  0  0  0  0
   14.6088   28.1484   -6.7649 H   0  0  0  0  0  0
   15.4285   29.6264   -6.2751 H   0  0  0  0  0  0
   13.7012   29.4325   -5.9773 H   0  0  0  0  0  0
  1  2  2  0  0  0
  1  4  1  0  0  0
  1 22  1  0  0  0
  2  3  1  0  0  0
  2 23  1  0  0  0
  3  6  2  0  0  0
  3 24  1  0  0  0
  4  5  2  0  0  0
  4 25  1  0  0  0
  5  6  1  0  0  0
  5  9  1  0  0  0
  6  7  1  0  0  0
  7  8  1  0  0  0
  7 20  1  0  0  0
  8  9  2  0  0  0
  8 26  1  0  0  0
  9 10  1  0  0  0
 10 11  1  0  0  0
 10 27  1  0  0  0
 10 28  1  0  0  0
 11 12  1  0  0  0
 11 13  1  0  0  0
 11 29  1  0  0  0
 12 17  1  0  0  0
 12 18  1  0  0  0
 12 19  2  0  0  0
 13 14  2  0  0  0
 13 15  1  0  0  0
 13 16  1  0  0  0
 15 30  1  0  0  0
 16 31  1  0  0  0
 17 32  1  0  0  0
 18 33  1  0  0  0
 20 21  1  0  0  0
 20 34  1  0  0  0
 20 35  1  0  0  0
 21 36  1  0  0  0
 21 37  1  0  0  0
 21 38  1  0  0  0
M  END
> <s_m_entry_id>
2990

> <s_m_entry_name>
dock_pv.5

> <s_m_Source_Path>
/home/csk/Desktop/cluster/DUD-E-result/fpps

> <s_m_Source_File>
dock_pv.maegz

> <i_m_Source_File_Index>
5

> <chembl_id>
CHEMBL3410284

> <chembl_pref_name>
None

> <i_lp_mmshare_version>
53161

> <r_lp_tautomer_probability>
1

> <s_lp_Force_Field>
OPLS_2005

> <r_lp_Energy>
3.515323

> <b_lp_Chiralities_Consistent>
1

> <s_lp_Variant>
CHEMBL1782_lig15-1

> <s_i_glide_gridfile>
glide-grid_1zw5

> <i_i_glide_lignum>
19

> <i_i_glide_rotatable_bonds>
9

> <r_i_docking_score>
-8.98973131020206

> <r_i_glide_ligand_efficiency>
-0.428082443342955

> <r_i_glide_ligand_efficiency_sa>
-1.18104700122461

> <r_i_glide_ligand_efficiency_ln>
-2.22269290098492

> <r_i_glide_gscore>
-8.98973131020206

> <r_i_glide_lipo>
-0.541433232308887

> <r_i_glide_hbond>
0

> <r_i_glide_metal>
-2.3

> <r_i_glide_rewards>
-1.13717727272727

> <r_i_glide_evdw>
-29.0192565917969

> <r_i_glide_ecoul>
-43.9213981628418

> <r_i_glide_erotb>
0.678891470944406

> <r_i_glide_esite>
-0.239049446520461

> <r_i_glide_emodel>
-129.435166569251

> <r_i_glide_energy>
-72.9406547546387

> <r_i_glide_einternal>
13.0874395370483

> <i_i_glide_confnum>
61

> <i_i_glide_posenum>
181

> <r_i_glide_eff_state_penalty>
0

> <s_user_duplicate_titles>
CHEMBL1782_lig15

> <i_f3d_flags>
0

> <s_m_subgroup_title>
dock_pv

> <s_m_subgroupid>
dock_pv

> <b_m_subgroup_collapsed>
1

$$$$
CHEMBL1782_lig10
                    3D
 Schrodinger Suite 2021-1.
 47 48  0  0  1  0            999 V2000
   11.1845   34.6272   -7.6181 C   0  0  0  0  0  0
   10.3753   33.5171   -7.4466 C   0  0  0  0  0  0
   10.8575   32.2269   -7.6394 C   0  0  0  0  0  0
   12.5248   34.4889   -7.9649 C   0  0  0  0  0  0
   13.0935   33.2078   -8.0885 C   0  0  0  0  0  0
   12.2170   32.0997   -7.9090 C   0  0  0  0  0  0
   12.9787   30.9799   -8.0266 N   0  0  0  0  0  0
   14.2939   31.3102   -8.2040 C   0  0  0  0  0  0
   14.4247   32.6812   -8.3588 C   0  0  0  0  0  0
   15.7509   33.3687   -8.7129 C   0  0  0  0  0  0
   15.6995   34.8930   -8.9518 C   0  0  0  0  0  0
   16.8098   35.5735  -10.2829 P   0  0  0  0  0  0
   15.7061   35.8927   -7.3735 P   0  0  0  0  0  0
   16.1010   36.5800  -11.1666 O   0  0  0  0  0  0
   18.1370   36.1758   -9.3775 O   0  0  0  0  0  0
   17.4578   34.2111  -11.0912 O   0  0  0  0  0  0
   14.7430   34.9801   -6.3089 O   0  0  0  0  0  0
   15.3010   37.3320   -7.4997 O   0  0  0  0  0  0
   17.3010   35.7802   -6.7649 O   0  0  0  0  0  0
   15.3291   30.2074   -8.2261 C   0  0  1  0  0  0
   15.2132   29.2239   -7.0162 C   0  0  0  0  0  0
   15.3010   29.5658   -9.6154 C   0  0  0  0  0  0
   14.2732   28.0338   -7.2481 C   0  0  0  0  0  0
   14.9447   29.9566   -5.6892 C   0  0  0  0  0  0
   10.7579   35.6129   -7.5030 H   0  0  0  0  0  0
    9.3492   33.6724   -7.1633 H   0  0  0  0  0  0
   10.2266   31.3565   -7.5602 H   0  0  0  0  0  0
   13.1018   35.3800   -8.1170 H   0  0  0  0  0  0
   12.6756   30.0227   -7.9105 H   0  0  0  0  0  0
   16.1006   32.8800   -9.6211 H   0  0  0  0  0  0
   16.5010   33.1363   -7.9651 H   0  0  0  0  0  0
   14.7292   35.0143   -9.4194 H   0  0  0  0  0  0
   18.6338   36.9457   -9.7436 H   0  0  0  0  0  0
   17.8831   34.3367  -11.9647 H   0  0  0  0  0  0
   13.8944   34.5800   -6.5941 H   0  0  0  0  0  0
   17.5295   36.4871   -6.1150 H   0  0  0  0  0  0
   16.3108   30.6700   -8.1346 H   0  0  0  0  0  0
   16.1679   28.7542   -6.8675 H   0  0  0  0  0  0
   15.7012   30.2503  -10.3605 H   0  0  0  0  0  0
   15.8435   28.6250   -9.6628 H   0  0  0  0  0  0
   14.2748   29.3800   -9.9222 H   0  0  0  0  0  0
   13.3010   28.3763   -7.5638 H   0  0  0  0  0  0
   14.6588   27.3802   -8.0292 H   0  0  0  0  0  0
   14.1393   27.4142   -6.3650 H   0  0  0  0  0  0
   13.8846   30.1799   -5.5656 H   0  0  0  0  0  0
   15.2551   29.3800   -4.8269 H   0  0  0  0  0  0
   15.5033   30.8924   -5.6362 H   0  0  0  0  0  0
  1  2  2  0  0  0
  1  4  1  0  0  0
  1 25  1  0  0  0
  2  3  1  0  0  0
  2 26  1  0  0  0
  3  6  2  0  0  0
  3 27  1  0  0  0
  4  5  2  0  0  0
  4 28  1  0  0  0
  5  6  1  0  0  0
  5  9  1  0  0  0
  6  7  1  0  0  0
  7  8  1  0  0  0
  7 29  1  0  0  0
  8  9  2  0  0  0
  8 20  1  0  0  0
  9 10  1  0  0  0
 10 11  1  0  0  0
 10 30  1  0  0  0
 10 31  1  0  0  0
 11 12  1  0  0  0
 11 13  1  0  0  0
 11 32  1  0  0  0
 12 14  2  0  0  0
 12 15  1  0  0  0
 12 16  1  0  0  0
 13 17  1  0  0  0
 13 18  2  0  0  0
 13 19  1  0  0  0
 15 33  1  0  0  0
 16 34  1  0  0  0
 17 35  1  0  0  0
 19 36  1  0  0  0
 20 21  1  0  0  0
 20 22  1  0  0  0
 20 37  1  0  0  0
 21 23  1  0  0  0
 21 24  1  0  0  0
 21 38  1  0  0  0
 22 39  1  0  0  0
 22 40  1  0  0  0
 22 41  1  0  0  0
 23 42  1  0  0  0
 23 43  1  0  0  0
 23 44  1  0  0  0
 24 45  1  0  0  0
 24 46  1  0  0  0
 24 47  1  0  0  0
M  END
> <s_m_entry_id>
2991

> <s_m_entry_name>
dock_pv.6

> <s_m_Source_Path>
/home/csk/Desktop/cluster/DUD-E-result/fpps

> <s_m_Source_File>
dock_pv.maegz

> <i_m_Source_File_Index>
6

> <chembl_id>
CHEMBL3410289

> <chembl_pref_name>
None

> <i_lp_mmshare_version>
53161

> <r_lp_tautomer_probability>
1

> <s_lp_Force_Field>
OPLS_2005

> <r_lp_Energy>
2.442225

> <b_lp_Chiralities_Consistent>
1

> <s_lp_Variant>
CHEMBL1782_lig10-2

> <s_i_glide_gridfile>
glide-grid_1zw5

> <i_i_glide_lignum>
14

> <i_i_glide_rotatable_bonds>
10

> <r_i_docking_score>
-8.97643959334915

> <r_i_glide_ligand_efficiency>
-0.374018316389548

> <r_i_glide_ligand_efficiency_sa>
-1.07885551105696

> <r_i_glide_ligand_efficiency_ln>
-2.1484738966615

> <r_i_glide_gscore>
-8.97643959334915

> <r_i_glide_lipo>
-0.857818834301863

> <r_i_glide_hbond>
-0.10527581035408

> <r_i_glide_metal>
-2.3

> <r_i_glide_rewards>
-0.850269954545453

> <r_i_glide_evdw>
-26.1847457885742

> <r_i_glide_ecoul>
-35.8083572387695

> <r_i_glide_erotb>
0.686756334650358

> <r_i_glide_esite>
-0.240594039369402

> <r_i_glide_emodel>
-104.763763366537

> <r_i_glide_energy>
-61.9931030273438

> <r_i_glide_einternal>
23.9100799560547

> <i_i_glide_confnum>
62

> <i_i_glide_posenum>
345

> <r_i_glide_eff_state_penalty>
0

> <s_user_duplicate_titles>
CHEMBL1782_lig10

> <i_f3d_flags>
0

> <s_m_subgroup_title>
dock_pv

> <s_m_subgroupid>
dock_pv

> <b_m_subgroup_collapsed>
1

$$$$
CHEMBL1782_lig9
                    3D
 Schrodinger Suite 2021-1.
 51 53  0  0  1  0            999 V2000
   15.3010   29.5499   -8.9166 C   0  0  0  0  0  0
   14.8124   29.1221   -7.6873 C   0  0  0  0  0  0
   14.1011   29.9785   -6.8511 C   0  0  0  0  0  0
   15.2055   30.8800   -9.3153 C   0  0  0  0  0  0
   14.4836   31.7719   -8.5091 C   0  0  0  0  0  0
   13.8670   31.2712   -7.3304 C   0  0  0  0  0  0
   13.0120   32.2584   -6.9074 N   0  0  0  0  0  0
   13.0637   33.3389   -7.7591 C   0  0  0  0  0  0
   14.1775   33.1734   -8.5870 C   0  0  0  0  0  0
   14.7653   34.1800   -9.5615 C   0  0  0  0  0  0
   16.1604   34.7868   -9.1986 C   0  0  0  0  0  0
   16.2029   36.6409   -9.0529 P   0  0  0  0  0  0
   17.4094   34.3036  -10.4589 P   0  0  0  0  0  0
   16.1010   37.3800  -10.3767 O   0  0  0  0  0  0
   14.9010   36.9396   -8.0152 O   0  0  0  0  0  0
   17.6906   36.8411   -8.1958 O   0  0  0  0  0  0
   18.8201   35.1143   -9.9650 O   0  0  0  0  0  0
   17.0406   34.5799  -11.8919 O   0  0  0  0  0  0
   17.7010   32.6624  -10.0176 O   0  0  0  0  0  0
   11.9691   34.4137   -7.7891 C   0  0  2  0  0  0
   11.0436   34.4715   -6.5349 C   0  0  0  0  0  0
   11.1463   34.2127   -9.0838 C   0  0  0  0  0  0
   11.7703   34.9558   -5.2784 C   0  0  0  0  0  0
   10.6647   35.4350   -4.3375 C   0  0  0  0  0  0
    9.6084   36.0535   -5.2522 C   0  0  0  0  0  0
    9.8676   35.4722   -6.6498 C   0  0  0  0  0  0
   15.7805   28.8321   -9.5654 H   0  0  0  0  0  0
   14.9420   28.0876   -7.4012 H   0  0  0  0  0  0
   13.6672   29.6133   -5.9326 H   0  0  0  0  0  0
   15.5793   31.1765  -10.2804 H   0  0  0  0  0  0
   12.3176   32.1724   -6.1813 H   0  0  0  0  0  0
   14.7438   33.7821  -10.5764 H   0  0  0  0  0  0
   14.0552   34.9800   -9.5649 H   0  0  0  0  0  0
   16.4762   34.3837   -8.2334 H   0  0  0  0  0  0
   13.9922   36.8035   -8.3648 H   0  0  0  0  0  0
   18.1322   37.7214   -8.2173 H   0  0  0  0  0  0
   18.9681   36.0574  -10.2111 H   0  0  0  0  0  0
   16.9390   32.0384   -9.9371 H   0  0  0  0  0  0
   12.4590   35.3800   -7.8828 H   0  0  0  0  0  0
   10.6268   33.4778   -6.3581 H   0  0  0  0  0  0
   11.7755   34.3255   -9.9650 H   0  0  0  0  0  0
   10.6953   33.2201   -9.1254 H   0  0  0  0  0  0
   10.3438   34.9401   -9.1955 H   0  0  0  0  0  0
   12.4342   35.7763   -5.5483 H   0  0  0  0  0  0
   12.3781   34.1800   -4.8196 H   0  0  0  0  0  0
   11.0216   36.1413   -3.5877 H   0  0  0  0  0  0
   10.2433   34.5822   -3.8027 H   0  0  0  0  0  0
    9.7024   37.1406   -5.2705 H   0  0  0  0  0  0
    8.6023   35.8213   -4.9010 H   0  0  0  0  0  0
    8.9737   34.9801   -7.0337 H   0  0  0  0  0  0
   10.1011   36.2808   -7.3449 H   0  0  0  0  0  0
  1  2  2  0  0  0
  1  4  1  0  0  0
  1 27  1  0  0  0
  2  3  1  0  0  0
  2 28  1  0  0  0
  3  6  2  0  0  0
  3 29  1  0  0  0
  4  5  2  0  0  0
  4 30  1  0  0  0
  5  6  1  0  0  0
  5  9  1  0  0  0
  6  7  1  0  0  0
  7  8  1  0  0  0
  7 31  1  0  0  0
  8  9  2  0  0  0
  8 20  1  0  0  0
  9 10  1  0  0  0
 10 11  1  0  0  0
 10 32  1  0  0  0
 10 33  1  0  0  0
 11 12  1  0  0  0
 11 13  1  0  0  0
 11 34  1  0  0  0
 12 14  2  0  0  0
 12 15  1  0  0  0
 12 16  1  0  0  0
 13 17  1  0  0  0
 13 18  2  0  0  0
 13 19  1  0  0  0
 15 35  1  0  0  0
 16 36  1  0  0  0
 17 37  1  0  0  0
 19 38  1  0  0  0
 20 21  1  0  0  0
 20 22  1  0  0  0
 20 39  1  0  0  0
 21 23  1  0  0  0
 21 26  1  0  0  0
 21 40  1  0  0  0
 22 41  1  0  0  0
 22 42  1  0  0  0
 22 43  1  0  0  0
 23 24  1  0  0  0
 23 44  1  0  0  0
 23 45  1  0  0  0
 24 25  1  0  0  0
 24 46  1  0  0  0
 24 47  1  0  0  0
 25 26  1  0  0  0
 25 48  1  0  0  0
 25 49  1  0  0  0
 26 50  1  0  0  0
 26 51  1  0  0  0
M  END
> <s_m_entry_id>
2992

> <s_m_entry_name>
dock_pv.7

> <s_m_Source_Path>
/home/csk/Desktop/cluster/DUD-E-result/fpps

> <s_m_Source_File>
dock_pv.maegz

> <i_m_Source_File_Index>
7

> <chembl_id>
CHEMBL3410290

> <chembl_pref_name>
None

> <i_lp_mmshare_version>
53161

> <r_lp_tautomer_probability>
1

> <s_lp_Force_Field>
OPLS_2005

> <r_lp_Energy>
20.105268

> <b_lp_Chiralities_Consistent>
1

> <s_lp_Variant>
CHEMBL1782_lig9-1

> <s_i_glide_gridfile>
glide-grid_1zw5

> <i_i_glide_lignum>
11

> <i_i_glide_rotatable_bonds>
10

> <r_i_docking_score>
-8.95849108942537

> <r_i_glide_ligand_efficiency>
-0.344557349593283

> <r_i_glide_ligand_efficiency_sa>
-1.0207497924024

> <r_i_glide_ligand_efficiency_ln>
-2.1038722371447

> <r_i_glide_gscore>
-8.95849108942537

> <r_i_glide_lipo>
-0.681273232510606

> <r_i_glide_hbond>
-0.0200474533658015

> <r_i_glide_metal>
-2.3

> <r_i_glide_rewards>
-0.822743045454545

> <r_i_glide_evdw>
-32.6581764221191

> <r_i_glide_ecoul>
-36.1152458190918

> <r_i_glide_erotb>
0.730617429290485

> <r_i_glide_esite>
-0.232135966278941

> <r_i_glide_emodel>
-99.4382516212532

> <r_i_glide_energy>
-68.7734222412109

> <r_i_glide_einternal>
18.7601127624512

> <i_i_glide_confnum>
66

> <i_i_glide_posenum>
91

> <r_i_glide_eff_state_penalty>
0

> <s_user_duplicate_titles>
CHEMBL1782_lig9

> <i_f3d_flags>
0

> <s_m_subgroup_title>
dock_pv

> <s_m_subgroupid>
dock_pv

> <b_m_subgroup_collapsed>
1

$$$$
CHEMBL1782_lig10
                    3D
 Schrodinger Suite 2021-1.
 47 48  0  0  1  0            999 V2000
   10.8686   34.2948   -8.2526 C   0  0  0  0  0  0
   10.3158   33.5989   -7.1863 C   0  0  0  0  0  0
   11.0143   32.5803   -6.5431 C   0  0  0  0  0  0
   12.1721   34.0436   -8.6741 C   0  0  0  0  0  0
   12.9605   33.0932   -7.9980 C   0  0  0  0  0  0
   12.3207   32.3397   -6.9756 C   0  0  0  0  0  0
   13.2174   31.3850   -6.5925 N   0  0  0  0  0  0
   14.4088   31.5217   -7.2479 C   0  0  0  0  0  0
   14.3518   32.6601   -8.0521 C   0  0  0  0  0  0
   15.5049   33.2320   -8.8833 C   0  0  0  0  0  0
   15.5046   34.7804   -9.0479 C   0  0  0  0  0  0
   16.5363   35.4130  -10.4519 P   0  0  0  0  0  0
   15.8367   35.7321   -7.5009 P   0  0  0  0  0  0
   16.1010   36.7548  -11.0021 O   0  0  0  0  0  0
   18.1365   35.3678   -9.8308 O   0  0  0  0  0  0
   16.3385   34.1800  -11.5650 O   0  0  0  0  0  0
   15.1959   37.2546   -7.9066 O   0  0  0  0  0  0
   17.3010   35.7800   -7.1001 O   0  0  0  0  0  0
   14.8085   34.9805   -6.3650 O   0  0  0  0  0  0
   15.4884   30.4694   -7.0345 C   0  0  2  0  0  0
   15.2573   29.1879   -7.8723 C   0  0  0  0  0  0
   15.7010   30.1273   -5.5505 C   0  0  0  0  0  0
   15.2472   29.4940   -9.3816 C   0  0  0  0  0  0
   14.0142   28.3956   -7.4360 C   0  0  0  0  0  0
   10.2805   35.0431   -8.7652 H   0  0  0  0  0  0
    9.3071   33.8314   -6.8805 H   0  0  0  0  0  0
   10.5637   31.9877   -5.7612 H   0  0  0  0  0  0
   12.5385   34.5800   -9.5311 H   0  0  0  0  0  0
   13.0411   30.6117   -5.9654 H   0  0  0  0  0  0
   15.4387   32.7559   -9.8607 H   0  0  0  0  0  0
   16.4668   32.9217   -8.4757 H   0  0  0  0  0  0
   14.5007   34.9957   -9.3587 H   0  0  0  0  0  0
   18.7935   35.9803  -10.2360 H   0  0  0  0  0  0
   15.4519   33.9364  -11.8958 H   0  0  0  0  0  0
   14.6833   37.4128   -8.7269 H   0  0  0  0  0  0
   14.6972   34.0065   -6.3509 H   0  0  0  0  0  0
   16.4277   30.8773   -7.3901 H   0  0  0  0  0  0
   16.1009   28.5261   -7.6904 H   0  0  0  0  0  0
   16.1010   30.9777   -4.9981 H   0  0  0  0  0  0
   14.7946   29.7800   -5.0547 H   0  0  0  0  0  0
   16.4193   29.3128   -5.4615 H   0  0  0  0  0  0
   14.3404   30.0234   -9.6774 H   0  0  0  0  0  0
   16.1012   30.1053   -9.6716 H   0  0  0  0  0  0
   15.3000   28.5797   -9.9649 H   0  0  0  0  0  0
   13.1175   28.9800   -7.6233 H   0  0  0  0  0  0
   13.9244   27.4520   -7.9650 H   0  0  0  0  0  0
   14.0275   28.1388   -6.3780 H   0  0  0  0  0  0
  1  2  2  0  0  0
  1  4  1  0  0  0
  1 25  1  0  0  0
  2  3  1  0  0  0
  2 26  1  0  0  0
  3  6  2  0  0  0
  3 27  1  0  0  0
  4  5  2  0  0  0
  4 28  1  0  0  0
  5  6  1  0  0  0
  5  9  1  0  0  0
  6  7  1  0  0  0
  7  8  1  0  0  0
  7 29  1  0  0  0
  8  9  2  0  0  0
  8 20  1  0  0  0
  9 10  1  0  0  0
 10 11  1  0  0  0
 10 30  1  0  0  0
 10 31  1  0  0  0
 11 12  1  0  0  0
 11 13  1  0  0  0
 11 32  1  0  0  0
 12 14  2  0  0  0
 12 15  1  0  0  0
 12 16  1  0  0  0
 13 17  1  0  0  0
 13 18  2  0  0  0
 13 19  1  0  0  0
 15 33  1  0  0  0
 16 34  1  0  0  0
 17 35  1  0  0  0
 19 36  1  0  0  0
 20 21  1  0  0  0
 20 22  1  0  0  0
 20 37  1  0  0  0
 21 23  1  0  0  0
 21 24  1  0  0  0
 21 38  1  0  0  0
 22 39  1  0  0  0
 22 40  1  0  0  0
 22 41  1  0  0  0
 23 42  1  0  0  0
 23 43  1  0  0  0
 23 44  1  0  0  0
 24 45  1  0  0  0
 24 46  1  0  0  0
 24 47  1  0  0  0
M  END
> <s_m_entry_id>
2993

> <s_m_entry_name>
dock_pv.8

> <s_m_Source_Path>
/home/csk/Desktop/cluster/DUD-E-result/fpps

> <s_m_Source_File>
dock_pv.maegz

> <i_m_Source_File_Index>
8

> <chembl_id>
CHEMBL3410289

> <chembl_pref_name>
None

> <i_lp_mmshare_version>
53161

> <r_lp_tautomer_probability>
1

> <s_lp_Force_Field>
OPLS_2005

> <r_lp_Energy>
3.899306

> <b_lp_Chiralities_Consistent>
1

> <s_lp_Variant>
CHEMBL1782_lig10-1

> <s_i_glide_gridfile>
glide-grid_1zw5

> <i_i_glide_lignum>
13

> <i_i_glide_rotatable_bonds>
10

> <r_i_docking_score>
-8.94745271233439

> <r_i_glide_ligand_efficiency>
-0.3728105296806

> <r_i_glide_ligand_efficiency_sa>
-1.07537165133665

> <r_i_glide_ligand_efficiency_ln>
-2.14153600591337

> <r_i_glide_gscore>
-8.94745271233439

> <r_i_glide_lipo>
-1.08682776028019

> <r_i_glide_hbond>
-0.115356459492513

> <r_i_glide_metal>
-2.3

> <r_i_glide_rewards>
-0.850269954545453

> <r_i_glide_evdw>
-21.2628631591797

> <r_i_glide_ecoul>
-39.8500099182129

> <r_i_glide_erotb>
0.686756334650358

> <r_i_glide_esite>
-0.218611714707616

> <r_i_glide_emodel>
-110.798830817031

> <r_i_glide_energy>
-61.1128730773926

> <r_i_glide_einternal>
10.2112989425659

> <i_i_glide_confnum>
5

> <i_i_glide_posenum>
371

> <r_i_glide_eff_state_penalty>
0

> <s_user_duplicate_titles>
CHEMBL1782_lig10

> <i_f3d_flags>
0

> <s_m_subgroup_title>
dock_pv

> <s_m_subgroupid>
dock_pv

> <b_m_subgroup_collapsed>
1

$$$$
CHEMBL1782_lig14
                    3D
 Schrodinger Suite 2021-1.
 41 42  0  0  1  0            999 V2000
   10.7439   33.7235   -8.6176 C   0  0  0  0  0  0
   10.4577   32.3637   -8.6223 C   0  0  0  0  0  0
   11.4350   31.4029   -8.3650 C   0  0  0  0  0  0
   12.0302   34.1800   -8.3463 C   0  0  0  0  0  0
   13.0484   33.2527   -8.0762 C   0  0  0  0  0  0
   12.7324   31.8594   -8.0883 C   0  0  0  0  0  0
   13.9101   31.1800   -7.8093 N   0  0  0  0  0  0
   14.9023   32.1036   -7.5750 C   0  0  0  0  0  0
   14.4506   33.3857   -7.7920 C   0  0  0  0  0  0
   15.2513   34.6672   -7.7961 C   0  0  0  0  0  0
   15.6101   35.1033   -9.2397 C   0  0  0  0  0  0
   16.8658   33.9958  -10.0132 P   0  0  0  0  0  0
   16.1064   36.8841   -9.3272 P   0  0  0  0  0  0
   16.1010   37.3800  -10.7641 O   0  0  0  0  0  0
   14.9010   37.6252   -8.3833 O   0  0  0  0  0  0
   17.6445   36.8660   -8.5510 O   0  0  0  0  0  0
   16.0190   32.5566  -10.3421 O   0  0  0  0  0  0
   17.2159   34.7306  -11.5147 O   0  0  0  0  0  0
   18.1010   33.7800   -9.1650 O   0  0  0  0  0  0
   14.1015   29.7292   -7.7923 C   0  0  0  0  0  0
   14.5006   29.2532   -6.3854 C   0  0  0  0  0  0
   15.1289   29.3234   -8.8663 C   0  0  0  0  0  0
    9.9609   34.4328   -8.8451 H   0  0  0  0  0  0
    9.4520   32.0413   -8.8481 H   0  0  0  0  0  0
   11.1902   30.3506   -8.3887 H   0  0  0  0  0  0
   12.2441   35.2363   -8.3650 H   0  0  0  0  0  0
   15.8953   31.7549   -7.3254 H   0  0  0  0  0  0
   14.6598   35.4367   -7.3011 H   0  0  0  0  0  0
   16.1507   34.5735   -7.1897 H   0  0  0  0  0  0
   14.7088   34.9800   -9.8353 H   0  0  0  0  0  0
   13.9647   37.5744   -8.6894 H   0  0  0  0  0  0
   18.2639   37.6085   -8.7335 H   0  0  0  0  0  0
   15.4424   32.1150   -9.6844 H   0  0  0  0  0  0
   17.5474   35.6500  -11.6226 H   0  0  0  0  0  0
   13.1536   29.2667   -8.0526 H   0  0  0  0  0  0
   14.5627   28.1651   -6.3650 H   0  0  0  0  0  0
   15.4695   29.6459   -6.0743 H   0  0  0  0  0  0
   13.7610   29.5500   -5.6402 H   0  0  0  0  0  0
   15.2740   28.2422   -8.8835 H   0  0  0  0  0  0
   14.7993   29.6190   -9.8626 H   0  0  0  0  0  0
   16.1010   29.7800   -8.6898 H   0  0  0  0  0  0
  1  2  2  0  0  0
  1  4  1  0  0  0
  1 23  1  0  0  0
  2  3  1  0  0  0
  2 24  1  0  0  0
  3  6  2  0  0  0
  3 25  1  0  0  0
  4  5  2  0  0  0
  4 26  1  0  0  0
  5  6  1  0  0  0
  5  9  1  0  0  0
  6  7  1  0  0  0
  7  8  1  0  0  0
  7 20  1  0  0  0
  8  9  2  0  0  0
  8 27  1  0  0  0
  9 10  1  0  0  0
 10 11  1  0  0  0
 10 28  1  0  0  0
 10 29  1  0  0  0
 11 12  1  0  0  0
 11 13  1  0  0  0
 11 30  1  0  0  0
 12 17  1  0  0  0
 12 18  1  0  0  0
 12 19  2  0  0  0
 13 14  2  0  0  0
 13 15  1  0  0  0
 13 16  1  0  0  0
 15 31  1  0  0  0
 16 32  1  0  0  0
 17 33  1  0  0  0
 18 34  1  0  0  0
 20 21  1  0  0  0
 20 22  1  0  0  0
 20 35  1  0  0  0
 21 36  1  0  0  0
 21 37  1  0  0  0
 21 38  1  0  0  0
 22 39  1  0  0  0
 22 40  1  0  0  0
 22 41  1  0  0  0
M  END
> <s_m_entry_id>
2994

> <s_m_entry_name>
dock_pv.9

> <s_m_Source_Path>
/home/csk/Desktop/cluster/DUD-E-result/fpps

> <s_m_Source_File>
dock_pv.maegz

> <i_m_Source_File_Index>
9

> <chembl_id>
CHEMBL3410285

> <chembl_pref_name>
None

> <i_lp_mmshare_version>
53161

> <r_lp_tautomer_probability>
1

> <s_lp_Force_Field>
OPLS_2005

> <r_lp_Energy>
6.61402

> <b_lp_Chiralities_Consistent>
1

> <s_lp_Variant>
CHEMBL1782_lig14-1

> <s_i_glide_gridfile>
glide-grid_1zw5

> <i_i_glide_lignum>
18

> <i_i_glide_rotatable_bonds>
9

> <r_i_docking_score>
-8.87078639408739

> <r_i_glide_ligand_efficiency>
-0.403217563367609

> <r_i_glide_ligand_efficiency_sa>
-1.12983147020295

> <r_i_glide_ligand_efficiency_ln>
-2.16834376451054

> <r_i_glide_gscore>
-8.87078639408739

> <r_i_glide_lipo>
-0.579290464725687

> <r_i_glide_hbond>
0

> <r_i_glide_metal>
-2.3

> <r_i_glide_rewards>
-1.0415415

> <r_i_glide_evdw>
-23.131628036499

> <r_i_glide_ecoul>
-46.7468566894531

> <r_i_glide_erotb>
0.441725469216235

> <r_i_glide_esite>
-0.23509849675299

> <r_i_glide_emodel>
-124.809587451915

> <r_i_glide_energy>
-69.8784847259521

> <r_i_glide_einternal>
7.02750635147095

> <i_i_glide_confnum>
39

> <i_i_glide_posenum>
39

> <r_i_glide_eff_state_penalty>
0

> <s_user_duplicate_titles>
CHEMBL1782_lig14

> <i_f3d_flags>
0

> <s_m_subgroup_title>
dock_pv

> <s_m_subgroupid>
dock_pv

> <b_m_subgroup_collapsed>
1

$$$$
CHEMBL1782_lig115
                    3D
 Schrodinger Suite 2021-1.
 32 33  0  0  1  0            999 V2000
   15.5489   34.9236   -9.2355 C   0  0  0  0  0  0
   15.2789   34.3664   -7.8933 N   0  0  0  0  0  0
   16.8229   33.9030  -10.1020 P   0  0  0  0  0  0
   16.1010   36.7183   -9.1650 P   0  0  0  0  0  0
   14.5406   33.1694   -7.8620 C   0  0  0  0  0  0
   15.3010   32.0963   -7.5546 N   0  0  0  0  0  0
   13.1387   33.0735   -8.1194 C   0  0  0  0  0  0
   16.1010   37.3729  -10.5410 O   0  0  0  0  0  0
   18.1010   33.7800   -9.3058 O   0  0  0  0  0  0
   14.9010   37.3800   -8.1719 O   0  0  0  0  0  0
   17.6433   36.6280   -8.3776 O   0  0  0  0  0  0
   16.0706   32.3989  -10.3650 O   0  0  0  0  0  0
   17.0460   34.6881  -11.6018 O   0  0  0  0  0  0
   14.7383   30.8680   -7.5523 C   0  0  0  0  0  0
   12.5639   31.7638   -8.1091 C   0  0  0  0  0  0
   12.2904   34.1800   -8.3681 C   0  0  0  0  0  0
   13.3974   30.6516   -7.8410 C   0  0  0  0  0  0
   11.1807   31.6075   -8.3650 C   0  0  0  0  0  0
   10.9357   33.9938   -8.6332 C   0  0  0  0  0  0
   10.3876   32.7165   -8.6397 C   0  0  0  0  0  0
   14.6238   34.8639   -9.8046 H   0  0  0  0  0  0
   16.1010   34.2670   -7.3174 H   0  0  0  0  0  0
   13.9698   37.3652   -8.4911 H   0  0  0  0  0  0
   18.2619   37.3800   -8.5227 H   0  0  0  0  0  0
   15.6531   31.8820   -9.6436 H   0  0  0  0  0  0
   17.3480   35.6180  -11.7003 H   0  0  0  0  0  0
   15.3899   30.0375   -7.3153 H   0  0  0  0  0  0
   12.7044   35.1765   -8.3650 H   0  0  0  0  0  0
   12.9820   29.6538   -7.8327 H   0  0  0  0  0  0
   10.7542   30.6138   -8.3696 H   0  0  0  0  0  0
   10.3093   34.8475   -8.8480 H   0  0  0  0  0  0
    9.3403   32.5800   -8.8656 H   0  0  0  0  0  0
  1  2  1  0  0  0
  1  3  1  0  0  0
  1  4  1  0  0  0
  1 21  1  0  0  0
  2  5  1  0  0  0
  2 22  1  0  0  0
  3  9  2  0  0  0
  3 12  1  0  0  0
  3 13  1  0  0  0
  4  8  2  0  0  0
  4 10  1  0  0  0
  4 11  1  0  0  0
  5  6  2  0  0  0
  5  7  1  0  0  0
  6 14  1  0  0  0
  7 15  1  0  0  0
  7 16  2  0  0  0
 10 23  1  0  0  0
 11 24  1  0  0  0
 12 25  1  0  0  0
 13 26  1  0  0  0
 14 17  2  0  0  0
 14 27  1  0  0  0
 15 17  1  0  0  0
 15 18  2  0  0  0
 16 19  1  0  0  0
 16 28  1  0  0  0
 17 29  1  0  0  0
 18 20  1  0  0  0
 18 30  1  0  0  0
 19 20  2  0  0  0
 19 31  1  0  0  0
 20 32  1  0  0  0
M  END
> <s_m_entry_id>
2995

> <s_m_entry_name>
dock_pv.10

> <s_m_Source_Path>
/home/csk/Desktop/cluster/DUD-E-result/fpps

> <s_m_Source_File>
dock_pv.maegz

> <i_m_Source_File_Index>
10

> <chembl_id>
CHEMBL291727

> <chembl_pref_name>
None

> <i_lp_mmshare_version>
53161

> <r_lp_tautomer_probability>
1

> <s_lp_Force_Field>
OPLS_2005

> <r_lp_Energy>
-2.292425

> <b_lp_Chiralities_Consistent>
1

> <s_lp_Variant>
CHEMBL1782_lig115-1

> <s_i_glide_gridfile>
glide-grid_1zw5

> <i_i_glide_lignum>
127

> <i_i_glide_rotatable_bonds>
8

> <r_i_docking_score>
-8.85654249398379

> <r_i_glide_ligand_efficiency>
-0.442827124699189

> <r_i_glide_ligand_efficiency_sa>
-1.20201774718924

> <r_i_glide_ligand_efficiency_ln>
-2.21650047792275

> <r_i_glide_gscore>
-8.85654249398379

> <r_i_glide_lipo>
-0.279764603829262

> <r_i_glide_hbond>
0

> <r_i_glide_metal>
-2.3

> <r_i_glide_rewards>
-1.23982090909091

> <r_i_glide_evdw>
-23.1715030670166

> <r_i_glide_ecoul>
-43.7941093444824

> <r_i_glide_erotb>
0.386721462495442

> <r_i_glide_esite>
-0.265103290208229

> <r_i_glide_emodel>
-120.798658713394

> <r_i_glide_energy>
-66.965612411499

> <r_i_glide_einternal>
13.6837968826294

> <i_i_glide_confnum>
2

> <i_i_glide_posenum>
197

> <r_i_glide_eff_state_penalty>
0

> <s_user_duplicate_titles>
CHEMBL1782_lig115,84887

> <i_f3d_flags>
0

> <s_m_subgroup_title>
dock_pv

> <s_m_subgroupid>
dock_pv

> <b_m_subgroup_collapsed>
1

$$$$
CHEMBL1782_lig98
                    3D
 Schrodinger Suite 2021-1.
 29 29  0  0  1  0            999 V2000
   14.7598   30.3770   -7.0420 C   0  0  0  0  0  0
   14.9010   31.7608   -6.9275 C   0  0  0  0  0  0
   14.9010   29.7800   -8.2932 C   0  0  0  0  0  0
   15.1962   30.5930   -9.3867 C   0  0  0  0  0  0
   15.3455   31.9407   -9.2945 N   0  0  0  0  0  0
   15.1856   32.5144   -8.0708 C   0  0  0  0  0  0
   15.2531   33.9080   -7.9252 N   0  0  0  0  0  0
   15.3448   34.8467   -9.0418 C   0  0  0  0  0  0
   16.7036   35.5906   -9.1521 C   0  0  0  0  0  0
   16.3781   37.4362   -9.1095 P   0  0  0  0  0  0
   15.3010   37.9033   -8.1652 O   0  0  0  0  0  0
   17.9130   38.0804   -8.7650 O   0  0  0  0  0  0
   16.1010   37.8196  -10.7650 O   0  0  0  0  0  0
   17.7583   34.8487  -10.5023 P   0  0  0  0  0  0
   16.9494   35.3001  -11.9385 O   0  0  0  0  0  0
   19.1491   35.7902  -10.3650 O   0  0  0  0  0  0
   18.1010   33.3800  -10.3650 O   0  0  0  0  0  0
   14.5291   29.7758   -6.1745 H   0  0  0  0  0  0
   14.7777   32.2326   -5.9650 H   0  0  0  0  0  0
   14.7787   28.7128   -8.4154 H   0  0  0  0  0  0
   15.3010   30.1549  -10.3650 H   0  0  0  0  0  0
   15.1660   34.2794   -6.9929 H   0  0  0  0  0  0
   14.5381   35.5529   -8.8413 H   0  0  0  0  0  0
   15.0625   34.3808   -9.9876 H   0  0  0  0  0  0
   17.2670   35.3896   -8.2305 H   0  0  0  0  0  0
   18.1005   39.0267   -8.9790 H   0  0  0  0  0  0
   16.8580   38.2874  -11.2205 H   0  0  0  0  0  0
   17.3759   35.8651  -12.6178 H   0  0  0  0  0  0
   19.3146   36.5477  -10.9821 H   0  0  0  0  0  0
  1  2  2  0  0  0
  1  3  1  0  0  0
  1 18  1  0  0  0
  2  6  1  0  0  0
  2 19  1  0  0  0
  3  4  2  0  0  0
  3 20  1  0  0  0
  4  5  1  0  0  0
  4 21  1  0  0  0
  5  6  2  0  0  0
  6  7  1  0  0  0
  7  8  1  0  0  0
  7 22  1  0  0  0
  8  9  1  0  0  0
  8 23  1  0  0  0
  8 24  1  0  0  0
  9 10  1  0  0  0
  9 14  1  0  0  0
  9 25  1  0  0  0
 10 11  2  0  0  0
 10 13  1  0  0  0
 10 12  1  0  0  0
 12 26  1  0  0  0
 13 27  1  0  0  0
 14 17  2  0  0  0
 14 16  1  0  0  0
 14 15  1  0  0  0
 15 28  1  0  0  0
 16 29  1  0  0  0
M  END
> <s_m_entry_id>
2996

> <s_m_entry_name>
dock_pv.11

> <s_m_Source_Path>
/home/csk/Desktop/cluster/DUD-E-result/fpps

> <s_m_Source_File>
dock_pv.maegz

> <i_m_Source_File_Index>
11

> <chembl_id>
CHEMBL294192

> <chembl_pref_name>
None

> <i_lp_mmshare_version>
53161

> <r_lp_tautomer_probability>
0.999999772200052

> <s_lp_Force_Field>
OPLS_2005

> <r_lp_Energy>
1.395676

> <b_lp_Chiralities_Consistent>
1

> <s_lp_Variant>
CHEMBL1782_lig98-1

> <s_i_glide_gridfile>
glide-grid_1zw5

> <i_i_glide_lignum>
108

> <i_i_glide_rotatable_bonds>
9

> <r_i_docking_score>
-8.84736834146825

> <r_i_glide_ligand_efficiency>
-0.520433431851074

> <r_i_glide_ligand_efficiency_sa>
-1.33818090121797

> <r_i_glide_ligand_efficiency_ln>
-2.3080813790829

> <r_i_glide_gscore>
-8.84736834146825

> <r_i_glide_lipo>
-0.278205515718658

> <r_i_glide_hbond>
0

> <r_i_glide_metal>
-2.3

> <r_i_glide_rewards>
-1.63547191312382

> <r_i_glide_evdw>
-25.4756050109863

> <r_i_glide_ecoul>
-44.9505805969238

> <r_i_glide_erotb>
0.909017747023107

> <r_i_glide_esite>
-0.268928409099564

> <r_i_glide_emodel>
-118.753474672831

> <r_i_glide_energy>
-70.4261856079102

> <r_i_glide_einternal>
26.5897369384766

> <i_i_glide_confnum>
44

> <i_i_glide_posenum>
289

> <r_i_glide_eff_state_penalty>
0

> <s_user_duplicate_titles>
CHEMBL1782_lig98,84800

> <i_f3d_flags>
0

> <s_m_subgroup_title>
dock_pv

> <s_m_subgroupid>
dock_pv

> <b_m_subgroup_collapsed>
1

$$$$
CHEMBL1782_lig12
                    3D
 Schrodinger Suite 2021-1.
 35 36  0  0  1  0            999 V2000
   10.5551   33.7180   -8.6081 C   0  0  0  0  0  0
   10.0857   32.4076   -8.6054 C   0  0  0  0  0  0
   10.9217   31.3278   -8.3650 C   0  0  0  0  0  0
   11.9041   33.9851   -8.3772 C   0  0  0  0  0  0
   12.8001   32.9277   -8.1869 C   0  0  0  0  0  0
   12.2735   31.6072   -8.1826 C   0  0  0  0  0  0
   13.3279   30.7699   -7.9650 N   0  0  0  0  0  0
   14.4823   31.4859   -7.8070 C   0  0  0  0  0  0
   14.2228   32.8508   -7.9577 C   0  0  0  0  0  0
   15.1777   34.0465   -7.8313 C   0  0  0  0  0  0
   15.7253   30.7131   -7.4932 C   0  0  0  0  0  0
   15.5076   34.8263   -9.1481 C   0  0  0  0  0  0
   16.7164   33.8777  -10.1735 P   0  0  0  0  0  0
   16.1010   36.5702   -8.7650 P   0  0  0  0  0  0
   18.1010   33.7800   -9.5650 O   0  0  0  0  0  0
   15.9701   32.3629  -10.3650 O   0  0  0  0  0  0
   16.7294   34.6861  -11.6758 O   0  0  0  0  0  0
   17.7758   36.3169   -8.3649 O   0  0  0  0  0  0
   15.3488   37.3048   -7.6828 O   0  0  0  0  0  0
   16.1098   37.3800  -10.3176 O   0  0  0  0  0  0
    9.8737   34.5347   -8.7993 H   0  0  0  0  0  0
    9.0479   32.1800   -8.7954 H   0  0  0  0  0  0
   10.5433   30.3160   -8.3650 H   0  0  0  0  0  0
   12.2742   34.9877   -8.3650 H   0  0  0  0  0  0
   13.2954   29.7627   -7.8877 H   0  0  0  0  0  0
   16.1010   33.7367   -7.3474 H   0  0  0  0  0  0
   14.7227   34.7385   -7.1218 H   0  0  0  0  0  0
   16.5010   30.8979   -8.2313 H   0  0  0  0  0  0
   16.1010   30.9816   -6.5078 H   0  0  0  0  0  0
   15.5708   29.6327   -7.4792 H   0  0  0  0  0  0
   14.5749   34.8974   -9.7016 H   0  0  0  0  0  0
   15.5275   31.8855   -9.6328 H   0  0  0  0  0  0
   17.0727   35.5938  -11.8040 H   0  0  0  0  0  0
   18.4150   36.9800   -8.7180 H   0  0  0  0  0  0
   16.9007   37.9259  -10.5637 H   0  0  0  0  0  0
  1  2  2  0  0  0
  1  4  1  0  0  0
  1 21  1  0  0  0
  2  3  1  0  0  0
  2 22  1  0  0  0
  3  6  2  0  0  0
  3 23  1  0  0  0
  4  5  2  0  0  0
  4 24  1  0  0  0
  5  6  1  0  0  0
  5  9  1  0  0  0
  6  7  1  0  0  0
  7  8  1  0  0  0
  7 25  1  0  0  0
  8  9  2  0  0  0
  8 11  1  0  0  0
  9 10  1  0  0  0
 10 12  1  0  0  0
 10 26  1  0  0  0
 10 27  1  0  0  0
 11 28  1  0  0  0
 11 29  1  0  0  0
 11 30  1  0  0  0
 12 13  1  0  0  0
 12 14  1  0  0  0
 12 31  1  0  0  0
 13 15  2  0  0  0
 13 16  1  0  0  0
 13 17  1  0  0  0
 14 18  1  0  0  0
 14 19  2  0  0  0
 14 20  1  0  0  0
 16 32  1  0  0  0
 17 33  1  0  0  0
 18 34  1  0  0  0
 20 35  1  0  0  0
M  END
> <s_m_entry_id>
2997

> <s_m_entry_name>
dock_pv.12

> <s_m_Source_Path>
/home/csk/Desktop/cluster/DUD-E-result/fpps

> <s_m_Source_File>
dock_pv.maegz

> <i_m_Source_File_Index>
12

> <chembl_id>
CHEMBL3410287

> <chembl_pref_name>
None

> <i_lp_mmshare_version>
53161

> <r_lp_tautomer_probability>
1

> <s_lp_Force_Field>
OPLS_2005

> <r_lp_Energy>
-1.02601

> <b_lp_Chiralities_Consistent>
1

> <s_lp_Variant>
CHEMBL1782_lig12-1

> <s_i_glide_gridfile>
glide-grid_1zw5

> <i_i_glide_lignum>
16

> <i_i_glide_rotatable_bonds>
8

> <r_i_docking_score>
-8.82157596781043

> <r_i_glide_ligand_efficiency>
-0.441078798390521

> <r_i_glide_ligand_efficiency_sa>
-1.19727205946218

> <r_i_glide_ligand_efficiency_ln>
-2.20774950969478

> <r_i_glide_gscore>
-8.82157596781043

> <r_i_glide_lipo>
-0.300108589393599

> <r_i_glide_hbond>
-0.0726623799454404

> <r_i_glide_metal>
-2.3

> <r_i_glide_rewards>
-1.23281304545454

> <r_i_glide_evdw>
-28.2660541534424

> <r_i_glide_ecoul>
-41.040397644043

> <r_i_glide_erotb>
0.732440024591915

> <r_i_glide_esite>
-0.23512926993664

> <r_i_glide_emodel>
-119.923017136645

> <r_i_glide_energy>
-69.3064517974854

> <r_i_glide_einternal>
12.6448163986206

> <i_i_glide_confnum>
4

> <i_i_glide_posenum>
337

> <r_i_glide_eff_state_penalty>
0

> <s_user_duplicate_titles>
CHEMBL1782_lig12

> <i_f3d_flags>
0

> <s_m_subgroup_title>
dock_pv

> <s_m_subgroupid>
dock_pv

> <b_m_subgroup_collapsed>
1

$$$$
CHEMBL1782_lig57
                    3D
 Schrodinger Suite 2021-1.
 32 32  0  0  1  0            999 V2000
   16.6360   35.5627   -9.1637 C   0  0  0  0  0  0
   16.4278   37.4316   -9.1650 P   0  0  0  0  0  0
   17.8299   34.8755  -10.4289 P   0  0  0  0  0  0
   15.3011   34.9800   -9.3389 N   0  0  0  0  0  0
   14.7630   33.7461   -9.0643 C   0  0  0  0  0  0
   13.4753   33.5378   -9.0505 N   0  0  0  0  0  0
   15.7010   32.3314   -8.7414 S   0  0  0  0  0  0
   13.1813   32.2852   -8.7650 C   0  0  0  0  0  0
   14.2378   31.4069   -8.5293 C   0  0  0  0  0  0
   15.7010   38.0111  -10.3650 O   0  0  0  0  0  0
   18.1010   33.3800  -10.3650 O   0  0  0  0  0  0
   15.7010   37.7539   -7.6607 O   0  0  0  0  0  0
   17.2410   35.4995  -11.9053 O   0  0  0  0  0  0
   18.0225   37.9713   -8.9994 O   0  0  0  0  0  0
   19.2140   35.7800  -10.0435 O   0  0  0  0  0  0
   14.2307   29.9368   -8.1653 C   0  0  0  0  0  0
   14.3236   29.6842   -6.6464 C   0  0  0  0  0  0
   15.6320   30.1535   -5.9920 C   0  0  0  0  0  0
   17.0017   35.2641   -8.1777 H   0  0  0  0  0  0
   14.6224   35.6813   -9.6385 H   0  0  0  0  0  0
   12.1405   31.9959   -8.7302 H   0  0  0  0  0  0
   15.4745   38.6739   -7.4255 H   0  0  0  0  0  0
   17.7010   36.2422  -12.3650 H   0  0  0  0  0  0
   18.2506   38.8608   -9.3608 H   0  0  0  0  0  0
   19.4948   36.5465  -10.5984 H   0  0  0  0  0  0
   15.0368   29.4078   -8.6765 H   0  0  0  0  0  0
   13.3128   29.4757   -8.5338 H   0  0  0  0  0  0
   14.2031   28.6148   -6.4657 H   0  0  0  0  0  0
   13.4844   30.1670   -6.1445 H   0  0  0  0  0  0
   15.7010   29.8010   -4.9641 H   0  0  0  0  0  0
   15.7000   31.2406   -5.9649 H   0  0  0  0  0  0
   16.5004   29.7789   -6.5314 H   0  0  0  0  0  0
  1  2  1  0  0  0
  1  3  1  0  0  0
  1  4  1  0  0  0
  1 19  1  0  0  0
  2 10  2  0  0  0
  2 12  1  0  0  0
  2 14  1  0  0  0
  3 11  2  0  0  0
  3 13  1  0  0  0
  3 15  1  0  0  0
  4  5  1  0  0  0
  4 20  1  0  0  0
  5  6  2  0  0  0
  5  7  1  0  0  0
  6  8  1  0  0  0
  7  9  1  0  0  0
  8  9  2  0  0  0
  8 21  1  0  0  0
  9 16  1  0  0  0
 12 22  1  0  0  0
 13 23  1  0  0  0
 14 24  1  0  0  0
 15 25  1  0  0  0
 16 17  1  0  0  0
 16 26  1  0  0  0
 16 27  1  0  0  0
 17 18  1  0  0  0
 17 28  1  0  0  0
 17 29  1  0  0  0
 18 30  1  0  0  0
 18 31  1  0  0  0
 18 32  1  0  0  0
M  END
> <s_m_entry_id>
2998

> <s_m_entry_name>
dock_pv.13

> <s_m_Source_Path>
/home/csk/Desktop/cluster/DUD-E-result/fpps

> <s_m_Source_File>
dock_pv.maegz

> <i_m_Source_File_Index>
13

> <chembl_id>
CHEMBL100295

> <chembl_pref_name>
None

> <i_lp_mmshare_version>
53161

> <r_lp_tautomer_probability>
1

> <s_lp_Force_Field>
OPLS_2005

> <r_lp_Energy>
-15.134552

> <b_lp_Chiralities_Consistent>
1

> <s_lp_Variant>
CHEMBL1782_lig57-1

> <s_i_glide_gridfile>
glide-grid_1zw5

> <i_i_glide_lignum>
62

> <i_i_glide_rotatable_bonds>
10

> <r_i_docking_score>
-8.80232397983781

> <r_i_glide_ligand_efficiency>
-0.489017998879878

> <r_i_glide_ligand_efficiency_sa>
-1.28158971094294

> <r_i_glide_ligand_efficiency_ln>
-2.26259199059113

> <r_i_glide_gscore>
-8.80232397983781

> <r_i_glide_lipo>
-0.508533044625542

> <r_i_glide_hbond>
-0.16

> <r_i_glide_metal>
-2.3

> <r_i_glide_rewards>
-1.25311786363636

> <r_i_glide_evdw>
-24.8855228424072

> <r_i_glide_ecoul>
-44.565601348877

> <r_i_glide_erotb>
0.93078521572687

> <r_i_glide_esite>
-0.267182145182413

> <r_i_glide_emodel>
-125.243934066355

> <r_i_glide_energy>
-69.4511241912842

> <r_i_glide_einternal>
21.6883964538574

> <i_i_glide_confnum>
86

> <i_i_glide_posenum>
340

> <r_i_glide_eff_state_penalty>
0

> <s_user_duplicate_titles>
CHEMBL1782_lig57

> <i_f3d_flags>
0

> <s_m_subgroup_title>
dock_pv

> <s_m_subgroupid>
dock_pv

> <b_m_subgroup_collapsed>
1

$$$$
CHEMBL1782_lig162
                    3D
 Schrodinger Suite 2021-1.
 30 31  0  0  1  0            999 V2000
   16.0163   33.6153   -9.7828 C   0  0  0  0  0  0
   15.7010   35.0875   -9.7433 C   0  0  0  0  0  0
   16.7792   35.9499   -9.0166 C   0  0  2  0  0  0
   16.4855   35.9705   -7.1883 P   0  0  0  0  0  0
   15.3415   37.0919   -6.9837 O   0  0  0  0  0  0
   15.7056   34.5826   -6.8582 O   0  0  0  0  0  0
   17.7010   36.1800   -6.3650 O   0  0  0  0  0  0
   16.8302   37.3854   -9.5606 C   0  0  0  0  0  0
   16.1010   37.7800  -10.4639 O   0  0  0  0  0  0
   17.7304   38.1800   -8.9130 O   0  0  0  0  0  0
   18.1010   35.4141   -9.1650 O   0  0  0  0  0  0
   17.0733   32.9376  -10.3650 C   0  0  0  0  0  0
   17.0926   31.6637  -10.0806 N   0  0  0  0  0  0
   15.1931   32.6367   -9.2717 N   0  0  0  0  0  0
   15.8815   31.4282   -9.4919 C   0  0  0  0  0  0
   15.2564   30.2298   -9.0940 C   0  0  0  0  0  0
   14.0085   30.2835   -8.4705 C   0  0  0  0  0  0
   13.3647   31.4955   -8.2500 C   0  0  0  0  0  0
   13.9637   32.6814   -8.6608 C   0  0  0  0  0  0
   14.7360   35.2895   -9.2797 H   0  0  0  0  0  0
   15.5951   35.3800  -10.7881 H   0  0  0  0  0  0
   15.7057   37.9857   -6.8188 H   0  0  0  0  0  0
   16.2660   33.8497   -6.5147 H   0  0  0  0  0  0
   17.7010   39.0787   -9.3138 H   0  0  0  0  0  0
   18.4799   35.8216   -9.9620 H   0  0  0  0  0  0
   17.8614   33.4076  -10.9395 H   0  0  0  0  0  0
   15.7010   29.2665   -9.2781 H   0  0  0  0  0  0
   13.5225   29.3689   -8.1644 H   0  0  0  0  0  0
   12.3929   31.5027   -7.7760 H   0  0  0  0  0  0
   13.4989   33.6465   -8.5319 H   0  0  0  0  0  0
  1 12  2  0  0  0
  1  2  1  0  0  0
  1 14  1  0  0  0
  2  3  1  0  0  0
  2 20  1  0  0  0
  2 21  1  0  0  0
  3 11  1  0  0  0
  3  4  1  0  0  0
  3  8  1  0  0  0
  4  6  1  0  0  0
  4  7  2  0  0  0
  4  5  1  0  0  0
  5 22  1  0  0  0
  6 23  1  0  0  0
  8 10  1  0  0  0
  8  9  2  0  0  0
 10 24  1  0  0  0
 11 25  1  0  0  0
 12 13  1  0  0  0
 12 26  1  0  0  0
 13 15  2  0  0  0
 14 15  1  0  0  0
 14 19  1  0  0  0
 15 16  1  0  0  0
 16 17  2  0  0  0
 16 27  1  0  0  0
 17 18  1  0  0  0
 17 28  1  0  0  0
 18 19  2  0  0  0
 18 29  1  0  0  0
 19 30  1  0  0  0
M  END
> <s_m_entry_id>
2999

> <s_m_entry_name>
dock_pv.14

> <s_m_Source_Path>
/home/csk/Desktop/cluster/DUD-E-result/fpps

> <s_m_Source_File>
dock_pv.maegz

> <i_m_Source_File_Index>
14

> <chembl_id>
CHEMBL1099309

> <chembl_pref_name>
(2-HYDROXY-3-IMIDAZO[1,2-A]PYRIDIN-3-YL-2-PHOSPHONOPROPIONIC ACID (ENANTIONMERS)

> <i_lp_mmshare_version>
53161

> <r_lp_tautomer_probability>
1

> <s_lp_Force_Field>
OPLS_2005

> <r_lp_Energy>
19.776205

> <b_lp_Chiralities_Consistent>
1

> <s_lp_Variant>
CHEMBL1782_lig162-2

> <s_i_glide_gridfile>
glide-grid_1zw5

> <i_i_glide_lignum>
184

> <i_i_glide_rotatable_bonds>
8

> <r_i_docking_score>
-8.76525328124317

> <r_i_glide_ligand_efficiency>
-0.46132912006543

> <r_i_glide_ligand_efficiency_sa>
-1.23101138337782

> <r_i_glide_ligand_efficiency_ln>
-2.22217996717381

> <r_i_glide_gscore>
-8.76525328124317

> <r_i_glide_lipo>
0

> <r_i_glide_hbond>
0

> <r_i_glide_metal>
-2.3

> <r_i_glide_rewards>
-1.60787795454545

> <r_i_glide_evdw>
-22.9811515808105

> <r_i_glide_ecoul>
-39.8015785217285

> <r_i_glide_erotb>
0.665064597243016

> <r_i_glide_esite>
-0.3733823449002

> <r_i_glide_emodel>
-110.123371465418

> <r_i_glide_energy>
-62.7827301025391

> <r_i_glide_einternal>
10.6933574676514

> <i_i_glide_confnum>
14

> <i_i_glide_posenum>
373

> <r_i_glide_eff_state_penalty>
0

> <s_user_duplicate_titles>
CHEMBL1782_lig162

> <i_f3d_flags>
0

> <s_m_subgroup_title>
dock_pv

> <s_m_subgroupid>
dock_pv

> <b_m_subgroup_collapsed>
1

$$$$
CHEMBL1782_lig7
                    3D
 Schrodinger Suite 2021-1.
 35 36  0  0  1  0            999 V2000
   14.9010   28.8583   -8.3336 C   0  0  0  0  0  0
   14.3150   29.2503   -7.1315 C   0  0  0  0  0  0
   14.1008   30.6040   -6.8697 C   0  0  0  0  0  0
   15.3011   29.7190   -9.3060 N   0  0  0  0  0  0
   15.1239   31.0170   -9.0637 C   0  0  0  0  0  0
   14.5196   31.4882   -7.8694 C   0  0  0  0  0  0
   14.4844   32.8560   -8.0248 N   0  0  0  0  0  0
   15.0363   33.1108   -9.2701 C   0  0  0  0  0  0
   15.4811   32.0493   -9.8886 N   0  0  0  0  0  0
   15.1146   34.3843   -9.7566 N   0  0  0  0  0  0
   15.7004   34.8702  -11.0037 C   0  0  0  0  0  0
   16.8707   35.8445  -10.8239 C   0  0  0  0  0  0
   18.2890   34.7878  -10.3649 P   0  0  0  0  0  0
   16.5256   37.1700   -9.5094 P   0  0  0  0  0  0
   18.5011   33.3800  -10.8439 O   0  0  0  0  0  0
   19.6529   35.7852  -10.3694 O   0  0  0  0  0  0
   17.8356   34.5800   -8.7650 O   0  0  0  0  0  0
   18.0801   37.7703   -9.1650 O   0  0  0  0  0  0
   15.8153   36.7038   -8.2568 O   0  0  0  0  0  0
   15.7011   38.3963  -10.3650 O   0  0  0  0  0  0
   13.8658   33.7970   -7.0974 C   0  0  0  0  0  0
   15.0411   27.8087   -8.5507 H   0  0  0  0  0  0
   13.9972   28.5030   -6.4181 H   0  0  0  0  0  0
   13.6154   30.9337   -5.9651 H   0  0  0  0  0  0
   14.6311   35.1243   -9.2551 H   0  0  0  0  0  0
   14.9287   35.3801  -11.5647 H   0  0  0  0  0  0
   15.9895   34.0253  -11.6278 H   0  0  0  0  0  0
   17.0481   36.3045  -11.7941 H   0  0  0  0  0  0
   19.8218   36.4214  -11.1044 H   0  0  0  0  0  0
   16.9011   34.3052   -8.5885 H   0  0  0  0  0  0
   18.7882   37.8473   -9.8405 H   0  0  0  0  0  0
   16.1658   39.2798  -10.3530 H   0  0  0  0  0  0
   12.7814   33.7203   -7.1854 H   0  0  0  0  0  0
   14.1618   33.5445   -6.0787 H   0  0  0  0  0  0
   14.1766   34.8189   -7.3103 H   0  0  0  0  0  0
  1  2  2  0  0  0
  1  4  1  0  0  0
  1 22  1  0  0  0
  2  3  1  0  0  0
  2 23  1  0  0  0
  3  6  2  0  0  0
  3 24  1  0  0  0
  4  5  2  0  0  0
  5  6  1  0  0  0
  5  9  1  0  0  0
  6  7  1  0  0  0
  7  8  1  0  0  0
  7 21  1  0  0  0
  8  9  2  0  0  0
  8 10  1  0  0  0
 10 11  1  0  0  0
 10 25  1  0  0  0
 11 12  1  0  0  0
 11 26  1  0  0  0
 11 27  1  0  0  0
 12 13  1  0  0  0
 12 14  1  0  0  0
 12 28  1  0  0  0
 13 15  2  0  0  0
 13 16  1  0  0  0
 13 17  1  0  0  0
 14 18  1  0  0  0
 14 19  2  0  0  0
 14 20  1  0  0  0
 16 29  1  0  0  0
 17 30  1  0  0  0
 18 31  1  0  0  0
 20 32  1  0  0  0
 21 33  1  0  0  0
 21 34  1  0  0  0
 21 35  1  0  0  0
M  END
> <s_m_entry_id>
3000

> <s_m_entry_name>
dock_pv.15

> <s_m_Source_Path>
/home/csk/Desktop/cluster/DUD-E-result/fpps

> <s_m_Source_File>
dock_pv.maegz

> <i_m_Source_File_Index>
15

> <chembl_id>
CHEMBL3410292

> <chembl_pref_name>
None

> <i_lp_mmshare_version>
53161

> <r_lp_tautomer_probability>
1

> <s_lp_Force_Field>
OPLS_2005

> <r_lp_Energy>
13.68048

> <b_lp_Chiralities_Consistent>
1

> <s_lp_Variant>
CHEMBL1782_lig7-1

> <s_i_glide_gridfile>
glide-grid_1zw5

> <i_i_glide_lignum>
8

> <i_i_glide_rotatable_bonds>
9

> <r_i_docking_score>
-8.76299108426754

> <r_i_glide_ligand_efficiency>
-0.417285289727026

> <r_i_glide_ligand_efficiency_sa>
-1.15125847310775

> <r_i_glide_ligand_efficiency_ln>
-2.16663183829437

> <r_i_glide_gscore>
-8.76299108426754

> <r_i_glide_lipo>
-0.245563502475995

> <r_i_glide_hbond>
-0.00922680691846763

> <r_i_glide_metal>
-2.3

> <r_i_glide_rewards>
-1.26696694146956

> <r_i_glide_evdw>
-27.0383224487305

> <r_i_glide_ecoul>
-41.4612503051758

> <r_i_glide_erotb>
0.835415696704244

> <r_i_glide_esite>
-0.424733407671238

> <r_i_glide_emodel>
-118.999718088193

> <r_i_glide_energy>
-68.4995727539062

> <r_i_glide_einternal>
11.9205007553101

> <i_i_glide_confnum>
65

> <i_i_glide_posenum>
5

> <r_i_glide_eff_state_penalty>
0

> <s_user_duplicate_titles>
CHEMBL1782_lig7

> <i_f3d_flags>
0

> <s_m_subgroup_title>
dock_pv

> <s_m_subgroupid>
dock_pv

> <b_m_subgroup_collapsed>
1

$$$$
CHEMBL1782_lig250 
                    3D
 Schrodinger Suite 2021-1.
 31 32  0  0  1  0            999 V2000
   18.1009   33.7800   -9.1651 O   0  0  0  0  0  0
   16.8491   33.9492  -10.0010 P   0  0  0  0  0  0
   15.9703   32.5089  -10.2161 O   0  0  0  0  0  0
   17.7910   36.6164   -8.3627 O   0  0  0  0  0  0
   16.4801   36.7923   -9.1268 P   0  0  0  0  0  0
   16.5058   37.3796  -10.7652 O   0  0  0  0  0  0
   15.0051   30.3322   -6.7429 C   0  0  0  0  0  0
   14.0822   29.6154   -7.4996 C   0  0  0  0  0  0
   13.1070   30.2849   -8.2394 C   0  0  0  0  0  0
   15.0468   31.7282   -6.7688 C   0  0  0  0  0  0
   14.1577   32.3731   -7.6220 C   0  0  0  0  0  0
   13.1225   31.6722   -8.2692 C   0  0  0  0  0  0
   12.2371   32.5244   -8.8501 N   0  0  0  0  0  0
   12.8237   33.6817   -8.7603 C   0  0  0  0  0  0
   14.0291   33.6625   -8.0953 N   0  0  0  0  0  0
   14.9731   34.7655   -7.9650 C   0  0  0  0  0  0
   15.6386   35.1641   -9.3226 C   0  0  0  0  0  0
   15.2758   37.7347   -8.3774 O   0  0  0  0  0  0
   17.2014   34.5662  -11.5534 O   0  0  0  0  0  0
   15.8778   29.6608   -5.9659 F   0  0  0  0  0  0
   14.1011   28.2635   -7.4682 F   0  0  0  0  0  0
   15.4481   32.0678   -9.5152 H   0  0  0  0  0  0
   17.3507   37.7803  -11.1271 H   0  0  0  0  0  0
   12.3284   29.7801   -8.7648 H   0  0  0  0  0  0
   15.7026   32.2828   -6.1329 H   0  0  0  0  0  0
   12.4474   34.5800   -9.2086 H   0  0  0  0  0  0
   15.7219   34.5036   -7.2171 H   0  0  0  0  0  0
   14.4003   35.5952   -7.5523 H   0  0  0  0  0  0
   14.9009   35.2354  -10.0998 H   0  0  0  0  0  0
   14.3235   37.5757   -8.5443 H   0  0  0  0  0  0
   17.5889   35.4513  -11.7227 H   0  0  0  0  0  0
  1  2  2  0  0  0
  2  3  1  0  0  0
  2 17  1  0  0  0
  2 19  1  0  0  0
  3 22  1  0  0  0
  4  5  2  0  0  0
  5  6  1  0  0  0
  5 17  1  0  0  0
  5 18  1  0  0  0
  6 23  1  0  0  0
  7  8  2  0  0  0
  7 10  1  0  0  0
  7 20  1  0  0  0
  8  9  1  0  0  0
  8 21  1  0  0  0
  9 12  2  0  0  0
  9 24  1  0  0  0
 10 11  2  0  0  0
 10 25  1  0  0  0
 11 12  1  0  0  0
 11 15  1  0  0  0
 12 13  1  0  0  0
 13 14  2  0  0  0
 14 15  1  0  0  0
 14 26  1  0  0  0
 15 16  1  0  0  0
 16 17  1  0  0  0
 16 27  1  0  0  0
 16 28  1  0  0  0
 17 29  1  0  0  0
 18 30  1  0  0  0
 19 31  1  0  0  0
M  END
> <s_m_entry_id>
3001

> <s_m_entry_name>
dock_pv.16

> <s_m_Source_Path>
/home/csk/Desktop/cluster/DUD-E-result/fpps

> <s_m_Source_File>
dock_pv.maegz

> <i_m_Source_File_Index>
16

> <chembl_id>
CHEMBL4459281

> <chembl_pref_name>
None

> <i_lp_mmshare_version>
53161

> <r_lp_tautomer_probability>
1

> <s_lp_Force_Field>
OPLS_2005

> <r_lp_Energy>
3.259273

> <b_lp_Chiralities_Consistent>
1

> <s_lp_Variant>
CHEMBL1782_lig250 -1

> <s_i_glide_gridfile>
glide-grid_1zw5

> <i_i_glide_lignum>
291

> <i_i_glide_rotatable_bonds>
8

> <r_i_docking_score>
-8.73917634066421

> <r_i_glide_ligand_efficiency>
-0.416151254317343

> <r_i_glide_ligand_efficiency_sa>
-1.14812975540228

> <r_i_glide_ligand_efficiency_ln>
-2.16074369106067

> <r_i_glide_gscore>
-8.73917634066421

> <r_i_glide_lipo>
-0.422564714892106

> <r_i_glide_hbond>
0

> <r_i_glide_metal>
-2.28350904178154

> <r_i_glide_rewards>
-1.07638755

> <r_i_glide_evdw>
-23.1914005279541

> <r_i_glide_ecoul>
-42.4237060546875

> <r_i_glide_erotb>
0.485899653370371

> <r_i_glide_esite>
-0.283044660963229

> <r_i_glide_emodel>
-115.95224397379

> <r_i_glide_energy>
-65.6151065826416

> <r_i_glide_einternal>
9.65774917602539

> <i_i_glide_confnum>
1

> <i_i_glide_posenum>
316

> <r_i_glide_eff_state_penalty>
0

> <s_user_duplicate_titles>
CHEMBL1782_lig250 

> <i_f3d_flags>
0

> <s_m_subgroup_title>
dock_pv

> <s_m_subgroupid>
dock_pv

> <b_m_subgroup_collapsed>
1

$$$$
CHEMBL1782_lig163
                    3D
 Schrodinger Suite 2021-1.
 34 35  0  0  1  0            999 V2000
   14.2124   31.6861   -7.7585 C   0  0  0  0  0  0
   13.1621   32.3765   -7.1494 C   0  0  0  0  0  0
   12.8659   33.6681   -7.4342 N   0  0  0  0  0  0
   13.6284   34.2934   -8.3650 C   0  0  0  0  0  0
   14.7249   33.6981   -8.9988 C   0  0  0  0  0  0
   15.0165   32.3726   -8.6697 C   0  0  0  0  0  0
   15.5278   34.3946  -10.0928 C   0  0  0  0  0  0
   16.7467   35.2441   -9.6434 C   0  0  0  0  0  0
   16.3882   37.0401   -9.1966 P   0  0  0  0  0  0
   18.1489   34.8400  -10.7875 P   0  0  0  0  0  0
   17.2932   34.8121   -8.4996 F   0  0  0  0  0  0
   18.5329   33.3800  -10.7650 O   0  0  0  0  0  0
   17.5702   35.3801  -12.2907 O   0  0  0  0  0  0
   19.3641   35.8586  -10.1862 O   0  0  0  0  0  0
   17.4769   37.6740   -8.3680 O   0  0  0  0  0  0
   16.1010   37.7668  -10.7650 O   0  0  0  0  0  0
   14.9010   36.9464   -8.3650 O   0  0  0  0  0  0
   14.4139   30.2422   -7.5268 C   0  0  0  0  0  0
   14.1010   29.4863   -6.4133 C   0  0  0  0  0  0
   14.3610   28.1920   -6.7650 N   0  0  0  0  0  0
   14.9010   28.0751   -7.9655 N   0  0  0  0  0  0
   14.9167   29.2980   -8.4306 C   0  0  0  0  0  0
   12.5044   31.8755   -6.4537 H   0  0  0  0  0  0
   13.2983   35.2830   -8.6255 H   0  0  0  0  0  0
   15.8266   31.8537   -9.1599 H   0  0  0  0  0  0
   14.9010   34.9800  -10.7433 H   0  0  0  0  0  0
   15.8380   33.5926  -10.7650 H   0  0  0  0  0  0
   18.0139   36.1154  -12.7681 H   0  0  0  0  0  0
   19.6359   36.6737  -10.6728 H   0  0  0  0  0  0
   16.9017   38.0192  -11.2995 H   0  0  0  0  0  0
   14.0424   37.1279   -8.8145 H   0  0  0  0  0  0
   13.6697   29.7312   -5.4546 H   0  0  0  0  0  0
   14.1881   27.3856   -6.1812 H   0  0  0  0  0  0
   15.2590   29.4936   -9.4357 H   0  0  0  0  0  0
  1  6  1  0  0  0
  1  2  2  0  0  0
  1 18  1  0  0  0
  2  3  1  0  0  0
  2 23  1  0  0  0
  3  4  2  0  0  0
  4  5  1  0  0  0
  4 24  1  0  0  0
  5  6  2  0  0  0
  5  7  1  0  0  0
  6 25  1  0  0  0
  7  8  1  0  0  0
  7 26  1  0  0  0
  7 27  1  0  0  0
  8  9  1  0  0  0
  8 10  1  0  0  0
  8 11  1  0  0  0
  9 15  2  0  0  0
  9 16  1  0  0  0
  9 17  1  0  0  0
 10 12  2  0  0  0
 10 13  1  0  0  0
 10 14  1  0  0  0
 13 28  1  0  0  0
 14 29  1  0  0  0
 16 30  1  0  0  0
 17 31  1  0  0  0
 18 19  2  0  0  0
 18 22  1  0  0  0
 19 20  1  0  0  0
 19 32  1  0  0  0
 20 21  1  0  0  0
 20 33  1  0  0  0
 21 22  2  0  0  0
 22 34  1  0  0  0
M  END
> <s_m_entry_id>
3002

> <s_m_entry_name>
dock_pv.17

> <s_m_Source_Path>
/home/csk/Desktop/cluster/DUD-E-result/fpps

> <s_m_Source_File>
dock_pv.maegz

> <i_m_Source_File_Index>
17

> <chembl_id>
CHEMBL1258422

> <chembl_pref_name>
None

> <i_lp_mmshare_version>
53161

> <r_lp_tautomer_probability>
0.5

> <s_lp_Force_Field>
OPLS_2005

> <r_lp_Energy>
5.67005

> <b_lp_Chiralities_Consistent>
1

> <s_lp_Variant>
CHEMBL1782_lig163-1

> <s_i_glide_gridfile>
glide-grid_1zw5

> <i_i_glide_lignum>
185

> <i_i_glide_rotatable_bonds>
9

> <r_i_docking_score>
-8.72801899043157

> <r_i_glide_ligand_efficiency>
-0.396728135928708

> <r_i_glide_ligand_efficiency_sa>
-1.11164783930445

> <r_i_glide_ligand_efficiency_ln>
-2.13344620348948

> <r_i_glide_gscore>
-8.72801899043157

> <r_i_glide_lipo>
-0.207251634662481

> <r_i_glide_hbond>
0

> <r_i_glide_metal>
-2.3

> <r_i_glide_rewards>
-1.01478611590909

> <r_i_glide_evdw>
-28.9443817138672

> <r_i_glide_ecoul>
-36.4100914001465

> <r_i_glide_erotb>
0.541237845833361

> <r_i_glide_esite>
-0.3

> <r_i_glide_emodel>
-110.922574417858

> <r_i_glide_energy>
-65.3544731140137

> <r_i_glide_einternal>
18.7456703186035

> <i_i_glide_confnum>
15

> <i_i_glide_posenum>
110

> <r_i_glide_eff_state_penalty>
0

> <s_user_duplicate_titles>
CHEMBL1782_lig163

> <i_f3d_flags>
0

> <s_m_subgroup_title>
dock_pv

> <s_m_subgroupid>
dock_pv

> <b_m_subgroup_collapsed>
1

$$$$
CHEMBL1782_lig160
                    3D
 Schrodinger Suite 2021-1.
 25 25  0  0  1  0            999 V2000
   16.5480   35.4744   -9.1938 C   0  0  0  0  0  0
   17.7420   34.8423  -10.4728 P   0  0  0  0  0  0
   16.2864   37.3173   -9.3343 P   0  0  0  0  0  0
   17.0348   35.3213  -11.9498 O   0  0  0  0  0  0
   19.0790   35.8352  -10.1845 O   0  0  0  0  0  0
   18.1010   33.3800  -10.3650 O   0  0  0  0  0  0
   14.9010   37.5878   -8.3705 O   0  0  0  0  0  0
   16.1010   37.7800  -10.7649 O   0  0  0  0  0  0
   17.6709   37.9426   -8.5770 O   0  0  0  0  0  0
   15.1951   34.7116   -9.2890 C   0  0  0  0  0  0
   15.2211   33.3782   -8.7011 N   0  0  0  0  0  0
   14.9010   33.0263   -7.4117 C   0  0  0  0  0  0
   14.9429   31.7344   -7.1900 N   0  0  0  0  0  0
   15.3010   31.2111   -8.3486 C   0  0  0  0  0  0
   15.4836   32.1837   -9.3199 C   0  0  0  0  0  0
   16.9887   35.2799   -8.2081 H   0  0  0  0  0  0
   17.4448   36.0163  -12.5112 H   0  0  0  0  0  0
   19.3010   36.5742  -10.8060 H   0  0  0  0  0  0
   14.0096   37.3111   -8.6911 H   0  0  0  0  0  0
   18.0008   38.8294   -8.8522 H   0  0  0  0  0  0
   14.4025   35.2459   -8.7650 H   0  0  0  0  0  0
   14.8660   34.6125  -10.3238 H   0  0  0  0  0  0
   14.6176   33.7800   -6.6951 H   0  0  0  0  0  0
   15.4108   30.1430   -8.4798 H   0  0  0  0  0  0
   15.7410   32.1243  -10.3650 H   0  0  0  0  0  0
  1 10  1  0  0  0
  1  3  1  0  0  0
  1  2  1  0  0  0
  1 16  1  0  0  0
  2  5  1  0  0  0
  2  6  2  0  0  0
  2  4  1  0  0  0
  3  8  2  0  0  0
  3  9  1  0  0  0
  3  7  1  0  0  0
  4 17  1  0  0  0
  5 18  1  0  0  0
  7 19  1  0  0  0
  9 20  1  0  0  0
 10 11  1  0  0  0
 10 21  1  0  0  0
 10 22  1  0  0  0
 11 12  1  0  0  0
 11 15  1  0  0  0
 12 13  2  0  0  0
 12 23  1  0  0  0
 13 14  1  0  0  0
 14 15  2  0  0  0
 14 24  1  0  0  0
 15 25  1  0  0  0
M  END
> <s_m_entry_id>
3003

> <s_m_entry_name>
dock_pv.18

> <s_m_Source_Path>
/home/csk/Desktop/cluster/DUD-E-result/fpps

> <s_m_Source_File>
dock_pv.maegz

> <i_m_Source_File_Index>
18

> <chembl_id>
CHEMBL446734

> <chembl_pref_name>
None

> <i_lp_mmshare_version>
53161

> <r_lp_tautomer_probability>
1

> <s_lp_Force_Field>
OPLS_2005

> <r_lp_Energy>
-0.292734

> <b_lp_Chiralities_Consistent>
1

> <s_lp_Variant>
CHEMBL1782_lig160-1

> <s_i_glide_gridfile>
glide-grid_1zw5

> <i_i_glide_lignum>
181

> <i_i_glide_rotatable_bonds>
8

> <r_i_docking_score>
-8.70685485598028

> <r_i_glide_ligand_efficiency>
-0.580456990398685

> <r_i_glide_ligand_efficiency_sa>
-1.43153003705855

> <r_i_glide_ligand_efficiency_ln>
-2.3480951939087

> <r_i_glide_gscore>
-8.70685485598028

> <r_i_glide_lipo>
0

> <r_i_glide_hbond>
0

> <r_i_glide_metal>
-2.3

> <r_i_glide_rewards>
-1.81302122727273

> <r_i_glide_evdw>
-16.8080768585205

> <r_i_glide_ecoul>
-43.5455894470215

> <r_i_glide_erotb>
0.564199036176126

> <r_i_glide_esite>
-0.317628821957654

> <r_i_glide_emodel>
-108.89667870226

> <r_i_glide_energy>
-60.353666305542

> <r_i_glide_einternal>
16.1294841766357

> <i_i_glide_confnum>
12

> <i_i_glide_posenum>
268

> <r_i_glide_eff_state_penalty>
0

> <s_user_duplicate_titles>
CHEMBL1782_lig160,513232

> <i_f3d_flags>
0

> <s_m_subgroup_title>
dock_pv

> <s_m_subgroupid>
dock_pv

> <b_m_subgroup_collapsed>
1

$$$$
CHEMBL1782_lig168
                    3D
 Schrodinger Suite 2021-1.
 36 37  0  0  1  0            999 V2000
   13.7987   34.3412   -8.1361 C   0  0  0  0  0  0
   14.5258   35.5190   -8.3650 N   0  0  0  0  0  0
   15.9828   35.5764   -8.5477 C   0  0  0  0  0  0
   16.6727   36.9390   -7.5083 P   0  0  0  0  0  0
   16.4330   38.2850   -8.5281 O   0  0  0  0  0  0
   18.1010   36.5800   -7.1650 O   0  0  0  0  0  0
   15.6450   36.9800   -6.1455 O   0  0  0  0  0  0
   16.5837   35.4330  -10.3509 P   0  0  0  0  0  0
   16.3325   36.9800  -11.1081 O   0  0  0  0  0  0
   16.1010   34.2590  -11.1650 O   0  0  0  0  0  0
   18.2823   35.3793  -10.1062 O   0  0  0  0  0  0
   14.3885   33.1061   -7.8741 C   0  0  0  0  0  0
   13.5937   31.9744   -7.7085 C   0  0  0  0  0  0
   12.2068   32.1129   -7.8175 C   0  0  0  0  0  0
   11.6009   33.3036   -8.0380 N   0  0  0  0  0  0
   12.4002   34.3888   -8.1841 C   0  0  0  0  0  0
   14.2242   30.6853   -7.4040 C   0  0  0  0  0  0
   15.1486   30.6027   -6.3650 C   0  0  0  0  0  0
   15.7010   29.3801   -6.0299 C   0  0  0  0  0  0
   15.3753   28.2492   -6.7650 C   0  0  0  0  0  0
   14.5010   28.3336   -7.8240 C   0  0  0  0  0  0
   13.9081   29.5486   -8.1413 C   0  0  0  0  0  0
   14.0017   36.1920   -8.9247 H   0  0  0  0  0  0
   16.4019   34.7018   -8.0561 H   0  0  0  0  0  0
   17.0239   39.0692   -8.6142 H   0  0  0  0  0  0
   15.9579   37.3640   -5.3010 H   0  0  0  0  0  0
   17.1321   37.4857  -11.4248 H   0  0  0  0  0  0
   18.8721   36.0100  -10.5805 H   0  0  0  0  0  0
   15.4561   32.9812   -7.8074 H   0  0  0  0  0  0
   11.5572   31.2567   -7.6983 H   0  0  0  0  0  0
   11.8818   35.3174   -8.3650 H   0  0  0  0  0  0
   15.4154   31.4775   -5.7907 H   0  0  0  0  0  0
   16.3849   29.3049   -5.2010 H   0  0  0  0  0  0
   15.8100   27.2933   -6.5102 H   0  0  0  0  0  0
   14.2642   27.4374   -8.3650 H   0  0  0  0  0  0
   13.2028   29.6018   -8.9589 H   0  0  0  0  0  0
  1 12  2  0  0  0
  1  2  1  0  0  0
  1 16  1  0  0  0
  2  3  1  0  0  0
  2 23  1  0  0  0
  3  4  1  0  0  0
  3  8  1  0  0  0
  3 24  1  0  0  0
  4  6  2  0  0  0
  4  7  1  0  0  0
  4  5  1  0  0  0
  5 25  1  0  0  0
  7 26  1  0  0  0
  8  9  1  0  0  0
  8 10  2  0  0  0
  8 11  1  0  0  0
  9 27  1  0  0  0
 11 28  1  0  0  0
 12 13  1  0  0  0
 12 29  1  0  0  0
 13 14  2  0  0  0
 13 17  1  0  0  0
 14 15  1  0  0  0
 14 30  1  0  0  0
 15 16  2  0  0  0
 16 31  1  0  0  0
 17 18  2  0  0  0
 17 22  1  0  0  0
 18 19  1  0  0  0
 18 32  1  0  0  0
 19 20  2  0  0  0
 19 33  1  0  0  0
 20 21  1  0  0  0
 20 34  1  0  0  0
 21 22  2  0  0  0
 21 35  1  0  0  0
 22 36  1  0  0  0
M  END
> <s_m_entry_id>
3004

> <s_m_entry_name>
dock_pv.19

> <s_m_Source_Path>
/home/csk/Desktop/cluster/DUD-E-result/fpps

> <s_m_Source_File>
dock_pv.maegz

> <i_m_Source_File_Index>
19

> <chembl_id>
CHEMBL2048238

> <chembl_pref_name>
None

> <i_lp_mmshare_version>
53161

> <r_lp_tautomer_probability>
0.999999999999999

> <s_lp_Force_Field>
OPLS_2005

> <r_lp_Energy>
9.979988

> <b_lp_Chiralities_Consistent>
1

> <s_lp_Variant>
CHEMBL1782_lig168-1

> <s_i_glide_gridfile>
glide-grid_1zw5

> <i_i_glide_lignum>
191

> <i_i_glide_rotatable_bonds>
9

> <r_i_docking_score>
-8.63010201225246

> <r_i_glide_ligand_efficiency>
-0.392277364193293

> <r_i_glide_ligand_efficiency_sa>
-1.0991766018629

> <r_i_glide_ligand_efficiency_ln>
-2.10951172241394

> <r_i_glide_gscore>
-8.63010201225246

> <r_i_glide_lipo>
-0.864244288042141

> <r_i_glide_hbond>
-0.171224132289503

> <r_i_glide_metal>
-2.3

> <r_i_glide_rewards>
-1.06225275218364

> <r_i_glide_evdw>
-15.411714553833

> <r_i_glide_ecoul>
-46.985782623291

> <r_i_glide_erotb>
0.801223457352907

> <r_i_glide_esite>
-0.263018569398426

> <r_i_glide_emodel>
-115.489524082903

> <r_i_glide_energy>
-62.397497177124

> <r_i_glide_einternal>
22.021577835083

> <i_i_glide_confnum>
23

> <i_i_glide_posenum>
94

> <r_i_glide_eff_state_penalty>
0

> <s_user_duplicate_titles>
CHEMBL1782_lig168

> <i_f3d_flags>
0

> <s_m_subgroup_title>
dock_pv

> <s_m_subgroupid>
dock_pv

> <b_m_subgroup_collapsed>
1

$$$$
CHEMBL1782_lig181
                    3D
 Schrodinger Suite 2021-1.
 39 39  0  0  1  0            999 V2000
   16.0199   35.0546   -9.6124 C   0  0  0  0  0  0
   16.3722   33.6406   -9.3898 N   0  0  0  0  0  0
   15.4340   32.6839   -8.9833 C   0  0  0  0  0  0
   14.1439   33.0260   -8.5943 C   0  0  0  0  0  0
   13.2486   32.0280   -8.2071 C   0  0  0  0  0  0
   13.6719   30.6955   -8.2232 C   0  0  0  0  0  0
   14.9707   30.4203   -8.6600 C   0  0  0  0  0  0
   15.8415   31.3924   -9.0466 N   0  0  0  0  0  0
   11.8429   32.4221   -7.8786 C   0  0  0  0  0  0
   11.2839   33.1280   -8.8682 N   0  0  0  0  0  0
   11.3074   32.1800   -6.7979 O   0  0  0  0  0  0
    9.9994   33.7813   -8.8845 C   0  0  0  0  0  0
   17.2387   35.5798  -10.8978 P   0  0  0  0  0  0
   16.5010   36.9800  -11.5650 O   0  0  0  0  0  0
   18.5301   36.1262   -9.9188 O   0  0  0  0  0  0
   17.6487   34.5223  -11.8909 O   0  0  0  0  0  0
   16.0842   36.0652   -8.0210 P   0  0  0  0  0  0
   16.0205   37.6807   -8.5828 O   0  0  0  0  0  0
   14.5881   35.7803   -7.2361 O   0  0  0  0  0  0
   17.3010   35.7800   -7.1652 O   0  0  0  0  0  0
    9.7010   34.2454  -10.3153 C   0  0  0  0  0  0
    9.8617   34.9150   -7.8461 C   0  0  0  0  0  0
   15.0290   35.0805  -10.0602 H   0  0  0  0  0  0
   16.9222   33.2595  -10.1455 H   0  0  0  0  0  0
   13.8014   34.0430   -8.6376 H   0  0  0  0  0  0
   13.0025   29.8889   -7.9626 H   0  0  0  0  0  0
   15.3204   29.3994   -8.7253 H   0  0  0  0  0  0
   11.7456   33.0980   -9.7698 H   0  0  0  0  0  0
    9.3009   32.9820   -8.6467 H   0  0  0  0  0  0
   17.1080   37.5533  -12.1212 H   0  0  0  0  0  0
   19.0934   36.8580  -10.2664 H   0  0  0  0  0  0
   16.7139   38.1178   -9.1218 H   0  0  0  0  0  0
   13.8128   35.4094   -7.6998 H   0  0  0  0  0  0
    8.9005   34.9803  -10.3518 H   0  0  0  0  0  0
    9.4032   33.4095  -10.9497 H   0  0  0  0  0  0
   10.5731   34.7112  -10.7649 H   0  0  0  0  0  0
    8.9027   35.4237   -7.9483 H   0  0  0  0  0  0
    9.9071   34.5336   -6.8262 H   0  0  0  0  0  0
   10.6321   35.6746   -7.9745 H   0  0  0  0  0  0
  1  2  1  0  0  0
  1 13  1  0  0  0
  1 17  1  0  0  0
  1 23  1  0  0  0
  2  3  1  0  0  0
  2 24  1  0  0  0
  3  8  2  0  0  0
  3  4  1  0  0  0
  4  5  2  0  0  0
  4 25  1  0  0  0
  5  6  1  0  0  0
  5  9  1  0  0  0
  6  7  2  0  0  0
  6 26  1  0  0  0
  7  8  1  0  0  0
  7 27  1  0  0  0
  9 10  1  0  0  0
  9 11  2  0  0  0
 10 12  1  0  0  0
 10 28  1  0  0  0
 12 21  1  0  0  0
 12 22  1  0  0  0
 12 29  1  0  0  0
 13 14  1  0  0  0
 13 15  1  0  0  0
 13 16  2  0  0  0
 14 30  1  0  0  0
 15 31  1  0  0  0
 17 18  1  0  0  0
 17 19  1  0  0  0
 17 20  2  0  0  0
 18 32  1  0  0  0
 19 33  1  0  0  0
 21 34  1  0  0  0
 21 35  1  0  0  0
 21 36  1  0  0  0
 22 37  1  0  0  0
 22 38  1  0  0  0
 22 39  1  0  0  0
M  END
> <s_m_entry_id>
3005

> <s_m_entry_name>
dock_pv.20

> <s_m_Source_Path>
/home/csk/Desktop/cluster/DUD-E-result/fpps

> <s_m_Source_File>
dock_pv.maegz

> <i_m_Source_File_Index>
20

> <chembl_id>
CHEMBL2088344

> <chembl_pref_name>
None

> <i_lp_mmshare_version>
53161

> <r_lp_tautomer_probability>
0.999999772200052

> <s_lp_Force_Field>
OPLS_2005

> <r_lp_Energy>
-10.195749

> <b_lp_Chiralities_Consistent>
1

> <s_lp_Variant>
CHEMBL1782_lig181-1

> <s_i_glide_gridfile>
glide-grid_1zw5

> <i_i_glide_lignum>
205

> <i_i_glide_rotatable_bonds>
11

> <r_i_docking_score>
-8.62194731145687

> <r_i_glide_ligand_efficiency>
-0.391906695975312

> <r_i_glide_ligand_efficiency_sa>
-1.09813797493856

> <r_i_glide_ligand_efficiency_ln>
-2.10751841608956

> <r_i_glide_gscore>
-8.62194731145687

> <r_i_glide_lipo>
-0.209356465350049

> <r_i_glide_hbond>
-0.307473788263281

> <r_i_glide_metal>
-2.3

> <r_i_glide_rewards>
-1.00079290164573

> <r_i_glide_evdw>
-27.5170421600342

> <r_i_glide_ecoul>
-44.1439476013184

> <r_i_glide_erotb>
0.918321863486728

> <r_i_glide_esite>
-0.346793911682827

> <r_i_glide_emodel>
-113.971225669767

> <r_i_glide_energy>
-71.6609897613525

> <r_i_glide_einternal>
19.0221881866455

> <i_i_glide_confnum>
78

> <i_i_glide_posenum>
234

> <r_i_glide_eff_state_penalty>
0

> <s_user_duplicate_titles>
CHEMBL1782_lig181

> <i_f3d_flags>
0

> <s_m_subgroup_title>
dock_pv

> <s_m_subgroupid>
dock_pv

> <b_m_subgroup_collapsed>
1

$$$$
CHEMBL1782_lig71
                    3D
 Schrodinger Suite 2021-1.
 24 24  0  0  1  0            999 V2000
   16.6358   35.6097   -9.2017 C   0  0  0  0  0  0
   16.1540   37.4218   -9.0804 P   0  0  0  0  0  0
   17.9564   35.1875  -10.4346 P   0  0  0  0  0  0
   15.4295   34.8066   -9.4565 N   0  0  0  0  0  0
   15.3005   33.4416   -9.3789 C   0  0  0  0  0  0
   14.0938   32.8192   -9.5650 N   0  0  0  0  0  0
   16.2576   32.5780   -9.1350 N   0  0  0  0  0  0
   18.5010   33.7800  -10.3639 O   0  0  0  0  0  0
   15.7010   38.0744  -10.3650 O   0  0  0  0  0  0
   14.3288   31.4784   -9.4299 C   0  0  0  0  0  0
   15.6820   31.3878   -9.1649 C   0  0  0  0  0  0
   17.1698   35.5292  -11.9104 O   0  0  0  0  0  0
   14.9010   37.3133   -7.9650 O   0  0  0  0  0  0
   19.1159   36.3342   -9.9650 O   0  0  0  0  0  0
   17.4969   38.1756   -8.3650 O   0  0  0  0  0  0
   17.0137   35.3078   -8.2196 H   0  0  0  0  0  0
   13.2055   33.2538   -9.7777 H   0  0  0  0  0  0
   14.6269   35.3622   -9.7406 H   0  0  0  0  0  0
   13.5472   30.7376   -9.5256 H   0  0  0  0  0  0
   16.2288   30.4737   -8.9852 H   0  0  0  0  0  0
   16.4026   35.0300  -12.2413 H   0  0  0  0  0  0
   14.0575   36.9016   -8.2514 H   0  0  0  0  0  0
   19.3010   37.0838  -10.5927 H   0  0  0  0  0  0
   17.7168   39.0980   -8.6379 H   0  0  0  0  0  0
  1  2  1  0  0  0
  1  3  1  0  0  0
  1 16  1  0  0  0
  1  4  1  0  0  0
  2  9  2  0  0  0
  2 13  1  0  0  0
  2 15  1  0  0  0
  3  8  2  0  0  0
  3 12  1  0  0  0
  3 14  1  0  0  0
  4  5  1  0  0  0
  4 18  1  0  0  0
  5  7  2  0  0  0
  5  6  1  0  0  0
  6 17  1  0  0  0
  6 10  1  0  0  0
  7 11  1  0  0  0
 10 11  2  0  0  0
 10 19  1  0  0  0
 11 20  1  0  0  0
 12 21  1  0  0  0
 13 22  1  0  0  0
 14 23  1  0  0  0
 15 24  1  0  0  0
M  END
> <s_m_entry_id>
3006

> <s_m_entry_name>
dock_pv.21

> <s_m_Source_Path>
/home/csk/Desktop/cluster/DUD-E-result/fpps

> <s_m_Source_File>
dock_pv.maegz

> <i_m_Source_File_Index>
21

> <chembl_id>
CHEMBL100717

> <chembl_pref_name>
None

> <i_lp_mmshare_version>
53161

> <r_lp_tautomer_probability>
0.499999058373973

> <s_lp_Force_Field>
OPLS_2005

> <r_lp_Energy>
-11.259514

> <b_lp_Chiralities_Consistent>
1

> <s_lp_Variant>
CHEMBL1782_lig71-1

> <s_i_glide_gridfile>
glide-grid_1zw5

> <i_i_glide_lignum>
79

> <i_i_glide_rotatable_bonds>
8

> <r_i_docking_score>
-8.60679121152519

> <r_i_glide_ligand_efficiency>
-0.573786080768346

> <r_i_glide_ligand_efficiency_sa>
-1.41507815919629

> <r_i_glide_ligand_efficiency_ln>
-2.32110967887297

> <r_i_glide_gscore>
-8.60679121152519

> <r_i_glide_lipo>
0

> <r_i_glide_hbond>
-0.22058839261864

> <r_i_glide_metal>
-2.3

> <r_i_glide_rewards>
-1.65628416177348

> <r_i_glide_evdw>
-16.5548133850098

> <r_i_glide_ecoul>
-44.7075805664062

> <r_i_glide_erotb>
0.800679149800324

> <r_i_glide_esite>
-0.402857137682908

> <r_i_glide_emodel>
-116.212358328878

> <r_i_glide_energy>
-61.262393951416

> <r_i_glide_einternal>
11.1621551513672

> <i_i_glide_confnum>
3

> <i_i_glide_posenum>
398

> <r_i_glide_eff_state_penalty>
0

> <s_user_duplicate_titles>
CHEMBL1782_lig71

> <i_f3d_flags>
0

> <s_m_subgroup_title>
dock_pv

> <s_m_subgroupid>
dock_pv

> <b_m_subgroup_collapsed>
1

$$$$
CHEMBL1782_lig307
                    3D
 Schrodinger Suite 2021-1.
 28 28  0  0  1  0            999 V2000
   17.0902   35.3204   -9.2433 C   0  0  0  0  0  0
   16.8613   37.2084   -9.2339 P   0  0  0  0  0  0
   18.0481   34.7582  -10.7725 P   0  0  0  0  0  0
   15.7971   34.5638   -9.1632 N   0  0  0  0  0  0
   16.0227   37.7800  -10.3650 O   0  0  0  0  0  0
   18.5010   33.3205  -10.7650 O   0  0  0  0  0  0
   13.4760   32.8041   -7.6536 S   0  0  0  0  0  0
   17.0408   35.2177  -12.0738 O   0  0  0  0  0  0
   19.3843   35.7800  -10.7650 O   0  0  0  0  0  0
   16.2874   37.5268   -7.6573 O   0  0  0  0  0  0
   18.4729   37.7332   -9.1650 O   0  0  0  0  0  0
   15.9636   33.1155   -8.9032 C   0  0  0  0  0  0
   14.7337   35.1873   -8.3468 C   0  0  0  0  0  0
   13.3714   34.4715   -8.3278 C   0  0  0  0  0  0
   14.6840   32.2559   -8.8769 C   0  0  0  0  0  0
   17.7002   35.0444   -8.3650 H   0  0  0  0  0  0
   17.3254   35.8797  -12.7393 H   0  0  0  0  0  0
   19.4392   36.5285  -11.4154 H   0  0  0  0  0  0
   16.1009   38.4468   -7.3849 H   0  0  0  0  0  0
   19.0147   37.7800   -9.9859 H   0  0  0  0  0  0
   16.5858   32.6620   -9.6638 H   0  0  0  0  0  0
   16.5007   32.9825   -7.9650 H   0  0  0  0  0  0
   15.0976   35.3072   -7.3257 H   0  0  0  0  0  0
   14.5247   36.1897   -8.7113 H   0  0  0  0  0  0
   12.6529   35.0239   -7.7228 H   0  0  0  0  0  0
   12.9486   34.4010   -9.3313 H   0  0  0  0  0  0
   14.9270   31.2191   -8.6406 H   0  0  0  0  0  0
   14.1935   32.2506   -9.8519 H   0  0  0  0  0  0
  1  2  1  0  0  0
  1  3  1  0  0  0
  1  4  1  0  0  0
  1 16  1  0  0  0
  2  5  2  0  0  0
  2 10  1  0  0  0
  2 11  1  0  0  0
  3  6  2  0  0  0
  3  8  1  0  0  0
  3  9  1  0  0  0
  4 12  1  0  0  0
  4 13  1  0  0  0
  7 14  1  0  0  0
  7 15  1  0  0  0
  8 17  1  0  0  0
  9 18  1  0  0  0
 10 19  1  0  0  0
 11 20  1  0  0  0
 12 15  1  0  0  0
 12 21  1  0  0  0
 12 22  1  0  0  0
 13 14  1  0  0  0
 13 23  1  0  0  0
 13 24  1  0  0  0
 14 25  1  0  0  0
 14 26  1  0  0  0
 15 27  1  0  0  0
 15 28  1  0  0  0
M  END
> <s_m_entry_id>
3007

> <s_m_entry_name>
dock_pv.22

> <s_m_Source_Path>
/home/csk/Desktop/cluster/DUD-E-result/fpps

> <s_m_Source_File>
dock_pv.maegz

> <i_m_Source_File_Index>
22

> <chembl_id>
CHEMBL299563

> <chembl_pref_name>
THIOMORPHOLINOMETHYLENEDIPHOSPHONIC ACID

> <i_lp_mmshare_version>
53161

> <r_lp_tautomer_probability>
1

> <s_lp_Force_Field>
OPLS_2005

> <r_lp_Energy>
13.163079

> <b_lp_Chiralities_Consistent>
1

> <s_lp_Variant>
CHEMBL1782_lig307-1

> <s_i_glide_gridfile>
glide-grid_1zw5

> <i_i_glide_lignum>
353

> <i_i_glide_rotatable_bonds>
7

> <r_i_docking_score>
-8.59915320725868

> <r_i_glide_ligand_efficiency>
-0.573276880483912

> <r_i_glide_ligand_efficiency_sa>
-1.4138223633077

> <r_i_glide_ligand_efficiency_ln>
-2.31904983505957

> <r_i_glide_gscore>
-8.59915320725868

> <r_i_glide_lipo>
0

> <r_i_glide_hbond>
0

> <r_i_glide_metal>
-2.3

> <r_i_glide_rewards>
-1.51927268181818

> <r_i_glide_evdw>
-20.9717979431152

> <r_i_glide_ecoul>
-39.5011367797852

> <r_i_glide_erotb>
0.468709371715266

> <r_i_glide_esite>
-0.2

> <r_i_glide_emodel>
-108.033497775977

> <r_i_glide_energy>
-60.4729347229004

> <r_i_glide_einternal>
18.9117622375488

> <i_i_glide_confnum>
5

> <i_i_glide_posenum>
18

> <r_i_glide_eff_state_penalty>
0

> <s_user_duplicate_titles>
CHEMBL1782_lig307

> <i_f3d_flags>
0

> <s_m_subgroup_title>
dock_pv

> <s_m_subgroupid>
dock_pv

> <b_m_subgroup_collapsed>
1

$$$$
CHEMBL1782_lig164
                    3D
 Schrodinger Suite 2021-1.
 40 42  0  0  1  0            999 V2000
   16.2910   33.6228   -9.1793 C   0  0  0  0  0  0
   17.0052   32.9467  -10.1676 C   0  0  0  0  0  0
   18.1016   33.4675  -10.7653 N   0  0  0  0  0  0
   18.5013   34.7143  -10.3997 C   0  0  0  0  0  0
   17.9008   35.4494   -9.3711 C   0  0  0  0  0  0
   16.7835   34.8630   -8.7589 C   0  0  0  0  0  0
   18.4604   36.8434   -9.0180 C   0  0  0  0  0  0
   17.6171   37.7991   -8.1232 C   0  0  0  0  0  0
   17.5460   37.3170   -6.3150 P   0  0  0  0  0  0
   15.9496   38.1803   -8.8806 P   0  0  0  0  0  0
   18.2189   38.9798   -7.9651 F   0  0  0  0  0  0
   14.9012   37.2390   -8.3648 O   0  0  0  0  0  0
   15.6997   39.7711   -8.3650 O   0  0  0  0  0  0
   16.1041   38.1639  -10.6242 O   0  0  0  0  0  0
   18.5009   36.1961   -5.9645 O   0  0  0  0  0  0
   17.7607   38.7799   -5.4563 O   0  0  0  0  0  0
   15.9101   36.8444   -6.1598 O   0  0  0  0  0  0
   15.0150   33.0774   -8.6645 C   0  0  0  0  0  0
   13.8839   33.9045   -8.6270 C   0  0  0  0  0  0
   13.7032   31.1650   -7.8787 C   0  0  0  0  0  0
   14.9095   31.7338   -8.2871 C   0  0  0  0  0  0
   12.5862   32.0034   -7.8785 C   0  0  0  0  0  0
   12.6530   33.3638   -8.2454 C   0  0  0  0  0  0
   11.3112   33.8329   -8.1167 C   0  0  0  0  0  0
   10.5076   32.8834   -7.7078 N   0  0  0  0  0  0
   11.2687   31.7799   -7.5650 N   0  0  0  0  0  0
   16.6640   31.9833  -10.5277 H   0  0  0  0  0  0
   19.3352   35.1287  -10.9550 H   0  0  0  0  0  0
   16.2459   35.3481   -7.9676 H   0  0  0  0  0  0
   18.6092   37.3591   -9.9638 H   0  0  0  0  0  0
   19.4730   36.7533   -8.6219 H   0  0  0  0  0  0
   16.4544   40.3979   -8.3180 H   0  0  0  0  0  0
   16.9876   38.3741  -11.0286 H   0  0  0  0  0  0
   18.5215   39.3832   -5.5842 H   0  0  0  0  0  0
   15.3021   36.9214   -6.9391 H   0  0  0  0  0  0
   13.9406   34.9385   -8.9325 H   0  0  0  0  0  0
   13.6340   30.1215   -7.6021 H   0  0  0  0  0  0
   15.7830   31.0968   -8.3160 H   0  0  0  0  0  0
   10.9418   34.8272   -8.3251 H   0  0  0  0  0  0
   10.8882   30.8999   -7.2414 H   0  0  0  0  0  0
  1  2  2  0  0  0
  1 18  1  0  0  0
  1  6  1  0  0  0
  2  3  1  0  0  0
  2 27  1  0  0  0
  3  4  2  0  0  0
  4  5  1  0  0  0
  4 28  1  0  0  0
  5  6  2  0  0  0
  5  7  1  0  0  0
  6 29  1  0  0  0
  7  8  1  0  0  0
  7 30  1  0  0  0
  7 31  1  0  0  0
  8  9  1  0  0  0
  8 10  1  0  0  0
  8 11  1  0  0  0
  9 15  2  0  0  0
  9 16  1  0  0  0
  9 17  1  0  0  0
 10 12  2  0  0  0
 10 13  1  0  0  0
 10 14  1  0  0  0
 13 32  1  0  0  0
 14 33  1  0  0  0
 16 34  1  0  0  0
 17 35  1  0  0  0
 18 19  2  0  0  0
 18 21  1  0  0  0
 19 23  1  0  0  0
 19 36  1  0  0  0
 20 22  1  0  0  0
 20 21  2  0  0  0
 20 37  1  0  0  0
 21 38  1  0  0  0
 22 23  2  0  0  0
 22 26  1  0  0  0
 23 24  1  0  0  0
 24 25  2  0  0  0
 24 39  1  0  0  0
 25 26  1  0  0  0
 26 40  1  0  0  0
M  END
> <s_m_entry_id>
3008

> <s_m_entry_name>
dock_pv.23

> <s_m_Source_Path>
/home/csk/Desktop/cluster/DUD-E-result/fpps

> <s_m_Source_File>
dock_pv.maegz

> <i_m_Source_File_Index>
23

> <chembl_id>
CHEMBL1258421

> <chembl_pref_name>
None

> <i_lp_mmshare_version>
53161

> <r_lp_tautomer_probability>
0.980392156862745

> <s_lp_Force_Field>
OPLS_2005

> <r_lp_Energy>
8.654918

> <b_lp_Chiralities_Consistent>
1

> <s_lp_Variant>
CHEMBL1782_lig164-1

> <s_i_glide_gridfile>
glide-grid_1zw5

> <i_i_glide_lignum>
186

> <i_i_glide_rotatable_bonds>
9

> <r_i_docking_score>
-8.59613293020867

> <r_i_glide_ligand_efficiency>
-0.330620497315718

> <r_i_glide_ligand_efficiency_sa>
-0.979461922368977

> <r_i_glide_ligand_efficiency_ln>
-2.01877361244676

> <r_i_glide_gscore>
-8.59613293020867

> <r_i_glide_lipo>
0

> <r_i_glide_hbond>
-0.417454924220109

> <r_i_glide_metal>
-2.3

> <r_i_glide_rewards>
-0.823476934090909

> <r_i_glide_evdw>
-26.0838928222656

> <r_i_glide_ecoul>
-41.1143379211426

> <r_i_glide_erotb>
0.609141978852846

> <r_i_glide_esite>
-0.360148409637212

> <r_i_glide_emodel>
-111.832639067837

> <r_i_glide_energy>
-67.1982307434082

> <r_i_glide_einternal>
16.5913562774658

> <i_i_glide_confnum>
185

> <i_i_glide_posenum>
371

> <r_i_glide_eff_state_penalty>
0

> <s_user_duplicate_titles>
CHEMBL1782_lig164,CHEMBL1782_lig164

> <i_f3d_flags>
0

> <s_m_subgroup_title>
dock_pv

> <s_m_subgroupid>
dock_pv

> <b_m_subgroup_collapsed>
1

$$$$
CHEMBL1782_lig103
                    3D
 Schrodinger Suite 2021-1.
 26 26  0  0  1  0            999 V2000
   14.3508   30.8585   -8.7139 C   0  0  0  0  0  0
   15.6555   31.3266   -8.5726 C   0  0  0  0  0  0
   15.9845   32.6399   -8.7024 N   0  0  0  0  0  0
   15.0045   33.5255   -9.0149 C   0  0  0  0  0  0
   13.6746   33.1277   -9.1645 C   0  0  0  0  0  0
   13.3466   31.7801   -9.0042 C   0  0  0  0  0  0
   15.3010   34.8809   -9.2260 N   0  0  0  0  0  0
   16.6199   35.5251   -9.1749 C   0  0  0  0  0  0
   16.3070   37.3616   -9.3238 P   0  0  0  0  0  0
   17.7367   34.8411  -10.5159 P   0  0  0  0  0  0
   16.9324   35.2636  -11.9649 O   0  0  0  0  0  0
   19.0882   35.8586  -10.3650 O   0  0  0  0  0  0
   18.1010   33.3800  -10.3650 O   0  0  0  0  0  0
   14.9010   37.6032   -8.3687 O   0  0  0  0  0  0
   16.1010   37.7800  -10.7650 O   0  0  0  0  0  0
   17.6755   38.0447   -8.5879 O   0  0  0  0  0  0
   14.1197   29.8073   -8.6077 H   0  0  0  0  0  0
   16.4593   30.6379   -8.3500 H   0  0  0  0  0  0
   12.9010   33.8378   -9.4203 H   0  0  0  0  0  0
   12.3263   31.4467   -9.1288 H   0  0  0  0  0  0
   14.5264   35.4427   -9.5659 H   0  0  0  0  0  0
   17.0727   35.3084   -8.1990 H   0  0  0  0  0  0
   17.3097   35.9234  -12.5864 H   0  0  0  0  0  0
   19.2178   36.6526  -10.9564 H   0  0  0  0  0  0
   14.0172   37.2904   -8.6724 H   0  0  0  0  0  0
   17.9750   38.9346   -8.8885 H   0  0  0  0  0  0
  1  6  1  0  0  0
  1  2  2  0  0  0
  1 17  1  0  0  0
  2  3  1  0  0  0
  2 18  1  0  0  0
  3  4  2  0  0  0
  4  5  1  0  0  0
  4  7  1  0  0  0
  5  6  2  0  0  0
  5 19  1  0  0  0
  6 20  1  0  0  0
  7  8  1  0  0  0
  7 21  1  0  0  0
  8  9  1  0  0  0
  8 10  1  0  0  0
  8 22  1  0  0  0
  9 14  1  0  0  0
  9 15  2  0  0  0
  9 16  1  0  0  0
 10 11  1  0  0  0
 10 12  1  0  0  0
 10 13  2  0  0  0
 11 23  1  0  0  0
 12 24  1  0  0  0
 14 25  1  0  0  0
 16 26  1  0  0  0
M  END
> <s_m_entry_id>
3009

> <s_m_entry_name>
dock_pv.24

> <s_m_Source_Path>
/home/csk/Desktop/cluster/DUD-E-result/fpps

> <s_m_Source_File>
dock_pv.maegz

> <i_m_Source_File_Index>
24

> <chembl_id>
CHEMBL291736

> <chembl_pref_name>
None

> <i_lp_mmshare_version>
53161

> <r_lp_tautomer_probability>
0.999999772200052

> <s_lp_Force_Field>
OPLS_2005

> <r_lp_Energy>
-8.09121

> <b_lp_Chiralities_Consistent>
1

> <s_lp_Variant>
CHEMBL1782_lig103-1

> <s_i_glide_gridfile>
glide-grid_1zw5

> <i_i_glide_lignum>
114

> <i_i_glide_rotatable_bonds>
8

> <r_i_docking_score>
-8.58686390830226

> <r_i_glide_ligand_efficiency>
-0.536678994268891

> <r_i_glide_ligand_efficiency_sa>
-1.35234632258174

> <r_i_glide_ligand_efficiency_ln>
-2.27611980539566

> <r_i_glide_gscore>
-8.58686390830226

> <r_i_glide_lipo>
0

> <r_i_glide_hbond>
-0.16

> <r_i_glide_metal>
-2.3

> <r_i_glide_rewards>
-1.58113008605267

> <r_i_glide_evdw>
-15.9632596969604

> <r_i_glide_ecoul>
-50.1732940673828

> <r_i_glide_erotb>
0.521338948808129

> <r_i_glide_esite>
-0.268909786209702

> <r_i_glide_emodel>
-119.528758545144

> <r_i_glide_energy>
-66.1365537643433

> <r_i_glide_einternal>
16.4813346862793

> <i_i_glide_confnum>
13

> <i_i_glide_posenum>
20

> <r_i_glide_eff_state_penalty>
0

> <s_user_duplicate_titles>
CHEMBL1782_lig103,83936

> <i_f3d_flags>
0

> <s_m_subgroup_title>
dock_pv

> <s_m_subgroupid>
dock_pv

> <b_m_subgroup_collapsed>
1

$$$$
CHEMBL1782_lig264
                    3D
 Schrodinger Suite 2021-1.
 38 40  0  0  1  0            999 V2000
   16.7845   35.3866  -10.9420 P   0  0  0  0  0  0
   18.1999   34.9305  -10.6482 O   0  0  0  0  0  0
   16.1010   34.7942  -12.3650 O   0  0  0  0  0  0
   15.9214   35.9840   -8.0541 P   0  0  0  0  0  0
   15.6838   37.5934   -8.5711 O   0  0  0  0  0  0
   17.3010   35.7800   -7.4573 O   0  0  0  0  0  0
   12.7756   31.5850   -7.0598 N   0  0  0  0  0  0
   12.6818   32.8661   -7.4927 C   0  0  0  0  0  0
   13.5955   33.5078   -8.2538 N   0  0  0  0  0  0
   14.6823   32.8168   -8.6871 C   0  0  0  0  0  0
   15.7219   33.5115   -9.3340 N   0  0  0  0  0  0
   15.5815   34.9467   -9.6117 C   0  0  0  0  0  0
   16.5010   37.0753  -11.1650 O   0  0  0  0  0  0
   14.6367   35.6260   -6.9840 O   0  0  0  0  0  0
   13.7948   30.8931   -7.5752 C   0  0  0  0  0  0
   14.7741   31.4304   -8.4597 C   0  0  0  0  0  0
   15.6506   30.4233   -8.9494 C   0  0  0  0  0  0
   15.3010   29.1797   -8.4646 C   0  0  0  0  0  0
   14.1010   29.2074   -7.2165 S   0  0  0  0  0  0
   11.4816   33.6570   -7.0996 C   0  0  0  0  0  0
   10.8960   33.4962   -5.8410 C   0  0  0  0  0  0
    9.8196   34.2888   -5.4479 C   0  0  0  0  0  0
    9.3010   35.2317   -6.3290 C   0  0  0  0  0  0
    9.8448   35.3800   -7.5996 C   0  0  0  0  0  0
   10.9262   34.5924   -7.9812 C   0  0  0  0  0  0
   15.9399   35.3750  -13.1411 H   0  0  0  0  0  0
   16.2737   38.0511   -9.2043 H   0  0  0  0  0  0
   16.3670   32.9692   -9.8873 H   0  0  0  0  0  0
   14.5677   34.9800   -9.9953 H   0  0  0  0  0  0
   17.2877   37.6107  -11.4806 H   0  0  0  0  0  0
   13.9748   34.9423   -7.2228 H   0  0  0  0  0  0
   16.4385   30.5800   -9.6693 H   0  0  0  0  0  0
   15.7011   28.2160   -8.7358 H   0  0  0  0  0  0
   11.3010   32.7614   -5.1650 H   0  0  0  0  0  0
    9.3907   34.1800   -4.4635 H   0  0  0  0  0  0
    8.4642   35.8452   -6.0329 H   0  0  0  0  0  0
    9.4379   36.1037   -8.2902 H   0  0  0  0  0  0
   11.3413   34.7244   -8.9709 H   0  0  0  0  0  0
  1  2  2  0  0  0
  1  3  1  0  0  0
  1 12  1  0  0  0
  1 13  1  0  0  0
  3 26  1  0  0  0
  4  5  1  0  0  0
  4  6  2  0  0  0
  4 12  1  0  0  0
  4 14  1  0  0  0
  5 27  1  0  0  0
  7  8  2  0  0  0
  7 15  1  0  0  0
  8  9  1  0  0  0
  8 20  1  0  0  0
  9 10  2  0  0  0
 10 16  1  0  0  0
 10 11  1  0  0  0
 11 12  1  0  0  0
 11 28  1  0  0  0
 12 29  1  0  0  0
 13 30  1  0  0  0
 14 31  1  0  0  0
 15 16  2  0  0  0
 15 19  1  0  0  0
 16 17  1  0  0  0
 17 18  2  0  0  0
 17 32  1  0  0  0
 18 19  1  0  0  0
 18 33  1  0  0  0
 20 21  2  0  0  0
 20 25  1  0  0  0
 21 22  1  0  0  0
 21 34  1  0  0  0
 22 23  2  0  0  0
 22 35  1  0  0  0
 23 24  1  0  0  0
 23 36  1  0  0  0
 24 25  2  0  0  0
 24 37  1  0  0  0
 25 38  1  0  0  0
M  END
> <s_m_entry_id>
3010

> <s_m_entry_name>
dock_pv.25

> <s_m_Source_Path>
/home/csk/Desktop/cluster/DUD-E-result/fpps

> <s_m_Source_File>
dock_pv.maegz

> <i_m_Source_File_Index>
25

> <chembl_id>
CHEMBL2347859

> <chembl_pref_name>
None

> <i_lp_mmshare_version>
53161

> <r_lp_tautomer_probability>
1

> <s_lp_Force_Field>
OPLS_2005

> <r_lp_Energy>
1.749156

> <b_lp_Chiralities_Consistent>
1

> <s_lp_Variant>
CHEMBL1782_lig264-1

> <s_i_glide_gridfile>
glide-grid_1zw5

> <i_i_glide_lignum>
305

> <i_i_glide_rotatable_bonds>
9

> <r_i_docking_score>
-8.56811396573092

> <r_i_glide_ligand_efficiency>
-0.342724558629237

> <r_i_glide_ligand_efficiency_sa>
-1.00213268767782

> <r_i_glide_ligand_efficiency_ln>
-2.03089977553406

> <r_i_glide_gscore>
-8.56811396573092

> <r_i_glide_lipo>
-0.270705473029869

> <r_i_glide_hbond>
0

> <r_i_glide_metal>
-2.3

> <r_i_glide_rewards>
-0.673143136363636

> <r_i_glide_evdw>
-32.1723251342773

> <r_i_glide_ecoul>
-33.3486366271973

> <r_i_glide_erotb>
0.609008175956701

> <r_i_glide_esite>
-0.324657275580245

> <r_i_glide_emodel>
-110.948799567914

> <r_i_glide_energy>
-65.5209617614746

> <r_i_glide_einternal>
16.2635059356689

> <i_i_glide_confnum>
9

> <i_i_glide_posenum>
131

> <r_i_glide_eff_state_penalty>
0

> <s_user_duplicate_titles>
CHEMBL1782_lig264

> <i_f3d_flags>
0

> <s_m_subgroup_title>
dock_pv

> <s_m_subgroupid>
dock_pv

> <b_m_subgroup_collapsed>
1

$$$$
CHEMBL1782_lig147
                    3D
 Schrodinger Suite 2021-1.
 31 31  0  0  1  0            999 V2000
   14.6133   31.6460   -7.1043 C   0  0  0  0  0  0
   14.9261   30.5730   -7.9362 C   0  0  0  0  0  0
   15.3009   30.8067   -9.2561 C   0  0  0  0  0  0
   15.3638   32.1122   -9.7416 C   0  0  0  0  0  0
   15.0534   33.2009   -8.9194 C   0  0  0  0  0  0
   14.6666   32.9551   -7.5875 C   0  0  0  0  0  0
   15.1207   34.6239   -9.4992 C   0  0  0  0  0  0
   16.4474   35.4148   -9.2741 C   0  0  0  0  0  0
   17.7535   34.8458  -10.4662 P   0  0  0  0  0  0
   17.1532   35.3534  -11.9800 O   0  0  0  0  0  0
   19.0507   35.8526  -10.0265 O   0  0  0  0  0  0
   18.1010   33.3800  -10.3650 O   0  0  0  0  0  0
   16.2568   37.2709   -9.3486 P   0  0  0  0  0  0
   16.9010   35.1330   -7.9650 O   0  0  0  0  0  0
   14.9010   37.5432   -8.3653 O   0  0  0  0  0  0
   16.1010   37.7800  -10.7650 O   0  0  0  0  0  0
   17.6372   37.8458   -8.5323 O   0  0  0  0  0  0
   14.3035   33.9918   -6.7244 N   0  0  0  0  0  0
   14.3149   31.4450   -6.0864 H   0  0  0  0  0  0
   14.8718   29.5609   -7.5608 H   0  0  0  0  0  0
   15.5396   29.9721   -9.9007 H   0  0  0  0  0  0
   15.6602   32.2758  -10.7650 H   0  0  0  0  0  0
   14.2776   35.1610   -9.0732 H   0  0  0  0  0  0
   14.9010   34.5801  -10.5655 H   0  0  0  0  0  0
   17.5911   36.0755  -12.4843 H   0  0  0  0  0  0
   19.3010   36.6300  -10.5857 H   0  0  0  0  0  0
   16.1100   35.0918   -7.4045 H   0  0  0  0  0  0
   14.0033   37.2859   -8.6824 H   0  0  0  0  0  0
   17.9827   38.7439   -8.7359 H   0  0  0  0  0  0
   13.9675   33.6322   -5.8420 H   0  0  0  0  0  0
   13.7174   34.6819   -7.1702 H   0  0  0  0  0  0
  1  6  1  0  0  0
  1  2  2  0  0  0
  1 19  1  0  0  0
  2  3  1  0  0  0
  2 20  1  0  0  0
  3  4  2  0  0  0
  3 21  1  0  0  0
  4  5  1  0  0  0
  4 22  1  0  0  0
  5  6  2  0  0  0
  5  7  1  0  0  0
  6 18  1  0  0  0
  7  8  1  0  0  0
  7 23  1  0  0  0
  7 24  1  0  0  0
  8  9  1  0  0  0
  8 13  1  0  0  0
  8 14  1  0  0  0
  9 10  1  0  0  0
  9 11  1  0  0  0
  9 12  2  0  0  0
 10 25  1  0  0  0
 11 26  1  0  0  0
 13 15  1  0  0  0
 13 16  2  0  0  0
 13 17  1  0  0  0
 14 27  1  0  0  0
 15 28  1  0  0  0
 17 29  1  0  0  0
 18 30  1  0  0  0
 18 31  1  0  0  0
M  END
> <s_m_entry_id>
3011

> <s_m_entry_name>
dock_pv.26

> <s_m_Source_Path>
/home/csk/Desktop/cluster/DUD-E-result/fpps

> <s_m_Source_File>
dock_pv.maegz

> <i_m_Source_File_Index>
26

> <chembl_id>
CHEMBL414849

> <chembl_pref_name>
None

> <i_lp_mmshare_version>
53161

> <r_lp_tautomer_probability>
1

> <s_lp_Force_Field>
OPLS_2005

> <r_lp_Energy>
5.862285

> <b_lp_Chiralities_Consistent>
1

> <s_lp_Variant>
CHEMBL1782_lig147-1

> <s_i_glide_gridfile>
glide-grid_1zw5

> <i_i_glide_lignum>
165

> <i_i_glide_rotatable_bonds>
9

> <r_i_docking_score>
-8.56012085795459

> <r_i_glide_ligand_efficiency>
-0.475562269886366

> <r_i_glide_ligand_efficiency_sa>
-1.24632572501436

> <r_i_glide_ligand_efficiency_ln>
-2.20033492701061

> <r_i_glide_gscore>
-8.56012085795459

> <r_i_glide_lipo>
-0.0717817593314543

> <r_i_glide_hbond>
0

> <r_i_glide_metal>
-2.3

> <r_i_glide_rewards>
-1.53314427272727

> <r_i_glide_evdw>
-19.284854888916

> <r_i_glide_ecoul>
-50.7148551940918

> <r_i_glide_erotb>
0.581329455915194

> <r_i_glide_esite>
-0.272281537365258

> <r_i_glide_emodel>
-121.967141595961

> <r_i_glide_energy>
-69.9997100830078

> <r_i_glide_einternal>
21.5338649749756

> <i_i_glide_confnum>
56

> <i_i_glide_posenum>
389

> <r_i_glide_eff_state_penalty>
0

> <s_user_duplicate_titles>
CHEMBL1782_lig147,329222

> <i_f3d_flags>
0

> <s_m_subgroup_title>
dock_pv

> <s_m_subgroupid>
dock_pv

> <b_m_subgroup_collapsed>
1

$$$$
CHEMBL1782_lig100
                    3D
 Schrodinger Suite 2021-1.
 26 26  0  0  1  0            999 V2000
   16.2521   35.4856   -9.5649 C   0  0  0  0  0  0
   17.8194   34.8788  -10.3428 P   0  0  0  0  0  0
   16.2285   37.3536   -9.4120 P   0  0  0  0  0  0
   16.0032   34.8473   -8.2649 N   0  0  0  0  0  0
   14.2509   31.9681   -6.7663 N   0  0  0  0  0  0
   18.1010   33.3800  -10.3650 O   0  0  0  0  0  0
   16.1010   38.0172  -10.7650 O   0  0  0  0  0  0
   14.9010   37.6062   -8.3985 O   0  0  0  0  0  0
   17.6242   37.7793   -8.5339 O   0  0  0  0  0  0
   17.7010   35.6424  -11.8630 O   0  0  0  0  0  0
   18.9010   35.7155   -9.3087 O   0  0  0  0  0  0
   15.3333   33.6052   -8.2001 C   0  0  0  0  0  0
   14.9010   33.1449   -6.9516 C   0  0  0  0  0  0
   14.0057   31.2012   -7.8574 C   0  0  0  0  0  0
   15.0711   32.7840   -9.3119 C   0  0  0  0  0  0
   14.3986   31.5709   -9.1432 C   0  0  0  0  0  0
   15.4173   35.2242  -10.2159 H   0  0  0  0  0  0
   15.7040   35.4951   -7.5472 H   0  0  0  0  0  0
   13.9960   37.3718   -8.7179 H   0  0  0  0  0  0
   18.0021   38.6801   -8.6501 H   0  0  0  0  0  0
   18.1306   36.5209  -12.0669 H   0  0  0  0  0  0
   19.3913   36.5052   -9.6387 H   0  0  0  0  0  0
   15.0871   33.7081   -6.0520 H   0  0  0  0  0  0
   13.4793   30.2716   -7.6865 H   0  0  0  0  0  0
   15.3702   33.0637  -10.3095 H   0  0  0  0  0  0
   14.1788   30.9310   -9.9862 H   0  0  0  0  0  0
  1  2  1  0  0  0
  1  3  1  0  0  0
  1  4  1  0  0  0
  1 17  1  0  0  0
  2  6  2  0  0  0
  2 10  1  0  0  0
  2 11  1  0  0  0
  3  7  2  0  0  0
  3  8  1  0  0  0
  3  9  1  0  0  0
  4 12  1  0  0  0
  4 18  1  0  0  0
  5 13  2  0  0  0
  5 14  1  0  0  0
  8 19  1  0  0  0
  9 20  1  0  0  0
 10 21  1  0  0  0
 11 22  1  0  0  0
 12 13  1  0  0  0
 12 15  2  0  0  0
 13 23  1  0  0  0
 14 16  2  0  0  0
 14 24  1  0  0  0
 15 16  1  0  0  0
 15 25  1  0  0  0
 16 26  1  0  0  0
M  END
> <s_m_entry_id>
3012

> <s_m_entry_name>
dock_pv.27

> <s_m_Source_Path>
/home/csk/Desktop/cluster/DUD-E-result/fpps

> <s_m_Source_File>
dock_pv.maegz

> <i_m_Source_File_Index>
27

> <chembl_id>
CHEMBL301065

> <chembl_pref_name>
None

> <i_lp_mmshare_version>
53161

> <r_lp_tautomer_probability>
0.999999999999999

> <s_lp_Force_Field>
OPLS_2005

> <r_lp_Energy>
2.318007

> <b_lp_Chiralities_Consistent>
1

> <s_lp_Variant>
CHEMBL1782_lig100-1

> <s_i_glide_gridfile>
glide-grid_1zw5

> <i_i_glide_lignum>
111

> <i_i_glide_rotatable_bonds>
8

> <r_i_docking_score>
-8.55602647292231

> <r_i_glide_ligand_efficiency>
-0.534751654557644

> <r_i_glide_ligand_efficiency_sa>
-1.34748973084123

> <r_i_glide_ligand_efficiency_ln>
-2.26794572715645

> <r_i_glide_gscore>
-8.55602647292231

> <r_i_glide_lipo>
0

> <r_i_glide_hbond>
0

> <r_i_glide_metal>
-2.3

> <r_i_glide_rewards>
-1.73099710889474

> <r_i_glide_evdw>
-14.9273662567139

> <r_i_glide_ecoul>
-49.9471702575684

> <r_i_glide_erotb>
0.521338948808129

> <r_i_glide_esite>
-0.3

> <r_i_glide_emodel>
-111.054130890049

> <r_i_glide_energy>
-64.8745365142822

> <r_i_glide_einternal>
16.2299861907959

> <i_i_glide_confnum>
19

> <i_i_glide_posenum>
27

> <r_i_glide_eff_state_penalty>
0

> <s_user_duplicate_titles>
CHEMBL1782_lig100,83837

> <i_f3d_flags>
0

> <s_m_subgroup_title>
dock_pv

> <s_m_subgroupid>
dock_pv

> <b_m_subgroup_collapsed>
1

$$$$
CHEMBL1782_lig183
                    3D
 Schrodinger Suite 2021-1.
 33 33  0  0  1  0            999 V2000
   14.7363   32.8997   -7.7087 C   0  0  0  0  0  0
   14.8131   31.5168   -7.7573 N   0  0  0  0  0  0
   15.2470   31.1803   -9.0320 C   0  0  0  0  0  0
   15.4016   32.3576   -9.7486 C   0  0  0  0  0  0
   15.1024   33.4341   -8.9335 N   0  3  0  0  0  0
   14.5267   30.6062   -6.6463 C   0  0  0  0  0  0
   15.1383   34.8552   -9.3250 C   0  0  0  0  0  0
   16.5108   35.5639   -9.1406 C   0  0  0  0  0  0
   17.8056   34.8747  -10.3606 P   0  0  0  0  0  0
   18.1008   33.3801  -10.3479 O   0  0  0  0  0  0
   17.2470   35.4581  -11.8595 O   0  0  0  0  0  0
   19.1652   35.7801   -9.8946 O   0  0  0  0  0  0
   16.9011   35.3408   -7.7951 O   0  0  0  0  0  0
   16.3305   37.4367   -9.1231 P   0  0  0  0  0  0
   17.9090   37.9531   -8.7614 O   0  0  0  0  0  0
   15.3008   37.9732   -8.1682 O   0  0  0  0  0  0
   16.1012   37.8392  -10.7650 O   0  0  0  0  0  0
   14.1411   29.1857   -7.1081 C   0  0  0  0  0  0
   14.4245   33.4650   -6.8443 H   0  0  0  0  0  0
   15.3906   30.1457   -9.3178 H   0  0  0  0  0  0
   15.7024   32.5274  -10.7643 H   0  0  0  0  0  0
   15.4045   30.5713   -5.9981 H   0  0  0  0  0  0
   13.7034   31.0264   -6.0657 H   0  0  0  0  0  0
   14.3491   35.3661   -8.7650 H   0  0  0  0  0  0
   14.8760   34.9094  -10.3778 H   0  0  0  0  0  0
   17.7589   36.1246  -12.3708 H   0  0  0  0  0  0
   19.5147   36.5169  -10.4478 H   0  0  0  0  0  0
   16.1784   35.6576   -7.2361 H   0  0  0  0  0  0
   18.1579   38.8981   -8.8817 H   0  0  0  0  0  0
   13.8343   28.5717   -6.2608 H   0  0  0  0  0  0
   13.3023   29.2049   -7.8064 H   0  0  0  0  0  0
   14.9717   28.6676   -7.5891 H   0  0  0  0  0  0
   16.8682   38.3000  -11.2092 H   0  0  0  0  0  0
  1  2  1  0  0  0
  1  5  2  0  0  0
  1 19  1  0  0  0
  2  3  1  0  0  0
  2  6  1  0  0  0
  3  4  2  0  0  0
  3 20  1  0  0  0
  4  5  1  0  0  0
  4 21  1  0  0  0
  5  7  1  0  0  0
  6 18  1  0  0  0
  6 22  1  0  0  0
  6 23  1  0  0  0
  7  8  1  0  0  0
  7 24  1  0  0  0
  7 25  1  0  0  0
  8  9  1  0  0  0
  8 13  1  0  0  0
  8 14  1  0  0  0
  9 10  2  0  0  0
  9 11  1  0  0  0
  9 12  1  0  0  0
 11 26  1  0  0  0
 12 27  1  0  0  0
 13 28  1  0  0  0
 14 15  1  0  0  0
 14 16  2  0  0  0
 14 17  1  0  0  0
 15 29  1  0  0  0
 17 33  1  0  0  0
 18 30  1  0  0  0
 18 31  1  0  0  0
 18 32  1  0  0  0
M  CHG  1   5   1
M  END
> <s_m_entry_id>
3013

> <s_m_entry_name>
dock_pv.28

> <s_m_Source_Path>
/home/csk/Desktop/cluster/DUD-E-result/fpps

> <s_m_Source_File>
dock_pv.maegz

> <i_m_Source_File_Index>
28

> <chembl_id>
CHEMBL2338354

> <chembl_pref_name>
None

> <i_lp_mmshare_version>
53161

> <r_lp_tautomer_probability>
1

> <s_lp_Force_Field>
OPLS_2005

> <r_lp_Energy>
1.154096

> <b_lp_Chiralities_Consistent>
1

> <s_lp_Variant>
CHEMBL1782_lig183-1

> <s_i_glide_gridfile>
glide-grid_1zw5

> <i_i_glide_lignum>
207

> <i_i_glide_rotatable_bonds>
10

> <r_i_docking_score>
-8.54091067529774

> <r_i_glide_ligand_efficiency>
-0.474495037516541

> <r_i_glide_ligand_efficiency_sa>
-1.24352878496822

> <r_i_glide_ligand_efficiency_ln>
-2.19539704861432

> <r_i_glide_gscore>
-8.54091067529774

> <r_i_glide_lipo>
-0.347180805602569

> <r_i_glide_hbond>
0

> <r_i_glide_metal>
-2.3

> <r_i_glide_rewards>
-1.20579054545455

> <r_i_glide_evdw>
-22.93239402771

> <r_i_glide_ecoul>
-43.9562187194824

> <r_i_glide_erotb>
0.811212424789684

> <r_i_glide_esite>
-0.352532047644808

> <r_i_glide_emodel>
-104.146504404845

> <r_i_glide_energy>
-66.8886127471924

> <r_i_glide_einternal>
27.449592590332

> <i_i_glide_confnum>
64

> <i_i_glide_posenum>
265

> <r_i_glide_eff_state_penalty>
0

> <s_user_duplicate_titles>
CHEMBL1782_lig183

> <i_f3d_flags>
0

> <s_m_subgroup_title>
dock_pv

> <s_m_subgroupid>
dock_pv

> <b_m_subgroup_collapsed>
1

$$$$
CHEMBL1782_lig63
                    3D
 Schrodinger Suite 2021-1.
 24 24  0  0  1  0            999 V2000
   16.5501   35.4947   -9.1525 C   0  0  0  0  0  0
   16.2856   37.3391   -9.3276 P   0  0  0  0  0  0
   17.8161   34.8700  -10.3687 P   0  0  0  0  0  0
   15.2079   34.7177   -9.2733 C   0  0  0  0  0  0
   15.1916   33.3336   -8.6500 C   0  0  0  0  0  0
   15.0578   33.1449   -7.3581 N   0  0  0  0  0  0
   15.2217   31.8544   -9.5650 S   0  0  0  0  0  0
   16.1010   37.7800  -10.7650 O   0  0  0  0  0  0
   18.1010   33.3800  -10.3650 O   0  0  0  0  0  0
   14.9880   31.8675   -7.0391 C   0  0  0  0  0  0
   15.0589   30.9640   -8.0895 C   0  0  0  0  0  0
   14.9010   37.6269   -8.3725 O   0  0  0  0  0  0
   17.3010   35.5186  -11.8583 O   0  0  0  0  0  0
   17.6625   37.9904   -8.5792 O   0  0  0  0  0  0
   19.1521   35.7800   -9.8473 O   0  0  0  0  0  0
   16.9583   35.3152   -8.1498 H   0  0  0  0  0  0
   14.4160   35.2783   -8.7757 H   0  0  0  0  0  0
   14.9011   34.6667  -10.3185 H   0  0  0  0  0  0
   14.9010   31.5889   -6.0004 H   0  0  0  0  0  0
   15.0241   29.8828   -8.0750 H   0  0  0  0  0  0
   14.0104   37.3405   -8.6860 H   0  0  0  0  0  0
   17.7324   36.3217  -12.2414 H   0  0  0  0  0  0
   17.9773   38.8790   -8.8667 H   0  0  0  0  0  0
   19.5179   36.5097  -10.4011 H   0  0  0  0  0  0
  1  2  1  0  0  0
  1  3  1  0  0  0
  1  4  1  0  0  0
  1 16  1  0  0  0
  2  8  2  0  0  0
  2 12  1  0  0  0
  2 14  1  0  0  0
  3  9  2  0  0  0
  3 13  1  0  0  0
  3 15  1  0  0  0
  4  5  1  0  0  0
  4 17  1  0  0  0
  4 18  1  0  0  0
  5  6  2  0  0  0
  5  7  1  0  0  0
  6 10  1  0  0  0
  7 11  1  0  0  0
 10 11  2  0  0  0
 10 19  1  0  0  0
 11 20  1  0  0  0
 12 21  1  0  0  0
 13 22  1  0  0  0
 14 23  1  0  0  0
 15 24  1  0  0  0
M  END
> <s_m_entry_id>
3014

> <s_m_entry_name>
dock_pv.29

> <s_m_Source_Path>
/home/csk/Desktop/cluster/DUD-E-result/fpps

> <s_m_Source_File>
dock_pv.maegz

> <i_m_Source_File_Index>
29

> <chembl_id>
CHEMBL98629

> <chembl_pref_name>
None

> <i_lp_mmshare_version>
53161

> <r_lp_tautomer_probability>
1

> <s_lp_Force_Field>
OPLS_2005

> <r_lp_Energy>
-12.59271

> <b_lp_Chiralities_Consistent>
1

> <s_lp_Variant>
CHEMBL1782_lig63-1

> <s_i_glide_gridfile>
glide-grid_1zw5

> <i_i_glide_lignum>
69

> <i_i_glide_rotatable_bonds>
8

> <r_i_docking_score>
-8.53254530825574

> <r_i_glide_ligand_efficiency>
-0.568836353883716

> <r_i_glide_ligand_efficiency_sa>
-1.40287108299979

> <r_i_glide_ligand_efficiency_ln>
-2.30108678294578

> <r_i_glide_gscore>
-8.53254530825574

> <r_i_glide_lipo>
0

> <r_i_glide_hbond>
0

> <r_i_glide_metal>
-2.3

> <r_i_glide_rewards>
-1.69676195454545

> <r_i_glide_evdw>
-16.8117733001709

> <r_i_glide_ecoul>
-45.918155670166

> <r_i_glide_erotb>
0.504805311298264

> <r_i_glide_esite>
-0.2

> <r_i_glide_emodel>
-111.164833677754

> <r_i_glide_energy>
-62.7299289703369

> <r_i_glide_einternal>
16.537841796875

> <i_i_glide_confnum>
6

> <i_i_glide_posenum>
284

> <r_i_glide_eff_state_penalty>
0

> <s_user_duplicate_titles>
CHEMBL1782_lig63

> <i_f3d_flags>
0

> <s_m_subgroup_title>
dock_pv

> <s_m_subgroupid>
dock_pv

> <b_m_subgroup_collapsed>
1

$$$$
CHEMBL1782_lig106
                    3D
 Schrodinger Suite 2021-1.
 33 33  0  0  1  0            999 V2000
   16.8889   35.6002   -9.1129 C   0  0  0  0  0  0
   16.3880   37.4137   -9.0983 P   0  0  0  0  0  0
   17.8880   34.8746  -10.5083 P   0  0  0  0  0  0
   15.7495   34.7194   -8.7537 N   0  0  0  0  0  0
   18.1010   33.3800  -10.3650 O   0  0  0  0  0  0
   15.3010   37.8155   -8.1387 O   0  0  0  0  0  0
   17.0639   35.3800  -11.9176 O   0  0  0  0  0  0
   17.8675   38.1800   -8.7654 O   0  0  0  0  0  0
   19.3134   35.7800  -10.3650 O   0  0  0  0  0  0
   16.1014   37.7800  -10.7650 O   0  0  0  0  0  0
   15.3386   34.6694   -7.3474 C   0  0  0  0  0  0
   14.9615   33.9749   -9.7519 C   0  0  0  0  0  0
   13.8296   34.6048   -7.0416 C   0  0  0  0  0  0
   14.4843   32.5623   -9.3674 C   0  0  0  0  0  0
   13.2463   33.1786   -7.1419 C   0  0  0  0  0  0
   13.1730   32.5669   -8.5552 C   0  0  0  0  0  0
   17.5667   35.4786   -8.2571 H   0  0  0  0  0  0
   17.4875   35.9760  -12.5721 H   0  0  0  0  0  0
   18.0033   39.1137   -9.0666 H   0  0  0  0  0  0
   19.4972   36.5392  -10.9713 H   0  0  0  0  0  0
   16.8628   38.2297  -11.2303 H   0  0  0  0  0  0
   15.8153   33.7790   -6.9376 H   0  0  0  0  0  0
   15.7913   35.4884   -6.7870 H   0  0  0  0  0  0
   14.0855   34.5800   -9.9650 H   0  0  0  0  0  0
   15.4545   33.9200  -10.7189 H   0  0  0  0  0  0
   13.6512   34.9810   -6.0355 H   0  0  0  0  0  0
   13.2826   35.2522   -7.7301 H   0  0  0  0  0  0
   14.3290   31.9738  -10.2729 H   0  0  0  0  0  0
   15.2499   32.0527   -8.7803 H   0  0  0  0  0  0
   13.8190   32.5107   -6.4958 H   0  0  0  0  0  0
   12.2388   33.1828   -6.7232 H   0  0  0  0  0  0
   12.4035   33.0857   -9.1302 H   0  0  0  0  0  0
   12.8157   31.5391   -8.4674 H   0  0  0  0  0  0
  1  2  1  0  0  0
  1  3  1  0  0  0
  1  4  1  0  0  0
  1 17  1  0  0  0
  2  6  2  0  0  0
  2  8  1  0  0  0
  2 10  1  0  0  0
  3  5  2  0  0  0
  3  7  1  0  0  0
  3  9  1  0  0  0
  4 11  1  0  0  0
  4 12  1  0  0  0
  7 18  1  0  0  0
  8 19  1  0  0  0
  9 20  1  0  0  0
 10 21  1  0  0  0
 11 13  1  0  0  0
 11 22  1  0  0  0
 11 23  1  0  0  0
 12 14  1  0  0  0
 12 24  1  0  0  0
 12 25  1  0  0  0
 13 15  1  0  0  0
 13 26  1  0  0  0
 13 27  1  0  0  0
 14 16  1  0  0  0
 14 28  1  0  0  0
 14 29  1  0  0  0
 15 16  1  0  0  0
 15 30  1  0  0  0
 15 31  1  0  0  0
 16 32  1  0  0  0
 16 33  1  0  0  0
M  END
> <s_m_entry_id>
3015

> <s_m_entry_name>
dock_pv.30

> <s_m_Source_Path>
/home/csk/Desktop/cluster/DUD-E-result/fpps

> <s_m_Source_File>
dock_pv.maegz

> <i_m_Source_File_Index>
30

> <chembl_id>
CHEMBL54472

> <chembl_pref_name>
N-(HEXAMETHYLENEIMINO)METHYLENEBISPHOSPHONIC ACID

> <i_lp_mmshare_version>
53161

> <r_lp_tautomer_probability>
1

> <s_lp_Force_Field>
OPLS_2005

> <r_lp_Energy>
17.531278

> <b_lp_Chiralities_Consistent>
1

> <s_lp_Variant>
CHEMBL1782_lig106-1

> <s_i_glide_gridfile>
glide-grid_1zw5

> <i_i_glide_lignum>
117

> <i_i_glide_rotatable_bonds>
7

> <r_i_docking_score>
-8.53063620153038

> <r_i_glide_ligand_efficiency>
-0.533164762595649

> <r_i_glide_ligand_efficiency_sa>
-1.34349101367127

> <r_i_glide_ligand_efficiency_ln>
-2.26121552854183

> <r_i_glide_gscore>
-8.53063620153038

> <r_i_glide_lipo>
0

> <r_i_glide_hbond>
-0.00211316357259205

> <r_i_glide_metal>
-2.3

> <r_i_glide_rewards>
-1.54663295454545

> <r_i_glide_evdw>
-19.2519874572754

> <r_i_glide_ecoul>
-46.0570755004883

> <r_i_glide_erotb>
0.480709289451436

> <r_i_glide_esite>
-0.2

> <r_i_glide_emodel>
-109.186448827504

> <r_i_glide_energy>
-65.3090629577637

> <r_i_glide_einternal>
26.4513931274414

> <i_i_glide_confnum>
68

> <i_i_glide_posenum>
240

> <r_i_glide_eff_state_penalty>
0

> <s_user_duplicate_titles>
CHEMBL1782_lig106,83702

> <i_f3d_flags>
0

> <s_m_subgroup_title>
dock_pv

> <s_m_subgroupid>
dock_pv

> <b_m_subgroup_collapsed>
1

$$$$
CHEMBL1782_lig23
                    3D
 Schrodinger Suite 2021-1.
 26 26  0  0  1  0            999 V2000
   16.7329   35.6387   -9.1224 C   0  0  0  0  0  0
   15.3945   35.0327   -9.1643 N   0  0  0  0  0  0
   16.4519   37.5036   -9.1635 P   0  0  0  0  0  0
   17.8482   34.8841  -10.4316 P   0  0  0  0  0  0
   14.9643   33.7735   -8.8315 C   0  0  0  0  0  0
   15.7010   32.7234   -8.5649 N   0  0  0  0  0  0
   13.2551   33.4990   -8.7650 S   0  0  0  0  0  0
   14.9616   31.6469   -8.3416 C   0  0  0  0  0  0
   13.5866   31.8403   -8.3968 C   0  0  0  0  0  0
   18.1010   33.3800  -10.3650 O   0  0  0  0  0  0
   15.7010   38.0356  -10.3650 O   0  0  0  0  0  0
   15.7125   37.8154   -7.6567 O   0  0  0  0  0  0
   17.9934   38.1800   -9.0246 O   0  0  0  0  0  0
   17.2111   35.5051  -11.8890 O   0  0  0  0  0  0
   19.2590   35.7800  -10.1321 O   0  0  0  0  0  0
   15.6831   30.3531   -8.0658 C   0  0  0  0  0  0
   17.1825   35.3800   -8.1542 H   0  0  0  0  0  0
   14.6809   35.6759   -9.5090 H   0  0  0  0  0  0
   12.7952   31.1163   -8.2583 H   0  0  0  0  0  0
   16.0971   38.4822   -7.0534 H   0  0  0  0  0  0
   18.1010   39.0964   -9.3996 H   0  0  0  0  0  0
   17.6649   36.2407  -12.3650 H   0  0  0  0  0  0
   19.5100   36.5471  -10.7013 H   0  0  0  0  0  0
   15.0176   29.4925   -8.1450 H   0  0  0  0  0  0
   16.1010   30.3345   -7.0596 H   0  0  0  0  0  0
   16.5010   30.1800   -8.7650 H   0  0  0  0  0  0
  1  2  1  0  0  0
  1  3  1  0  0  0
  1  4  1  0  0  0
  1 17  1  0  0  0
  2  5  1  0  0  0
  2 18  1  0  0  0
  3 11  2  0  0  0
  3 12  1  0  0  0
  3 13  1  0  0  0
  4 10  2  0  0  0
  4 14  1  0  0  0
  4 15  1  0  0  0
  5  6  2  0  0  0
  5  7  1  0  0  0
  6  8  1  0  0  0
  7  9  1  0  0  0
  8 16  1  0  0  0
  8  9  2  0  0  0
  9 19  1  0  0  0
 12 20  1  0  0  0
 13 21  1  0  0  0
 14 22  1  0  0  0
 15 23  1  0  0  0
 16 24  1  0  0  0
 16 25  1  0  0  0
 16 26  1  0  0  0
M  END
> <s_m_entry_id>
3016

> <s_m_entry_name>
dock_pv.31

> <s_m_Source_Path>
/home/csk/Desktop/cluster/DUD-E-result/fpps

> <s_m_Source_File>
dock_pv.maegz

> <i_m_Source_File_Index>
31

> <chembl_id>
CHEMBL293116

> <chembl_pref_name>
None

> <i_lp_mmshare_version>
53161

> <r_lp_tautomer_probability>
1

> <s_lp_Force_Field>
OPLS_2005

> <r_lp_Energy>
-14.211231

> <b_lp_Chiralities_Consistent>
1

> <s_lp_Variant>
CHEMBL1782_lig23-1

> <s_i_glide_gridfile>
glide-grid_1zw5

> <i_i_glide_lignum>
27

> <i_i_glide_rotatable_bonds>
8

> <r_i_docking_score>
-8.52362654301918

> <r_i_glide_ligand_efficiency>
-0.532726658938699

> <r_i_glide_ligand_efficiency_sa>
-1.34238706163344

> <r_i_glide_ligand_efficiency_ln>
-2.25935747853233

> <r_i_glide_gscore>
-8.52362654301918

> <r_i_glide_lipo>
-0.187030115052072

> <r_i_glide_hbond>
-0.16

> <r_i_glide_metal>
-2.3

> <r_i_glide_rewards>
-1.44438940909091

> <r_i_glide_evdw>
-20.6943855285645

> <r_i_glide_ecoul>
-47.1604690551758

> <r_i_glide_erotb>
0.876176351829928

> <r_i_glide_esite>
-0.273664094277902

> <r_i_glide_emodel>
-116.330089882839

> <r_i_glide_energy>
-67.8548545837402

> <r_i_glide_einternal>
20.8965740203857

> <i_i_glide_confnum>
20

> <i_i_glide_posenum>
360

> <r_i_glide_eff_state_penalty>
0

> <s_user_duplicate_titles>
CHEMBL1782_lig23,84133

> <i_f3d_flags>
0

> <s_m_subgroup_title>
dock_pv

> <s_m_subgroupid>
dock_pv

> <b_m_subgroup_collapsed>
1

$$$$
CHEMBL1782_lig55
                    3D
 Schrodinger Suite 2021-1.
 29 29  0  0  1  0            999 V2000
   16.7455   35.6794   -9.1286 C   0  0  0  0  0  0
   16.3139   37.4871   -9.0913 P   0  0  0  0  0  0
   18.0173   35.2112  -10.3981 P   0  0  0  0  0  0
   15.4951   34.9172   -9.2644 N   0  0  0  0  0  0
   15.2921   33.5666   -9.1033 C   0  0  0  0  0  0
   16.2047   32.6372   -9.1650 N   0  0  0  0  0  0
   13.7010   32.9702   -8.7650 S   0  0  0  0  0  0
   15.7010   31.4405   -8.9542 C   0  0  0  0  0  0
   14.3421   31.3454   -8.6648 C   0  0  0  0  0  0
   15.7010   38.0335  -10.3650 O   0  0  0  0  0  0
   18.5010   33.7800  -10.3650 O   0  0  0  0  0  0
   15.3227   37.5329   -7.7067 O   0  0  0  0  0  0
   17.3085   35.7648  -11.8524 O   0  0  0  0  0  0
   17.8049   38.1800   -8.7126 O   0  0  0  0  0  0
   19.2690   36.2601   -9.9650 O   0  0  0  0  0  0
   13.4967   30.1398   -8.3112 C   0  0  0  0  0  0
   14.3337   28.9459   -7.8161 C   0  0  0  0  0  0
   17.1643   35.4102   -8.1525 H   0  0  0  0  0  0
   14.6920   35.4986   -9.5002 H   0  0  0  0  0  0
   16.3635   30.5868   -8.9819 H   0  0  0  0  0  0
   15.3010   36.7829   -7.0869 H   0  0  0  0  0  0
   17.7447   36.4994  -12.3500 H   0  0  0  0  0  0
   17.9798   39.0990   -9.0406 H   0  0  0  0  0  0
   19.4759   37.0291  -10.5545 H   0  0  0  0  0  0
   12.9010   29.8221   -9.1650 H   0  0  0  0  0  0
   12.7754   30.4090   -7.5427 H   0  0  0  0  0  0
   13.7010   28.1089   -7.5227 H   0  0  0  0  0  0
   14.9408   29.2159   -6.9512 H   0  0  0  0  0  0
   15.0049   28.5816   -8.5949 H   0  0  0  0  0  0
  1  2  1  0  0  0
  1  3  1  0  0  0
  1  4  1  0  0  0
  1 18  1  0  0  0
  2 10  2  0  0  0
  2 12  1  0  0  0
  2 14  1  0  0  0
  3 11  2  0  0  0
  3 13  1  0  0  0
  3 15  1  0  0  0
  4  5  1  0  0  0
  4 19  1  0  0  0
  5  6  2  0  0  0
  5  7  1  0  0  0
  6  8  1  0  0  0
  7  9  1  0  0  0
  8  9  2  0  0  0
  8 20  1  0  0  0
  9 16  1  0  0  0
 12 21  1  0  0  0
 13 22  1  0  0  0
 14 23  1  0  0  0
 15 24  1  0  0  0
 16 17  1  0  0  0
 16 25  1  0  0  0
 16 26  1  0  0  0
 17 27  1  0  0  0
 17 28  1  0  0  0
 17 29  1  0  0  0
M  END
> <s_m_entry_id>
3017

> <s_m_entry_name>
dock_pv.32

> <s_m_Source_Path>
/home/csk/Desktop/cluster/DUD-E-result/fpps

> <s_m_Source_File>
dock_pv.maegz

> <i_m_Source_File_Index>
32

> <chembl_id>
CHEMBL100830

> <chembl_pref_name>
None

> <i_lp_mmshare_version>
53161

> <r_lp_tautomer_probability>
1

> <s_lp_Force_Field>
OPLS_2005

> <r_lp_Energy>
-15.024867

> <b_lp_Chiralities_Consistent>
1

> <s_lp_Variant>
CHEMBL1782_lig55-1

> <s_i_glide_gridfile>
glide-grid_1zw5

> <i_i_glide_lignum>
60

> <i_i_glide_rotatable_bonds>
9

> <r_i_docking_score>
-8.52240376645481

> <r_i_glide_ligand_efficiency>
-0.501317868614989

> <r_i_glide_ligand_efficiency_sa>
-1.28902940542038

> <r_i_glide_ligand_efficiency_ln>
-2.22330535806718

> <r_i_glide_gscore>
-8.52240376645481

> <r_i_glide_lipo>
-0.132852762024714

> <r_i_glide_hbond>
-0.159840760603143

> <r_i_glide_metal>
-2.3

> <r_i_glide_rewards>
-1.34875363636364

> <r_i_glide_evdw>
-22.23610496521

> <r_i_glide_ecoul>
-46.0580635070801

> <r_i_glide_erotb>
0.806367176493195

> <r_i_glide_esite>
-0.275518535696019

> <r_i_glide_emodel>
-119.405756268109

> <r_i_glide_energy>
-68.29416847229

> <r_i_glide_einternal>
19.0677356719971

> <i_i_glide_confnum>
22

> <i_i_glide_posenum>
391

> <r_i_glide_eff_state_penalty>
0

> <s_user_duplicate_titles>
CHEMBL1782_lig55

> <i_f3d_flags>
0

> <s_m_subgroup_title>
dock_pv

> <s_m_subgroupid>
dock_pv

> <b_m_subgroup_collapsed>
1

$$$$
CHEMBL1782_lig162
                    3D
 Schrodinger Suite 2021-1.
 30 31  0  0  1  0            999 V2000
   15.1672   34.2698   -7.8089 C   0  0  0  0  0  0
   16.4208   34.0815   -8.6374 C   0  0  0  0  0  0
   16.5068   34.9056   -9.9548 C   0  0  1  0  0  0
   16.6121   36.7541   -9.6585 P   0  0  0  0  0  0
   18.1803   36.9403   -9.2841 O   0  0  0  0  0  0
   16.5009   37.3802  -11.1640 O   0  0  0  0  0  0
   15.7001   37.3984   -8.6838 O   0  0  0  0  0  0
   17.6938   34.4697  -10.8278 C   0  0  0  0  0  0
   18.6013   33.7800  -10.3687 O   0  0  0  0  0  0
   17.6772   34.9799  -12.0937 O   0  0  0  0  0  0
   15.3089   34.6548  -10.6546 O   0  0  0  0  0  0
   14.8255   35.2427   -6.8768 C   0  0  0  0  0  0
   13.6272   35.1018   -6.3628 N   0  0  0  0  0  0
   14.0756   33.4227   -7.8396 N   0  0  0  0  0  0
   13.1373   33.9842   -6.9479 C   0  0  0  0  0  0
   11.8922   33.3606   -6.7739 C   0  0  0  0  0  0
   11.6394   32.1755   -7.4589 C   0  0  0  0  0  0
   12.5960   31.6085   -8.2976 C   0  0  0  0  0  0
   13.8105   32.2542   -8.5096 C   0  0  0  0  0  0
   16.5489   33.0156   -8.8440 H   0  0  0  0  0  0
   17.2601   34.3604   -8.0147 H   0  0  0  0  0  0
   18.5598   37.7944   -9.5952 H   0  0  0  0  0  0
   17.3891   37.6279  -11.5651 H   0  0  0  0  0  0
   18.5015   34.8397  -12.5694 H   0  0  0  0  0  0
   14.5865   35.0800  -10.1689 H   0  0  0  0  0  0
   15.4575   36.0730   -6.5891 H   0  0  0  0  0  0
   11.1579   33.7816   -6.1072 H   0  0  0  0  0  0
   10.6976   31.6689   -7.3261 H   0  0  0  0  0  0
   12.3862   30.6605   -8.7650 H   0  0  0  0  0  0
   14.5776   31.8639   -9.1615 H   0  0  0  0  0  0
  1 12  2  0  0  0
  1  2  1  0  0  0
  1 14  1  0  0  0
  2  3  1  0  0  0
  2 20  1  0  0  0
  2 21  1  0  0  0
  3 11  1  0  0  0
  3  4  1  0  0  0
  3  8  1  0  0  0
  4  6  1  0  0  0
  4  7  2  0  0  0
  4  5  1  0  0  0
  5 22  1  0  0  0
  6 23  1  0  0  0
  8 10  1  0  0  0
  8  9  2  0  0  0
 10 24  1  0  0  0
 11 25  1  0  0  0
 12 13  1  0  0  0
 12 26  1  0  0  0
 13 15  2  0  0  0
 14 15  1  0  0  0
 14 19  1  0  0  0
 15 16  1  0  0  0
 16 17  2  0  0  0
 16 27  1  0  0  0
 17 18  1  0  0  0
 17 28  1  0  0  0
 18 19  2  0  0  0
 18 29  1  0  0  0
 19 30  1  0  0  0
M  END
> <s_m_entry_id>
3018

> <s_m_entry_name>
dock_pv.33

> <s_m_Source_Path>
/home/csk/Desktop/cluster/DUD-E-result/fpps

> <s_m_Source_File>
dock_pv.maegz

> <i_m_Source_File_Index>
33

> <chembl_id>
CHEMBL1099309

> <chembl_pref_name>
(2-HYDROXY-3-IMIDAZO[1,2-A]PYRIDIN-3-YL-2-PHOSPHONOPROPIONIC ACID (ENANTIONMERS)

> <i_lp_mmshare_version>
53161

> <r_lp_tautomer_probability>
1

> <s_lp_Force_Field>
OPLS_2005

> <r_lp_Energy>
18.509891

> <b_lp_Chiralities_Consistent>
1

> <s_lp_Variant>
CHEMBL1782_lig162-1

> <s_i_glide_gridfile>
glide-grid_1zw5

> <i_i_glide_lignum>
183

> <i_i_glide_rotatable_bonds>
8

> <r_i_docking_score>
-8.52078300735067

> <r_i_glide_ligand_efficiency>
-0.448462263544772

> <r_i_glide_ligand_efficiency_sa>
-1.19667744225793

> <r_i_glide_ligand_efficiency_ln>
-2.16020150200202

> <r_i_glide_gscore>
-8.52078300735067

> <r_i_glide_lipo>
0

> <r_i_glide_hbond>
-0.120634064714359

> <r_i_glide_metal>
-2.3

> <r_i_glide_rewards>
-1.45787795454545

> <r_i_glide_evdw>
-20.225170135498

> <r_i_glide_ecoul>
-31.7168140411377

> <r_i_glide_erotb>
0.665064597243016

> <r_i_glide_esite>
-0.296077078558972

> <r_i_glide_emodel>
-87.1653756605955

> <r_i_glide_energy>
-51.9419841766357

> <r_i_glide_einternal>
7.08104133605957

> <i_i_glide_confnum>
16

> <i_i_glide_posenum>
244

> <r_i_glide_eff_state_penalty>
0

> <s_user_duplicate_titles>
CHEMBL1782_lig162

> <i_f3d_flags>
0

> <s_m_subgroup_title>
dock_pv

> <s_m_subgroupid>
dock_pv

> <b_m_subgroup_collapsed>
1

$$$$
CHEMBL1782_lig8
                    3D
 Schrodinger Suite 2021-1.
 57 59  0  0  1  0            999 V2000
   10.8102   34.7073   -6.3650 C   0  0  0  0  0  0
   10.3219   33.5287   -5.8184 C   0  0  0  0  0  0
   10.9119   32.2970   -6.0496 C   0  0  0  0  0  0
   11.9041   34.6667   -7.2480 C   0  0  0  0  0  0
   12.5710   33.4451   -7.4855 C   0  0  0  0  0  0
   12.0575   32.2914   -6.8408 C   0  0  0  0  0  0
   12.9006   31.2669   -7.1481 N   0  0  0  0  0  0
   13.9339   31.6738   -7.9410 C   0  0  0  0  0  0
   13.7276   33.0169   -8.2639 C   0  0  0  0  0  0
   14.5234   33.8469   -9.2694 C   0  0  0  0  0  0
   15.8683   34.4824   -8.7938 C   0  0  0  0  0  0
   15.7113   35.3435   -7.1664 P   0  0  0  0  0  0
   16.7373   35.4273  -10.1792 P   0  0  0  0  0  0
   14.9008   36.5813   -7.1280 O   0  0  0  0  0  0
   15.2115   34.1299   -6.0817 O   0  0  0  0  0  0
   17.3010   35.7792   -6.7679 O   0  0  0  0  0  0
   18.3016   35.6738   -9.5030 O   0  0  0  0  0  0
   16.1010   36.6807  -10.7643 O   0  0  0  0  0  0
   16.8899   34.1818  -11.3137 O   0  0  0  0  0  0
   15.0125   30.6784   -8.3471 C   0  0  2  0  0  0
   14.8004   30.2017   -9.7886 C   0  0  0  0  0  0
   15.2605   29.4786   -7.3759 C   0  0  0  0  0  0
   14.2496   28.3275   -7.3661 C   0  0  0  0  0  0
   15.6551   29.8677   -5.9428 C   0  0  0  0  0  0
   10.2086   35.9791   -5.9006 C   0  0  0  0  0  0
   10.1758   36.2394   -4.5252 C   0  0  0  0  0  0
    9.7577   37.4755   -4.0498 C   0  0  0  0  0  0
    9.3825   38.4543   -4.9585 C   0  0  0  0  0  0
    9.3223   38.1822   -6.3218 C   0  0  0  0  0  0
    9.7232   36.9362   -6.7950 C   0  0  0  0  0  0
    9.4597   33.5799   -5.1717 H   0  0  0  0  0  0
   10.5260   31.3848   -5.6147 H   0  0  0  0  0  0
   12.2822   35.5777   -7.6840 H   0  0  0  0  0  0
   12.7936   30.3033   -6.8473 H   0  0  0  0  0  0
   13.8458   34.5810   -9.6771 H   0  0  0  0  0  0
   14.7381   33.2167  -10.1302 H   0  0  0  0  0  0
   16.5331   33.6373   -8.5920 H   0  0  0  0  0  0
   14.5297   33.4654   -6.3159 H   0  0  0  0  0  0
   17.3941   36.5809   -6.2016 H   0  0  0  0  0  0
   18.8712   36.3507   -9.9414 H   0  0  0  0  0  0
   16.0835   33.7924  -11.6924 H   0  0  0  0  0  0
   15.9500   31.2360   -8.3646 H   0  0  0  0  0  0
   14.9646   31.0013  -10.5048 H   0  0  0  0  0  0
   15.4907   29.3971  -10.0407 H   0  0  0  0  0  0
   13.7881   29.8234   -9.9442 H   0  0  0  0  0  0
   16.1020   28.9804   -7.8155 H   0  0  0  0  0  0
   13.3012   28.6210   -6.9423 H   0  0  0  0  0  0
   14.1014   27.9394   -8.3652 H   0  0  0  0  0  0
   14.6146   27.4850   -6.7779 H   0  0  0  0  0  0
   14.7970   29.8350   -5.2727 H   0  0  0  0  0  0
   16.3772   29.1507   -5.5529 H   0  0  0  0  0  0
   16.0988   30.8601   -5.8865 H   0  0  0  0  0  0
   10.5249   35.5003   -3.8178 H   0  0  0  0  0  0
    9.7767   37.6942   -2.9913 H   0  0  0  0  0  0
    9.1242   39.4347   -4.5866 H   0  0  0  0  0  0
    9.0233   38.9663   -6.9983 H   0  0  0  0  0  0
    9.7350   36.7391   -7.8581 H   0  0  0  0  0  0
  1  2  2  0  0  0
  1  4  1  0  0  0
  1 25  1  0  0  0
  2  3  1  0  0  0
  2 31  1  0  0  0
  3  6  2  0  0  0
  3 32  1  0  0  0
  4  5  2  0  0  0
  4 33  1  0  0  0
  5  6  1  0  0  0
  5  9  1  0  0  0
  6  7  1  0  0  0
  7  8  1  0  0  0
  7 34  1  0  0  0
  8  9  2  0  0  0
  8 20  1  0  0  0
  9 10  1  0  0  0
 10 11  1  0  0  0
 10 35  1  0  0  0
 10 36  1  0  0  0
 11 12  1  0  0  0
 11 13  1  0  0  0
 11 37  1  0  0  0
 12 14  2  0  0  0
 12 15  1  0  0  0
 12 16  1  0  0  0
 13 17  1  0  0  0
 13 18  2  0  0  0
 13 19  1  0  0  0
 15 38  1  0  0  0
 16 39  1  0  0  0
 17 40  1  0  0  0
 19 41  1  0  0  0
 20 21  1  0  0  0
 20 22  1  0  0  0
 20 42  1  0  0  0
 21 43  1  0  0  0
 21 44  1  0  0  0
 21 45  1  0  0  0
 22 23  1  0  0  0
 22 24  1  0  0  0
 22 46  1  0  0  0
 23 47  1  0  0  0
 23 48  1  0  0  0
 23 49  1  0  0  0
 24 50  1  0  0  0
 24 51  1  0  0  0
 24 52  1  0  0  0
 25 26  2  0  0  0
 25 30  1  0  0  0
 26 27  1  0  0  0
 26 53  1  0  0  0
 27 28  2  0  0  0
 27 54  1  0  0  0
 28 29  1  0  0  0
 28 55  1  0  0  0
 29 30  2  0  0  0
 29 56  1  0  0  0
 30 57  1  0  0  0
M  END
> <s_m_entry_id>
3019

> <s_m_entry_name>
dock_pv.34

> <s_m_Source_Path>
/home/csk/Desktop/cluster/DUD-E-result/fpps

> <s_m_Source_File>
dock_pv.maegz

> <i_m_Source_File_Index>
34

> <chembl_id>
CHEMBL3410291

> <chembl_pref_name>
None

> <i_lp_mmshare_version>
53161

> <r_lp_tautomer_probability>
1

> <s_lp_Force_Field>
OPLS_2005

> <r_lp_Energy>
11.782695

> <b_lp_Chiralities_Consistent>
1

> <s_lp_Variant>
CHEMBL1782_lig8-1

> <s_i_glide_gridfile>
glide-grid_1zw5

> <i_i_glide_lignum>
9

> <i_i_glide_rotatable_bonds>
11

> <r_i_docking_score>
-8.50928506370239

> <r_i_glide_ligand_efficiency>
-0.283642835456746

> <r_i_glide_ligand_efficiency_sa>
-0.881344237412916

> <r_i_glide_ligand_efficiency_ln>
-1.93340228255993

> <r_i_glide_gscore>
-8.50928506370239

> <r_i_glide_lipo>
-0.800583635639693

> <r_i_glide_hbond>
-0.16

> <r_i_glide_metal>
-2.3

> <r_i_glide_rewards>
-0.331433863636363

> <r_i_glide_evdw>
-25.3250961303711

> <r_i_glide_ecoul>
-39.2267036437988

> <r_i_glide_erotb>
0.590618492282058

> <r_i_glide_esite>
-0.241631250189838

> <r_i_glide_emodel>
-67.9698614055482

> <r_i_glide_energy>
-64.5517997741699

> <r_i_glide_einternal>
15.3957109451294

> <i_i_glide_confnum>
121

> <i_i_glide_posenum>
145

> <r_i_glide_eff_state_penalty>
0

> <s_user_duplicate_titles>
CHEMBL1782_lig8

> <i_f3d_flags>
0

> <s_m_subgroup_title>
dock_pv

> <s_m_subgroupid>
dock_pv

> <b_m_subgroup_collapsed>
1

$$$$
CHEMBL1782_lig6
                    3D
 Schrodinger Suite 2021-1.
 45 47  0  0  1  0            999 V2000
   16.9010   31.7316  -10.0414 C   0  0  0  0  0  0
   15.9969   30.9800   -9.3700 N   0  0  0  0  0  0
   15.2374   31.5859   -8.4264 C   0  0  0  0  0  0
   17.1652   33.0582   -9.9045 N   0  0  0  0  0  0
   16.3241   33.6439   -9.0315 C   0  0  0  0  0  0
   15.3720   32.9723   -8.2223 C   0  0  0  0  0  0
   14.7664   33.8389   -7.3610 N   0  0  0  0  0  0
   15.2520   34.9939   -7.6815 C   0  0  0  0  0  0
   16.1639   34.9829   -8.7204 N   0  0  0  0  0  0
   16.8345   36.1119   -9.3264 C   0  0  2  0  0  0
   18.0888   36.2899   -8.7129 O   0  0  0  0  0  0
   18.1364   37.5304   -7.9992 C   0  0  1  0  0  0
   16.6844   38.0065   -7.9391 C   0  0  2  0  0  0
   16.0430   37.4320   -9.2024 C   0  0  1  0  0  0
   18.7798   37.3116   -6.6191 C   0  0  0  0  0  0
   18.1982   36.1800   -5.9650 O   0  0  0  0  0  0
   16.5010   39.3839   -7.7341 O   0  0  0  0  0  0
   16.1010   38.1800  -10.4087 O   0  0  0  0  0  0
   14.3596   30.7524   -7.7200 N   0  0  0  0  0  0
   13.3795   31.2576   -6.7650 C   0  0  0  0  0  0
   12.0874   31.7800   -7.3790 C   0  0  0  0  0  0
   11.4252   32.9289   -7.1185 C   0  0  0  0  0  0
   11.8347   33.9778   -6.0936 C   0  0  0  0  0  0
   10.1532   33.2802   -7.8681 C   0  0  0  0  0  0
   17.4955   31.1877  -10.7648 H   0  0  0  0  0  0
   14.9299   35.9127   -7.2257 H   0  0  0  0  0  0
   16.9989   35.8303  -10.3699 H   0  0  0  0  0  0
   18.7325   38.2527   -8.5641 H   0  0  0  0  0  0
   16.2226   37.5398   -7.0722 H   0  0  0  0  0  0
   14.9863   37.2383   -9.0186 H   0  0  0  0  0  0
   19.8468   37.1263   -6.7650 H   0  0  0  0  0  0
   18.6884   38.2073   -6.0008 H   0  0  0  0  0  0
   18.1010   36.3815   -5.0192 H   0  0  0  0  0  0
   16.8875   39.8662   -8.4904 H   0  0  0  0  0  0
   16.8681   38.7884  -10.3650 H   0  0  0  0  0  0
   14.3073   29.7816   -7.9959 H   0  0  0  0  0  0
   13.8305   31.9893   -6.1019 H   0  0  0  0  0  0
   13.1383   30.4535   -6.0784 H   0  0  0  0  0  0
   11.6766   31.1165   -8.1282 H   0  0  0  0  0  0
   11.0520   34.0953   -5.3443 H   0  0  0  0  0  0
   11.9845   34.9367   -6.5905 H   0  0  0  0  0  0
   12.7543   33.7428   -5.5650 H   0  0  0  0  0  0
    9.3436   33.4666   -7.1646 H   0  0  0  0  0  0
   10.3061   34.1772   -8.4695 H   0  0  0  0  0  0
    9.8403   32.4824   -8.5440 H   0  0  0  0  0  0
  1  2  2  0  0  0
  1  4  1  0  0  0
  1 25  1  0  0  0
  2  3  1  0  0  0
  3  6  2  0  0  0
  3 19  1  0  0  0
  4  5  2  0  0  0
  5  9  1  0  0  0
  5  6  1  0  0  0
  6  7  1  0  0  0
  7  8  2  0  0  0
  8  9  1  0  0  0
  8 26  1  0  0  0
  9 10  1  0  0  0
 10 14  1  0  0  0
 10 11  1  0  0  0
 10 27  1  0  0  0
 11 12  1  0  0  0
 12 13  1  0  0  0
 12 15  1  0  0  0
 12 28  1  0  0  0
 13 14  1  0  0  0
 13 17  1  0  0  0
 13 29  1  0  0  0
 14 18  1  0  0  0
 14 30  1  0  0  0
 15 16  1  0  0  0
 15 31  1  0  0  0
 15 32  1  0  0  0
 16 33  1  0  0  0
 17 34  1  0  0  0
 18 35  1  0  0  0
 19 20  1  0  0  0
 19 36  1  0  0  0
 20 21  1  0  0  0
 20 37  1  0  0  0
 20 38  1  0  0  0
 21 22  2  0  0  0
 21 39  1  0  0  0
 22 23  1  0  0  0
 22 24  1  0  0  0
 23 40  1  0  0  0
 23 41  1  0  0  0
 23 42  1  0  0  0
 24 43  1  0  0  0
 24 44  1  0  0  0
 24 45  1  0  0  0
M  END
> <s_m_entry_id>
3020

> <s_m_entry_name>
dock_pv.35

> <s_m_Source_Path>
/home/csk/Desktop/cluster/DUD-E-result/fpps

> <s_m_Source_File>
dock_pv.maegz

> <i_m_Source_File_Index>
35

> <chembl_id>
CHEMBL452867

> <chembl_pref_name>
RIBOPRINE

> <i_lp_mmshare_version>
53161

> <r_lp_tautomer_probability>
0.999997216410988

> <s_lp_Force_Field>
OPLS_2005

> <r_lp_Energy>
42.729083

> <b_lp_Chiralities_Consistent>
1

> <s_lp_Variant>
CHEMBL1782_lig6-1

> <s_i_glide_gridfile>
glide-grid_1zw5

> <i_i_glide_lignum>
7

> <i_i_glide_rotatable_bonds>
8

> <r_i_docking_score>
-8.50748325033211

> <r_i_glide_ligand_efficiency>
-0.354478468763838

> <r_i_glide_ligand_efficiency_sa>
-1.02249283743257

> <r_i_glide_ligand_efficiency_ln>
-2.03623112477314

> <r_i_glide_gscore>
-8.50748325033211

> <r_i_glide_lipo>
0

> <r_i_glide_hbond>
0

> <r_i_glide_metal>
-2.3

> <r_i_glide_rewards>
-1.27255677272727

> <r_i_glide_evdw>
-25.8452415466309

> <r_i_glide_ecoul>
-39.3963356018066

> <r_i_glide_erotb>
0.839035060541369

> <r_i_glide_esite>
-0.481699460814668

> <r_i_glide_emodel>
-108.614937797775

> <r_i_glide_energy>
-65.2415771484375

> <r_i_glide_einternal>
9.25639247894287

> <i_i_glide_confnum>
331

> <i_i_glide_posenum>
20

> <r_i_glide_eff_state_penalty>
0

> <s_user_duplicate_titles>
CHEMBL1782_lig6

> <i_f3d_flags>
0

> <s_m_subgroup_title>
dock_pv

> <s_m_subgroupid>
dock_pv

> <b_m_subgroup_collapsed>
1

$$$$
CHEMBL1782_lig108
                    3D
 Schrodinger Suite 2021-1.
 29 29  0  0  1  0            999 V2000
   16.2345   35.5119   -9.5651 C   0  0  0  0  0  0
   17.8275   34.9627  -10.3189 P   0  0  0  0  0  0
   16.1009   37.3433   -9.1651 P   0  0  0  0  0  0
   15.9051   34.6549   -8.4127 N   0  0  0  0  0  0
   15.3628   33.3613   -8.5605 C   0  0  0  0  0  0
   15.3010   32.6280   -7.4196 N   0  0  0  0  0  0
   15.7010   38.1800  -10.3650 O   0  0  0  0  0  0
   18.1010   33.4596  -10.3650 O   0  0  0  0  0  0
   14.9010   37.2899   -7.9942 O   0  0  0  0  0  0
   17.5691   37.7905   -8.4291 O   0  0  0  0  0  0
   17.7010   35.7739  -11.8147 O   0  0  0  0  0  0
   18.9010   35.7799   -9.2508 O   0  0  0  0  0  0
   14.9010   31.3290   -7.4995 C   0  0  0  0  0  0
   14.9416   32.8325   -9.7916 C   0  0  0  0  0  0
   14.4626   31.5227   -9.8392 C   0  0  0  0  0  0
   14.4563   30.7480   -8.6846 C   0  0  0  0  0  0
   15.0181   30.4945   -6.2416 C   0  0  0  0  0  0
   15.4481   35.3435  -10.2982 H   0  0  0  0  0  0
   15.9130   35.0451   -7.4819 H   0  0  0  0  0  0
   14.0166   36.9799   -8.2938 H   0  0  0  0  0  0
   17.8972   38.7114   -8.5375 H   0  0  0  0  0  0
   18.1988   36.6165  -12.0224 H   0  0  0  0  0  0
   19.3933   36.5751   -9.5650 H   0  0  0  0  0  0
   14.9639   33.3978  -10.7082 H   0  0  0  0  0  0
   14.1037   31.0981  -10.7646 H   0  0  0  0  0  0
   14.1232   29.7192   -8.7174 H   0  0  0  0  0  0
   15.4134   29.5063   -6.4799 H   0  0  0  0  0  0
   14.0358   30.3576   -5.7892 H   0  0  0  0  0  0
   15.7009   30.9466   -5.5196 H   0  0  0  0  0  0
  1  2  1  0  0  0
  1  3  1  0  0  0
  1  4  1  0  0  0
  1 18  1  0  0  0
  2  8  2  0  0  0
  2 11  1  0  0  0
  2 12  1  0  0  0
  3  7  2  0  0  0
  3  9  1  0  0  0
  3 10  1  0  0  0
  4  5  1  0  0  0
  4 19  1  0  0  0
  5  6  1  0  0  0
  5 14  2  0  0  0
  6 13  2  0  0  0
  9 20  1  0  0  0
 10 21  1  0  0  0
 11 22  1  0  0  0
 12 23  1  0  0  0
 13 17  1  0  0  0
 13 16  1  0  0  0
 14 15  1  0  0  0
 14 24  1  0  0  0
 15 16  2  0  0  0
 15 25  1  0  0  0
 16 26  1  0  0  0
 17 27  1  0  0  0
 17 28  1  0  0  0
 17 29  1  0  0  0
M  END
> <s_m_entry_id>
3021

> <s_m_entry_name>
dock_pv.36

> <s_m_Source_Path>
/home/csk/Desktop/cluster/DUD-E-result/fpps

> <s_m_Source_File>
dock_pv.maegz

> <i_m_Source_File_Index>
36

> <chembl_id>
CHEMBL55959

> <chembl_pref_name>
None

> <i_lp_mmshare_version>
53161

> <r_lp_tautomer_probability>
0.999999772200052

> <s_lp_Force_Field>
OPLS_2005

> <r_lp_Energy>
-7.567593

> <b_lp_Chiralities_Consistent>
1

> <s_lp_Variant>
CHEMBL1782_lig108-1

> <s_i_glide_gridfile>
glide-grid_1zw5

> <i_i_glide_lignum>
119

> <i_i_glide_rotatable_bonds>
8

> <r_i_docking_score>
-8.50365327876757

> <r_i_glide_ligand_efficiency>
-0.500214898751034

> <r_i_glide_ligand_efficiency_sa>
-1.28619335931682

> <r_i_glide_ligand_efficiency_ln>
-2.21841377338241

> <r_i_glide_gscore>
-8.50365327876757

> <r_i_glide_lipo>
-0.26720744858964

> <r_i_glide_hbond>
0

> <r_i_glide_metal>
-2.3

> <r_i_glide_rewards>
-1.63546859352794

> <r_i_glide_evdw>
-18.1998996734619

> <r_i_glide_ecoul>
-50.2144927978516

> <r_i_glide_erotb>
0.909017747023107

> <r_i_glide_esite>
-0.3

> <r_i_glide_emodel>
-115.780384171873

> <r_i_glide_energy>
-68.4143924713135

> <r_i_glide_einternal>
19.0798225402832

> <i_i_glide_confnum>
35

> <i_i_glide_posenum>
58

> <r_i_glide_eff_state_penalty>
0

> <s_user_duplicate_titles>
CHEMBL1782_lig108,83836

> <i_f3d_flags>
0

> <s_m_subgroup_title>
dock_pv

> <s_m_subgroupid>
dock_pv

> <b_m_subgroup_collapsed>
1

$$$$
CHEMBL1782_lig90
                    3D
 Schrodinger Suite 2021-1.
 33 33  0  0  1  0            999 V2000
   16.6515   35.4762   -9.0188 C   0  0  0  0  0  0
   16.5010   37.3520   -9.1673 P   0  0  0  0  0  0
   17.3700   34.6040  -10.5356 P   0  0  0  0  0  0
   15.3029   34.9801   -8.6775 N   0  0  2  0  0  0
   16.5010   34.6396  -11.7652 O   0  0  0  0  0  0
   15.7059   37.8568  -10.3649 O   0  0  0  0  0  0
   15.8909   37.8249   -7.6450 O   0  0  0  0  0  0
   18.1428   37.7801   -9.1651 O   0  0  0  0  0  0
   18.8736   35.3799  -10.7324 O   0  0  0  0  0  0
   17.7010   32.9904   -9.9649 O   0  0  0  0  0  0
   15.1579   33.5545   -8.3821 C   0  0  0  0  0  0
   14.2742   33.3074   -7.1406 C   0  0  0  0  0  0
   14.5761   32.7375   -9.5651 C   0  0  0  0  0  0
   14.5240   31.2293   -9.2528 C   0  0  0  0  0  0
   14.1725   31.8051   -6.7926 C   0  0  0  0  0  0
   13.6987   30.9525   -7.9851 C   0  0  0  0  0  0
   17.3114   35.2470   -8.1671 H   0  0  0  0  0  0
   14.6251   35.2609   -9.3859 H   0  0  0  0  0  0
   15.7012   38.7654   -7.4632 H   0  0  0  0  0  0
   18.4251   38.6233   -9.5919 H   0  0  0  0  0  0
   18.9456   36.3225  -11.0352 H   0  0  0  0  0  0
   16.9132   32.4334   -9.7431 H   0  0  0  0  0  0
   16.1355   33.1384   -8.1390 H   0  0  0  0  0  0
   14.6764   33.8468   -6.2831 H   0  0  0  0  0  0
   13.2723   33.7043   -7.3133 H   0  0  0  0  0  0
   13.5726   33.0969   -9.8008 H   0  0  0  0  0  0
   15.1412   32.8816  -10.4811 H   0  0  0  0  0  0
   15.5332   30.8344   -9.1245 H   0  0  0  0  0  0
   14.0920   30.6860  -10.0934 H   0  0  0  0  0  0
   15.1425   31.4424   -6.4475 H   0  0  0  0  0  0
   13.4797   31.6615   -5.9650 H   0  0  0  0  0  0
   13.7452   29.8923   -7.7315 H   0  0  0  0  0  0
   12.6467   31.1629   -8.1876 H   0  0  0  0  0  0
  1  2  1  0  0  0
  1  3  1  0  0  0
  1  4  1  0  0  0
  1 17  1  0  0  0
  2  6  2  0  0  0
  2  7  1  0  0  0
  2  8  1  0  0  0
  3  5  2  0  0  0
  3  9  1  0  0  0
  3 10  1  0  0  0
  4 11  1  0  0  0
  4 18  1  0  0  0
  7 19  1  0  0  0
  8 20  1  0  0  0
  9 21  1  0  0  0
 10 22  1  0  0  0
 11 12  1  0  0  0
 11 13  1  0  0  0
 11 23  1  0  0  0
 12 15  1  0  0  0
 12 24  1  0  0  0
 12 25  1  0  0  0
 13 14  1  0  0  0
 13 26  1  0  0  0
 13 27  1  0  0  0
 14 16  1  0  0  0
 14 28  1  0  0  0
 14 29  1  0  0  0
 15 16  1  0  0  0
 15 30  1  0  0  0
 15 31  1  0  0  0
 16 32  1  0  0  0
 16 33  1  0  0  0
M  END
> <s_m_entry_id>
3022

> <s_m_entry_name>
dock_pv.37

> <s_m_Source_Path>
/home/csk/Desktop/cluster/DUD-E-result/fpps

> <s_m_Source_File>
dock_pv.maegz

> <i_m_Source_File_Index>
37

> <chembl_id>
CHEMBL56253

> <chembl_pref_name>
(CYCLOHEXYLAMINO)METHYLENEDIPHOSPHONIC ACID

> <i_lp_mmshare_version>
53161

> <r_lp_tautomer_probability>
1

> <s_lp_Force_Field>
OPLS_2005

> <r_lp_Energy>
5.120436

> <b_lp_Chiralities_Consistent>
1

> <s_lp_Variant>
CHEMBL1782_lig90-1

> <s_i_glide_gridfile>
glide-grid_1zw5

> <i_i_glide_lignum>
99

> <i_i_glide_rotatable_bonds>
8

> <r_i_docking_score>
-8.49878746277465

> <r_i_glide_ligand_efficiency>
-0.531174216423416

> <r_i_glide_ligand_efficiency_sa>
-1.33847515162954

> <r_i_glide_ligand_efficiency_ln>
-2.25277338414163

> <r_i_glide_gscore>
-8.49878746277465

> <r_i_glide_lipo>
0

> <r_i_glide_hbond>
-0.0920769705435607

> <r_i_glide_metal>
-2.3

> <r_i_glide_rewards>
-1.54663295454545

> <r_i_glide_evdw>
-21.6228294372559

> <r_i_glide_ecoul>
-40.3320159912109

> <r_i_glide_erotb>
0.721063934177155

> <r_i_glide_esite>
-0.2

> <r_i_glide_emodel>
-114.535305219255

> <r_i_glide_energy>
-61.9548454284668

> <r_i_glide_einternal>
13.6318988800049

> <i_i_glide_confnum>
1

> <i_i_glide_posenum>
86

> <r_i_glide_eff_state_penalty>
0

> <s_user_duplicate_titles>
CHEMBL1782_lig90,84166

> <i_f3d_flags>
0

> <s_m_subgroup_title>
dock_pv

> <s_m_subgroupid>
dock_pv

> <b_m_subgroup_collapsed>
1

$$$$
CHEMBL1782_lig199
                    3D
 Schrodinger Suite 2021-1.
 38 38  0  0  1  0            999 V2000
   14.5732   32.4840   -9.2909 C   0  0  0  0  0  0
   14.2024   31.4470   -8.4608 N   0  0  0  0  0  0
   14.1347   31.9615   -7.1769 C   0  0  0  0  0  0
   14.5257   33.2955   -7.2198 C   0  0  0  0  0  0
   14.7811   33.6264   -8.5419 N   0  3  0  0  0  0
   13.8936   30.0845   -8.8767 C   0  0  0  0  0  0
   15.0335   34.9636   -9.0654 C   0  0  0  0  0  0
   16.5241   35.4049   -9.1379 C   0  0  0  0  0  0
   17.3752   34.5731  -10.5753 P   0  0  0  0  0  0
   16.5812   34.5804  -11.8522 O   0  0  0  0  0  0
   18.8715   35.3799  -10.6748 O   0  0  0  0  0  0
   17.6998   32.9805   -9.9650 O   0  0  0  0  0  0
   16.5851   37.2819   -9.1125 P   0  0  0  0  0  0
   18.2404   37.5090   -8.7672 O   0  0  0  0  0  0
   15.6755   37.9244   -8.0974 O   0  0  0  0  0  0
   16.2721   37.7123  -10.7649 O   0  0  0  0  0  0
   14.9834   29.0741   -8.4441 C   0  0  0  0  0  0
   14.8994   28.5978   -6.9773 C   0  0  0  0  0  0
   15.6996   29.4453   -5.9726 C   0  0  0  0  0  0
   14.6128   32.4230  -10.3653 H   0  0  0  0  0  0
   13.8030   31.3304   -6.3652 H   0  0  0  0  0  0
   14.5792   34.0393   -6.4409 H   0  0  0  0  0  0
   13.7796   30.0680   -9.9613 H   0  0  0  0  0  0
   12.9116   29.8091   -8.4868 H   0  0  0  0  0  0
   14.6028   34.9800  -10.0604 H   0  0  0  0  0  0
   14.4334   35.6529   -8.4674 H   0  0  0  0  0  0
   17.0315   35.0716   -8.2246 H   0  0  0  0  0  0
   18.9592   36.3131  -10.9987 H   0  0  0  0  0  0
   16.9237   32.4074   -9.7505 H   0  0  0  0  0  0
   17.0231   38.1221  -11.2779 H   0  0  0  0  0  0
   15.9780   29.4642   -8.6665 H   0  0  0  0  0  0
   14.9011   28.1926   -9.0801 H   0  0  0  0  0  0
   15.2743   27.5740   -6.9246 H   0  0  0  0  0  0
   13.8581   28.5205   -6.6630 H   0  0  0  0  0  0
   15.0861   29.7798   -5.1358 H   0  0  0  0  0  0
   16.1373   30.3296   -6.4311 H   0  0  0  0  0  0
   16.5183   28.8588   -5.5638 H   0  0  0  0  0  0
   18.6039   38.4049   -8.5924 H   0  0  0  0  0  0
  1  2  1  0  0  0
  1  5  2  0  0  0
  1 20  1  0  0  0
  2  3  1  0  0  0
  2  6  1  0  0  0
  3  4  2  0  0  0
  3 21  1  0  0  0
  4  5  1  0  0  0
  4 22  1  0  0  0
  5  7  1  0  0  0
  6 17  1  0  0  0
  6 23  1  0  0  0
  6 24  1  0  0  0
  7  8  1  0  0  0
  7 25  1  0  0  0
  7 26  1  0  0  0
  8  9  1  0  0  0
  8 13  1  0  0  0
  8 27  1  0  0  0
  9 10  2  0  0  0
  9 11  1  0  0  0
  9 12  1  0  0  0
 11 28  1  0  0  0
 12 29  1  0  0  0
 13 14  1  0  0  0
 13 15  2  0  0  0
 13 16  1  0  0  0
 14 38  1  0  0  0
 16 30  1  0  0  0
 17 18  1  0  0  0
 17 31  1  0  0  0
 17 32  1  0  0  0
 18 19  1  0  0  0
 18 33  1  0  0  0
 18 34  1  0  0  0
 19 35  1  0  0  0
 19 36  1  0  0  0
 19 37  1  0  0  0
M  CHG  1   5   1
M  END
> <s_m_entry_id>
3023

> <s_m_entry_name>
dock_pv.38

> <s_m_Source_Path>
/home/csk/Desktop/cluster/DUD-E-result/fpps

> <s_m_Source_File>
dock_pv.maegz

> <i_m_Source_File_Index>
38

> <chembl_id>
CHEMBL2338372

> <chembl_pref_name>
None

> <i_lp_mmshare_version>
53161

> <r_lp_tautomer_probability>
1

> <s_lp_Force_Field>
OPLS_2005

> <r_lp_Energy>
1.825235

> <b_lp_Chiralities_Consistent>
1

> <s_lp_Variant>
CHEMBL1782_lig199-1

> <s_i_glide_gridfile>
glide-grid_1zw5

> <i_i_glide_lignum>
223

> <i_i_glide_rotatable_bonds>
11

> <r_i_docking_score>
-8.49648166509393

> <r_i_glide_ligand_efficiency>
-0.44718324553126

> <r_i_glide_ligand_efficiency_sa>
-1.19326450848528

> <r_i_glide_ligand_efficiency_ln>
-2.15404058979497

> <r_i_glide_gscore>
-8.49648166509393

> <r_i_glide_lipo>
-0.428660738711647

> <r_i_glide_hbond>
-0.00758660557822696

> <r_i_glide_metal>
-2.3

> <r_i_glide_rewards>
-1.12360581818182

> <r_i_glide_evdw>
-28.3020973205566

> <r_i_glide_ecoul>
-34.6796379089355

> <r_i_glide_erotb>
1.13585880181121

> <r_i_glide_esite>
-0.357382438405618

> <r_i_glide_emodel>
-100.487637130128

> <r_i_glide_energy>
-62.9817352294922

> <r_i_glide_einternal>
16.7071971893311

> <i_i_glide_confnum>
114

> <i_i_glide_posenum>
23

> <r_i_glide_eff_state_penalty>
0

> <s_user_duplicate_titles>
CHEMBL1782_lig199

> <i_f3d_flags>
0

> <s_m_subgroup_title>
dock_pv

> <s_m_subgroupid>
dock_pv

> <b_m_subgroup_collapsed>
1

$$$$
CHEMBL1782_lig35
                    3D
 Schrodinger Suite 2021-1.
 32 32  0  0  1  0            999 V2000
   16.5727   35.6608   -9.2249 C   0  0  0  0  0  0
   17.9645   35.2011  -10.3938 P   0  0  0  0  0  0
   16.1389   37.4828   -9.1033 P   0  0  0  0  0  0
   15.3365   33.4216   -9.0950 N   0  0  0  0  0  0
   15.3003   34.8152   -9.5532 C   0  0  0  0  0  0
   15.7011   31.2129   -9.1445 N   0  0  0  0  0  0
   14.8816   32.8973   -7.9021 C   0  0  0  0  0  0
   15.8206   32.3437   -9.7848 C   0  0  0  0  0  0
   15.1395   31.5262   -7.9898 C   0  0  0  0  0  0
   18.5010   33.7800  -10.3458 O   0  0  0  0  0  0
   15.7010   38.1798  -10.3650 O   0  0  0  0  0  0
   16.9630   35.3799   -7.8925 O   0  0  0  0  0  0
   17.3030   35.6932  -11.8862 O   0  0  0  0  0  0
   14.9010   37.3802   -7.9723 O   0  0  0  0  0  0
   19.1379   36.3394   -9.9650 O   0  0  0  0  0  0
   17.4982   38.1798   -8.3648 O   0  0  0  0  0  0
   14.2368   33.7314   -6.8115 C   0  0  0  0  0  0
   14.8645   30.4297   -6.9846 C   0  0  0  0  0  0
   14.4036   35.2462   -9.1213 H   0  0  0  0  0  0
   15.1253   34.8054  -10.6286 H   0  0  0  0  0  0
   16.2395   32.4743  -10.7649 H   0  0  0  0  0  0
   16.1909   35.5504   -7.3359 H   0  0  0  0  0  0
   17.7288   36.4424  -12.3687 H   0  0  0  0  0  0
   14.0306   37.0449   -8.2847 H   0  0  0  0  0  0
   19.3094   37.1022  -10.5781 H   0  0  0  0  0  0
   17.7492   39.0999   -8.6141 H   0  0  0  0  0  0
   13.8639   33.1094   -5.9984 H   0  0  0  0  0  0
   14.9319   34.4407   -6.3656 H   0  0  0  0  0  0
   13.3818   34.2951   -7.1851 H   0  0  0  0  0  0
   14.1957   29.6697   -7.3916 H   0  0  0  0  0  0
   15.7818   29.9226   -6.6818 H   0  0  0  0  0  0
   14.3965   30.8034   -6.0744 H   0  0  0  0  0  0
  1  2  1  0  0  0
  1  3  1  0  0  0
  1  5  1  0  0  0
  1 12  1  0  0  0
  2 10  2  0  0  0
  2 13  1  0  0  0
  2 15  1  0  0  0
  3 11  2  0  0  0
  3 14  1  0  0  0
  3 16  1  0  0  0
  4  5  1  0  0  0
  4  7  1  0  0  0
  4  8  1  0  0  0
  5 19  1  0  0  0
  5 20  1  0  0  0
  6  8  2  0  0  0
  6  9  1  0  0  0
  7  9  2  0  0  0
  7 17  1  0  0  0
  8 21  1  0  0  0
  9 18  1  0  0  0
 12 22  1  0  0  0
 13 23  1  0  0  0
 14 24  1  0  0  0
 15 25  1  0  0  0
 16 26  1  0  0  0
 17 27  1  0  0  0
 17 28  1  0  0  0
 17 29  1  0  0  0
 18 30  1  0  0  0
 18 31  1  0  0  0
 18 32  1  0  0  0
M  END
> <s_m_entry_id>
3025

> <s_m_entry_name>
dock_pv.40

> <s_m_Source_Path>
/home/csk/Desktop/cluster/DUD-E-result/fpps

> <s_m_Source_File>
dock_pv.maegz

> <i_m_Source_File_Index>
40

> <chembl_id>
CHEMBL98703

> <chembl_pref_name>
None

> <i_lp_mmshare_version>
53161

> <r_lp_tautomer_probability>
1

> <s_lp_Force_Field>
OPLS_2005

> <r_lp_Energy>
-2.304662

> <b_lp_Chiralities_Consistent>
1

> <s_lp_Variant>
CHEMBL1782_lig35-1

> <s_i_glide_gridfile>
glide-grid_1zw5

> <i_i_glide_lignum>
39

> <i_i_glide_rotatable_bonds>
9

> <r_i_docking_score>
-8.48852880988046

> <r_i_glide_ligand_efficiency>
-0.471584933882248

> <r_i_glide_ligand_efficiency_sa>
-1.23590215591973

> <r_i_glide_ligand_efficiency_ln>
-2.18193256021139

> <r_i_glide_gscore>
-8.48852880988046

> <r_i_glide_lipo>
-0.244034315404906

> <r_i_glide_hbond>
0

> <r_i_glide_metal>
-2.3

> <r_i_glide_rewards>
-1.51266286363636

> <r_i_glide_evdw>
-17.483024597168

> <r_i_glide_ecoul>
-48.2986755371094

> <r_i_glide_erotb>
0.815986906148868

> <r_i_glide_esite>
-0.373667307129657

> <r_i_glide_emodel>
-116.231486769185

> <r_i_glide_energy>
-65.7817001342773

> <r_i_glide_einternal>
19.8562278747559

> <i_i_glide_confnum>
75

> <i_i_glide_posenum>
352

> <r_i_glide_eff_state_penalty>
0

> <s_user_duplicate_titles>
CHEMBL1782_lig35

> <i_f3d_flags>
0

> <s_m_subgroup_title>
dock_pv

> <s_m_subgroupid>
dock_pv

> <b_m_subgroup_collapsed>
1

$$$$
CHEMBL1782_lig68
                    3D
 Schrodinger Suite 2021-1.
 23 23  0  0  1  0            999 V2000
   15.5111   34.9691   -9.2628 N   0  0  0  0  0  0
   16.7826   35.6935   -9.1548 C   0  0  0  0  0  0
   16.3842   37.5170   -9.1046 P   0  0  0  0  0  0
   18.0553   35.1645  -10.4077 P   0  0  0  0  0  0
   17.3978   35.7156  -11.8807 O   0  0  0  0  0  0
   15.3010   37.9403   -8.1506 O   0  0  0  0  0  0
   17.9025   38.1800   -8.7650 O   0  0  0  0  0  0
   16.1010   37.9189  -10.7650 O   0  0  0  0  0  0
   19.3345   36.1800   -9.9650 O   0  0  0  0  0  0
   18.5010   33.7231  -10.3650 O   0  0  0  0  0  0
   15.2427   33.6332   -9.0923 C   0  0  0  0  0  0
   14.1348   31.5034   -8.7768 C   0  0  0  0  0  0
   13.6024   33.1564   -8.7904 S   0  0  0  0  0  0
   15.5099   31.4739   -8.9780 C   0  0  0  0  0  0
   16.1010   32.6436   -9.1366 N   0  0  0  0  0  0
   14.7121   35.5881   -9.3935 H   0  0  0  0  0  0
   17.1999   35.4136   -8.1782 H   0  0  0  0  0  0
   17.8567   36.4440  -12.3650 H   0  0  0  0  0  0
   18.0860   39.1140   -9.0350 H   0  0  0  0  0  0
   16.8434   38.4067  -11.2207 H   0  0  0  0  0  0
   19.5920   36.9361  -10.5468 H   0  0  0  0  0  0
   13.4453   30.6814   -8.6328 H   0  0  0  0  0  0
   16.1010   30.5690   -9.0081 H   0  0  0  0  0  0
  1  2  1  0  0  0
  1 11  1  0  0  0
  1 16  1  0  0  0
  2  4  1  0  0  0
  2  3  1  0  0  0
  2 17  1  0  0  0
  3  8  1  0  0  0
  3  6  2  0  0  0
  3  7  1  0  0  0
  4  9  1  0  0  0
  4 10  2  0  0  0
  4  5  1  0  0  0
  5 18  1  0  0  0
  7 19  1  0  0  0
  8 20  1  0  0  0
  9 21  1  0  0  0
 11 15  2  0  0  0
 11 13  1  0  0  0
 12 14  2  0  0  0
 12 13  1  0  0  0
 12 22  1  0  0  0
 14 15  1  0  0  0
 14 23  1  0  0  0
M  END
> <s_m_entry_id>
3026

> <s_m_entry_name>
dock_pv.41

> <s_m_Source_Path>
/home/csk/Desktop/cluster/DUD-E-result/fpps

> <s_m_Source_File>
dock_pv.maegz

> <i_m_Source_File_Index>
41

> <chembl_id>
CHEMBL100831

> <chembl_pref_name>
None

> <i_lp_mmshare_version>
53161

> <r_lp_tautomer_probability>
1

> <s_lp_Force_Field>
OPLS_2005

> <r_lp_Energy>
-12.871039

> <b_lp_Chiralities_Consistent>
1

> <s_lp_Variant>
CHEMBL1782_lig68-1

> <s_i_glide_gridfile>
glide-grid_1zw5

> <i_i_glide_lignum>
74

> <i_i_glide_rotatable_bonds>
8

> <r_i_docking_score>
-8.4873328021655

> <r_i_glide_ligand_efficiency>
-0.565822186811033

> <r_i_glide_ligand_efficiency_sa>
-1.3954375077778

> <r_i_glide_ligand_efficiency_ln>
-2.28889371552808

> <r_i_glide_gscore>
-8.4873328021655

> <r_i_glide_lipo>
0

> <r_i_glide_hbond>
-0.149350718731466

> <r_i_glide_metal>
-2.3

> <r_i_glide_rewards>
-1.54002518181818

> <r_i_glide_evdw>
-18.7605800628662

> <r_i_glide_ecoul>
-47.2541694641113

> <r_i_glide_erotb>
0.716653501751463

> <r_i_glide_esite>
-0.276581400224002

> <r_i_glide_emodel>
-112.878594790897

> <r_i_glide_energy>
-66.0147495269775

> <r_i_glide_einternal>
23.509916305542

> <i_i_glide_confnum>
23

> <i_i_glide_posenum>
305

> <r_i_glide_eff_state_penalty>
0

> <s_user_duplicate_titles>
CHEMBL1782_lig68

> <i_f3d_flags>
0

> <s_m_subgroup_title>
dock_pv

> <s_m_subgroupid>
dock_pv

> <b_m_subgroup_collapsed>
1

$$$$
CHEMBL1782_lig16
                    3D
 Schrodinger Suite 2021-1.
 35 36  0  0  1  0            999 V2000
   10.9664   33.8091   -8.1531 C   0  0  0  0  0  0
   10.6342   32.4675   -8.3002 C   0  0  0  0  0  0
   11.6084   31.4742   -8.3650 C   0  0  0  0  0  0
   12.2985   34.2112   -8.0890 C   0  0  0  0  0  0
   13.3189   33.2586   -8.2185 C   0  0  0  0  0  0
   12.9483   31.8830   -8.3342 C   0  0  0  0  0  0
   14.1230   31.1577   -8.3815 N   0  0  0  0  0  0
   15.1783   32.0340   -8.3717 C   0  0  0  0  0  0
   14.7572   33.3448   -8.2530 C   0  0  0  0  0  0
   15.6040   34.6035   -8.1420 C   0  0  0  0  0  0
   15.9997   35.2801   -9.4879 C   0  0  0  0  0  0
   17.4565   34.4407  -10.2869 P   0  0  0  0  0  0
   16.3711   37.0772   -9.1641 P   0  0  0  0  0  0
   17.5445   37.2588   -8.2240 O   0  0  0  0  0  0
   16.5010   37.7241  -10.7650 O   0  0  0  0  0  0
   14.9010   37.6648   -8.5584 O   0  0  0  0  0  0
   17.2909   34.8332  -11.9388 O   0  0  0  0  0  0
   18.7573   35.3800   -9.7005 O   0  0  0  0  0  0
   17.7010   32.9800   -9.9650 O   0  0  0  0  0  0
   14.2467   29.7172   -8.5214 C   0  0  0  0  0  0
   10.1813   34.5493   -8.0982 H   0  0  0  0  0  0
    9.5965   32.1800   -8.3651 H   0  0  0  0  0  0
   11.3334   30.4344   -8.4574 H   0  0  0  0  0  0
   12.5439   35.2513   -7.9650 H   0  0  0  0  0  0
   16.1708   31.6232   -8.4321 H   0  0  0  0  0  0
   16.5010   34.3928   -7.5650 H   0  0  0  0  0  0
   15.0511   35.3091   -7.5212 H   0  0  0  0  0  0
   15.1590   35.1901  -10.1701 H   0  0  0  0  0  0
   17.3943   37.7880  -11.2196 H   0  0  0  0  0  0
   14.0263   37.2933   -8.8235 H   0  0  0  0  0  0
   17.8985   35.4376  -12.4161 H   0  0  0  0  0  0
   19.2408   36.0315  -10.2596 H   0  0  0  0  0  0
   13.4962   29.2203   -7.9053 H   0  0  0  0  0  0
   14.1010   29.4455   -9.5650 H   0  0  0  0  0  0
   15.2353   29.3872   -8.1996 H   0  0  0  0  0  0
  1  2  2  0  0  0
  1  4  1  0  0  0
  1 21  1  0  0  0
  2  3  1  0  0  0
  2 22  1  0  0  0
  3  6  2  0  0  0
  3 23  1  0  0  0
  4  5  2  0  0  0
  4 24  1  0  0  0
  5  6  1  0  0  0
  5  9  1  0  0  0
  6  7  1  0  0  0
  7  8  1  0  0  0
  7 20  1  0  0  0
  8  9  2  0  0  0
  8 25  1  0  0  0
  9 10  1  0  0  0
 10 11  1  0  0  0
 10 26  1  0  0  0
 10 27  1  0  0  0
 11 12  1  0  0  0
 11 13  1  0  0  0
 11 28  1  0  0  0
 12 17  1  0  0  0
 12 18  1  0  0  0
 12 19  2  0  0  0
 13 14  2  0  0  0
 13 15  1  0  0  0
 13 16  1  0  0  0
 15 29  1  0  0  0
 16 30  1  0  0  0
 17 31  1  0  0  0
 18 32  1  0  0  0
 20 33  1  0  0  0
 20 34  1  0  0  0
 20 35  1  0  0  0
M  END
> <s_m_entry_id>
3027

> <s_m_entry_name>
dock_pv.42

> <s_m_Source_Path>
/home/csk/Desktop/cluster/DUD-E-result/fpps

> <s_m_Source_File>
dock_pv.maegz

> <i_m_Source_File_Index>
42

> <chembl_id>
CHEMBL3410283

> <chembl_pref_name>
None

> <i_lp_mmshare_version>
53161

> <r_lp_tautomer_probability>
1

> <s_lp_Force_Field>
OPLS_2005

> <r_lp_Energy>
0.408033

> <b_lp_Chiralities_Consistent>
1

> <s_lp_Variant>
CHEMBL1782_lig16-1

> <s_i_glide_gridfile>
glide-grid_1zw5

> <i_i_glide_lignum>
20

> <i_i_glide_rotatable_bonds>
8

> <r_i_docking_score>
-8.48358554484305

> <r_i_glide_ligand_efficiency>
-0.424179277242153

> <r_i_glide_ligand_efficiency_sa>
-1.15139970159083

> <r_i_glide_ligand_efficiency_ln>
-2.12316165449627

> <r_i_glide_gscore>
-8.48358554484305

> <r_i_glide_lipo>
-0.0915007608950459

> <r_i_glide_hbond>
0

> <r_i_glide_metal>
-2.3

> <r_i_glide_rewards>
-1.23281304545454

> <r_i_glide_evdw>
-26.9705600738525

> <r_i_glide_ecoul>
-41.9117126464844

> <r_i_glide_erotb>
0.732440024591915

> <r_i_glide_esite>
-0.243183759392751

> <r_i_glide_emodel>
-117.337885882456

> <r_i_glide_energy>
-68.8822727203369

> <r_i_glide_einternal>
18.656925201416

> <i_i_glide_confnum>
4

> <i_i_glide_posenum>
14

> <r_i_glide_eff_state_penalty>
0

> <s_user_duplicate_titles>
CHEMBL1782_lig16

> <i_f3d_flags>
0

> <s_m_subgroup_title>
dock_pv

> <s_m_subgroupid>
dock_pv

> <b_m_subgroup_collapsed>
1

$$$$
CHEMBL1782_lig140
                    3D
 Schrodinger Suite 2021-1.
 27 27  0  0  1  0            999 V2000
   15.3165   34.9536   -9.1790 C   0  0  0  0  0  0
   16.7117   35.6353   -9.0893 C   0  0  0  0  0  0
   17.8790   34.9303  -10.3654 P   0  0  0  0  0  0
   16.4406   37.5003   -9.1552 P   0  0  0  0  0  0
   15.7010   37.8296   -7.6534 O   0  0  0  0  0  0
   17.9829   38.1800   -9.0052 O   0  0  0  0  0  0
   15.7010   38.0297  -10.3650 O   0  0  0  0  0  0
   17.3010   35.6256  -11.8136 O   0  0  0  0  0  0
   19.2850   35.7800   -9.9364 O   0  0  0  0  0  0
   18.1010   33.4187  -10.3648 O   0  0  0  0  0  0
   15.2191   33.5150   -8.6827 C   0  0  0  0  0  0
   15.3303   32.4330   -9.5650 C   0  0  0  0  0  0
   15.1766   31.1288   -9.0897 C   0  0  0  0  0  0
   14.9011   30.9437   -7.7340 C   0  0  0  0  0  0
   14.7774   31.9757   -6.8605 N   0  0  0  0  0  0
   14.9268   33.2357   -7.3427 C   0  0  0  0  0  0
   14.5791   35.5291   -8.6157 H   0  0  0  0  0  0
   14.9552   34.9800  -10.2073 H   0  0  0  0  0  0
   17.1555   35.3955   -8.1128 H   0  0  0  0  0  0
   16.0824   38.5094   -7.0628 H   0  0  0  0  0  0
   18.1010   39.0929   -9.3848 H   0  0  0  0  0  0
   17.7829   36.3778  -12.2386 H   0  0  0  0  0  0
   19.6131   36.5347  -10.4798 H   0  0  0  0  0  0
   15.5209   32.5982  -10.6145 H   0  0  0  0  0  0
   15.2531   30.2802   -9.7551 H   0  0  0  0  0  0
   14.7655   29.9501   -7.3300 H   0  0  0  0  0  0
   14.7974   34.0295   -6.6244 H   0  0  0  0  0  0
  1 11  1  0  0  0
  1  2  1  0  0  0
  1 17  1  0  0  0
  1 18  1  0  0  0
  2  3  1  0  0  0
  2  4  1  0  0  0
  2 19  1  0  0  0
  3  9  1  0  0  0
  3 10  2  0  0  0
  3  8  1  0  0  0
  4  5  1  0  0  0
  4  6  1  0  0  0
  4  7  2  0  0  0
  5 20  1  0  0  0
  6 21  1  0  0  0
  8 22  1  0  0  0
  9 23  1  0  0  0
 11 12  2  0  0  0
 11 16  1  0  0  0
 12 13  1  0  0  0
 12 24  1  0  0  0
 13 14  2  0  0  0
 13 25  1  0  0  0
 14 15  1  0  0  0
 14 26  1  0  0  0
 15 16  2  0  0  0
 16 27  1  0  0  0
M  END
> <s_m_entry_id>
3028

> <s_m_entry_name>
dock_pv.43

> <s_m_Source_Path>
/home/csk/Desktop/cluster/DUD-E-result/fpps

> <s_m_Source_File>
dock_pv.maegz

> <i_m_Source_File_Index>
43

> <chembl_id>
CHEMBL98110

> <chembl_pref_name>
None

> <i_lp_mmshare_version>
53161

> <r_lp_tautomer_probability>
1

> <s_lp_Force_Field>
OPLS_2005

> <r_lp_Energy>
-0.442817

> <b_lp_Chiralities_Consistent>
1

> <s_lp_Variant>
CHEMBL1782_lig140-1

> <s_i_glide_gridfile>
glide-grid_1zw5

> <i_i_glide_lignum>
152

> <i_i_glide_rotatable_bonds>
8

> <r_i_docking_score>
-8.48125058656419

> <r_i_glide_ligand_efficiency>
-0.530078161660262

> <r_i_glide_ligand_efficiency_sa>
-1.33571326669622

> <r_i_glide_ligand_efficiency_ln>
-2.24812488479499

> <r_i_glide_gscore>
-8.48125058656419

> <r_i_glide_lipo>
0

> <r_i_glide_hbond>
0

> <r_i_glide_metal>
-2.3

> <r_i_glide_rewards>
-1.73786686363636

> <r_i_glide_evdw>
-19.8584098815918

> <r_i_glide_ecoul>
-45.6648483276367

> <r_i_glide_erotb>
0.749536771151767

> <r_i_glide_esite>
-0.2

> <r_i_glide_emodel>
-111.740671368235

> <r_i_glide_energy>
-65.5232582092285

> <r_i_glide_einternal>
20.4620151519775

> <i_i_glide_confnum>
6

> <i_i_glide_posenum>
394

> <r_i_glide_eff_state_penalty>
0

> <s_user_duplicate_titles>
CHEMBL1782_lig140,161497

> <i_f3d_flags>
0

> <s_m_subgroup_title>
dock_pv

> <s_m_subgroupid>
dock_pv

> <b_m_subgroup_collapsed>
1

$$$$
CHEMBL1782_lig11
                    3D
 Schrodinger Suite 2021-1.
 44 45  0  0  1  0            999 V2000
   10.9302   35.0088   -6.6645 C   0  0  0  0  0  0
   10.3722   33.9264   -5.9855 C   0  0  0  0  0  0
   10.9259   32.6498   -6.0906 C   0  0  0  0  0  0
   12.0545   34.8504   -7.4720 C   0  0  0  0  0  0
   12.6360   33.5850   -7.6311 C   0  0  0  0  0  0
   12.0609   32.5168   -6.8969 C   0  0  0  0  0  0
   12.8309   31.4227   -7.1591 N   0  0  0  0  0  0
   13.8673   31.7200   -8.0049 C   0  0  0  0  0  0
   13.7412   33.0588   -8.4164 C   0  0  0  0  0  0
   14.5295   33.8259   -9.5015 C   0  0  0  0  0  0
   15.9001   34.4714   -9.1050 C   0  0  0  0  0  0
   15.8729   35.4622   -7.5363 P   0  0  0  0  0  0
   16.7939   35.4035  -10.4985 P   0  0  0  0  0  0
   17.2865   35.7807   -7.0874 O   0  0  0  0  0  0
   14.9010   36.8060   -7.9597 O   0  0  0  0  0  0
   15.0716   34.4995   -6.3701 O   0  0  0  0  0  0
   18.2678   35.8086   -9.7337 O   0  0  0  0  0  0
   16.1013   36.5797  -11.1647 O   0  0  0  0  0  0
   17.3052   34.1800  -11.5634 O   0  0  0  0  0  0
   14.8057   30.5793   -8.3741 C   0  0  0  0  0  0
   14.2046   29.8505   -9.5626 C   0  0  0  0  0  0
   14.9998   29.5765   -7.2029 C   0  0  0  0  0  0
   16.1773   31.1048   -8.7649 C   0  0  0  0  0  0
   10.4780   35.9828   -6.5675 H   0  0  0  0  0  0
    9.5023   34.0863   -5.3737 H   0  0  0  0  0  0
   10.5170   31.7887   -5.5746 H   0  0  0  0  0  0
   12.4847   35.6997   -7.9650 H   0  0  0  0  0  0
   12.6753   30.4844   -6.8100 H   0  0  0  0  0  0
   13.8729   34.5749   -9.9352 H   0  0  0  0  0  0
   14.6980   33.1642  -10.3482 H   0  0  0  0  0  0
   16.5958   33.6678   -8.8923 H   0  0  0  0  0  0
   14.3319   36.8388   -8.7633 H   0  0  0  0  0  0
   15.2748   33.5466   -6.2494 H   0  0  0  0  0  0
   18.7887   36.5676  -10.0957 H   0  0  0  0  0  0
   17.7568   34.4359  -12.3939 H   0  0  0  0  0  0
   13.9824   30.5666  -10.3596 H   0  0  0  0  0  0
   14.8839   29.0943   -9.9637 H   0  0  0  0  0  0
   13.2646   29.3806   -9.2651 H   0  0  0  0  0  0
   15.4023   30.0697   -6.3176 H   0  0  0  0  0  0
   14.0621   29.0955   -6.9100 H   0  0  0  0  0  0
   15.6818   28.7701   -7.4713 H   0  0  0  0  0  0
   16.5005   31.8084   -8.0091 H   0  0  0  0  0  0
   16.8996   30.2960   -8.7682 H   0  0  0  0  0  0
   16.2019   31.5775   -9.7463 H   0  0  0  0  0  0
  1  2  2  0  0  0
  1  4  1  0  0  0
  1 24  1  0  0  0
  2  3  1  0  0  0
  2 25  1  0  0  0
  3  6  2  0  0  0
  3 26  1  0  0  0
  4  5  2  0  0  0
  4 27  1  0  0  0
  5  6  1  0  0  0
  5  9  1  0  0  0
  6  7  1  0  0  0
  7  8  1  0  0  0
  7 28  1  0  0  0
  8  9  2  0  0  0
  8 20  1  0  0  0
  9 10  1  0  0  0
 10 11  1  0  0  0
 10 29  1  0  0  0
 10 30  1  0  0  0
 11 12  1  0  0  0
 11 13  1  0  0  0
 11 31  1  0  0  0
 12 14  2  0  0  0
 12 15  1  0  0  0
 12 16  1  0  0  0
 13 17  1  0  0  0
 13 18  2  0  0  0
 13 19  1  0  0  0
 15 32  1  0  0  0
 16 33  1  0  0  0
 17 34  1  0  0  0
 19 35  1  0  0  0
 20 21  1  0  0  0
 20 22  1  0  0  0
 20 23  1  0  0  0
 21 36  1  0  0  0
 21 37  1  0  0  0
 21 38  1  0  0  0
 22 39  1  0  0  0
 22 40  1  0  0  0
 22 41  1  0  0  0
 23 42  1  0  0  0
 23 43  1  0  0  0
 23 44  1  0  0  0
M  END
> <s_m_entry_id>
3029

> <s_m_entry_name>
dock_pv.44

> <s_m_Source_Path>
/home/csk/Desktop/cluster/DUD-E-result/fpps

> <s_m_Source_File>
dock_pv.maegz

> <i_m_Source_File_Index>
44

> <chembl_id>
CHEMBL3410288

> <chembl_pref_name>
None

> <i_lp_mmshare_version>
53161

> <r_lp_tautomer_probability>
1

> <s_lp_Force_Field>
OPLS_2005

> <r_lp_Energy>
8.824584

> <b_lp_Chiralities_Consistent>
1

> <s_lp_Variant>
CHEMBL1782_lig11-1

> <s_i_glide_gridfile>
glide-grid_1zw5

> <i_i_glide_lignum>
15

> <i_i_glide_rotatable_bonds>
9

> <r_i_docking_score>
-8.47966096873004

> <r_i_glide_ligand_efficiency>
-0.368680911683915

> <r_i_glide_ligand_efficiency_sa>
-1.04847946974362

> <r_i_glide_ligand_efficiency_ln>
-2.05045891155354

> <r_i_glide_gscore>
-8.47966096873004

> <r_i_glide_lipo>
-0.306068321893376

> <r_i_glide_hbond>
-0.249163822173051

> <r_i_glide_metal>
-2.3

> <r_i_glide_rewards>
-0.945905727272726

> <r_i_glide_evdw>
-20.5303039550781

> <r_i_glide_ecoul>
-45.056697845459

> <r_i_glide_erotb>
0.588091706216867

> <r_i_glide_esite>
-0.240099605853852

> <r_i_glide_emodel>
-113.79707612616

> <r_i_glide_energy>
-65.5870018005371

> <r_i_glide_einternal>
12.5072813034058

> <i_i_glide_confnum>
38

> <i_i_glide_posenum>
15

> <r_i_glide_eff_state_penalty>
0

> <s_user_duplicate_titles>
CHEMBL1782_lig11

> <i_f3d_flags>
0

> <s_m_subgroup_title>
dock_pv

> <s_m_subgroupid>
dock_pv

> <b_m_subgroup_collapsed>
1

$$$$
CHEMBL1782_lig91
                    3D
 Schrodinger Suite 2021-1.
 29 29  0  0  1  0            999 V2000
   16.2406   35.4988   -9.5549 C   0  0  0  0  0  0
   17.8234   34.9477  -10.3254 P   0  0  0  0  0  0
   16.0989   37.3325   -9.1688 P   0  0  0  0  0  0
   15.9662   34.6669   -8.3670 N   0  0  0  0  0  0
   14.9662   32.9453   -9.7106 N   0  0  0  0  0  0
   15.3808   33.3881   -8.4914 C   0  0  0  0  0  0
   18.0972   33.4447  -10.3581 O   0  0  0  0  0  0
   15.7040   38.1791  -10.3634 O   0  0  0  0  0  0
   14.8948   37.2783   -7.9972 O   0  0  0  0  0  0
   17.7001   35.7497  -11.8268 O   0  0  0  0  0  0
   18.9017   35.7779   -9.2687 O   0  0  0  0  0  0
   17.5660   37.7829   -8.4251 O   0  0  0  0  0  0
   15.2979   32.5748   -7.3554 C   0  0  0  0  0  0
   14.4401   31.6980   -9.7968 C   0  0  0  0  0  0
   14.8113   31.2678   -7.4784 C   0  0  0  0  0  0
   14.3607   30.8252   -8.7201 C   0  0  0  0  0  0
   14.8154   30.3116   -6.3036 C   0  0  0  0  0  0
   15.4405   35.3031  -10.2686 H   0  0  0  0  0  0
   15.7722   35.1497   -7.5009 H   0  0  0  0  0  0
   14.0129   36.9832   -8.3043 H   0  0  0  0  0  0
   18.1907   36.5966  -12.0355 H   0  0  0  0  0  0
   19.3853   36.5743   -9.5864 H   0  0  0  0  0  0
   17.8934   38.7037   -8.5405 H   0  0  0  0  0  0
   15.6641   32.9218   -6.4011 H   0  0  0  0  0  0
   14.0611   31.3822  -10.7523 H   0  0  0  0  0  0
   13.9578   29.8300   -8.8532 H   0  0  0  0  0  0
   15.0926   29.3093   -6.6330 H   0  0  0  0  0  0
   13.8265   30.2519   -5.8489 H   0  0  0  0  0  0
   15.5544   30.6056   -5.5587 H   0  0  0  0  0  0
  1  2  1  0  0  0
  1  3  1  0  0  0
  1  4  1  0  0  0
  1 18  1  0  0  0
  2  7  2  0  0  0
  2 10  1  0  0  0
  2 11  1  0  0  0
  3  8  2  0  0  0
  3  9  1  0  0  0
  3 12  1  0  0  0
  4  6  1  0  0  0
  4 19  1  0  0  0
  5  6  1  0  0  0
  5 14  2  0  0  0
  6 13  2  0  0  0
  9 20  1  0  0  0
 10 21  1  0  0  0
 11 22  1  0  0  0
 12 23  1  0  0  0
 13 15  1  0  0  0
 13 24  1  0  0  0
 14 16  1  0  0  0
 14 25  1  0  0  0
 15 16  2  0  0  0
 15 17  1  0  0  0
 16 26  1  0  0  0
 17 27  1  0  0  0
 17 28  1  0  0  0
 17 29  1  0  0  0
M  END
> <s_m_entry_id>
3030

> <s_m_entry_name>
dock_pv.45

> <s_m_Source_Path>
/home/csk/Desktop/cluster/DUD-E-result/fpps

> <s_m_Source_File>
dock_pv.maegz

> <i_m_Source_File_Index>
45

> <chembl_id>
CHEMBL55557

> <chembl_pref_name>
None

> <i_lp_mmshare_version>
53161

> <r_lp_tautomer_probability>
0.999999772200052

> <s_lp_Force_Field>
OPLS_2005

> <r_lp_Energy>
-7.507692

> <b_lp_Chiralities_Consistent>
1

> <s_lp_Variant>
CHEMBL1782_lig91-1

> <s_i_glide_gridfile>
glide-grid_1zw5

> <i_i_glide_lignum>
100

> <i_i_glide_rotatable_bonds>
8

> <r_i_docking_score>
-8.47597629484918

> <r_i_glide_ligand_efficiency>
-0.498586840873481

> <r_i_glide_ligand_efficiency_sa>
-1.2820071640717

> <r_i_glide_ligand_efficiency_ln>
-2.21119346461423

> <r_i_glide_gscore>
-8.47597629484918

> <r_i_glide_lipo>
-0.249293522720852

> <r_i_glide_hbond>
0

> <r_i_glide_metal>
-2.3

> <r_i_glide_rewards>
-1.63548632389997

> <r_i_glide_evdw>
-18.0042839050293

> <r_i_glide_ecoul>
-52.5598678588867

> <r_i_glide_erotb>
0.909017747023107

> <r_i_glide_esite>
-0.3

> <r_i_glide_emodel>
-118.236283615992

> <r_i_glide_energy>
-70.564151763916

> <r_i_glide_einternal>
16.6489868164062

> <i_i_glide_confnum>
23

> <i_i_glide_posenum>
312

> <r_i_glide_eff_state_penalty>
0

> <s_user_duplicate_titles>
CHEMBL1782_lig91,83275

> <i_f3d_flags>
0

> <s_m_subgroup_title>
dock_pv

> <s_m_subgroupid>
dock_pv

> <b_m_subgroup_collapsed>
1

$$$$
CHEMBL1782_lig217
                    3D
 Schrodinger Suite 2021-1.
 46 49  0  0  1  0            999 V2000
   16.0033   36.2641   -8.5058 C   0  0  0  0  0  0
   16.6285   34.9479   -8.7176 N   0  0  0  0  0  0
   15.8377   31.6671   -9.8147 C   0  0  0  0  0  0
   14.5614   31.3752   -9.4682 N   0  0  0  0  0  0
   13.9599   32.3190   -8.7397 C   0  0  0  0  0  0
   14.5688   33.5465   -8.3407 C   0  0  0  0  0  0
   15.8787   33.7678   -8.8498 C   0  0  0  0  0  0
   16.5228   32.8083   -9.5650 N   0  0  0  0  0  0
   13.7027   34.2888   -7.4855 C   0  0  0  0  0  0
   12.4563   33.7191   -7.3388 C   0  0  0  0  0  0
   12.2996   32.1882   -8.1785 S   0  0  0  0  0  0
   11.3346   34.2452   -6.5249 C   0  0  0  0  0  0
   10.1010   34.5704   -7.0856 C   0  0  0  0  0  0
    9.0910   35.0902   -6.2755 C   0  0  0  0  0  0
    9.3011   35.2802   -4.9091 C   0  0  0  0  0  0
   10.5459   34.9595   -4.3575 C   0  0  0  0  0  0
   11.5526   34.4523   -5.1670 C   0  0  0  0  0  0
    8.2491   35.7795   -4.1712 O   0  0  0  0  0  0
    8.4982   36.2080   -2.8355 C   0  0  0  0  0  0
    7.2883   36.3960   -1.9572 C   0  0  0  0  0  0
    8.2306   35.2432   -1.7069 C   0  0  0  0  0  0
   16.5011   37.1937   -9.9645 P   0  0  0  0  0  0
   15.7006   38.6446   -9.7752 O   0  0  0  0  0  0
   18.1610   37.3660   -9.5650 O   0  0  0  0  0  0
   16.1025   36.5800  -11.2857 O   0  0  0  0  0  0
   16.6646   36.9792   -6.9326 P   0  0  0  0  0  0
   17.0382   38.6012   -7.3072 O   0  0  0  0  0  0
   15.3008   36.9791   -5.9631 O   0  0  0  0  0  0
   17.8138   36.1801   -6.3649 O   0  0  0  0  0  0
   14.9191   36.2301   -8.5136 H   0  0  0  0  0  0
   17.3438   34.9920   -9.4327 H   0  0  0  0  0  0
   16.3590   30.9000  -10.3649 H   0  0  0  0  0  0
   13.9587   35.2183   -7.0116 H   0  0  0  0  0  0
    9.9322   34.4350   -8.1451 H   0  0  0  0  0  0
    8.1410   35.3574   -6.7139 H   0  0  0  0  0  0
   10.7426   35.0762   -3.3029 H   0  0  0  0  0  0
   12.5026   34.1842   -4.7349 H   0  0  0  0  0  0
    9.2870   36.9620   -2.7861 H   0  0  0  0  0  0
    7.2915   37.2470   -1.2740 H   0  0  0  0  0  0
    6.3011   36.1801   -2.3648 H   0  0  0  0  0  0
    7.9028   34.2326   -1.9497 H   0  0  0  0  0  0
    8.8700   35.2853   -0.8282 H   0  0  0  0  0  0
   16.2440   39.4847   -9.7760 H   0  0  0  0  0  0
   18.7778   37.6746  -10.2770 H   0  0  0  0  0  0
   17.6795   38.8762   -7.9971 H   0  0  0  0  0  0
   15.4065   37.0794   -4.9940 H   0  0  0  0  0  0
  1  2  1  0  0  0
  1 22  1  0  0  0
  1 26  1  0  0  0
  1 30  1  0  0  0
  2  7  1  0  0  0
  2 31  1  0  0  0
  3  4  1  0  0  0
  3  8  2  0  0  0
  3 32  1  0  0  0
  4  5  2  0  0  0
  5  6  1  0  0  0
  5 11  1  0  0  0
  6  7  2  0  0  0
  6  9  1  0  0  0
  7  8  1  0  0  0
  9 10  2  0  0  0
  9 33  1  0  0  0
 10 11  1  0  0  0
 10 12  1  0  0  0
 12 13  1  0  0  0
 12 17  2  0  0  0
 13 14  2  0  0  0
 13 34  1  0  0  0
 14 15  1  0  0  0
 14 35  1  0  0  0
 15 16  2  0  0  0
 15 18  1  0  0  0
 16 17  1  0  0  0
 16 36  1  0  0  0
 17 37  1  0  0  0
 18 19  1  0  0  0
 19 20  1  0  0  0
 19 21  1  0  0  0
 19 38  1  0  0  0
 20 21  1  0  0  0
 20 39  1  0  0  0
 20 40  1  0  0  0
 21 41  1  0  0  0
 21 42  1  0  0  0
 22 23  1  0  0  0
 22 24  1  0  0  0
 22 25  2  0  0  0
 23 43  1  0  0  0
 24 44  1  0  0  0
 26 27  1  0  0  0
 26 28  1  0  0  0
 26 29  2  0  0  0
 27 45  1  0  0  0
 28 46  1  0  0  0
M  END
> <s_m_entry_id>
3031

> <s_m_entry_name>
dock_pv.46

> <s_m_Source_Path>
/home/csk/Desktop/cluster/DUD-E-result/fpps

> <s_m_Source_File>
dock_pv.maegz

> <i_m_Source_File_Index>
46

> <chembl_id>
CHEMBL3087936

> <chembl_pref_name>
None

> <i_lp_mmshare_version>
53161

> <r_lp_tautomer_probability>
1

> <s_lp_Force_Field>
OPLS_2005

> <r_lp_Energy>
9.284575

> <b_lp_Chiralities_Consistent>
1

> <s_lp_Variant>
CHEMBL1782_lig217-1

> <s_i_glide_gridfile>
glide-grid_1zw5

> <i_i_glide_lignum>
242

> <i_i_glide_rotatable_bonds>
11

> <r_i_docking_score>
-8.47349282991864

> <r_i_glide_ligand_efficiency>
-0.292189407928229

> <r_i_glide_ligand_efficiency_sa>
-0.897698433257478

> <r_i_glide_ligand_efficiency_ln>
-1.94021498881263

> <r_i_glide_gscore>
-8.47349282991864

> <r_i_glide_lipo>
-0.532468039123862

> <r_i_glide_hbond>
-0.0719307836598258

> <r_i_glide_metal>
-2.3

> <r_i_glide_rewards>
-0.287996818505288

> <r_i_glide_evdw>
-31.0787601470947

> <r_i_glide_ecoul>
-49.2463760375977

> <r_i_glide_erotb>
0.67284081872507

> <r_i_glide_esite>
-0.4

> <r_i_glide_emodel>
-119.769775765657

> <r_i_glide_energy>
-80.3251361846924

> <r_i_glide_einternal>
28.141580581665

> <i_i_glide_confnum>
155

> <i_i_glide_posenum>
53

> <r_i_glide_eff_state_penalty>
0

> <s_user_duplicate_titles>
CHEMBL1782_lig217

> <i_f3d_flags>
0

> <s_m_subgroup_title>
dock_pv

> <s_m_subgroupid>
dock_pv

> <b_m_subgroup_collapsed>
1

$$$$
CHEMBL1782_lig119
                    3D
 Schrodinger Suite 2021-1.
 29 29  0  0  1  0            999 V2000
   14.8017   30.9333   -8.2394 C   0  0  0  0  0  0
   14.8924   31.3502   -9.5650 C   0  0  0  0  0  0
   15.0853   32.6470   -9.9183 N   0  0  0  0  0  0
   15.2149   33.5703   -8.9322 C   0  0  0  0  0  0
   15.0862   33.2393   -7.5718 C   0  0  0  0  0  0
   14.8919   31.8943   -7.2339 C   0  0  0  0  0  0
   15.3760   34.8900   -9.3708 N   0  0  0  0  0  0
   16.6639   35.5698   -9.1908 C   0  0  0  0  0  0
   16.3596   37.4235   -9.1109 P   0  0  0  0  0  0
   17.8742   34.8843  -10.4336 P   0  0  0  0  0  0
   17.3010   35.5068  -11.9149 O   0  0  0  0  0  0
   19.2563   35.7800  -10.0080 O   0  0  0  0  0  0
   18.1010   33.3800  -10.3650 O   0  0  0  0  0  0
   17.9064   38.0412   -8.7650 O   0  0  0  0  0  0
   15.3010   37.8969   -8.1510 O   0  0  0  0  0  0
   16.1010   37.8501  -10.7650 O   0  0  0  0  0  0
   15.0843   34.2923   -6.4767 C   0  0  0  0  0  0
   14.6411   29.8917   -7.9989 H   0  0  0  0  0  0
   14.7989   30.6312  -10.3650 H   0  0  0  0  0  0
   14.7937   31.5906   -6.2017 H   0  0  0  0  0  0
   14.9436   35.0579  -10.2673 H   0  0  0  0  0  0
   17.0644   35.2805   -8.2139 H   0  0  0  0  0  0
   17.7732   36.2452  -12.3672 H   0  0  0  0  0  0
   19.5875   36.5182  -10.5716 H   0  0  0  0  0  0
   18.1010   38.9926   -8.9455 H   0  0  0  0  0  0
   16.8577   38.3316  -11.2056 H   0  0  0  0  0  0
   14.5007   35.1609   -6.7850 H   0  0  0  0  0  0
   16.1010   34.6192   -6.2724 H   0  0  0  0  0  0
   14.6268   33.9081   -5.5651 H   0  0  0  0  0  0
  1  6  1  0  0  0
  1  2  2  0  0  0
  1 18  1  0  0  0
  2  3  1  0  0  0
  2 19  1  0  0  0
  3  4  2  0  0  0
  4  5  1  0  0  0
  4  7  1  0  0  0
  5  6  2  0  0  0
  5 17  1  0  0  0
  6 20  1  0  0  0
  7  8  1  0  0  0
  7 21  1  0  0  0
  8  9  1  0  0  0
  8 10  1  0  0  0
  8 22  1  0  0  0
  9 14  1  0  0  0
  9 15  2  0  0  0
  9 16  1  0  0  0
 10 11  1  0  0  0
 10 12  1  0  0  0
 10 13  2  0  0  0
 11 23  1  0  0  0
 12 24  1  0  0  0
 14 25  1  0  0  0
 16 26  1  0  0  0
 17 27  1  0  0  0
 17 28  1  0  0  0
 17 29  1  0  0  0
M  END
> <s_m_entry_id>
3032

> <s_m_entry_name>
dock_pv.47

> <s_m_Source_Path>
/home/csk/Desktop/cluster/DUD-E-result/fpps

> <s_m_Source_File>
dock_pv.maegz

> <i_m_Source_File_Index>
47

> <chembl_id>
CHEMBL55140

> <chembl_pref_name>
None

> <i_lp_mmshare_version>
53161

> <r_lp_tautomer_probability>
0.999999772200052

> <s_lp_Force_Field>
OPLS_2005

> <r_lp_Energy>
-8.509968

> <b_lp_Chiralities_Consistent>
1

> <s_lp_Variant>
CHEMBL1782_lig119-1

> <s_i_glide_gridfile>
glide-grid_1zw5

> <i_i_glide_lignum>
131

> <i_i_glide_rotatable_bonds>
8

> <r_i_docking_score>
-8.46767577854224

> <r_i_glide_ligand_efficiency>
-0.498098575208367

> <r_i_glide_ligand_efficiency_sa>
-1.28075169555682

> <r_i_glide_ligand_efficiency_ln>
-2.20902804475316

> <r_i_glide_gscore>
-8.46767577854224

> <r_i_glide_lipo>
0

> <r_i_glide_hbond>
-0.0360926068106023

> <r_i_glide_metal>
-2.3

> <r_i_glide_rewards>
-1.63549431818182

> <r_i_glide_evdw>
-22.710075378418

> <r_i_glide_ecoul>
-41.1978912353516

> <r_i_glide_erotb>
0.909017747023107

> <r_i_glide_esite>
-0.269602831652026

> <r_i_glide_emodel>
-106.530390864774

> <r_i_glide_energy>
-63.9079666137695

> <r_i_glide_einternal>
28.6445560455322

> <i_i_glide_confnum>
37

> <i_i_glide_posenum>
37

> <r_i_glide_eff_state_penalty>
0

> <s_user_duplicate_titles>
CHEMBL1782_lig119,83274

> <i_f3d_flags>
0

> <s_m_subgroup_title>
dock_pv

> <s_m_subgroupid>
dock_pv

> <b_m_subgroup_collapsed>
1

$$$$
CHEMBL1782_lig159
                    3D
 Schrodinger Suite 2021-1.
 25 25  0  0  1  0            999 V2000
   16.7286   35.6790   -9.1125 C   0  0  0  0  0  0
   18.0120   35.2110  -10.3758 P   0  0  0  0  0  0
   16.3552   37.5075   -9.1129 P   0  0  0  0  0  0
   17.3049   35.7744  -11.8261 O   0  0  0  0  0  0
   19.2692   36.2585   -9.9646 O   0  0  0  0  0  0
   18.5009   33.7792  -10.3642 O   0  0  0  0  0  0
   15.4885   37.7297   -7.6655 O   0  0  0  0  0  0
   15.7020   38.0670  -10.3612 O   0  0  0  0  0  0
   17.8640   38.1800   -8.7652 O   0  0  0  0  0  0
   15.3914   34.9207   -9.3352 C   0  0  0  0  0  0
   15.4238   33.5155   -8.9421 N   0  0  0  0  0  0
   15.8546   32.5800   -9.8040 N   0  0  0  0  0  0
   15.7010   31.4406   -9.1660 C   0  0  0  0  0  0
   15.1841   31.6148   -7.8799 C   0  0  0  0  0  0
   15.0086   32.9781   -7.7497 C   0  0  0  0  0  0
   17.1376   35.4083   -8.1300 H   0  0  0  0  0  0
   17.7490   36.5042  -12.3244 H   0  0  0  0  0  0
   19.4686   37.0268  -10.5578 H   0  0  0  0  0  0
   15.8003   38.3888   -7.0146 H   0  0  0  0  0  0
   18.0552   39.0886   -9.1128 H   0  0  0  0  0  0
   14.5823   35.3813   -8.7650 H   0  0  0  0  0  0
   15.0837   34.9799  -10.3795 H   0  0  0  0  0  0
   15.9550   30.4905   -9.6146 H   0  0  0  0  0  0
   14.9618   30.8457   -7.1528 H   0  0  0  0  0  0
   14.6205   33.5905   -6.9499 H   0  0  0  0  0  0
  1 10  1  0  0  0
  1  3  1  0  0  0
  1  2  1  0  0  0
  1 16  1  0  0  0
  2  5  1  0  0  0
  2  6  2  0  0  0
  2  4  1  0  0  0
  3  8  2  0  0  0
  3  9  1  0  0  0
  3  7  1  0  0  0
  4 17  1  0  0  0
  5 18  1  0  0  0
  7 19  1  0  0  0
  9 20  1  0  0  0
 10 11  1  0  0  0
 10 21  1  0  0  0
 10 22  1  0  0  0
 11 12  1  0  0  0
 11 15  1  0  0  0
 12 13  2  0  0  0
 13 14  1  0  0  0
 13 23  1  0  0  0
 14 15  2  0  0  0
 14 24  1  0  0  0
 15 25  1  0  0  0
M  END
> <s_m_entry_id>
3033

> <s_m_entry_name>
dock_pv.48

> <s_m_Source_Path>
/home/csk/Desktop/cluster/DUD-E-result/fpps

> <s_m_Source_File>
dock_pv.maegz

> <i_m_Source_File_Index>
48

> <chembl_id>
CHEMBL457069

> <chembl_pref_name>
None

> <i_lp_mmshare_version>
53161

> <r_lp_tautomer_probability>
1

> <s_lp_Force_Field>
OPLS_2005

> <r_lp_Energy>
-4.574973

> <b_lp_Chiralities_Consistent>
1

> <s_lp_Variant>
CHEMBL1782_lig159-1

> <s_i_glide_gridfile>
glide-grid_1zw5

> <i_i_glide_lignum>
180

> <i_i_glide_rotatable_bonds>
8

> <r_i_docking_score>
-8.46061422695089

> <r_i_glide_ligand_efficiency>
-0.564040948463393

> <r_i_glide_ligand_efficiency_sa>
-1.39104459626156

> <r_i_glide_ligand_efficiency_ln>
-2.2816881563351

> <r_i_glide_gscore>
-8.46061422695089

> <r_i_glide_lipo>
0

> <r_i_glide_hbond>
0

> <r_i_glide_metal>
-2.3

> <r_i_glide_rewards>
-1.81302122727273

> <r_i_glide_evdw>
-17.5654850006104

> <r_i_glide_ecoul>
-46.8618583679199

> <r_i_glide_erotb>
0.805998623108751

> <r_i_glide_esite>
-0.275317372756401

> <r_i_glide_emodel>
-111.997814530086

> <r_i_glide_energy>
-64.4273433685303

> <r_i_glide_einternal>
18.0660419464111

> <i_i_glide_confnum>
3

> <i_i_glide_posenum>
21

> <r_i_glide_eff_state_penalty>
0

> <s_user_duplicate_titles>
CHEMBL1782_lig159

> <i_f3d_flags>
0

> <s_m_subgroup_title>
dock_pv

> <s_m_subgroupid>
dock_pv

> <b_m_subgroup_collapsed>
1

$$$$
CHEMBL1782_lig83
                    3D
 Schrodinger Suite 2021-1.
 42 41  0  0  1  0            999 V2000
   16.4897   35.4024   -9.2732 C   0  0  0  0  0  0
   17.8233   34.8617  -10.4390 P   0  0  0  0  0  0
   16.2646   37.2657   -9.3426 P   0  0  0  0  0  0
   15.2225   34.5640   -9.5775 C   0  0  0  0  0  0
   17.3010   35.4502  -11.9522 O   0  0  0  0  0  0
   18.1010   33.3791  -10.3650 O   0  0  0  0  0  0
   16.1010   37.7800  -10.7625 O   0  0  0  0  0  0
   16.9010   35.0270   -7.9650 O   0  0  0  0  0  0
   19.1270   35.7887   -9.8664 O   0  0  0  0  0  0
   14.9010   37.5295   -8.3661 O   0  0  0  0  0  0
   17.6385   37.8552   -8.5293 O   0  0  0  0  0  0
   14.1022   34.5295   -8.5047 C   0  0  0  0  0  0
   13.1799   33.4181   -8.7650 N   0  0  1  0  0  0
   13.2068   32.3965   -7.7124 C   0  0  0  0  0  0
   11.8136   33.8973   -8.9679 C   0  0  0  0  0  0
   14.4516   31.4919   -7.8038 C   0  0  0  0  0  0
   15.6652   29.5261   -6.6541 C   0  0  0  0  0  0
   14.7780   30.7692   -6.4841 C   0  0  0  0  0  0
   14.9272   28.2999   -7.2197 C   0  0  0  0  0  0
   15.4772   33.5388   -9.8526 H   0  0  0  0  0  0
   14.8434   34.9731  -10.5068 H   0  0  0  0  0  0
   17.7152   36.2489  -12.3604 H   0  0  0  0  0  0
   16.5010   34.1638   -7.7776 H   0  0  0  0  0  0
   19.4955   36.5280  -10.4051 H   0  0  0  0  0  0
   14.0085   37.2651   -8.6917 H   0  0  0  0  0  0
   17.9710   38.7573   -8.7381 H   0  0  0  0  0  0
   13.5660   35.4743   -8.4980 H   0  0  0  0  0  0
   14.5180   34.4709   -7.4982 H   0  0  0  0  0  0
   12.3365   31.7449   -7.8224 H   0  0  0  0  0  0
   13.1054   32.8402   -6.7202 H   0  0  0  0  0  0
   11.7699   34.5800   -9.8163 H   0  0  0  0  0  0
   11.1416   33.0690   -9.1983 H   0  0  0  0  0  0
   11.4290   34.4148   -8.0877 H   0  0  0  0  0  0
   15.3262   31.9969   -8.2099 H   0  0  0  0  0  0
   14.2088   30.7284   -8.5441 H   0  0  0  0  0  0
   16.1010   29.2631   -5.6891 H   0  0  0  0  0  0
   16.5006   29.7800   -7.3033 H   0  0  0  0  0  0
   13.8604   30.4860   -5.9650 H   0  0  0  0  0  0
   15.3003   31.4752   -5.8360 H   0  0  0  0  0  0
   15.5861   27.4317   -7.2548 H   0  0  0  0  0  0
   14.5682   28.4731   -8.2344 H   0  0  0  0  0  0
   14.0662   28.0327   -6.6057 H   0  0  0  0  0  0
  1  2  1  0  0  0
  1  3  1  0  0  0
  1  4  1  0  0  0
  1  8  1  0  0  0
  2  5  1  0  0  0
  2  6  2  0  0  0
  2  9  1  0  0  0
  3  7  2  0  0  0
  3 10  1  0  0  0
  3 11  1  0  0  0
  4 12  1  0  0  0
  4 20  1  0  0  0
  4 21  1  0  0  0
  5 22  1  0  0  0
  8 23  1  0  0  0
  9 24  1  0  0  0
 10 25  1  0  0  0
 11 26  1  0  0  0
 12 13  1  0  0  0
 12 27  1  0  0  0
 12 28  1  0  0  0
 13 14  1  0  0  0
 13 15  1  0  0  0
 14 16  1  0  0  0
 14 29  1  0  0  0
 14 30  1  0  0  0
 15 31  1  0  0  0
 15 32  1  0  0  0
 15 33  1  0  0  0
 16 18  1  0  0  0
 16 34  1  0  0  0
 16 35  1  0  0  0
 17 18  1  0  0  0
 17 19  1  0  0  0
 17 36  1  0  0  0
 17 37  1  0  0  0
 18 38  1  0  0  0
 18 39  1  0  0  0
 19 40  1  0  0  0
 19 41  1  0  0  0
 19 42  1  0  0  0
M  END
> <s_m_entry_id>
3034

> <s_m_entry_name>
dock_pv.49

> <s_m_Source_Path>
/home/csk/Desktop/cluster/DUD-E-result/fpps

> <s_m_Source_File>
dock_pv.maegz

> <i_m_Source_File_Index>
49

> <chembl_id>
CHEMBL997

> <chembl_pref_name>
IBANDRONIC ACID

> <i_lp_mmshare_version>
53161

> <r_lp_tautomer_probability>
1

> <s_lp_Force_Field>
OPLS_2005

> <r_lp_Energy>
-1.700175

> <b_lp_Chiralities_Consistent>
1

> <s_lp_Variant>
CHEMBL1782_lig83-1

> <s_i_glide_gridfile>
glide-grid_1zw5

> <i_i_glide_lignum>
91

> <i_i_glide_rotatable_bonds>
14

> <r_i_docking_score>
-8.45790286413524

> <r_i_glide_ligand_efficiency>
-0.445152782322908

> <r_i_glide_ligand_efficiency_sa>
-1.18784641711776

> <r_i_glide_ligand_efficiency_ln>
-2.14426003515527

> <r_i_glide_gscore>
-8.45790286413524

> <r_i_glide_lipo>
-0.810428852702833

> <r_i_glide_hbond>
0

> <r_i_glide_metal>
-2.3

> <r_i_glide_rewards>
-1.23252995454545

> <r_i_glide_evdw>
-18.8025035858154

> <r_i_glide_ecoul>
-51.5967674255371

> <r_i_glide_erotb>
1.02518112240382

> <r_i_glide_esite>
-0.2

> <r_i_glide_emodel>
-123.096934246236

> <r_i_glide_energy>
-70.3992710113525

> <r_i_glide_einternal>
32.2305755615234

> <i_i_glide_confnum>
212

> <i_i_glide_posenum>
337

> <r_i_glide_eff_state_penalty>
0

> <s_user_duplicate_titles>
CHEMBL1782_lig83,110435

> <i_f3d_flags>
0

> <s_m_subgroup_title>
dock_pv

> <s_m_subgroupid>
dock_pv

> <b_m_subgroup_collapsed>
1

$$$$
CHEMBL1782_lig197
                    3D
 Schrodinger Suite 2021-1.
 32 32  0  0  1  0            999 V2000
   15.0014   32.0562   -7.0336 C   0  0  0  0  0  0
   14.3740   30.8572   -7.3060 N   0  0  0  0  0  0
   13.5269   31.0820   -8.3826 C   0  0  0  0  0  0
   13.6714   32.4117   -8.7764 C   0  0  0  0  0  0
   14.6119   33.0149   -7.9511 N   0  3  0  0  0  0
   14.5394   29.6212   -6.5416 C   0  0  0  0  0  0
   15.0648   34.4116   -7.9866 C   0  0  0  0  0  0
   15.5552   34.8951   -9.3854 C   0  0  0  0  0  0
   16.9010   33.8588  -10.0765 P   0  0  0  0  0  0
   18.1010   33.7800   -9.1650 O   0  0  0  0  0  0
   16.2084   32.3324  -10.3650 O   0  0  0  0  0  0
   17.2586   34.5800  -11.5808 O   0  0  0  0  0  0
   16.1010   36.6906   -9.3569 P   0  0  0  0  0  0
   14.9010   37.3784   -8.3650 O   0  0  0  0  0  0
   16.1010   37.3031  -10.7498 O   0  0  0  0  0  0
   17.6306   36.6337   -8.5565 O   0  0  0  0  0  0
   14.6384   28.3784   -7.4456 C   0  0  0  0  0  0
   15.7009   32.2064   -6.2238 H   0  0  0  0  0  0
   12.9008   30.2841   -8.7650 H   0  0  0  0  0  0
   13.1833   32.9702   -9.5650 H   0  0  0  0  0  0
   13.7010   29.5295   -5.8503 H   0  0  0  0  0  0
   15.4443   29.7049   -5.9361 H   0  0  0  0  0  0
   14.2204   35.0183   -7.6571 H   0  0  0  0  0  0
   15.8507   34.5363   -7.2410 H   0  0  0  0  0  0
   14.7120   34.7919  -10.0651 H   0  0  0  0  0  0
   15.7009   31.8244   -9.7002 H   0  0  0  0  0  0
   17.5347   35.5158  -11.7036 H   0  0  0  0  0  0
   18.2531   37.3800   -8.7152 H   0  0  0  0  0  0
   14.8631   27.4880   -6.8565 H   0  0  0  0  0  0
   15.4238   28.4799   -8.1955 H   0  0  0  0  0  0
   13.7011   28.1801   -7.9650 H   0  0  0  0  0  0
   13.9663   37.3800   -8.6838 H   0  0  0  0  0  0
  1  2  1  0  0  0
  1  5  2  0  0  0
  1 18  1  0  0  0
  2  3  1  0  0  0
  2  6  1  0  0  0
  3  4  2  0  0  0
  3 19  1  0  0  0
  4  5  1  0  0  0
  4 20  1  0  0  0
  5  7  1  0  0  0
  6 17  1  0  0  0
  6 21  1  0  0  0
  6 22  1  0  0  0
  7  8  1  0  0  0
  7 23  1  0  0  0
  7 24  1  0  0  0
  8  9  1  0  0  0
  8 13  1  0  0  0
  8 25  1  0  0  0
  9 10  2  0  0  0
  9 11  1  0  0  0
  9 12  1  0  0  0
 11 26  1  0  0  0
 12 27  1  0  0  0
 13 14  1  0  0  0
 13 15  2  0  0  0
 13 16  1  0  0  0
 14 32  1  0  0  0
 16 28  1  0  0  0
 17 29  1  0  0  0
 17 30  1  0  0  0
 17 31  1  0  0  0
M  CHG  1   5   1
M  END
> <s_m_entry_id>
3035

> <s_m_entry_name>
dock_pv.50

> <s_m_Source_Path>
/home/csk/Desktop/cluster/DUD-E-result/fpps

> <s_m_Source_File>
dock_pv.maegz

> <i_m_Source_File_Index>
50

> <chembl_id>
CHEMBL2338370

> <chembl_pref_name>
None

> <i_lp_mmshare_version>
53161

> <r_lp_tautomer_probability>
1

> <s_lp_Force_Field>
OPLS_2005

> <r_lp_Energy>
0.757171

> <b_lp_Chiralities_Consistent>
1

> <s_lp_Variant>
CHEMBL1782_lig197-1

> <s_i_glide_gridfile>
glide-grid_1zw5

> <i_i_glide_lignum>
221

> <i_i_glide_rotatable_bonds>
9

> <r_i_docking_score>
-8.45461357390674

> <r_i_glide_ligand_efficiency>
-0.497330210229809

> <r_i_glide_ligand_efficiency_sa>
-1.27877601283441

> <r_i_glide_ligand_efficiency_ln>
-2.20562040644476

> <r_i_glide_gscore>
-8.45461357390674

> <r_i_glide_lipo>
-0.628999676774649

> <r_i_glide_hbond>
0

> <r_i_glide_metal>
-2.3

> <r_i_glide_rewards>
-1.16487736363636

> <r_i_glide_evdw>
-14.5758981704712

> <r_i_glide_ecoul>
-48.0886688232422

> <r_i_glide_erotb>
0.62462208942175

> <r_i_glide_esite>
-0.256563714393923

> <r_i_glide_emodel>
-105.138213984437

> <r_i_glide_energy>
-62.6645669937134

> <r_i_glide_einternal>
7.32997798919678

> <i_i_glide_confnum>
32

> <i_i_glide_posenum>
70

> <r_i_glide_eff_state_penalty>
0

> <s_user_duplicate_titles>
CHEMBL1782_lig197

> <i_f3d_flags>
0

> <s_m_subgroup_title>
dock_pv

> <s_m_subgroupid>
dock_pv

> <b_m_subgroup_collapsed>
1

$$$$
CHEMBL1782_lig40
                    3D
 Schrodinger Suite 2021-1.
 37 38  0  0  1  0            999 V2000
   16.8672   35.6977   -9.0164 C   0  0  0  0  0  0
   15.6846   34.8344   -9.0858 N   0  0  0  0  0  0
   14.7029   34.6796   -8.1269 C   0  0  0  0  0  0
   16.4304   37.5161   -9.1226 P   0  0  0  0  0  0
   18.0754   35.1897  -10.3572 P   0  0  0  0  0  0
   13.6770   33.7629   -8.2659 N   0  0  0  0  0  0
   14.5816   35.3800   -7.0193 N   0  0  0  0  0  0
   13.4456   34.9799   -6.4741 C   0  0  0  0  0  0
   12.8358   33.9967   -7.2121 C   0  0  0  0  0  0
   15.7010   37.9897  -10.3650 O   0  0  0  0  0  0
   18.5002   33.7383  -10.3650 O   0  0  0  0  0  0
   13.5141   32.7031   -9.2448 C   0  0  0  0  0  0
   15.7090   37.9108   -7.6288 O   0  0  0  0  0  0
   17.3229   35.7793  -11.7737 O   0  0  0  0  0  0
   17.9676   38.1800   -8.9873 O   0  0  0  0  0  0
   19.3897   36.1800   -9.9650 O   0  0  0  0  0  0
   14.0396   31.3630   -8.7460 C   0  0  0  0  0  0
   13.6575   30.8502   -7.4994 C   0  0  0  0  0  0
   14.8827   30.6191   -9.5650 C   0  0  0  0  0  0
   15.3010   29.3592   -9.1650 C   0  0  0  0  0  0
   14.1010   29.5982   -7.0876 C   0  0  0  0  0  0
   14.9026   28.8460   -7.9342 C   0  0  0  0  0  0
   17.3457   35.4918   -8.0530 H   0  0  0  0  0  0
   15.3939   34.6934  -10.0432 H   0  0  0  0  0  0
   13.0421   35.3867   -5.5651 H   0  0  0  0  0  0
   11.9262   33.4289   -7.0784 H   0  0  0  0  0  0
   12.4519   32.6038   -9.4723 H   0  0  0  0  0  0
   14.0020   33.0027  -10.1723 H   0  0  0  0  0  0
   16.1010   38.6025   -7.0605 H   0  0  0  0  0  0
   17.7558   36.5179  -12.2695 H   0  0  0  0  0  0
   18.1008   39.0883   -9.3720 H   0  0  0  0  0  0
   19.6049   36.9578  -10.5361 H   0  0  0  0  0  0
   12.9933   31.3931   -6.8466 H   0  0  0  0  0  0
   15.1847   30.9927  -10.5289 H   0  0  0  0  0  0
   15.9177   28.7685   -9.8236 H   0  0  0  0  0  0
   13.7868   29.1960   -6.1353 H   0  0  0  0  0  0
   15.2208   27.8573   -7.6367 H   0  0  0  0  0  0
  1  2  1  0  0  0
  1  4  1  0  0  0
  1  5  1  0  0  0
  1 23  1  0  0  0
  2  3  1  0  0  0
  2 24  1  0  0  0
  3  6  1  0  0  0
  3  7  2  0  0  0
  4 10  2  0  0  0
  4 13  1  0  0  0
  4 15  1  0  0  0
  5 11  2  0  0  0
  5 14  1  0  0  0
  5 16  1  0  0  0
  6  9  1  0  0  0
  6 12  1  0  0  0
  7  8  1  0  0  0
  8  9  2  0  0  0
  8 25  1  0  0  0
  9 26  1  0  0  0
 12 17  1  0  0  0
 12 27  1  0  0  0
 12 28  1  0  0  0
 13 29  1  0  0  0
 14 30  1  0  0  0
 15 31  1  0  0  0
 16 32  1  0  0  0
 17 18  2  0  0  0
 17 19  1  0  0  0
 18 21  1  0  0  0
 18 33  1  0  0  0
 19 20  2  0  0  0
 19 34  1  0  0  0
 20 22  1  0  0  0
 20 35  1  0  0  0
 21 22  2  0  0  0
 21 36  1  0  0  0
 22 37  1  0  0  0
M  END
> <s_m_entry_id>
3036

> <s_m_entry_name>
dock_pv.51

> <s_m_Source_Path>
/home/csk/Desktop/cluster/DUD-E-result/fpps

> <s_m_Source_File>
dock_pv.maegz

> <i_m_Source_File_Index>
51

> <chembl_id>
CHEMBL318504

> <chembl_pref_name>
None

> <i_lp_mmshare_version>
53161

> <r_lp_tautomer_probability>
0.999996246217491

> <s_lp_Force_Field>
OPLS_2005

> <r_lp_Energy>
-6.507531

> <b_lp_Chiralities_Consistent>
1

> <s_lp_Variant>
CHEMBL1782_lig40-1

> <s_i_glide_gridfile>
glide-grid_1zw5

> <i_i_glide_lignum>
44

> <i_i_glide_rotatable_bonds>
10

> <r_i_docking_score>
-8.45428901652399

> <r_i_glide_ligand_efficiency>
-0.384285864387454

> <r_i_glide_ligand_efficiency_sa>
-1.07678410511909

> <r_i_glide_ligand_efficiency_ln>
-2.06653661332307

> <r_i_glide_gscore>
-8.45428901652399

> <r_i_glide_lipo>
-0.376840324252819

> <r_i_glide_hbond>
-0.0305246738505508

> <r_i_glide_metal>
-2.3

> <r_i_glide_rewards>
-1.04180895677591

> <r_i_glide_evdw>
-25.1511211395264

> <r_i_glide_ecoul>
-47.1033248901367

> <r_i_glide_erotb>
0.946747138884028

> <r_i_glide_esite>
-0.394306143552426

> <r_i_glide_emodel>
-118.759149408471

> <r_i_glide_energy>
-72.2544460296631

> <r_i_glide_einternal>
20.6863269805908

> <i_i_glide_confnum>
116

> <i_i_glide_posenum>
110

> <r_i_glide_eff_state_penalty>
0

> <s_user_duplicate_titles>
CHEMBL1782_lig40

> <i_f3d_flags>
0

> <s_m_subgroup_title>
dock_pv

> <s_m_subgroupid>
dock_pv

> <b_m_subgroup_collapsed>
1

$$$$
CHEMBL1782_lig144
                    3D
 Schrodinger Suite 2021-1.
 31 31  0  0  1  0            999 V2000
   16.6105   35.4458   -9.1189 C   0  0  1  0  0  0
   15.3492   34.7506   -9.4018 N   0  0  0  0  0  0
   17.8603   34.8761  -10.3652 P   0  0  0  0  0  0
   16.2666   37.2437   -9.1676 P   0  0  1  0  0  0
   15.1628   33.4433   -8.9413 C   0  0  0  0  0  0
   15.1328   32.5019   -9.9161 N   0  0  0  0  0  0
   18.1021   33.3799  -10.3591 O   0  0  0  0  0  0
   16.1063   37.7799  -10.5457 O   0  0  0  0  0  0
   14.9071   33.1399   -7.5919 C   0  0  0  0  0  0
   17.2994   35.5460  -11.8318 O   0  0  0  0  0  0
   19.1972   35.7801   -9.8258 O   0  0  0  0  0  0
   14.9015   37.3302   -8.3100 O   0  0  0  0  0  0
   17.4427   38.0883   -8.0485 C   0  0  0  0  0  0
   14.9087   31.2126   -9.5596 C   0  0  0  0  0  0
   14.8187   34.2148   -6.5210 C   0  0  0  0  0  0
   14.6772   31.8011   -7.2508 C   0  0  0  0  0  0
   14.6858   30.8208   -8.2420 C   0  0  0  0  0  0
   16.9770   35.1843   -8.1224 H   0  0  0  0  0  0
   15.0524   34.8509  -10.3613 H   0  0  0  0  0  0
   17.7462   36.3317  -12.2314 H   0  0  0  0  0  0
   19.5848   36.4947  -10.3842 H   0  0  0  0  0  0
   14.1177   37.0039   -8.8089 H   0  0  0  0  0  0
   17.4338   37.6630   -7.0468 H   0  0  0  0  0  0
   18.4545   38.0616   -8.4542 H   0  0  0  0  0  0
   17.1653   39.1400   -7.9657 H   0  0  0  0  0  0
   14.9017   30.4843  -10.3555 H   0  0  0  0  0  0
   14.1310   35.0001   -6.8347 H   0  0  0  0  0  0
   15.7930   34.6697   -6.3654 H   0  0  0  0  0  0
   14.4528   33.8154   -5.5766 H   0  0  0  0  0  0
   14.4750   31.5159   -6.2294 H   0  0  0  0  0  0
   14.5021   29.7836   -7.9988 H   0  0  0  0  0  0
  1  2  1  0  0  0
  1  3  1  0  0  0
  1  4  1  0  0  0
  1 18  1  0  0  0
  2  5  1  0  0  0
  2 19  1  0  0  0
  3  7  2  0  0  0
  3 10  1  0  0  0
  3 11  1  0  0  0
  4  8  2  0  0  0
  4 12  1  0  0  0
  4 13  1  0  0  0
  5  6  1  0  0  0
  5  9  2  0  0  0
  6 14  2  0  0  0
  9 15  1  0  0  0
  9 16  1  0  0  0
 10 20  1  0  0  0
 11 21  1  0  0  0
 12 22  1  0  0  0
 13 23  1  0  0  0
 13 24  1  0  0  0
 13 25  1  0  0  0
 14 17  1  0  0  0
 14 26  1  0  0  0
 15 27  1  0  0  0
 15 28  1  0  0  0
 15 29  1  0  0  0
 16 17  2  0  0  0
 16 30  1  0  0  0
 17 31  1  0  0  0
M  END
> <s_m_entry_id>
3037

> <s_m_entry_name>
dock_pv.52

> <s_m_Source_Path>
/home/csk/Desktop/cluster/DUD-E-result/fpps

> <s_m_Source_File>
dock_pv.maegz

> <i_m_Source_File_Index>
52

> <chembl_id>
CHEMBL100154

> <chembl_pref_name>
None

> <i_lp_mmshare_version>
53161

> <r_lp_tautomer_probability>
0.999999772200052

> <s_lp_Force_Field>
OPLS_2005

> <r_lp_Energy>
-5.832909

> <b_lp_Chiralities_Consistent>
1

> <s_lp_Variant>
CHEMBL1782_lig144-2

> <s_i_glide_gridfile>
glide-grid_1zw5

> <i_i_glide_lignum>
159

> <i_i_glide_rotatable_bonds>
7

> <r_i_docking_score>
-8.45248855385683

> <r_i_glide_ligand_efficiency>
-0.497205209050402

> <r_i_glide_ligand_efficiency_sa>
-1.2784545996033

> <r_i_glide_ligand_efficiency_ln>
-2.20506603603561

> <r_i_glide_gscore>
-8.45248855385683

> <r_i_glide_lipo>
0

> <r_i_glide_hbond>
-0.000574487822939317

> <r_i_glide_metal>
-2.3

> <r_i_glide_rewards>
-1.64894536363636

> <r_i_glide_evdw>
-23.1063194274902

> <r_i_glide_ecoul>
-36.8697319030762

> <r_i_glide_erotb>
0.920169539286194

> <r_i_glide_esite>
-0.267822270309212

> <r_i_glide_emodel>
-97.6146134477492

> <r_i_glide_energy>
-59.9760513305664

> <r_i_glide_einternal>
23.095890045166

> <i_i_glide_confnum>
11

> <i_i_glide_posenum>
172

> <r_i_glide_eff_state_penalty>
0

> <s_user_duplicate_titles>
CHEMBL1782_lig144,160317

> <i_f3d_flags>
0

> <s_m_subgroup_title>
dock_pv

> <s_m_subgroupid>
dock_pv

> <b_m_subgroup_collapsed>
1

$$$$
CHEMBL1782_lig144
                    3D
 Schrodinger Suite 2021-1.
 31 31  0  0  1  0            999 V2000
   16.6150   35.4781   -9.2868 C   0  0  2  0  0  0
   15.3010   34.8214   -9.3446 N   0  0  0  0  0  0
   16.3208   37.3196   -9.3465 P   0  0  0  0  0  0
   17.6952   34.7840  -10.6077 P   0  0  2  0  0  0
   14.9692   33.5055   -8.9625 C   0  0  0  0  0  0
   15.9639   32.6017   -8.7650 N   0  0  0  0  0  0
   16.1010   37.7978  -10.7650 O   0  0  0  0  0  0
   18.1010   33.3800  -10.3650 O   0  0  0  0  0  0
   13.6125   33.1452   -8.8305 C   0  0  0  0  0  0
   14.9250   37.5225   -8.3650 O   0  0  0  0  0  0
   17.7225   37.9322   -8.6057 O   0  0  0  0  0  0
   18.9692   35.7800  -10.5394 O   0  0  0  0  0  0
   17.0291   35.1520  -12.2722 C   0  0  0  0  0  0
   15.6363   31.3093   -8.5055 C   0  0  0  0  0  0
   12.4764   34.1539   -8.9611 C   0  0  0  0  0  0
   13.2995   31.8087   -8.5522 C   0  0  0  0  0  0
   14.3195   30.8734   -8.3984 C   0  0  0  0  0  0
   17.0711   35.2270   -8.3244 H   0  0  0  0  0  0
   14.5056   35.4124   -9.5650 H   0  0  0  0  0  0
   14.0378   37.2265   -8.6736 H   0  0  0  0  0  0
   18.0472   38.8247   -8.8670 H   0  0  0  0  0  0
   18.9010   36.6378  -11.0535 H   0  0  0  0  0  0
   16.9718   36.2194  -12.4677 H   0  0  0  0  0  0
   17.6969   34.7404  -13.0290 H   0  0  0  0  0  0
   16.0400   34.7187  -12.3982 H   0  0  0  0  0  0
   16.4526   30.6107   -8.3794 H   0  0  0  0  0  0
   12.6230   34.9800   -8.2659 H   0  0  0  0  0  0
   11.5038   33.7086   -8.7477 H   0  0  0  0  0  0
   12.4400   34.5716   -9.9650 H   0  0  0  0  0  0
   12.2716   31.4855   -8.4632 H   0  0  0  0  0  0
   14.0900   29.8363   -8.1957 H   0  0  0  0  0  0
  1  2  1  0  0  0
  1  3  1  0  0  0
  1  4  1  0  0  0
  1 18  1  0  0  0
  2  5  1  0  0  0
  2 19  1  0  0  0
  3  7  2  0  0  0
  3 10  1  0  0  0
  3 11  1  0  0  0
  4  8  2  0  0  0
  4 12  1  0  0  0
  4 13  1  0  0  0
  5  6  1  0  0  0
  5  9  2  0  0  0
  6 14  2  0  0  0
  9 15  1  0  0  0
  9 16  1  0  0  0
 10 20  1  0  0  0
 11 21  1  0  0  0
 12 22  1  0  0  0
 13 23  1  0  0  0
 13 24  1  0  0  0
 13 25  1  0  0  0
 14 17  1  0  0  0
 14 26  1  0  0  0
 15 27  1  0  0  0
 15 28  1  0  0  0
 15 29  1  0  0  0
 16 17  2  0  0  0
 16 30  1  0  0  0
 17 31  1  0  0  0
M  END
> <s_m_entry_id>
3038

> <s_m_entry_name>
dock_pv.53

> <s_m_Source_Path>
/home/csk/Desktop/cluster/DUD-E-result/fpps

> <s_m_Source_File>
dock_pv.maegz

> <i_m_Source_File_Index>
53

> <chembl_id>
CHEMBL100154

> <chembl_pref_name>
None

> <i_lp_mmshare_version>
53161

> <r_lp_tautomer_probability>
0.999999772200052

> <s_lp_Force_Field>
OPLS_2005

> <r_lp_Energy>
-7.201802

> <b_lp_Chiralities_Consistent>
1

> <s_lp_Variant>
CHEMBL1782_lig144-3

> <s_i_glide_gridfile>
glide-grid_1zw5

> <i_i_glide_lignum>
160

> <i_i_glide_rotatable_bonds>
7

> <r_i_docking_score>
-8.44880466612865

> <r_i_glide_ligand_efficiency>
-0.496988509772274

> <r_i_glide_ligand_efficiency_sa>
-1.27789740473927

> <r_i_glide_ligand_efficiency_ln>
-2.20410499176347

> <r_i_glide_gscore>
-8.44880466612865

> <r_i_glide_lipo>
0

> <r_i_glide_hbond>
-0.16

> <r_i_glide_metal>
-2.3

> <r_i_glide_rewards>
-1.49894536363636

> <r_i_glide_evdw>
-17.3392124176025

> <r_i_glide_ecoul>
-46.8415107727051

> <r_i_glide_erotb>
0.644118677500336

> <r_i_glide_esite>
-0.2670173591125

> <r_i_glide_emodel>
-111.878923665551

> <r_i_glide_energy>
-64.1807231903076

> <r_i_glide_einternal>
7.93613624572754

> <i_i_glide_confnum>
22

> <i_i_glide_posenum>
371

> <r_i_glide_eff_state_penalty>
0

> <s_user_duplicate_titles>
CHEMBL1782_lig144

> <i_f3d_flags>
0

> <s_m_subgroup_title>
dock_pv

> <s_m_subgroupid>
dock_pv

> <b_m_subgroup_collapsed>
1

$$$$
CHEMBL1782_lig139
                    3D
 Schrodinger Suite 2021-1.
 27 27  0  0  1  0            999 V2000
   15.3954   30.7936   -9.1650 C   0  0  0  0  0  0
   15.1263   30.6453   -7.8040 C   0  0  0  0  0  0
   14.8850   31.6990   -6.9833 N   0  0  0  0  0  0
   14.9010   32.9421   -7.5277 C   0  0  0  0  0  0
   15.1664   33.1856   -8.8811 C   0  0  0  0  0  0
   15.4154   32.0820   -9.7041 C   0  0  0  0  0  0
   15.1326   34.6071   -9.4390 C   0  0  0  0  0  0
   16.4119   35.4534   -9.1906 C   0  0  0  0  0  0
   17.8298   34.9370  -10.2491 P   0  0  0  0  0  0
   16.1211   37.3045   -9.0943 P   0  0  0  0  0  0
   14.9010   37.3408   -7.9650 O   0  0  0  0  0  0
   17.5254   35.7800  -11.6976 O   0  0  0  0  0  0
   18.1010   33.4396  -10.3650 O   0  0  0  0  0  0
   19.0489   35.7800   -9.3920 O   0  0  0  0  0  0
   17.5557   37.9136   -8.4076 O   0  0  0  0  0  0
   15.7010   38.0001  -10.3650 O   0  0  0  0  0  0
   16.9010   35.2266   -7.9650 F   0  0  0  0  0  0
   15.5792   29.9270   -9.7847 H   0  0  0  0  0  0
   15.0989   29.6642   -7.3512 H   0  0  0  0  0  0
   14.6892   33.7527   -6.8476 H   0  0  0  0  0  0
   15.6185   32.2184  -10.7548 H   0  0  0  0  0  0
   14.2683   35.0769   -8.9720 H   0  0  0  0  0  0
   14.9010   34.5799  -10.5030 H   0  0  0  0  0  0
   14.0190   37.0177   -8.2523 H   0  0  0  0  0  0
   18.0770   36.5647  -11.9650 H   0  0  0  0  0  0
   19.5200   36.5444   -9.7982 H   0  0  0  0  0  0
   17.8375   38.8336   -8.6139 H   0  0  0  0  0  0
  1  6  1  0  0  0
  1  2  2  0  0  0
  1 18  1  0  0  0
  2  3  1  0  0  0
  2 19  1  0  0  0
  3  4  2  0  0  0
  4  5  1  0  0  0
  4 20  1  0  0  0
  5  6  2  0  0  0
  5  7  1  0  0  0
  6 21  1  0  0  0
  7  8  1  0  0  0
  7 22  1  0  0  0
  7 23  1  0  0  0
  8  9  1  0  0  0
  8 10  1  0  0  0
  8 17  1  0  0  0
  9 12  1  0  0  0
  9 13  2  0  0  0
  9 14  1  0  0  0
 10 11  1  0  0  0
 10 15  1  0  0  0
 10 16  2  0  0  0
 11 24  1  0  0  0
 12 25  1  0  0  0
 14 26  1  0  0  0
 15 27  1  0  0  0
M  END
> <s_m_entry_id>
3039

> <s_m_entry_name>
dock_pv.54

> <s_m_Source_Path>
/home/csk/Desktop/cluster/DUD-E-result/fpps

> <s_m_Source_File>
dock_pv.maegz

> <i_m_Source_File_Index>
54

> <chembl_id>
CHEMBL437758

> <chembl_pref_name>
None

> <i_lp_mmshare_version>
53161

> <r_lp_tautomer_probability>
1

> <s_lp_Force_Field>
OPLS_2005

> <r_lp_Energy>
3.353455

> <b_lp_Chiralities_Consistent>
1

> <s_lp_Variant>
CHEMBL1782_lig139-1

> <s_i_glide_gridfile>
glide-grid_1zw5

> <i_i_glide_lignum>
151

> <i_i_glide_rotatable_bonds>
8

> <r_i_docking_score>
-8.44828985856902

> <r_i_glide_ligand_efficiency>
-0.496958226974648

> <r_i_glide_ligand_efficiency_sa>
-1.27781953913929

> <r_i_glide_ligand_efficiency_ln>
-2.20397068993536

> <r_i_glide_gscore>
-8.44828985856902

> <r_i_glide_lipo>
-0.100234281721469

> <r_i_glide_hbond>
0

> <r_i_glide_metal>
-2.3

> <r_i_glide_rewards>
-1.61520461590909

> <r_i_glide_evdw>
-16.0457000732422

> <r_i_glide_ecoul>
-48.2655181884766

> <r_i_glide_erotb>
0.669434042723646

> <r_i_glide_esite>
-0.3

> <r_i_glide_emodel>
-106.737422317535

> <r_i_glide_energy>
-64.3112182617188

> <r_i_glide_einternal>
18.5868358612061

> <i_i_glide_confnum>
21

> <i_i_glide_posenum>
128

> <r_i_glide_eff_state_penalty>
0

> <s_user_duplicate_titles>
CHEMBL1782_lig139,404492

> <i_f3d_flags>
0

> <s_m_subgroup_title>
dock_pv

> <s_m_subgroupid>
dock_pv

> <b_m_subgroup_collapsed>
1

$$$$
CHEMBL1782_lig263
                    3D
 Schrodinger Suite 2021-1.
 28 29  0  0  1  0            999 V2000
   17.8038   34.9662  -10.2408 P   0  0  0  0  0  0
   18.1010   33.4726  -10.3155 O   0  0  0  0  0  0
   17.7010   35.7800  -11.7339 O   0  0  0  0  0  0
   16.2643   37.3800   -9.1650 P   0  0  0  0  0  0
   16.1010   38.0382  -10.7650 O   0  0  0  0  0  0
   17.4427   37.8535   -8.3536 O   0  0  0  0  0  0
   12.5492   32.9450   -7.1355 N   0  0  0  0  0  0
   12.8878   34.2072   -6.7826 C   0  0  0  0  0  0
   14.0369   34.8642   -7.0728 N   0  0  0  0  0  0
   14.9524   34.2084   -7.8339 C   0  0  0  0  0  0
   16.1243   34.9376   -8.0961 N   0  0  0  0  0  0
   16.2253   35.5273   -9.4416 C   0  0  0  0  0  0
   18.9010   35.7800   -9.1930 O   0  0  0  0  0  0
   14.8049   37.6085   -8.3650 O   0  0  0  0  0  0
   13.4813   32.3053   -7.8466 C   0  0  0  0  0  0
   14.7312   32.8687   -8.2516 C   0  0  0  0  0  0
   15.5092   31.9177   -8.9796 C   0  0  0  0  0  0
   14.8788   30.6960   -9.1026 C   0  0  0  0  0  0
   13.3010   30.6395   -8.3650 S   0  0  0  0  0  0
   18.2496   36.5853  -11.9578 H   0  0  0  0  0  0
   16.9203   38.3534  -11.2338 H   0  0  0  0  0  0
   12.1482   34.7441   -6.2082 H   0  0  0  0  0  0
   16.1010   35.7132   -7.4448 H   0  0  0  0  0  0
   15.3679   35.2410  -10.0536 H   0  0  0  0  0  0
   19.3862   36.5820   -9.5026 H   0  0  0  0  0  0
   13.9901   37.1262   -8.6399 H   0  0  0  0  0  0
   16.4928   32.0930   -9.3649 H   0  0  0  0  0  0
   15.2564   29.7996   -9.5768 H   0  0  0  0  0  0
  1  2  2  0  0  0
  1  3  1  0  0  0
  1 12  1  0  0  0
  1 13  1  0  0  0
  3 20  1  0  0  0
  4  5  1  0  0  0
  4  6  2  0  0  0
  4 12  1  0  0  0
  4 14  1  0  0  0
  5 21  1  0  0  0
  7  8  2  0  0  0
  7 15  1  0  0  0
  8  9  1  0  0  0
  8 22  1  0  0  0
  9 10  2  0  0  0
 10 16  1  0  0  0
 10 11  1  0  0  0
 11 12  1  0  0  0
 11 23  1  0  0  0
 12 24  1  0  0  0
 13 25  1  0  0  0
 14 26  1  0  0  0
 15 16  2  0  0  0
 15 19  1  0  0  0
 16 17  1  0  0  0
 17 18  2  0  0  0
 17 27  1  0  0  0
 18 19  1  0  0  0
 18 28  1  0  0  0
M  END
> <s_m_entry_id>
3040

> <s_m_entry_name>
dock_pv.55

> <s_m_Source_Path>
/home/csk/Desktop/cluster/DUD-E-result/fpps

> <s_m_Source_File>
dock_pv.maegz

> <i_m_Source_File_Index>
55

> <chembl_id>
CHEMBL2347858

> <chembl_pref_name>
None

> <i_lp_mmshare_version>
53161

> <r_lp_tautomer_probability>
1

> <s_lp_Force_Field>
OPLS_2005

> <r_lp_Energy>
-4.926188

> <b_lp_Chiralities_Consistent>
1

> <s_lp_Variant>
CHEMBL1782_lig263-1

> <s_i_glide_gridfile>
glide-grid_1zw5

> <i_i_glide_lignum>
304

> <i_i_glide_rotatable_bonds>
8

> <r_i_docking_score>
-8.44597580011511

> <r_i_glide_ligand_efficiency>
-0.444525042111321

> <r_i_glide_ligand_efficiency_sa>
-1.18617135410384

> <r_i_glide_ligand_efficiency_ln>
-2.14123626825632

> <r_i_glide_gscore>
-8.44597580011511

> <r_i_glide_lipo>
0

> <r_i_glide_hbond>
0

> <r_i_glide_metal>
-2.3

> <r_i_glide_rewards>
-1.19197922727273

> <r_i_glide_evdw>
-22.4699306488037

> <r_i_glide_ecoul>
-46.4837913513184

> <r_i_glide_erotb>
0.531617436733495

> <r_i_glide_esite>
-0.36211747713569

> <r_i_glide_emodel>
-109.632157722003

> <r_i_glide_energy>
-68.9537220001221

> <r_i_glide_einternal>
24.0171413421631

> <i_i_glide_confnum>
19

> <i_i_glide_posenum>
14

> <r_i_glide_eff_state_penalty>
0

> <s_user_duplicate_titles>
CHEMBL1782_lig263

> <i_f3d_flags>
0

> <s_m_subgroup_title>
dock_pv

> <s_m_subgroupid>
dock_pv

> <b_m_subgroup_collapsed>
1

$$$$
CHEMBL1782_lig13
                    3D
 Schrodinger Suite 2021-1.
 38 39  0  0  1  0            999 V2000
   11.4465   34.5450   -7.3007 C   0  0  0  0  0  0
   10.7570   33.3499   -7.4525 C   0  0  0  0  0  0
   11.3938   32.1801   -7.8627 C   0  0  0  0  0  0
   12.8111   34.6141   -7.5651 C   0  0  0  0  0  0
   13.4935   33.4770   -8.0093 C   0  0  0  0  0  0
   12.7668   32.2624   -8.1357 C   0  0  0  0  0  0
   13.6714   31.3026   -8.5347 N   0  0  0  0  0  0
   14.9289   31.8668   -8.6590 C   0  0  0  0  0  0
   14.8612   33.2322   -8.3719 C   0  0  0  0  0  0
   15.9772   34.2765   -8.3348 C   0  0  0  0  0  0
   13.3516   29.8885   -8.6666 C   0  0  0  0  0  0
   16.1009   30.9847   -9.0318 C   0  0  0  0  0  0
   16.1375   35.1509   -9.6190 C   0  0  0  0  0  0
   17.5802   34.6192  -10.6644 P   0  0  0  0  0  0
   16.2143   36.9717   -9.2743 P   0  0  0  0  0  0
   18.1010   33.2344  -10.3729 O   0  0  0  0  0  0
   17.0622   34.9570  -12.2555 O   0  0  0  0  0  0
   18.7681   35.7800  -10.3361 O   0  0  0  0  0  0
   14.9010   37.2025   -8.2558 O   0  0  0  0  0  0
   16.1010   37.7800  -10.5518 O   0  0  0  0  0  0
   17.6629   37.1390   -8.3653 O   0  0  0  0  0  0
   10.9091   35.4282   -6.9888 H   0  0  0  0  0  0
    9.7010   33.3349   -7.2476 H   0  0  0  0  0  0
   10.8489   31.2530   -7.9693 H   0  0  0  0  0  0
   13.3432   35.5370   -7.4552 H   0  0  0  0  0  0
   16.9012   33.7620   -8.1176 H   0  0  0  0  0  0
   15.8236   34.9117   -7.4619 H   0  0  0  0  0  0
   12.3912   29.7800   -9.1645 H   0  0  0  0  0  0
   14.0995   29.3800   -9.2689 H   0  0  0  0  0  0
   13.3010   29.4309   -7.6782 H   0  0  0  0  0  0
   17.0157   31.5353   -9.1650 H   0  0  0  0  0  0
   16.2936   30.2302   -8.2681 H   0  0  0  0  0  0
   15.9341   30.4513   -9.9650 H   0  0  0  0  0  0
   15.2435   34.9800  -10.2205 H   0  0  0  0  0  0
   17.5041   35.6266  -12.8197 H   0  0  0  0  0  0
   18.9466   36.5361  -10.9557 H   0  0  0  0  0  0
   13.9973   37.0622   -8.6256 H   0  0  0  0  0  0
   18.1592   37.9861   -8.4131 H   0  0  0  0  0  0
  1  2  2  0  0  0
  1  4  1  0  0  0
  1 22  1  0  0  0
  2  3  1  0  0  0
  2 23  1  0  0  0
  3  6  2  0  0  0
  3 24  1  0  0  0
  4  5  2  0  0  0
  4 25  1  0  0  0
  5  6  1  0  0  0
  5  9  1  0  0  0
  6  7  1  0  0  0
  7  8  1  0  0  0
  7 11  1  0  0  0
  8  9  2  0  0  0
  8 12  1  0  0  0
  9 10  1  0  0  0
 10 13  1  0  0  0
 10 26  1  0  0  0
 10 27  1  0  0  0
 11 28  1  0  0  0
 11 29  1  0  0  0
 11 30  1  0  0  0
 12 31  1  0  0  0
 12 32  1  0  0  0
 12 33  1  0  0  0
 13 14  1  0  0  0
 13 15  1  0  0  0
 13 34  1  0  0  0
 14 16  2  0  0  0
 14 17  1  0  0  0
 14 18  1  0  0  0
 15 19  1  0  0  0
 15 20  2  0  0  0
 15 21  1  0  0  0
 17 35  1  0  0  0
 18 36  1  0  0  0
 19 37  1  0  0  0
 21 38  1  0  0  0
M  END
> <s_m_entry_id>
3041

> <s_m_entry_name>
dock_pv.56

> <s_m_Source_Path>
/home/csk/Desktop/cluster/DUD-E-result/fpps

> <s_m_Source_File>
dock_pv.maegz

> <i_m_Source_File_Index>
56

> <chembl_id>
CHEMBL3410286

> <chembl_pref_name>
None

> <i_lp_mmshare_version>
53161

> <r_lp_tautomer_probability>
1

> <s_lp_Force_Field>
OPLS_2005

> <r_lp_Energy>
0.916201

> <b_lp_Chiralities_Consistent>
1

> <s_lp_Variant>
CHEMBL1782_lig13-1

> <s_i_glide_gridfile>
glide-grid_1zw5

> <i_i_glide_lignum>
17

> <i_i_glide_rotatable_bonds>
8

> <r_i_docking_score>
-8.44279779371975

> <r_i_glide_ligand_efficiency>
-0.402037990177131

> <r_i_glide_ligand_efficiency_sa>
-1.10919232979771

> <r_i_glide_ligand_efficiency_ln>
-2.0874646942179

> <r_i_glide_gscore>
-8.44279779371975

> <r_i_glide_lipo>
0

> <r_i_glide_hbond>
0

> <r_i_glide_metal>
-2.3

> <r_i_glide_rewards>
-1.13717727272727

> <r_i_glide_evdw>
-24.716344833374

> <r_i_glide_ecoul>
-44.7330207824707

> <r_i_glide_erotb>
0.475224029661084

> <r_i_glide_esite>
-0.245027308984864

> <r_i_glide_emodel>
-110.824471750868

> <r_i_glide_energy>
-69.4493656158447

> <r_i_glide_einternal>
20.850700378418

> <i_i_glide_confnum>
36

> <i_i_glide_posenum>
95

> <r_i_glide_eff_state_penalty>
0

> <s_user_duplicate_titles>
CHEMBL1782_lig13

> <i_f3d_flags>
0

> <s_m_subgroup_title>
dock_pv

> <s_m_subgroupid>
dock_pv

> <b_m_subgroup_collapsed>
1

$$$$
CHEMBL1782_lig156
                    3D
 Schrodinger Suite 2021-1.
 29 30  0  0  1  0            999 V2000
   16.1684   34.3786   -9.3038 C   0  0  0  0  0  0
   16.9705   35.4738  -10.5964 P   0  0  0  0  0  0
   15.9605   35.3302   -7.7045 P   0  0  0  0  0  0
   18.3740   36.0103   -9.7816 O   0  0  0  0  0  0
   17.5717   34.3543  -11.7254 O   0  0  0  0  0  0
   16.1010   36.5800  -11.1650 O   0  0  0  0  0  0
   14.9010   36.5965   -8.1210 O   0  0  0  0  0  0
   17.3010   35.7800   -7.1650 O   0  0  0  0  0  0
   15.1714   34.2837   -6.6131 O   0  0  0  0  0  0
   14.8888   33.7174   -9.8840 C   0  0  0  0  0  0
   14.1445   32.9451   -8.8947 N   0  0  0  0  0  0
   14.5655   31.8225   -8.2041 C   0  0  0  0  0  0
   13.7348   31.4181   -7.2719 N   0  0  0  0  0  0
   12.8818   33.2205   -8.4080 C   0  0  0  0  0  0
   12.6783   32.2835   -7.3734 C   0  0  0  0  0  0
   11.4811   32.4185   -6.6531 C   0  0  0  0  0  0
   10.5731   33.3800   -6.9711 N   0  0  0  0  0  0
   10.8882   34.1920   -8.0144 C   0  0  0  0  0  0
   12.0220   34.1800   -8.7650 N   0  0  0  0  0  0
   16.8717   33.5688   -9.0888 H   0  0  0  0  0  0
   18.8391   36.8068  -10.1354 H   0  0  0  0  0  0
   17.9555   34.6694  -12.5704 H   0  0  0  0  0  0
   14.2987   36.5800   -8.9017 H   0  0  0  0  0  0
   15.4828   33.3778   -6.4123 H   0  0  0  0  0  0
   14.2228   34.4801  -10.2802 H   0  0  0  0  0  0
   15.1279   33.0516  -10.7144 H   0  0  0  0  0  0
   15.5258   31.3755   -8.4195 H   0  0  0  0  0  0
   11.2492   31.7800   -5.8181 H   0  0  0  0  0  0
   10.1596   34.9461   -8.2755 H   0  0  0  0  0  0
  1 10  1  0  0  0
  1  3  1  0  0  0
  1  2  1  0  0  0
  1 20  1  0  0  0
  2  6  2  0  0  0
  2  4  1  0  0  0
  2  5  1  0  0  0
  3  7  1  0  0  0
  3  8  2  0  0  0
  3  9  1  0  0  0
  4 21  1  0  0  0
  5 22  1  0  0  0
  7 23  1  0  0  0
  9 24  1  0  0  0
 10 11  1  0  0  0
 10 25  1  0  0  0
 10 26  1  0  0  0
 11 12  1  0  0  0
 11 14  1  0  0  0
 12 13  2  0  0  0
 12 27  1  0  0  0
 13 15  1  0  0  0
 14 15  2  0  0  0
 14 19  1  0  0  0
 15 16  1  0  0  0
 16 17  2  0  0  0
 16 28  1  0  0  0
 17 18  1  0  0  0
 18 19  2  0  0  0
 18 29  1  0  0  0
M  END
> <s_m_entry_id>
3042

> <s_m_entry_name>
dock_pv.57

> <s_m_Source_Path>
/home/csk/Desktop/cluster/DUD-E-result/fpps

> <s_m_Source_File>
dock_pv.maegz

> <i_m_Source_File_Index>
57

> <chembl_id>
CHEMBL457424

> <chembl_pref_name>
None

> <i_lp_mmshare_version>
53161

> <r_lp_tautomer_probability>
1

> <s_lp_Force_Field>
OPLS_2005

> <r_lp_Energy>
4.640287

> <b_lp_Chiralities_Consistent>
1

> <s_lp_Variant>
CHEMBL1782_lig156-1

> <s_i_glide_gridfile>
glide-grid_1zw5

> <i_i_glide_lignum>
177

> <i_i_glide_rotatable_bonds>
8

> <r_i_docking_score>
-8.43490990261007

> <r_i_glide_ligand_efficiency>
-0.443942626453162

> <r_i_glide_ligand_efficiency_sa>
-1.18461723520289

> <r_i_glide_ligand_efficiency_ln>
-2.1384308255651

> <r_i_glide_gscore>
-8.43490990261007

> <r_i_glide_lipo>
0

> <r_i_glide_hbond>
0

> <r_i_glide_metal>
-2.3

> <r_i_glide_rewards>
-1.3082385

> <r_i_glide_evdw>
-21.6941337585449

> <r_i_glide_ecoul>
-39.4879913330078

> <r_i_glide_erotb>
0.584476634804793

> <r_i_glide_esite>
-0.326441349487617

> <r_i_glide_emodel>
-103.489277674662

> <r_i_glide_energy>
-61.1821250915527

> <r_i_glide_einternal>
11.7341327667236

> <i_i_glide_confnum>
16

> <i_i_glide_posenum>
53

> <r_i_glide_eff_state_penalty>
0

> <s_user_duplicate_titles>
CHEMBL1782_lig156,513236

> <i_f3d_flags>
0

> <s_m_subgroup_title>
dock_pv

> <s_m_subgroupid>
dock_pv

> <b_m_subgroup_collapsed>
1

$$$$
CHEMBL1782_lig306
                    3D
 Schrodinger Suite 2021-1.
 31 31  0  0  1  0            999 V2000
   16.4333   35.3690   -9.2655 C   0  0  0  0  0  0
   17.7057   34.7908  -10.4991 P   0  0  0  0  0  0
   16.2606   37.2423   -9.3394 P   0  0  0  0  0  0
   15.0751   34.6213   -9.4423 C   0  0  0  0  0  0
   16.1010   37.7795  -10.7503 O   0  0  0  0  0  0
   18.1010   33.3415  -10.3650 O   0  0  0  0  0  0
   16.9010   35.0387   -7.9650 O   0  0  0  0  0  0
   17.0261   35.2339  -12.0007 O   0  0  0  0  0  0
   14.9010   37.5313   -8.3650 O   0  0  0  0  0  0
   17.6490   37.7961   -8.5207 O   0  0  0  0  0  0
   19.0059   35.8236  -10.1393 O   0  0  0  0  0  0
   14.9901   33.1780   -8.9325 C   0  0  0  0  0  0
   14.6927   30.5519   -8.0418 C   0  0  0  0  0  0
   14.5010   29.2409   -7.6139 N   0  0  0  0  0  0
   14.5011   32.9215   -7.6466 C   0  0  0  0  0  0
   15.3385   32.1100   -9.7636 C   0  0  0  0  0  0
   15.1970   30.7981   -9.3163 C   0  0  0  0  0  0
   14.3533   31.6098   -7.2022 C   0  0  0  0  0  0
   14.2811   35.1642   -8.9301 H   0  0  0  0  0  0
   14.7920   34.6147  -10.4928 H   0  0  0  0  0  0
   16.5010   34.1845   -7.7402 H   0  0  0  0  0  0
   17.4337   35.9289  -12.5633 H   0  0  0  0  0  0
   14.0038   37.2684   -8.6784 H   0  0  0  0  0  0
   18.0068   38.6904   -8.7187 H   0  0  0  0  0  0
   19.2350   36.5988  -10.7135 H   0  0  0  0  0  0
   14.4608   28.5330   -8.3358 H   0  0  0  0  0  0
   13.9019   29.1159   -6.8101 H   0  0  0  0  0  0
   14.2088   33.7326   -6.9965 H   0  0  0  0  0  0
   15.7010   32.2903  -10.7645 H   0  0  0  0  0  0
   15.4574   29.9740   -9.9650 H   0  0  0  0  0  0
   13.9544   31.4160   -6.2178 H   0  0  0  0  0  0
  1  2  1  0  0  0
  1  3  1  0  0  0
  1  4  1  0  0  0
  1  7  1  0  0  0
  2  6  2  0  0  0
  2  8  1  0  0  0
  2 11  1  0  0  0
  3  5  2  0  0  0
  3  9  1  0  0  0
  3 10  1  0  0  0
  4 12  1  0  0  0
  4 19  1  0  0  0
  4 20  1  0  0  0
  7 21  1  0  0  0
  8 22  1  0  0  0
  9 23  1  0  0  0
 10 24  1  0  0  0
 11 25  1  0  0  0
 12 15  1  0  0  0
 12 16  2  0  0  0
 13 17  2  0  0  0
 13 14  1  0  0  0
 13 18  1  0  0  0
 14 26  1  0  0  0
 14 27  1  0  0  0
 15 18  2  0  0  0
 15 28  1  0  0  0
 16 17  1  0  0  0
 16 29  1  0  0  0
 17 30  1  0  0  0
 18 31  1  0  0  0
M  END
> <s_m_entry_id>
3043

> <s_m_entry_name>
dock_pv.58

> <s_m_Source_Path>
/home/csk/Desktop/cluster/DUD-E-result/fpps

> <s_m_Source_File>
dock_pv.maegz

> <i_m_Source_File_Index>
58

> <chembl_id>
CHEMBL417932

> <chembl_pref_name>
None

> <i_lp_mmshare_version>
53161

> <r_lp_tautomer_probability>
1

> <s_lp_Force_Field>
OPLS_2005

> <r_lp_Energy>
4.57757

> <b_lp_Chiralities_Consistent>
1

> <s_lp_Variant>
CHEMBL1782_lig306-1

> <s_i_glide_gridfile>
glide-grid_1zw5

> <i_i_glide_lignum>
352

> <i_i_glide_rotatable_bonds>
9

> <r_i_docking_score>
-8.42640980210055

> <r_i_glide_ligand_efficiency>
-0.468133877894475

> <r_i_glide_ligand_efficiency_sa>
-1.22685783064756

> <r_i_glide_ligand_efficiency_ln>
-2.16596518957288

> <r_i_glide_gscore>
-8.42640980210055

> <r_i_glide_lipo>
-0.0128238863041891

> <r_i_glide_hbond>
-0.00173482121328569

> <r_i_glide_metal>
-2.3

> <r_i_glide_rewards>
-1.53314427272727

> <r_i_glide_evdw>
-19.2007255554199

> <r_i_glide_ecoul>
-50.6015548706055

> <r_i_glide_erotb>
0.581329455915194

> <r_i_glide_esite>
-0.2

> <r_i_glide_emodel>
-120.435077654159

> <r_i_glide_energy>
-69.8022804260254

> <r_i_glide_einternal>
20.5810241699219

> <i_i_glide_confnum>
33

> <i_i_glide_posenum>
265

> <r_i_glide_eff_state_penalty>
0

> <s_user_duplicate_titles>
CHEMBL1782_lig306

> <i_f3d_flags>
0

> <s_m_subgroup_title>
dock_pv

> <s_m_subgroupid>
dock_pv

> <b_m_subgroup_collapsed>
1

$$$$
CHEMBL1782_lig153
                    3D
 Schrodinger Suite 2021-1.
 32 33  0  0  1  0            999 V2000
   16.3418   35.3158   -9.2099 C   0  0  0  0  0  0
   17.5127   34.6799  -10.5519 P   0  0  0  0  0  0
   16.2826   37.2146   -9.1190 P   0  0  0  0  0  0
   14.9504   34.5611   -9.1975 C   0  0  1  0  0  0
   14.8955   33.0275   -9.0491 C   0  0  0  0  0  0
   14.0050   35.0147   -8.0476 C   0  0  0  0  0  0
   15.3010   37.8139   -8.1505 O   0  0  0  0  0  0
   18.1000   33.3033  -10.3653 O   0  0  0  0  0  0
   16.9010   34.9800   -7.9648 O   0  0  0  0  0  0
   13.9815   32.6334   -8.0612 C   0  0  0  0  0  0
   13.2461   33.8141   -7.4991 C   0  0  0  0  0  0
   15.3002   30.6794   -9.5494 N   0  0  0  0  0  0
   16.5761   34.8900  -11.9648 O   0  0  0  0  0  0
   17.8912   37.5779   -8.6745 O   0  0  0  0  0  0
   18.7788   35.7775  -10.5199 O   0  0  0  0  0  0
   16.1172   37.7300  -10.7643 O   0  0  0  0  0  0
   15.4937   31.9992   -9.7900 C   0  0  0  0  0  0
   14.4447   30.3349   -8.5576 C   0  0  0  0  0  0
   13.7516   31.2796   -7.8032 C   0  0  0  0  0  0
   14.5010   34.7417  -10.1631 H   0  0  0  0  0  0
   14.5517   35.4460   -7.2106 H   0  0  0  0  0  0
   13.3096   35.7789   -8.3643 H   0  0  0  0  0  0
   16.1702   34.9455   -7.3355 H   0  0  0  0  0  0
   13.2124   33.8130   -6.4088 H   0  0  0  0  0  0
   12.2175   33.8274   -7.8643 H   0  0  0  0  0  0
   15.6805   34.5263  -12.0933 H   0  0  0  0  0  0
   18.3557   38.3671   -9.0292 H   0  0  0  0  0  0
   18.9009   36.4917  -11.2033 H   0  0  0  0  0  0
   16.9059   38.1393  -11.2066 H   0  0  0  0  0  0
   16.0967   32.1788  -10.6591 H   0  0  0  0  0  0
   14.2840   29.2762   -8.4053 H   0  0  0  0  0  0
   13.0320   30.9569   -7.0640 H   0  0  0  0  0  0
  1  2  1  0  0  0
  1  3  1  0  0  0
  1  4  1  0  0  0
  1  9  1  0  0  0
  2  8  2  0  0  0
  2 13  1  0  0  0
  2 15  1  0  0  0
  3  7  2  0  0  0
  3 14  1  0  0  0
  3 16  1  0  0  0
  4  5  1  0  0  0
  4  6  1  0  0  0
  4 20  1  0  0  0
  5 10  2  0  0  0
  5 17  1  0  0  0
  6 11  1  0  0  0
  6 21  1  0  0  0
  6 22  1  0  0  0
  9 23  1  0  0  0
 10 19  1  0  0  0
 10 11  1  0  0  0
 11 24  1  0  0  0
 11 25  1  0  0  0
 12 17  2  0  0  0
 12 18  1  0  0  0
 13 26  1  0  0  0
 14 27  1  0  0  0
 15 28  1  0  0  0
 16 29  1  0  0  0
 17 30  1  0  0  0
 18 19  2  0  0  0
 18 31  1  0  0  0
 19 32  1  0  0  0
M  END
> <s_m_entry_id>
3044

> <s_m_entry_name>
dock_pv.59

> <s_m_Source_Path>
/home/csk/Desktop/cluster/DUD-E-result/fpps

> <s_m_Source_File>
dock_pv.maegz

> <i_m_Source_File_Index>
59

> <chembl_id>
CHEMBL317573

> <chembl_pref_name>
None

> <i_lp_mmshare_version>
53161

> <r_lp_tautomer_probability>
1

> <s_lp_Force_Field>
OPLS_2005

> <r_lp_Energy>
7.40575

> <b_lp_Chiralities_Consistent>
1

> <s_lp_Variant>
CHEMBL1782_lig153-2

> <s_i_glide_gridfile>
glide-grid_1zw5

> <i_i_glide_lignum>
174

> <i_i_glide_rotatable_bonds>
8

> <r_i_docking_score>
-8.42353721850186

> <r_i_glide_ligand_efficiency>
-0.443344064131677

> <r_i_glide_ligand_efficiency_sa>
-1.18302003051894

> <r_i_glide_ligand_efficiency_ln>
-2.13554760588082

> <r_i_glide_gscore>
-8.42353721850186

> <r_i_glide_lipo>
0

> <r_i_glide_hbond>
-0.00126543677898702

> <r_i_glide_metal>
-2.3

> <r_i_glide_rewards>
-1.30125313636364

> <r_i_glide_evdw>
-20.168119430542

> <r_i_glide_ecoul>
-42.5360832214355

> <r_i_glide_erotb>
0.387387326167861

> <r_i_glide_esite>
-0.2

> <r_i_glide_emodel>
-87.1905826987867

> <r_i_glide_energy>
-62.7042026519775

> <r_i_glide_einternal>
32.7170524597168

> <i_i_glide_confnum>
7

> <i_i_glide_posenum>
102

> <r_i_glide_eff_state_penalty>
0

> <s_user_duplicate_titles>
CHEMBL1782_lig153,161378

> <i_f3d_flags>
0

> <s_m_subgroup_title>
dock_pv

> <s_m_subgroupid>
dock_pv

> <b_m_subgroup_collapsed>
1

$$$$
CHEMBL1782_lig184
                    3D
 Schrodinger Suite 2021-1.
 36 36  0  0  1  0            999 V2000
   14.1986   32.6675   -8.1924 C   0  0  0  0  0  0
   14.2234   31.2876   -8.2440 N   0  0  0  0  0  0
   15.0336   30.9219   -9.3035 C   0  0  0  0  0  0
   15.4907   32.0907   -9.8946 C   0  0  0  0  0  0
   14.9797   33.1829   -9.2103 N   0  3  0  0  0  0
   13.4940   30.3837   -7.3683 C   0  0  0  0  0  0
   15.0859   34.6005   -9.5822 C   0  0  0  0  0  0
   16.4231   35.3554   -9.2577 C   0  0  0  0  0  0
   17.7478   34.8503  -10.4515 P   0  0  0  0  0  0
   18.1010   33.3800  -10.3650 O   0  0  0  0  0  0
   17.1376   35.3800  -11.9534 O   0  0  0  0  0  0
   19.0191   35.8712   -9.9652 O   0  0  0  0  0  0
   16.8893   34.9800   -7.9650 O   0  0  0  0  0  0
   16.1224   37.2121   -9.1124 P   0  0  0  0  0  0
   14.9010   37.2079   -7.9650 O   0  0  0  0  0  0
   15.7010   37.9422  -10.3650 O   0  0  0  0  0  0
   17.5528   37.7846   -8.3854 O   0  0  0  0  0  0
   14.4235   29.3900   -6.6401 C   0  0  0  0  0  0
   15.6809   30.0210   -6.0164 C   0  0  0  0  0  0
   13.6087   33.2449   -7.4968 H   0  0  0  0  0  0
   15.1812   29.8763   -9.5473 H   0  0  0  0  0  0
   16.1010   32.2253  -10.7650 H   0  0  0  0  0  0
   12.7563   29.8516   -7.9722 H   0  0  0  0  0  0
   12.9427   30.9800   -6.6393 H   0  0  0  0  0  0
   14.9010   34.6602  -10.6531 H   0  0  0  0  0  0
   14.2371   35.0859   -9.1062 H   0  0  0  0  0  0
   17.6047   36.0690  -12.4787 H   0  0  0  0  0  0
   19.3010   36.6376  -10.5243 H   0  0  0  0  0  0
   16.1423   35.0791   -7.3584 H   0  0  0  0  0  0
   13.9963   36.9797   -8.2748 H   0  0  0  0  0  0
   14.7200   28.5870   -7.3176 H   0  0  0  0  0  0
   13.8366   28.9055   -5.8587 H   0  0  0  0  0  0
   16.1010   29.3800   -5.2442 H   0  0  0  0  0  0
   15.4690   30.9881   -5.5650 H   0  0  0  0  0  0
   16.4528   30.1800   -6.7690 H   0  0  0  0  0  0
   17.8641   38.7004   -8.5648 H   0  0  0  0  0  0
  1  2  1  0  0  0
  1  5  2  0  0  0
  1 20  1  0  0  0
  2  3  1  0  0  0
  2  6  1  0  0  0
  3  4  2  0  0  0
  3 21  1  0  0  0
  4  5  1  0  0  0
  4 22  1  0  0  0
  5  7  1  0  0  0
  6 18  1  0  0  0
  6 23  1  0  0  0
  6 24  1  0  0  0
  7  8  1  0  0  0
  7 25  1  0  0  0
  7 26  1  0  0  0
  8  9  1  0  0  0
  8 13  1  0  0  0
  8 14  1  0  0  0
  9 10  2  0  0  0
  9 11  1  0  0  0
  9 12  1  0  0  0
 11 27  1  0  0  0
 12 28  1  0  0  0
 13 29  1  0  0  0
 14 15  1  0  0  0
 14 16  2  0  0  0
 14 17  1  0  0  0
 15 30  1  0  0  0
 17 36  1  0  0  0
 18 19  1  0  0  0
 18 31  1  0  0  0
 18 32  1  0  0  0
 19 33  1  0  0  0
 19 34  1  0  0  0
 19 35  1  0  0  0
M  CHG  1   5   1
M  END
> <s_m_entry_id>
3045

> <s_m_entry_name>
dock_pv.60

> <s_m_Source_Path>
/home/csk/Desktop/cluster/DUD-E-result/fpps

> <s_m_Source_File>
dock_pv.maegz

> <i_m_Source_File_Index>
60

> <chembl_id>
CHEMBL2338355

> <chembl_pref_name>
None

> <i_lp_mmshare_version>
53161

> <r_lp_tautomer_probability>
1

> <s_lp_Force_Field>
OPLS_2005

> <r_lp_Energy>
1.003073

> <b_lp_Chiralities_Consistent>
1

> <s_lp_Variant>
CHEMBL1782_lig184-1

> <s_i_glide_gridfile>
glide-grid_1zw5

> <i_i_glide_lignum>
208

> <i_i_glide_rotatable_bonds>
11

> <r_i_docking_score>
-8.42245247391236

> <r_i_glide_ligand_efficiency>
-0.443286972311177

> <r_i_glide_ligand_efficiency_sa>
-1.18286768661114

> <r_i_glide_ligand_efficiency_ln>
-2.1352725998292

> <r_i_glide_gscore>
-8.42245247391236

> <r_i_glide_lipo>
-0.544962913411779

> <r_i_glide_hbond>
0

> <r_i_glide_metal>
-2.3

> <r_i_glide_rewards>
-1.11015477272727

> <r_i_glide_evdw>
-21.1136817932129

> <r_i_glide_ecoul>
-47.4179153442383

> <r_i_glide_erotb>
0.936154561277477

> <r_i_glide_esite>
-0.347805259390143

> <r_i_glide_emodel>
-108.287163434287

> <r_i_glide_energy>
-68.5315971374512

> <r_i_glide_einternal>
24.0735511779785

> <i_i_glide_confnum>
148

> <i_i_glide_posenum>
309

> <r_i_glide_eff_state_penalty>
0

> <s_user_duplicate_titles>
CHEMBL1782_lig184

> <i_f3d_flags>
0

> <s_m_subgroup_title>
dock_pv

> <s_m_subgroupid>
dock_pv

> <b_m_subgroup_collapsed>
1

$$$$
CHEMBL1782_lig53
                    3D
 Schrodinger Suite 2021-1.
 26 26  0  0  1  0            999 V2000
   16.3385   35.6252   -8.9303 C   0  0  0  0  0  0
   17.4213   34.7327  -10.1703 P   0  0  0  0  0  0
   16.2450   37.4548   -9.2978 P   0  0  0  0  0  0
   14.9010   31.7281   -7.1706 N   0  0  0  0  0  0
   14.9275   34.9617   -8.8853 C   0  0  0  0  0  0
   14.9200   33.5583   -8.4772 N   0  0  0  0  0  0
   14.9010   33.0391   -7.2059 C   0  0  0  0  0  0
   16.8634   34.5800  -11.5619 O   0  0  0  0  0  0
   16.1010   37.7799  -10.7650 O   0  0  0  0  0  0
   14.9058   31.3601   -8.4386 C   0  0  0  0  0  0
   16.9010   35.5121   -7.6233 O   0  0  0  0  0  0
   14.9160   32.4538   -9.2897 C   0  0  0  0  0  0
   18.9010   35.5699  -10.0840 O   0  0  0  0  0  0
   17.7010   33.2474   -9.3717 O   0  0  0  0  0  0
   14.9010   37.9233   -8.3934 O   0  0  0  0  0  0
   17.6527   38.0772   -8.5790 O   0  0  0  0  0  0
   14.2328   35.4956   -8.2368 H   0  0  0  0  0  0
   14.5010   34.9800   -9.8827 H   0  0  0  0  0  0
   14.8902   33.6915   -6.3489 H   0  0  0  0  0  0
   14.8768   30.3171   -8.7270 H   0  0  0  0  0  0
   16.3282   36.0004   -7.0184 H   0  0  0  0  0  0
   14.8827   32.5400  -10.3650 H   0  0  0  0  0  0
   19.0171   36.4592  -10.5002 H   0  0  0  0  0  0
   16.9010   32.7461   -9.0579 H   0  0  0  0  0  0
   13.9932   37.6706   -8.6837 H   0  0  0  0  0  0
   18.0064   38.9365   -8.9082 H   0  0  0  0  0  0
  1  2  1  0  0  0
  1  3  1  0  0  0
  1  5  1  0  0  0
  1 11  1  0  0  0
  2  8  2  0  0  0
  2 13  1  0  0  0
  2 14  1  0  0  0
  3  9  2  0  0  0
  3 15  1  0  0  0
  3 16  1  0  0  0
  4  7  2  0  0  0
  4 10  1  0  0  0
  5  6  1  0  0  0
  5 17  1  0  0  0
  5 18  1  0  0  0
  6  7  1  0  0  0
  6 12  1  0  0  0
  7 19  1  0  0  0
 10 12  2  0  0  0
 10 20  1  0  0  0
 11 21  1  0  0  0
 12 22  1  0  0  0
 13 23  1  0  0  0
 14 24  1  0  0  0
 15 25  1  0  0  0
 16 26  1  0  0  0
M  END
> <s_m_entry_id>
3046

> <s_m_entry_name>
dock_pv.61

> <s_m_Source_Path>
/home/csk/Desktop/cluster/DUD-E-result/fpps

> <s_m_Source_File>
dock_pv.maegz

> <i_m_Source_File_Index>
61

> <chembl_id>
CHEMBL924

> <chembl_pref_name>
ZOLEDRONIC ACID

> <i_lp_mmshare_version>
53161

> <r_lp_tautomer_probability>
1

> <s_lp_Force_Field>
OPLS_2005

> <r_lp_Energy>
-1.431485

> <b_lp_Chiralities_Consistent>
1

> <s_lp_Variant>
CHEMBL1782_lig53-1

> <s_i_glide_gridfile>
glide-grid_1zw5

> <i_i_glide_lignum>
58

> <i_i_glide_rotatable_bonds>
9

> <r_i_docking_score>
-8.40814045057975

> <r_i_glide_ligand_efficiency>
-0.525508778161234

> <r_i_glide_ligand_efficiency_sa>
-1.32419914179593

> <r_i_glide_ligand_efficiency_ln>
-2.2287455828442

> <r_i_glide_gscore>
-8.40814045057975

> <r_i_glide_lipo>
0

> <r_i_glide_hbond>
-0.0055872930644524

> <r_i_glide_metal>
-2.3

> <r_i_glide_rewards>
-1.70393440909091

> <r_i_glide_evdw>
-11.9710664749146

> <r_i_glide_ecoul>
-43.4606094360352

> <r_i_glide_erotb>
0.508189690149531

> <r_i_glide_esite>
-0.308255114828189

> <r_i_glide_emodel>
-103.735369262871

> <r_i_glide_energy>
-55.4316759109497

> <r_i_glide_einternal>
9.11524677276611

> <i_i_glide_confnum>
9

> <i_i_glide_posenum>
266

> <r_i_glide_eff_state_penalty>
0

> <s_user_duplicate_titles>
CHEMBL1782_lig53,83838

> <i_f3d_flags>
0

> <s_m_subgroup_title>
dock_pv

> <s_m_subgroupid>
dock_pv

> <b_m_subgroup_collapsed>
1

$$$$
CHEMBL1782_lig254 
                    3D
 Schrodinger Suite 2021-1.
 55 58  0  0  1  0            999 V2000
   14.8160   30.6287   -9.0915 N   0  0  0  0  0  0
   16.0661   30.7798   -9.5651 C   0  0  0  0  0  0
   16.8098   31.9088   -9.6324 N   0  0  0  0  0  0
   16.2781   33.0268   -9.0865 C   0  0  0  0  0  0
   14.3018   31.7426   -8.5852 C   0  0  0  0  0  0
   14.9791   33.0023   -8.5011 C   0  0  0  0  0  0
   14.1673   33.9542   -7.8181 C   0  0  0  0  0  0
   12.9058   33.4661   -7.5532 C   0  0  0  0  0  0
   12.6744   31.7899   -7.9652 S   0  0  0  0  0  0
   11.7567   34.1987   -7.0193 C   0  0  0  0  0  0
   11.6770   34.5136   -5.6639 C   0  0  0  0  0  0
   10.6001   35.2529   -5.1846 C   0  0  0  0  0  0
    9.6284   35.7118   -6.0827 C   0  0  0  0  0  0
    9.7020   35.3800   -7.4361 C   0  0  0  0  0  0
   10.7588   34.6081   -7.9023 C   0  0  0  0  0  0
    8.5010   36.5807   -5.6067 C   0  0  0  0  0  0
   17.1677   34.1138   -9.1531 N   0  0  0  0  0  0
   16.7173   35.4917   -9.2342 C   0  0  2  0  0  0
   16.8465   35.7800  -11.0284 P   0  0  0  0  0  0
   16.5010   37.3638  -11.1650 O   0  0  0  0  0  0
   18.4581   35.7084  -11.1657 O   0  0  0  0  0  0
   16.1010   34.9087  -11.9651 O   0  0  0  0  0  0
   17.7008   36.4443   -8.5294 C   0  0  0  0  0  0
   17.4675   36.6015   -7.0145 C   0  0  0  0  0  0
   18.7024   37.1843   -6.3043 C   0  0  0  0  0  0
   19.0244   38.6047   -6.8220 C   0  0  0  0  0  0
   17.8278   39.5528   -6.6276 C   0  0  0  0  0  0
   16.4935   38.9702   -7.1299 C   0  0  0  0  0  0
   16.2630   37.5072   -6.6717 C   0  0  0  0  0  0
   10.5008   35.5959   -3.4899 Cl  0  0  0  0  0  0
   16.5009   29.8810   -9.9651 H   0  0  0  0  0  0
   14.4422   34.9656   -7.5803 H   0  0  0  0  0  0
   12.4476   34.1804   -4.9866 H   0  0  0  0  0  0
    8.9544   35.7279   -8.1349 H   0  0  0  0  0  0
   10.8255   34.3675   -8.9552 H   0  0  0  0  0  0
    8.0621   36.1341   -4.7141 H   0  0  0  0  0  0
    8.9010   37.5654   -5.3484 H   0  0  0  0  0  0
    7.7200   36.6840   -6.3645 H   0  0  0  0  0  0
   17.8270   33.9858   -9.9086 H   0  0  0  0  0  0
   15.6830   35.6804   -8.9708 H   0  0  0  0  0  0
   17.3403   37.8564  -11.4147 H   0  0  0  0  0  0
   18.8729   36.5286  -11.5651 H   0  0  0  0  0  0
   17.6229   37.4290   -8.9878 H   0  0  0  0  0  0
   18.7344   36.1799   -8.7635 H   0  0  0  0  0  0
   17.2500   35.6319   -6.5641 H   0  0  0  0  0  0
   19.5970   36.5802   -6.4494 H   0  0  0  0  0  0
   18.5010   37.2282   -5.2306 H   0  0  0  0  0  0
   19.3001   38.5805   -7.8769 H   0  0  0  0  0  0
   19.9005   39.0096   -6.3149 H   0  0  0  0  0  0
   18.0204   40.4948   -7.1440 H   0  0  0  0  0  0
   17.7367   39.7907   -5.5670 H   0  0  0  0  0  0
   16.4421   39.0482   -8.2151 H   0  0  0  0  0  0
   15.7011   39.6151   -6.7653 H   0  0  0  0  0  0
   16.1010   37.4797   -5.5934 H   0  0  0  0  0  0
   15.3558   37.1365   -7.1484 H   0  0  0  0  0  0
  1  2  2  0  0  0
  1  5  1  0  0  0
  2  3  1  0  0  0
  2 31  1  0  0  0
  3  4  2  0  0  0
  4  6  1  0  0  0
  4 17  1  0  0  0
  5  6  2  0  0  0
  5  9  1  0  0  0
  6  7  1  0  0  0
  7  8  2  0  0  0
  7 32  1  0  0  0
  8  9  1  0  0  0
  8 10  1  0  0  0
 10 11  2  0  0  0
 10 15  1  0  0  0
 11 12  1  0  0  0
 11 33  1  0  0  0
 12 13  2  0  0  0
 12 30  1  0  0  0
 13 14  1  0  0  0
 13 16  1  0  0  0
 14 15  2  0  0  0
 14 34  1  0  0  0
 15 35  1  0  0  0
 16 36  1  0  0  0
 16 37  1  0  0  0
 16 38  1  0  0  0
 17 18  1  0  0  0
 17 39  1  0  0  0
 18 19  1  0  0  0
 18 23  1  0  0  0
 18 40  1  0  0  0
 19 20  1  0  0  0
 19 21  1  0  0  0
 19 22  2  0  0  0
 20 41  1  0  0  0
 21 42  1  0  0  0
 23 24  1  0  0  0
 23 43  1  0  0  0
 23 44  1  0  0  0
 24 25  1  0  0  0
 24 29  1  0  0  0
 24 45  1  0  0  0
 25 26  1  0  0  0
 25 46  1  0  0  0
 25 47  1  0  0  0
 26 27  1  0  0  0
 26 48  1  0  0  0
 26 49  1  0  0  0
 27 28  1  0  0  0
 27 50  1  0  0  0
 27 51  1  0  0  0
 28 29  1  0  0  0
 28 52  1  0  0  0
 28 53  1  0  0  0
 29 54  1  0  0  0
 29 55  1  0  0  0
M  END
> <s_m_entry_id>
3047

> <s_m_entry_name>
dock_pv.62

> <s_m_Source_Path>
/home/csk/Desktop/cluster/DUD-E-result/fpps

> <s_m_Source_File>
dock_pv.maegz

> <i_m_Source_File_Index>
62

> <chembl_id>
CHEMBL4577736

> <chembl_pref_name>
None

> <i_lp_mmshare_version>
53161

> <r_lp_tautomer_probability>
1

> <s_lp_Force_Field>
OPLS_2005

> <r_lp_Energy>
12.929395

> <b_lp_Chiralities_Consistent>
1

> <s_lp_Variant>
CHEMBL1782_lig254 -1

> <s_i_glide_gridfile>
glide-grid_1zw5

> <i_i_glide_lignum>
295

> <i_i_glide_rotatable_bonds>
8

> <r_i_docking_score>
-8.40731185225242

> <r_i_glide_ligand_efficiency>
-0.280243728408414

> <r_i_glide_ligand_efficiency_sa>
-0.870782421513095

> <r_i_glide_ligand_efficiency_ln>
-1.91023285783137

> <r_i_glide_gscore>
-8.40731185225242

> <r_i_glide_lipo>
-0.305734007881294

> <r_i_glide_hbond>
-0.00188921114740263

> <r_i_glide_metal>
-2.3

> <r_i_glide_rewards>
-0.232268454545453

> <r_i_glide_evdw>
-34.7253150939941

> <r_i_glide_ecoul>
-33.3066177368164

> <r_i_glide_erotb>
0.464564444276348

> <r_i_glide_esite>
-0.295718868254913

> <r_i_glide_emodel>
-93.4973746092135

> <r_i_glide_energy>
-68.0319328308105

> <r_i_glide_einternal>
15.522274017334

> <i_i_glide_confnum>
24

> <i_i_glide_posenum>
183

> <r_i_glide_eff_state_penalty>
0

> <s_user_duplicate_titles>
CHEMBL1782_lig254 

> <i_f3d_flags>
0

> <s_m_subgroup_title>
dock_pv

> <s_m_subgroupid>
dock_pv

> <b_m_subgroup_collapsed>
1

$$$$
CHEMBL1782_lig21
                    3D
 Schrodinger Suite 2021-1.
 34 35  0  0  1  0            999 V2000
   15.8416   36.3358   -8.4589 C   0  0  0  0  0  0
   15.9825   34.8657   -8.4703 N   0  0  0  0  0  0
   16.7232   34.0416   -9.2983 C   0  0  0  0  0  0
   16.4999   37.1212   -9.9929 P   0  0  0  0  0  0
   16.5713   36.9974   -6.8954 P   0  0  0  0  0  0
   16.3652   32.7252   -9.5386 N   0  0  0  0  0  0
   17.8329   34.3711   -9.9362 N   0  0  0  0  0  0
   18.0974   33.3795  -10.7635 C   0  0  0  0  0  0
   17.3343   32.2764  -10.3978 C   0  0  0  0  0  0
   16.1449   36.4618  -11.3034 O   0  0  0  0  0  0
   17.7164   36.1800   -6.3671 O   0  0  0  0  0  0
   15.2707   31.9713   -9.0854 C   0  0  0  0  0  0
   15.7008   38.5804  -10.0214 O   0  0  0  0  0  0
   16.9370   38.6281   -7.2325 O   0  0  0  0  0  0
   18.1441   37.3337   -9.5650 O   0  0  0  0  0  0
   15.2723   36.9800   -5.8503 O   0  0  0  0  0  0
   13.9830   32.5179   -9.1235 C   0  0  0  0  0  0
   15.4712   30.6480   -8.6750 C   0  0  0  0  0  0
   14.3824   29.8687   -8.3075 C   0  0  0  0  0  0
   12.8972   31.7341   -8.7522 C   0  0  0  0  0  0
   13.1039   30.4127   -8.3583 C   0  0  0  0  0  0
   14.7674   36.5149   -8.4231 H   0  0  0  0  0  0
   15.2225   34.4352   -7.9556 H   0  0  0  0  0  0
   18.8700   33.4349  -11.5258 H   0  0  0  0  0  0
   17.2994   31.2581  -10.7652 H   0  0  0  0  0  0
   16.2351   39.4274   -9.9641 H   0  0  0  0  0  0
   17.5797   38.9268   -7.9091 H   0  0  0  0  0  0
   18.7698   37.6034  -10.2838 H   0  0  0  0  0  0
   15.4331   37.0362   -4.8842 H   0  0  0  0  0  0
   13.8064   33.5243   -9.4767 H   0  0  0  0  0  0
   16.4570   30.2053   -8.6544 H   0  0  0  0  0  0
   14.5191   28.8371   -8.0098 H   0  0  0  0  0  0
   11.8936   32.1323   -8.8096 H   0  0  0  0  0  0
   12.2665   29.7821   -8.1020 H   0  0  0  0  0  0
  1  2  1  0  0  0
  1  4  1  0  0  0
  1  5  1  0  0  0
  1 22  1  0  0  0
  2  3  1  0  0  0
  2 23  1  0  0  0
  3  6  1  0  0  0
  3  7  2  0  0  0
  4 10  2  0  0  0
  4 13  1  0  0  0
  4 15  1  0  0  0
  5 11  2  0  0  0
  5 14  1  0  0  0
  5 16  1  0  0  0
  6  9  1  0  0  0
  6 12  1  0  0  0
  7  8  1  0  0  0
  8  9  2  0  0  0
  8 24  1  0  0  0
  9 25  1  0  0  0
 12 17  2  0  0  0
 12 18  1  0  0  0
 13 26  1  0  0  0
 14 27  1  0  0  0
 15 28  1  0  0  0
 16 29  1  0  0  0
 17 20  1  0  0  0
 17 30  1  0  0  0
 18 19  2  0  0  0
 18 31  1  0  0  0
 19 21  1  0  0  0
 19 32  1  0  0  0
 20 21  2  0  0  0
 20 33  1  0  0  0
 21 34  1  0  0  0
M  END
> <s_m_entry_id>
3048

> <s_m_entry_name>
dock_pv.63

> <s_m_Source_Path>
/home/csk/Desktop/cluster/DUD-E-result/fpps

> <s_m_Source_File>
dock_pv.maegz

> <i_m_Source_File_Index>
63

> <chembl_id>
CHEMBL327756

> <chembl_pref_name>
None

> <i_lp_mmshare_version>
53161

> <r_lp_tautomer_probability>
0.999996246217491

> <s_lp_Force_Field>
OPLS_2005

> <r_lp_Energy>
-3.114001

> <b_lp_Chiralities_Consistent>
1

> <s_lp_Variant>
CHEMBL1782_lig21-1

> <s_i_glide_gridfile>
glide-grid_1zw5

> <i_i_glide_lignum>
25

> <i_i_glide_rotatable_bonds>
9

> <r_i_docking_score>
-8.40648624610471

> <r_i_glide_ligand_efficiency>
-0.400308868862129

> <r_i_glide_ligand_efficiency_sa>
-1.1044218152027

> <r_i_glide_ligand_efficiency_ln>
-2.07848673744447

> <r_i_glide_gscore>
-8.40648624610471

> <r_i_glide_lipo>
-0.0527663125601731

> <r_i_glide_hbond>
0

> <r_i_glide_metal>
-2.3

> <r_i_glide_rewards>
-1.2701164606998

> <r_i_glide_evdw>
-22.6479396820068

> <r_i_glide_ecoul>
-57.4443702697754

> <r_i_glide_erotb>
0.848793511255603

> <r_i_glide_esite>
-0.5

> <r_i_glide_emodel>
-128.612826449319

> <r_i_glide_energy>
-80.0923099517822

> <r_i_glide_einternal>
19.7970809936523

> <i_i_glide_confnum>
64

> <i_i_glide_posenum>
67

> <r_i_glide_eff_state_penalty>
0

> <s_user_duplicate_titles>
CHEMBL1782_lig21

> <i_f3d_flags>
0

> <s_m_subgroup_title>
dock_pv

> <s_m_subgroupid>
dock_pv

> <b_m_subgroup_collapsed>
1

$$$$
CHEMBL1782_lig32
                    3D
 Schrodinger Suite 2021-1.
 29 29  0  0  1  0            999 V2000
   16.5877   35.5376   -9.2857 C   0  0  0  0  0  0
   18.0531   35.1676  -10.3650 P   0  0  0  0  0  0
   16.3537   37.3800   -9.1228 P   0  0  0  0  0  0
   15.2680   33.3465   -9.2884 N   0  0  0  0  0  0
   15.3010   34.7615   -9.6919 C   0  0  0  0  0  0
   14.6130   32.7877   -8.2054 C   0  0  0  0  0  0
   14.7894   31.4891   -8.1167 N   0  0  0  0  0  0
   15.5573   31.1712   -9.1395 C   0  0  0  0  0  0
   15.8938   32.2844   -9.8863 C   0  0  0  0  0  0
   18.5010   33.7311  -10.3650 O   0  0  0  0  0  0
   17.4522   38.0793   -8.3650 O   0  0  0  0  0  0
   16.9010   35.1371   -7.9650 O   0  0  0  0  0  0
   17.5602   35.7797  -11.8727 O   0  0  0  0  0  0
   16.1010   37.8776  -10.7650 O   0  0  0  0  0  0
   19.2261   36.1800   -9.6532 O   0  0  0  0  0  0
   14.8872   37.4041   -8.3084 O   0  0  0  0  0  0
   13.7686   33.5725   -7.2207 C   0  0  0  0  0  0
   14.4530   35.2118   -9.1797 H   0  0  0  0  0  0
   15.1188   34.8215  -10.7638 H   0  0  0  0  0  0
   15.8584   30.1495   -9.3243 H   0  0  0  0  0  0
   16.4955   32.4029  -10.7650 H   0  0  0  0  0  0
   16.0976   35.2073   -7.4362 H   0  0  0  0  0  0
   18.0870   36.5075  -12.2936 H   0  0  0  0  0  0
   16.9140   38.0860  -11.2996 H   0  0  0  0  0  0
   19.5810   36.9693  -10.1246 H   0  0  0  0  0  0
   14.0238   37.5403   -8.7650 H   0  0  0  0  0  0
   13.3700   32.9371   -6.4283 H   0  0  0  0  0  0
   14.3370   34.3633   -6.7338 H   0  0  0  0  0  0
   12.9113   34.0360   -7.7099 H   0  0  0  0  0  0
  1  2  1  0  0  0
  1  3  1  0  0  0
  1  5  1  0  0  0
  1 12  1  0  0  0
  2 10  2  0  0  0
  2 13  1  0  0  0
  2 15  1  0  0  0
  3 11  2  0  0  0
  3 14  1  0  0  0
  3 16  1  0  0  0
  4  5  1  0  0  0
  4  6  1  0  0  0
  4  9  1  0  0  0
  5 18  1  0  0  0
  5 19  1  0  0  0
  6  7  2  0  0  0
  6 17  1  0  0  0
  7  8  1  0  0  0
  8  9  2  0  0  0
  8 20  1  0  0  0
  9 21  1  0  0  0
 12 22  1  0  0  0
 13 23  1  0  0  0
 14 24  1  0  0  0
 15 25  1  0  0  0
 16 26  1  0  0  0
 17 27  1  0  0  0
 17 28  1  0  0  0
 17 29  1  0  0  0
M  END
> <s_m_entry_id>
3049

> <s_m_entry_name>
dock_pv.64

> <s_m_Source_Path>
/home/csk/Desktop/cluster/DUD-E-result/fpps

> <s_m_Source_File>
dock_pv.maegz

> <i_m_Source_File_Index>
64

> <chembl_id>
CHEMBL318071

> <chembl_pref_name>
None

> <i_lp_mmshare_version>
53161

> <r_lp_tautomer_probability>
1

> <s_lp_Force_Field>
OPLS_2005

> <r_lp_Energy>
-2.068584

> <b_lp_Chiralities_Consistent>
1

> <s_lp_Variant>
CHEMBL1782_lig32-1

> <s_i_glide_gridfile>
glide-grid_1zw5

> <i_i_glide_lignum>
36

> <i_i_glide_rotatable_bonds>
9

> <r_i_docking_score>
-8.40504035808599

> <r_i_glide_ligand_efficiency>
-0.494414138710941

> <r_i_glide_ligand_efficiency_sa>
-1.27127797182799

> <r_i_glide_ligand_efficiency_ln>
-2.19268785837836

> <r_i_glide_gscore>
-8.40504035808599

> <r_i_glide_lipo>
0

> <r_i_glide_hbond>
0

> <r_i_glide_metal>
-2.3

> <r_i_glide_rewards>
-1.60829863636364

> <r_i_glide_evdw>
-15.9812078475952

> <r_i_glide_ecoul>
-44.1042518615723

> <r_i_glide_erotb>
0.620960026473

> <r_i_glide_esite>
-0.318641355815595

> <r_i_glide_emodel>
-107.434228492982

> <r_i_glide_energy>
-60.0854597091675

> <r_i_glide_einternal>
22.9009761810303

> <i_i_glide_confnum>
76

> <i_i_glide_posenum>
72

> <r_i_glide_eff_state_penalty>
0

> <s_user_duplicate_titles>
CHEMBL1782_lig32

> <i_f3d_flags>
0

> <s_m_subgroup_title>
dock_pv

> <s_m_subgroupid>
dock_pv

> <b_m_subgroup_collapsed>
1

$$$$
CHEMBL1782_lig196
                    3D
 Schrodinger Suite 2021-1.
 29 29  0  0  1  0            999 V2000
   15.3003   32.7779   -7.5307 C   0  0  0  0  0  0
   15.2369   31.4100   -7.7219 N   0  0  0  0  0  0
   15.2438   31.1785   -9.0881 C   0  0  0  0  0  0
   15.2911   32.4161   -9.7208 C   0  0  0  0  0  0
   15.3397   33.4115   -8.7578 N   0  3  0  0  0  0
   15.2051   30.3950   -6.6819 C   0  0  0  0  0  0
   15.3252   34.8510   -9.0198 C   0  0  0  0  0  0
   16.7228   35.5367   -9.0901 C   0  0  0  0  0  0
   16.4667   37.3906   -9.1650 P   0  0  0  0  0  0
   15.7010   37.9131  -10.3650 O   0  0  0  0  0  0
   15.7665   37.7430   -7.6519 O   0  0  0  0  0  0
   18.0564   37.9556   -9.0619 O   0  0  0  0  0  0
   17.7642   34.8476  -10.4811 P   0  0  0  0  0  0
   16.9046   35.3145  -11.8815 O   0  0  0  0  0  0
   18.1010   33.3800  -10.3650 O   0  0  0  0  0  0
   19.1587   35.7826  -10.3650 O   0  0  0  0  0  0
   15.3010   33.2644   -6.5671 H   0  0  0  0  0  0
   15.1899   30.1677   -9.4756 H   0  0  0  0  0  0
   15.2811   32.6851  -10.7650 H   0  0  0  0  0  0
   15.7010   30.7589   -5.7809 H   0  0  0  0  0  0
   14.1663   30.1595   -6.4448 H   0  0  0  0  0  0
   15.7010   29.4868   -7.0283 H   0  0  0  0  0  0
   14.6930   35.3185   -8.2625 H   0  0  0  0  0  0
   14.8042   34.9800   -9.9650 H   0  0  0  0  0  0
   17.2625   35.3122   -8.1589 H   0  0  0  0  0  0
   15.7010   38.6725   -7.3564 H   0  0  0  0  0  0
   18.2667   38.8408   -9.4454 H   0  0  0  0  0  0
   19.3013   36.5593  -10.9653 H   0  0  0  0  0  0
   17.3010   35.9147  -12.5507 H   0  0  0  0  0  0
  1  2  1  0  0  0
  1  5  2  0  0  0
  1 17  1  0  0  0
  2  3  1  0  0  0
  2  6  1  0  0  0
  3  4  2  0  0  0
  3 18  1  0  0  0
  4  5  1  0  0  0
  4 19  1  0  0  0
  5  7  1  0  0  0
  6 20  1  0  0  0
  6 21  1  0  0  0
  6 22  1  0  0  0
  7  8  1  0  0  0
  7 23  1  0  0  0
  7 24  1  0  0  0
  8  9  1  0  0  0
  8 13  1  0  0  0
  8 25  1  0  0  0
  9 10  2  0  0  0
  9 11  1  0  0  0
  9 12  1  0  0  0
 11 26  1  0  0  0
 12 27  1  0  0  0
 13 14  1  0  0  0
 13 15  2  0  0  0
 13 16  1  0  0  0
 14 29  1  0  0  0
 16 28  1  0  0  0
M  CHG  1   5   1
M  END
> <s_m_entry_id>
3050

> <s_m_entry_name>
dock_pv.65

> <s_m_Source_Path>
/home/csk/Desktop/cluster/DUD-E-result/fpps

> <s_m_Source_File>
dock_pv.maegz

> <i_m_Source_File_Index>
65

> <chembl_id>
CHEMBL2338369

> <chembl_pref_name>
None

> <i_lp_mmshare_version>
53161

> <r_lp_tautomer_probability>
1

> <s_lp_Force_Field>
OPLS_2005

> <r_lp_Energy>
-1.360733

> <b_lp_Chiralities_Consistent>
1

> <s_lp_Variant>
CHEMBL1782_lig196-1

> <s_i_glide_gridfile>
glide-grid_1zw5

> <i_i_glide_lignum>
220

> <i_i_glide_rotatable_bonds>
8

> <r_i_docking_score>
-8.40049810766943

> <r_i_glide_ligand_efficiency>
-0.52503113172934

> <r_i_glide_ligand_efficiency_sa>
-1.32299554820914

> <r_i_glide_ligand_efficiency_ln>
-2.22671982719655

> <r_i_glide_gscore>
-8.40049810766943

> <r_i_glide_lipo>
-0.33

> <r_i_glide_hbond>
0

> <r_i_glide_metal>
-2.3

> <r_i_glide_rewards>
-1.41051313636364

> <r_i_glide_evdw>
-19.3304862976074

> <r_i_glide_ecoul>
-44.4341926574707

> <r_i_glide_erotb>
0.973950804796481

> <r_i_glide_esite>
-0.367411461221909

> <r_i_glide_emodel>
-99.2772466514915

> <r_i_glide_energy>
-63.7646789550781

> <r_i_glide_einternal>
21.937292098999

> <i_i_glide_confnum>
26

> <i_i_glide_posenum>
132

> <r_i_glide_eff_state_penalty>
0

> <s_user_duplicate_titles>
CHEMBL1782_lig196

> <i_f3d_flags>
0

> <s_m_subgroup_title>
dock_pv

> <s_m_subgroupid>
dock_pv

> <b_m_subgroup_collapsed>
1

$$$$
CHEMBL1782_lig101
                    3D
 Schrodinger Suite 2021-1.
 36 36  0  0  1  0            999 V2000
   16.8610   35.6606   -9.0887 C   0  0  0  0  0  0
   16.5010   37.5037   -9.1650 P   0  0  0  0  0  0
   17.8074   34.8634  -10.5157 P   0  0  0  0  0  0
   15.5431   35.0345   -8.8858 N   0  0  2  0  0  0
   15.7010   37.9753  -10.3650 O   0  0  0  0  0  0
   18.1010   33.3800  -10.3650 O   0  0  0  0  0  0
   15.8004   37.8433   -7.6423 O   0  0  0  0  0  0
   16.9010   35.3208  -11.8913 O   0  0  0  0  0  0
   19.2307   35.7800  -10.5173 O   0  0  0  0  0  0
   18.0428   38.1800   -9.1165 O   0  0  0  0  0  0
   15.4750   33.5996   -8.6230 C   0  0  0  0  0  0
   14.7012   33.4078   -7.3062 C   0  0  0  0  0  0
   14.8534   32.8928   -9.8558 C   0  0  0  0  0  0
   15.0266   32.0762   -6.6137 C   0  0  0  0  0  0
   14.1010   31.5639   -9.6347 C   0  0  0  0  0  0
   14.3840   30.8106   -7.1956 C   0  0  0  0  0  0
   14.7253   30.5423   -8.6709 C   0  0  0  0  0  0
   17.4558   35.4489   -8.1853 H   0  0  0  0  0  0
   14.8425   35.3249   -9.5650 H   0  0  0  0  0  0
   16.1681   38.5479   -7.0734 H   0  0  0  0  0  0
   17.2889   35.8980  -12.5843 H   0  0  0  0  0  0
   19.3010   36.6372  -11.0245 H   0  0  0  0  0  0
   18.1284   39.0966   -9.4975 H   0  0  0  0  0  0
   16.4816   33.2135   -8.4607 H   0  0  0  0  0  0
   14.9723   34.1980   -6.6037 H   0  0  0  0  0  0
   13.6258   33.5052   -7.4645 H   0  0  0  0  0  0
   14.1479   33.5569  -10.3584 H   0  0  0  0  0  0
   15.6374   32.7188  -10.5906 H   0  0  0  0  0  0
   16.1010   31.9226   -6.6085 H   0  0  0  0  0  0
   14.7759   32.1800   -5.5650 H   0  0  0  0  0  0
   13.9875   31.0844  -10.6059 H   0  0  0  0  0  0
   13.0787   31.7764   -9.3165 H   0  0  0  0  0  0
   14.7062   29.9538   -6.6014 H   0  0  0  0  0  0
   13.3010   30.8567   -7.0704 H   0  0  0  0  0  0
   15.8054   30.4849   -8.8156 H   0  0  0  0  0  0
   14.3432   29.5521   -8.9273 H   0  0  0  0  0  0
  1  2  1  0  0  0
  1  3  1  0  0  0
  1  4  1  0  0  0
  1 18  1  0  0  0
  2  5  2  0  0  0
  2  7  1  0  0  0
  2 10  1  0  0  0
  3  6  2  0  0  0
  3  8  1  0  0  0
  3  9  1  0  0  0
  4 11  1  0  0  0
  4 19  1  0  0  0
  7 20  1  0  0  0
  8 21  1  0  0  0
  9 22  1  0  0  0
 10 23  1  0  0  0
 11 12  1  0  0  0
 11 13  1  0  0  0
 11 24  1  0  0  0
 12 14  1  0  0  0
 12 25  1  0  0  0
 12 26  1  0  0  0
 13 15  1  0  0  0
 13 27  1  0  0  0
 13 28  1  0  0  0
 14 16  1  0  0  0
 14 29  1  0  0  0
 14 30  1  0  0  0
 15 17  1  0  0  0
 15 31  1  0  0  0
 15 32  1  0  0  0
 16 17  1  0  0  0
 16 33  1  0  0  0
 16 34  1  0  0  0
 17 35  1  0  0  0
 17 36  1  0  0  0
M  END
> <s_m_entry_id>
3051

> <s_m_entry_name>
dock_pv.66

> <s_m_Source_Path>
/home/csk/Desktop/cluster/DUD-E-result/fpps

> <s_m_Source_File>
dock_pv.maegz

> <i_m_Source_File_Index>
66

> <chembl_id>
CHEMBL53950

> <chembl_pref_name>
INCADRONIC ACID

> <i_lp_mmshare_version>
53161

> <r_lp_tautomer_probability>
1

> <s_lp_Force_Field>
OPLS_2005

> <r_lp_Energy>
10.27706

> <b_lp_Chiralities_Consistent>
1

> <s_lp_Variant>
CHEMBL1782_lig101-1

> <s_i_glide_gridfile>
glide-grid_1zw5

> <i_i_glide_lignum>
112

> <i_i_glide_rotatable_bonds>
8

> <r_i_docking_score>
-8.39963576560965

> <r_i_glide_ligand_efficiency>
-0.49409622150645

> <r_i_glide_ligand_efficiency_sa>
-1.2704605171735

> <r_i_glide_ligand_efficiency_ln>
-2.19127792055564

> <r_i_glide_gscore>
-8.39963576560965

> <r_i_glide_lipo>
-0.0662665012523457

> <r_i_glide_hbond>
-0.086766551834885

> <r_i_glide_metal>
-2.3

> <r_i_glide_rewards>
-1.45099718181818

> <r_i_glide_evdw>
-19.1321144104004

> <r_i_glide_ecoul>
-48.1551246643066

> <r_i_glide_erotb>
0.661000189815778

> <r_i_glide_esite>
-0.2

> <r_i_glide_emodel>
-114.586713831103

> <r_i_glide_energy>
-67.287239074707

> <r_i_glide_einternal>
22.1413021087646

> <i_i_glide_confnum>
59

> <i_i_glide_posenum>
333

> <r_i_glide_eff_state_penalty>
0

> <s_user_duplicate_titles>
CHEMBL1782_lig101,84123

> <i_f3d_flags>
0

> <s_m_subgroup_title>
dock_pv

> <s_m_subgroupid>
dock_pv

> <b_m_subgroup_collapsed>
1

$$$$
CHEMBL1782_lig309
                    3D
 Schrodinger Suite 2021-1.
 36 36  0  0  1  0            999 V2000
   16.8917   35.6983   -9.1651 C   0  0  0  0  0  0
   16.5295   37.5356   -9.1946 P   0  0  0  0  0  0
   17.8281   34.8645  -10.5633 P   0  0  0  0  0  0
   15.7010   38.0305  -10.3650 O   0  0  0  0  0  0
   18.1010   33.3800  -10.3650 O   0  0  0  0  0  0
   15.5966   35.0222   -9.0725 N   0  0  1  0  0  0
   15.8685   37.8525   -7.6505 O   0  0  0  0  0  0
   18.0810   38.1800   -9.1650 O   0  0  0  0  0  0
   16.9201   35.2924  -11.9492 O   0  0  0  0  0  0
   19.2550   35.7800  -10.6029 O   0  0  0  0  0  0
   13.7989   31.9839   -7.1650 C   0  0  0  0  0  0
   15.1885   34.7168   -7.7121 C   0  0  0  0  0  0
   13.2856   33.3392   -6.7019 C   0  0  0  0  0  0
   14.8450   31.3421   -6.4949 C   0  0  0  0  0  0
   13.2382   31.4027   -8.3012 C   0  0  0  0  0  0
   13.6704   34.4580   -7.6821 C   0  0  0  0  0  0
   13.7246   30.1900   -8.7650 C   0  0  0  0  0  0
   15.3010   30.1049   -6.9393 C   0  0  0  0  0  0
   14.7439   29.5352   -8.0802 C   0  0  0  0  0  0
   17.4821   35.4684   -8.2654 H   0  0  0  0  0  0
   14.8471   35.5101   -9.5650 H   0  0  0  0  0  0
   16.2413   38.5617   -7.0899 H   0  0  0  0  0  0
   18.1725   39.0979   -9.5403 H   0  0  0  0  0  0
   17.3010   35.8614  -12.6520 H   0  0  0  0  0  0
   19.3010   36.6579  -11.0792 H   0  0  0  0  0  0
   15.7435   33.8316   -7.3997 H   0  0  0  0  0  0
   15.4338   35.5208   -7.0180 H   0  0  0  0  0  0
   13.6545   33.5719   -5.7035 H   0  0  0  0  0  0
   12.2000   33.2783   -6.6108 H   0  0  0  0  0  0
   15.3040   31.7956   -5.6291 H   0  0  0  0  0  0
   12.4405   31.8929   -8.8406 H   0  0  0  0  0  0
   13.1510   35.3799   -7.4222 H   0  0  0  0  0  0
   13.2863   34.1959   -8.6712 H   0  0  0  0  0  0
   13.3010   29.7750   -9.6616 H   0  0  0  0  0  0
   16.1001   29.5999   -6.4161 H   0  0  0  0  0  0
   15.1049   28.5833   -8.4431 H   0  0  0  0  0  0
  1  2  1  0  0  0
  1  3  1  0  0  0
  1  6  1  0  0  0
  1 20  1  0  0  0
  2  4  2  0  0  0
  2  7  1  0  0  0
  2  8  1  0  0  0
  3  5  2  0  0  0
  3  9  1  0  0  0
  3 10  1  0  0  0
  6 12  1  0  0  0
  6 21  1  0  0  0
  7 22  1  0  0  0
  8 23  1  0  0  0
  9 24  1  0  0  0
 10 25  1  0  0  0
 11 13  1  0  0  0
 11 14  2  0  0  0
 11 15  1  0  0  0
 12 16  1  0  0  0
 12 26  1  0  0  0
 12 27  1  0  0  0
 13 16  1  0  0  0
 13 28  1  0  0  0
 13 29  1  0  0  0
 14 18  1  0  0  0
 14 30  1  0  0  0
 15 17  2  0  0  0
 15 31  1  0  0  0
 16 32  1  0  0  0
 16 33  1  0  0  0
 17 19  1  0  0  0
 17 34  1  0  0  0
 18 19  2  0  0  0
 18 35  1  0  0  0
 19 36  1  0  0  0
M  END
> <s_m_entry_id>
3052

> <s_m_entry_name>
dock_pv.67

> <s_m_Source_Path>
/home/csk/Desktop/cluster/DUD-E-result/fpps

> <s_m_Source_File>
dock_pv.maegz

> <i_m_Source_File_Index>
67

> <chembl_id>
CHEMBL431735

> <chembl_pref_name>
None

> <i_lp_mmshare_version>
53161

> <r_lp_tautomer_probability>
1

> <s_lp_Force_Field>
OPLS_2005

> <r_lp_Energy>
4.091046

> <b_lp_Chiralities_Consistent>
1

> <s_lp_Variant>
CHEMBL1782_lig309-1

> <s_i_glide_gridfile>
glide-grid_1zw5

> <i_i_glide_lignum>
355

> <i_i_glide_rotatable_bonds>
11

> <r_i_docking_score>
-8.3943498349171

> <r_i_glide_ligand_efficiency>
-0.441807886048269

> <r_i_glide_ligand_efficiency_sa>
-1.17892089039247

> <r_i_glide_ligand_efficiency_ln>
-2.12814797725456

> <r_i_glide_gscore>
-8.3943498349171

> <r_i_glide_lipo>
-0.565455167051593

> <r_i_glide_hbond>
-0.121637274844837

> <r_i_glide_metal>
-2.3

> <r_i_glide_rewards>
-1.30095954545454

> <r_i_glide_evdw>
-21.3635139465332

> <r_i_glide_ecoul>
-49.9043884277344

> <r_i_glide_erotb>
1.16187784976053

> <r_i_glide_esite>
-0.2

> <r_i_glide_emodel>
-119.579830711378

> <r_i_glide_energy>
-71.2679023742676

> <r_i_glide_einternal>
25.2808856964111

> <i_i_glide_confnum>
38

> <i_i_glide_posenum>
15

> <r_i_glide_eff_state_penalty>
0

> <s_user_duplicate_titles>
CHEMBL1782_lig309

> <i_f3d_flags>
0

> <s_m_subgroup_title>
dock_pv

> <s_m_subgroupid>
dock_pv

> <b_m_subgroup_collapsed>
1

$$$$
CHEMBL1782_lig44
                    3D
 Schrodinger Suite 2021-1.
 27 27  0  0  1  0            999 V2000
   16.7542   35.6959   -9.0745 C   0  0  0  0  0  0
   15.4936   34.9567   -9.2167 N   0  0  0  0  0  0
   15.2727   33.5976   -9.1469 C   0  0  0  0  0  0
   16.3658   37.5196   -9.1057 P   0  0  0  0  0  0
   18.0137   35.2103  -10.3685 P   0  0  0  0  0  0
   13.9979   33.0710   -9.0706 N   0  0  0  0  0  0
   16.1943   32.6604   -9.1650 N   0  0  0  0  0  0
   15.5416   31.5135   -9.1233 C   0  0  0  0  0  0
   15.7010   38.0516  -10.3650 O   0  0  0  0  0  0
   18.5010   33.7800  -10.3650 O   0  0  0  0  0  0
   14.1744   31.7111   -9.0585 C   0  0  0  0  0  0
   15.5247   37.7800   -7.6488 O   0  0  0  0  0  0
   17.3010   35.7800  -11.8153 O   0  0  0  0  0  0
   17.8879   38.1800   -8.8098 O   0  0  0  0  0  0
   19.2885   36.2423   -9.9650 O   0  0  0  0  0  0
   12.7315   33.7800   -8.9898 C   0  0  0  0  0  0
   17.1763   35.4344   -8.0978 H   0  0  0  0  0  0
   14.7354   35.5404   -9.5650 H   0  0  0  0  0  0
   16.0498   30.5584   -9.1293 H   0  0  0  0  0  0
   13.3369   31.0272   -9.0089 H   0  0  0  0  0  0
   15.8554   38.4441   -7.0124 H   0  0  0  0  0  0
   17.7458   36.5088  -12.3139 H   0  0  0  0  0  0
   18.0755   39.0811   -9.1814 H   0  0  0  0  0  0
   19.4953   37.0086  -10.5569 H   0  0  0  0  0  0
   11.9340   33.0880   -8.7172 H   0  0  0  0  0  0
   12.7957   34.5745   -8.2465 H   0  0  0  0  0  0
   12.5009   34.2035   -9.9649 H   0  0  0  0  0  0
  1  2  1  0  0  0
  1  4  1  0  0  0
  1  5  1  0  0  0
  1 17  1  0  0  0
  2  3  1  0  0  0
  2 18  1  0  0  0
  3  6  1  0  0  0
  3  7  2  0  0  0
  4  9  2  0  0  0
  4 12  1  0  0  0
  4 14  1  0  0  0
  5 10  2  0  0  0
  5 13  1  0  0  0
  5 15  1  0  0  0
  6 11  1  0  0  0
  6 16  1  0  0  0
  7  8  1  0  0  0
  8 11  2  0  0  0
  8 19  1  0  0  0
 11 20  1  0  0  0
 12 21  1  0  0  0
 13 22  1  0  0  0
 14 23  1  0  0  0
 15 24  1  0  0  0
 16 25  1  0  0  0
 16 26  1  0  0  0
 16 27  1  0  0  0
M  END
> <s_m_entry_id>
3053

> <s_m_entry_name>
dock_pv.68

> <s_m_Source_Path>
/home/csk/Desktop/cluster/DUD-E-result/fpps

> <s_m_Source_File>
dock_pv.maegz

> <i_m_Source_File_Index>
68

> <chembl_id>
CHEMBL323300

> <chembl_pref_name>
None

> <i_lp_mmshare_version>
53161

> <r_lp_tautomer_probability>
0.999996246217491

> <s_lp_Force_Field>
OPLS_2005

> <r_lp_Energy>
-12.694761

> <b_lp_Chiralities_Consistent>
1

> <s_lp_Variant>
CHEMBL1782_lig44-1

> <s_i_glide_gridfile>
glide-grid_1zw5

> <i_i_glide_lignum>
48

> <i_i_glide_rotatable_bonds>
8

> <r_i_docking_score>
-8.39169299937663

> <r_i_glide_ligand_efficiency>
-0.52448081246104

> <r_i_glide_ligand_efficiency_sa>
-1.32160883054983

> <r_i_glide_ligand_efficiency_ln>
-2.22438585735752

> <r_i_glide_gscore>
-8.39169299937663

> <r_i_glide_lipo>
0

> <r_i_glide_hbond>
-0.16

> <r_i_glide_metal>
-2.3

> <r_i_glide_rewards>
-1.56046824096309

> <r_i_glide_evdw>
-18.9524536132812

> <r_i_glide_ecoul>
-51.3386154174805

> <r_i_glide_erotb>
0.974074402321393

> <r_i_glide_esite>
-0.397676480070876

> <r_i_glide_emodel>
-119.624699432699

> <r_i_glide_energy>
-70.2910690307617

> <r_i_glide_einternal>
21.2016620635986

> <i_i_glide_confnum>
27

> <i_i_glide_posenum>
92

> <r_i_glide_eff_state_penalty>
0

> <s_user_duplicate_titles>
CHEMBL1782_lig44

> <i_f3d_flags>
0

> <s_m_subgroup_title>
dock_pv

> <s_m_subgroupid>
dock_pv

> <b_m_subgroup_collapsed>
1

$$$$
CHEMBL1782_lig38
                    3D
 Schrodinger Suite 2021-1.
 38 39  0  0  1  0            999 V2000
   16.8712   35.3104   -9.6609 C   0  0  0  0  0  0
   14.9903   32.6237   -8.2422 N   0  0  0  0  0  0
   18.2499   34.8281  -10.8338 P   0  0  0  0  0  0
   16.4697   37.1297   -9.4767 P   0  0  0  0  0  0
   15.6275   33.0317   -9.4013 C   0  0  0  0  0  0
   15.5935   34.4630   -9.9558 C   0  0  0  0  0  0
   14.0747   33.3738   -7.4669 C   0  0  0  0  0  0
   16.2950   32.0536   -9.9650 N   0  0  0  0  0  0
   15.3010   31.2929   -8.1135 C   0  0  0  0  0  0
   16.0868   30.9972   -9.2075 C   0  0  0  0  0  0
   18.7008   33.3800  -10.7650 O   0  0  0  0  0  0
   16.1010   37.8049  -10.7650 O   0  0  0  0  0  0
   17.3010   34.9800   -8.3650 O   0  0  0  0  0  0
   14.4550   34.3370   -6.7918 O   0  0  0  0  0  0
   12.6248   33.1057   -7.7625 C   0  0  0  0  0  0
   17.6191   35.3359  -12.3314 O   0  0  0  0  0  0
   15.1740   37.1033   -8.3649 O   0  0  0  0  0  0
   19.4590   35.9202  -10.3650 O   0  0  0  0  0  0
   17.8422   37.7786   -8.7080 O   0  0  0  0  0  0
   12.1460   31.7935   -7.8882 C   0  0  0  0  0  0
   11.7772   34.1800   -8.0496 C   0  0  0  0  0  0
   10.5010   33.9452   -8.5488 C   0  0  0  0  0  0
   10.8649   31.5603   -8.3650 C   0  0  0  0  0  0
   10.0654   32.6355   -8.7277 C   0  0  0  0  0  0
   15.4221   34.4394  -11.0325 H   0  0  0  0  0  0
   14.7128   34.9697   -9.5652 H   0  0  0  0  0  0
   14.9322   30.6848   -7.2987 H   0  0  0  0  0  0
   16.5009   30.0318   -9.4487 H   0  0  0  0  0  0
   16.5010   35.0246   -7.8144 H   0  0  0  0  0  0
   17.9742   36.1366  -12.7775 H   0  0  0  0  0  0
   14.2968   36.7489   -8.6251 H   0  0  0  0  0  0
   19.5839   36.7579  -10.8818 H   0  0  0  0  0  0
   18.1010   38.7104   -8.8924 H   0  0  0  0  0  0
   12.7532   30.9315   -7.6585 H   0  0  0  0  0  0
   12.1227   35.2005   -7.9650 H   0  0  0  0  0  0
    9.8658   34.7729   -8.8288 H   0  0  0  0  0  0
   10.5147   30.5457   -8.4939 H   0  0  0  0  0  0
    9.0907   32.4459   -9.1514 H   0  0  0  0  0  0
  1  3  1  0  0  0
  1  4  1  0  0  0
  1  6  1  0  0  0
  1 13  1  0  0  0
  2  5  1  0  0  0
  2  7  1  0  0  0
  2  9  1  0  0  0
  3 11  2  0  0  0
  3 16  1  0  0  0
  3 18  1  0  0  0
  4 12  2  0  0  0
  4 17  1  0  0  0
  4 19  1  0  0  0
  5  6  1  0  0  0
  5  8  2  0  0  0
  6 25  1  0  0  0
  6 26  1  0  0  0
  7 14  2  0  0  0
  7 15  1  0  0  0
  8 10  1  0  0  0
  9 10  2  0  0  0
  9 27  1  0  0  0
 10 28  1  0  0  0
 13 29  1  0  0  0
 15 20  1  0  0  0
 15 21  2  0  0  0
 16 30  1  0  0  0
 17 31  1  0  0  0
 18 32  1  0  0  0
 19 33  1  0  0  0
 20 23  2  0  0  0
 20 34  1  0  0  0
 21 22  1  0  0  0
 21 35  1  0  0  0
 22 24  2  0  0  0
 22 36  1  0  0  0
 23 24  1  0  0  0
 23 37  1  0  0  0
 24 38  1  0  0  0
M  END
> <s_m_entry_id>
3054

> <s_m_entry_name>
dock_pv.69

> <s_m_Source_Path>
/home/csk/Desktop/cluster/DUD-E-result/fpps

> <s_m_Source_File>
dock_pv.maegz

> <i_m_Source_File_Index>
69

> <chembl_id>
CHEMBL98787

> <chembl_pref_name>
None

> <i_lp_mmshare_version>
53161

> <r_lp_tautomer_probability>
1

> <s_lp_Force_Field>
OPLS_2005

> <r_lp_Energy>
12.412963

> <b_lp_Chiralities_Consistent>
1

> <s_lp_Variant>
CHEMBL1782_lig38-1

> <s_i_glide_gridfile>
glide-grid_1zw5

> <i_i_glide_lignum>
42

> <i_i_glide_rotatable_bonds>
11

> <r_i_docking_score>
-8.37836067525401

> <r_i_glide_ligand_efficiency>
-0.349098361468917

> <r_i_glide_ligand_efficiency_sa>
-1.00697392258039

> <r_i_glide_ligand_efficiency_ln>
-2.00532616750806

> <r_i_glide_gscore>
-8.37836067525401

> <r_i_glide_lipo>
-0.198343002933312

> <r_i_glide_hbond>
0

> <r_i_glide_metal>
-2.3

> <r_i_glide_rewards>
-0.994120363636363

> <r_i_glide_evdw>
-26.4001388549805

> <r_i_glide_ecoul>
-53.9123229980469

> <r_i_glide_erotb>
0.8205746184094

> <r_i_glide_esite>
-0.386464984344711

> <r_i_glide_emodel>
-121.065750848302

> <r_i_glide_energy>
-80.3124618530273

> <r_i_glide_einternal>
34.4825134277344

> <i_i_glide_confnum>
85

> <i_i_glide_posenum>
191

> <r_i_glide_eff_state_penalty>
0

> <s_user_duplicate_titles>
CHEMBL1782_lig38

> <i_f3d_flags>
0

> <s_m_subgroup_title>
dock_pv

> <s_m_subgroupid>
dock_pv

> <b_m_subgroup_collapsed>
1

$$$$
CHEMBL1782_lig48
                    3D
 Schrodinger Suite 2021-1.
 26 26  0  0  1  0            999 V2000
   16.3445   34.3642   -9.4228 C   0  0  0  0  0  0
   17.0586   35.5112  -10.7254 P   0  0  0  0  0  0
   16.0234   35.2781   -7.8083 P   0  0  0  0  0  0
   15.0851   33.6425   -9.9750 C   0  0  0  0  0  0
   14.5267   32.4908   -9.1436 C   0  0  0  0  0  0
   15.2137   31.6671   -8.3780 N   0  0  0  0  0  0
   13.1963   32.1637   -9.1650 N   0  0  0  0  0  0
   17.3010   35.7800   -7.1650 O   0  0  0  0  0  0
   16.1010   36.5800  -11.1982 O   0  0  0  0  0  0
   17.3486   33.3800   -9.1650 O   0  0  0  0  0  0
   14.3315   30.8125   -7.8910 C   0  0  0  0  0  0
   13.0540   31.0718   -8.3573 C   0  0  0  0  0  0
   14.9010   36.4959   -8.2383 O   0  0  0  0  0  0
   18.4646   36.1097   -9.9650 O   0  0  0  0  0  0
   15.1729   34.1634   -6.8347 O   0  0  0  0  0  0
   17.6235   34.4580  -11.9361 O   0  0  0  0  0  0
   14.3051   34.3908  -10.1105 H   0  0  0  0  0  0
   15.2983   33.2698  -10.9770 H   0  0  0  0  0  0
   12.4734   32.6076   -9.7186 H   0  0  0  0  0  0
   16.9010   32.6964   -8.6396 H   0  0  0  0  0  0
   14.6181   30.0022   -7.2343 H   0  0  0  0  0  0
   12.1008   30.5801   -8.2207 H   0  0  0  0  0  0
   14.3445   36.5077   -9.0524 H   0  0  0  0  0  0
   18.9010   36.8895  -10.3926 H   0  0  0  0  0  0
   14.8228   33.3097   -7.1649 H   0  0  0  0  0  0
   17.9542   34.8127  -12.7869 H   0  0  0  0  0  0
  1  2  1  0  0  0
  1  3  1  0  0  0
  1  4  1  0  0  0
  1 10  1  0  0  0
  2  9  2  0  0  0
  2 14  1  0  0  0
  2 16  1  0  0  0
  3  8  2  0  0  0
  3 13  1  0  0  0
  3 15  1  0  0  0
  4  5  1  0  0  0
  4 17  1  0  0  0
  4 18  1  0  0  0
  5  6  2  0  0  0
  5  7  1  0  0  0
  6 11  1  0  0  0
  7 12  1  0  0  0
  7 19  1  0  0  0
 10 20  1  0  0  0
 11 12  2  0  0  0
 11 21  1  0  0  0
 12 22  1  0  0  0
 13 23  1  0  0  0
 14 24  1  0  0  0
 15 25  1  0  0  0
 16 26  1  0  0  0
M  END
> <s_m_entry_id>
3055

> <s_m_entry_name>
dock_pv.70

> <s_m_Source_Path>
/home/csk/Desktop/cluster/DUD-E-result/fpps

> <s_m_Source_File>
dock_pv.maegz

> <i_m_Source_File_Index>
70

> <chembl_id>
CHEMBL97911

> <chembl_pref_name>
None

> <i_lp_mmshare_version>
53161

> <r_lp_tautomer_probability>
0.499999999999999

> <s_lp_Force_Field>
OPLS_2005

> <r_lp_Energy>
-4.632949

> <b_lp_Chiralities_Consistent>
1

> <s_lp_Variant>
CHEMBL1782_lig48-1

> <s_i_glide_gridfile>
glide-grid_1zw5

> <i_i_glide_lignum>
53

> <i_i_glide_rotatable_bonds>
9

> <r_i_docking_score>
-8.36791860555357

> <r_i_glide_ligand_efficiency>
-0.522994912847098

> <r_i_glide_ligand_efficiency_sa>
-1.31786459815002

> <r_i_glide_ligand_efficiency_ln>
-2.21808397937042

> <r_i_glide_gscore>
-8.36791860555357

> <r_i_glide_lipo>
0

> <r_i_glide_hbond>
-0.212227341701805

> <r_i_glide_metal>
-2.3

> <r_i_glide_rewards>
-1.55393440909091

> <r_i_glide_evdw>
-14.5574216842651

> <r_i_glide_ecoul>
-49.3758125305176

> <r_i_glide_erotb>
0.725985271642188

> <r_i_glide_esite>
-0.299871042189786

> <r_i_glide_emodel>
-107.569471144776

> <r_i_glide_energy>
-63.9332342147827

> <r_i_glide_einternal>
17.1916332244873

> <i_i_glide_confnum>
3

> <i_i_glide_posenum>
51

> <r_i_glide_eff_state_penalty>
0

> <s_user_duplicate_titles>
CHEMBL1782_lig48

> <i_f3d_flags>
0

> <s_m_subgroup_title>
dock_pv

> <s_m_subgroupid>
dock_pv

> <b_m_subgroup_collapsed>
1

$$$$
CHEMBL1782_lig153
                    3D
 Schrodinger Suite 2021-1.
 32 33  0  0  1  0            999 V2000
   16.4162   34.7551   -9.1929 C   0  0  0  0  0  0
   17.0309   35.5663  -10.7743 P   0  0  0  0  0  0
   16.1497   36.0574   -7.8509 P   0  0  0  0  0  0
   15.1165   33.8996   -9.4103 C   0  0  2  0  0  0
   14.7967   32.8380   -8.3625 C   0  0  0  0  0  0
   15.1366   32.9796  -10.6219 C   0  0  0  0  0  0
   15.4575   35.6207   -6.5842 O   0  0  0  0  0  0
   16.1010   36.5763  -11.4226 O   0  0  0  0  0  0
   17.4752   33.8976   -8.7652 O   0  0  0  0  0  0
   15.2097   31.5687   -8.7902 C   0  0  0  0  0  0
   15.7282   31.6451  -10.1887 C   0  0  0  0  0  0
   13.9200   31.8383   -6.3650 N   0  0  0  0  0  0
   18.5310   36.1800  -10.2926 O   0  0  0  0  0  0
   17.7770   36.5789   -7.5640 O   0  0  0  0  0  0
   17.6124   34.2967  -11.7561 O   0  0  0  0  0  0
   15.3010   37.2804   -8.6783 O   0  0  0  0  0  0
   14.1416   32.9245   -7.1396 C   0  0  0  0  0  0
   14.4165   30.6369   -6.7560 C   0  0  0  0  0  0
   15.0942   30.4604   -7.9563 C   0  0  0  0  0  0
   14.2754   34.5816   -9.5414 H   0  0  0  0  0  0
   14.0886   32.7707  -10.8167 H   0  0  0  0  0  0
   15.4971   33.3953  -11.5534 H   0  0  0  0  0  0
   17.0716   33.3024   -8.1083 H   0  0  0  0  0  0
   15.3006   30.8310  -10.7649 H   0  0  0  0  0  0
   16.8152   31.6093  -10.2548 H   0  0  0  0  0  0
   18.9012   36.9086  -10.8710 H   0  0  0  0  0  0
   18.0279   37.5156   -7.7376 H   0  0  0  0  0  0
   18.0672   34.4954  -12.6004 H   0  0  0  0  0  0
   14.4290   37.1232   -9.1101 H   0  0  0  0  0  0
   13.7316   33.8513   -6.7716 H   0  0  0  0  0  0
   14.2332   29.8004   -6.0965 H   0  0  0  0  0  0
   15.4292   29.4778   -8.2566 H   0  0  0  0  0  0
  1  2  1  0  0  0
  1  3  1  0  0  0
  1  4  1  0  0  0
  1  9  1  0  0  0
  2  8  2  0  0  0
  2 13  1  0  0  0
  2 15  1  0  0  0
  3  7  2  0  0  0
  3 14  1  0  0  0
  3 16  1  0  0  0
  4  5  1  0  0  0
  4  6  1  0  0  0
  4 20  1  0  0  0
  5 10  2  0  0  0
  5 17  1  0  0  0
  6 11  1  0  0  0
  6 21  1  0  0  0
  6 22  1  0  0  0
  9 23  1  0  0  0
 10 19  1  0  0  0
 10 11  1  0  0  0
 11 24  1  0  0  0
 11 25  1  0  0  0
 12 17  2  0  0  0
 12 18  1  0  0  0
 13 26  1  0  0  0
 14 27  1  0  0  0
 15 28  1  0  0  0
 16 29  1  0  0  0
 17 30  1  0  0  0
 18 19  2  0  0  0
 18 31  1  0  0  0
 19 32  1  0  0  0
M  END
> <s_m_entry_id>
3056

> <s_m_entry_name>
dock_pv.71

> <s_m_Source_Path>
/home/csk/Desktop/cluster/DUD-E-result/fpps

> <s_m_Source_File>
dock_pv.maegz

> <i_m_Source_File_Index>
71

> <chembl_id>
CHEMBL317573

> <chembl_pref_name>
None

> <i_lp_mmshare_version>
53161

> <r_lp_tautomer_probability>
1

> <s_lp_Force_Field>
OPLS_2005

> <r_lp_Energy>
8.098212

> <b_lp_Chiralities_Consistent>
1

> <s_lp_Variant>
CHEMBL1782_lig153-1

> <s_i_glide_gridfile>
glide-grid_1zw5

> <i_i_glide_lignum>
173

> <i_i_glide_rotatable_bonds>
8

> <r_i_docking_score>
-8.35674421367636

> <r_i_glide_ligand_efficiency>
-0.439828642825072

> <r_i_glide_ligand_efficiency_sa>
-1.17363947451765

> <r_i_glide_ligand_efficiency_ln>
-2.11861414457535

> <r_i_glide_gscore>
-8.35674421367636

> <r_i_glide_lipo>
-0.292862577197193

> <r_i_glide_hbond>
-0.148920817433294

> <r_i_glide_metal>
-2.3

> <r_i_glide_rewards>
-1.30125313636364

> <r_i_glide_evdw>
-10.021900177002

> <r_i_glide_ecoul>
-45.3181037902832

> <r_i_glide_erotb>
0.387387326167861

> <r_i_glide_esite>
-0.2

> <r_i_glide_emodel>
-94.8871432265828

> <r_i_glide_energy>
-55.3400039672852

> <r_i_glide_einternal>
23.0137538909912

> <i_i_glide_confnum>
2

> <i_i_glide_posenum>
356

> <r_i_glide_eff_state_penalty>
0

> <s_user_duplicate_titles>
CHEMBL1782_lig153

> <i_f3d_flags>
0

> <s_m_subgroup_title>
dock_pv

> <s_m_subgroupid>
dock_pv

> <b_m_subgroup_collapsed>
1

$$$$
CHEMBL1782_lig218
                    3D
 Schrodinger Suite 2021-1.
 48 50  0  0  1  0            999 V2000
   16.4309   35.8691   -9.1715 C   0  0  0  0  0  0
   16.8717   34.5751   -8.6565 N   0  0  0  0  0  0
   15.8099   31.2973   -9.5667 C   0  0  0  0  0  0
   14.5067   31.1435   -9.2253 N   0  0  0  0  0  0
   13.9712   32.2152   -8.6357 C   0  0  0  0  0  0
   14.6670   33.4277   -8.3492 C   0  0  0  0  0  0
   16.0069   33.4736   -8.7926 C   0  0  0  0  0  0
   16.5735   32.4027   -9.4142 N   0  0  0  0  0  0
   13.8474   34.3477   -7.6301 C   0  0  0  0  0  0
   12.5687   33.8673   -7.4266 C   0  0  0  0  0  0
   12.3058   32.2702   -8.0941 S   0  0  0  0  0  0
   11.4870   34.4562   -6.6120 C   0  0  0  0  0  0
   11.6987   34.5333   -5.2393 C   0  0  0  0  0  0
   10.6917   34.9813   -4.4027 C   0  0  0  0  0  0
    9.4553   35.3733   -4.9284 C   0  0  0  0  0  0
    9.2687   35.3357   -6.3147 C   0  0  0  0  0  0
   10.2750   34.8713   -7.1616 C   0  0  0  0  0  0
    8.3671   35.7809   -4.1811 O   0  0  0  0  0  0
    8.4042   36.0179   -2.7653 C   0  0  0  0  0  0
    9.3738   37.1397   -2.3342 C   0  0  0  0  0  0
    8.5055   34.7355   -1.9252 C   0  0  0  0  0  0
   16.9110   35.6432  -10.9443 P   0  0  0  0  0  0
   15.7009   34.6664  -11.5568 O   0  0  0  0  0  0
   16.5023   37.1445  -11.5638 O   0  0  0  0  0  0
   18.2863   35.0669  -11.2045 O   0  0  0  0  0  0
   17.2171   37.1910   -8.0780 P   0  0  0  0  0  0
   18.0667   38.1793   -9.1640 O   0  0  0  0  0  0
   15.8837   38.0876   -7.5054 O   0  0  0  0  0  0
   18.1014   36.5821   -6.9990 O   0  0  0  0  0  0
   15.3495   35.9723   -9.1097 H   0  0  0  0  0  0
   17.6955   34.3449   -9.1900 H   0  0  0  0  0  0
   16.2965   30.4167   -9.9657 H   0  0  0  0  0  0
   14.1930   35.2994   -7.2663 H   0  0  0  0  0  0
   12.6288   34.1807   -4.8238 H   0  0  0  0  0  0
   10.8932   34.9785   -3.3447 H   0  0  0  0  0  0
    8.3279   35.6551   -6.7432 H   0  0  0  0  0  0
   10.1148   34.8347   -8.2311 H   0  0  0  0  0  0
    7.4071   36.3968   -2.5432 H   0  0  0  0  0  0
    9.2811   37.3443   -1.2670 H   0  0  0  0  0  0
    9.1459   38.0692   -2.8566 H   0  0  0  0  0  0
   10.4188   36.9110   -2.5266 H   0  0  0  0  0  0
    8.2785   34.9672   -0.8822 H   0  0  0  0  0  0
    7.7729   33.9960   -2.2583 H   0  0  0  0  0  0
    9.4898   34.2783   -1.9614 H   0  0  0  0  0  0
   15.5497   34.5733  -12.5213 H   0  0  0  0  0  0
   17.2663   37.7571  -11.7519 H   0  0  0  0  0  0
   17.8725   39.1395   -9.3971 H   0  0  0  0  0  0
   15.8290   39.0525   -7.6436 H   0  0  0  0  0  0
  1  2  1  0  0  0
  1 22  1  0  0  0
  1 26  1  0  0  0
  1 30  1  0  0  0
  2  7  1  0  0  0
  2 31  1  0  0  0
  3  4  1  0  0  0
  3  8  2  0  0  0
  3 32  1  0  0  0
  4  5  2  0  0  0
  5  6  1  0  0  0
  5 11  1  0  0  0
  6  7  2  0  0  0
  6  9  1  0  0  0
  7  8  1  0  0  0
  9 10  2  0  0  0
  9 33  1  0  0  0
 10 11  1  0  0  0
 10 12  1  0  0  0
 12 13  1  0  0  0
 12 17  2  0  0  0
 13 14  2  0  0  0
 13 34  1  0  0  0
 14 15  1  0  0  0
 14 35  1  0  0  0
 15 16  2  0  0  0
 15 18  1  0  0  0
 16 17  1  0  0  0
 16 36  1  0  0  0
 17 37  1  0  0  0
 18 19  1  0  0  0
 19 20  1  0  0  0
 19 21  1  0  0  0
 19 38  1  0  0  0
 20 39  1  0  0  0
 20 40  1  0  0  0
 20 41  1  0  0  0
 21 42  1  0  0  0
 21 43  1  0  0  0
 21 44  1  0  0  0
 22 23  1  0  0  0
 22 24  1  0  0  0
 22 25  2  0  0  0
 23 45  1  0  0  0
 24 46  1  0  0  0
 26 27  1  0  0  0
 26 28  1  0  0  0
 26 29  2  0  0  0
 27 47  1  0  0  0
 28 48  1  0  0  0
M  END
> <s_m_entry_id>
3057

> <s_m_entry_name>
dock_pv.72

> <s_m_Source_Path>
/home/csk/Desktop/cluster/DUD-E-result/fpps

> <s_m_Source_File>
dock_pv.maegz

> <i_m_Source_File_Index>
72

> <chembl_id>
CHEMBL3087935

> <chembl_pref_name>
None

> <i_lp_mmshare_version>
53161

> <r_lp_tautomer_probability>
1

> <s_lp_Force_Field>
OPLS_2005

> <r_lp_Energy>
2.405032

> <b_lp_Chiralities_Consistent>
1

> <s_lp_Variant>
CHEMBL1782_lig218-1

> <s_i_glide_gridfile>
glide-grid_1zw5

> <i_i_glide_lignum>
243

> <i_i_glide_rotatable_bonds>
11

> <r_i_docking_score>
-8.34849663083746

> <r_i_glide_ligand_efficiency>
-0.287879194166809

> <r_i_glide_ligand_efficiency_sa>
-0.884456091010829

> <r_i_glide_ligand_efficiency_ln>
-1.91159402885316

> <r_i_glide_gscore>
-8.34849663083746

> <r_i_glide_lipo>
-0.334170260599804

> <r_i_glide_hbond>
-0.0589909917510538

> <r_i_glide_metal>
-2.3

> <r_i_glide_rewards>
-0.276531940518898

> <r_i_glide_evdw>
-31.0184764862061

> <r_i_glide_ecoul>
-36.7727661132812

> <r_i_glide_erotb>
0.572120386342597

> <r_i_glide_esite>
-0.4

> <r_i_glide_emodel>
-98.9918303977674

> <r_i_glide_energy>
-67.7912425994873

> <r_i_glide_einternal>
31.3000316619873

> <i_i_glide_confnum>
13

> <i_i_glide_posenum>
318

> <r_i_glide_eff_state_penalty>
0

> <s_user_duplicate_titles>
CHEMBL1782_lig218

> <i_f3d_flags>
0

> <s_m_subgroup_title>
dock_pv

> <s_m_subgroupid>
dock_pv

> <b_m_subgroup_collapsed>
1

$$$$
CHEMBL1782_lig41
                    3D
 Schrodinger Suite 2021-1.
 25 25  0  0  1  0            999 V2000
   16.2738   35.4493  -10.0999 C   0  0  0  0  0  0
   16.2473   36.4388   -8.4898 P   0  0  0  0  0  0
   17.9398   34.6792  -10.3779 P   0  0  0  0  0  0
   15.2173   34.2758  -10.1894 C   0  0  0  0  0  0
   15.3348   33.2019   -9.1992 N   0  0  0  0  0  0
   15.3010   31.2204   -8.2419 N   0  0  0  0  0  0
   15.3010   33.4462   -7.8883 N   0  0  0  0  0  0
   15.2962   32.2297   -7.3894 C   0  0  0  0  0  0
   15.3163   31.8447   -9.3881 C   0  0  0  0  0  0
   17.3010   35.9772   -7.4895 O   0  0  0  0  0  0
   18.1010   33.7800  -11.5650 O   0  0  0  0  0  0
   16.1010   36.3881  -11.1650 O   0  0  0  0  0  0
   16.3981   38.0734   -8.9766 O   0  0  0  0  0  0
   19.0423   35.9735  -10.2988 O   0  0  0  0  0  0
   14.6263   36.3030   -7.9650 O   0  0  0  0  0  0
   18.1010   33.7800   -8.9345 O   0  0  0  0  0  0
   14.1790   34.5800  -10.1096 H   0  0  0  0  0  0
   15.3010   33.8056  -11.1697 H   0  0  0  0  0  0
   15.2821   32.0542   -6.3231 H   0  0  0  0  0  0
   15.2660   31.3965  -10.3650 H   0  0  0  0  0  0
   16.9761   36.6493  -11.4968 H   0  0  0  0  0  0
   17.1670   38.4985   -9.4201 H   0  0  0  0  0  0
   19.0718   36.7320  -10.9492 H   0  0  0  0  0  0
   13.8851   36.1725   -8.5968 H   0  0  0  0  0  0
   17.3010   33.3587   -8.5209 H   0  0  0  0  0  0
  1  2  1  0  0  0
  1  3  1  0  0  0
  1  4  1  0  0  0
  1 12  1  0  0  0
  2 10  2  0  0  0
  2 13  1  0  0  0
  2 15  1  0  0  0
  3 11  2  0  0  0
  3 14  1  0  0  0
  3 16  1  0  0  0
  4  5  1  0  0  0
  4 17  1  0  0  0
  4 18  1  0  0  0
  5  7  1  0  0  0
  5  9  1  0  0  0
  6  9  2  0  0  0
  6  8  1  0  0  0
  7  8  2  0  0  0
  8 19  1  0  0  0
  9 20  1  0  0  0
 12 21  1  0  0  0
 13 22  1  0  0  0
 14 23  1  0  0  0
 15 24  1  0  0  0
 16 25  1  0  0  0
M  END
> <s_m_entry_id>
3058

> <s_m_entry_name>
dock_pv.73

> <s_m_Source_Path>
/home/csk/Desktop/cluster/DUD-E-result/fpps

> <s_m_Source_File>
dock_pv.maegz

> <i_m_Source_File_Index>
73

> <chembl_id>
CHEMBL99006

> <chembl_pref_name>
None

> <i_lp_mmshare_version>
53161

> <r_lp_tautomer_probability>
1

> <s_lp_Force_Field>
OPLS_2005

> <r_lp_Energy>
-1.340321

> <b_lp_Chiralities_Consistent>
1

> <s_lp_Variant>
CHEMBL1782_lig41-1

> <s_i_glide_gridfile>
glide-grid_1zw5

> <i_i_glide_lignum>
45

> <i_i_glide_rotatable_bonds>
9

> <r_i_docking_score>
-8.33195203401093

> <r_i_glide_ligand_efficiency>
-0.520747002125683

> <r_i_glide_ligand_efficiency_sa>
-1.31220021808287

> <r_i_glide_ligand_efficiency_ln>
-2.20855032113447

> <r_i_glide_gscore>
-8.33195203401093

> <r_i_glide_lipo>
0

> <r_i_glide_hbond>
-0.12617849806792

> <r_i_glide_metal>
-2.3

> <r_i_glide_rewards>
-1.69719763636364

> <r_i_glide_evdw>
-10.7303352355957

> <r_i_glide_ecoul>
-48.3697509765625

> <r_i_glide_erotb>
0.721442739559115

> <r_i_glide_esite>
-0.393501877358708

> <r_i_glide_emodel>
-112.96846901135

> <r_i_glide_energy>
-59.1000862121582

> <r_i_glide_einternal>
7.3269681930542

> <i_i_glide_confnum>
19

> <i_i_glide_posenum>
322

> <r_i_glide_eff_state_penalty>
0

> <s_user_duplicate_titles>
CHEMBL1782_lig41

> <i_f3d_flags>
0

> <s_m_subgroup_title>
dock_pv

> <s_m_subgroupid>
dock_pv

> <b_m_subgroup_collapsed>
1

$$$$
CHEMBL1782_lig5
                    3D
 Schrodinger Suite 2021-1.
 31 33  0  0  1  0            999 V2000
   16.1010   38.8044   -8.3650 O   0  0  0  0  0  0
   15.9551   37.7030   -9.1448 C   0  0  0  0  0  0
   16.1010   37.7047  -10.3650 O   0  0  0  0  0  0
   15.5189   36.4630   -8.3333 C   0  0  0  0  0  0
   15.8153   35.1057   -8.8745 N   0  0  0  0  0  0
   16.9653   34.7169   -9.5709 C   0  0  0  0  0  0
   16.7805   33.4497  -10.0951 C   0  0  0  0  0  0
   15.5698   32.9315   -9.5649 C   0  0  0  0  0  0
   14.9147   31.7020   -9.7001 C   0  0  0  0  0  0
   13.7156   31.4785   -9.0386 C   0  0  0  0  0  0
   13.1524   32.4444   -8.1821 C   0  0  0  0  0  0
   11.9399   32.1800   -7.5010 C   0  0  0  0  0  0
   11.4176   33.1052   -6.6076 C   0  0  0  0  0  0
   12.0915   34.2917   -6.3577 C   0  0  0  0  0  0
   13.2820   34.5832   -7.0187 C   0  0  0  0  0  0
   13.8232   33.6910   -7.9869 C   0  0  0  0  0  0
   15.0178   33.9539   -8.7416 C   0  0  0  0  0  0
   18.1519   35.5075   -9.6991 C   0  0  0  0  0  0
   18.5931   36.1800   -8.7650 O   0  0  0  0  0  0
   18.7331   35.3800  -10.9207 O   0  0  0  0  0  0
   16.5193   39.5102   -8.8945 H   0  0  0  0  0  0
   15.8866   36.5187   -7.3095 H   0  0  0  0  0  0
   14.4399   36.5800   -8.3425 H   0  0  0  0  0  0
   17.4549   32.9385  -10.7650 H   0  0  0  0  0  0
   15.3235   30.9219  -10.3253 H   0  0  0  0  0  0
   13.2106   30.5297   -9.1650 H   0  0  0  0  0  0
   11.4333   31.2387   -7.6652 H   0  0  0  0  0  0
   10.5010   32.8824   -6.0848 H   0  0  0  0  0  0
   11.6887   34.9833   -5.6340 H   0  0  0  0  0  0
   13.7944   35.4839   -6.7475 H   0  0  0  0  0  0
   19.1454   36.2254  -11.1767 H   0  0  0  0  0  0
  1  2  1  0  0  0
  1 21  1  0  0  0
  2  3  2  0  0  0
  2  4  1  0  0  0
  4  5  1  0  0  0
  4 22  1  0  0  0
  4 23  1  0  0  0
  5  6  1  0  0  0
  5 17  1  0  0  0
  6  7  2  0  0  0
  6 18  1  0  0  0
  7  8  1  0  0  0
  7 24  1  0  0  0
  8  9  2  0  0  0
  8 17  1  0  0  0
  9 10  1  0  0  0
  9 25  1  0  0  0
 10 11  2  0  0  0
 10 26  1  0  0  0
 11 16  1  0  0  0
 11 12  1  0  0  0
 12 13  2  0  0  0
 12 27  1  0  0  0
 13 14  1  0  0  0
 13 28  1  0  0  0
 14 15  2  0  0  0
 14 29  1  0  0  0
 15 16  1  0  0  0
 15 30  1  0  0  0
 16 17  2  0  0  0
 18 19  2  0  0  0
 18 20  1  0  0  0
 20 31  1  0  0  0
M  END
> <s_m_entry_id>
3059

> <s_m_entry_name>
dock_pv.74

> <s_m_Source_Path>
/home/csk/Desktop/cluster/DUD-E-result/fpps

> <s_m_Source_File>
dock_pv.maegz

> <i_m_Source_File_Index>
74

> <chembl_id>
CHEMBL1231307

> <chembl_pref_name>
None

> <i_lp_mmshare_version>
53161

> <r_lp_tautomer_probability>
1

> <s_lp_Force_Field>
OPLS_2005

> <r_lp_Energy>
23.502575

> <b_lp_Chiralities_Consistent>
1

> <s_lp_Variant>
CHEMBL1782_lig5-1

> <s_i_glide_gridfile>
glide-grid_1zw5

> <i_i_glide_lignum>
6

> <i_i_glide_rotatable_bonds>
5

> <r_i_docking_score>
-8.32870757807766

> <r_i_glide_ligand_efficiency>
-0.416435378903883

> <r_i_glide_ligand_efficiency_sa>
-1.1303795275413

> <r_i_glide_ligand_efficiency_ln>
-2.08440080763212

> <r_i_glide_gscore>
-8.32870757807766

> <r_i_glide_lipo>
0

> <r_i_glide_hbond>
0

> <r_i_glide_metal>
-2.3

> <r_i_glide_rewards>
-1.72328086363636

> <r_i_glide_evdw>
-31.1798133850098

> <r_i_glide_ecoul>
-21.2380638122559

> <r_i_glide_erotb>
0.739273526647571

> <r_i_glide_esite>
-0.3

> <r_i_glide_emodel>
-81.9389624587252

> <r_i_glide_energy>
-52.4178771972656

> <r_i_glide_einternal>
10.9038143157959

> <i_i_glide_confnum>
3

> <i_i_glide_posenum>
114

> <r_i_glide_eff_state_penalty>
0

> <s_user_duplicate_titles>
CHEMBL1782_lig5

> <i_f3d_flags>
0

> <s_m_subgroup_title>
dock_pv

> <s_m_subgroupid>
dock_pv

> <b_m_subgroup_collapsed>
1

$$$$
CHEMBL1782_lig4
                    3D
 Schrodinger Suite 2021-1.
 50 52  0  0  1  0            999 V2000
   16.8514   34.2898   -9.0027 C   0  0  0  0  0  0
   17.7017   35.4066   -8.9653 N   0  0  0  0  0  0
   17.3992   36.6741   -8.2551 C   0  0  0  0  0  0
   16.0753   37.6135   -9.1010 P   0  0  0  0  0  0
   14.7031   36.9407   -8.3650 O   0  0  0  0  0  0
   16.1010   37.5999  -10.6231 O   0  0  0  0  0  0
   16.1010   39.1344   -8.3649 O   0  0  0  0  0  0
   18.9551   37.6304   -8.0404 P   0  0  0  0  0  0
   19.7011   36.5803   -6.8931 O   0  0  0  0  0  0
   18.7922   39.0464   -7.5587 O   0  0  0  0  0  0
   19.7007   37.4224   -9.5650 O   0  0  0  0  0  0
   15.7045   34.2189   -8.2180 C   0  0  0  0  0  0
   14.7728   33.1873   -8.3900 C   0  0  0  0  0  0
   15.1306   32.1652   -9.2857 C   0  0  0  0  0  0
   16.3550   32.2337   -9.9603 C   0  0  0  0  0  0
   17.2166   33.2822   -9.8383 N   0  0  0  0  0  0
   13.4544   33.2357   -7.6658 C   0  0  0  0  0  0
   12.5803   32.1398   -7.6042 C   0  0  0  0  0  0
   11.3573   32.2367   -6.9353 C   0  0  0  0  0  0
   10.9769   33.4185   -6.2987 C   0  0  0  0  0  0
   11.8366   34.5103   -6.3650 C   0  0  0  0  0  0
   13.0386   34.4200   -7.0401 C   0  0  0  0  0  0
    9.7648   33.4317   -5.6289 O   0  0  0  0  0  0
    9.2104   34.6166   -5.0345 C   0  0  0  0  0  0
    9.9682   35.1446   -3.8020 C   0  0  0  0  0  0
    9.7018   36.6532   -3.8039 C   0  0  0  0  0  0
    9.5346   37.0411   -5.2792 C   0  0  0  0  0  0
    8.9523   35.8048   -5.9841 C   0  0  0  0  0  0
   18.2171   35.5482   -9.8348 H   0  0  0  0  0  0
   17.0698   36.4192   -7.2473 H   0  0  0  0  0  0
   13.8589   36.9007   -8.8800 H   0  0  0  0  0  0
   16.8107   39.7799   -8.6196 H   0  0  0  0  0  0
   20.3995   36.9801   -6.3084 H   0  0  0  0  0  0
   19.3669   37.7795  -10.4394 H   0  0  0  0  0  0
   15.5347   34.9863   -7.4892 H   0  0  0  0  0  0
   14.4777   31.3237   -9.4692 H   0  0  0  0  0  0
   16.6442   31.4308  -10.6230 H   0  0  0  0  0  0
   12.8299   31.1970   -8.0686 H   0  0  0  0  0  0
   10.7024   31.3798   -6.9103 H   0  0  0  0  0  0
   11.5964   35.4460   -5.9038 H   0  0  0  0  0  0
   13.6195   35.3204   -7.0624 H   0  0  0  0  0  0
    8.2429   34.2630   -4.6753 H   0  0  0  0  0  0
    9.5868   34.7021   -2.8815 H   0  0  0  0  0  0
   11.0331   34.9197   -3.8357 H   0  0  0  0  0  0
    8.7839   36.8656   -3.2543 H   0  0  0  0  0  0
   10.4993   37.2162   -3.3168 H   0  0  0  0  0  0
    8.9012   37.9210   -5.4055 H   0  0  0  0  0  0
   10.5007   37.3008   -5.7069 H   0  0  0  0  0  0
    9.4113   35.6671   -6.9640 H   0  0  0  0  0  0
    7.8829   35.9246   -6.1567 H   0  0  0  0  0  0
  1 16  1  0  0  0
  1 12  2  0  0  0
  1  2  1  0  0  0
  2  3  1  0  0  0
  2 29  1  0  0  0
  3  4  1  0  0  0
  3  8  1  0  0  0
  3 30  1  0  0  0
  4  5  1  0  0  0
  4  6  2  0  0  0
  4  7  1  0  0  0
  5 31  1  0  0  0
  7 32  1  0  0  0
  8  9  1  0  0  0
  8 10  2  0  0  0
  8 11  1  0  0  0
  9 33  1  0  0  0
 11 34  1  0  0  0
 12 13  1  0  0  0
 12 35  1  0  0  0
 13 17  1  0  0  0
 13 14  2  0  0  0
 14 15  1  0  0  0
 14 36  1  0  0  0
 15 16  2  0  0  0
 15 37  1  0  0  0
 17 18  2  0  0  0
 17 22  1  0  0  0
 18 19  1  0  0  0
 18 38  1  0  0  0
 19 20  2  0  0  0
 19 39  1  0  0  0
 20 21  1  0  0  0
 20 23  1  0  0  0
 21 22  2  0  0  0
 21 40  1  0  0  0
 22 41  1  0  0  0
 23 24  1  0  0  0
 24 25  1  0  0  0
 24 28  1  0  0  0
 24 42  1  0  0  0
 25 26  1  0  0  0
 25 43  1  0  0  0
 25 44  1  0  0  0
 26 27  1  0  0  0
 26 45  1  0  0  0
 26 46  1  0  0  0
 27 28  1  0  0  0
 27 47  1  0  0  0
 27 48  1  0  0  0
 28 49  1  0  0  0
 28 50  1  0  0  0
M  END
> <s_m_entry_id>
3060

> <s_m_entry_name>
dock_pv.75

> <s_m_Source_Path>
/home/csk/Desktop/cluster/DUD-E-result/fpps

> <s_m_Source_File>
dock_pv.maegz

> <i_m_Source_File_Index>
75

> <chembl_id>
CHEMBL2048244

> <chembl_pref_name>
None

> <i_lp_mmshare_version>
53161

> <r_lp_tautomer_probability>
0.999999772200052

> <s_lp_Force_Field>
OPLS_2005

> <r_lp_Energy>
22.387461

> <b_lp_Chiralities_Consistent>
1

> <s_lp_Variant>
CHEMBL1782_lig4-1

> <s_i_glide_gridfile>
glide-grid_1zw5

> <i_i_glide_lignum>
5

> <i_i_glide_rotatable_bonds>
11

> <r_i_docking_score>
-8.32575771992584

> <r_i_glide_ligand_efficiency>
-0.297348489997351

> <r_i_glide_ligand_efficiency_sa>
-0.902925144526928

> <r_i_glide_ligand_efficiency_ln>
-1.92182933662777

> <r_i_glide_gscore>
-8.32575771992584

> <r_i_glide_lipo>
-0.265520550505311

> <r_i_glide_hbond>
-0.394667328691815

> <r_i_glide_metal>
-2.3

> <r_i_glide_rewards>
-0.488542450562904

> <r_i_glide_evdw>
-26.6985168457031

> <r_i_glide_ecoul>
-49.3343849182129

> <r_i_glide_erotb>
0.757898452119345

> <r_i_glide_esite>
-0.3

> <r_i_glide_emodel>
-114.919269412911

> <r_i_glide_energy>
-76.032901763916

> <r_i_glide_einternal>
22.7470169067383

> <i_i_glide_confnum>
147

> <i_i_glide_posenum>
260

> <r_i_glide_eff_state_penalty>
0

> <s_user_duplicate_titles>
CHEMBL1782_lig4

> <i_f3d_flags>
0

> <s_m_subgroup_title>
dock_pv

> <s_m_subgroupid>
dock_pv

> <b_m_subgroup_collapsed>
1

$$$$
CHEMBL1782_lig9
                    3D
 Schrodinger Suite 2021-1.
 51 53  0  0  1  0            999 V2000
   15.7598   30.5801   -9.2971 C   0  0  0  0  0  0
   14.8734   29.6723   -8.7541 C   0  0  0  0  0  0
   13.8254   30.0939   -7.9544 C   0  0  0  0  0  0
   15.7065   31.9339   -9.0035 C   0  0  0  0  0  0
   14.6186   32.4262   -8.2728 C   0  0  0  0  0  0
   13.6904   31.4683   -7.7620 C   0  0  0  0  0  0
   12.7158   32.1729   -7.1240 N   0  0  0  0  0  0
   12.9130   33.5162   -7.3019 C   0  0  0  0  0  0
   14.1556   33.7433   -7.8939 C   0  0  0  0  0  0
   14.7608   35.1343   -8.1191 C   0  0  0  0  0  0
   16.2417   35.2801   -8.5857 C   0  0  0  0  0  0
   16.9918   36.7939   -7.7854 P   0  0  0  0  0  0
   16.5010   35.3101  -10.4503 P   0  0  0  0  0  0
   16.1962   38.0602   -7.6156 O   0  0  0  0  0  0
   17.7010   36.1800   -6.3650 O   0  0  0  0  0  0
   18.5010   36.8760   -8.5665 O   0  0  0  0  0  0
   18.1729   34.9729  -10.5761 O   0  0  0  0  0  0
   16.1010   36.5800  -11.1650 O   0  0  0  0  0  0
   15.7010   33.9273  -11.0301 O   0  0  0  0  0  0
   11.8394   34.4926   -6.8641 C   0  0  1  0  0  0
   10.3870   34.0409   -7.2003 C   0  0  0  0  0  0
   11.9897   34.7807   -5.3697 C   0  0  0  0  0  0
    9.4218   35.2431   -7.1807 C   0  0  0  0  0  0
    9.2996   35.7047   -8.6385 C   0  0  0  0  0  0
    9.9839   34.6429   -9.5149 C   0  0  0  0  0  0
   10.1745   33.4388   -8.6084 C   0  0  0  0  0  0
   16.5010   30.2096   -9.9648 H   0  0  0  0  0  0
   14.9872   28.6206   -8.9738 H   0  0  0  0  0  0
   13.1262   29.3801   -7.5650 H   0  0  0  0  0  0
   16.4724   32.5764   -9.3891 H   0  0  0  0  0  0
   11.8877   31.7939   -6.6890 H   0  0  0  0  0  0
   14.1160   35.7198   -8.7650 H   0  0  0  0  0  0
   14.6649   35.6376   -7.1569 H   0  0  0  0  0  0
   16.8157   34.4416   -8.1860 H   0  0  0  0  0  0
   17.3010   36.3464   -5.4828 H   0  0  0  0  0  0
   18.6220   37.3319   -9.4318 H   0  0  0  0  0  0
   18.7094   35.4588  -11.2418 H   0  0  0  0  0  0
   14.7888   33.6840  -10.7745 H   0  0  0  0  0  0
   12.0223   35.4216   -7.4040 H   0  0  0  0  0  0
   10.0703   33.2981   -6.4672 H   0  0  0  0  0  0
   13.0340   34.9787   -5.1653 H   0  0  0  0  0  0
   11.4003   35.6379   -5.0453 H   0  0  0  0  0  0
   11.6893   33.9260   -4.7655 H   0  0  0  0  0  0
    9.7798   36.0663   -6.5628 H   0  0  0  0  0  0
    8.4534   34.9686   -6.7649 H   0  0  0  0  0  0
    9.7035   36.7055   -8.7649 H   0  0  0  0  0  0
    8.2561   35.7800   -8.9203 H   0  0  0  0  0  0
   10.9629   34.9799   -9.8489 H   0  0  0  0  0  0
    9.4067   34.4020  -10.4090 H   0  0  0  0  0  0
    9.3011   32.7880   -8.6301 H   0  0  0  0  0  0
   10.9986   32.8267   -8.9726 H   0  0  0  0  0  0
  1  2  2  0  0  0
  1  4  1  0  0  0
  1 27  1  0  0  0
  2  3  1  0  0  0
  2 28  1  0  0  0
  3  6  2  0  0  0
  3 29  1  0  0  0
  4  5  2  0  0  0
  4 30  1  0  0  0
  5  6  1  0  0  0
  5  9  1  0  0  0
  6  7  1  0  0  0
  7  8  1  0  0  0
  7 31  1  0  0  0
  8  9  2  0  0  0
  8 20  1  0  0  0
  9 10  1  0  0  0
 10 11  1  0  0  0
 10 32  1  0  0  0
 10 33  1  0  0  0
 11 12  1  0  0  0
 11 13  1  0  0  0
 11 34  1  0  0  0
 12 14  2  0  0  0
 12 15  1  0  0  0
 12 16  1  0  0  0
 13 17  1  0  0  0
 13 18  2  0  0  0
 13 19  1  0  0  0
 15 35  1  0  0  0
 16 36  1  0  0  0
 17 37  1  0  0  0
 19 38  1  0  0  0
 20 21  1  0  0  0
 20 22  1  0  0  0
 20 39  1  0  0  0
 21 23  1  0  0  0
 21 26  1  0  0  0
 21 40  1  0  0  0
 22 41  1  0  0  0
 22 42  1  0  0  0
 22 43  1  0  0  0
 23 24  1  0  0  0
 23 44  1  0  0  0
 23 45  1  0  0  0
 24 25  1  0  0  0
 24 46  1  0  0  0
 24 47  1  0  0  0
 25 26  1  0  0  0
 25 48  1  0  0  0
 25 49  1  0  0  0
 26 50  1  0  0  0
 26 51  1  0  0  0
M  END
> <s_m_entry_id>
3061

> <s_m_entry_name>
dock_pv.76

> <s_m_Source_Path>
/home/csk/Desktop/cluster/DUD-E-result/fpps

> <s_m_Source_File>
dock_pv.maegz

> <i_m_Source_File_Index>
76

> <chembl_id>
CHEMBL3410290

> <chembl_pref_name>
None

> <i_lp_mmshare_version>
53161

> <r_lp_tautomer_probability>
1

> <s_lp_Force_Field>
OPLS_2005

> <r_lp_Energy>
19.382722

> <b_lp_Chiralities_Consistent>
1

> <s_lp_Variant>
CHEMBL1782_lig9-2

> <s_i_glide_gridfile>
glide-grid_1zw5

> <i_i_glide_lignum>
12

> <i_i_glide_rotatable_bonds>
10

> <r_i_docking_score>
-8.30867906770848

> <r_i_glide_ligand_efficiency>
-0.319564579527249

> <r_i_glide_ligand_efficiency_sa>
-0.946708809423574

> <r_i_glide_ligand_efficiency_ln>
-1.95126601605165

> <r_i_glide_gscore>
-8.30867906770848

> <r_i_glide_lipo>
-0.224800717563218

> <r_i_glide_hbond>
0

> <r_i_glide_metal>
-2.3

> <r_i_glide_rewards>
-0.672743045454545

> <r_i_glide_evdw>
-32.8153686523438

> <r_i_glide_ecoul>
-31.9448928833008

> <r_i_glide_erotb>
0.730617429290485

> <r_i_glide_esite>
-0.200984301364018

> <r_i_glide_emodel>
-85.2059103445692

> <r_i_glide_energy>
-64.7602615356445

> <r_i_glide_einternal>
17.5315895080566

> <i_i_glide_confnum>
116

> <i_i_glide_posenum>
308

> <r_i_glide_eff_state_penalty>
0

> <s_user_duplicate_titles>
CHEMBL1782_lig9

> <i_f3d_flags>
0

> <s_m_subgroup_title>
dock_pv

> <s_m_subgroupid>
dock_pv

> <b_m_subgroup_collapsed>
1

$$$$
CHEMBL1782_lig36
                    3D
 Schrodinger Suite 2021-1.
 26 26  0  0  1  0            999 V2000
   16.7347   35.6653   -9.1945 C   0  0  0  0  0  0
   16.3774   37.5068   -9.1105 P   0  0  0  0  0  0
   18.0420   35.1617  -10.4194 P   0  0  0  0  0  0
   15.4488   34.9801   -9.4201 N   0  0  0  0  0  0
   15.0304   33.6834   -9.2492 C   0  0  0  0  0  0
   13.7683   33.3642   -9.1649 N   0  0  0  0  0  0
   16.1001   32.3289   -9.1650 S   0  0  0  0  0  0
   13.6017   32.0673   -8.9963 C   0  0  0  0  0  0
   14.7418   31.2666   -8.9537 C   0  0  0  0  0  0
   15.3010   37.9337   -8.1528 O   0  0  0  0  0  0
   18.5010   33.7270  -10.3650 O   0  0  0  0  0  0
   17.8947   38.1800   -8.7650 O   0  0  0  0  0  0
   17.4069   35.7091  -11.9008 O   0  0  0  0  0  0
   16.1010   37.9359  -10.7650 O   0  0  0  0  0  0
   19.3064   36.1847   -9.9650 O   0  0  0  0  0  0
   14.9010   29.7800   -8.7650 C   0  0  0  0  0  0
   17.0996   35.3501   -8.2092 H   0  0  0  0  0  0
   14.6917   35.6485   -9.5650 H   0  0  0  0  0  0
   12.5944   31.6859   -8.9038 H   0  0  0  0  0  0
   18.0770   39.1128   -9.0409 H   0  0  0  0  0  0
   17.8651   36.4507  -12.3650 H   0  0  0  0  0  0
   16.8388   38.4393  -11.2106 H   0  0  0  0  0  0
   19.5652   36.9410  -10.5464 H   0  0  0  0  0  0
   13.9482   29.2984   -8.5433 H   0  0  0  0  0  0
   15.5762   29.5440   -7.9421 H   0  0  0  0  0  0
   15.3006   29.2980   -9.6577 H   0  0  0  0  0  0
  1  2  1  0  0  0
  1  3  1  0  0  0
  1  4  1  0  0  0
  1 17  1  0  0  0
  2 10  2  0  0  0
  2 12  1  0  0  0
  2 14  1  0  0  0
  3 11  2  0  0  0
  3 13  1  0  0  0
  3 15  1  0  0  0
  4  5  1  0  0  0
  4 18  1  0  0  0
  5  6  2  0  0  0
  5  7  1  0  0  0
  6  8  1  0  0  0
  7  9  1  0  0  0
  8  9  2  0  0  0
  8 19  1  0  0  0
  9 16  1  0  0  0
 12 20  1  0  0  0
 13 21  1  0  0  0
 14 22  1  0  0  0
 15 23  1  0  0  0
 16 24  1  0  0  0
 16 25  1  0  0  0
 16 26  1  0  0  0
M  END
> <s_m_entry_id>
3062

> <s_m_entry_name>
dock_pv.77

> <s_m_Source_Path>
/home/csk/Desktop/cluster/DUD-E-result/fpps

> <s_m_Source_File>
dock_pv.maegz

> <i_m_Source_File_Index>
77

> <chembl_id>
CHEMBL100335

> <chembl_pref_name>
None

> <i_lp_mmshare_version>
53161

> <r_lp_tautomer_probability>
1

> <s_lp_Force_Field>
OPLS_2005

> <r_lp_Energy>
-11.873716

> <b_lp_Chiralities_Consistent>
1

> <s_lp_Variant>
CHEMBL1782_lig36-1

> <s_i_glide_gridfile>
glide-grid_1zw5

> <i_i_glide_lignum>
40

> <i_i_glide_rotatable_bonds>
8

> <r_i_docking_score>
-8.30770585856397

> <r_i_glide_ligand_efficiency>
-0.519231616160248

> <r_i_glide_ligand_efficiency_sa>
-1.30838168473326

> <r_i_glide_ligand_efficiency_ln>
-2.2021233880039

> <r_i_glide_gscore>
-8.30770585856397

> <r_i_glide_lipo>
0

> <r_i_glide_hbond>
-0.16

> <r_i_glide_metal>
-2.3

> <r_i_glide_rewards>
-1.44438940909091

> <r_i_glide_evdw>
-20.138256072998

> <r_i_glide_ecoul>
-46.3728523254395

> <r_i_glide_erotb>
0.876176351829928

> <r_i_glide_esite>
-0.272579997653085

> <r_i_glide_emodel>
-114.351590933229

> <r_i_glide_energy>
-66.5111083984375

> <r_i_glide_einternal>
23.8073120117188

> <i_i_glide_confnum>
34

> <i_i_glide_posenum>
294

> <r_i_glide_eff_state_penalty>
0

> <s_user_duplicate_titles>
CHEMBL1782_lig36

> <i_f3d_flags>
0

> <s_m_subgroup_title>
dock_pv

> <s_m_subgroupid>
dock_pv

> <b_m_subgroup_collapsed>
1

$$$$
CHEMBL1782_lig96
                    3D
 Schrodinger Suite 2021-1.
 30 30  0  0  1  0            999 V2000
   16.8778   35.6311   -9.0372 C   0  0  0  0  0  0
   16.4950   37.4701   -9.1611 P   0  0  0  0  0  0
   17.8456   34.8742  -10.4657 P   0  0  0  0  0  0
   15.5921   34.9453   -8.7359 N   0  0  0  0  0  0
   15.7010   37.9298  -10.3650 O   0  0  0  0  0  0
   18.1010   33.3800  -10.3650 O   0  0  0  0  0  0
   15.8011   37.8459   -7.6445 O   0  0  0  0  0  0
   16.9943   35.4022  -11.8489 O   0  0  0  0  0  0
   19.2700   35.7800  -10.3723 O   0  0  0  0  0  0
   18.0244   38.1800   -9.1082 O   0  0  0  0  0  0
   15.1123   33.8564   -9.6113 C   0  0  0  0  0  0
   15.4035   34.6582   -7.3054 C   0  0  0  0  0  0
   13.9502   34.2714   -6.9648 C   0  0  0  0  0  0
   13.6660   33.4203   -9.3003 C   0  0  0  0  0  0
   13.4583   33.0957   -7.8167 C   0  0  0  0  0  0
   17.5361   35.4766   -8.1691 H   0  0  0  0  0  0
   16.1596   38.5800   -7.1081 H   0  0  0  0  0  0
   17.3984   36.0362  -12.4808 H   0  0  0  0  0  0
   19.3702   36.6176  -10.8988 H   0  0  0  0  0  0
   18.1010   39.0943   -9.4979 H   0  0  0  0  0  0
   15.1370   34.2014  -10.6445 H   0  0  0  0  0  0
   15.7813   32.9982   -9.5473 H   0  0  0  0  0  0
   16.1010   33.8798   -6.9988 H   0  0  0  0  0  0
   15.6563   35.5497   -6.7319 H   0  0  0  0  0  0
   13.8866   33.9958   -5.9124 H   0  0  0  0  0  0
   13.2978   35.1380   -7.0817 H   0  0  0  0  0  0
   12.9615   34.1801   -9.6397 H   0  0  0  0  0  0
   13.4278   32.5365   -9.8944 H   0  0  0  0  0  0
   12.4059   32.8887   -7.6172 H   0  0  0  0  0  0
   14.0069   32.1891   -7.5544 H   0  0  0  0  0  0
  1  2  1  0  0  0
  1  3  1  0  0  0
  1  4  1  0  0  0
  1 16  1  0  0  0
  2  5  2  0  0  0
  2  7  1  0  0  0
  2 10  1  0  0  0
  3  6  2  0  0  0
  3  8  1  0  0  0
  3  9  1  0  0  0
  4 11  1  0  0  0
  4 12  1  0  0  0
  7 17  1  0  0  0
  8 18  1  0  0  0
  9 19  1  0  0  0
 10 20  1  0  0  0
 11 14  1  0  0  0
 11 21  1  0  0  0
 11 22  1  0  0  0
 12 13  1  0  0  0
 12 23  1  0  0  0
 12 24  1  0  0  0
 13 15  1  0  0  0
 13 25  1  0  0  0
 13 26  1  0  0  0
 14 15  1  0  0  0
 14 27  1  0  0  0
 14 28  1  0  0  0
 15 29  1  0  0  0
 15 30  1  0  0  0
M  END
> <s_m_entry_id>
3063

> <s_m_entry_name>
dock_pv.78

> <s_m_Source_Path>
/home/csk/Desktop/cluster/DUD-E-result/fpps

> <s_m_Source_File>
dock_pv.maegz

> <i_m_Source_File_Index>
78

> <chembl_id>
CHEMBL52137

> <chembl_pref_name>
None

> <i_lp_mmshare_version>
53161

> <r_lp_tautomer_probability>
1

> <s_lp_Force_Field>
OPLS_2005

> <r_lp_Energy>
15.753583

> <b_lp_Chiralities_Consistent>
1

> <s_lp_Variant>
CHEMBL1782_lig96-1

> <s_i_glide_gridfile>
glide-grid_1zw5

> <i_i_glide_lignum>
106

> <i_i_glide_rotatable_bonds>
7

> <r_i_docking_score>
-8.30713770926828

> <r_i_glide_ligand_efficiency>
-0.553809180617885

> <r_i_glide_ligand_efficiency_sa>
-1.365810886882

> <r_i_glide_ligand_efficiency_ln>
-2.2402980700744

> <r_i_glide_gscore>
-8.30713770926828

> <r_i_glide_lipo>
0

> <r_i_glide_hbond>
0

> <r_i_glide_metal>
-2.3

> <r_i_glide_rewards>
-1.64226872727273

> <r_i_glide_evdw>
-13.8277921676636

> <r_i_glide_ecoul>
-48.4938354492188

> <r_i_glide_erotb>
0.52652062638763

> <r_i_glide_esite>
-0.2

> <r_i_glide_emodel>
-106.246136832782

> <r_i_glide_energy>
-62.3216276168823

> <r_i_glide_einternal>
22.0981597900391

> <i_i_glide_confnum>
14

> <i_i_glide_posenum>
349

> <r_i_glide_eff_state_penalty>
0

> <s_user_duplicate_titles>
CHEMBL1782_lig96,83914

> <i_f3d_flags>
0

> <s_m_subgroup_title>
dock_pv

> <s_m_subgroupid>
dock_pv

> <b_m_subgroup_collapsed>
1

$$$$
CHEMBL1782_lig195
                    3D
 Schrodinger Suite 2021-1.
 26 26  0  0  1  0            999 V2000
   15.3980   32.3124   -9.3207 C   0  0  0  0  0  0
   15.1949   31.2745   -8.4398 N   0  0  0  0  0  0
   14.8863   31.8013   -7.2007 C   0  0  0  0  0  0
   14.9010   33.1886   -7.3355 C   0  0  0  0  0  0
   15.2259   33.5094   -8.6494 N   0  3  0  0  0  0
   15.2795   34.8555   -9.2258 C   0  0  0  0  0  0
   16.6689   35.5508   -9.1190 C   0  0  0  0  0  0
   16.4370   37.4119   -9.1633 P   0  0  0  0  0  0
   15.7010   37.9656  -10.3650 O   0  0  0  0  0  0
   15.7010   37.7402   -7.6645 O   0  0  0  0  0  0
   18.0245   37.9732   -9.0085 O   0  0  0  0  0  0
   17.8542   34.8834  -10.3984 P   0  0  0  0  0  0
   17.2365   35.5236  -11.8541 O   0  0  0  0  0  0
   18.1010   33.3800  -10.3650 O   0  0  0  0  0  0
   19.2435   35.7800  -10.0097 O   0  0  0  0  0  0
   15.6307   32.2026  -10.3651 H   0  0  0  0  0  0
   15.2329   30.2868   -8.6659 H   0  0  0  0  0  0
   14.6692   31.1485   -6.3650 H   0  0  0  0  0  0
   14.6851   33.9647   -6.6181 H   0  0  0  0  0  0
   14.5063   35.4411   -8.7236 H   0  0  0  0  0  0
   14.9564   34.7933  -10.2657 H   0  0  0  0  0  0
   17.1099   35.3084   -8.1436 H   0  0  0  0  0  0
   15.4835   38.6633   -7.4307 H   0  0  0  0  0  0
   18.2408   38.8647   -9.3734 H   0  0  0  0  0  0
   19.5349   36.5443  -10.5620 H   0  0  0  0  0  0
   17.7010   36.2572  -12.3261 H   0  0  0  0  0  0
  1  2  1  0  0  0
  1  5  2  0  0  0
  1 16  1  0  0  0
  2  3  1  0  0  0
  2 17  1  0  0  0
  3  4  2  0  0  0
  3 18  1  0  0  0
  4  5  1  0  0  0
  4 19  1  0  0  0
  5  6  1  0  0  0
  6  7  1  0  0  0
  6 20  1  0  0  0
  6 21  1  0  0  0
  7  8  1  0  0  0
  7 12  1  0  0  0
  7 22  1  0  0  0
  8  9  2  0  0  0
  8 10  1  0  0  0
  8 11  1  0  0  0
 10 23  1  0  0  0
 11 24  1  0  0  0
 12 13  1  0  0  0
 12 14  2  0  0  0
 12 15  1  0  0  0
 13 26  1  0  0  0
 15 25  1  0  0  0
M  CHG  1   5   1
M  END
> <s_m_entry_id>
3064

> <s_m_entry_name>
dock_pv.79

> <s_m_Source_Path>
/home/csk/Desktop/cluster/DUD-E-result/fpps

> <s_m_Source_File>
dock_pv.maegz

> <i_m_Source_File_Index>
79

> <chembl_id>
CHEMBL2338368

> <chembl_pref_name>
None

> <i_lp_mmshare_version>
53161

> <r_lp_tautomer_probability>
1

> <s_lp_Force_Field>
OPLS_2005

> <r_lp_Energy>
-0.241229

> <b_lp_Chiralities_Consistent>
1

> <s_lp_Variant>
CHEMBL1782_lig195-1

> <s_i_glide_gridfile>
glide-grid_1zw5

> <i_i_glide_lignum>
219

> <i_i_glide_rotatable_bonds>
8

> <r_i_docking_score>
-8.30007222335665

> <r_i_glide_ligand_efficiency>
-0.553338148223776

> <r_i_glide_ligand_efficiency_sa>
-1.36464922110529

> <r_i_glide_ligand_efficiency_ln>
-2.23839262502149

> <r_i_glide_gscore>
-8.30007222335665

> <r_i_glide_lipo>
0

> <r_i_glide_hbond>
0

> <r_i_glide_metal>
-2.3

> <r_i_glide_rewards>
-1.50614890909091

> <r_i_glide_evdw>
-17.9901180267334

> <r_i_glide_ecoul>
-41.6896820068359

> <r_i_glide_erotb>
0.800572666507818

> <r_i_glide_esite>
-0.394990079436886

> <r_i_glide_emodel>
-95.1869356752742

> <r_i_glide_energy>
-59.6798000335693

> <r_i_glide_einternal>
20.7412261962891

> <i_i_glide_confnum>
21

> <i_i_glide_posenum>
347

> <r_i_glide_eff_state_penalty>
0

> <s_user_duplicate_titles>
CHEMBL1782_lig195

> <i_f3d_flags>
0

> <s_m_subgroup_title>
dock_pv

> <s_m_subgroupid>
dock_pv

> <b_m_subgroup_collapsed>
1

$$$$
CHEMBL1782_lig124
                    3D
 Schrodinger Suite 2021-1.
 30 30  0  0  1  0            999 V2000
   16.8528   35.6536   -9.0513 C   0  0  0  0  0  0
   16.5016   37.4973   -9.1639 P   0  0  0  0  0  0
   17.7819   34.8590  -10.4904 P   0  0  0  0  0  0
   15.5516   35.0164   -8.7719 N   0  0  2  0  0  0
   15.7051   37.9587  -10.3639 O   0  0  0  0  0  0
   18.0997   33.3808  -10.3650 O   0  0  0  0  0  0
   16.8776   35.3293  -11.8630 O   0  0  0  0  0  0
   19.1981   35.7797  -10.4836 O   0  0  0  0  0  0
   15.8116   37.8685   -7.6450 O   0  0  0  0  0  0
   18.0414   38.1775   -9.1270 O   0  0  0  0  0  0
   15.5414   33.5992   -8.4195 C   0  0  0  0  0  0
   14.5123   33.3348   -7.2997 C   0  0  0  0  0  0
   15.1423   32.6615   -9.5803 C   0  0  0  0  0  0
   13.8202   32.0047   -9.1726 C   0  0  0  0  0  0
   13.8705   31.9907   -7.6501 C   0  0  0  0  0  0
   17.4731   35.4751   -8.1613 H   0  0  0  0  0  0
   14.8541   35.2174   -9.4858 H   0  0  0  0  0  0
   17.2671   35.9127  -12.5502 H   0  0  0  0  0  0
   19.3009   36.5688  -11.0778 H   0  0  0  0  0  0
   16.1890   38.5790   -7.0901 H   0  0  0  0  0  0
   18.1222   39.0942   -9.5147 H   0  0  0  0  0  0
   16.5012   33.2925   -8.0095 H   0  0  0  0  0  0
   14.9817   33.2623   -6.3175 H   0  0  0  0  0  0
   13.7233   34.0896   -7.2761 H   0  0  0  0  0  0
   15.0525   33.1645  -10.5442 H   0  0  0  0  0  0
   15.8876   31.8711   -9.6824 H   0  0  0  0  0  0
   13.7010   31.0039   -9.5927 H   0  0  0  0  0  0
   12.9756   32.6049   -9.5170 H   0  0  0  0  0  0
   14.4948   31.1653   -7.3015 H   0  0  0  0  0  0
   12.8830   31.8665   -7.2036 H   0  0  0  0  0  0
  1  2  1  0  0  0
  1  3  1  0  0  0
  1  4  1  0  0  0
  1 16  1  0  0  0
  2  5  2  0  0  0
  2  9  1  0  0  0
  2 10  1  0  0  0
  3  6  2  0  0  0
  3  7  1  0  0  0
  3  8  1  0  0  0
  4 11  1  0  0  0
  4 17  1  0  0  0
  7 18  1  0  0  0
  8 19  1  0  0  0
  9 20  1  0  0  0
 10 21  1  0  0  0
 11 12  1  0  0  0
 11 13  1  0  0  0
 11 22  1  0  0  0
 12 15  1  0  0  0
 12 23  1  0  0  0
 12 24  1  0  0  0
 13 14  1  0  0  0
 13 25  1  0  0  0
 13 26  1  0  0  0
 14 15  1  0  0  0
 14 27  1  0  0  0
 14 28  1  0  0  0
 15 29  1  0  0  0
 15 30  1  0  0  0
M  END
> <s_m_entry_id>
3065

> <s_m_entry_name>
dock_pv.80

> <s_m_Source_Path>
/home/csk/Desktop/cluster/DUD-E-result/fpps

> <s_m_Source_File>
dock_pv.maegz

> <i_m_Source_File_Index>
80

> <chembl_id>
CHEMBL58830

> <chembl_pref_name>
(CYCLOPENTYLAMINO)METHYLENEDIPHOSPHONIC ACID

> <i_lp_mmshare_version>
53161

> <r_lp_tautomer_probability>
1

> <s_lp_Force_Field>
OPLS_2005

> <r_lp_Energy>
16.336398

> <b_lp_Chiralities_Consistent>
1

> <s_lp_Variant>
CHEMBL1782_lig124-1

> <s_i_glide_gridfile>
glide-grid_1zw5

> <i_i_glide_lignum>
136

> <i_i_glide_rotatable_bonds>
8

> <r_i_docking_score>
-8.28795801874892

> <r_i_glide_ligand_efficiency>
-0.552530534583262

> <r_i_glide_ligand_efficiency_sa>
-1.36265747459546

> <r_i_glide_ligand_efficiency_ln>
-2.23512562378075

> <r_i_glide_gscore>
-8.28795801874892

> <r_i_glide_lipo>
0

> <r_i_glide_hbond>
-0.0474611597075422

> <r_i_glide_metal>
-2.3

> <r_i_glide_rewards>
-1.64226872727273

> <r_i_glide_evdw>
-17.760181427002

> <r_i_glide_ecoul>
-48.7178497314453

> <r_i_glide_erotb>
0.789780939581444

> <r_i_glide_esite>
-0.2

> <r_i_glide_emodel>
-114.853318256084

> <r_i_glide_energy>
-66.4780311584473

> <r_i_glide_einternal>
23.2108497619629

> <i_i_glide_confnum>
45

> <i_i_glide_posenum>
298

> <r_i_glide_eff_state_penalty>
0

> <s_user_duplicate_titles>
CHEMBL1782_lig124,84173

> <i_f3d_flags>
0

> <s_m_subgroup_title>
dock_pv

> <s_m_subgroupid>
dock_pv

> <b_m_subgroup_collapsed>
1

$$$$
CHEMBL1782_lig46
                    3D
 Schrodinger Suite 2021-1.
 26 26  0  0  1  0            999 V2000
   16.3401   34.3585   -9.4285 C   0  0  0  0  0  0
   17.0701   35.5194  -10.7005 P   0  0  0  0  0  0
   16.0259   35.2636   -7.8116 P   0  0  0  0  0  0
   15.0790   33.6519  -10.0052 C   0  0  0  0  0  0
   13.3926   30.9008   -8.2016 N   0  0  0  0  0  0
   14.5888   32.4090   -9.2726 C   0  0  0  0  0  0
   15.3241   31.3029   -9.2361 N   0  0  0  0  0  0
   14.6054   30.4111   -8.5984 C   0  0  0  0  0  0
   17.3010   35.7800   -7.1650 O   0  0  0  0  0  0
   16.1010   36.5800  -11.1704 O   0  0  0  0  0  0
   13.3737   32.2021   -8.6254 C   0  0  0  0  0  0
   17.3452   33.3800   -9.1650 O   0  0  0  0  0  0
   18.4515   36.1093   -9.8807 O   0  0  0  0  0  0
   14.9010   36.4780   -8.2337 O   0  0  0  0  0  0
   17.6566   34.4831  -11.9176 O   0  0  0  0  0  0
   15.1854   34.1213   -6.8608 O   0  0  0  0  0  0
   14.2668   34.3764  -10.0514 H   0  0  0  0  0  0
   15.2658   33.3800  -11.0449 H   0  0  0  0  0  0
   12.6572   30.3941   -7.7222 H   0  0  0  0  0  0
   14.8663   29.3796   -8.4043 H   0  0  0  0  0  0
   12.5032   32.8261   -8.4796 H   0  0  0  0  0  0
   16.9010   32.6826   -8.6566 H   0  0  0  0  0  0
   18.8893   36.9228  -10.2307 H   0  0  0  0  0  0
   14.3519   36.4932   -9.0528 H   0  0  0  0  0  0
   17.9844   34.8485  -12.7650 H   0  0  0  0  0  0
   14.8112   33.2907   -7.2209 H   0  0  0  0  0  0
  1  2  1  0  0  0
  1  3  1  0  0  0
  1  4  1  0  0  0
  1 12  1  0  0  0
  2 10  2  0  0  0
  2 13  1  0  0  0
  2 15  1  0  0  0
  3  9  2  0  0  0
  3 14  1  0  0  0
  3 16  1  0  0  0
  4  6  1  0  0  0
  4 17  1  0  0  0
  4 18  1  0  0  0
  5 11  1  0  0  0
  5  8  1  0  0  0
  5 19  1  0  0  0
  6  7  1  0  0  0
  6 11  2  0  0  0
  7  8  2  0  0  0
  8 20  1  0  0  0
 11 21  1  0  0  0
 12 22  1  0  0  0
 13 23  1  0  0  0
 14 24  1  0  0  0
 15 25  1  0  0  0
 16 26  1  0  0  0
M  END
> <s_m_entry_id>
3066

> <s_m_entry_name>
dock_pv.81

> <s_m_Source_Path>
/home/csk/Desktop/cluster/DUD-E-result/fpps

> <s_m_Source_File>
dock_pv.maegz

> <i_m_Source_File_Index>
81

> <chembl_id>
CHEMBL301247

> <chembl_pref_name>
None

> <i_lp_mmshare_version>
53161

> <r_lp_tautomer_probability>
0.499999999999999

> <s_lp_Force_Field>
OPLS_2005

> <r_lp_Energy>
-3.203735

> <b_lp_Chiralities_Consistent>
1

> <s_lp_Variant>
CHEMBL1782_lig46-1

> <s_i_glide_gridfile>
glide-grid_1zw5

> <i_i_glide_lignum>
50

> <i_i_glide_rotatable_bonds>
9

> <r_i_docking_score>
-8.28285391344217

> <r_i_glide_ligand_efficiency>
-0.517678369590136

> <r_i_glide_ligand_efficiency_sa>
-1.30446774863816

> <r_i_glide_ligand_efficiency_ln>
-2.19553588352049

> <r_i_glide_gscore>
-8.28285391344217

> <r_i_glide_lipo>
0

> <r_i_glide_hbond>
-0.0209685634760871

> <r_i_glide_metal>
-2.3

> <r_i_glide_rewards>
-1.55393440909091

> <r_i_glide_evdw>
-16.9487590789795

> <r_i_glide_ecoul>
-50.2519912719727

> <r_i_glide_erotb>
0.725985271642188

> <r_i_glide_esite>
-0.286498258568386

> <r_i_glide_emodel>
-117.79352747221

> <r_i_glide_energy>
-67.2007503509521

> <r_i_glide_einternal>
19.7688770294189

> <i_i_glide_confnum>
8

> <i_i_glide_posenum>
348

> <r_i_glide_eff_state_penalty>
0

> <s_user_duplicate_titles>
CHEMBL1782_lig46,CHEMBL1782_lig46,84844

> <i_f3d_flags>
0

> <s_m_subgroup_title>
dock_pv

> <s_m_subgroupid>
dock_pv

> <b_m_subgroup_collapsed>
1

$$$$
CHEMBL1782_lig144
                    3D
 Schrodinger Suite 2021-1.
 31 31  0  0  1  0            999 V2000
   16.9240   35.3931   -9.4730 C   0  0  2  0  0  0
   15.6584   34.7307   -9.8161 N   0  0  0  0  0  0
   16.5172   37.1913   -9.1650 P   0  0  0  0  0  0
   18.2647   34.9800  -10.6814 P   0  0  1  0  0  0
   15.3600   33.4089   -9.4462 C   0  0  0  0  0  0
   16.3707   32.5024   -9.4381 N   0  0  0  0  0  0
   17.5751   37.9011   -8.3650 O   0  0  0  0  0  0
   18.6460   33.5386  -10.7650 O   0  0  0  0  0  0
   14.0363   33.0494   -9.1210 C   0  0  0  0  0  0
   16.1974   37.7800  -10.7650 O   0  0  0  0  0  0
   15.0367   37.1108   -8.3493 O   0  0  0  0  0  0
   17.7010   35.6305  -12.0625 O   0  0  0  0  0  0
   19.6665   36.0992  -10.2484 C   0  0  0  0  0  0
   16.0730   31.2095   -9.1650 C   0  0  0  0  0  0
   12.9100   34.0675   -8.9921 C   0  0  0  0  0  0
   13.7593   31.7050   -8.8452 C   0  0  0  0  0  0
   14.7865   30.7661   -8.8771 C   0  0  0  0  0  0
   17.2612   34.9801   -8.5159 H   0  0  0  0  0  0
   14.8418   35.3358   -9.7663 H   0  0  0  0  0  0
   16.9889   38.0159  -11.3198 H   0  0  0  0  0  0
   14.6670   37.9252   -7.9650 H   0  0  0  0  0  0
   18.1372   36.4890  -12.3197 H   0  0  0  0  0  0
   19.3423   37.1003   -9.9650 H   0  0  0  0  0  0
   20.2807   35.7800   -9.4194 H   0  0  0  0  0  0
   20.3311   36.1800  -11.1045 H   0  0  0  0  0  0
   16.9010   30.5238   -9.1651 H   0  0  0  0  0  0
   13.2614   34.9800   -8.5105 H   0  0  0  0  0  0
   12.0987   33.6872   -8.3705 H   0  0  0  0  0  0
   12.5010   34.3264   -9.9650 H   0  0  0  0  0  0
   12.7556   31.3830   -8.6045 H   0  0  0  0  0  0
   14.5890   29.7234   -8.6695 H   0  0  0  0  0  0
  1  2  1  0  0  0
  1  3  1  0  0  0
  1  4  1  0  0  0
  1 18  1  0  0  0
  2  5  1  0  0  0
  2 19  1  0  0  0
  3  7  2  0  0  0
  3 10  1  0  0  0
  3 11  1  0  0  0
  4  8  2  0  0  0
  4 12  1  0  0  0
  4 13  1  0  0  0
  5  6  1  0  0  0
  5  9  2  0  0  0
  6 14  2  0  0  0
  9 15  1  0  0  0
  9 16  1  0  0  0
 10 20  1  0  0  0
 11 21  1  0  0  0
 12 22  1  0  0  0
 13 23  1  0  0  0
 13 24  1  0  0  0
 13 25  1  0  0  0
 14 17  1  0  0  0
 14 26  1  0  0  0
 15 27  1  0  0  0
 15 28  1  0  0  0
 15 29  1  0  0  0
 16 17  2  0  0  0
 16 30  1  0  0  0
 17 31  1  0  0  0
M  END
> <s_m_entry_id>
3067

> <s_m_entry_name>
dock_pv.82

> <s_m_Source_Path>
/home/csk/Desktop/cluster/DUD-E-result/fpps

> <s_m_Source_File>
dock_pv.maegz

> <i_m_Source_File_Index>
82

> <chembl_id>
CHEMBL100154

> <chembl_pref_name>
None

> <i_lp_mmshare_version>
53161

> <r_lp_tautomer_probability>
0.999999772200052

> <s_lp_Force_Field>
OPLS_2005

> <r_lp_Energy>
-6.639465

> <b_lp_Chiralities_Consistent>
1

> <s_lp_Variant>
CHEMBL1782_lig144-1

> <s_i_glide_gridfile>
glide-grid_1zw5

> <i_i_glide_lignum>
158

> <i_i_glide_rotatable_bonds>
7

> <r_i_docking_score>
-8.27786670862126

> <r_i_glide_ligand_efficiency>
-0.48693333580125

> <r_i_glide_ligand_efficiency_sa>
-1.25204272104112

> <r_i_glide_ligand_efficiency_ln>
-2.15951108525095

> <r_i_glide_gscore>
-8.27786670862126

> <r_i_glide_lipo>
0

> <r_i_glide_hbond>
-0.116872455015309

> <r_i_glide_metal>
-2.3

> <r_i_glide_rewards>
-1.49894536363636

> <r_i_glide_evdw>
-20.2056064605713

> <r_i_glide_ecoul>
-35.8436317443848

> <r_i_glide_erotb>
0.920169539286194

> <r_i_glide_esite>
-0.271938106227214

> <r_i_glide_emodel>
-99.2320349484842

> <r_i_glide_energy>
-56.0492382049561

> <r_i_glide_einternal>
10.8170795440674

> <i_i_glide_confnum>
46

> <i_i_glide_posenum>
232

> <r_i_glide_eff_state_penalty>
0

> <s_user_duplicate_titles>
CHEMBL1782_lig144

> <i_f3d_flags>
0

> <s_m_subgroup_title>
dock_pv

> <s_m_subgroupid>
dock_pv

> <b_m_subgroup_collapsed>
1

$$$$
CHEMBL1782_lig62
                    3D
 Schrodinger Suite 2021-1.
 29 29  0  0  1  0            999 V2000
   16.6112   35.6179   -9.2405 C   0  0  0  0  0  0
   18.0714   35.1762  -10.3350 P   0  0  0  0  0  0
   16.2812   37.4531   -9.3486 P   0  0  0  0  0  0
   15.3521   34.7848   -9.6116 C   0  0  0  0  0  0
   15.3734   33.3053   -9.2236 C   0  0  0  0  0  0
   14.7969   32.7951   -8.0747 N   0  0  0  0  0  0
   15.9147   32.3635   -9.9650 N   0  0  0  0  0  0
   15.7010   31.2343   -9.3156 C   0  0  0  0  0  0
   16.1010   37.9396  -10.7650 O   0  0  0  0  0  0
   18.5010   33.7333  -10.3650 O   0  0  0  0  0  0
   15.0104   31.4444   -8.1382 C   0  0  0  0  0  0
   16.9027   35.3800   -7.8682 O   0  0  0  0  0  0
   17.5993   35.7800  -11.8420 O   0  0  0  0  0  0
   14.9010   37.6341   -8.3828 O   0  0  0  0  0  0
   19.2651   36.1800   -9.6426 O   0  0  0  0  0  0
   17.5841   38.1800   -8.5435 O   0  0  0  0  0  0
   14.0717   33.5020   -7.0333 C   0  0  0  0  0  0
   14.4743   35.2413   -9.1650 H   0  0  0  0  0  0
   15.1946   34.8714  -10.6869 H   0  0  0  0  0  0
   16.0305   30.2753   -9.6900 H   0  0  0  0  0  0
   14.6531   30.7720   -7.3704 H   0  0  0  0  0  0
   16.1010   35.5743   -7.3687 H   0  0  0  0  0  0
   17.9942   36.6504  -12.1410 H   0  0  0  0  0  0
   14.0213   37.3219   -8.7029 H   0  0  0  0  0  0
   19.6261   36.9508  -10.1388 H   0  0  0  0  0  0
   17.8420   39.0892   -8.8327 H   0  0  0  0  0  0
   13.5955   32.7825   -6.3657 H   0  0  0  0  0  0
   14.7701   34.1015   -6.4526 H   0  0  0  0  0  0
   13.3005   34.1291   -7.4804 H   0  0  0  0  0  0
  1  2  1  0  0  0
  1  3  1  0  0  0
  1  4  1  0  0  0
  1 12  1  0  0  0
  2 10  2  0  0  0
  2 13  1  0  0  0
  2 15  1  0  0  0
  3  9  2  0  0  0
  3 14  1  0  0  0
  3 16  1  0  0  0
  4  5  1  0  0  0
  4 18  1  0  0  0
  4 19  1  0  0  0
  5  6  1  0  0  0
  5  7  2  0  0  0
  6 11  1  0  0  0
  6 17  1  0  0  0
  7  8  1  0  0  0
  8 11  2  0  0  0
  8 20  1  0  0  0
 11 21  1  0  0  0
 12 22  1  0  0  0
 13 23  1  0  0  0
 14 24  1  0  0  0
 15 25  1  0  0  0
 16 26  1  0  0  0
 17 27  1  0  0  0
 17 28  1  0  0  0
 17 29  1  0  0  0
M  END
> <s_m_entry_id>
3068

> <s_m_entry_name>
dock_pv.83

> <s_m_Source_Path>
/home/csk/Desktop/cluster/DUD-E-result/fpps

> <s_m_Source_File>
dock_pv.maegz

> <i_m_Source_File_Index>
83

> <chembl_id>
CHEMBL101207

> <chembl_pref_name>
None

> <i_lp_mmshare_version>
53161

> <r_lp_tautomer_probability>
1

> <s_lp_Force_Field>
OPLS_2005

> <r_lp_Energy>
-4.210701

> <b_lp_Chiralities_Consistent>
1

> <s_lp_Variant>
CHEMBL1782_lig62-1

> <s_i_glide_gridfile>
glide-grid_1zw5

> <i_i_glide_lignum>
68

> <i_i_glide_rotatable_bonds>
9

> <r_i_docking_score>
-8.27433142230931

> <r_i_glide_ligand_efficiency>
-0.486725377782901

> <r_i_glide_ligand_efficiency_sa>
-1.25150800241742

> <r_i_glide_ligand_efficiency_ln>
-2.15858880777912

> <r_i_glide_gscore>
-8.27433142230931

> <r_i_glide_lipo>
0

> <r_i_glide_hbond>
0

> <r_i_glide_metal>
-2.3

> <r_i_glide_rewards>
-1.60829863636364

> <r_i_glide_evdw>
-13.249285697937

> <r_i_glide_ecoul>
-53.6450614929199

> <r_i_glide_erotb>
0.620960026473

> <r_i_glide_esite>
-0.324528527521826

> <r_i_glide_emodel>
-116.512617039922

> <r_i_glide_energy>
-66.8943471908569

> <r_i_glide_einternal>
19.6531867980957

> <i_i_glide_confnum>
54

> <i_i_glide_posenum>
290

> <r_i_glide_eff_state_penalty>
0

> <s_user_duplicate_titles>
CHEMBL1782_lig62

> <i_f3d_flags>
0

> <s_m_subgroup_title>
dock_pv

> <s_m_subgroupid>
dock_pv

> <b_m_subgroup_collapsed>
1

$$$$
CHEMBL1782_lig152
                    3D
 Schrodinger Suite 2021-1.
 29 29  0  0  1  0            999 V2000
   14.6227   31.7281   -7.3185 C   0  0  0  0  0  0
   15.1346   30.7112   -8.1194 C   0  0  0  0  0  0
   15.7010   31.0026   -9.3568 C   0  0  0  0  0  0
   15.7550   32.3227   -9.7991 C   0  0  0  0  0  0
   15.2500   33.3523   -9.0011 C   0  0  0  0  0  0
   14.6798   33.0479   -7.7593 C   0  0  0  0  0  0
   15.2748   34.8041   -9.4920 C   0  0  0  0  0  0
   16.5564   35.6335   -9.1946 C   0  0  0  0  0  0
   17.9530   35.1656  -10.3500 P   0  0  0  0  0  0
   17.3010   35.4653  -11.8951 O   0  0  0  0  0  0
   19.1138   36.3382   -9.9650 O   0  0  0  0  0  0
   18.5010   33.7800  -10.1663 O   0  0  0  0  0  0
   16.2710   37.4727   -9.3328 P   0  0  0  0  0  0
   16.9011   35.3800   -7.8350 O   0  0  0  0  0  0
   14.9010   37.6975   -8.3750 O   0  0  0  0  0  0
   16.1010   37.9327  -10.7650 O   0  0  0  0  0  0
   17.5725   38.1800   -8.4989 O   0  0  0  0  0  0
   14.1758   31.4881   -6.3650 H   0  0  0  0  0  0
   15.0866   29.6855   -7.7818 H   0  0  0  0  0  0
   16.0891   30.1983   -9.9650 H   0  0  0  0  0  0
   16.1791   32.5402  -10.7650 H   0  0  0  0  0  0
   14.2663   33.8265   -7.1368 H   0  0  0  0  0  0
   14.4174   35.2873   -9.0280 H   0  0  0  0  0  0
   15.0580   34.8147  -10.5599 H   0  0  0  0  0  0
   17.6886   36.1670  -12.4649 H   0  0  0  0  0  0
   19.3010   37.0731  -10.6071 H   0  0  0  0  0  0
   16.1010   35.5193   -7.3128 H   0  0  0  0  0  0
   14.0186   37.3800   -8.6810 H   0  0  0  0  0  0
   17.8469   39.0944   -8.7444 H   0  0  0  0  0  0
  1  6  1  0  0  0
  1  2  2  0  0  0
  1 18  1  0  0  0
  2  3  1  0  0  0
  2 19  1  0  0  0
  3  4  2  0  0  0
  3 20  1  0  0  0
  4  5  1  0  0  0
  4 21  1  0  0  0
  5  6  2  0  0  0
  5  7  1  0  0  0
  6 22  1  0  0  0
  7  8  1  0  0  0
  7 23  1  0  0  0
  7 24  1  0  0  0
  8  9  1  0  0  0
  8 13  1  0  0  0
  8 14  1  0  0  0
  9 10  1  0  0  0
  9 11  1  0  0  0
  9 12  2  0  0  0
 10 25  1  0  0  0
 11 26  1  0  0  0
 13 15  1  0  0  0
 13 16  2  0  0  0
 13 17  1  0  0  0
 14 27  1  0  0  0
 15 28  1  0  0  0
 17 29  1  0  0  0
M  END
> <s_m_entry_id>
3069

> <s_m_entry_name>
dock_pv.84

> <s_m_Source_Path>
/home/csk/Desktop/cluster/DUD-E-result/fpps

> <s_m_Source_File>
dock_pv.maegz

> <i_m_Source_File_Index>
84

> <chembl_id>
CHEMBL56556

> <chembl_pref_name>
None

> <i_lp_mmshare_version>
53161

> <r_lp_tautomer_probability>
1

> <s_lp_Force_Field>
OPLS_2005

> <r_lp_Energy>
1.974515

> <b_lp_Chiralities_Consistent>
1

> <s_lp_Variant>
CHEMBL1782_lig152-1

> <s_i_glide_gridfile>
glide-grid_1zw5

> <i_i_glide_lignum>
172

> <i_i_glide_rotatable_bonds>
9

> <r_i_docking_score>
-8.27200961440724

> <r_i_glide_ligand_efficiency>
-0.486588800847485

> <r_i_glide_ligand_efficiency_sa>
-1.25115682465801

> <r_i_glide_ligand_efficiency_ln>
-2.15798309980159

> <r_i_glide_gscore>
-8.27200961440724

> <r_i_glide_lipo>
-0.0408205477216044

> <r_i_glide_hbond>
0

> <r_i_glide_metal>
-2.3

> <r_i_glide_rewards>
-1.63551681818182

> <r_i_glide_evdw>
-11.4583253860474

> <r_i_glide_ecoul>
-51.3385734558105

> <r_i_glide_erotb>
0.477244020798551

> <r_i_glide_esite>
-0.2

> <r_i_glide_emodel>
-110.737872980139

> <r_i_glide_energy>
-62.7968988418579

> <r_i_glide_einternal>
18.8679885864258

> <i_i_glide_confnum>
12

> <i_i_glide_posenum>
341

> <r_i_glide_eff_state_penalty>
0

> <s_user_duplicate_titles>
CHEMBL1782_lig152,83953

> <i_f3d_flags>
0

> <s_m_subgroup_title>
dock_pv

> <s_m_subgroupid>
dock_pv

> <b_m_subgroup_collapsed>
1

$$$$
CHEMBL1782_lig89
                    3D
 Schrodinger Suite 2021-1.
 29 29  0  0  1  0            999 V2000
   15.7915   35.2496   -9.8770 C   0  0  0  0  0  0
   17.1394   34.0675  -10.2902 P   0  0  0  0  0  0
   16.2845   36.9519   -9.2926 P   0  0  0  0  0  0
   14.7734   34.6759   -8.8499 C   0  0  0  0  0  0
   15.4956   37.5006   -8.1275 O   0  0  0  0  0  0
   18.1008   33.7800   -9.1650 O   0  0  0  0  0  0
   14.2057   33.3608   -9.1693 N   0  0  0  0  0  0
   14.9819   29.7561   -7.1124 N   0  0  0  0  0  0
   17.9592   36.7520   -8.9366 O   0  0  0  0  0  0
   16.1056   37.8549  -10.7647 O   0  0  0  0  0  0
   16.3382   32.6579  -10.7650 O   0  0  0  0  0  0
   17.8930   34.7400  -11.6669 O   0  0  0  0  0  0
   14.4851   32.1849   -8.4479 C   0  0  0  0  0  0
   15.0731   32.1706   -7.1753 C   0  0  0  0  0  0
   14.1505   30.9629   -9.0361 C   0  0  0  0  0  0
   14.4156   29.7802   -8.3425 C   0  0  0  0  0  0
   15.3010   30.9436   -6.5477 C   0  0  0  0  0  0
   15.3001   35.3799  -10.8384 H   0  0  0  0  0  0
   15.2263   34.6914   -7.8615 H   0  0  0  0  0  0
   13.9300   35.3640   -8.7646 H   0  0  0  0  0  0
   13.5720   33.2899   -9.9600 H   0  0  0  0  0  0
   18.6177   37.3802   -9.3111 H   0  0  0  0  0  0
   16.9000   38.3829  -11.0608 H   0  0  0  0  0  0
   15.6141   32.2944  -10.2096 H   0  0  0  0  0  0
   18.2756   35.6428  -11.7259 H   0  0  0  0  0  0
   15.3465   33.0689   -6.6493 H   0  0  0  0  0  0
   13.7007   30.9139  -10.0150 H   0  0  0  0  0  0
   14.1674   28.8205   -8.7651 H   0  0  0  0  0  0
   15.7442   30.8959   -5.5636 H   0  0  0  0  0  0
  1  2  1  0  0  0
  1  3  1  0  0  0
  1  4  1  0  0  0
  1 18  1  0  0  0
  2  6  2  0  0  0
  2 11  1  0  0  0
  2 12  1  0  0  0
  3  5  2  0  0  0
  3  9  1  0  0  0
  3 10  1  0  0  0
  4  7  1  0  0  0
  4 19  1  0  0  0
  4 20  1  0  0  0
  7 13  1  0  0  0
  7 21  1  0  0  0
  8 16  1  0  0  0
  8 17  2  0  0  0
  9 22  1  0  0  0
 10 23  1  0  0  0
 11 24  1  0  0  0
 12 25  1  0  0  0
 13 14  2  0  0  0
 13 15  1  0  0  0
 14 17  1  0  0  0
 14 26  1  0  0  0
 15 16  2  0  0  0
 15 27  1  0  0  0
 16 28  1  0  0  0
 17 29  1  0  0  0
M  END
> <s_m_entry_id>
3071

> <s_m_entry_name>
dock_pv.86

> <s_m_Source_Path>
/home/csk/Desktop/cluster/DUD-E-result/fpps

> <s_m_Source_File>
dock_pv.maegz

> <i_m_Source_File_Index>
86

> <chembl_id>
CHEMBL294191

> <chembl_pref_name>
None

> <i_lp_mmshare_version>
53161

> <r_lp_tautomer_probability>
0.999999106000799

> <s_lp_Force_Field>
OPLS_2005

> <r_lp_Energy>
1.9226

> <b_lp_Chiralities_Consistent>
1

> <s_lp_Variant>
CHEMBL1782_lig89-1

> <s_i_glide_gridfile>
glide-grid_1zw5

> <i_i_glide_lignum>
98

> <i_i_glide_rotatable_bonds>
9

> <r_i_docking_score>
-8.27121314541513

> <r_i_glide_ligand_efficiency>
-0.486541949730302

> <r_i_glide_ligand_efficiency_sa>
-1.25103635724301

> <r_i_glide_ligand_efficiency_ln>
-2.15777531877804

> <r_i_glide_gscore>
-8.27121314541513

> <r_i_glide_lipo>
-0.263470664465143

> <r_i_glide_hbond>
-0.0454723905410934

> <r_i_glide_metal>
-2.3

> <r_i_glide_rewards>
-1.48475253517225

> <r_i_glide_evdw>
-16.6702728271484

> <r_i_glide_ecoul>
-48.6346740722656

> <r_i_glide_erotb>
0.909017747023107

> <r_i_glide_esite>
-0.253021660902331

> <r_i_glide_emodel>
-113.965729628378

> <r_i_glide_energy>
-65.3049468994141

> <r_i_glide_einternal>
17.4821529388428

> <i_i_glide_confnum>
59

> <i_i_glide_posenum>
112

> <r_i_glide_eff_state_penalty>
0

> <s_user_duplicate_titles>
CHEMBL1782_lig89,84799

> <i_f3d_flags>
0

> <s_m_subgroup_title>
dock_pv

> <s_m_subgroupid>
dock_pv

> <b_m_subgroup_collapsed>
1

$$$$
CHEMBL1782_lig216
                    3D
 Schrodinger Suite 2021-1.
 45 48  0  0  1  0            999 V2000
   17.2213   37.1782   -8.0652 C   0  0  0  0  0  0
   17.9956   36.4332   -9.0588 N   0  0  0  0  0  0
   18.3744   33.6248  -11.1520 C   0  0  0  0  0  0
   17.5052   32.6584  -10.7636 N   0  0  0  0  0  0
   16.6029   33.0455   -9.8587 C   0  0  0  0  0  0
   16.6270   34.3085   -9.1989 C   0  0  0  0  0  0
   17.6771   35.1822   -9.5973 C   0  0  0  0  0  0
   18.5229   34.8376  -10.5933 N   0  0  0  0  0  0
   15.5726   34.3868   -8.2557 C   0  0  0  0  0  0
   14.6648   33.3562   -8.3515 C   0  0  0  0  0  0
   15.2313   32.0526   -9.3733 S   0  0  0  0  0  0
   13.3168   33.3638   -7.7231 C   0  0  0  0  0  0
   12.7541   32.2939   -7.0296 C   0  0  0  0  0  0
   11.5369   32.4748   -6.3713 C   0  0  0  0  0  0
   10.8776   33.7065   -6.4119 C   0  0  0  0  0  0
   11.4068   34.7475   -7.1639 C   0  0  0  0  0  0
   12.6164   34.5672   -7.8113 C   0  0  0  0  0  0
    9.6139   33.9071   -5.5953 C   0  0  0  0  0  0
    9.3787   35.1492   -4.7617 C   0  0  0  0  0  0
    8.5104   34.8764   -5.9651 C   0  0  0  0  0  0
   15.7719   38.0605   -8.8567 P   0  0  0  0  0  0
   14.5027   37.1421   -8.2976 O   0  0  0  0  0  0
   15.7140   39.5508   -8.0569 O   0  0  0  0  0  0
   15.7007   38.1791  -10.3641 O   0  0  0  0  0  0
   18.4301   38.1888   -7.1233 P   0  0  0  0  0  0
   19.6137   36.9747   -6.7747 O   0  0  0  0  0  0
   18.9008   39.2601   -8.3612 O   0  0  0  0  0  0
   17.8534   38.8403   -5.8932 O   0  0  0  0  0  0
   16.8711   36.4668   -7.3243 H   0  0  0  0  0  0
   18.6200   36.9956   -9.6398 H   0  0  0  0  0  0
   19.0516   33.3826  -11.9647 H   0  0  0  0  0  0
   15.3735   35.2034   -7.5904 H   0  0  0  0  0  0
   13.2721   31.3478   -6.9565 H   0  0  0  0  0  0
   11.1272   31.6627   -5.7935 H   0  0  0  0  0  0
   10.9040   35.7000   -7.2388 H   0  0  0  0  0  0
   13.0148   35.3790   -8.3857 H   0  0  0  0  0  0
    9.2685   32.9818   -5.1635 H   0  0  0  0  0  0
    8.9610   35.0269   -3.7621 H   0  0  0  0  0  0
   10.1093   35.9572   -4.8045 H   0  0  0  0  0  0
    8.6218   35.4884   -6.8610 H   0  0  0  0  0  0
    7.4770   34.5719   -5.8047 H   0  0  0  0  0  0
   13.6232   37.1530   -8.7667 H   0  0  0  0  0  0
   16.3993   40.2360   -8.2100 H   0  0  0  0  0  0
   20.3621   37.2519   -6.1777 H   0  0  0  0  0  0
   18.2998   39.7561   -8.9847 H   0  0  0  0  0  0
  1  2  1  0  0  0
  1 21  1  0  0  0
  1 25  1  0  0  0
  1 29  1  0  0  0
  2  7  1  0  0  0
  2 30  1  0  0  0
  3  4  1  0  0  0
  3  8  2  0  0  0
  3 31  1  0  0  0
  4  5  2  0  0  0
  5  6  1  0  0  0
  5 11  1  0  0  0
  6  7  2  0  0  0
  6  9  1  0  0  0
  7  8  1  0  0  0
  9 10  2  0  0  0
  9 32  1  0  0  0
 10 11  1  0  0  0
 10 12  1  0  0  0
 12 13  1  0  0  0
 12 17  2  0  0  0
 13 14  2  0  0  0
 13 33  1  0  0  0
 14 15  1  0  0  0
 14 34  1  0  0  0
 15 16  2  0  0  0
 15 18  1  0  0  0
 16 17  1  0  0  0
 16 35  1  0  0  0
 17 36  1  0  0  0
 18 19  1  0  0  0
 18 20  1  0  0  0
 18 37  1  0  0  0
 19 20  1  0  0  0
 19 38  1  0  0  0
 19 39  1  0  0  0
 20 40  1  0  0  0
 20 41  1  0  0  0
 21 22  1  0  0  0
 21 23  1  0  0  0
 21 24  2  0  0  0
 22 42  1  0  0  0
 23 43  1  0  0  0
 25 26  1  0  0  0
 25 27  1  0  0  0
 25 28  2  0  0  0
 26 44  1  0  0  0
 27 45  1  0  0  0
M  END
> <s_m_entry_id>
3072

> <s_m_entry_name>
dock_pv.87

> <s_m_Source_Path>
/home/csk/Desktop/cluster/DUD-E-result/fpps

> <s_m_Source_File>
dock_pv.maegz

> <i_m_Source_File_Index>
87

> <chembl_id>
CHEMBL3087937

> <chembl_pref_name>
None

> <i_lp_mmshare_version>
53161

> <r_lp_tautomer_probability>
1

> <s_lp_Force_Field>
OPLS_2005

> <r_lp_Energy>
7.60833

> <b_lp_Chiralities_Consistent>
1

> <s_lp_Variant>
CHEMBL1782_lig216-1

> <s_i_glide_gridfile>
glide-grid_1zw5

> <i_i_glide_lignum>
241

> <i_i_glide_rotatable_bonds>
10

> <r_i_docking_score>
-8.26766109010173

> <r_i_glide_ligand_efficiency>
-0.295273610360776

> <r_i_glide_ligand_efficiency_sa>
-0.896624587911532

> <r_i_glide_ligand_efficiency_ln>
-1.90841892867319

> <r_i_glide_gscore>
-8.26766109010173

> <r_i_glide_lipo>
-0.079946756228892

> <r_i_glide_hbond>
-0.16

> <r_i_glide_metal>
-2.3

> <r_i_glide_rewards>
-0.549980454545454

> <r_i_glide_evdw>
-24.1687545776367

> <r_i_glide_ecoul>
-43.9814682006836

> <r_i_glide_erotb>
0.430703849554449

> <r_i_glide_esite>
-0.4

> <r_i_glide_emodel>
-101.451260564449

> <r_i_glide_energy>
-68.1502227783203

> <r_i_glide_einternal>
22.9905872344971

> <i_i_glide_confnum>
27

> <i_i_glide_posenum>
323

> <r_i_glide_eff_state_penalty>
0

> <s_user_duplicate_titles>
CHEMBL1782_lig216

> <i_f3d_flags>
0

> <s_m_subgroup_title>
dock_pv

> <s_m_subgroupid>
dock_pv

> <b_m_subgroup_collapsed>
1

$$$$
CHEMBL1782_lig310
                    3D
 Schrodinger Suite 2021-1.
 29 28  0  0  1  0            999 V2000
   16.5283   35.3969   -9.0973 C   0  0  0  0  0  0
   16.2667   37.2621   -9.3292 P   0  0  0  0  0  0
   17.7700   34.8370  -10.3915 P   0  0  0  0  0  0
   15.2638   34.5864   -9.0825 N   0  0  0  0  0  0
   18.1012   33.3651  -10.3645 O   0  0  0  0  0  0
   16.1010   37.7071  -10.7646 O   0  0  0  0  0  0
   14.9008   37.6539   -8.4186 O   0  0  0  0  0  0
   17.6398   37.9140   -8.5737 O   0  0  0  0  0  0
   17.1440   35.3999  -11.8721 O   0  0  0  0  0  0
   19.1028   35.7863   -9.9478 O   0  0  0  0  0  0
   14.5048   34.6880   -7.8194 C   0  0  0  0  0  0
   15.3526   33.1872   -9.5556 C   0  0  0  0  0  0
   15.1487   33.9742   -6.6197 C   0  0  0  0  0  0
   14.0447   32.3843   -9.5373 C   0  0  0  0  0  0
   17.0294   35.2318   -8.1384 H   0  0  0  0  0  0
   14.0101   37.3710   -8.7365 H   0  0  0  0  0  0
   17.9689   38.7944   -8.8688 H   0  0  0  0  0  0
   17.5712   36.1435  -12.3552 H   0  0  0  0  0  0
   19.4094   36.5283  -10.5227 H   0  0  0  0  0  0
   13.4954   34.3056   -7.9739 H   0  0  0  0  0  0
   14.3331   35.7192   -7.5410 H   0  0  0  0  0  0
   15.6491   33.2072  -10.6035 H   0  0  0  0  0  0
   16.1133   32.6369   -9.0017 H   0  0  0  0  0  0
   14.4974   34.0374   -5.7487 H   0  0  0  0  0  0
   16.0994   34.4340   -6.3614 H   0  0  0  0  0  0
   15.3255   32.9143   -6.8048 H   0  0  0  0  0  0
   14.1336   31.4705  -10.1250 H   0  0  0  0  0  0
   13.7487   32.0928   -8.5296 H   0  0  0  0  0  0
   13.2451   32.9766   -9.9634 H   0  0  0  0  0  0
  1  2  1  0  0  0
  1  3  1  0  0  0
  1  4  1  0  0  0
  1 15  1  0  0  0
  2  6  2  0  0  0
  2  7  1  0  0  0
  2  8  1  0  0  0
  3  5  2  0  0  0
  3  9  1  0  0  0
  3 10  1  0  0  0
  4 11  1  0  0  0
  4 12  1  0  0  0
  7 16  1  0  0  0
  8 17  1  0  0  0
  9 18  1  0  0  0
 10 19  1  0  0  0
 11 13  1  0  0  0
 11 20  1  0  0  0
 11 21  1  0  0  0
 12 14  1  0  0  0
 12 22  1  0  0  0
 12 23  1  0  0  0
 13 24  1  0  0  0
 13 25  1  0  0  0
 13 26  1  0  0  0
 14 27  1  0  0  0
 14 28  1  0  0  0
 14 29  1  0  0  0
M  END
> <s_m_entry_id>
3073

> <s_m_entry_name>
dock_pv.88

> <s_m_Source_Path>
/home/csk/Desktop/cluster/DUD-E-result/fpps

> <s_m_Source_File>
dock_pv.maegz

> <i_m_Source_File_Index>
88

> <chembl_id>
CHEMBL54344

> <chembl_pref_name>
(DIETHYLAMINO)METHYLENEDIPHOSPHONIC ACID

> <i_lp_mmshare_version>
53161

> <r_lp_tautomer_probability>
1

> <s_lp_Force_Field>
OPLS_2005

> <r_lp_Energy>
7.416651

> <b_lp_Chiralities_Consistent>
1

> <s_lp_Variant>
CHEMBL1782_lig310-1

> <s_i_glide_gridfile>
glide-grid_1zw5

> <i_i_glide_lignum>
356

> <i_i_glide_rotatable_bonds>
9

> <r_i_docking_score>
-8.26355850480306

> <r_i_glide_ligand_efficiency>
-0.590254178914504

> <r_i_glide_ligand_efficiency_sa>
-1.42259654195646

> <r_i_glide_ligand_efficiency_ln>
-2.27079646081771

> <r_i_glide_gscore>
-8.26355850480306

> <r_i_glide_lipo>
0

> <r_i_glide_hbond>
0

> <r_i_glide_metal>
-2.3

> <r_i_glide_rewards>
-1.72415986363636

> <r_i_glide_evdw>
-12.7834672927856

> <r_i_glide_ecoul>
-47.7861251831055

> <r_i_glide_erotb>
0.59977472347259

> <r_i_glide_esite>
-0.2

> <r_i_glide_emodel>
-106.963459868144

> <r_i_glide_energy>
-60.5695924758911

> <r_i_glide_einternal>
17.4146633148193

> <i_i_glide_confnum>
36

> <i_i_glide_posenum>
132

> <r_i_glide_eff_state_penalty>
0

> <s_user_duplicate_titles>
CHEMBL1782_lig310

> <i_f3d_flags>
0

> <s_m_subgroup_title>
dock_pv

> <s_m_subgroupid>
dock_pv

> <b_m_subgroup_collapsed>
1

$$$$
CHEMBL1782_lig27
                    3D
 Schrodinger Suite 2021-1.
 56 56  0  0  1  0            999 V2000
   16.3255   34.4894   -9.2720 C   0  0  0  0  0  0
   17.0409   35.5246  -10.6603 P   0  0  0  0  0  0
   16.1019   35.5494   -7.7022 P   0  0  0  0  0  0
   15.0466   33.7293   -9.7187 C   0  0  0  0  0  0
   17.3947   36.1800   -7.2226 O   0  0  0  0  0  0
   16.1010   36.5797  -11.1846 O   0  0  0  0  0  0
   17.3022   33.4741   -9.0398 O   0  0  0  0  0  0
   14.8969   36.6653   -8.1364 O   0  0  0  0  0  0
   18.4718   36.1463   -9.9650 O   0  0  0  0  0  0
   15.4809   34.4908   -6.5165 O   0  0  0  0  0  0
   17.5748   34.3821  -11.8029 O   0  0  0  0  0  0
   14.3016   32.9879   -8.5878 C   0  0  0  0  0  0
   13.4611   31.8956   -9.0848 N   0  0  2  0  0  0
   10.2325   34.9753   -6.1770 C   0  0  0  0  0  0
   11.2728   33.1016   -9.0374 C   0  0  0  0  0  0
   10.5585   33.7961   -6.8193 O   0  0  0  0  0  0
   12.1097   31.9194   -8.5063 C   0  0  0  0  0  0
   10.1007   33.4983   -8.1414 C   0  0  0  0  0  0
   14.1042   30.5888   -8.8717 C   0  0  0  0  0  0
   10.4980   35.0055   -4.8059 C   0  0  0  0  0  0
    9.6997   36.1192   -6.7953 C   0  0  0  0  0  0
   14.1989   30.1676   -7.3787 C   0  0  0  0  0  0
   15.3918   29.2684   -7.0407 C   0  0  0  0  0  0
   15.2824   27.8525   -7.6210 C   0  0  0  0  0  0
   10.2256   36.1439   -4.0532 C   0  0  0  0  0  0
    9.4393   37.2638   -6.0453 C   0  0  0  0  0  0
    9.7062   37.2725   -4.6792 C   0  0  0  0  0  0
   14.3509   34.4867  -10.0756 H   0  0  0  0  0  0
   15.2082   33.0860  -10.5860 H   0  0  0  0  0  0
   16.8829   32.7945   -8.4931 H   0  0  0  0  0  0
   14.3084   36.5807   -8.9232 H   0  0  0  0  0  0
   18.8999   36.9101  -10.4305 H   0  0  0  0  0  0
   15.9450   33.6703   -6.2479 H   0  0  0  0  0  0
   17.9006   34.6781  -12.6775 H   0  0  0  0  0  0
   15.0157   32.6218   -7.8522 H   0  0  0  0  0  0
   13.6953   33.7151   -8.0438 H   0  0  0  0  0  0
   11.8723   33.9622   -9.3354 H   0  0  0  0  0  0
   10.8129   32.7594   -9.9646 H   0  0  0  0  0  0
   11.5921   30.9942   -8.7661 H   0  0  0  0  0  0
   12.1440   31.9271   -7.4155 H   0  0  0  0  0  0
    9.5517   34.2917   -8.6404 H   0  0  0  0  0  0
    9.4150   32.6525   -8.0674 H   0  0  0  0  0  0
   13.5303   29.8364   -9.4182 H   0  0  0  0  0  0
   15.0890   30.5777   -9.3422 H   0  0  0  0  0  0
   10.9173   34.1364   -4.3228 H   0  0  0  0  0  0
    9.5120   36.1679   -7.8554 H   0  0  0  0  0  0
   14.1447   31.0129   -6.6922 H   0  0  0  0  0  0
   13.3012   29.5958   -7.1479 H   0  0  0  0  0  0
   16.3058   29.7561   -7.3795 H   0  0  0  0  0  0
   15.4826   29.1965   -5.9578 H   0  0  0  0  0  0
   16.1003   27.2219   -7.2706 H   0  0  0  0  0  0
   14.3498   27.3816   -7.3091 H   0  0  0  0  0  0
   15.3012   27.8594   -8.7120 H   0  0  0  0  0  0
   10.4232   36.1560   -2.9918 H   0  0  0  0  0  0
    9.0510   38.1526   -6.5219 H   0  0  0  0  0  0
    9.5136   38.1657   -4.1014 H   0  0  0  0  0  0
  1  2  1  0  0  0
  1  3  1  0  0  0
  1  4  1  0  0  0
  1  7  1  0  0  0
  2  6  2  0  0  0
  2  9  1  0  0  0
  2 11  1  0  0  0
  3  5  2  0  0  0
  3  8  1  0  0  0
  3 10  1  0  0  0
  4 12  1  0  0  0
  4 28  1  0  0  0
  4 29  1  0  0  0
  7 30  1  0  0  0
  8 31  1  0  0  0
  9 32  1  0  0  0
 10 33  1  0  0  0
 11 34  1  0  0  0
 12 13  1  0  0  0
 12 35  1  0  0  0
 12 36  1  0  0  0
 13 17  1  0  0  0
 13 19  1  0  0  0
 14 16  1  0  0  0
 14 20  1  0  0  0
 14 21  2  0  0  0
 15 17  1  0  0  0
 15 18  1  0  0  0
 15 37  1  0  0  0
 15 38  1  0  0  0
 16 18  1  0  0  0
 17 39  1  0  0  0
 17 40  1  0  0  0
 18 41  1  0  0  0
 18 42  1  0  0  0
 19 22  1  0  0  0
 19 43  1  0  0  0
 19 44  1  0  0  0
 20 25  2  0  0  0
 20 45  1  0  0  0
 21 26  1  0  0  0
 21 46  1  0  0  0
 22 23  1  0  0  0
 22 47  1  0  0  0
 22 48  1  0  0  0
 23 24  1  0  0  0
 23 49  1  0  0  0
 23 50  1  0  0  0
 24 51  1  0  0  0
 24 52  1  0  0  0
 24 53  1  0  0  0
 25 27  1  0  0  0
 25 54  1  0  0  0
 26 27  2  0  0  0
 26 55  1  0  0  0
 27 56  1  0  0  0
M  END
> <s_m_entry_id>
3074

> <s_m_entry_name>
dock_pv.89

> <s_m_Source_Path>
/home/csk/Desktop/cluster/DUD-E-result/fpps

> <s_m_Source_File>
dock_pv.maegz

> <i_m_Source_File_Index>
89

> <chembl_id>
CHEMBL97920

> <chembl_pref_name>
None

> <i_lp_mmshare_version>
53161

> <r_lp_tautomer_probability>
1

> <s_lp_Force_Field>
OPLS_2005

> <r_lp_Energy>
10.885238

> <b_lp_Chiralities_Consistent>
1

> <s_lp_Variant>
CHEMBL1782_lig27-1

> <s_i_glide_gridfile>
glide-grid_1zw5

> <i_i_glide_lignum>
31

> <i_i_glide_rotatable_bonds>
18

> <r_i_docking_score>
-8.25083666715761

> <r_i_glide_ligand_efficiency>
-0.30558654322806

> <r_i_glide_ligand_efficiency_sa>
-0.916759628677015

> <r_i_glide_ligand_efficiency_ln>
-1.92065875044085

> <r_i_glide_gscore>
-8.25083666715761

> <r_i_glide_lipo>
-0.884026343894099

> <r_i_glide_hbond>
0

> <r_i_glide_metal>
-2.3

> <r_i_glide_rewards>
-0.50132537003381

> <r_i_glide_evdw>
-31.430513381958

> <r_i_glide_ecoul>
-45.5989151000977

> <r_i_glide_erotb>
1.2060407158682

> <r_i_glide_esite>
-0.2

> <r_i_glide_emodel>
-131.112943106288

> <r_i_glide_energy>
-77.0294284820557

> <r_i_glide_einternal>
28.8736476898193

> <i_i_glide_confnum>
331

> <i_i_glide_posenum>
377

> <r_i_glide_eff_state_penalty>
0

> <s_user_duplicate_titles>
CHEMBL1782_lig27

> <i_f3d_flags>
0

> <s_m_subgroup_title>
dock_pv

> <s_m_subgroupid>
dock_pv

> <b_m_subgroup_collapsed>
1

$$$$
CHEMBL1782_lig157
                    3D
 Schrodinger Suite 2021-1.
 26 26  0  0  1  0            999 V2000
   15.7010   35.1926   -9.7825 C   0  0  0  0  0  0
   16.1974   36.8857   -9.1650 P   0  0  0  0  0  0
   16.9862   33.9270  -10.1717 P   0  0  0  0  0  0
   17.8593   36.6753   -8.7358 O   0  0  0  0  0  0
   16.1011   37.7818  -10.6549 O   0  0  0  0  0  0
   15.3640   37.4585   -8.0438 O   0  0  0  0  0  0
   16.1336   32.4678  -10.3650 O   0  0  0  0  0  0
   18.1010   33.7800   -9.1650 O   0  0  0  0  0  0
   17.5782   34.4156  -11.6943 O   0  0  0  0  0  0
   14.5282   34.6089   -8.9550 C   0  0  0  0  0  0
   14.9010   33.9305   -7.3065 S   0  0  0  0  0  0
   14.5604   32.2311   -7.6182 C   0  0  0  0  0  0
   15.3010   31.2472   -7.1619 N   0  0  0  0  0  0
   14.7536   30.1373   -7.6261 C   0  0  0  0  0  0
   13.6143   30.4001   -8.3650 C   0  0  0  0  0  0
   13.4830   31.7561   -8.3242 N   0  0  0  0  0  0
   15.3010   35.3800  -10.7782 H   0  0  0  0  0  0
   18.5218   37.3352   -9.0448 H   0  0  0  0  0  0
   16.8983   38.3157  -10.9261 H   0  0  0  0  0  0
   15.5819   32.0592   -9.6647 H   0  0  0  0  0  0
   17.9746   35.2923  -11.8860 H   0  0  0  0  0  0
   13.7837   35.3800   -8.7650 H   0  0  0  0  0  0
   13.9999   33.8857   -9.5739 H   0  0  0  0  0  0
   15.1707   29.1616   -7.4182 H   0  0  0  0  0  0
   12.9010   29.7800   -8.8837 H   0  0  0  0  0  0
   12.7481   32.3016   -8.7530 H   0  0  0  0  0  0
  1 10  1  0  0  0
  1  3  1  0  0  0
  1  2  1  0  0  0
  1 17  1  0  0  0
  2  5  1  0  0  0
  2  6  2  0  0  0
  2  4  1  0  0  0
  3  9  1  0  0  0
  3  7  1  0  0  0
  3  8  2  0  0  0
  4 18  1  0  0  0
  5 19  1  0  0  0
  7 20  1  0  0  0
  9 21  1  0  0  0
 10 11  1  0  0  0
 10 22  1  0  0  0
 10 23  1  0  0  0
 11 12  1  0  0  0
 12 13  2  0  0  0
 12 16  1  0  0  0
 13 14  1  0  0  0
 14 15  2  0  0  0
 14 24  1  0  0  0
 15 16  1  0  0  0
 15 25  1  0  0  0
 16 26  1  0  0  0
M  END
> <s_m_entry_id>
3075

> <s_m_entry_name>
dock_pv.90

> <s_m_Source_Path>
/home/csk/Desktop/cluster/DUD-E-result/fpps

> <s_m_Source_File>
dock_pv.maegz

> <i_m_Source_File_Index>
90

> <chembl_id>
CHEMBL504429

> <chembl_pref_name>
None

> <i_lp_mmshare_version>
53161

> <r_lp_tautomer_probability>
0.999999999976373

> <s_lp_Force_Field>
OPLS_2005

> <r_lp_Energy>
-1.691745

> <b_lp_Chiralities_Consistent>
1

> <s_lp_Variant>
CHEMBL1782_lig157-1

> <s_i_glide_gridfile>
glide-grid_1zw5

> <i_i_glide_lignum>
178

> <i_i_glide_rotatable_bonds>
9

> <r_i_docking_score>
-8.25078838396398

> <r_i_glide_ligand_efficiency>
-0.515674273997748

> <r_i_glide_ligand_efficiency_sa>
-1.29941774419712

> <r_i_glide_ligand_efficiency_ln>
-2.18703627440881

> <r_i_glide_gscore>
-8.25078838396398

> <r_i_glide_lipo>
-0.184587614906714

> <r_i_glide_hbond>
-0.0115284666961394

> <r_i_glide_metal>
-2.3

> <r_i_glide_rewards>
-1.44438940909091

> <r_i_glide_evdw>
-18.1598281860352

> <r_i_glide_ecoul>
-48.3040008544922

> <r_i_glide_erotb>
0.876176351829928

> <r_i_glide_esite>
-0.278467835798384

> <r_i_glide_emodel>
-118.720472358171

> <r_i_glide_energy>
-66.4638290405273

> <r_i_glide_einternal>
16.5529651641846

> <i_i_glide_confnum>
28

> <i_i_glide_posenum>
200

> <r_i_glide_eff_state_penalty>
0

> <s_user_duplicate_titles>
CHEMBL1782_lig157,513235

> <i_f3d_flags>
0

> <s_m_subgroup_title>
dock_pv

> <s_m_subgroupid>
dock_pv

> <b_m_subgroup_collapsed>
1

$$$$
CHEMBL1782_lig149
                    3D
 Schrodinger Suite 2021-1.
 33 33  0  0  1  0            999 V2000
   17.3327   34.5800  -10.5104 P   0  0  0  0  0  0
   16.5517   35.4070   -9.0135 C   0  0  0  0  0  0
   16.4755   37.2827   -9.1676 P   0  0  0  0  0  0
   15.8729   37.7754   -7.6510 O   0  0  0  0  0  0
   15.7013   37.8130  -10.3650 O   0  0  0  0  0  0
   18.1313   37.6641   -9.1650 O   0  0  0  0  0  0
   18.8292   35.3800  -10.6596 O   0  0  0  0  0  0
   16.5010   34.5995  -11.7630 O   0  0  0  0  0  0
   17.7000   32.9800   -9.9612 O   0  0  0  0  0  0
   15.1060   34.8733   -8.7783 C   0  0  0  0  0  0
   14.9110   33.4044   -8.3419 C   0  0  2  0  0  0
   13.4315   32.9732   -8.5410 C   0  0  0  0  0  0
   13.1943   31.4987   -8.1775 C   0  0  0  0  0  0
   13.7277   31.2245   -6.7652 C   0  0  0  0  0  0
   15.1697   31.7375   -6.5918 C   0  0  0  0  0  0
   15.3010   33.1544   -6.9516 N   0  0  1  0  0  0
   17.1727   35.1646   -8.1390 H   0  0  0  0  0  0
   15.7010   38.7217   -7.4787 H   0  0  0  0  0  0
   18.4512   38.4728   -9.6281 H   0  0  0  0  0  0
   18.9010   36.3219  -10.9625 H   0  0  0  0  0  0
   16.9232   32.3983   -9.7632 H   0  0  0  0  0  0
   14.5789   35.5126   -8.0681 H   0  0  0  0  0  0
   14.5725   34.9800   -9.7190 H   0  0  0  0  0  0
   15.5355   32.7769   -8.9750 H   0  0  0  0  0  0
   12.7869   33.5941   -7.9162 H   0  0  0  0  0  0
   13.1080   33.1561   -9.5650 H   0  0  0  0  0  0
   12.1334   31.2509   -8.2394 H   0  0  0  0  0  0
   13.7012   30.8540   -8.8977 H   0  0  0  0  0  0
   13.0804   31.6668   -6.0077 H   0  0  0  0  0  0
   13.7010   30.1517   -6.5687 H   0  0  0  0  0  0
   15.5059   31.6035   -5.5650 H   0  0  0  0  0  0
   15.8448   31.1481   -7.2149 H   0  0  0  0  0  0
   16.2768   33.3800   -6.7798 H   0  0  0  0  0  0
  1  9  1  0  0  0
  1  2  1  0  0  0
  1  7  1  0  0  0
  1  8  2  0  0  0
  2 10  1  0  0  0
  2  3  1  0  0  0
  2 17  1  0  0  0
  3  5  2  0  0  0
  3  6  1  0  0  0
  3  4  1  0  0  0
  4 18  1  0  0  0
  6 19  1  0  0  0
  7 20  1  0  0  0
  9 21  1  0  0  0
 10 11  1  0  0  0
 10 22  1  0  0  0
 10 23  1  0  0  0
 11 12  1  0  0  0
 11 16  1  0  0  0
 11 24  1  0  0  0
 12 13  1  0  0  0
 12 25  1  0  0  0
 12 26  1  0  0  0
 13 14  1  0  0  0
 13 27  1  0  0  0
 13 28  1  0  0  0
 14 15  1  0  0  0
 14 29  1  0  0  0
 14 30  1  0  0  0
 15 16  1  0  0  0
 15 31  1  0  0  0
 15 32  1  0  0  0
 16 33  1  0  0  0
M  END
> <s_m_entry_id>
3076

> <s_m_entry_name>
dock_pv.91

> <s_m_Source_Path>
/home/csk/Desktop/cluster/DUD-E-result/fpps

> <s_m_Source_File>
dock_pv.maegz

> <i_m_Source_File_Index>
91

> <chembl_id>
CHEMBL406820

> <chembl_pref_name>
None

> <i_lp_mmshare_version>
53161

> <r_lp_tautomer_probability>
1

> <s_lp_Force_Field>
OPLS_2005

> <r_lp_Energy>
1.671225

> <b_lp_Chiralities_Consistent>
1

> <s_lp_Variant>
CHEMBL1782_lig149-1

> <s_i_glide_gridfile>
glide-grid_1zw5

> <i_i_glide_lignum>
167

> <i_i_glide_rotatable_bonds>
8

> <r_i_docking_score>
-8.24948308179318

> <r_i_glide_ligand_efficiency>
-0.515592692612074

> <r_i_glide_ligand_efficiency_sa>
-1.29921217198713

> <r_i_glide_ligand_efficiency_ln>
-2.18669027799444

> <r_i_glide_gscore>
-8.24948308179318

> <r_i_glide_lipo>
-0.0721453667632233

> <r_i_glide_hbond>
-0.153437433980503

> <r_i_glide_metal>
-2.3

> <r_i_glide_rewards>
-1.54663295454545

> <r_i_glide_evdw>
-13.966625213623

> <r_i_glide_ecoul>
-41.113712310791

> <r_i_glide_erotb>
0.721063934177154

> <r_i_glide_esite>
-0.2

> <r_i_glide_emodel>
-106.990654567584

> <r_i_glide_energy>
-55.0803375244141

> <r_i_glide_einternal>
11.2630233764648

> <i_i_glide_confnum>
7

> <i_i_glide_posenum>
151

> <r_i_glide_eff_state_penalty>
0

> <s_user_duplicate_titles>
CHEMBL1782_lig149

> <i_f3d_flags>
0

> <s_m_subgroup_title>
dock_pv

> <s_m_subgroupid>
dock_pv

> <b_m_subgroup_collapsed>
1

$$$$
CHEMBL1782_lig177
                    3D
 Schrodinger Suite 2021-1.
 39 40  0  0  1  0            999 V2000
   16.3615   35.2278   -9.0687 C   0  0  0  0  0  0
   14.9438   35.2218   -8.6992 N   0  0  0  0  0  0
   15.0309   33.0631   -7.4846 C   0  0  0  0  0  0
   14.3367   34.1627   -8.0070 C   0  0  0  0  0  0
   12.9497   34.1803   -7.8618 C   0  0  0  0  0  0
   12.2990   33.1299   -7.2092 C   0  0  0  0  0  0
   13.0720   32.0546   -6.7650 C   0  0  0  0  0  0
   14.4209   32.0126   -6.8854 N   0  0  0  0  0  0
   10.8004   33.1797   -6.9613 C   0  0  0  0  0  0
   10.3723   34.4423   -6.2208 C   0  0  0  0  0  0
   10.6660   34.5801   -4.8613 C   0  0  0  0  0  0
   10.3256   35.7514   -4.1907 C   0  0  0  0  0  0
    9.7010   36.7851   -4.8840 C   0  0  0  0  0  0
    9.3848   36.6462   -6.2343 C   0  0  0  0  0  0
    9.7162   35.4710   -6.9034 C   0  0  0  0  0  0
   16.8822   36.9344   -9.5875 P   0  0  0  0  0  0
   16.8199   37.8512   -8.1550 O   0  0  0  0  0  0
   18.4938   36.5800   -9.9650 O   0  0  0  0  0  0
   16.1010   37.4875  -10.7650 O   0  0  0  0  0  0
   16.7246   33.9948  -10.4347 P   0  0  0  0  0  0
   15.4733   32.8406  -10.3650 O   0  0  0  0  0  0
   16.5010   34.8983  -11.8716 O   0  0  0  0  0  0
   18.1010   33.3800  -10.3340 O   0  0  0  0  0  0
   16.9510   34.9576   -8.1844 H   0  0  0  0  0  0
   14.3181   35.8003   -9.2645 H   0  0  0  0  0  0
   16.1010   32.9710   -7.5650 H   0  0  0  0  0  0
   12.3728   35.0086   -8.2473 H   0  0  0  0  0  0
   12.6215   31.2105   -6.2651 H   0  0  0  0  0  0
   10.5006   32.3049   -6.3826 H   0  0  0  0  0  0
   10.2860   33.0993   -7.9207 H   0  0  0  0  0  0
   11.1800   33.7906   -4.3314 H   0  0  0  0  0  0
   10.5563   35.8637   -3.1417 H   0  0  0  0  0  0
    9.4562   37.7027   -4.3681 H   0  0  0  0  0  0
    8.9010   37.4524   -6.7650 H   0  0  0  0  0  0
    9.4908   35.3754   -7.9564 H   0  0  0  0  0  0
   16.9013   38.8284   -8.1939 H   0  0  0  0  0  0
   18.9010   37.1357  -10.6882 H   0  0  0  0  0  0
   14.6539   32.9466   -9.8420 H   0  0  0  0  0  0
   17.0295   35.6932  -12.0993 H   0  0  0  0  0  0
  1  2  1  0  0  0
  1 16  1  0  0  0
  1 20  1  0  0  0
  1 24  1  0  0  0
  2  4  1  0  0  0
  2 25  1  0  0  0
  3  4  1  0  0  0
  3  8  2  0  0  0
  3 26  1  0  0  0
  4  5  2  0  0  0
  5  6  1  0  0  0
  5 27  1  0  0  0
  6  7  2  0  0  0
  6  9  1  0  0  0
  7  8  1  0  0  0
  7 28  1  0  0  0
  9 10  1  0  0  0
  9 29  1  0  0  0
  9 30  1  0  0  0
 10 11  1  0  0  0
 10 15  2  0  0  0
 11 12  2  0  0  0
 11 31  1  0  0  0
 12 13  1  0  0  0
 12 32  1  0  0  0
 13 14  2  0  0  0
 13 33  1  0  0  0
 14 15  1  0  0  0
 14 34  1  0  0  0
 15 35  1  0  0  0
 16 17  1  0  0  0
 16 18  1  0  0  0
 16 19  2  0  0  0
 17 36  1  0  0  0
 18 37  1  0  0  0
 20 21  1  0  0  0
 20 22  1  0  0  0
 20 23  2  0  0  0
 21 38  1  0  0  0
 22 39  1  0  0  0
M  END
> <s_m_entry_id>
3077

> <s_m_entry_name>
dock_pv.92

> <s_m_Source_Path>
/home/csk/Desktop/cluster/DUD-E-result/fpps

> <s_m_Source_File>
dock_pv.maegz

> <i_m_Source_File_Index>
92

> <chembl_id>
CHEMBL2088337

> <chembl_pref_name>
None

> <i_lp_mmshare_version>
53161

> <r_lp_tautomer_probability>
0.999999999999999

> <s_lp_Force_Field>
OPLS_2005

> <r_lp_Energy>
6.421814

> <b_lp_Chiralities_Consistent>
1

> <s_lp_Variant>
CHEMBL1782_lig177-1

> <s_i_glide_gridfile>
glide-grid_1zw5

> <i_i_glide_lignum>
201

> <i_i_glide_rotatable_bonds>
10

> <r_i_docking_score>
-8.24232909443494

> <r_i_glide_ligand_efficiency>
-0.35836213454065

> <r_i_glide_ligand_efficiency_sa>
-1.01913424018411

> <r_i_glide_ligand_efficiency_ln>
-1.99306991234253

> <r_i_glide_gscore>
-8.24232909443494

> <r_i_glide_lipo>
-0.243756298031406

> <r_i_glide_hbond>
-0.152

> <r_i_glide_metal>
-2.3

> <r_i_glide_rewards>
-0.966646819345327

> <r_i_glide_evdw>
-23.9736957550049

> <r_i_glide_ecoul>
-48.0548629760742

> <r_i_glide_erotb>
0.895542064919926

> <r_i_glide_esite>
-0.276783254227892

> <r_i_glide_emodel>
-125.554190671163

> <r_i_glide_energy>
-72.0285587310791

> <r_i_glide_einternal>
15.5033712387085

> <i_i_glide_confnum>
149

> <i_i_glide_posenum>
321

> <r_i_glide_eff_state_penalty>
0

> <s_user_duplicate_titles>
CHEMBL1782_lig177

> <i_f3d_flags>
0

> <s_m_subgroup_title>
dock_pv

> <s_m_subgroupid>
dock_pv

> <b_m_subgroup_collapsed>
1

$$$$
CHEMBL1782_lig125
                    3D
 Schrodinger Suite 2021-1.
 28 28  0  0  1  0            999 V2000
   16.3019   35.5193  -10.1442 C   0  0  0  0  0  0
   16.2976   36.3754   -8.4571 P   0  0  0  0  0  0
   17.9813   34.8553  -10.5805 P   0  0  0  0  0  0
   15.2987   30.8509   -7.5988 N   0  0  0  0  0  0
   15.2618   34.3178  -10.2496 C   0  0  0  0  0  0
   18.1095   33.3723  -10.3650 O   0  0  0  0  0  0
   17.2987   35.7805   -7.4707 O   0  0  0  0  0  0
   16.1010   36.5385  -11.1382 O   0  0  0  0  0  0
   16.5424   38.0320   -8.8104 O   0  0  0  0  0  0
   18.2837   35.3800  -12.1739 O   0  0  0  0  0  0
   18.9905   35.7800   -9.5440 O   0  0  0  0  0  0
   14.6624   36.3405   -7.9646 O   0  0  0  0  0  0
   15.3478   33.1249   -9.2776 C   0  0  0  0  0  0
   14.9031   32.0667   -7.1493 C   0  0  0  0  0  0
   15.7000   30.7629   -8.8897 C   0  0  0  0  0  0
   14.9050   33.2121   -7.9484 C   0  0  0  0  0  0
   15.7375   31.8623   -9.7464 C   0  0  0  0  0  0
   14.2164   34.5809  -10.1427 H   0  0  0  0  0  0
   15.3071   33.9189  -11.2628 H   0  0  0  0  0  0
   16.9717   36.7940  -11.4859 H   0  0  0  0  0  0
   17.2979   38.4475   -9.2805 H   0  0  0  0  0  0
   18.6222   36.3015  -12.3646 H   0  0  0  0  0  0
   19.6296   36.4336   -9.9109 H   0  0  0  0  0  0
   13.9298   36.2668   -8.6171 H   0  0  0  0  0  0
   14.5652   32.1038   -6.1242 H   0  0  0  0  0  0
   15.9966   29.7810   -9.2324 H   0  0  0  0  0  0
   14.5264   34.1240   -7.5258 H   0  0  0  0  0  0
   16.0590   31.7244  -10.7636 H   0  0  0  0  0  0
  1  2  1  0  0  0
  1  3  1  0  0  0
  1  5  1  0  0  0
  1  8  1  0  0  0
  2  7  2  0  0  0
  2  9  1  0  0  0
  2 12  1  0  0  0
  3  6  2  0  0  0
  3 10  1  0  0  0
  3 11  1  0  0  0
  4 15  1  0  0  0
  4 14  2  0  0  0
  5 13  1  0  0  0
  5 18  1  0  0  0
  5 19  1  0  0  0
  8 20  1  0  0  0
  9 21  1  0  0  0
 10 22  1  0  0  0
 11 23  1  0  0  0
 12 24  1  0  0  0
 13 16  2  0  0  0
 13 17  1  0  0  0
 14 16  1  0  0  0
 14 25  1  0  0  0
 15 17  2  0  0  0
 15 26  1  0  0  0
 16 27  1  0  0  0
 17 28  1  0  0  0
M  END
> <s_m_entry_id>
3078

> <s_m_entry_name>
dock_pv.93

> <s_m_Source_Path>
/home/csk/Desktop/cluster/DUD-E-result/fpps

> <s_m_Source_File>
dock_pv.maegz

> <i_m_Source_File_Index>
93

> <chembl_id>
CHEMBL55886

> <chembl_pref_name>
None

> <i_lp_mmshare_version>
53161

> <r_lp_tautomer_probability>
1

> <s_lp_Force_Field>
OPLS_2005

> <r_lp_Energy>
-2.115436

> <b_lp_Chiralities_Consistent>
1

> <s_lp_Variant>
CHEMBL1782_lig125-1

> <s_i_glide_gridfile>
glide-grid_1zw5

> <i_i_glide_lignum>
137

> <i_i_glide_rotatable_bonds>
9

> <r_i_docking_score>
-8.23935143403229

> <r_i_glide_ligand_efficiency>
-0.484667731413664

> <r_i_glide_ligand_efficiency_sa>
-1.24621721419311

> <r_i_glide_ligand_efficiency_ln>
-2.14946330780368

> <r_i_glide_gscore>
-8.23935143403229

> <r_i_glide_lipo>
0

> <r_i_glide_hbond>
0

> <r_i_glide_metal>
-2.3

> <r_i_glide_rewards>
-1.62878004545454

> <r_i_glide_evdw>
-15.7643394470215

> <r_i_glide_ecoul>
-56.3954582214355

> <r_i_glide_erotb>
0.677645583773333

> <r_i_glide_esite>
-0.2

> <r_i_glide_emodel>
-120.515655954039

> <r_i_glide_energy>
-72.159797668457

> <r_i_glide_einternal>
19.5492610931396

> <i_i_glide_confnum>
10

> <i_i_glide_posenum>
358

> <r_i_glide_eff_state_penalty>
0

> <s_user_duplicate_titles>
CHEMBL1782_lig125,83771

> <i_f3d_flags>
0

> <s_m_subgroup_title>
dock_pv

> <s_m_subgroupid>
dock_pv

> <b_m_subgroup_collapsed>
1

$$$$
CHEMBL1782_lig149
                    3D
 Schrodinger Suite 2021-1.
 33 33  0  0  1  0            999 V2000
   16.2196   37.3160   -9.4000 P   0  0  0  0  0  0
   16.2270   35.4500   -9.5169 C   0  0  0  0  0  0
   17.8050   34.8733  -10.2934 P   0  0  0  0  0  0
   17.7010   35.6831  -11.7901 O   0  0  0  0  0  0
   18.1010   33.3800  -10.3650 O   0  0  0  0  0  0
   18.9010   35.6828   -9.2430 O   0  0  0  0  0  0
   14.9010   37.6159   -8.3970 O   0  0  0  0  0  0
   16.1010   37.9567  -10.7650 O   0  0  0  0  0  0
   17.6149   37.7455   -8.5240 O   0  0  0  0  0  0
   15.8245   34.7403   -8.1940 C   0  0  0  0  0  0
   15.6939   33.1952   -8.2588 C   0  0  1  0  0  0
   15.0911   32.6125   -6.9512 C   0  0  0  0  0  0
   14.9644   31.0789   -6.9847 C   0  0  0  0  0  0
   14.2439   30.6310   -8.2633 C   0  0  0  0  0  0
   14.8877   31.2432   -9.5197 C   0  0  0  0  0  0
   14.9617   32.7041   -9.4315 N   0  0  1  0  0  0
   15.4336   35.2048  -10.2245 H   0  0  0  0  0  0
   18.1460   36.5584  -11.9749 H   0  0  0  0  0  0
   19.4040   36.4681   -9.5651 H   0  0  0  0  0  0
   13.9941   37.3800   -8.7087 H   0  0  0  0  0  0
   17.9951   38.6445   -8.6473 H   0  0  0  0  0  0
   16.5042   35.0211   -7.3924 H   0  0  0  0  0  0
   14.8527   35.1341   -7.8935 H   0  0  0  0  0  0
   16.6947   32.7800   -8.3650 H   0  0  0  0  0  0
   15.7005   32.8962   -6.0925 H   0  0  0  0  0  0
   14.0994   33.0361   -6.7843 H   0  0  0  0  0  0
   15.9573   30.6268   -6.9493 H   0  0  0  0  0  0
   14.4308   30.7166   -6.1049 H   0  0  0  0  0  0
   14.2802   29.5429   -8.3381 H   0  0  0  0  0  0
   13.1805   30.8737   -8.2308 H   0  0  0  0  0  0
   15.8893   30.8372   -9.6733 H   0  0  0  0  0  0
   14.2943   30.9800  -10.3947 H   0  0  0  0  0  0
   14.0173   33.0676   -9.4071 H   0  0  0  0  0  0
  1  9  1  0  0  0
  1  2  1  0  0  0
  1  7  1  0  0  0
  1  8  2  0  0  0
  2 10  1  0  0  0
  2  3  1  0  0  0
  2 17  1  0  0  0
  3  5  2  0  0  0
  3  6  1  0  0  0
  3  4  1  0  0  0
  4 18  1  0  0  0
  6 19  1  0  0  0
  7 20  1  0  0  0
  9 21  1  0  0  0
 10 11  1  0  0  0
 10 22  1  0  0  0
 10 23  1  0  0  0
 11 12  1  0  0  0
 11 16  1  0  0  0
 11 24  1  0  0  0
 12 13  1  0  0  0
 12 25  1  0  0  0
 12 26  1  0  0  0
 13 14  1  0  0  0
 13 27  1  0  0  0
 13 28  1  0  0  0
 14 15  1  0  0  0
 14 29  1  0  0  0
 14 30  1  0  0  0
 15 16  1  0  0  0
 15 31  1  0  0  0
 15 32  1  0  0  0
 16 33  1  0  0  0
M  END
> <s_m_entry_id>
3079

> <s_m_entry_name>
dock_pv.94

> <s_m_Source_Path>
/home/csk/Desktop/cluster/DUD-E-result/fpps

> <s_m_Source_File>
dock_pv.maegz

> <i_m_Source_File_Index>
94

> <chembl_id>
CHEMBL406820

> <chembl_pref_name>
None

> <i_lp_mmshare_version>
53161

> <r_lp_tautomer_probability>
1

> <s_lp_Force_Field>
OPLS_2005

> <r_lp_Energy>
3.523154

> <b_lp_Chiralities_Consistent>
1

> <s_lp_Variant>
CHEMBL1782_lig149-2

> <s_i_glide_gridfile>
glide-grid_1zw5

> <i_i_glide_lignum>
168

> <i_i_glide_rotatable_bonds>
8

> <r_i_docking_score>
-8.2365024986025

> <r_i_glide_ligand_efficiency>
-0.514781406162656

> <r_i_glide_ligand_efficiency_sa>
-1.29716785823879

> <r_i_glide_ligand_efficiency_ln>
-2.18324951512671

> <r_i_glide_gscore>
-8.2365024986025

> <r_i_glide_lipo>
-0.115116674537452

> <r_i_glide_hbond>
0

> <r_i_glide_metal>
-2.3

> <r_i_glide_rewards>
-1.54663295454545

> <r_i_glide_evdw>
-11.5899524688721

> <r_i_glide_ecoul>
-51.8551750183105

> <r_i_glide_erotb>
0.504744753924008

> <r_i_glide_esite>
-0.2

> <r_i_glide_emodel>
-105.156372315525

> <r_i_glide_energy>
-63.4451274871826

> <r_i_glide_einternal>
18.8147716522217

> <i_i_glide_confnum>
25

> <i_i_glide_posenum>
274

> <r_i_glide_eff_state_penalty>
0

> <s_user_duplicate_titles>
CHEMBL1782_lig149,428703

> <i_f3d_flags>
0

> <s_m_subgroup_title>
dock_pv

> <s_m_subgroupid>
dock_pv

> <b_m_subgroup_collapsed>
1

$$$$
CHEMBL1782_lig170
                    3D
 Schrodinger Suite 2021-1.
 39 41  0  0  1  0            999 V2000
   12.8714   33.3683   -7.6902 C   0  0  0  0  0  0
   12.6610   33.7630   -6.3630 C   0  0  0  0  0  0
   10.4984   33.6689   -8.1993 C   0  0  0  0  0  0
   11.7828   33.2654   -8.5551 C   0  0  0  0  0  0
   10.3287   34.1509   -6.8990 C   0  0  0  0  0  0
   11.3830   34.1690   -5.9608 C   0  0  0  0  0  0
   10.7836   34.6556   -4.7611 C   0  0  0  0  0  0
    9.5305   34.9787   -4.9498 N   0  0  0  0  0  0
    9.2489   34.6948   -6.2339 N   0  0  0  0  0  0
   16.4012   34.3052   -8.5460 C   0  0  0  0  0  0
   17.3010   35.3706   -8.3651 N   0  0  0  0  0  0
   16.8589   36.6425   -7.7684 C   0  0  0  0  0  0
   16.7903   37.7800   -9.1813 P   0  0  0  0  0  0
   16.1000   39.1096   -8.3668 O   0  0  0  0  0  0
   16.1010   37.3729  -10.4722 O   0  0  0  0  0  0
   18.4702   37.9489   -9.4166 O   0  0  0  0  0  0
   18.0338   37.2073   -6.4152 P   0  0  0  0  0  0
   18.3430   35.7800   -5.5640 O   0  0  0  0  0  0
   17.7523   38.4155   -5.5659 O   0  0  0  0  0  0
   19.5515   37.0748   -7.1660 O   0  0  0  0  0  0
   15.1587   34.2500   -7.9122 C   0  0  0  0  0  0
   14.2521   33.2403   -8.2241 C   0  0  0  0  0  0
   14.6599   32.2458   -9.1209 C   0  0  0  0  0  0
   15.9480   32.3116   -9.6618 C   0  0  0  0  0  0
   16.8162   33.3301   -9.3989 N   0  0  0  0  0  0
   13.4876   33.7959   -5.6702 H   0  0  0  0  0  0
    9.6990   33.6400   -8.9233 H   0  0  0  0  0  0
   11.9510   32.9363   -9.5650 H   0  0  0  0  0  0
   11.2519   34.7924   -3.7976 H   0  0  0  0  0  0
    8.3396   34.9069   -6.6169 H   0  0  0  0  0  0
   17.7916   35.5310   -9.2439 H   0  0  0  0  0  0
   15.8700   36.6045   -7.3289 H   0  0  0  0  0  0
   16.4159   40.0002   -8.6500 H   0  0  0  0  0  0
   18.8176   38.1801  -10.3149 H   0  0  0  0  0  0
   18.4905   35.7693   -4.5796 H   0  0  0  0  0  0
   19.8992   37.7789   -7.7650 H   0  0  0  0  0  0
   14.8234   35.0067   -7.2280 H   0  0  0  0  0  0
   13.9893   31.4437   -9.3979 H   0  0  0  0  0  0
   16.2788   31.5403  -10.3427 H   0  0  0  0  0  0
  1  2  2  0  0  0
  1  4  1  0  0  0
  1 22  1  0  0  0
  2  6  1  0  0  0
  2 26  1  0  0  0
  3  5  1  0  0  0
  3  4  2  0  0  0
  3 27  1  0  0  0
  4 28  1  0  0  0
  5  9  1  0  0  0
  5  6  2  0  0  0
  6  7  1  0  0  0
  7  8  2  0  0  0
  7 29  1  0  0  0
  8  9  1  0  0  0
  9 30  1  0  0  0
 10 21  2  0  0  0
 10 11  1  0  0  0
 10 25  1  0  0  0
 11 12  1  0  0  0
 11 31  1  0  0  0
 12 13  1  0  0  0
 12 17  1  0  0  0
 12 32  1  0  0  0
 13 14  1  0  0  0
 13 15  2  0  0  0
 13 16  1  0  0  0
 14 33  1  0  0  0
 16 34  1  0  0  0
 17 18  1  0  0  0
 17 19  2  0  0  0
 17 20  1  0  0  0
 18 35  1  0  0  0
 20 36  1  0  0  0
 21 22  1  0  0  0
 21 37  1  0  0  0
 22 23  2  0  0  0
 23 24  1  0  0  0
 23 38  1  0  0  0
 24 25  2  0  0  0
 24 39  1  0  0  0
M  END
> <s_m_entry_id>
3080

> <s_m_entry_name>
dock_pv.95

> <s_m_Source_Path>
/home/csk/Desktop/cluster/DUD-E-result/fpps

> <s_m_Source_File>
dock_pv.maegz

> <i_m_Source_File_Index>
95

> <chembl_id>
CHEMBL2048240

> <chembl_pref_name>
None

> <i_lp_mmshare_version>
53161

> <r_lp_tautomer_probability>
0.980391937908546

> <s_lp_Force_Field>
OPLS_2005

> <r_lp_Energy>
-1.312452

> <b_lp_Chiralities_Consistent>
1

> <s_lp_Variant>
CHEMBL1782_lig170-1

> <s_i_glide_gridfile>
glide-grid_1zw5

> <i_i_glide_lignum>
193

> <i_i_glide_rotatable_bonds>
9

> <r_i_docking_score>
-8.2354849327166

> <r_i_glide_ligand_efficiency>
-0.329419397308664

> <r_i_glide_ligand_efficiency_sa>
-0.963228160008421

> <r_i_glide_ligand_efficiency_ln>
-1.95205672662193

> <r_i_glide_gscore>
-8.2354849327166

> <r_i_glide_lipo>
-0.0753710073472619

> <r_i_glide_hbond>
0

> <r_i_glide_metal>
-2.3

> <r_i_glide_rewards>
-0.788543519492999

> <r_i_glide_evdw>
-27.8402843475342

> <r_i_glide_ecoul>
-46.1444511413574

> <r_i_glide_erotb>
0.658432729876854

> <r_i_glide_esite>
-0.337988918376485

> <r_i_glide_emodel>
-112.6234749408

> <r_i_glide_energy>
-73.9847354888916

> <r_i_glide_einternal>
21.7245235443115

> <i_i_glide_confnum>
125

> <i_i_glide_posenum>
314

> <r_i_glide_eff_state_penalty>
0

> <s_user_duplicate_titles>
CHEMBL1782_lig170,CHEMBL1782_lig170

> <i_f3d_flags>
0

> <s_m_subgroup_title>
dock_pv

> <s_m_subgroupid>
dock_pv

> <b_m_subgroup_collapsed>
1

$$$$
CHEMBL1782_lig56
                    3D
 Schrodinger Suite 2021-1.
 22 22  0  0  1  0            999 V2000
   16.2705   35.5753   -9.3865 C   0  0  0  0  0  0
   17.8086   34.9749  -10.1974 P   0  0  0  0  0  0
   16.2326   37.4336   -9.3714 P   0  0  0  0  0  0
   16.0682   34.8910   -7.7075 S   0  0  0  0  0  0
   15.2690   33.3212   -7.9650 C   0  0  0  0  0  0
   14.9010   32.5589   -6.9610 N   0  0  0  0  0  0
   14.9012   32.6220   -9.5250 S   0  0  0  0  0  0
   18.1010   33.4804  -10.2402 O   0  0  0  0  0  0
   16.1010   38.0051  -10.7650 O   0  0  0  0  0  0
   14.3335   31.4343   -7.3504 C   0  0  0  0  0  0
   14.2201   31.2439   -8.7211 C   0  0  0  0  0  0
   17.7010   35.7694  -11.6997 O   0  0  0  0  0  0
   14.9010   37.7534   -8.3969 O   0  0  0  0  0  0
   18.9010   35.7800   -9.1650 O   0  0  0  0  0  0
   17.6285   37.9172   -8.5276 O   0  0  0  0  0  0
   15.4105   35.2662   -9.9769 H   0  0  0  0  0  0
   13.9898   30.7330   -6.6025 H   0  0  0  0  0  0
   13.7899   30.4120   -9.2651 H   0  0  0  0  0  0
   18.1703   36.6293  -11.8985 H   0  0  0  0  0  0
   14.0024   37.4726   -8.6916 H   0  0  0  0  0  0
   19.3963   36.5677   -9.4947 H   0  0  0  0  0  0
   17.9913   38.8169   -8.6913 H   0  0  0  0  0  0
  1  2  1  0  0  0
  1  3  1  0  0  0
  1  4  1  0  0  0
  1 16  1  0  0  0
  2  8  2  0  0  0
  2 12  1  0  0  0
  2 14  1  0  0  0
  3  9  2  0  0  0
  3 13  1  0  0  0
  3 15  1  0  0  0
  4  5  1  0  0  0
  5  6  2  0  0  0
  5  7  1  0  0  0
  6 10  1  0  0  0
  7 11  1  0  0  0
 10 11  2  0  0  0
 10 17  1  0  0  0
 11 18  1  0  0  0
 12 19  1  0  0  0
 13 20  1  0  0  0
 14 21  1  0  0  0
 15 22  1  0  0  0
M  END
> <s_m_entry_id>
3081

> <s_m_entry_name>
dock_pv.96

> <s_m_Source_Path>
/home/csk/Desktop/cluster/DUD-E-result/fpps

> <s_m_Source_File>
dock_pv.maegz

> <i_m_Source_File_Index>
96

> <chembl_id>
CHEMBL101987

> <chembl_pref_name>
None

> <i_lp_mmshare_version>
53161

> <r_lp_tautomer_probability>
1

> <s_lp_Force_Field>
OPLS_2005

> <r_lp_Energy>
-6.746037

> <b_lp_Chiralities_Consistent>
1

> <s_lp_Variant>
CHEMBL1782_lig56-1

> <s_i_glide_gridfile>
glide-grid_1zw5

> <i_i_glide_lignum>
61

> <i_i_glide_rotatable_bonds>
8

> <r_i_docking_score>
-8.22600472252914

> <r_i_glide_ligand_efficiency>
-0.548400314835276

> <r_i_glide_ligand_efficiency_sa>
-1.35247147679254

> <r_i_glide_ligand_efficiency_ln>
-2.21841784129136

> <r_i_glide_gscore>
-8.22600472252914

> <r_i_glide_lipo>
0

> <r_i_glide_hbond>
0

> <r_i_glide_metal>
-2.3

> <r_i_glide_rewards>
-1.57376590909091

> <r_i_glide_evdw>
-12.0786619186401

> <r_i_glide_ecoul>
-52.385612487793

> <r_i_glide_erotb>
0.451694282493773

> <r_i_glide_esite>
-0.2

> <r_i_glide_emodel>
-109.735499477008

> <r_i_glide_energy>
-64.4642744064331

> <r_i_glide_einternal>
17.411096572876

> <i_i_glide_confnum>
13

> <i_i_glide_posenum>
154

> <r_i_glide_eff_state_penalty>
0

> <s_user_duplicate_titles>
CHEMBL1782_lig56

> <i_f3d_flags>
0

> <s_m_subgroup_title>
dock_pv

> <s_m_subgroupid>
dock_pv

> <b_m_subgroup_collapsed>
1

$$$$
CHEMBL1782_lig142
                    3D
 Schrodinger Suite 2021-1.
 27 27  0  0  1  0            999 V2000
   15.3010   31.1498   -9.1650 C   0  0  0  0  0  0
   14.9010   30.9214   -7.8477 C   0  0  0  0  0  0
   14.5885   31.9251   -6.9895 N   0  0  0  0  0  0
   14.6707   33.1995   -7.4482 C   0  0  0  0  0  0
   15.0782   33.5256   -8.7479 C   0  0  0  0  0  0
   15.3835   32.4695   -9.6156 C   0  0  0  0  0  0
   15.1079   34.9800   -9.2256 C   0  0  0  0  0  0
   16.3896   35.8225   -8.9365 C   0  0  0  0  0  0
   17.8215   35.2490   -9.9451 P   0  0  0  0  0  0
   16.1010   37.6473   -9.0744 P   0  0  0  0  0  0
   17.5615   38.2529   -8.4674 O   0  0  0  0  0  0
   17.4858   35.7800  -11.5248 O   0  0  0  0  0  0
   18.1010   33.7800   -9.8104 O   0  0  0  0  0  0
   19.0612   36.1471   -9.1914 O   0  0  0  0  0  0
   16.1010   37.9476  -10.7650 O   0  0  0  0  0  0
   14.9010   38.1800   -8.3650 O   0  0  0  0  0  0
   16.8405   35.6061   -7.2176 Cl  0  0  0  0  0  0
   15.5286   30.3203   -9.8197 H   0  0  0  0  0  0
   14.8160   29.9145   -7.4635 H   0  0  0  0  0  0
   14.3891   33.9676   -6.7449 H   0  0  0  0  0  0
   15.6741   32.6674  -10.6358 H   0  0  0  0  0  0
   14.2448   35.4639   -8.7650 H   0  0  0  0  0  0
   14.9010   34.9800  -10.2952 H   0  0  0  0  0  0
   17.7840   39.1995   -8.6277 H   0  0  0  0  0  0
   18.0481   36.4709  -11.9650 H   0  0  0  0  0  0
   19.5365   36.8710   -9.6608 H   0  0  0  0  0  0
   16.9010   38.4193  -11.1251 H   0  0  0  0  0  0
  1  6  1  0  0  0
  1  2  2  0  0  0
  1 18  1  0  0  0
  2  3  1  0  0  0
  2 19  1  0  0  0
  3  4  2  0  0  0
  4  5  1  0  0  0
  4 20  1  0  0  0
  5  6  2  0  0  0
  5  7  1  0  0  0
  6 21  1  0  0  0
  7  8  1  0  0  0
  7 22  1  0  0  0
  7 23  1  0  0  0
  8  9  1  0  0  0
  8 10  1  0  0  0
  8 17  1  0  0  0
  9 12  1  0  0  0
  9 13  2  0  0  0
  9 14  1  0  0  0
 10 11  1  0  0  0
 10 15  1  0  0  0
 10 16  2  0  0  0
 11 24  1  0  0  0
 12 25  1  0  0  0
 14 26  1  0  0  0
 15 27  1  0  0  0
M  END
> <s_m_entry_id>
3082

> <s_m_entry_name>
dock_pv.97

> <s_m_Source_Path>
/home/csk/Desktop/cluster/DUD-E-result/fpps

> <s_m_Source_File>
dock_pv.maegz

> <i_m_Source_File_Index>
97

> <chembl_id>
CHEMBL394758

> <chembl_pref_name>
None

> <i_lp_mmshare_version>
53161

> <r_lp_tautomer_probability>
1

> <s_lp_Force_Field>
OPLS_2005

> <r_lp_Energy>
3.514677

> <b_lp_Chiralities_Consistent>
1

> <s_lp_Variant>
CHEMBL1782_lig142-1

> <s_i_glide_gridfile>
glide-grid_1zw5

> <i_i_glide_lignum>
154

> <i_i_glide_rotatable_bonds>
8

> <r_i_docking_score>
-8.22411050427923

> <r_i_glide_ligand_efficiency>
-0.483771206134073

> <r_i_glide_ligand_efficiency_sa>
-1.24391199524832

> <r_i_glide_ligand_efficiency_ln>
-2.14548728862993

> <r_i_glide_gscore>
-8.22411050427923

> <r_i_glide_lipo>
0

> <r_i_glide_hbond>
-0.000368654224140402

> <r_i_glide_metal>
-2.3

> <r_i_glide_rewards>
-1.50301622727273

> <r_i_glide_evdw>
-16.5539665222168

> <r_i_glide_ecoul>
-46.0270538330078

> <r_i_glide_erotb>
0.606972703328471

> <r_i_glide_esite>
-0.2

> <r_i_glide_emodel>
-105.096240188221

> <r_i_glide_energy>
-62.5810203552246

> <r_i_glide_einternal>
22.1797103881836

> <i_i_glide_confnum>
15

> <i_i_glide_posenum>
392

> <r_i_glide_eff_state_penalty>
0

> <s_user_duplicate_titles>
CHEMBL1782_lig142,404496

> <i_f3d_flags>
0

> <s_m_subgroup_title>
dock_pv

> <s_m_subgroupid>
dock_pv

> <b_m_subgroup_collapsed>
1

$$$$
CHEMBL1782_lig110
                    3D
 Schrodinger Suite 2021-1.
 28 28  0  0  1  0            999 V2000
   16.3533   34.3590   -9.4287 C   0  0  0  0  0  0
   17.0794   35.5253  -10.6980 P   0  0  0  0  0  0
   16.0298   35.2538   -7.8043 P   0  0  0  0  0  0
   15.0989   33.6525  -10.0197 C   0  0  0  0  0  0
   15.4398   31.2683   -9.5646 N   0  0  0  0  0  0
   17.3010   35.7800   -7.1652 O   0  0  0  0  0  0
   16.1010   36.5800  -11.1666 O   0  0  0  0  0  0
   17.3586   33.3800   -9.1649 O   0  0  0  0  0  0
   14.6590   32.3593   -9.3374 C   0  0  0  0  0  0
   14.9009   36.4688   -8.2024 O   0  0  0  0  0  0
   15.2411   34.1020   -6.8239 O   0  0  0  0  0  0
   18.4561   36.1213   -9.8775 O   0  0  0  0  0  0
   17.6654   34.4892  -11.9161 O   0  0  0  0  0  0
   15.0774   30.0938   -8.9908 C   0  0  0  0  0  0
   13.5034   32.3071   -8.5530 C   0  0  0  0  0  0
   13.9498   29.9650   -8.1812 C   0  0  0  0  0  0
   13.1523   31.0899   -7.9650 C   0  0  0  0  0  0
   14.2587   34.3455  -10.0320 H   0  0  0  0  0  0
   15.2731   33.4019  -11.0671 H   0  0  0  0  0  0
   16.8999   32.6591   -8.7052 H   0  0  0  0  0  0
   14.3433   36.4871   -9.0150 H   0  0  0  0  0  0
   15.6100   33.2214   -6.6109 H   0  0  0  0  0  0
   18.8907   36.9348  -10.2317 H   0  0  0  0  0  0
   17.9921   34.8522  -12.7649 H   0  0  0  0  0  0
   15.7006   29.2361   -9.2013 H   0  0  0  0  0  0
   12.8876   33.1819   -8.4034 H   0  0  0  0  0  0
   13.6845   29.0080   -7.7523 H   0  0  0  0  0  0
   12.2607   31.0092   -7.3600 H   0  0  0  0  0  0
  1  2  1  0  0  0
  1  3  1  0  0  0
  1  4  1  0  0  0
  1  8  1  0  0  0
  2  7  2  0  0  0
  2 12  1  0  0  0
  2 13  1  0  0  0
  3  6  2  0  0  0
  3 10  1  0  0  0
  3 11  1  0  0  0
  4  9  1  0  0  0
  4 18  1  0  0  0
  4 19  1  0  0  0
  5  9  1  0  0  0
  5 14  2  0  0  0
  8 20  1  0  0  0
  9 15  2  0  0  0
 10 21  1  0  0  0
 11 22  1  0  0  0
 12 23  1  0  0  0
 13 24  1  0  0  0
 14 16  1  0  0  0
 14 25  1  0  0  0
 15 17  1  0  0  0
 15 26  1  0  0  0
 16 17  2  0  0  0
 16 27  1  0  0  0
 17 28  1  0  0  0
M  END
> <s_m_entry_id>
3083

> <s_m_entry_name>
dock_pv.98

> <s_m_Source_Path>
/home/csk/Desktop/cluster/DUD-E-result/fpps

> <s_m_Source_File>
dock_pv.maegz

> <i_m_Source_File_Index>
98

> <chembl_id>
CHEMBL434024

> <chembl_pref_name>
None

> <i_lp_mmshare_version>
53161

> <r_lp_tautomer_probability>
1

> <s_lp_Force_Field>
OPLS_2005

> <r_lp_Energy>
-7.233328

> <b_lp_Chiralities_Consistent>
1

> <s_lp_Variant>
CHEMBL1782_lig110-1

> <s_i_glide_gridfile>
glide-grid_1zw5

> <i_i_glide_lignum>
121

> <i_i_glide_rotatable_bonds>
9

> <r_i_docking_score>
-8.21560494355377

> <r_i_glide_ligand_efficiency>
-0.483270879032575

> <r_i_glide_ligand_efficiency_sa>
-1.24262551338414

> <r_i_glide_ligand_efficiency_ln>
-2.14326837724618

> <r_i_glide_gscore>
-8.21560494355377

> <r_i_glide_lipo>
0

> <r_i_glide_hbond>
0

> <r_i_glide_metal>
-2.3

> <r_i_glide_rewards>
-1.47878004545454

> <r_i_glide_evdw>
-18.2894096374512

> <r_i_glide_ecoul>
-47.4955024719238

> <r_i_glide_erotb>
0.677645583773333

> <r_i_glide_esite>
-0.2

> <r_i_glide_emodel>
-111.274454150874

> <r_i_glide_energy>
-65.784912109375

> <r_i_glide_einternal>
16.530611038208

> <i_i_glide_confnum>
2

> <i_i_glide_posenum>
354

> <r_i_glide_eff_state_penalty>
0

> <s_user_duplicate_titles>
CHEMBL1782_lig110,83952

> <i_f3d_flags>
0

> <s_m_subgroup_title>
dock_pv

> <s_m_subgroupid>
dock_pv

> <b_m_subgroup_collapsed>
1

$$$$
CHEMBL1782_lig145
                    3D
 Schrodinger Suite 2021-1.
 33 33  0  0  1  0            999 V2000
   17.9883   35.2076  -10.3934 P   0  0  0  0  0  0
   16.6909   35.6661   -9.1421 C   0  0  0  0  0  0
   16.1692   37.4612   -9.0664 P   0  0  0  0  0  0
   14.9010   37.3589   -7.9650 O   0  0  0  0  0  0
   15.7010   38.0807  -10.3650 O   0  0  0  0  0  0
   17.5129   38.2160   -8.3650 O   0  0  0  0  0  0
   17.3010   35.7588  -11.8585 O   0  0  0  0  0  0
   18.5010   33.7800  -10.3650 O   0  0  0  0  0  0
   19.1987   36.3081   -9.9650 O   0  0  0  0  0  0
   15.4512   34.9037   -9.3391 N   0  0  0  0  0  0
   15.2087   33.5663   -9.0642 C   0  0  0  0  0  0
   16.1893   32.7684   -8.8829 N   0  0  0  0  0  0
   15.9729   31.3243   -8.7649 C   0  0  0  0  0  0
   14.6076   30.8146   -9.2749 C   0  0  0  0  0  0
   13.4783   31.6883   -8.7273 C   0  0  0  0  0  0
   13.7080   33.1992   -8.9907 C   0  0  1  0  0  0
   12.9617   34.0607   -7.9454 C   0  0  0  0  0  0
   17.0963   35.3877   -8.1605 H   0  0  0  0  0  0
   14.0487   36.9800   -8.2717 H   0  0  0  0  0  0
   17.7295   39.1377   -8.6425 H   0  0  0  0  0  0
   17.7421   36.4954  -12.3490 H   0  0  0  0  0  0
   19.3843   37.0707  -10.5728 H   0  0  0  0  0  0
   14.6524   35.4569   -9.6332 H   0  0  0  0  0  0
   16.7556   30.8039   -9.3169 H   0  0  0  0  0  0
   16.1010   31.0354   -7.7202 H   0  0  0  0  0  0
   14.5902   30.8473  -10.3652 H   0  0  0  0  0  0
   14.4562   29.7695   -8.9989 H   0  0  0  0  0  0
   13.3814   31.5002   -7.6559 H   0  0  0  0  0  0
   12.5291   31.3750   -9.1647 H   0  0  0  0  0  0
   13.2920   33.4322   -9.9650 H   0  0  0  0  0  0
   12.9496   35.1160   -8.2170 H   0  0  0  0  0  0
   11.9199   33.7484   -7.8619 H   0  0  0  0  0  0
   13.4080   33.9709   -6.9537 H   0  0  0  0  0  0
  1  9  1  0  0  0
  1  2  1  0  0  0
  1  7  1  0  0  0
  1  8  2  0  0  0
  2 10  1  0  0  0
  2  3  1  0  0  0
  2 18  1  0  0  0
  3  5  2  0  0  0
  3  6  1  0  0  0
  3  4  1  0  0  0
  4 19  1  0  0  0
  6 20  1  0  0  0
  7 21  1  0  0  0
  9 22  1  0  0  0
 10 11  1  0  0  0
 10 23  1  0  0  0
 11 12  2  0  0  0
 11 16  1  0  0  0
 12 13  1  0  0  0
 13 14  1  0  0  0
 13 24  1  0  0  0
 13 25  1  0  0  0
 14 15  1  0  0  0
 14 26  1  0  0  0
 14 27  1  0  0  0
 15 16  1  0  0  0
 15 28  1  0  0  0
 15 29  1  0  0  0
 16 17  1  0  0  0
 16 30  1  0  0  0
 17 31  1  0  0  0
 17 32  1  0  0  0
 17 33  1  0  0  0
M  END
> <s_m_entry_id>
3084

> <s_m_entry_name>
dock_pv.99

> <s_m_Source_Path>
/home/csk/Desktop/cluster/DUD-E-result/fpps

> <s_m_Source_File>
dock_pv.maegz

> <i_m_Source_File_Index>
99

> <chembl_id>
CHEMBL408608

> <chembl_pref_name>
None

> <i_lp_mmshare_version>
53161

> <r_lp_tautomer_probability>
0.999601159137504

> <s_lp_Force_Field>
OPLS_2005

> <r_lp_Energy>
-2.661266

> <b_lp_Chiralities_Consistent>
1

> <s_lp_Variant>
CHEMBL1782_lig145-1

> <s_i_glide_gridfile>
glide-grid_1zw5

> <i_i_glide_lignum>
162

> <i_i_glide_rotatable_bonds>
8

> <r_i_docking_score>
-8.21181356724853

> <r_i_glide_ligand_efficiency>
-0.483047856896972

> <r_i_glide_ligand_efficiency_sa>
-1.2420520606731

> <r_i_glide_ligand_efficiency_ln>
-2.14227929159794

> <r_i_glide_gscore>
-8.21181356724853

> <r_i_glide_lipo>
0

> <r_i_glide_hbond>
-0.16

> <r_i_glide_metal>
-2.3

> <r_i_glide_rewards>
-1.45800504545455

> <r_i_glide_evdw>
-16.7557315826416

> <r_i_glide_ecoul>
-50.3801345825195

> <r_i_glide_erotb>
0.88685336467577

> <r_i_glide_esite>
-0.342875307337675

> <r_i_glide_emodel>
-115.720791249851

> <r_i_glide_energy>
-67.1358661651611

> <r_i_glide_einternal>
15.8884859085083

> <i_i_glide_confnum>
6

> <i_i_glide_posenum>
199

> <r_i_glide_eff_state_penalty>
0

> <s_user_duplicate_titles>
CHEMBL1782_lig145,428597

> <i_f3d_flags>
0

> <s_m_subgroup_title>
dock_pv

> <s_m_subgroupid>
dock_pv

> <b_m_subgroup_collapsed>
1

$$$$
CHEMBL1782_lig144
                    3D
 Schrodinger Suite 2021-1.
 31 31  0  0  1  0            999 V2000
   16.1214   35.6217   -8.7446 C   0  0  1  0  0  0
   14.7068   35.3800   -8.3650 N   0  0  0  0  0  0
   16.7859   34.3791  -10.0040 P   0  0  0  0  0  0
   16.4003   37.3698   -9.2630 P   0  0  2  0  0  0
   14.3002   34.1352   -7.8304 C   0  0  0  0  0  0
   15.2445   33.3854   -7.2027 N   0  0  0  0  0  0
   18.1010   33.7800   -9.5650 O   0  0  0  0  0  0
   16.1010   37.6793  -10.6908 O   0  0  0  0  0  0
   12.9870   33.6452   -8.0097 C   0  0  0  0  0  0
   15.5585   33.2152  -10.2284 O   0  0  0  0  0  0
   16.9229   35.2410  -11.4754 O   0  0  0  0  0  0
   17.9694   37.5323   -8.8963 O   0  0  0  0  0  0
   15.6406   38.4883   -8.0675 C   0  0  0  0  0  0
   14.9189   32.1430   -6.7650 C   0  0  0  0  0  0
   11.8980   34.4201   -8.7278 C   0  0  0  0  0  0
   12.6772   32.3606   -7.5465 C   0  0  0  0  0  0
   13.6533   31.5934   -6.9216 C   0  0  0  0  0  0
   16.6971   35.4949   -7.8236 H   0  0  0  0  0  0
   14.0171   35.8167   -8.9758 H   0  0  0  0  0  0
   15.1362   32.7332   -9.4890 H   0  0  0  0  0  0
   17.4588   36.0594  -11.5876 H   0  0  0  0  0  0
   18.3644   38.3502   -9.2768 H   0  0  0  0  0  0
   15.7291   38.1179   -7.0482 H   0  0  0  0  0  0
   16.1002   39.4756   -8.1307 H   0  0  0  0  0  0
   14.5965   38.5765   -8.3649 H   0  0  0  0  0  0
   15.7010   31.5807   -6.2747 H   0  0  0  0  0  0
   12.1797   34.5800   -9.7676 H   0  0  0  0  0  0
   11.7464   35.3800   -8.2409 H   0  0  0  0  0  0
   10.9410   33.8967   -8.7231 H   0  0  0  0  0  0
   11.6905   31.9410   -7.6843 H   0  0  0  0  0  0
   13.4286   30.5968   -6.5666 H   0  0  0  0  0  0
  1  2  1  0  0  0
  1  3  1  0  0  0
  1  4  1  0  0  0
  1 18  1  0  0  0
  2  5  1  0  0  0
  2 19  1  0  0  0
  3  7  2  0  0  0
  3 10  1  0  0  0
  3 11  1  0  0  0
  4  8  2  0  0  0
  4 12  1  0  0  0
  4 13  1  0  0  0
  5  6  1  0  0  0
  5  9  2  0  0  0
  6 14  2  0  0  0
  9 15  1  0  0  0
  9 16  1  0  0  0
 10 20  1  0  0  0
 11 21  1  0  0  0
 12 22  1  0  0  0
 13 23  1  0  0  0
 13 24  1  0  0  0
 13 25  1  0  0  0
 14 17  1  0  0  0
 14 26  1  0  0  0
 15 27  1  0  0  0
 15 28  1  0  0  0
 15 29  1  0  0  0
 16 17  2  0  0  0
 16 30  1  0  0  0
 17 31  1  0  0  0
M  END
> <s_m_entry_id>
3085

> <s_m_entry_name>
dock_pv.100

> <s_m_Source_Path>
/home/csk/Desktop/cluster/DUD-E-result/fpps

> <s_m_Source_File>
dock_pv.maegz

> <i_m_Source_File_Index>
100

> <chembl_id>
CHEMBL100154

> <chembl_pref_name>
None

> <i_lp_mmshare_version>
53161

> <r_lp_tautomer_probability>
0.999999772200052

> <s_lp_Force_Field>
OPLS_2005

> <r_lp_Energy>
-6.639384

> <b_lp_Chiralities_Consistent>
1

> <s_lp_Variant>
CHEMBL1782_lig144-4

> <s_i_glide_gridfile>
glide-grid_1zw5

> <i_i_glide_lignum>
161

> <i_i_glide_rotatable_bonds>
7

> <r_i_docking_score>
-8.2077152568923

> <r_i_glide_ligand_efficiency>
-0.482806779817194

> <r_i_glide_ligand_efficiency_sa>
-1.24143218361652

> <r_i_glide_ligand_efficiency_ln>
-2.14121013369089

> <r_i_glide_gscore>
-8.2077152568923

> <r_i_glide_lipo>
-0.025016269301399

> <r_i_glide_hbond>
-0.16

> <r_i_glide_metal>
-2.3

> <r_i_glide_rewards>
-1.49894536363636

> <r_i_glide_evdw>
-17.150146484375

> <r_i_glide_ecoul>
-44.0491104125977

> <r_i_glide_erotb>
0.920169539286194

> <r_i_glide_esite>
-0.286415839021979

> <r_i_glide_emodel>
-108.323096003515

> <r_i_glide_energy>
-61.1992568969727

> <r_i_glide_einternal>
7.69653367996216

> <i_i_glide_confnum>
10

> <i_i_glide_posenum>
244

> <r_i_glide_eff_state_penalty>
0

> <s_user_duplicate_titles>
CHEMBL1782_lig144

> <i_f3d_flags>
0

> <s_m_subgroup_title>
dock_pv

> <s_m_subgroupid>
dock_pv

> <b_m_subgroup_collapsed>
1

$$$$
CHEMBL1782_lig226
                    3D
 Schrodinger Suite 2021-1.
 40 40  0  0  1  0            999 V2000
   13.5158   34.2989   -6.3649 N   0  0  0  0  0  0
   12.4579   33.4135   -6.4526 N   0  0  0  0  0  0
   12.3808   33.0505   -7.7335 N   0  0  0  0  0  0
   13.3277   33.6970   -8.4792 C   0  0  0  0  0  0
   14.0693   34.4251   -7.5586 C   0  0  0  0  0  0
   11.5667   31.9146   -8.1366 C   0  0  0  0  0  0
   12.4759   30.7114   -8.4745 C   0  0  0  0  0  0
   15.3150   35.2675   -7.7244 C   0  0  0  0  0  0
   15.7888   35.4710   -9.1872 C   0  0  0  0  0  0
   16.7988   34.0711   -9.8876 P   0  0  0  0  0  0
   16.5005   37.2000   -9.4250 P   0  0  0  0  0  0
   18.1002   33.7800   -9.1650 O   0  0  0  0  0  0
   15.7020   38.0894  -10.3647 O   0  0  0  0  0  0
   15.7610   32.7239   -9.9106 O   0  0  0  0  0  0
   17.0689   34.5558  -11.5009 O   0  0  0  0  0  0
   16.7219   37.8118   -7.8495 O   0  0  0  0  0  0
   18.0568   36.8154   -9.9650 O   0  0  0  0  0  0
   13.4886   30.3462   -7.3964 C   0  0  0  0  0  0
   14.7056   29.7977   -7.5732 C   0  0  0  0  0  0
   15.2663   29.3734   -8.9199 C   0  0  0  0  0  0
   15.6250   29.5437   -6.3948 C   0  0  0  0  0  0
   13.4182   33.5121   -9.5400 H   0  0  0  0  0  0
   10.9630   32.2069   -8.9967 H   0  0  0  0  0  0
   10.8774   31.6580   -7.3304 H   0  0  0  0  0  0
   13.0138   30.9445   -9.3923 H   0  0  0  0  0  0
   11.8601   29.8427   -8.7012 H   0  0  0  0  0  0
   15.0661   36.2329   -7.2869 H   0  0  0  0  0  0
   16.1272   34.8699   -7.1183 H   0  0  0  0  0  0
   14.9008   35.3800   -9.8017 H   0  0  0  0  0  0
   13.1839   30.5828   -6.3874 H   0  0  0  0  0  0
   16.1012   30.0148   -9.1940 H   0  0  0  0  0  0
   14.5356   29.4241   -9.7223 H   0  0  0  0  0  0
   15.6093   28.3400   -8.8792 H   0  0  0  0  0  0
   16.5010   30.1798   -6.4853 H   0  0  0  0  0  0
   15.1496   29.7803   -5.4415 H   0  0  0  0  0  0
   15.9417   28.5008   -6.3633 H   0  0  0  0  0  0
   18.5010   37.3819  -10.6594 H   0  0  0  0  0  0
   16.9019   38.7651   -7.7108 H   0  0  0  0  0  0
   17.5413   35.3832  -11.7353 H   0  0  0  0  0  0
   15.2996   32.3816   -9.1181 H   0  0  0  0  0  0
  1  2  2  0  0  0
  1  5  1  0  0  0
  2  3  1  0  0  0
  3  4  1  0  0  0
  3  6  1  0  0  0
  4  5  2  0  0  0
  4 22  1  0  0  0
  5  8  1  0  0  0
  6  7  1  0  0  0
  6 23  1  0  0  0
  6 24  1  0  0  0
  7 18  1  0  0  0
  7 25  1  0  0  0
  7 26  1  0  0  0
  8  9  1  0  0  0
  8 27  1  0  0  0
  8 28  1  0  0  0
  9 10  1  0  0  0
  9 11  1  0  0  0
  9 29  1  0  0  0
 10 12  2  0  0  0
 10 14  1  0  0  0
 10 15  1  0  0  0
 11 13  2  0  0  0
 11 16  1  0  0  0
 11 17  1  0  0  0
 14 40  1  0  0  0
 15 39  1  0  0  0
 16 38  1  0  0  0
 17 37  1  0  0  0
 18 19  2  0  0  0
 18 30  1  0  0  0
 19 20  1  0  0  0
 19 21  1  0  0  0
 20 31  1  0  0  0
 20 32  1  0  0  0
 20 33  1  0  0  0
 21 34  1  0  0  0
 21 35  1  0  0  0
 21 36  1  0  0  0
M  END
> <s_m_entry_id>
3086

> <s_m_entry_name>
dock_pv.101

> <s_m_Source_Path>
/home/csk/Desktop/cluster/DUD-E-result/fpps

> <s_m_Source_File>
dock_pv.maegz

> <i_m_Source_File_Index>
101

> <chembl_id>
CHEMBL3775345

> <chembl_pref_name>
None

> <i_lp_mmshare_version>
53161

> <r_lp_tautomer_probability>
1

> <s_lp_Force_Field>
OPLS_2005

> <r_lp_Energy>
-7.391926

> <b_lp_Chiralities_Consistent>
1

> <s_lp_Variant>
CHEMBL1782_lig226-1

> <s_i_glide_gridfile>
glide-grid_1zw5

> <i_i_glide_lignum>
252

> <i_i_glide_rotatable_bonds>
11

> <r_i_docking_score>
-8.2010464286973

> <r_i_glide_ligand_efficiency>
-0.390526020414157

> <r_i_glide_ligand_efficiency_sa>
-1.0774316781331

> <r_i_glide_ligand_efficiency_ln>
-2.02769215772073

> <r_i_glide_gscore>
-8.2010464286973

> <r_i_glide_lipo>
-0.684254153946848

> <r_i_glide_hbond>
0

> <r_i_glide_metal>
-2.3

> <r_i_glide_rewards>
-1.09621445454545

> <r_i_glide_evdw>
-18.2519474029541

> <r_i_glide_ecoul>
-50.7410888671875

> <r_i_glide_erotb>
1.15105559750747

> <r_i_glide_esite>
-0.359036047564759

> <r_i_glide_emodel>
-109.992750053196

> <r_i_glide_energy>
-68.9930362701416

> <r_i_glide_einternal>
17.9624786376953

> <i_i_glide_confnum>
128

> <i_i_glide_posenum>
389

> <r_i_glide_eff_state_penalty>
0

> <s_user_duplicate_titles>
CHEMBL1782_lig226

> <i_f3d_flags>
0

> <s_m_subgroup_title>
dock_pv

> <s_m_subgroupid>
dock_pv

> <b_m_subgroup_collapsed>
1

$$$$
CHEMBL1782_lig17
                    3D
 Schrodinger Suite 2021-1.
 28 28  0  0  1  0            999 V2000
   15.7010   30.7576   -8.9039 C   0  0  0  0  0  0
   15.2788   30.9060   -7.5833 C   0  0  0  0  0  0
   14.9010   32.1009   -7.0643 N   0  0  0  0  0  0
   14.9272   33.1843   -7.8802 C   0  0  0  0  0  0
   15.3511   33.1341   -9.2156 C   0  0  0  0  0  0
   15.7486   31.8885   -9.7196 C   0  0  0  0  0  0
   15.2305   34.3434  -10.1476 C   0  0  0  0  0  0
   16.2985   35.4988  -10.0924 C   0  0  0  0  0  0
   16.2679   36.4903   -8.4823 P   0  0  0  0  0  0
   16.3984   38.1448   -8.9433 O   0  0  0  0  0  0
   14.6444   36.3608   -7.9650 O   0  0  0  0  0  0
   17.3010   36.0121   -7.4706 O   0  0  0  0  0  0
   17.9531   34.6926  -10.3839 P   0  0  0  0  0  0
   16.1010   36.4304  -11.1650 O   0  0  0  0  0  0
   19.0852   35.9603  -10.3062 O   0  0  0  0  0  0
   18.1010   33.7800  -11.5650 O   0  0  0  0  0  0
   18.1010   33.7800   -8.9438 O   0  0  0  0  0  0
   15.9823   29.7854   -9.2851 H   0  0  0  0  0  0
   15.2303   30.0538   -6.9199 H   0  0  0  0  0  0
   14.5497   34.0889   -7.4344 H   0  0  0  0  0  0
   16.0511   31.7800  -10.7504 H   0  0  0  0  0  0
   14.2159   34.6727   -9.9650 H   0  0  0  0  0  0
   15.2188   33.9535  -11.1650 H   0  0  0  0  0  0
   17.1460   38.6225   -9.3762 H   0  0  0  0  0  0
   13.9077   36.2455   -8.6069 H   0  0  0  0  0  0
   16.9706   36.6924  -11.5107 H   0  0  0  0  0  0
   19.1179   36.7242  -10.9496 H   0  0  0  0  0  0
   17.3010   33.3293   -8.5653 H   0  0  0  0  0  0
  1  6  1  0  0  0
  1  2  2  0  0  0
  1 18  1  0  0  0
  2  3  1  0  0  0
  2 19  1  0  0  0
  3  4  2  0  0  0
  4  5  1  0  0  0
  4 20  1  0  0  0
  5  6  2  0  0  0
  5  7  1  0  0  0
  6 21  1  0  0  0
  7  8  1  0  0  0
  7 22  1  0  0  0
  7 23  1  0  0  0
  8  9  1  0  0  0
  8 13  1  0  0  0
  8 14  1  0  0  0
  9 10  1  0  0  0
  9 11  1  0  0  0
  9 12  2  0  0  0
 10 24  1  0  0  0
 11 25  1  0  0  0
 13 15  1  0  0  0
 13 16  2  0  0  0
 13 17  1  0  0  0
 14 26  1  0  0  0
 15 27  1  0  0  0
 17 28  1  0  0  0
M  END
> <s_m_entry_id>
3087

> <s_m_entry_name>
dock_pv.102

> <s_m_Source_Path>
/home/csk/Desktop/cluster/DUD-E-result/fpps

> <s_m_Source_File>
dock_pv.maegz

> <i_m_Source_File_Index>
102

> <chembl_id>
CHEMBL923

> <chembl_pref_name>
RISEDRONIC ACID

> <i_lp_mmshare_version>
53161

> <r_lp_tautomer_probability>
1

> <s_lp_Force_Field>
OPLS_2005

> <r_lp_Energy>
0.898674

> <b_lp_Chiralities_Consistent>
1

> <s_lp_Variant>
CHEMBL1782_lig17-1

> <s_i_glide_gridfile>
glide-grid_1zw5

> <i_i_glide_lignum>
21

> <i_i_glide_rotatable_bonds>
9

> <r_i_docking_score>
-8.19909477791704

> <r_i_glide_ligand_efficiency>
-0.482299692818649

> <r_i_glide_ligand_efficiency_sa>
-1.24012832015353

> <r_i_glide_ligand_efficiency_ln>
-2.13896124269487

> <r_i_glide_gscore>
-8.19909477791704

> <r_i_glide_lipo>
-0.0465651979147855

> <r_i_glide_hbond>
-0.12360290297375

> <r_i_glide_metal>
-2.3

> <r_i_glide_rewards>
-1.62878004545454

> <r_i_glide_evdw>
-11.5558443069458

> <r_i_glide_ecoul>
-48.9864883422852

> <r_i_glide_erotb>
0.677645583773333

> <r_i_glide_esite>
-0.2

> <r_i_glide_emodel>
-115.399359540476

> <r_i_glide_energy>
-60.542332649231

> <r_i_glide_einternal>
7.79031419754028

> <i_i_glide_confnum>
7

> <i_i_glide_posenum>
62

> <r_i_glide_eff_state_penalty>
0

> <s_user_duplicate_titles>
CHEMBL1782_lig17,83772

> <i_f3d_flags>
0

> <s_m_subgroup_title>
dock_pv

> <s_m_subgroupid>
dock_pv

> <b_m_subgroup_collapsed>
1

$$$$
CHEMBL1782_lig198
                    3D
 Schrodinger Suite 2021-1.
 35 35  0  0  1  0            999 V2000
   14.5253   32.5744   -9.3476 C   0  0  0  0  0  0
   14.3759   31.5419   -8.4381 N   0  0  0  0  0  0
   14.8757   32.0033   -7.2285 C   0  0  0  0  0  0
   15.3010   33.3107   -7.4014 C   0  0  0  0  0  0
   15.1141   33.6635   -8.7249 N   0  3  0  0  0  0
   13.6906   30.2703   -8.6919 C   0  0  0  0  0  0
   15.2850   35.0020   -9.2818 C   0  0  0  0  0  0
   16.7003   35.6411   -9.1307 C   0  0  0  0  0  0
   16.4543   37.5154   -9.1651 P   0  0  0  0  0  0
   15.7010   38.0471  -10.3650 O   0  0  0  0  0  0
   15.7010   37.8151   -7.6703 O   0  0  0  0  0  0
   18.0034   38.1800   -9.0255 O   0  0  0  0  0  0
   17.8810   34.9208  -10.3906 P   0  0  0  0  0  0
   17.3010   35.5916  -11.8489 O   0  0  0  0  0  0
   18.1010   33.4083  -10.3650 O   0  0  0  0  0  0
   19.2829   35.7800   -9.9707 O   0  0  0  0  0  0
   13.9400   29.1868   -7.6147 C   0  0  0  0  0  0
   15.3752   28.6646   -7.5542 C   0  0  0  0  0  0
   14.1591   32.5526  -10.3642 H   0  0  0  0  0  0
   14.8498   31.3781   -6.3491 H   0  0  0  0  0  0
   15.7010   34.0170   -6.6928 H   0  0  0  0  0  0
   14.0096   29.8989   -9.6666 H   0  0  0  0  0  0
   12.6207   30.4741   -8.7650 H   0  0  0  0  0  0
   14.9883   34.9800  -10.3305 H   0  0  0  0  0  0
   14.5372   35.6106   -8.7650 H   0  0  0  0  0  0
   17.1112   35.3833   -8.1472 H   0  0  0  0  0  0
   15.4146   38.7236   -7.4556 H   0  0  0  0  0  0
   18.1130   39.0993   -9.3924 H   0  0  0  0  0  0
   19.6044   36.5373  -10.5156 H   0  0  0  0  0  0
   13.3010   28.3328   -7.8226 H   0  0  0  0  0  0
   13.6288   29.5340   -6.6299 H   0  0  0  0  0  0
   15.4727   27.8790   -6.8038 H   0  0  0  0  0  0
   16.0897   29.4488   -7.3048 H   0  0  0  0  0  0
   15.6703   28.2359   -8.5126 H   0  0  0  0  0  0
   17.7778   36.3398  -12.2874 H   0  0  0  0  0  0
  1  2  1  0  0  0
  1  5  2  0  0  0
  1 19  1  0  0  0
  2  3  1  0  0  0
  2  6  1  0  0  0
  3  4  2  0  0  0
  3 20  1  0  0  0
  4  5  1  0  0  0
  4 21  1  0  0  0
  5  7  1  0  0  0
  6 17  1  0  0  0
  6 22  1  0  0  0
  6 23  1  0  0  0
  7  8  1  0  0  0
  7 24  1  0  0  0
  7 25  1  0  0  0
  8  9  1  0  0  0
  8 13  1  0  0  0
  8 26  1  0  0  0
  9 10  2  0  0  0
  9 11  1  0  0  0
  9 12  1  0  0  0
 11 27  1  0  0  0
 12 28  1  0  0  0
 13 14  1  0  0  0
 13 15  2  0  0  0
 13 16  1  0  0  0
 14 35  1  0  0  0
 16 29  1  0  0  0
 17 18  1  0  0  0
 17 30  1  0  0  0
 17 31  1  0  0  0
 18 32  1  0  0  0
 18 33  1  0  0  0
 18 34  1  0  0  0
M  CHG  1   5   1
M  END
> <s_m_entry_id>
3088

> <s_m_entry_name>
dock_pv.103

> <s_m_Source_Path>
/home/csk/Desktop/cluster/DUD-E-result/fpps

> <s_m_Source_File>
dock_pv.maegz

> <i_m_Source_File_Index>
103

> <chembl_id>
CHEMBL2338371

> <chembl_pref_name>
None

> <i_lp_mmshare_version>
53161

> <r_lp_tautomer_probability>
1

> <s_lp_Force_Field>
OPLS_2005

> <r_lp_Energy>
0.395952

> <b_lp_Chiralities_Consistent>
1

> <s_lp_Variant>
CHEMBL1782_lig198-1

> <s_i_glide_gridfile>
glide-grid_1zw5

> <i_i_glide_lignum>
222

> <i_i_glide_rotatable_bonds>
10

> <r_i_docking_score>
-8.18947895375024

> <r_i_glide_ligand_efficiency>
-0.454971052986125

> <r_i_glide_ligand_efficiency_sa>
-1.19236147057876

> <r_i_glide_ligand_efficiency_ln>
-2.10506333671797

> <r_i_glide_gscore>
-8.18947895375024

> <r_i_glide_lipo>
-0.286335708965529

> <r_i_glide_hbond>
0

> <r_i_glide_metal>
-2.3

> <r_i_glide_rewards>
-1.21924159090909

> <r_i_glide_evdw>
-20.830057144165

> <r_i_glide_ecoul>
-46.2276191711426

> <r_i_glide_erotb>
1.02574660960177

> <r_i_glide_esite>
-0.36814540626914

> <r_i_glide_emodel>
-102.491226943452

> <r_i_glide_energy>
-67.0576763153076

> <r_i_glide_einternal>
21.9438953399658

> <i_i_glide_confnum>
10

> <i_i_glide_posenum>
106

> <r_i_glide_eff_state_penalty>
0

> <s_user_duplicate_titles>
CHEMBL1782_lig198

> <i_f3d_flags>
0

> <s_m_subgroup_title>
dock_pv

> <s_m_subgroupid>
dock_pv

> <b_m_subgroup_collapsed>
1

$$$$
CHEMBL1782_lig39
                    3D
 Schrodinger Suite 2021-1.
 29 29  0  0  1  0            999 V2000
   16.5940   35.4289  -10.4637 C   0  0  0  0  0  0
   16.5878   36.5320   -8.9248 P   0  0  0  0  0  0
   18.2937   34.8384  -11.0100 P   0  0  0  0  0  0
   15.6337   34.2142  -10.2616 C   0  0  0  0  0  0
   12.7697   31.7985   -7.9963 N   0  0  0  0  0  0
   14.7875   32.4494   -8.7369 N   0  0  0  0  0  0
   13.6016   32.8007   -8.1389 C   0  0  0  0  0  0
   17.7010   36.1800   -7.9383 O   0  0  0  0  0  0
   18.5972   33.3800  -10.7650 O   0  0  0  0  0  0
   13.4130   30.7629   -8.5047 C   0  0  0  0  0  0
   16.1010   36.1800  -11.5650 O   0  0  0  0  0  0
   14.6663   31.1085   -8.9882 C   0  0  0  0  0  0
   15.9167   33.3139   -9.0267 C   0  0  0  0  0  0
   18.3891   35.3800  -12.6202 O   0  0  0  0  0  0
   16.5014   38.1579   -9.4811 O   0  0  0  0  0  0
   19.3192   35.8600  -10.1269 O   0  0  0  0  0  0
   14.9969   36.3190   -8.3241 O   0  0  0  0  0  0
   14.6092   34.5800  -10.1838 H   0  0  0  0  0  0
   15.6328   33.5909  -11.1575 H   0  0  0  0  0  0
   13.4256   33.8217   -7.8376 H   0  0  0  0  0  0
   12.9656   29.7800   -8.5347 H   0  0  0  0  0  0
   16.8477   36.3116  -12.1765 H   0  0  0  0  0  0
   15.4497   30.5325   -9.4599 H   0  0  0  0  0  0
   16.7974   32.6891   -9.1563 H   0  0  0  0  0  0
   16.0906   33.8958   -8.1223 H   0  0  0  0  0  0
   18.8006   36.2595  -12.8137 H   0  0  0  0  0  0
   17.2194   38.7284   -9.8606 H   0  0  0  0  0  0
   19.7010   36.6707  -10.5375 H   0  0  0  0  0  0
   14.2318   36.1800   -8.9282 H   0  0  0  0  0  0
  1  2  1  0  0  0
  1  3  1  0  0  0
  1  4  1  0  0  0
  1 11  1  0  0  0
  2  8  2  0  0  0
  2 15  1  0  0  0
  2 17  1  0  0  0
  3  9  2  0  0  0
  3 14  1  0  0  0
  3 16  1  0  0  0
  4 13  1  0  0  0
  4 18  1  0  0  0
  4 19  1  0  0  0
  5  7  2  0  0  0
  5 10  1  0  0  0
  6 13  1  0  0  0
  6  7  1  0  0  0
  6 12  1  0  0  0
  7 20  1  0  0  0
 10 12  2  0  0  0
 10 21  1  0  0  0
 11 22  1  0  0  0
 12 23  1  0  0  0
 13 24  1  0  0  0
 13 25  1  0  0  0
 14 26  1  0  0  0
 15 27  1  0  0  0
 16 28  1  0  0  0
 17 29  1  0  0  0
M  END
> <s_m_entry_id>
3089

> <s_m_entry_name>
dock_pv.104

> <s_m_Source_Path>
/home/csk/Desktop/cluster/DUD-E-result/fpps

> <s_m_Source_File>
dock_pv.maegz

> <i_m_Source_File_Index>
104

> <chembl_id>
CHEMBL101647

> <chembl_pref_name>
None

> <i_lp_mmshare_version>
53161

> <r_lp_tautomer_probability>
1

> <s_lp_Force_Field>
OPLS_2005

> <r_lp_Energy>
-3.632983

> <b_lp_Chiralities_Consistent>
1

> <s_lp_Variant>
CHEMBL1782_lig39-1

> <s_i_glide_gridfile>
glide-grid_1zw5

> <i_i_glide_lignum>
43

> <i_i_glide_rotatable_bonds>
10

> <r_i_docking_score>
-8.18218347928392

> <r_i_glide_ligand_efficiency>
-0.481304910546113

> <r_i_glide_ligand_efficiency_sa>
-1.23757045481186

> <r_i_glide_ligand_efficiency_ln>
-2.13454946147759

> <r_i_glide_gscore>
-8.18218347928392

> <r_i_glide_lipo>
0

> <r_i_glide_hbond>
0

> <r_i_glide_metal>
-2.3

> <r_i_glide_rewards>
-1.45829863636364

> <r_i_glide_evdw>
-20.4005317687988

> <r_i_glide_ecoul>
-49.8868446350098

> <r_i_glide_erotb>
0.887085752104285

> <r_i_glide_esite>
-0.290944006584633

> <r_i_glide_emodel>
-122.123172707302

> <r_i_glide_energy>
-70.2873764038086

> <r_i_glide_einternal>
23.2495346069336

> <i_i_glide_confnum>
37

> <i_i_glide_posenum>
388

> <r_i_glide_eff_state_penalty>
0

> <s_user_duplicate_titles>
CHEMBL1782_lig39

> <i_f3d_flags>
0

> <s_m_subgroup_title>
dock_pv

> <s_m_subgroupid>
dock_pv

> <b_m_subgroup_collapsed>
1

$$$$
CHEMBL1782_lig70
                    3D
 Schrodinger Suite 2021-1.
 29 29  0  0  1  0            999 V2000
   16.5856   35.4318  -10.4566 C   0  0  0  0  0  0
   16.5774   36.5380   -8.9202 P   0  0  0  0  0  0
   18.2862   34.8385  -11.0003 P   0  0  0  0  0  0
   15.6308   34.2145  -10.2435 C   0  0  0  0  0  0
   14.1160   30.1061   -8.5177 N   0  0  0  0  0  0
   13.6148   32.2696   -8.6906 N   0  0  0  0  0  0
   13.1574   30.9950   -8.4939 C   0  0  0  0  0  0
   14.9765   32.1791   -8.8203 C   0  0  0  0  0  0
   18.5921   33.3800  -10.7650 O   0  0  0  0  0  0
   17.6805   36.1800   -7.9241 O   0  0  0  0  0  0
   15.2141   30.8117   -8.7193 C   0  0  0  0  0  0
   16.1010   36.1800  -11.5650 O   0  0  0  0  0  0
   16.5033   38.1619   -9.4817 O   0  0  0  0  0  0
   18.3879   35.3800  -12.6093 O   0  0  0  0  0  0
   14.9799   36.3467   -8.3294 O   0  0  0  0  0  0
   19.3098   35.8554  -10.1093 O   0  0  0  0  0  0
   15.8908   33.3713   -8.9667 C   0  0  0  0  0  0
   14.5993   34.5654  -10.2023 H   0  0  0  0  0  0
   15.6719   33.5612  -11.1168 H   0  0  0  0  0  0
   13.0562   33.1101   -8.7204 H   0  0  0  0  0  0
   12.1028   30.7973   -8.3649 H   0  0  0  0  0  0
   16.1744   30.3236   -8.7651 H   0  0  0  0  0  0
   16.8504   36.3052  -12.1742 H   0  0  0  0  0  0
   17.2254   38.7276   -9.8606 H   0  0  0  0  0  0
   18.7958   36.2624  -12.7990 H   0  0  0  0  0  0
   14.2207   36.1800   -8.9335 H   0  0  0  0  0  0
   19.7010   36.6620  -10.5185 H   0  0  0  0  0  0
   16.9176   33.0210   -8.9405 H   0  0  0  0  0  0
   15.7816   33.9803   -8.0706 H   0  0  0  0  0  0
  1  2  1  0  0  0
  1  3  1  0  0  0
  1  4  1  0  0  0
  1 12  1  0  0  0
  2 10  2  0  0  0
  2 13  1  0  0  0
  2 15  1  0  0  0
  3  9  2  0  0  0
  3 14  1  0  0  0
  3 16  1  0  0  0
  4 17  1  0  0  0
  4 18  1  0  0  0
  4 19  1  0  0  0
  5  7  2  0  0  0
  5 11  1  0  0  0
  6  8  1  0  0  0
  6 20  1  0  0  0
  6  7  1  0  0  0
  7 21  1  0  0  0
  8 11  2  0  0  0
  8 17  1  0  0  0
 11 22  1  0  0  0
 12 23  1  0  0  0
 13 24  1  0  0  0
 14 25  1  0  0  0
 15 26  1  0  0  0
 16 27  1  0  0  0
 17 28  1  0  0  0
 17 29  1  0  0  0
M  END
> <s_m_entry_id>
3090

> <s_m_entry_name>
dock_pv.105

> <s_m_Source_Path>
/home/csk/Desktop/cluster/DUD-E-result/fpps

> <s_m_Source_File>
dock_pv.maegz

> <i_m_Source_File_Index>
105

> <chembl_id>
CHEMBL98211

> <chembl_pref_name>
None

> <i_lp_mmshare_version>
53161

> <r_lp_tautomer_probability>
0.499999999999999

> <s_lp_Force_Field>
OPLS_2005

> <r_lp_Energy>
-6.179231

> <b_lp_Chiralities_Consistent>
1

> <s_lp_Variant>
CHEMBL1782_lig70-2

> <s_i_glide_gridfile>
glide-grid_1zw5

> <i_i_glide_lignum>
78

> <i_i_glide_rotatable_bonds>
10

> <r_i_docking_score>
-8.1810417258806

> <r_i_glide_ligand_efficiency>
-0.481237748581212

> <r_i_glide_ligand_efficiency_sa>
-1.23739776248808

> <r_i_glide_ligand_efficiency_ln>
-2.13425160344027

> <r_i_glide_gscore>
-8.1810417258806

> <r_i_glide_lipo>
0

> <r_i_glide_hbond>
0

> <r_i_glide_metal>
-2.3

> <r_i_glide_rewards>
-1.45829863636364

> <r_i_glide_evdw>
-20.4167900085449

> <r_i_glide_ecoul>
-53.0943145751953

> <r_i_glide_erotb>
0.887085752104285

> <r_i_glide_esite>
-0.288989341194007

> <r_i_glide_emodel>
-127.663512988841

> <r_i_glide_energy>
-73.5111045837402

> <r_i_glide_einternal>
22.9251194000244

> <i_i_glide_confnum>
9

> <i_i_glide_posenum>
364

> <r_i_glide_eff_state_penalty>
0

> <s_user_duplicate_titles>
CHEMBL1782_lig70,CHEMBL1782_lig70

> <i_f3d_flags>
0

> <s_m_subgroup_title>
dock_pv

> <s_m_subgroupid>
dock_pv

> <b_m_subgroup_collapsed>
1

$$$$
CHEMBL1782_lig238
                    3D
 Schrodinger Suite 2021-1.
 49 52  0  0  1  0            999 V2000
   18.2345   35.7800  -10.9213 O   0  0  0  0  0  0
   16.6404   35.9642  -10.7442 P   0  0  0  0  0  0
   16.1010   35.0539  -11.9648 O   0  0  0  0  0  0
    8.1776   36.4350   -6.1599 C   0  0  0  0  0  0
    9.3776   35.5957   -6.5130 C   0  0  0  0  0  0
    9.7010   35.3800   -7.8514 C   0  0  0  0  0  0
   10.7634   34.5542   -8.1773 C   0  0  0  0  0  0
   10.1407   35.0251   -5.4943 C   0  0  0  0  0  0
   11.2217   34.2152   -5.8212 C   0  0  0  0  0  0
   11.5157   33.9712   -7.1610 C   0  0  0  0  0  0
   12.6451   33.1304   -7.5761 C   0  0  0  0  0  0
   12.3548   31.4594   -7.9650 S   0  0  0  0  0  0
   13.9292   33.5411   -7.8248 C   0  0  0  0  0  0
   14.7068   32.5522   -8.5026 C   0  0  0  0  0  0
   13.9932   31.3167   -8.5459 C   0  0  0  0  0  0
   14.4645   30.1790   -9.0414 N   0  0  0  0  0  0
   15.7010   30.2815   -9.5650 C   0  0  0  0  0  0
   16.4688   31.3931   -9.6772 N   0  0  0  0  0  0
   15.9786   32.5424   -9.1542 C   0  0  0  0  0  0
   16.7950   33.6612   -9.4212 N   0  0  0  0  0  0
   16.2640   35.0065   -9.2427 C   0  0  1  0  0  0
   16.6378   35.6783   -7.8876 C   0  0  0  0  0  0
   17.6254   36.8728   -7.8607 C   0  0  0  0  0  0
   18.1029   37.1606   -6.4236 C   0  0  0  0  0  0
   19.5550   36.9801   -6.8730 C   0  0  0  0  0  0
   19.0890   36.7183   -8.3075 C   0  0  0  0  0  0
   16.1011   37.3521  -10.7650 O   0  0  0  0  0  0
   18.6266   36.6223  -11.3117 H   0  0  0  0  0  0
   16.3626   35.3800  -12.8515 H   0  0  0  0  0  0
    7.6566   36.7978   -7.0459 H   0  0  0  0  0  0
    7.4888   35.8311   -5.5649 H   0  0  0  0  0  0
    8.5022   37.2907   -5.5699 H   0  0  0  0  0  0
    9.1133   35.8187   -8.6440 H   0  0  0  0  0  0
   11.0046   34.3743   -9.2167 H   0  0  0  0  0  0
    9.8961   35.2027   -4.4573 H   0  0  0  0  0  0
   11.8211   33.7803   -5.0407 H   0  0  0  0  0  0
   14.2225   34.5506   -7.6118 H   0  0  0  0  0  0
   16.1010   29.3629   -9.9650 H   0  0  0  0  0  0
   17.3010   33.5662  -10.2918 H   0  0  0  0  0  0
   15.1823   34.9907   -9.3469 H   0  0  0  0  0  0
   16.9010   34.9147   -7.1654 H   0  0  0  0  0  0
   15.7164   36.0915   -7.4751 H   0  0  0  0  0  0
   17.1372   37.7614   -8.2730 H   0  0  0  0  0  0
   17.8102   36.4415   -5.6557 H   0  0  0  0  0  0
   17.8979   38.1800   -6.0878 H   0  0  0  0  0  0
   20.1010   36.1800   -6.3763 H   0  0  0  0  0  0
   20.1357   37.8994   -6.7655 H   0  0  0  0  0  0
   19.4005   37.5216   -8.9821 H   0  0  0  0  0  0
   19.3764   35.7800   -8.7670 H   0  0  0  0  0  0
  1  2  1  0  0  0
  1 28  1  0  0  0
  2  3  1  0  0  0
  2 21  1  0  0  0
  2 27  2  0  0  0
  3 29  1  0  0  0
  4  5  1  0  0  0
  4 30  1  0  0  0
  4 31  1  0  0  0
  4 32  1  0  0  0
  5  6  1  0  0  0
  5  8  2  0  0  0
  6  7  2  0  0  0
  6 33  1  0  0  0
  7 10  1  0  0  0
  7 34  1  0  0  0
  8  9  1  0  0  0
  8 35  1  0  0  0
  9 10  2  0  0  0
  9 36  1  0  0  0
 10 11  1  0  0  0
 11 12  1  0  0  0
 11 13  2  0  0  0
 12 15  1  0  0  0
 13 14  1  0  0  0
 13 37  1  0  0  0
 14 15  1  0  0  0
 14 19  2  0  0  0
 15 16  2  0  0  0
 16 17  1  0  0  0
 17 18  2  0  0  0
 17 38  1  0  0  0
 18 19  1  0  0  0
 19 20  1  0  0  0
 20 21  1  0  0  0
 20 39  1  0  0  0
 21 22  1  0  0  0
 21 40  1  0  0  0
 22 23  1  0  0  0
 22 41  1  0  0  0
 22 42  1  0  0  0
 23 24  1  0  0  0
 23 26  1  0  0  0
 23 43  1  0  0  0
 24 25  1  0  0  0
 24 44  1  0  0  0
 24 45  1  0  0  0
 25 26  1  0  0  0
 25 46  1  0  0  0
 25 47  1  0  0  0
 26 48  1  0  0  0
 26 49  1  0  0  0
M  END
> <s_m_entry_id>
3091

> <s_m_entry_name>
dock_pv.106

> <s_m_Source_Path>
/home/csk/Desktop/cluster/DUD-E-result/fpps

> <s_m_Source_File>
dock_pv.maegz

> <i_m_Source_File_Index>
106

> <chembl_id>
CHEMBL4082744

> <chembl_pref_name>
None

> <i_lp_mmshare_version>
53161

> <r_lp_tautomer_probability>
1

> <s_lp_Force_Field>
OPLS_2005

> <r_lp_Energy>
10.793091

> <b_lp_Chiralities_Consistent>
1

> <s_lp_Variant>
CHEMBL1782_lig238-2

> <s_i_glide_gridfile>
glide-grid_1zw5

> <i_i_glide_lignum>
273

> <i_i_glide_rotatable_bonds>
8

> <r_i_docking_score>
-8.17607210988997

> <r_i_glide_ligand_efficiency>
-0.30281748555148

> <r_i_glide_ligand_efficiency_sa>
-0.908452455656404

> <r_i_glide_ligand_efficiency_ln>
-1.903254794099

> <r_i_glide_gscore>
-8.17607210988997

> <r_i_glide_lipo>
-0.159523079032442

> <r_i_glide_hbond>
0

> <r_i_glide_metal>
-2.3

> <r_i_glide_rewards>
-0.658390636363636

> <r_i_glide_evdw>
-33.0431022644043

> <r_i_glide_ecoul>
-25.0048007965088

> <r_i_glide_erotb>
0.603138558653575

> <r_i_glide_esite>
-0.258421720450931

> <r_i_glide_emodel>
-68.447829860597

> <r_i_glide_energy>
-58.0479030609131

> <r_i_glide_einternal>
21.7987670898438

> <i_i_glide_confnum>
113

> <i_i_glide_posenum>
170

> <r_i_glide_eff_state_penalty>
0

> <s_user_duplicate_titles>
CHEMBL1782_lig238

> <i_f3d_flags>
0

> <s_m_subgroup_title>
dock_pv

> <s_m_subgroupid>
dock_pv

> <b_m_subgroup_collapsed>
1

$$$$
CHEMBL1782_lig29
                    3D
 Schrodinger Suite 2021-1.
 32 32  0  0  1  0            999 V2000
   17.8036   37.8996   -8.3414 C   0  0  0  0  0  0
   18.1935   37.3800   -6.5972 P   0  0  0  0  0  0
   16.0049   38.1800   -8.8432 P   0  0  0  0  0  0
   17.9933   35.6441   -9.5914 C   0  0  0  0  0  0
   18.4120   36.9040   -9.2346 N   0  0  0  0  0  0
   16.7279   34.8060   -8.7660 S   0  0  0  0  0  0
   18.5172   34.9604  -10.5672 N   0  0  0  0  0  0
   16.8397   33.4884   -9.8862 C   0  0  0  0  0  0
   17.9086   33.8048  -10.7357 C   0  0  0  0  0  0
   17.2599   36.3430   -6.0460 O   0  0  0  0  0  0
   15.0054   37.2197   -8.2551 O   0  0  0  0  0  0
   19.7010   36.5801   -6.7650 O   0  0  0  0  0  0
   15.7010   39.7826   -8.3650 O   0  0  0  0  0  0
   18.3256   38.8317   -5.7093 O   0  0  0  0  0  0
   16.1010   38.1764  -10.5949 O   0  0  0  0  0  0
   15.8681   32.3158   -9.8769 C   0  0  0  0  0  0
   14.8885   32.2867   -8.6832 C   0  0  0  0  0  0
   16.6246   30.9977   -9.9650 C   0  0  0  0  0  0
   18.3763   38.8038   -8.5411 H   0  0  0  0  0  0
   19.0517   37.3732   -9.8758 H   0  0  0  0  0  0
   18.2445   33.2034  -11.5650 H   0  0  0  0  0  0
   20.4948   36.9800   -6.3192 H   0  0  0  0  0  0
   16.3775   40.4627   -8.5908 H   0  0  0  0  0  0
   18.4723   39.7196   -6.0950 H   0  0  0  0  0  0
   16.9727   38.3992  -11.0125 H   0  0  0  0  0  0
   15.2460   32.4047  -10.7650 H   0  0  0  0  0  0
   14.2506   33.1714   -8.6639 H   0  0  0  0  0  0
   15.4156   32.2274   -7.7295 H   0  0  0  0  0  0
   14.2261   31.4212   -8.7384 H   0  0  0  0  0  0
   17.3256   30.9800  -10.7783 H   0  0  0  0  0  0
   17.3010   30.8725   -9.1588 H   0  0  0  0  0  0
   15.9721   30.1228   -9.9650 H   0  0  0  0  0  0
  1  2  1  0  0  0
  1  3  1  0  0  0
  1  5  1  0  0  0
  1 19  1  0  0  0
  2 10  2  0  0  0
  2 12  1  0  0  0
  2 14  1  0  0  0
  3 11  2  0  0  0
  3 13  1  0  0  0
  3 15  1  0  0  0
  4  5  1  0  0  0
  4  6  1  0  0  0
  4  7  2  0  0  0
  5 20  1  0  0  0
  6  8  1  0  0  0
  7  9  1  0  0  0
  8 16  1  0  0  0
  8  9  2  0  0  0
  9 21  1  0  0  0
 12 22  1  0  0  0
 13 23  1  0  0  0
 14 24  1  0  0  0
 15 25  1  0  0  0
 16 17  1  0  0  0
 16 18  1  0  0  0
 16 26  1  0  0  0
 17 27  1  0  0  0
 17 28  1  0  0  0
 17 29  1  0  0  0
 18 30  1  0  0  0
 18 31  1  0  0  0
 18 32  1  0  0  0
M  END
> <s_m_entry_id>
3094

> <s_m_entry_name>
dock_pv.109

> <s_m_Source_Path>
/home/csk/Desktop/cluster/DUD-E-result/fpps

> <s_m_Source_File>
dock_pv.maegz

> <i_m_Source_File_Index>
109

> <chembl_id>
CHEMBL98080

> <chembl_pref_name>
None

> <i_lp_mmshare_version>
53161

> <r_lp_tautomer_probability>
1

> <s_lp_Force_Field>
OPLS_2005

> <r_lp_Energy>
-18.009543

> <b_lp_Chiralities_Consistent>
1

> <s_lp_Variant>
CHEMBL1782_lig29-1

> <s_i_glide_gridfile>
glide-grid_1zw5

> <i_i_glide_lignum>
33

> <i_i_glide_rotatable_bonds>
9

> <r_i_docking_score>
-8.14342990065708

> <r_i_glide_ligand_efficiency>
-0.452412772258727

> <r_i_glide_ligand_efficiency_sa>
-1.18565687838492

> <r_i_glide_ligand_efficiency_ln>
-2.09322666506835

> <r_i_glide_gscore>
-8.14342990065708

> <r_i_glide_lipo>
0

> <r_i_glide_hbond>
-0.0828623440016316

> <r_i_glide_metal>
-2.3

> <r_i_glide_rewards>
-1.40311786363636

> <r_i_glide_evdw>
-16.0415573120117

> <r_i_glide_ecoul>
-45.7465629577637

> <r_i_glide_erotb>
0.744628172581496

> <r_i_glide_esite>
-0.3

> <r_i_glide_emodel>
-108.3605432102

> <r_i_glide_energy>
-61.7881202697754

> <r_i_glide_einternal>
16.8440341949463

> <i_i_glide_confnum>
9

> <i_i_glide_posenum>
323

> <r_i_glide_eff_state_penalty>
0

> <s_user_duplicate_titles>
CHEMBL1782_lig29

> <i_f3d_flags>
0

> <s_m_subgroup_title>
dock_pv

> <s_m_subgroupid>
dock_pv

> <b_m_subgroup_collapsed>
1

$$$$
CHEMBL1782_lig120
                    3D
 Schrodinger Suite 2021-1.
 27 27  0  0  1  0            999 V2000
   17.0907   35.2793   -9.7789 C   0  0  0  0  0  0
   16.7665   37.1001   -9.5321 P   0  0  0  0  0  0
   18.2982   34.8896  -11.1650 P   0  0  0  0  0  0
   15.7864   34.6636  -10.0840 N   0  0  1  0  0  0
   15.6517   37.4465   -8.5768 O   0  0  0  0  0  0
   17.8196   34.9800  -12.5913 O   0  0  0  0  0  0
   19.6727   35.7800  -10.7650 O   0  0  0  0  0  0
   18.9010   33.3750  -10.7650 O   0  0  0  0  0  0
   18.3039   37.6235   -9.0226 O   0  0  0  0  0  0
   16.5010   37.5684  -11.1650 O   0  0  0  0  0  0
   15.6428   33.2596   -9.7257 C   0  0  0  0  0  0
   14.6094   31.7579   -8.6520 C   0  0  0  0  0  0
   15.5666   32.8847   -8.2427 C   0  0  0  0  0  0
   14.2302   32.6675   -9.8254 C   0  0  0  0  0  0
   17.4783   34.8774   -8.8333 H   0  0  0  0  0  0
   15.0202   35.1878   -9.6636 H   0  0  0  0  0  0
   19.6772   36.7490  -10.9732 H   0  0  0  0  0  0
   19.2427   32.8308  -11.5338 H   0  0  0  0  0  0
   18.4980   38.5808   -8.9194 H   0  0  0  0  0  0
   17.2791   37.8968  -11.7064 H   0  0  0  0  0  0
   16.3506   32.6608  -10.3032 H   0  0  0  0  0  0
   15.1033   30.8278   -8.9455 H   0  0  0  0  0  0
   13.8075   31.5299   -7.9479 H   0  0  0  0  0  0
   16.5010   32.5800   -7.7916 H   0  0  0  0  0  0
   15.0898   33.6348   -7.6066 H   0  0  0  0  0  0
   13.4251   33.3633   -9.5718 H   0  0  0  0  0  0
   13.9776   32.1800  -10.7650 H   0  0  0  0  0  0
  1  2  1  0  0  0
  1  3  1  0  0  0
  1  4  1  0  0  0
  1 15  1  0  0  0
  2  5  2  0  0  0
  2  9  1  0  0  0
  2 10  1  0  0  0
  3  6  2  0  0  0
  3  7  1  0  0  0
  3  8  1  0  0  0
  4 11  1  0  0  0
  4 16  1  0  0  0
  7 17  1  0  0  0
  8 18  1  0  0  0
  9 19  1  0  0  0
 10 20  1  0  0  0
 11 13  1  0  0  0
 11 14  1  0  0  0
 11 21  1  0  0  0
 12 14  1  0  0  0
 12 13  1  0  0  0
 12 22  1  0  0  0
 12 23  1  0  0  0
 13 24  1  0  0  0
 13 25  1  0  0  0
 14 26  1  0  0  0
 14 27  1  0  0  0
M  END
> <s_m_entry_id>
3095

> <s_m_entry_name>
dock_pv.110

> <s_m_Source_Path>
/home/csk/Desktop/cluster/DUD-E-result/fpps

> <s_m_Source_File>
dock_pv.maegz

> <i_m_Source_File_Index>
110

> <chembl_id>
CHEMBL54926

> <chembl_pref_name>
(CYCLOBUTYLAMINO)METHYLENEDIPHOSPHONIC ACID

> <i_lp_mmshare_version>
53161

> <r_lp_tautomer_probability>
1

> <s_lp_Force_Field>
OPLS_2005

> <r_lp_Energy>
7.832712

> <b_lp_Chiralities_Consistent>
1

> <s_lp_Variant>
CHEMBL1782_lig120-1

> <s_i_glide_gridfile>
glide-grid_1zw5

> <i_i_glide_lignum>
132

> <i_i_glide_rotatable_bonds>
8

> <r_i_docking_score>
-8.13902112401927

> <r_i_glide_ligand_efficiency>
-0.581358651715662

> <r_i_glide_ligand_efficiency_sa>
-1.40115705591127

> <r_i_glide_ligand_efficiency_ln>
-2.23657403190177

> <r_i_glide_gscore>
-8.13902112401927

> <r_i_glide_lipo>
0

> <r_i_glide_hbond>
-0.0170987579643249

> <r_i_glide_metal>
-2.3

> <r_i_glide_rewards>
-1.7379045

> <r_i_glide_evdw>
-15.0586385726929

> <r_i_glide_ecoul>
-39.2440376281738

> <r_i_glide_erotb>
0.868914062579694

> <r_i_glide_esite>
-0.2

> <r_i_glide_emodel>
-103.276275096859

> <r_i_glide_energy>
-54.3026762008667

> <r_i_glide_einternal>
17.9243087768555

> <i_i_glide_confnum>
56

> <i_i_glide_posenum>
169

> <r_i_glide_eff_state_penalty>
0

> <s_user_duplicate_titles>
CHEMBL1782_lig120,84210

> <i_f3d_flags>
0

> <s_m_subgroup_title>
dock_pv

> <s_m_subgroupid>
dock_pv

> <b_m_subgroup_collapsed>
1

$$$$
CHEMBL1782_lig86
                    3D
 Schrodinger Suite 2021-1.
 31 31  0  0  1  0            999 V2000
   14.7524   31.5447   -7.1716 C   0  0  0  0  0  0
   15.3011   30.5587   -7.9926 C   0  0  0  0  0  0
   15.7012   30.8022   -9.2657 N   0  0  0  0  0  0
   15.5518   32.0605   -9.7466 C   0  0  0  0  0  0
   15.0093   33.1089   -9.0004 C   0  0  0  0  0  0
   14.6032   32.8343   -7.6878 C   0  0  0  0  0  0
   14.7641   34.4739   -9.6317 C   0  0  0  0  0  0
   15.4996   35.6778   -8.9683 C   0  0  0  0  0  0
   16.7629   36.3053   -9.6632 C   0  0  0  0  0  0
   16.4196   37.1576  -10.7649 O   0  0  0  0  0  0
   17.5450   37.3799   -8.3252 P   0  0  0  0  0  0
   17.8568   34.9669  -10.3839 P   0  0  0  0  0  0
   18.1010   33.7800   -9.4785 O   0  0  0  0  0  0
   17.1374   34.5802  -11.8808 O   0  0  0  0  0  0
   19.2916   35.7800  -10.7650 O   0  0  0  0  0  0
   18.7431   38.1886   -9.1697 O   0  0  0  0  0  0
   18.1010   36.5800   -7.1632 O   0  0  0  0  0  0
   16.3152   38.5022   -7.9535 O   0  0  0  0  0  0
   14.4349   31.3067   -6.1674 H   0  0  0  0  0  0
   15.4256   29.5456   -7.6372 H   0  0  0  0  0  0
   15.8641   32.2148  -10.7649 H   0  0  0  0  0  0
   14.1500   33.6027   -7.0799 H   0  0  0  0  0  0
   13.6830   34.5801   -9.5307 H   0  0  0  0  0  0
   14.9310   34.4475  -10.7066 H   0  0  0  0  0  0
   15.7773   35.3510   -7.9652 H   0  0  0  0  0  0
   14.7805   36.4724   -8.7646 H   0  0  0  0  0  0
   17.2287   37.6334  -11.0375 H   0  0  0  0  0  0
   16.6243   35.2322  -12.3962 H   0  0  0  0  0  0
   19.3010   36.7209  -11.1039 H   0  0  0  0  0  0
   18.6163   39.1129   -9.4918 H   0  0  0  0  0  0
   16.4325   39.4541   -8.1585 H   0  0  0  0  0  0
  1  6  1  0  0  0
  1  2  2  0  0  0
  1 19  1  0  0  0
  2  3  1  0  0  0
  2 20  1  0  0  0
  3  4  2  0  0  0
  4  5  1  0  0  0
  4 21  1  0  0  0
  5  6  2  0  0  0
  5  7  1  0  0  0
  6 22  1  0  0  0
  7  8  1  0  0  0
  7 23  1  0  0  0
  7 24  1  0  0  0
  8  9  1  0  0  0
  8 25  1  0  0  0
  8 26  1  0  0  0
  9 10  1  0  0  0
  9 11  1  0  0  0
  9 12  1  0  0  0
 10 27  1  0  0  0
 11 16  1  0  0  0
 11 17  2  0  0  0
 11 18  1  0  0  0
 12 13  2  0  0  0
 12 14  1  0  0  0
 12 15  1  0  0  0
 14 28  1  0  0  0
 15 29  1  0  0  0
 16 30  1  0  0  0
 18 31  1  0  0  0
M  END
> <s_m_entry_id>
3096

> <s_m_entry_name>
dock_pv.111

> <s_m_Source_Path>
/home/csk/Desktop/cluster/DUD-E-result/fpps

> <s_m_Source_File>
dock_pv.maegz

> <i_m_Source_File_Index>
111

> <chembl_id>
CHEMBL293522

> <chembl_pref_name>
None

> <i_lp_mmshare_version>
53161

> <r_lp_tautomer_probability>
1

> <s_lp_Force_Field>
OPLS_2005

> <r_lp_Energy>
-6.242026

> <b_lp_Chiralities_Consistent>
1

> <s_lp_Variant>
CHEMBL1782_lig86-1

> <s_i_glide_gridfile>
glide-grid_1zw5

> <i_i_glide_lignum>
94

> <i_i_glide_rotatable_bonds>
10

> <r_i_docking_score>
-8.13691661722137

> <r_i_glide_ligand_efficiency>
-0.452050923178965

> <r_i_glide_ligand_efficiency_sa>
-1.18470856552404

> <r_i_glide_ligand_efficiency_ln>
-2.09155245914639

> <r_i_glide_gscore>
-8.13691661722137

> <r_i_glide_lipo>
-0.134787543836186

> <r_i_glide_hbond>
0

> <r_i_glide_metal>
-2.3

> <r_i_glide_rewards>
-1.53314427272727

> <r_i_glide_evdw>
-15.9891090393066

> <r_i_glide_ecoul>
-55.6211051940918

> <r_i_glide_erotb>
0.83047065130742

> <r_i_glide_esite>
-0.2

> <r_i_glide_emodel>
-124.34036325406

> <r_i_glide_energy>
-71.6102142333984

> <r_i_glide_einternal>
21.6837272644043

> <i_i_glide_confnum>
13

> <i_i_glide_posenum>
3

> <r_i_glide_eff_state_penalty>
0

> <s_user_duplicate_titles>
CHEMBL1782_lig86,84310

> <i_f3d_flags>
0

> <s_m_subgroup_title>
dock_pv

> <s_m_subgroupid>
dock_pv

> <b_m_subgroup_collapsed>
1

$$$$
CHEMBL1782_lig60
                    3D
 Schrodinger Suite 2021-1.
 29 29  0  0  1  0            999 V2000
   16.3339   34.3591   -9.4274 C   0  0  0  0  0  0
   17.0677   35.5165  -10.6983 P   0  0  0  0  0  0
   16.0237   35.2675   -7.8097 P   0  0  0  0  0  0
   15.0749   33.6571  -10.0118 C   0  0  0  0  0  0
   14.5805   32.4135   -9.2828 C   0  0  0  0  0  0
   13.4256   30.9227   -8.1709 N   0  0  0  0  0  0
   13.4167   32.2458   -8.5273 C   0  0  0  0  0  0
   15.2629   31.2767   -9.3690 N   0  0  0  0  0  0
   14.5660   30.3918   -8.7034 C   0  0  0  0  0  0
   17.3010   35.7800   -7.1650 O   0  0  0  0  0  0
   16.1010   36.5800  -11.1654 O   0  0  0  0  0  0
   17.3372   33.3800   -9.1650 O   0  0  0  0  0  0
   14.9010   36.4849   -8.2303 O   0  0  0  0  0  0
   18.4523   36.1003   -9.8794 O   0  0  0  0  0  0
   15.1790   34.1364   -6.8505 O   0  0  0  0  0  0
   17.6478   34.4790  -11.9172 O   0  0  0  0  0  0
   12.2923   33.1777   -8.1406 C   0  0  0  0  0  0
   14.2667   34.3844  -10.0693 H   0  0  0  0  0  0
   15.2689   33.3800  -11.0492 H   0  0  0  0  0  0
   12.7186   30.4300   -7.6387 H   0  0  0  0  0  0
   14.7914   29.3415   -8.5772 H   0  0  0  0  0  0
   16.9010   32.6901   -8.6410 H   0  0  0  0  0  0
   14.3522   36.5039   -9.0495 H   0  0  0  0  0  0
   18.8918   36.9136  -10.2277 H   0  0  0  0  0  0
   14.7745   33.3188   -7.2066 H   0  0  0  0  0  0
   17.9756   34.8437  -12.7650 H   0  0  0  0  0  0
   12.4968   34.2109   -8.4230 H   0  0  0  0  0  0
   11.3590   32.8946   -8.6287 H   0  0  0  0  0  0
   12.1096   33.1693   -7.0658 H   0  0  0  0  0  0
  1  2  1  0  0  0
  1  3  1  0  0  0
  1  4  1  0  0  0
  1 12  1  0  0  0
  2 11  2  0  0  0
  2 14  1  0  0  0
  2 16  1  0  0  0
  3 10  2  0  0  0
  3 13  1  0  0  0
  3 15  1  0  0  0
  4  5  1  0  0  0
  4 18  1  0  0  0
  4 19  1  0  0  0
  5  7  2  0  0  0
  5  8  1  0  0  0
  6  7  1  0  0  0
  6  9  1  0  0  0
  6 20  1  0  0  0
  7 17  1  0  0  0
  8  9  2  0  0  0
  9 21  1  0  0  0
 12 22  1  0  0  0
 13 23  1  0  0  0
 14 24  1  0  0  0
 15 25  1  0  0  0
 16 26  1  0  0  0
 17 27  1  0  0  0
 17 28  1  0  0  0
 17 29  1  0  0  0
M  END
> <s_m_entry_id>
3097

> <s_m_entry_name>
dock_pv.112

> <s_m_Source_Path>
/home/csk/Desktop/cluster/DUD-E-result/fpps

> <s_m_Source_File>
dock_pv.maegz

> <i_m_Source_File_Index>
112

> <chembl_id>
CHEMBL317646

> <chembl_pref_name>
None

> <i_lp_mmshare_version>
53161

> <r_lp_tautomer_probability>
0.499999999999999

> <s_lp_Force_Field>
OPLS_2005

> <r_lp_Energy>
-5.351179

> <b_lp_Chiralities_Consistent>
1

> <s_lp_Variant>
CHEMBL1782_lig60-1

> <s_i_glide_gridfile>
glide-grid_1zw5

> <i_i_glide_lignum>
65

> <i_i_glide_rotatable_bonds>
9

> <r_i_docking_score>
-8.10790723243093

> <r_i_glide_ligand_efficiency>
-0.476935719554761

> <r_i_glide_ligand_efficiency_sa>
-1.22633603446034

> <r_i_glide_ligand_efficiency_ln>
-2.11517244272434

> <r_i_glide_gscore>
-8.10790723243093

> <r_i_glide_lipo>
0

> <r_i_glide_hbond>
-0.0248198004894645

> <r_i_glide_metal>
-2.3

> <r_i_glide_rewards>
-1.45829863636364

> <r_i_glide_evdw>
-18.3629035949707

> <r_i_glide_ecoul>
-49.8687591552734

> <r_i_glide_erotb>
0.887085752104285

> <r_i_glide_esite>
-0.293729367933585

> <r_i_glide_emodel>
-119.086010267848

> <r_i_glide_energy>
-68.2316627502441

> <r_i_glide_einternal>
16.9720268249512

> <i_i_glide_confnum>
3

> <i_i_glide_posenum>
332

> <r_i_glide_eff_state_penalty>
0

> <s_user_duplicate_titles>
CHEMBL1782_lig60,CHEMBL1782_lig60

> <i_f3d_flags>
0

> <s_m_subgroup_title>
dock_pv

> <s_m_subgroupid>
dock_pv

> <b_m_subgroup_collapsed>
1

$$$$
CHEMBL1782_lig148
                    3D
 Schrodinger Suite 2021-1.
 27 27  0  0  1  0            999 V2000
   15.7408   35.3647   -9.3242 C   0  0  0  0  0  0
   16.9053   34.1130  -10.0391 P   0  0  0  0  0  0
   16.3563   37.1268   -9.1650 P   0  0  0  0  0  0
   15.2021   34.9070   -7.9379 C   0  0  0  0  0  0
   15.9277   32.7568  -10.3650 O   0  0  0  0  0  0
   18.1010   33.7800   -9.1654 O   0  0  0  0  0  0
   15.7010   37.9377   -8.0751 O   0  0  0  0  0  0
   13.4168   33.4389   -8.7558 N   0  0  0  0  0  0
   14.4735   33.5669   -7.9106 C   0  0  0  0  0  0
   17.3598   34.7773  -11.5454 O   0  0  0  0  0  0
   18.0327   36.8457   -8.8788 O   0  0  0  0  0  0
   16.1290   37.7800  -10.7650 O   0  0  0  0  0  0
   12.7485   32.2571   -8.7650 C   0  0  0  0  0  0
   14.8793   32.5342   -7.0579 C   0  0  0  0  0  0
   13.1088   31.1734   -7.9650 C   0  0  0  0  0  0
   14.1899   31.3206   -7.0963 C   0  0  0  0  0  0
   14.9010   35.3627  -10.0018 H   0  0  0  0  0  0
   16.0153   34.8925   -7.2113 H   0  0  0  0  0  0
   14.4877   35.6447   -7.5694 H   0  0  0  0  0  0
   15.3011   32.3752   -9.7144 H   0  0  0  0  0  0
   17.8189   35.6356  -11.6681 H   0  0  0  0  0  0
   18.7089   37.3914   -9.3403 H   0  0  0  0  0  0
   16.9010   38.2449  -11.1920 H   0  0  0  0  0  0
   11.9171   32.1802   -9.4516 H   0  0  0  0  0  0
   15.7010   32.6574   -6.3713 H   0  0  0  0  0  0
   12.5581   30.2435   -8.0104 H   0  0  0  0  0  0
   14.4827   30.5029   -6.4530 H   0  0  0  0  0  0
  1  2  1  0  0  0
  1  3  1  0  0  0
  1  4  1  0  0  0
  1 17  1  0  0  0
  2  5  1  0  0  0
  2  6  2  0  0  0
  2 10  1  0  0  0
  3  7  2  0  0  0
  3 11  1  0  0  0
  3 12  1  0  0  0
  4  9  1  0  0  0
  4 18  1  0  0  0
  4 19  1  0  0  0
  5 20  1  0  0  0
  8  9  2  0  0  0
  8 13  1  0  0  0
  9 14  1  0  0  0
 10 21  1  0  0  0
 11 22  1  0  0  0
 12 23  1  0  0  0
 13 15  2  0  0  0
 13 24  1  0  0  0
 14 16  2  0  0  0
 14 25  1  0  0  0
 15 16  1  0  0  0
 15 26  1  0  0  0
 16 27  1  0  0  0
M  END
> <s_m_entry_id>
3098

> <s_m_entry_name>
dock_pv.113

> <s_m_Source_Path>
/home/csk/Desktop/cluster/DUD-E-result/fpps

> <s_m_Source_File>
dock_pv.maegz

> <i_m_Source_File_Index>
113

> <chembl_id>
CHEMBL99369

> <chembl_pref_name>
PIRIDRONIC ACID

> <i_lp_mmshare_version>
53161

> <r_lp_tautomer_probability>
1

> <s_lp_Force_Field>
OPLS_2005

> <r_lp_Energy>
-8.230527

> <b_lp_Chiralities_Consistent>
1

> <s_lp_Variant>
CHEMBL1782_lig148-1

> <s_i_glide_gridfile>
glide-grid_1zw5

> <i_i_glide_lignum>
166

> <i_i_glide_rotatable_bonds>
8

> <r_i_docking_score>
-8.10272819047654

> <r_i_glide_ligand_efficiency>
-0.506420511904784

> <r_i_glide_ligand_efficiency_sa>
-1.27609972491538

> <r_i_glide_ligand_efficiency_ln>
-2.14778996255546

> <r_i_glide_gscore>
-8.10272819047654

> <r_i_glide_lipo>
0

> <r_i_glide_hbond>
0

> <r_i_glide_metal>
-2.3

> <r_i_glide_rewards>
-1.58786686363636

> <r_i_glide_evdw>
-15.2879619598389

> <r_i_glide_ecoul>
-45.1051025390625

> <r_i_glide_erotb>
0.749536771151767

> <r_i_glide_esite>
-0.2

> <r_i_glide_emodel>
-103.731490816612

> <r_i_glide_energy>
-60.3930644989014

> <r_i_glide_einternal>
13.0462579727173

> <i_i_glide_confnum>
7

> <i_i_glide_posenum>
198

> <r_i_glide_eff_state_penalty>
0

> <s_user_duplicate_titles>
CHEMBL1782_lig148,161417

> <i_f3d_flags>
0

> <s_m_subgroup_title>
dock_pv

> <s_m_subgroupid>
dock_pv

> <b_m_subgroup_collapsed>
1

$$$$
CHEMBL1782_lig145
                    3D
 Schrodinger Suite 2021-1.
 33 33  0  0  1  0            999 V2000
   18.0858   35.2353  -10.3974 P   0  0  0  0  0  0
   16.8137   35.6641   -9.1484 C   0  0  0  0  0  0
   16.1713   37.4105   -9.0587 P   0  0  0  0  0  0
   14.9010   37.2081   -7.9650 O   0  0  0  0  0  0
   15.7010   38.0088  -10.3650 O   0  0  0  0  0  0
   17.4805   38.2363   -8.3650 O   0  0  0  0  0  0
   17.3445   35.7796  -11.8364 O   0  0  0  0  0  0
   18.5010   33.7800  -10.3650 O   0  0  0  0  0  0
   19.3370   36.2852   -9.9650 O   0  0  0  0  0  0
   15.7149   34.7483   -9.4657 N   0  0  0  0  0  0
   14.9900   33.9776   -8.5690 C   0  0  0  0  0  0
   15.0611   34.2388   -7.3185 N   0  0  0  0  0  0
   14.2435   33.4999   -6.3650 C   0  0  0  0  0  0
   12.9767   32.8401   -6.9530 C   0  0  0  0  0  0
   13.3245   32.0350   -8.2054 C   0  0  0  0  0  0
   14.2008   32.8154   -9.2233 C   0  0  2  0  0  0
   15.1680   31.8492   -9.9477 C   0  0  0  0  0  0
   17.2502   35.3881   -8.1790 H   0  0  0  0  0  0
   14.1537   36.6288   -8.2217 H   0  0  0  0  0  0
   17.7010   39.1460   -8.6808 H   0  0  0  0  0  0
   17.7668   36.5231  -12.3344 H   0  0  0  0  0  0
   19.5479   37.0495  -10.5585 H   0  0  0  0  0  0
   15.5762   34.5800  -10.4519 H   0  0  0  0  0  0
   14.8746   32.7455   -5.8916 H   0  0  0  0  0  0
   13.9344   34.1800   -5.5719 H   0  0  0  0  0  0
   12.4960   32.1965   -6.2155 H   0  0  0  0  0  0
   12.2487   33.6113   -7.2097 H   0  0  0  0  0  0
   12.4059   31.6979   -8.6898 H   0  0  0  0  0  0
   13.8326   31.1206   -7.8909 H   0  0  0  0  0  0
   13.5305   33.2526   -9.9650 H   0  0  0  0  0  0
   15.7010   32.3335  -10.7650 H   0  0  0  0  0  0
   15.9139   31.4373   -9.2650 H   0  0  0  0  0  0
   14.6231   31.0014  -10.3650 H   0  0  0  0  0  0
  1  9  1  0  0  0
  1  2  1  0  0  0
  1  7  1  0  0  0
  1  8  2  0  0  0
  2 10  1  0  0  0
  2  3  1  0  0  0
  2 18  1  0  0  0
  3  5  2  0  0  0
  3  6  1  0  0  0
  3  4  1  0  0  0
  4 19  1  0  0  0
  6 20  1  0  0  0
  7 21  1  0  0  0
  9 22  1  0  0  0
 10 11  1  0  0  0
 10 23  1  0  0  0
 11 12  2  0  0  0
 11 16  1  0  0  0
 12 13  1  0  0  0
 13 14  1  0  0  0
 13 24  1  0  0  0
 13 25  1  0  0  0
 14 15  1  0  0  0
 14 26  1  0  0  0
 14 27  1  0  0  0
 15 16  1  0  0  0
 15 28  1  0  0  0
 15 29  1  0  0  0
 16 17  1  0  0  0
 16 30  1  0  0  0
 17 31  1  0  0  0
 17 32  1  0  0  0
 17 33  1  0  0  0
M  END
> <s_m_entry_id>
3099

> <s_m_entry_name>
dock_pv.114

> <s_m_Source_Path>
/home/csk/Desktop/cluster/DUD-E-result/fpps

> <s_m_Source_File>
dock_pv.maegz

> <i_m_Source_File_Index>
114

> <chembl_id>
CHEMBL408608

> <chembl_pref_name>
None

> <i_lp_mmshare_version>
53161

> <r_lp_tautomer_probability>
0.999601159137504

> <s_lp_Force_Field>
OPLS_2005

> <r_lp_Energy>
-1.628356

> <b_lp_Chiralities_Consistent>
1

> <s_lp_Variant>
CHEMBL1782_lig145-2

> <s_i_glide_gridfile>
glide-grid_1zw5

> <i_i_glide_lignum>
163

> <i_i_glide_rotatable_bonds>
8

> <r_i_docking_score>
-8.07134783373887

> <r_i_glide_ligand_efficiency>
-0.474785166690522

> <r_i_glide_ligand_efficiency_sa>
-1.220806357476

> <r_i_glide_ligand_efficiency_ln>
-2.10563490974336

> <r_i_glide_gscore>
-8.07134783373887

> <r_i_glide_lipo>
0

> <r_i_glide_hbond>
0

> <r_i_glide_metal>
-2.3

> <r_i_glide_rewards>
-1.45800504545455

> <r_i_glide_evdw>
-17.14404296875

> <r_i_glide_ecoul>
-46.4004898071289

> <r_i_glide_erotb>
0.88685336467577

> <r_i_glide_esite>
-0.342994004522592

> <r_i_glide_emodel>
-109.257458083503

> <r_i_glide_energy>
-63.5445327758789

> <r_i_glide_einternal>
15.8518133163452

> <i_i_glide_confnum>
8

> <i_i_glide_posenum>
383

> <r_i_glide_eff_state_penalty>
0

> <s_user_duplicate_titles>
CHEMBL1782_lig145

> <i_f3d_flags>
0

> <s_m_subgroup_title>
dock_pv

> <s_m_subgroupid>
dock_pv

> <b_m_subgroup_collapsed>
1

$$$$
CHEMBL1782_lig238
                    3D
 Schrodinger Suite 2021-1.
 49 52  0  0  1  0            999 V2000
   16.1014   39.5878   -8.1177 O   0  0  0  0  0  0
   15.7645   38.1802   -8.8347 P   0  0  0  0  0  0
   15.3013   38.5924  -10.3623 O   0  0  0  0  0  0
    9.7050   34.0941   -5.1579 C   0  0  0  0  0  0
   10.9621   33.7812   -5.9464 C   0  0  0  0  0  0
   11.1713   32.5540   -6.5861 C   0  0  0  0  0  0
   12.3038   32.3574   -7.3814 C   0  0  0  0  0  0
   11.9160   34.7842   -6.0459 C   0  0  0  0  0  0
   13.0475   34.5798   -6.8187 C   0  0  0  0  0  0
   13.2340   33.3897   -7.5271 C   0  0  0  0  0  0
   14.4051   33.3677   -8.4527 C   0  0  0  0  0  0
   15.3327   31.9323   -8.8457 S   0  0  0  0  0  0
   14.8821   34.4712   -9.1197 C   0  0  0  0  0  0
   16.0871   34.2905   -9.8049 C   0  0  0  0  0  0
   16.4501   32.9187   -9.8013 C   0  0  0  0  0  0
   17.5123   32.4433  -10.4483 N   0  0  0  0  0  0
   18.1891   33.3808  -11.1649 C   0  0  0  0  0  0
   17.9958   34.7044  -11.2045 N   0  0  0  0  0  0
   16.9715   35.1761  -10.4734 C   0  0  0  0  0  0
   16.9358   36.5720  -10.3940 N   0  0  0  0  0  0
   17.3169   37.3119   -9.1644 C   0  0  2  0  0  0
   17.6409   36.4651   -7.8953 C   0  0  0  0  0  0
   18.7532   36.9685   -6.9327 C   0  0  0  0  0  0
   18.4786   38.2673   -6.1581 C   0  0  0  0  0  0
   18.0471   37.4612   -4.9353 C   0  0  0  0  0  0
   18.6161   36.1856   -5.5864 C   0  0  0  0  0  0
   14.9003   37.3436   -7.9951 O   0  0  0  0  0  0
   16.6974   40.1705   -8.6583 H   0  0  0  0  0  0
   15.8489   39.3787  -10.6210 H   0  0  0  0  0  0
    8.9048   33.3796   -5.3095 H   0  0  0  0  0  0
    9.9363   34.1822   -4.0949 H   0  0  0  0  0  0
    9.3097   35.0600   -5.4756 H   0  0  0  0  0  0
   10.4583   31.7509   -6.5018 H   0  0  0  0  0  0
   12.4324   31.4233   -7.9090 H   0  0  0  0  0  0
   11.7569   35.7303   -5.5500 H   0  0  0  0  0  0
   13.7637   35.3803   -6.9003 H   0  0  0  0  0  0
   14.3594   35.3965   -9.1263 H   0  0  0  0  0  0
   18.8995   33.0215  -11.8913 H   0  0  0  0  0  0
   17.5457   36.9455  -11.1282 H   0  0  0  0  0  0
   18.1133   38.0233   -9.3989 H   0  0  0  0  0  0
   17.7008   35.4343   -8.1959 H   0  0  0  0  0  0
   16.7724   36.3620   -7.2516 H   0  0  0  0  0  0
   19.7453   36.9443   -7.3967 H   0  0  0  0  0  0
   17.7477   38.9459   -6.5853 H   0  0  0  0  0  0
   19.3807   38.8590   -5.9927 H   0  0  0  0  0  0
   16.9626   37.4387   -4.8153 H   0  0  0  0  0  0
   18.4986   37.7755   -3.9929 H   0  0  0  0  0  0
   19.5451   35.7810   -5.1635 H   0  0  0  0  0  0
   17.8819   35.3806   -5.5630 H   0  0  0  0  0  0
  1  2  1  0  0  0
  1 28  1  0  0  0
  2  3  1  0  0  0
  2 21  1  0  0  0
  2 27  2  0  0  0
  3 29  1  0  0  0
  4  5  1  0  0  0
  4 30  1  0  0  0
  4 31  1  0  0  0
  4 32  1  0  0  0
  5  6  1  0  0  0
  5  8  2  0  0  0
  6  7  2  0  0  0
  6 33  1  0  0  0
  7 10  1  0  0  0
  7 34  1  0  0  0
  8  9  1  0  0  0
  8 35  1  0  0  0
  9 10  2  0  0  0
  9 36  1  0  0  0
 10 11  1  0  0  0
 11 12  1  0  0  0
 11 13  2  0  0  0
 12 15  1  0  0  0
 13 14  1  0  0  0
 13 37  1  0  0  0
 14 15  1  0  0  0
 14 19  2  0  0  0
 15 16  2  0  0  0
 16 17  1  0  0  0
 17 18  2  0  0  0
 17 38  1  0  0  0
 18 19  1  0  0  0
 19 20  1  0  0  0
 20 21  1  0  0  0
 20 39  1  0  0  0
 21 22  1  0  0  0
 21 40  1  0  0  0
 22 23  1  0  0  0
 22 41  1  0  0  0
 22 42  1  0  0  0
 23 24  1  0  0  0
 23 26  1  0  0  0
 23 43  1  0  0  0
 24 25  1  0  0  0
 24 44  1  0  0  0
 24 45  1  0  0  0
 25 26  1  0  0  0
 25 46  1  0  0  0
 25 47  1  0  0  0
 26 48  1  0  0  0
 26 49  1  0  0  0
M  END
> <s_m_entry_id>
3100

> <s_m_entry_name>
dock_pv.115

> <s_m_Source_Path>
/home/csk/Desktop/cluster/DUD-E-result/fpps

> <s_m_Source_File>
dock_pv.maegz

> <i_m_Source_File_Index>
115

> <chembl_id>
CHEMBL4082744

> <chembl_pref_name>
None

> <i_lp_mmshare_version>
53161

> <r_lp_tautomer_probability>
1

> <s_lp_Force_Field>
OPLS_2005

> <r_lp_Energy>
14.141941

> <b_lp_Chiralities_Consistent>
1

> <s_lp_Variant>
CHEMBL1782_lig238-1

> <s_i_glide_gridfile>
glide-grid_1zw5

> <i_i_glide_lignum>
272

> <i_i_glide_rotatable_bonds>
8

> <r_i_docking_score>
-8.02802841898041

> <r_i_glide_ligand_efficiency>
-0.297334385888163

> <r_i_glide_ligand_efficiency_sa>
-0.892003156684524

> <r_i_glide_ligand_efficiency_ln>
-1.86879266354625

> <r_i_glide_gscore>
-8.02802841898041

> <r_i_glide_lipo>
0

> <r_i_glide_hbond>
-0.288629078697105

> <r_i_glide_metal>
-2.3

> <r_i_glide_rewards>
-0.808390636363636

> <r_i_glide_evdw>
-18.9250812530518

> <r_i_glide_ecoul>
-26.5859546661377

> <r_i_glide_erotb>
0.603138558653575

> <r_i_glide_esite>
-0.3

> <r_i_glide_emodel>
-48.8873640452455

> <r_i_glide_energy>
-45.5110359191895

> <r_i_glide_einternal>
17.275218963623

> <i_i_glide_confnum>
241

> <i_i_glide_posenum>
206

> <r_i_glide_eff_state_penalty>
0

> <s_user_duplicate_titles>
CHEMBL1782_lig238

> <i_f3d_flags>
0

> <s_m_subgroup_title>
dock_pv

> <s_m_subgroupid>
dock_pv

> <b_m_subgroup_collapsed>
1

$$$$
CHEMBL1782_lig146
                    3D
 Schrodinger Suite 2021-1.
 32 32  0  0  1  0            999 V2000
   14.9085   29.9950   -8.6572 C   0  0  0  0  0  0
   15.8012   30.8551   -9.2867 C   0  0  0  0  0  0
   15.8263   32.1910   -9.0783 N   0  0  0  0  0  0
   14.9330   32.7218   -8.2072 C   0  0  0  0  0  0
   13.9818   31.9255   -7.5398 C   0  0  0  0  0  0
   13.9932   30.5430   -7.7644 C   0  0  0  0  0  0
   14.9519   34.1094   -7.9958 N   0  0  0  0  0  0
   15.3014   35.0073   -9.0927 C   0  0  0  0  0  0
   16.7179   35.6512   -9.0682 C   0  0  0  0  0  0
   16.4497   37.5095   -9.1522 P   0  0  0  0  0  0
   17.8619   34.9300  -10.3637 P   0  0  0  0  0  0
   17.2975   35.6324  -11.8128 O   0  0  0  0  0  0
   15.7010   38.0212  -10.3649 O   0  0  0  0  0  0
   15.7066   37.8433   -7.6517 O   0  0  0  0  0  0
   17.9928   38.1800   -9.0218 O   0  0  0  0  0  0
   18.1010   33.4221  -10.3650 O   0  0  0  0  0  0
   19.2729   35.7801   -9.9509 O   0  0  0  0  0  0
   12.9260   32.5155   -6.6164 C   0  0  0  0  0  0
   14.9243   28.9317   -8.8535 H   0  0  0  0  0  0
   16.5433   30.4804   -9.9659 H   0  0  0  0  0  0
   13.2944   29.8916   -7.2622 H   0  0  0  0  0  0
   14.1086   34.3834   -7.5163 H   0  0  0  0  0  0
   14.5518   35.7809   -8.9417 H   0  0  0  0  0  0
   15.0472   34.5807  -10.0658 H   0  0  0  0  0  0
   17.1960   35.4324   -8.1032 H   0  0  0  0  0  0
   17.7843   36.3861  -12.2312 H   0  0  0  0  0  0
   16.0950   38.5090   -7.0507 H   0  0  0  0  0  0
   18.0978   39.0941   -9.4022 H   0  0  0  0  0  0
   19.5966   36.5332  -10.4995 H   0  0  0  0  0  0
   12.4815   31.7513   -5.9786 H   0  0  0  0  0  0
   13.3656   33.2686   -5.9659 H   0  0  0  0  0  0
   12.1367   32.9908   -7.1994 H   0  0  0  0  0  0
  1  6  1  0  0  0
  1  2  2  0  0  0
  1 19  1  0  0  0
  2  3  1  0  0  0
  2 20  1  0  0  0
  3  4  2  0  0  0
  4  5  1  0  0  0
  4  7  1  0  0  0
  5  6  2  0  0  0
  5 18  1  0  0  0
  6 21  1  0  0  0
  7  8  1  0  0  0
  7 22  1  0  0  0
  8  9  1  0  0  0
  8 23  1  0  0  0
  8 24  1  0  0  0
  9 10  1  0  0  0
  9 11  1  0  0  0
  9 25  1  0  0  0
 10 13  2  0  0  0
 10 14  1  0  0  0
 10 15  1  0  0  0
 11 12  1  0  0  0
 11 16  2  0  0  0
 11 17  1  0  0  0
 12 26  1  0  0  0
 14 27  1  0  0  0
 15 28  1  0  0  0
 17 29  1  0  0  0
 18 30  1  0  0  0
 18 31  1  0  0  0
 18 32  1  0  0  0
M  END
> <s_m_entry_id>
3102

> <s_m_entry_name>
dock_pv.117

> <s_m_Source_Path>
/home/csk/Desktop/cluster/DUD-E-result/fpps

> <s_m_Source_File>
dock_pv.maegz

> <i_m_Source_File_Index>
117

> <chembl_id>
CHEMBL98719

> <chembl_pref_name>
None

> <i_lp_mmshare_version>
53161

> <r_lp_tautomer_probability>
0.999999772200052

> <s_lp_Force_Field>
OPLS_2005

> <r_lp_Energy>
0.921232

> <b_lp_Chiralities_Consistent>
1

> <s_lp_Variant>
CHEMBL1782_lig146-1

> <s_i_glide_gridfile>
glide-grid_1zw5

> <i_i_glide_lignum>
164

> <i_i_glide_rotatable_bonds>
9

> <r_i_docking_score>
-8.00810317806916

> <r_i_glide_ligand_efficiency>
-0.444894621003842

> <r_i_glide_ligand_efficiency_sa>
-1.1659537482023

> <r_i_glide_ligand_efficiency_ln>
-2.05844162882772

> <r_i_glide_gscore>
-8.00810317806916

> <r_i_glide_lipo>
0

> <r_i_glide_hbond>
0

> <r_i_glide_metal>
-2.3

> <r_i_glide_rewards>
-1.38985854545455

> <r_i_glide_evdw>
-21.9860038757324

> <r_i_glide_ecoul>
-50.8981552124023

> <r_i_glide_erotb>
1.04412918585882

> <r_i_glide_esite>
-0.263073624686813

> <r_i_glide_emodel>
-117.889013638741

> <r_i_glide_energy>
-72.8841590881348

> <r_i_glide_einternal>
29.3173236846924

> <i_i_glide_confnum>
122

> <i_i_glide_posenum>
76

> <r_i_glide_eff_state_penalty>
0

> <s_user_duplicate_titles>
CHEMBL1782_lig146,161706

> <i_f3d_flags>
0

> <s_m_subgroup_title>
dock_pv

> <s_m_subgroupid>
dock_pv

> <b_m_subgroup_collapsed>
1

$$$$
CHEMBL1782_lig205
                    3D
 Schrodinger Suite 2021-1.
 56 56  0  0  1  0            999 V2000
   14.4225   32.5468   -9.3771 C   0  0  0  0  0  0
   14.1596   31.5864   -8.4216 N   0  0  0  0  0  0
   14.7965   31.9675   -7.2547 C   0  0  0  0  0  0
   15.3010   33.2415   -7.4583 C   0  0  0  0  0  0
   15.0877   33.5994   -8.7786 N   0  3  0  0  0  0
   13.1784   30.5203   -8.5279 C   0  0  0  0  0  0
   15.2325   34.9379   -9.3286 C   0  0  0  0  0  0
   16.6527   35.5492   -9.2272 C   0  0  0  0  0  0
   17.7709   34.8387  -10.5383 P   0  0  0  0  0  0
   18.1010   33.3756  -10.3650 O   0  0  0  0  0  0
   16.9877   35.2683  -11.9941 O   0  0  0  0  0  0
   19.1532   35.7845  -10.3650 O   0  0  0  0  0  0
   16.4613   37.3975   -9.1236 P   0  0  0  0  0  0
   18.0502   37.8585   -8.7411 O   0  0  0  0  0  0
   15.4241   37.8770   -8.1397 O   0  0  0  0  0  0
   16.1580   37.8184  -10.7650 O   0  0  0  0  0  0
   11.7437   31.0949   -8.3651 C   0  0  0  0  0  0
   11.4794   31.9999   -7.1349 C   0  0  0  0  0  0
   11.5160   33.5173   -7.4460 C   0  0  0  0  0  0
   11.2825   34.4283   -6.2244 C   0  0  0  0  0  0
    9.8276   34.4131   -5.7272 C   0  0  0  0  0  0
    9.6075   35.1218   -4.3795 C   0  0  0  0  0  0
    8.1931   34.8499   -3.8391 C   0  0  0  0  0  0
    7.9744   35.2768   -2.3800 C   0  0  0  0  0  0
    6.6870   34.6749   -1.7982 C   0  0  0  0  0  0
   13.9888   32.5601  -10.3649 H   0  0  0  0  0  0
   14.7041   31.3620   -6.3645 H   0  0  0  0  0  0
   15.7010   33.9465   -6.7513 H   0  0  0  0  0  0
   13.3885   29.7737   -7.7595 H   0  0  0  0  0  0
   13.3012   30.0220   -9.4918 H   0  0  0  0  0  0
   14.9010   34.9277  -10.3654 H   0  0  0  0  0  0
   14.5038   35.5370   -8.7737 H   0  0  0  0  0  0
   17.0942   35.2534   -8.2683 H   0  0  0  0  0  0
   17.4164   35.8450  -12.6632 H   0  0  0  0  0  0
   19.3303   36.5475  -10.9721 H   0  0  0  0  0  0
   16.9010   38.2981  -11.2299 H   0  0  0  0  0  0
   11.0499   30.2521   -8.3594 H   0  0  0  0  0  0
   11.4720   31.6599   -9.2557 H   0  0  0  0  0  0
   12.1722   31.7620   -6.3276 H   0  0  0  0  0  0
   10.5009   31.7420   -6.7407 H   0  0  0  0  0  0
   10.7823   33.7521   -8.2192 H   0  0  0  0  0  0
   12.4779   33.7779   -7.8797 H   0  0  0  0  0  0
   11.5526   35.4508   -6.4893 H   0  0  0  0  0  0
   11.9605   34.1348   -5.4218 H   0  0  0  0  0  0
    9.5092   33.3800   -5.6196 H   0  0  0  0  0  0
    9.1769   34.8513   -6.4862 H   0  0  0  0  0  0
    9.7762   36.1949   -4.4805 H   0  0  0  0  0  0
   10.3442   34.7587   -3.6606 H   0  0  0  0  0  0
    8.0111   33.7800   -3.9068 H   0  0  0  0  0  0
    7.4491   35.3217   -4.4828 H   0  0  0  0  0  0
    7.9463   36.3648   -2.3092 H   0  0  0  0  0  0
    8.8177   34.9555   -1.7678 H   0  0  0  0  0  0
    6.5458   34.9799   -0.7649 H   0  0  0  0  0  0
    6.7200   33.5848   -1.8041 H   0  0  0  0  0  0
    5.8074   34.9800   -2.3650 H   0  0  0  0  0  0
   18.2863   38.8062   -8.6348 H   0  0  0  0  0  0
  1  2  1  0  0  0
  1  5  2  0  0  0
  1 26  1  0  0  0
  2  3  1  0  0  0
  2  6  1  0  0  0
  3  4  2  0  0  0
  3 27  1  0  0  0
  4  5  1  0  0  0
  4 28  1  0  0  0
  5  7  1  0  0  0
  6 17  1  0  0  0
  6 29  1  0  0  0
  6 30  1  0  0  0
  7  8  1  0  0  0
  7 31  1  0  0  0
  7 32  1  0  0  0
  8  9  1  0  0  0
  8 13  1  0  0  0
  8 33  1  0  0  0
  9 10  2  0  0  0
  9 11  1  0  0  0
  9 12  1  0  0  0
 11 34  1  0  0  0
 12 35  1  0  0  0
 13 14  1  0  0  0
 13 15  2  0  0  0
 13 16  1  0  0  0
 14 56  1  0  0  0
 16 36  1  0  0  0
 17 18  1  0  0  0
 17 37  1  0  0  0
 17 38  1  0  0  0
 18 19  1  0  0  0
 18 39  1  0  0  0
 18 40  1  0  0  0
 19 20  1  0  0  0
 19 41  1  0  0  0
 19 42  1  0  0  0
 20 21  1  0  0  0
 20 43  1  0  0  0
 20 44  1  0  0  0
 21 22  1  0  0  0
 21 45  1  0  0  0
 21 46  1  0  0  0
 22 23  1  0  0  0
 22 47  1  0  0  0
 22 48  1  0  0  0
 23 24  1  0  0  0
 23 49  1  0  0  0
 23 50  1  0  0  0
 24 25  1  0  0  0
 24 51  1  0  0  0
 24 52  1  0  0  0
 25 53  1  0  0  0
 25 54  1  0  0  0
 25 55  1  0  0  0
M  CHG  1   5   1
M  END
> <s_m_entry_id>
3103

> <s_m_entry_name>
dock_pv.118

> <s_m_Source_Path>
/home/csk/Desktop/cluster/DUD-E-result/fpps

> <s_m_Source_File>
dock_pv.maegz

> <i_m_Source_File_Index>
118

> <chembl_id>
CHEMBL2338378

> <chembl_pref_name>
None

> <i_lp_mmshare_version>
53161

> <r_lp_tautomer_probability>
1

> <s_lp_Force_Field>
OPLS_2005

> <r_lp_Energy>
0.295185

> <b_lp_Chiralities_Consistent>
1

> <s_lp_Variant>
CHEMBL1782_lig205-1

> <s_i_glide_gridfile>
glide-grid_1zw5

> <i_i_glide_lignum>
229

> <i_i_glide_rotatable_bonds>
17

> <r_i_docking_score>
-8.00293800445741

> <r_i_glide_ligand_efficiency>
-0.320117520178296

> <r_i_glide_ligand_efficiency_sa>
-0.936029306309733

> <r_i_glide_ligand_efficiency_ln>
-1.89693613575541

> <r_i_glide_gscore>
-8.00293800445741

> <r_i_glide_lipo>
-0.567296579653012

> <r_i_glide_hbond>
0

> <r_i_glide_metal>
-2.3

> <r_i_glide_rewards>
-0.549791181818181

> <r_i_glide_evdw>
-34.1487464904785

> <r_i_glide_ecoul>
-41.8074378967285

> <r_i_glide_erotb>
1.48759442859072

> <r_i_glide_esite>
-0.366007347053014

> <r_i_glide_emodel>
-107.708213161185

> <r_i_glide_energy>
-75.956184387207

> <r_i_glide_einternal>
28.9857807159424

> <i_i_glide_confnum>
191

> <i_i_glide_posenum>
264

> <r_i_glide_eff_state_penalty>
0

> <s_user_duplicate_titles>
CHEMBL1782_lig205

> <i_f3d_flags>
0

> <s_m_subgroup_title>
dock_pv

> <s_m_subgroupid>
dock_pv

> <b_m_subgroup_collapsed>
1

$$$$
CHEMBL1782_lig122
                    3D
 Schrodinger Suite 2021-1.
 27 27  0  0  1  0            999 V2000
   16.6599   35.7073   -9.2774 C   0  0  0  0  0  0
   18.0948   35.2285  -10.3652 P   0  0  0  0  0  0
   16.3515   37.5591   -9.1508 P   0  0  0  0  0  0
   15.3004   33.5084   -9.2274 N   0  3  0  0  0  0
   15.3579   34.9213   -9.6471 C   0  0  0  0  0  0
   14.5888   33.0111   -8.1475 C   0  0  0  0  0  0
   14.7196   31.6392   -8.1231 N   0  0  0  0  0  0
   15.8627   32.4086   -9.8665 C   0  0  0  0  0  0
   15.3010   37.9632   -8.1568 O   0  0  0  0  0  0
   18.5010   33.7800  -10.3473 O   0  0  0  0  0  0
   17.0134   35.3800   -7.9495 O   0  0  0  0  0  0
   15.5108   31.2462   -9.1845 C   0  0  0  0  0  0
   17.8795   38.1800   -8.7650 O   0  0  0  0  0  0
   17.5650   35.7800  -11.8786 O   0  0  0  0  0  0
   16.1010   38.0934  -10.7650 O   0  0  0  0  0  0
   19.3307   36.1877   -9.7156 O   0  0  0  0  0  0
   14.5010   35.3877   -9.1650 H   0  0  0  0  0  0
   15.1756   34.9652  -10.7201 H   0  0  0  0  0  0
   13.9915   33.5924   -7.4597 H   0  0  0  0  0  0
   14.2774   31.0124   -7.4606 H   0  0  0  0  0  0
   16.4380   32.5362  -10.7650 H   0  0  0  0  0  0
   16.2512   35.5951   -7.3934 H   0  0  0  0  0  0
   15.7192   30.1965   -9.3643 H   0  0  0  0  0  0
   18.1010   39.1047   -9.0368 H   0  0  0  0  0  0
   18.0488   36.5334  -12.3068 H   0  0  0  0  0  0
   16.7825   38.7366  -11.1005 H   0  0  0  0  0  0
   19.6914   36.9600  -10.2088 H   0  0  0  0  0  0
  1  2  1  0  0  0
  1  3  1  0  0  0
  1  5  1  0  0  0
  1 11  1  0  0  0
  2 10  2  0  0  0
  2 14  1  0  0  0
  2 16  1  0  0  0
  3  9  2  0  0  0
  3 13  1  0  0  0
  3 15  1  0  0  0
  4  5  1  0  0  0
  4  6  2  0  0  0
  4  8  1  0  0  0
  5 17  1  0  0  0
  5 18  1  0  0  0
  6  7  1  0  0  0
  6 19  1  0  0  0
  7 12  1  0  0  0
  7 20  1  0  0  0
  8 12  2  0  0  0
  8 21  1  0  0  0
 11 22  1  0  0  0
 12 23  1  0  0  0
 13 24  1  0  0  0
 14 25  1  0  0  0
 15 26  1  0  0  0
 16 27  1  0  0  0
M  CHG  1   4   1
M  END
> <s_m_entry_id>
3104

> <s_m_entry_name>
dock_pv.119

> <s_m_Source_Path>
/home/csk/Desktop/cluster/DUD-E-result/fpps

> <s_m_Source_File>
dock_pv.maegz

> <i_m_Source_File_Index>
119

> <chembl_id>
CHEMBL340034

> <chembl_pref_name>
None

> <i_lp_mmshare_version>
53161

> <r_lp_tautomer_probability>
1

> <s_lp_Force_Field>
OPLS_2005

> <r_lp_Energy>
-0.505668

> <b_lp_Chiralities_Consistent>
1

> <s_lp_Variant>
CHEMBL1782_lig122-1

> <s_i_glide_gridfile>
glide-grid_1zw5

> <i_i_glide_lignum>
134

> <i_i_glide_rotatable_bonds>
9

> <r_i_docking_score>
-7.99159993430802

> <r_i_glide_ligand_efficiency>
-0.499474995894251

> <r_i_glide_ligand_efficiency_sa>
-1.25859812128345

> <r_i_glide_ligand_efficiency_ln>
-2.11833319842069

> <r_i_glide_gscore>
-7.99159993430802

> <r_i_glide_lipo>
0

> <r_i_glide_hbond>
0

> <r_i_glide_metal>
-2.3

> <r_i_glide_rewards>
-1.39706209090909

> <r_i_glide_evdw>
-13.066349029541

> <r_i_glide_ecoul>
-50.2498817443848

> <r_i_glide_erotb>
0.721351784191975

> <r_i_glide_esite>
-0.362572176113854

> <r_i_glide_emodel>
-96.5662245764605

> <r_i_glide_energy>
-63.3162307739258

> <r_i_glide_einternal>
27.3422794342041

> <i_i_glide_confnum>
26

> <i_i_glide_posenum>
202

> <r_i_glide_eff_state_penalty>
0

> <s_user_duplicate_titles>
CHEMBL1782_lig122,207329

> <i_f3d_flags>
0

> <s_m_subgroup_title>
dock_pv

> <s_m_subgroupid>
dock_pv

> <b_m_subgroup_collapsed>
1

$$$$
CHEMBL1782_lig42
                    3D
 Schrodinger Suite 2021-1.
 44 44  0  0  1  0            999 V2000
   16.4879   35.5231   -9.1460 C   0  0  0  0  0  0
   17.7907   34.8623  -10.3394 P   0  0  0  0  0  0
   16.2699   37.3668   -9.3298 P   0  0  0  0  0  0
   15.1567   34.7376   -9.3020 C   0  0  0  0  0  0
   16.1010   37.7880  -10.7648 O   0  0  0  0  0  0
   18.1010   33.3801  -10.2394 O   0  0  0  0  0  0
   16.9010   35.3680   -7.7943 O   0  0  0  0  0  0
   17.2456   35.3801  -11.8695 O   0  0  0  0  0  0
   14.9009   37.6701   -8.3776 O   0  0  0  0  0  0
   17.6405   38.0235   -8.5709 O   0  0  0  0  0  0
   19.1180   35.8201   -9.8862 O   0  0  0  0  0  0
   15.1951   33.2265   -8.9397 C   0  0  0  0  0  0
   13.8837   32.5805   -9.0308 N   0  0  2  0  0  0
   10.6319   33.6836   -8.1825 O   0  0  0  0  0  0
   10.4353   34.4320   -7.0375 C   0  0  0  0  0  0
   11.5039   32.5479   -8.1784 C   0  0  0  0  0  0
   12.9876   32.9316   -7.9183 C   0  0  0  0  0  0
   14.0627   31.1245   -9.0835 C   0  0  0  0  0  0
    9.7393   35.6313   -7.1944 C   0  0  0  0  0  0
   10.8732   34.0541   -5.7589 C   0  0  0  0  0  0
   10.6221   34.8755   -4.6620 C   0  0  0  0  0  0
    9.4947   36.4589   -6.1018 C   0  0  0  0  0  0
    9.9377   36.0763   -4.8377 C   0  0  0  0  0  0
   14.3517   35.2370   -8.7646 H   0  0  0  0  0  0
   14.9012   34.7963  -10.3593 H   0  0  0  0  0  0
   16.1390   35.6004   -7.2466 H   0  0  0  0  0  0
   17.7008   36.1029  -12.3596 H   0  0  0  0  0  0
   14.0101   37.3792   -8.6885 H   0  0  0  0  0  0
   17.9598   38.9072   -8.8682 H   0  0  0  0  0  0
   19.4425   36.5479  -10.4685 H   0  0  0  0  0  0
   15.8469   32.7315   -9.6576 H   0  0  0  0  0  0
   15.6598   33.0526   -7.9670 H   0  0  0  0  0  0
   11.3849   32.0836   -9.1588 H   0  0  0  0  0  0
   11.1606   31.7983   -7.4628 H   0  0  0  0  0  0
   13.3379   32.4530   -7.0017 H   0  0  0  0  0  0
   13.0301   34.0010   -7.7238 H   0  0  0  0  0  0
   13.1112   30.5978   -9.1645 H   0  0  0  0  0  0
   14.6541   30.8347   -9.9528 H   0  0  0  0  0  0
   14.5700   30.7488   -8.1929 H   0  0  0  0  0  0
    9.4029   35.9225   -8.1792 H   0  0  0  0  0  0
   11.4044   33.1275   -5.6033 H   0  0  0  0  0  0
   10.9597   34.5779   -3.6793 H   0  0  0  0  0  0
    8.9701   37.3933   -6.2398 H   0  0  0  0  0  0
    9.7483   36.7157   -3.9874 H   0  0  0  0  0  0
  1  2  1  0  0  0
  1  3  1  0  0  0
  1  4  1  0  0  0
  1  7  1  0  0  0
  2  6  2  0  0  0
  2  8  1  0  0  0
  2 11  1  0  0  0
  3  5  2  0  0  0
  3  9  1  0  0  0
  3 10  1  0  0  0
  4 12  1  0  0  0
  4 24  1  0  0  0
  4 25  1  0  0  0
  7 26  1  0  0  0
  8 27  1  0  0  0
  9 28  1  0  0  0
 10 29  1  0  0  0
 11 30  1  0  0  0
 12 13  1  0  0  0
 12 31  1  0  0  0
 12 32  1  0  0  0
 13 17  1  0  0  0
 13 18  1  0  0  0
 14 16  1  0  0  0
 14 15  1  0  0  0
 15 19  2  0  0  0
 15 20  1  0  0  0
 16 17  1  0  0  0
 16 33  1  0  0  0
 16 34  1  0  0  0
 17 35  1  0  0  0
 17 36  1  0  0  0
 18 37  1  0  0  0
 18 38  1  0  0  0
 18 39  1  0  0  0
 19 22  1  0  0  0
 19 40  1  0  0  0
 20 21  2  0  0  0
 20 41  1  0  0  0
 21 23  1  0  0  0
 21 42  1  0  0  0
 22 23  2  0  0  0
 22 43  1  0  0  0
 23 44  1  0  0  0
M  END
> <s_m_entry_id>
3105

> <s_m_entry_name>
dock_pv.120

> <s_m_Source_Path>
/home/csk/Desktop/cluster/DUD-E-result/fpps

> <s_m_Source_File>
dock_pv.maegz

> <i_m_Source_File_Index>
120

> <chembl_id>
CHEMBL53982

> <chembl_pref_name>
None

> <i_lp_mmshare_version>
53161

> <r_lp_tautomer_probability>
1

> <s_lp_Force_Field>
OPLS_2005

> <r_lp_Energy>
7.792898

> <b_lp_Chiralities_Consistent>
1

> <s_lp_Variant>
CHEMBL1782_lig42-1

> <s_i_glide_gridfile>
glide-grid_1zw5

> <i_i_glide_lignum>
46

> <i_i_glide_rotatable_bonds>
14

> <r_i_docking_score>
-7.97677095089483

> <r_i_glide_ligand_efficiency>
-0.346816128299775

> <r_i_glide_ligand_efficiency_sa>
-0.98629893432085

> <r_i_glide_ligand_efficiency_ln>
-1.92885554528641

> <r_i_glide_gscore>
-7.97677095089483

> <r_i_glide_lipo>
-0.258410837972418

> <r_i_glide_hbond>
0

> <r_i_glide_metal>
-2.3

> <r_i_glide_rewards>
-0.889537473864095

> <r_i_glide_evdw>
-22.4133739471436

> <r_i_glide_ecoul>
-54.5940895080566

> <r_i_glide_erotb>
0.791846058298855

> <r_i_glide_esite>
-0.2

> <r_i_glide_emodel>
-130.49642953556

> <r_i_glide_energy>
-77.0074634552002

> <r_i_glide_einternal>
27.1618938446045

> <i_i_glide_confnum>
214

> <i_i_glide_posenum>
296

> <r_i_glide_eff_state_penalty>
0

> <s_user_duplicate_titles>
CHEMBL1782_lig42

> <i_f3d_flags>
0

> <s_m_subgroup_title>
dock_pv

> <s_m_subgroupid>
dock_pv

> <b_m_subgroup_collapsed>
1

$$$$
CHEMBL1782_lig65
                    3D
 Schrodinger Suite 2021-1.
 44 44  0  0  1  0            999 V2000
   16.7849   35.6026  -10.5586 C   0  0  0  0  0  0
   16.6225   36.5166   -8.8942 P   0  0  0  0  0  0
   18.4713   34.8640  -11.0064 P   0  0  0  0  0  0
   15.7025   34.4956  -10.7142 C   0  0  0  0  0  0
   17.7005   36.1801   -7.8766 O   0  0  0  0  0  0
   18.6768   33.3801  -10.7650 O   0  0  0  0  0  0
   16.5010   36.5797  -11.5592 O   0  0  0  0  0  0
   16.4885   38.1797   -9.2913 O   0  0  0  0  0  0
   18.7469   35.3800  -12.5958 O   0  0  0  0  0  0
   15.0382   36.1392   -8.3645 O   0  0  0  0  0  0
   19.4929   35.8057  -10.0292 O   0  0  0  0  0  0
   14.5412   32.5000   -9.8272 N   0  0  2  0  0  0
   12.6582   32.5950   -7.3094 C   0  0  0  0  0  0
   15.2236   30.6764   -8.1971 C   0  0  0  0  0  0
   15.7880   33.2522   -9.7978 C   0  0  0  0  0  0
   13.8231   32.0935   -6.7640 O   0  0  0  0  0  0
   14.6770   31.0608   -9.5903 C   0  0  0  0  0  0
   14.2322   30.7522   -7.0206 C   0  0  0  0  0  0
   12.4478   33.9594   -7.1226 C   0  0  0  0  0  0
   11.7178   31.8497   -8.0393 C   0  0  0  0  0  0
   10.6050   32.4729   -8.5935 C   0  0  0  0  0  0
   11.3363   34.5809   -7.6796 C   0  0  0  0  0  0
   10.4278   33.8409   -8.4254 C   0  0  0  0  0  0
   14.7448   34.9651  -10.5457 H   0  0  0  0  0  0
   15.7009   34.1539  -11.7497 H   0  0  0  0  0  0
   17.3302   37.0329  -11.8126 H   0  0  0  0  0  0
   17.1845   38.7877   -9.6499 H   0  0  0  0  0  0
   18.9010   36.3416  -12.7687 H   0  0  0  0  0  0
   14.2990   35.9402   -8.9807 H   0  0  0  0  0  0
   20.0714   36.5035  -10.4061 H   0  0  0  0  0  0
   13.9045   32.7134  -10.5869 H   0  0  0  0  0  0
   15.5774   29.6464   -8.2541 H   0  0  0  0  0  0
   16.1013   31.2694   -7.9563 H   0  0  0  0  0  0
   16.5912   32.5949  -10.1172 H   0  0  0  0  0  0
   15.9913   33.5387   -8.7648 H   0  0  0  0  0  0
   13.7007   30.5957   -9.7317 H   0  0  0  0  0  0
   15.3110   30.6297  -10.3644 H   0  0  0  0  0  0
   13.4175   30.0380   -7.1279 H   0  0  0  0  0  0
   14.7556   30.4233   -6.1220 H   0  0  0  0  0  0
   13.1717   34.5374   -6.5702 H   0  0  0  0  0  0
   11.8313   30.7926   -8.2175 H   0  0  0  0  0  0
    9.8951   31.8955   -9.1648 H   0  0  0  0  0  0
   11.1924   35.6448   -7.5631 H   0  0  0  0  0  0
    9.5800   34.3333   -8.8807 H   0  0  0  0  0  0
  1  2  1  0  0  0
  1  3  1  0  0  0
  1  4  1  0  0  0
  1  7  1  0  0  0
  2  5  2  0  0  0
  2  8  1  0  0  0
  2 10  1  0  0  0
  3  6  2  0  0  0
  3  9  1  0  0  0
  3 11  1  0  0  0
  4 15  1  0  0  0
  4 24  1  0  0  0
  4 25  1  0  0  0
  7 26  1  0  0  0
  8 27  1  0  0  0
  9 28  1  0  0  0
 10 29  1  0  0  0
 11 30  1  0  0  0
 12 15  1  0  0  0
 12 17  1  0  0  0
 12 31  1  0  0  0
 13 16  1  0  0  0
 13 19  2  0  0  0
 13 20  1  0  0  0
 14 17  1  0  0  0
 14 18  1  0  0  0
 14 32  1  0  0  0
 14 33  1  0  0  0
 15 34  1  0  0  0
 15 35  1  0  0  0
 16 18  1  0  0  0
 17 36  1  0  0  0
 17 37  1  0  0  0
 18 38  1  0  0  0
 18 39  1  0  0  0
 19 22  1  0  0  0
 19 40  1  0  0  0
 20 21  2  0  0  0
 20 41  1  0  0  0
 21 23  1  0  0  0
 21 42  1  0  0  0
 22 23  2  0  0  0
 22 43  1  0  0  0
 23 44  1  0  0  0
M  END
> <s_m_entry_id>
3106

> <s_m_entry_name>
dock_pv.121

> <s_m_Source_Path>
/home/csk/Desktop/cluster/DUD-E-result/fpps

> <s_m_Source_File>
dock_pv.maegz

> <i_m_Source_File_Index>
121

> <chembl_id>
CHEMBL316844

> <chembl_pref_name>
None

> <i_lp_mmshare_version>
53161

> <r_lp_tautomer_probability>
1

> <s_lp_Force_Field>
OPLS_2005

> <r_lp_Energy>
-0.146406

> <b_lp_Chiralities_Consistent>
1

> <s_lp_Variant>
CHEMBL1782_lig65-1

> <s_i_glide_gridfile>
glide-grid_1zw5

> <i_i_glide_lignum>
71

> <i_i_glide_rotatable_bonds>
15

> <r_i_docking_score>
-7.93426219714425

> <r_i_glide_ligand_efficiency>
-0.344967921614968

> <r_i_glide_ligand_efficiency_sa>
-0.981042880363478

> <r_i_glide_ligand_efficiency_ln>
-1.91857654318146

> <r_i_glide_gscore>
-7.93426219714425

> <r_i_glide_lipo>
-0.420462502553675

> <r_i_glide_hbond>
-0.150738274681354

> <r_i_glide_metal>
-2.3

> <r_i_glide_rewards>
-0.891070478970722

> <r_i_glide_evdw>
-24.8920135498047

> <r_i_glide_ecoul>
-57.5857543945312

> <r_i_glide_erotb>
1.27260973655173

> <r_i_glide_esite>
-0.2

> <r_i_glide_emodel>
-141.916144971727

> <r_i_glide_energy>
-82.4777679443359

> <r_i_glide_einternal>
24.0225925445557

> <i_i_glide_confnum>
16

> <i_i_glide_posenum>
364

> <r_i_glide_eff_state_penalty>
0

> <s_user_duplicate_titles>
CHEMBL1782_lig65,163238

> <i_f3d_flags>
0

> <s_m_subgroup_title>
dock_pv

> <s_m_subgroupid>
dock_pv

> <b_m_subgroup_collapsed>
1

$$$$
CHEMBL1782_lig185
                    3D
 Schrodinger Suite 2021-1.
 39 39  0  0  1  0            999 V2000
   14.3451   33.0422   -7.7743 C   0  0  0  0  0  0
   14.2805   31.6675   -7.8906 N   0  0  0  0  0  0
   14.8945   31.3192   -9.0838 C   0  0  0  0  0  0
   15.3268   32.4915   -9.6911 C   0  0  0  0  0  0
   14.9790   33.5644   -8.8846 N   0  3  0  0  0  0
   13.6380   30.7626   -6.9489 C   0  0  0  0  0  0
   15.0993   34.9800   -9.2330 C   0  0  0  0  0  0
   16.4561   35.6813   -8.9131 C   0  0  0  0  0  0
   16.2586   37.5598   -9.0562 P   0  0  0  0  0  0
   15.7010   38.0740  -10.3650 O   0  0  0  0  0  0
   15.3602   37.9513   -7.6728 O   0  0  0  0  0  0
   17.8090   38.1800   -8.7646 O   0  0  0  0  0  0
   16.8300   35.3803   -7.5650 O   0  0  0  0  0  0
   17.8452   35.0949   -9.9824 P   0  0  0  0  0  0
   17.4980   35.7800  -11.5025 O   0  0  0  0  0  0
   18.1010   33.6049   -9.9650 O   0  0  0  0  0  0
   19.1001   35.9146   -9.1806 O   0  0  0  0  0  0
   14.6598   30.0779   -6.0165 C   0  0  0  0  0  0
   15.5575   29.0221   -6.6799 C   0  0  0  0  0  0
   14.8015   27.7800   -7.1666 C   0  0  0  0  0  0
   13.8994   33.6148   -6.9750 H   0  0  0  0  0  0
   14.9341   30.2833   -9.3993 H   0  0  0  0  0  0
   15.8003   32.6582  -10.6451 H   0  0  0  0  0  0
   13.0544   30.0374   -7.5196 H   0  0  0  0  0  0
   12.9086   31.3248   -6.3637 H   0  0  0  0  0  0
   14.9022   35.0171  -10.3031 H   0  0  0  0  0  0
   14.2724   35.5036   -8.7497 H   0  0  0  0  0  0
   15.7010   38.6291   -7.0565 H   0  0  0  0  0  0
   18.0171   39.0759   -9.1391 H   0  0  0  0  0  0
   16.5012   34.4929   -7.3557 H   0  0  0  0  0  0
   18.0482   36.5165  -11.8872 H   0  0  0  0  0  0
   14.1222   29.6116   -5.1887 H   0  0  0  0  0  0
   15.3011   30.8356   -5.5650 H   0  0  0  0  0  0
   16.3190   28.7092   -5.9650 H   0  0  0  0  0  0
   16.1010   29.4647   -7.5111 H   0  0  0  0  0  0
   15.4980   27.0348   -7.5520 H   0  0  0  0  0  0
   14.1010   28.0177   -7.9650 H   0  0  0  0  0  0
   14.2282   27.3151   -6.3651 H   0  0  0  0  0  0
   19.5603   36.6808   -9.5980 H   0  0  0  0  0  0
  1  2  1  0  0  0
  1  5  2  0  0  0
  1 21  1  0  0  0
  2  3  1  0  0  0
  2  6  1  0  0  0
  3  4  2  0  0  0
  3 22  1  0  0  0
  4  5  1  0  0  0
  4 23  1  0  0  0
  5  7  1  0  0  0
  6 18  1  0  0  0
  6 24  1  0  0  0
  6 25  1  0  0  0
  7  8  1  0  0  0
  7 26  1  0  0  0
  7 27  1  0  0  0
  8  9  1  0  0  0
  8 13  1  0  0  0
  8 14  1  0  0  0
  9 10  2  0  0  0
  9 11  1  0  0  0
  9 12  1  0  0  0
 11 28  1  0  0  0
 12 29  1  0  0  0
 13 30  1  0  0  0
 14 15  1  0  0  0
 14 16  2  0  0  0
 14 17  1  0  0  0
 15 31  1  0  0  0
 17 39  1  0  0  0
 18 19  1  0  0  0
 18 32  1  0  0  0
 18 33  1  0  0  0
 19 20  1  0  0  0
 19 34  1  0  0  0
 19 35  1  0  0  0
 20 36  1  0  0  0
 20 37  1  0  0  0
 20 38  1  0  0  0
M  CHG  1   5   1
M  END
> <s_m_entry_id>
3107

> <s_m_entry_name>
dock_pv.122

> <s_m_Source_Path>
/home/csk/Desktop/cluster/DUD-E-result/fpps

> <s_m_Source_File>
dock_pv.maegz

> <i_m_Source_File_Index>
122

> <chembl_id>
CHEMBL2338356

> <chembl_pref_name>
None

> <i_lp_mmshare_version>
53161

> <r_lp_tautomer_probability>
1

> <s_lp_Force_Field>
OPLS_2005

> <r_lp_Energy>
4.474839

> <b_lp_Chiralities_Consistent>
1

> <s_lp_Variant>
CHEMBL1782_lig185-1

> <s_i_glide_gridfile>
glide-grid_1zw5

> <i_i_glide_lignum>
209

> <i_i_glide_rotatable_bonds>
12

> <r_i_docking_score>
-7.93183966785503

> <r_i_glide_ligand_efficiency>
-0.396591983392751

> <r_i_glide_ligand_efficiency_sa>
-1.07651626524661

> <r_i_glide_ligand_efficiency_ln>
-1.98507785928312

> <r_i_glide_gscore>
-7.93183966785503

> <r_i_glide_lipo>
-0.590921676134823

> <r_i_glide_hbond>
0

> <r_i_glide_metal>
-2.3

> <r_i_glide_rewards>
-1.014519

> <r_i_glide_evdw>
-14.4800090789795

> <r_i_glide_ecoul>
-56.3904113769531

> <r_i_glide_erotb>
1.04037222740933

> <r_i_glide_esite>
-0.342770765180563

> <r_i_glide_emodel>
-104.27741039421

> <r_i_glide_energy>
-70.8704204559326

> <r_i_glide_einternal>
28.7735233306885

> <i_i_glide_confnum>
238

> <i_i_glide_posenum>
101

> <r_i_glide_eff_state_penalty>
0

> <s_user_duplicate_titles>
CHEMBL1782_lig185

> <i_f3d_flags>
0

> <s_m_subgroup_title>
dock_pv

> <s_m_subgroupid>
dock_pv

> <b_m_subgroup_collapsed>
1

$$$$
CHEMBL1782_lig150
                    3D
 Schrodinger Suite 2021-1.
 34 34  0  0  1  0            999 V2000
   16.3202   36.5011   -8.4394 P   0  0  0  0  0  0
   16.3568   35.6086  -10.1107 C   0  0  0  0  0  0
   18.0074   34.8717  -10.5717 P   0  0  0  0  0  0
   18.3135   35.3801  -12.1661 O   0  0  0  0  0  0
   18.1047   33.3791  -10.3650 O   0  0  0  0  0  0
   19.0342   35.7796   -9.5352 O   0  0  0  0  0  0
   16.5272   38.1762   -8.7952 O   0  0  0  0  0  0
   17.3000   35.9145   -7.4314 O   0  0  0  0  0  0
   14.6821   36.4030   -7.9642 O   0  0  0  0  0  0
   16.1012   36.5778  -11.1353 O   0  0  0  0  0  0
   15.3032   34.4485  -10.1476 C   0  0  0  0  0  0
   15.4559   33.2201   -9.1921 C   0  0  2  0  0  0
   15.4362   31.9685   -9.9575 N   0  0  1  0  0  0
   15.7007   30.7743   -9.1539 C   0  0  0  0  0  0
   14.6652   30.6334   -8.0223 C   0  0  0  0  0  0
   14.5526   31.9135   -7.1766 C   0  0  0  0  0  0
   14.3649   33.1383   -8.0900 C   0  0  0  0  0  0
   18.6372   36.3054  -12.3647 H   0  0  0  0  0  0
   19.6754   36.4306   -9.9021 H   0  0  0  0  0  0
   17.2738   38.6383   -9.2414 H   0  0  0  0  0  0
   13.9558   36.3146   -8.6204 H   0  0  0  0  0  0
   16.9620   36.8497  -11.4975 H   0  0  0  0  0  0
   14.3093   34.8209   -9.9654 H   0  0  0  0  0  0
   15.2958   34.0874  -11.1764 H   0  0  0  0  0  0
   16.4115   33.2771   -8.6710 H   0  0  0  0  0  0
   14.4969   31.8599  -10.3211 H   0  0  0  0  0  0
   16.7144   30.8116   -8.7596 H   0  0  0  0  0  0
   15.6490   29.9022   -9.8077 H   0  0  0  0  0  0
   14.9517   29.8000   -7.3788 H   0  0  0  0  0  0
   13.6993   30.3428   -8.4418 H   0  0  0  0  0  0
   15.4559   32.0395   -6.5778 H   0  0  0  0  0  0
   13.7234   31.8262   -6.4738 H   0  0  0  0  0  0
   14.3547   34.0408   -7.4834 H   0  0  0  0  0  0
   13.3794   33.0751   -8.5556 H   0  0  0  0  0  0
  1  9  1  0  0  0
  1  2  1  0  0  0
  1  7  1  0  0  0
  1  8  2  0  0  0
  2 10  1  0  0  0
  2  3  1  0  0  0
  2 11  1  0  0  0
  3  5  2  0  0  0
  3  6  1  0  0  0
  3  4  1  0  0  0
  4 18  1  0  0  0
  6 19  1  0  0  0
  7 20  1  0  0  0
  9 21  1  0  0  0
 10 22  1  0  0  0
 11 12  1  0  0  0
 11 23  1  0  0  0
 11 24  1  0  0  0
 12 13  1  0  0  0
 12 17  1  0  0  0
 12 25  1  0  0  0
 13 14  1  0  0  0
 13 26  1  0  0  0
 14 15  1  0  0  0
 14 27  1  0  0  0
 14 28  1  0  0  0
 15 16  1  0  0  0
 15 29  1  0  0  0
 15 30  1  0  0  0
 16 17  1  0  0  0
 16 31  1  0  0  0
 16 32  1  0  0  0
 17 33  1  0  0  0
 17 34  1  0  0  0
M  END
> <s_m_entry_id>
3108

> <s_m_entry_name>
dock_pv.123

> <s_m_Source_Path>
/home/csk/Desktop/cluster/DUD-E-result/fpps

> <s_m_Source_File>
dock_pv.maegz

> <i_m_Source_File_Index>
123

> <chembl_id>
CHEMBL259729

> <chembl_pref_name>
None

> <i_lp_mmshare_version>
53161

> <r_lp_tautomer_probability>
1

> <s_lp_Force_Field>
OPLS_2005

> <r_lp_Energy>
1.749673

> <b_lp_Chiralities_Consistent>
1

> <s_lp_Variant>
CHEMBL1782_lig150-1

> <s_i_glide_gridfile>
glide-grid_1zw5

> <i_i_glide_lignum>
169

> <i_i_glide_rotatable_bonds>
9

> <r_i_docking_score>
-7.91925805929189

> <r_i_glide_ligand_efficiency>
-0.465838709370111

> <r_i_glide_ligand_efficiency_sa>
-1.19780249648815

> <r_i_glide_ligand_efficiency_ln>
-2.0659580744629

> <r_i_glide_gscore>
-7.91925805929189

> <r_i_glide_lipo>
0

> <r_i_glide_hbond>
0

> <r_i_glide_metal>
-2.3

> <r_i_glide_rewards>
-1.43754613636364

> <r_i_glide_evdw>
-12.6974868774414

> <r_i_glide_ecoul>
-59.6067428588867

> <r_i_glide_erotb>
0.653162420943816

> <r_i_glide_esite>
-0.2

> <r_i_glide_emodel>
-119.982544996508

> <r_i_glide_energy>
-72.3042297363281

> <r_i_glide_einternal>
23.5532550811768

> <i_i_glide_confnum>
16

> <i_i_glide_posenum>
345

> <r_i_glide_eff_state_penalty>
0

> <s_user_duplicate_titles>
CHEMBL1782_lig150,428702

> <i_f3d_flags>
0

> <s_m_subgroup_title>
dock_pv

> <s_m_subgroupid>
dock_pv

> <b_m_subgroup_collapsed>
1

$$$$
CHEMBL1782_lig151
                    3D
 Schrodinger Suite 2021-1.
 32 32  0  0  1  0            999 V2000
   16.2525   35.3185  -10.0997 C   0  0  0  0  0  0
   16.2596   36.4693   -8.5916 P   0  0  0  0  0  0
   17.9115   34.5014  -10.3037 P   0  0  0  0  0  0
   15.1713   30.7225   -8.4239 N   0  3  0  0  0  0
   15.1522   34.1802  -10.0464 C   0  0  0  0  0  0
   18.1010   33.4180  -11.3229 O   0  0  0  0  0  0
   17.3010   36.0861   -7.5497 O   0  0  0  0  0  0
   16.1010   36.1551  -11.2574 O   0  0  0  0  0  0
   15.1707   31.7154   -9.3485 C   0  0  0  0  0  0
   15.2207   33.0700   -8.9711 C   0  0  0  0  0  0
   19.0368   35.7800  -10.3650 O   0  0  0  0  0  0
   16.4268   38.0414   -9.2417 O   0  0  0  0  0  0
   18.0876   33.7800   -8.7650 O   0  0  0  0  0  0
   14.6480   36.4215   -8.0181 O   0  0  0  0  0  0
   15.1945   30.9870   -7.0996 C   0  0  0  0  0  0
   15.0759   29.3150   -8.8569 C   0  0  0  0  0  0
   15.2318   32.3107   -6.6658 C   0  0  0  0  0  0
   15.2215   33.3490   -7.5959 C   0  0  0  0  0  0
   14.1447   34.5800   -9.9650 H   0  0  0  0  0  0
   15.1613   33.6857  -11.0195 H   0  0  0  0  0  0
   16.9724   36.3507  -11.6376 H   0  0  0  0  0  0
   15.0976   31.3831  -10.3650 H   0  0  0  0  0  0
   19.0697   36.4974  -11.0506 H   0  0  0  0  0  0
   17.2229   38.4345   -9.6682 H   0  0  0  0  0  0
   17.3194   33.3412   -8.3107 H   0  0  0  0  0  0
   13.8844   36.3121   -8.6299 H   0  0  0  0  0  0
   15.1884   30.1382   -6.4273 H   0  0  0  0  0  0
   15.4192   29.2173   -9.8882 H   0  0  0  0  0  0
   15.7010   28.7033   -8.2046 H   0  0  0  0  0  0
   14.0304   29.0195   -8.7650 H   0  0  0  0  0  0
   15.3010   32.5364   -5.6125 H   0  0  0  0  0  0
   15.2182   34.3503   -7.2069 H   0  0  0  0  0  0
  1  2  1  0  0  0
  1  3  1  0  0  0
  1  5  1  0  0  0
  1  8  1  0  0  0
  2  7  2  0  0  0
  2 12  1  0  0  0
  2 14  1  0  0  0
  3  6  2  0  0  0
  3 11  1  0  0  0
  3 13  1  0  0  0
  4  9  2  0  0  0
  4 16  1  0  0  0
  4 15  1  0  0  0
  5 10  1  0  0  0
  5 19  1  0  0  0
  5 20  1  0  0  0
  8 21  1  0  0  0
  9 10  1  0  0  0
  9 22  1  0  0  0
 10 18  2  0  0  0
 11 23  1  0  0  0
 12 24  1  0  0  0
 13 25  1  0  0  0
 14 26  1  0  0  0
 15 17  2  0  0  0
 15 27  1  0  0  0
 16 28  1  0  0  0
 16 29  1  0  0  0
 16 30  1  0  0  0
 17 18  1  0  0  0
 17 31  1  0  0  0
 18 32  1  0  0  0
M  CHG  1   4   1
M  END
> <s_m_entry_id>
3109

> <s_m_entry_name>
dock_pv.124

> <s_m_Source_Path>
/home/csk/Desktop/cluster/DUD-E-result/fpps

> <s_m_Source_File>
dock_pv.maegz

> <i_m_Source_File_Index>
124

> <chembl_id>
CHEMBL99553

> <chembl_pref_name>
None

> <i_lp_mmshare_version>
53161

> <r_lp_tautomer_probability>
1

> <s_lp_Force_Field>
OPLS_2005

> <r_lp_Energy>
7.538033

> <b_lp_Chiralities_Consistent>
1

> <s_lp_Variant>
CHEMBL1782_lig151-1

> <s_i_glide_gridfile>
glide-grid_1zw5

> <i_i_glide_lignum>
171

> <i_i_glide_rotatable_bonds>
9

> <r_i_docking_score>
-7.9174850364522

> <r_i_glide_ligand_efficiency>
-0.4398602798029

> <r_i_glide_ligand_efficiency_sa>
-1.15276004183713

> <r_i_glide_ligand_efficiency_ln>
-2.03514870278973

> <r_i_glide_gscore>
-7.9174850364522

> <r_i_glide_lipo>
-0.143478709096794

> <r_i_glide_hbond>
-0.146705769883433

> <r_i_glide_metal>
-2.08229185100498

> <r_i_glide_rewards>
-1.52627195454545

> <r_i_glide_evdw>
-12.936863899231

> <r_i_glide_ecoul>
-43.242431640625

> <r_i_glide_erotb>
0.825567798152169

> <r_i_glide_esite>
-0.197461355112158

> <r_i_glide_emodel>
-97.1253109115539

> <r_i_glide_energy>
-56.179295539856

> <r_i_glide_einternal>
7.80842590332031

> <i_i_glide_confnum>
49

> <i_i_glide_posenum>
155

> <r_i_glide_eff_state_penalty>
0

> <s_user_duplicate_titles>
CHEMBL1782_lig151,161740

> <i_f3d_flags>
0

> <s_m_subgroup_title>
dock_pv

> <s_m_subgroupid>
dock_pv

> <b_m_subgroup_collapsed>
1

$$$$
CHEMBL1782_lig129
                    3D
 Schrodinger Suite 2021-1.
 38 37  0  0  1  0            999 V2000
   15.0028   33.9613   -9.4448 C   0  0  0  0  0  0
   16.2928   34.7393   -9.0454 C   0  0  0  0  0  0
   16.0643   35.9418   -7.6242 P   0  0  0  0  0  0
   17.0061   35.5611  -10.5622 P   0  0  0  0  0  0
   18.4731   36.1800   -9.9650 O   0  0  0  0  0  0
   17.4868   34.2466  -11.5333 O   0  0  0  0  0  0
   16.1010   36.5800  -11.2246 O   0  0  0  0  0  0
   17.7010   36.4157   -7.3133 O   0  0  0  0  0  0
   15.2210   37.2243   -8.3650 O   0  0  0  0  0  0
   15.3645   35.4190   -6.3925 O   0  0  0  0  0  0
   13.8988   33.3331   -8.1419 S   0  3  2  0  0  0
   14.7679   31.8338   -7.6354 C   0  0  0  0  0  0
   13.9388   30.9585   -6.6857 C   0  0  0  0  0  0
   14.7648   29.8955   -5.9446 C   0  0  0  0  0  0
   15.4523   28.8807   -6.8682 C   0  0  0  0  0  0
   14.4937   28.0153   -7.6830 C   0  0  0  0  0  0
   12.5514   32.6292   -9.1231 C   0  0  0  0  0  0
   15.2715   33.1228  -10.0890 H   0  0  0  0  0  0
   14.3640   34.5800  -10.0641 H   0  0  0  0  0  0
   17.0200   33.9972   -8.7020 H   0  0  0  0  0  0
   17.8654   34.4222  -12.4200 H   0  0  0  0  0  0
   17.9260   37.3795   -7.3468 H   0  0  0  0  0  0
   14.3675   37.1113   -8.8416 H   0  0  0  0  0  0
   15.6845   32.1520   -7.1362 H   0  0  0  0  0  0
   15.0658   31.2601   -8.5137 H   0  0  0  0  0  0
   13.1354   30.4710   -7.2378 H   0  0  0  0  0  0
   13.4280   31.5925   -5.9650 H   0  0  0  0  0  0
   14.1124   29.3800   -5.2389 H   0  0  0  0  0  0
   15.5319   30.3806   -5.3382 H   0  0  0  0  0  0
   16.1010   28.2310   -6.2823 H   0  0  0  0  0  0
   16.1010   29.4119   -7.5599 H   0  0  0  0  0  0
   15.0556   27.3800   -8.3650 H   0  0  0  0  0  0
   13.8283   28.6184   -8.2985 H   0  0  0  0  0  0
   13.8800   27.3800   -7.0432 H   0  0  0  0  0  0
   11.9628   33.4323   -9.5650 H   0  0  0  0  0  0
   12.9326   31.9837   -9.9142 H   0  0  0  0  0  0
   11.8827   32.0387   -8.4973 H   0  0  0  0  0  0
   18.9010   36.9047  -10.4946 H   0  0  0  0  0  0
  1 11  1  0  0  0
  1  2  1  0  0  0
  1 18  1  0  0  0
  1 19  1  0  0  0
  2  3  1  0  0  0
  2  4  1  0  0  0
  2 20  1  0  0  0
  3  9  1  0  0  0
  3 10  2  0  0  0
  3  8  1  0  0  0
  4  5  1  0  0  0
  4  6  1  0  0  0
  4  7  2  0  0  0
  5 38  1  0  0  0
  6 21  1  0  0  0
  8 22  1  0  0  0
  9 23  1  0  0  0
 11 12  1  0  0  0
 11 17  1  0  0  0
 12 13  1  0  0  0
 12 24  1  0  0  0
 12 25  1  0  0  0
 13 14  1  0  0  0
 13 26  1  0  0  0
 13 27  1  0  0  0
 14 15  1  0  0  0
 14 28  1  0  0  0
 14 29  1  0  0  0
 15 16  1  0  0  0
 15 30  1  0  0  0
 15 31  1  0  0  0
 16 32  1  0  0  0
 16 33  1  0  0  0
 16 34  1  0  0  0
 17 35  1  0  0  0
 17 36  1  0  0  0
 17 37  1  0  0  0
M  CHG  1  11   1
M  END
> <s_m_entry_id>
3111

> <s_m_entry_name>
dock_pv.126

> <s_m_Source_Path>
/home/csk/Desktop/cluster/DUD-E-result/fpps

> <s_m_Source_File>
dock_pv.maegz

> <i_m_Source_File_Index>
126

> <chembl_id>
CHEMBL392884

> <chembl_pref_name>
None

> <i_lp_mmshare_version>
53161

> <r_lp_tautomer_probability>
1

> <s_lp_Force_Field>
OPLS_2005

> <r_lp_Energy>
-6.875508

> <b_lp_Chiralities_Consistent>
1

> <s_lp_Variant>
CHEMBL1782_lig129-1

> <s_i_glide_gridfile>
glide-grid_1zw5

> <i_i_glide_lignum>
141

> <i_i_glide_rotatable_bonds>
12

> <r_i_docking_score>
-7.87438467270265

> <r_i_glide_ligand_efficiency>
-0.463199098394274

> <r_i_glide_ligand_efficiency_sa>
-1.19101531338589

> <r_i_glide_ligand_efficiency_ln>
-2.05425160718296

> <r_i_glide_gscore>
-7.87438467270265

> <r_i_glide_lipo>
-0.628767066377183

> <r_i_glide_hbond>
-0.150331547371217

> <r_i_glide_metal>
-2.3

> <r_i_glide_rewards>
-1.01412095454545

> <r_i_glide_evdw>
-18.2624378204346

> <r_i_glide_ecoul>
-36.5576972961426

> <r_i_glide_erotb>
1.37050535514354

> <r_i_glide_esite>
-0.238548568530605

> <r_i_glide_emodel>
-90.0483843572443

> <r_i_glide_energy>
-54.8201351165771

> <r_i_glide_einternal>
17.6357192993164

> <i_i_glide_confnum>
72

> <i_i_glide_posenum>
204

> <r_i_glide_eff_state_penalty>
0

> <s_user_duplicate_titles>
CHEMBL1782_lig129

> <i_f3d_flags>
0

> <s_m_subgroup_title>
dock_pv

> <s_m_subgroupid>
dock_pv

> <b_m_subgroup_collapsed>
1

$$$$
CHEMBL1782_lig141
                    3D
 Schrodinger Suite 2021-1.
 27 27  0  0  1  0            999 V2000
   14.5574   31.6255   -7.3496 C   0  0  0  0  0  0
   15.0081   30.7454   -8.3354 C   0  0  0  0  0  0
   15.4560   31.1643   -9.5457 N   0  0  0  0  0  0
   15.4548   32.4978   -9.7898 C   0  0  0  0  0  0
   15.0458   33.4571   -8.8571 C   0  0  0  0  0  0
   14.5733   32.9964   -7.6207 C   0  0  0  0  0  0
   15.0460   34.9449   -9.2204 C   0  0  0  0  0  0
   16.2943   35.7906   -8.8239 C   0  0  0  0  0  0
   17.8172   35.2443   -9.6745 P   0  0  0  0  0  0
   16.0809   37.6056   -9.0641 P   0  0  0  0  0  0
   17.5485   38.2194   -8.4972 O   0  0  0  0  0  0
   17.6699   35.7800  -11.2670 O   0  0  0  0  0  0
   18.1010   33.7800   -9.5650 O   0  0  0  0  0  0
   18.9517   36.1558   -8.7650 O   0  0  0  0  0  0
   16.1010   37.8360  -10.7650 O   0  0  0  0  0  0
   14.9010   38.1800   -8.3650 O   0  0  0  0  0  0
   16.5078   35.5831   -6.8510 Br  0  0  0  0  0  0
   14.1961   31.2508   -6.4027 H   0  0  0  0  0  0
   15.0062   29.6772   -8.1682 H   0  0  0  0  0  0
   15.8015   32.7957  -10.7650 H   0  0  0  0  0  0
   14.2115   33.6884   -6.8756 H   0  0  0  0  0  0
   14.1524   35.3800   -8.7650 H   0  0  0  0  0  0
   14.9010   34.9800  -10.2993 H   0  0  0  0  0  0
   17.7220   39.1855   -8.5876 H   0  0  0  0  0  0
   18.1991   36.5547  -11.6032 H   0  0  0  0  0  0
   19.3729   36.9722   -9.1286 H   0  0  0  0  0  0
   16.9010   38.2999  -11.1353 H   0  0  0  0  0  0
  1  6  1  0  0  0
  1  2  2  0  0  0
  1 18  1  0  0  0
  2  3  1  0  0  0
  2 19  1  0  0  0
  3  4  2  0  0  0
  4  5  1  0  0  0
  4 20  1  0  0  0
  5  6  2  0  0  0
  5  7  1  0  0  0
  6 21  1  0  0  0
  7  8  1  0  0  0
  7 22  1  0  0  0
  7 23  1  0  0  0
  8  9  1  0  0  0
  8 10  1  0  0  0
  8 17  1  0  0  0
  9 12  1  0  0  0
  9 13  2  0  0  0
  9 14  1  0  0  0
 10 11  1  0  0  0
 10 15  1  0  0  0
 10 16  2  0  0  0
 11 24  1  0  0  0
 12 25  1  0  0  0
 14 26  1  0  0  0
 15 27  1  0  0  0
M  END
> <s_m_entry_id>
3112

> <s_m_entry_name>
dock_pv.127

> <s_m_Source_Path>
/home/csk/Desktop/cluster/DUD-E-result/fpps

> <s_m_Source_File>
dock_pv.maegz

> <i_m_Source_File_Index>
127

> <chembl_id>
CHEMBL394759

> <chembl_pref_name>
None

> <i_lp_mmshare_version>
53161

> <r_lp_tautomer_probability>
1

> <s_lp_Force_Field>
OPLS_2005

> <r_lp_Energy>
1.867456

> <b_lp_Chiralities_Consistent>
1

> <s_lp_Variant>
CHEMBL1782_lig141-1

> <s_i_glide_gridfile>
glide-grid_1zw5

> <i_i_glide_lignum>
153

> <i_i_glide_rotatable_bonds>
8

> <r_i_docking_score>
-7.86975802271909

> <r_i_glide_ligand_efficiency>
-0.462926942512887

> <r_i_glide_ligand_efficiency_sa>
-1.19031552397895

> <r_i_glide_ligand_efficiency_ln>
-2.05304461723268

> <r_i_glide_gscore>
-7.86975802271909

> <r_i_glide_lipo>
0

> <r_i_glide_hbond>
-0.000368753870830594

> <r_i_glide_metal>
-2.3

> <r_i_glide_rewards>
-1.19993918181818

> <r_i_glide_evdw>
-12.9144735336304

> <r_i_glide_ecoul>
-52.9599418640137

> <r_i_glide_erotb>
0.476273589651444

> <r_i_glide_esite>
-0.2

> <r_i_glide_emodel>
-105.913545262718

> <r_i_glide_energy>
-65.874415397644

> <r_i_glide_einternal>
21.9203319549561

> <i_i_glide_confnum>
2

> <i_i_glide_posenum>
139

> <r_i_glide_eff_state_penalty>
0

> <s_user_duplicate_titles>
CHEMBL1782_lig141,404497

> <i_f3d_flags>
0

> <s_m_subgroup_title>
dock_pv

> <s_m_subgroupid>
dock_pv

> <b_m_subgroup_collapsed>
1

$$$$
CHEMBL1782_lig182
                    3D
 Schrodinger Suite 2021-1.
 30 30  0  0  1  0            999 V2000
   14.9777   31.2730   -9.1493 C   0  0  0  0  0  0
   14.1023   30.5503   -8.3656 N   0  0  0  0  0  0
   13.0112   31.3643   -8.1067 C   0  0  0  0  0  0
   13.2527   32.6067   -8.6792 C   0  0  0  0  0  0
   14.4807   32.5552   -9.3225 N   0  3  0  0  0  0
   14.2646   29.1672   -7.9532 C   0  0  0  0  0  0
   15.0708   33.6388  -10.1079 C   0  0  0  0  0  0
   16.3127   34.3300   -9.4732 C   0  0  0  0  0  0
   17.0630   35.4969  -10.7288 P   0  0  0  0  0  0
   16.1010   36.5800  -11.1650 O   0  0  0  0  0  0
   18.4574   36.0462   -9.9044 O   0  0  0  0  0  0
   17.6137   34.4683  -11.9650 O   0  0  0  0  0  0
   17.3010   33.3483   -9.1650 O   0  0  0  0  0  0
   16.0047   35.2810   -7.8846 P   0  0  0  0  0  0
   14.9010   36.5012   -8.3626 O   0  0  0  0  0  0
   17.3010   35.7800   -7.2611 O   0  0  0  0  0  0
   15.1497   34.1800   -6.8947 O   0  0  0  0  0  0
   15.8930   30.8754   -9.5650 H   0  0  0  0  0  0
   12.1588   30.9800   -7.5650 H   0  0  0  0  0  0
   12.6339   33.4944   -8.7294 H   0  0  0  0  0  0
   14.6940   28.5800   -8.7650 H   0  0  0  0  0  0
   14.9268   29.1245   -7.0879 H   0  0  0  0  0  0
   13.3010   28.7439   -7.6682 H   0  0  0  0  0  0
   14.2913   34.3763  -10.2908 H   0  0  0  0  0  0
   15.3185   33.2277  -11.0865 H   0  0  0  0  0  0
   18.9010   36.8656  -10.2323 H   0  0  0  0  0  0
   17.9550   34.8391  -12.8055 H   0  0  0  0  0  0
   16.9010   32.7428   -8.5219 H   0  0  0  0  0  0
   14.3671   36.5224   -9.1955 H   0  0  0  0  0  0
   14.7143   33.3645   -7.2126 H   0  0  0  0  0  0
  1  2  1  0  0  0
  1  5  2  0  0  0
  1 18  1  0  0  0
  2  3  1  0  0  0
  2  6  1  0  0  0
  3  4  2  0  0  0
  3 19  1  0  0  0
  4  5  1  0  0  0
  4 20  1  0  0  0
  5  7  1  0  0  0
  6 21  1  0  0  0
  6 22  1  0  0  0
  6 23  1  0  0  0
  7  8  1  0  0  0
  7 24  1  0  0  0
  7 25  1  0  0  0
  8  9  1  0  0  0
  8 13  1  0  0  0
  8 14  1  0  0  0
  9 10  2  0  0  0
  9 11  1  0  0  0
  9 12  1  0  0  0
 11 26  1  0  0  0
 12 27  1  0  0  0
 13 28  1  0  0  0
 14 15  1  0  0  0
 14 16  2  0  0  0
 14 17  1  0  0  0
 15 29  1  0  0  0
 17 30  1  0  0  0
M  CHG  1   5   1
M  END
> <s_m_entry_id>
3113

> <s_m_entry_name>
dock_pv.128

> <s_m_Source_Path>
/home/csk/Desktop/cluster/DUD-E-result/fpps

> <s_m_Source_File>
dock_pv.maegz

> <i_m_Source_File_Index>
128

> <chembl_id>
CHEMBL2338353

> <chembl_pref_name>
None

> <i_lp_mmshare_version>
53161

> <r_lp_tautomer_probability>
1

> <s_lp_Force_Field>
OPLS_2005

> <r_lp_Energy>
-1.578431

> <b_lp_Chiralities_Consistent>
1

> <s_lp_Variant>
CHEMBL1782_lig182-1

> <s_i_glide_gridfile>
glide-grid_1zw5

> <i_i_glide_lignum>
206

> <i_i_glide_rotatable_bonds>
9

> <r_i_docking_score>
-7.85123729430053

> <r_i_glide_ligand_efficiency>
-0.461837487900031

> <r_i_glide_ligand_efficiency_sa>
-1.1875142293917

> <r_i_glide_ligand_efficiency_ln>
-2.04821297162462

> <r_i_glide_gscore>
-7.85123729430053

> <r_i_glide_lipo>
-0.0343612752282974

> <r_i_glide_hbond>
0

> <r_i_glide_metal>
-2.3

> <r_i_glide_rewards>
-1.15142631818182

> <r_i_glide_evdw>
-17.7330188751221

> <r_i_glide_ecoul>
-44.75390625

> <r_i_glide_erotb>
0.881670103789772

> <r_i_glide_esite>
-0.360468860924085

> <r_i_glide_emodel>
-99.0057343901494

> <r_i_glide_energy>
-62.4869251251221

> <r_i_glide_einternal>
18.4515380859375

> <i_i_glide_confnum>
44

> <i_i_glide_posenum>
255

> <r_i_glide_eff_state_penalty>
0

> <s_user_duplicate_titles>
CHEMBL1782_lig182

> <i_f3d_flags>
0

> <s_m_subgroup_title>
dock_pv

> <s_m_subgroupid>
dock_pv

> <b_m_subgroup_collapsed>
1

$$$$
CHEMBL1782_lig248
                    3D
 Schrodinger Suite 2021-1.
 29 29  0  0  1  0            999 V2000
   15.1902   34.3498   -9.8256 N   0  0  0  0  0  0
   15.7010   35.6112   -9.2654 C   0  0  0  0  0  0
   16.9074   36.2667  -10.0009 C   0  0  0  0  0  0
   17.6714   37.3800   -8.7127 P   0  0  0  0  0  0
   18.0615   34.9373  -10.5690 P   0  0  0  0  0  0
   16.5010   36.9917  -11.1650 O   0  0  0  0  0  0
   18.9578   38.0797   -9.5650 O   0  0  0  0  0  0
   18.1010   36.5800   -7.4958 O   0  0  0  0  0  0
   16.4965   38.5800   -8.4246 O   0  0  0  0  0  0
   18.1010   33.7800   -9.5922 O   0  0  0  0  0  0
   17.4994   34.5800  -12.1331 O   0  0  0  0  0  0
   19.5665   35.7093  -10.7650 O   0  0  0  0  0  0
   14.9211   33.2103   -9.0505 C   0  0  0  0  0  0
   14.4338   32.1472   -9.7395 N   0  0  0  0  0  0
   14.1642   31.0226   -9.0242 C   0  0  0  0  0  0
   14.3887   30.9393   -7.6497 C   0  0  0  0  0  0
   14.9010   32.0781   -7.0282 C   0  0  0  0  0  0
   15.1681   33.2218   -7.7106 N   0  0  0  0  0  0
   14.9268   34.3029  -10.7952 H   0  0  0  0  0  0
   15.9980   35.4161   -8.2364 H   0  0  0  0  0  0
   14.9010   36.3376   -9.1650 H   0  0  0  0  0  0
   17.3102   37.3614  -11.5826 H   0  0  0  0  0  0
   18.9476   38.1800  -10.5575 H   0  0  0  0  0  0
   16.6924   39.4999   -8.7285 H   0  0  0  0  0  0
   17.0217   35.2381  -12.6754 H   0  0  0  0  0  0
   19.6529   36.6484  -11.0579 H   0  0  0  0  0  0
   13.7585   30.1800   -9.5650 H   0  0  0  0  0  0
   14.1751   30.0353   -7.0968 H   0  0  0  0  0  0
   15.1240   32.0825   -5.9714 H   0  0  0  0  0  0
  1  2  1  0  0  0
  1 13  1  0  0  0
  1 19  1  0  0  0
  2  3  1  0  0  0
  2 20  1  0  0  0
  2 21  1  0  0  0
  3  4  1  0  0  0
  3  5  1  0  0  0
  3  6  1  0  0  0
  4  7  1  0  0  0
  4  8  2  0  0  0
  4  9  1  0  0  0
  5 10  2  0  0  0
  5 11  1  0  0  0
  5 12  1  0  0  0
  6 22  1  0  0  0
  7 23  1  0  0  0
  9 24  1  0  0  0
 11 25  1  0  0  0
 12 26  1  0  0  0
 13 14  2  0  0  0
 13 18  1  0  0  0
 14 15  1  0  0  0
 15 16  2  0  0  0
 15 27  1  0  0  0
 16 17  1  0  0  0
 16 28  1  0  0  0
 17 18  2  0  0  0
 17 29  1  0  0  0
M  END
> <s_m_entry_id>
3114

> <s_m_entry_name>
dock_pv.129

> <s_m_Source_Path>
/home/csk/Desktop/cluster/DUD-E-result/fpps

> <s_m_Source_File>
dock_pv.maegz

> <i_m_Source_File_Index>
129

> <chembl_id>
CHEMBL4283512

> <chembl_pref_name>
None

> <i_lp_mmshare_version>
53161

> <r_lp_tautomer_probability>
0.999999987636

> <s_lp_Force_Field>
OPLS_2005

> <r_lp_Energy>
0.338057

> <b_lp_Chiralities_Consistent>
1

> <s_lp_Variant>
CHEMBL1782_lig248-1

> <s_i_glide_gridfile>
glide-grid_1zw5

> <i_i_glide_lignum>
289

> <i_i_glide_rotatable_bonds>
10

> <r_i_docking_score>
-7.82975451280671

> <r_i_glide_ligand_efficiency>
-0.434986361822595

> <r_i_glide_ligand_efficiency_sa>
-1.13998676324648

> <r_i_glide_ligand_efficiency_ln>
-2.01259802406156

> <r_i_glide_gscore>
-7.82975451280671

> <r_i_glide_lipo>
0

> <r_i_glide_hbond>
0

> <r_i_glide_metal>
-2.3

> <r_i_glide_rewards>
-1.51967072581484

> <r_i_glide_evdw>
-10.0813941955566

> <r_i_glide_ecoul>
-62.9886283874512

> <r_i_glide_erotb>
0.820899392933812

> <r_i_glide_esite>
-0.326913470147852

> <r_i_glide_emodel>
-122.596062442372

> <r_i_glide_energy>
-73.0700225830078

> <r_i_glide_einternal>
25.0022563934326

> <i_i_glide_confnum>
19

> <i_i_glide_posenum>
106

> <r_i_glide_eff_state_penalty>
0

> <s_user_duplicate_titles>
CHEMBL1782_lig248

> <i_f3d_flags>
0

> <s_m_subgroup_title>
dock_pv

> <s_m_subgroupid>
dock_pv

> <b_m_subgroup_collapsed>
1

$$$$
CHEMBL1782_lig176
                    3D
 Schrodinger Suite 2021-1.
 44 46  0  0  1  0            999 V2000
   17.3776   36.6722   -8.2431 C   0  0  0  0  0  0
   16.0588   37.6163   -9.0964 P   0  0  0  0  0  0
   18.9332   37.6348   -8.0338 P   0  0  0  0  0  0
   17.7010   35.4149   -8.9591 N   0  0  0  0  0  0
   16.1010   37.6019  -10.6183 O   0  0  0  0  0  0
   18.7722   39.0489   -7.5454 O   0  0  0  0  0  0
   16.4715   32.1906   -9.9521 C   0  0  0  0  0  0
   14.6733   36.9553   -8.3650 O   0  0  0  0  0  0
   16.1010   39.1403   -8.3650 O   0  0  0  0  0  0
   19.7010   36.5800   -6.9027 O   0  0  0  0  0  0
   19.6684   37.4328   -9.5650 O   0  0  0  0  0  0
   16.8753   34.2817   -9.0161 C   0  0  0  0  0  0
   17.3010   33.2637   -9.8113 N   0  0  0  0  0  0
   15.2206   32.1041   -9.3305 C   0  0  0  0  0  0
   15.6913   34.2036   -8.2914 C   0  0  0  0  0  0
   14.8091   33.1363   -8.4757 C   0  0  0  0  0  0
   13.4672   33.1863   -7.8197 C   0  0  0  0  0  0
   13.3144   33.8408   -6.5917 C   0  0  0  0  0  0
   12.0592   34.0551   -6.0424 C   0  0  0  0  0  0
   10.9147   33.5839   -6.6941 C   0  0  0  0  0  0
   11.0600   32.8736   -7.8867 C   0  0  0  0  0  0
   12.3234   32.6751   -8.4450 C   0  0  0  0  0  0
    9.6341   33.7800   -6.2140 O   0  0  0  0  0  0
    9.4610   34.5865   -5.0561 C   0  0  0  0  0  0
    9.2635   36.0680   -5.2550 C   0  0  0  0  0  0
    8.1009   35.1874   -4.8432 C   0  0  0  0  0  0
   17.0417   36.4044   -7.2405 H   0  0  0  0  0  0
   18.2375   35.5672   -9.8140 H   0  0  0  0  0  0
   16.8113   31.3808  -10.5824 H   0  0  0  0  0  0
   13.8266   36.9205   -8.8765 H   0  0  0  0  0  0
   16.8160   39.7800   -8.6200 H   0  0  0  0  0  0
   20.4020   36.9801   -6.3216 H   0  0  0  0  0  0
   19.3269   37.7800  -10.4412 H   0  0  0  0  0  0
   14.5892   31.2425   -9.5004 H   0  0  0  0  0  0
   15.4200   34.9930   -7.6182 H   0  0  0  0  0  0
   14.1738   34.2065   -6.0536 H   0  0  0  0  0  0
   11.9964   34.5796   -5.1039 H   0  0  0  0  0  0
   10.1887   32.4945   -8.4000 H   0  0  0  0  0  0
   12.3984   32.1655   -9.3952 H   0  0  0  0  0  0
    9.9810   34.1800   -4.1875 H   0  0  0  0  0  0
    9.7031   36.7501   -4.5272 H   0  0  0  0  0  0
    9.3082   36.4560   -6.2736 H   0  0  0  0  0  0
    7.3180   34.9588   -5.5650 H   0  0  0  0  0  0
    7.7215   35.2446   -3.8227 H   0  0  0  0  0  0
  1  2  1  0  0  0
  1  3  1  0  0  0
  1  4  1  0  0  0
  1 27  1  0  0  0
  2  5  2  0  0  0
  2  8  1  0  0  0
  2  9  1  0  0  0
  3 11  1  0  0  0
  3  6  2  0  0  0
  3 10  1  0  0  0
  4 12  1  0  0  0
  4 28  1  0  0  0
  7 14  1  0  0  0
  7 13  2  0  0  0
  7 29  1  0  0  0
  8 30  1  0  0  0
  9 31  1  0  0  0
 10 32  1  0  0  0
 11 33  1  0  0  0
 12 13  1  0  0  0
 12 15  2  0  0  0
 14 16  2  0  0  0
 14 34  1  0  0  0
 15 16  1  0  0  0
 15 35  1  0  0  0
 16 17  1  0  0  0
 17 18  2  0  0  0
 17 22  1  0  0  0
 18 19  1  0  0  0
 18 36  1  0  0  0
 19 20  2  0  0  0
 19 37  1  0  0  0
 20 21  1  0  0  0
 20 23  1  0  0  0
 21 22  2  0  0  0
 21 38  1  0  0  0
 22 39  1  0  0  0
 23 24  1  0  0  0
 24 25  1  0  0  0
 24 26  1  0  0  0
 24 40  1  0  0  0
 25 26  1  0  0  0
 25 41  1  0  0  0
 25 42  1  0  0  0
 26 43  1  0  0  0
 26 44  1  0  0  0
M  END
> <s_m_entry_id>
3115

> <s_m_entry_name>
dock_pv.130

> <s_m_Source_Path>
/home/csk/Desktop/cluster/DUD-E-result/fpps

> <s_m_Source_File>
dock_pv.maegz

> <i_m_Source_File_Index>
130

> <chembl_id>
CHEMBL2088336

> <chembl_pref_name>
None

> <i_lp_mmshare_version>
53161

> <r_lp_tautomer_probability>
0.999999772200052

> <s_lp_Force_Field>
OPLS_2005

> <r_lp_Energy>
7.22093

> <b_lp_Chiralities_Consistent>
1

> <s_lp_Variant>
CHEMBL1782_lig176-1

> <s_i_glide_gridfile>
glide-grid_1zw5

> <i_i_glide_lignum>
200

> <i_i_glide_rotatable_bonds>
11

> <r_i_docking_score>
-7.81694594311366

> <r_i_glide_ligand_efficiency>
-0.300651767042833

> <r_i_glide_ligand_efficiency_sa>
-0.890679676856814

> <r_i_glide_ligand_efficiency_ln>
-1.83578410524854

> <r_i_glide_gscore>
-7.81694594311366

> <r_i_glide_lipo>
-0.0344595032829661

> <r_i_glide_hbond>
-0.109123812742192

> <r_i_glide_metal>
-2.3

> <r_i_glide_rewards>
-0.679937992778099

> <r_i_glide_evdw>
-24.9984340667725

> <r_i_glide_ecoul>
-49.2852973937988

> <r_i_glide_erotb>
0.856497069028224

> <r_i_glide_esite>
-0.3

> <r_i_glide_emodel>
-115.068085077513

> <r_i_glide_energy>
-74.2837314605713

> <r_i_glide_einternal>
23.0358200073242

> <i_i_glide_confnum>
124

> <i_i_glide_posenum>
247

> <r_i_glide_eff_state_penalty>
0

> <s_user_duplicate_titles>
CHEMBL1782_lig176

> <i_f3d_flags>
0

> <s_m_subgroup_title>
dock_pv

> <s_m_subgroupid>
dock_pv

> <b_m_subgroup_collapsed>
1

$$$$
CHEMBL1782_lig33
                    3D
 Schrodinger Suite 2021-1.
 50 50  0  0  1  0            999 V2000
   16.4537   35.6861   -8.9113 C   0  0  0  0  0  0
   17.3397   34.7616  -10.2967 P   0  0  0  0  0  0
   16.2462   37.4862   -9.3043 P   0  0  0  0  0  0
   15.1313   34.9706   -8.4849 C   0  0  0  0  0  0
   16.5855   34.6200  -11.5915 O   0  0  0  0  0  0
   16.1010   37.7800  -10.7650 O   0  0  0  0  0  0
   17.3010   35.7800   -7.7836 O   0  0  0  0  0  0
   18.8271   35.5828  -10.4324 O   0  0  0  0  0  0
   14.9010   37.9233   -8.4005 O   0  0  0  0  0  0
   17.7010   33.2542   -9.5650 O   0  0  0  0  0  0
   17.6265   38.1800   -8.6051 O   0  0  0  0  0  0
   15.2283   33.5043   -7.9750 C   0  0  0  0  0  0
   15.0375   32.4905   -9.0227 N   0  0  2  0  0  0
   10.4311   34.9024   -6.2229 C   0  0  0  0  0  0
   10.8398   33.7604   -6.8821 O   0  0  0  0  0  0
   13.6386   32.4281   -9.4993 C   0  0  0  0  0  0
   15.4444   31.1578   -8.5641 C   0  0  0  0  0  0
   10.7645   33.6992   -8.3063 C   0  0  0  0  0  0
    9.8715   36.0257   -6.8522 C   0  0  0  0  0  0
   10.6041   34.9114   -4.8379 C   0  0  0  0  0  0
   12.5910   31.8717   -8.4900 C   0  0  0  0  0  0
   11.1276   32.2783   -8.7650 C   0  0  0  0  0  0
   10.2380   36.0234   -4.0847 C   0  0  0  0  0  0
    9.5089   37.1412   -6.1012 C   0  0  0  0  0  0
    9.7010   37.1382   -4.7220 C   0  0  0  0  0  0
   14.6064   35.5548   -7.7295 H   0  0  0  0  0  0
   14.5011   34.9813   -9.3700 H   0  0  0  0  0  0
   17.5296   36.7321   -7.7386 H   0  0  0  0  0  0
   18.9010   36.4647  -10.8828 H   0  0  0  0  0  0
   14.0044   37.6179   -8.6747 H   0  0  0  0  0  0
   16.8993   32.7299   -9.3009 H   0  0  0  0  0  0
   17.9065   39.0648   -8.9540 H   0  0  0  0  0  0
   16.2207   33.3554   -7.5650 H   0  0  0  0  0  0
   14.5473   33.3473   -7.1377 H   0  0  0  0  0  0
   13.3037   33.3847   -9.8959 H   0  0  0  0  0  0
   13.6384   31.7800  -10.3767 H   0  0  0  0  0  0
   15.2741   30.4077   -9.3392 H   0  0  0  0  0  0
   16.5010   31.1273   -8.3251 H   0  0  0  0  0  0
   14.9048   30.8427   -7.6695 H   0  0  0  0  0  0
   11.4313   34.4350   -8.7601 H   0  0  0  0  0  0
    9.7508   33.9206   -8.6434 H   0  0  0  0  0  0
    9.7323   36.0582   -7.9223 H   0  0  0  0  0  0
   11.0377   34.0520   -4.3478 H   0  0  0  0  0  0
   12.6100   30.7860   -8.6053 H   0  0  0  0  0  0
   12.8655   32.0262   -7.4471 H   0  0  0  0  0  0
   10.9010   32.1800   -9.8262 H   0  0  0  0  0  0
   10.4647   31.5721   -8.2627 H   0  0  0  0  0  0
   10.3799   36.0252   -3.0139 H   0  0  0  0  0  0
    9.0980   38.0141   -6.5869 H   0  0  0  0  0  0
    9.4342   38.0110   -4.1422 H   0  0  0  0  0  0
  1  2  1  0  0  0
  1  3  1  0  0  0
  1  4  1  0  0  0
  1  7  1  0  0  0
  2  5  2  0  0  0
  2  8  1  0  0  0
  2 10  1  0  0  0
  3  6  2  0  0  0
  3  9  1  0  0  0
  3 11  1  0  0  0
  4 12  1  0  0  0
  4 26  1  0  0  0
  4 27  1  0  0  0
  7 28  1  0  0  0
  8 29  1  0  0  0
  9 30  1  0  0  0
 10 31  1  0  0  0
 11 32  1  0  0  0
 12 13  1  0  0  0
 12 33  1  0  0  0
 12 34  1  0  0  0
 13 16  1  0  0  0
 13 17  1  0  0  0
 14 15  1  0  0  0
 14 19  2  0  0  0
 14 20  1  0  0  0
 15 18  1  0  0  0
 16 21  1  0  0  0
 16 35  1  0  0  0
 16 36  1  0  0  0
 17 37  1  0  0  0
 17 38  1  0  0  0
 17 39  1  0  0  0
 18 22  1  0  0  0
 18 40  1  0  0  0
 18 41  1  0  0  0
 19 24  1  0  0  0
 19 42  1  0  0  0
 20 23  2  0  0  0
 20 43  1  0  0  0
 21 22  1  0  0  0
 21 44  1  0  0  0
 21 45  1  0  0  0
 22 46  1  0  0  0
 22 47  1  0  0  0
 23 25  1  0  0  0
 23 48  1  0  0  0
 24 25  2  0  0  0
 24 49  1  0  0  0
 25 50  1  0  0  0
M  END
> <s_m_entry_id>
3116

> <s_m_entry_name>
dock_pv.131

> <s_m_Source_Path>
/home/csk/Desktop/cluster/DUD-E-result/fpps

> <s_m_Source_File>
dock_pv.maegz

> <i_m_Source_File_Index>
131

> <chembl_id>
CHEMBL316663

> <chembl_pref_name>
None

> <i_lp_mmshare_version>
53161

> <r_lp_tautomer_probability>
1

> <s_lp_Force_Field>
OPLS_2005

> <r_lp_Energy>
7.976152

> <b_lp_Chiralities_Consistent>
1

> <s_lp_Variant>
CHEMBL1782_lig33-1

> <s_i_glide_gridfile>
glide-grid_1zw5

> <i_i_glide_lignum>
37

> <i_i_glide_rotatable_bonds>
16

> <r_i_docking_score>
-7.81342407534965

> <r_i_glide_ligand_efficiency>
-0.312536963013986

> <r_i_glide_ligand_efficiency_sa>
-0.913863622719535

> <r_i_glide_ligand_efficiency_ln>
-1.85201565528271

> <r_i_glide_gscore>
-7.81342407534965

> <r_i_glide_lipo>
-0.424932543369421

> <r_i_glide_hbond>
0

> <r_i_glide_metal>
-2.3

> <r_i_glide_rewards>
-0.70022069635758

> <r_i_glide_evdw>
-21.1258907318115

> <r_i_glide_ecoul>
-52.5477104187012

> <r_i_glide_erotb>
0.86802370096793

> <r_i_glide_esite>
-0.2

> <r_i_glide_emodel>
-129.955020006752

> <r_i_glide_energy>
-73.6736011505127

> <r_i_glide_einternal>
19.4451122283936

> <i_i_glide_confnum>
161

> <i_i_glide_posenum>
348

> <r_i_glide_eff_state_penalty>
0

> <s_user_duplicate_titles>
CHEMBL1782_lig33

> <i_f3d_flags>
0

> <s_m_subgroup_title>
dock_pv

> <s_m_subgroupid>
dock_pv

> <b_m_subgroup_collapsed>
1

$$$$
CHEMBL1782_lig175
                    3D
 Schrodinger Suite 2021-1.
 40 41  0  0  1  0            999 V2000
   15.4036   32.3953   -9.9646 C   0  0  0  0  0  0
   16.2291   33.2357  -10.7217 N   0  0  0  0  0  0
   15.9425   34.6708  -10.8359 C   0  0  0  0  0  0
   16.9497   35.3805  -12.2088 P   0  0  0  0  0  0
   16.5010   36.9800  -11.9650 O   0  0  0  0  0  0
   16.7890   34.9800  -13.6478 O   0  0  0  0  0  0
   18.5258   35.3800  -11.6036 O   0  0  0  0  0  0
   16.3743   35.4542   -9.1982 P   0  0  0  0  0  0
   16.3039   37.1420   -9.4529 O   0  0  0  0  0  0
   17.7320   34.9797   -8.7650 O   0  0  0  0  0  0
   15.1214   35.0403   -8.1131 O   0  0  0  0  0  0
   14.1334   32.7989   -9.5672 C   0  0  0  0  0  0
   13.3865   32.0229   -8.6887 C   0  0  0  0  0  0
   13.9050   30.7644   -8.3416 C   0  0  0  0  0  0
   15.1624   30.3886   -8.8234 C   0  0  0  0  0  0
   15.9274   31.2043   -9.5951 N   0  0  0  0  0  0
   12.1710   32.6216   -8.0671 C   0  0  0  0  0  0
   11.7774   32.2077   -6.7978 C   0  0  0  0  0  0
   10.7663   32.8743   -6.1292 C   0  0  0  0  0  0
   10.1127   33.9636   -6.6934 C   0  0  0  0  0  0
   10.4721   34.3653   -7.9830 C   0  0  0  0  0  0
   11.4767   33.6895   -8.6630 C   0  0  0  0  0  0
    9.1328   34.5656   -5.9303 O   0  0  0  0  0  0
    8.6282   35.8296   -6.3472 C   0  0  0  0  0  0
   17.1805   32.9326  -10.8369 H   0  0  0  0  0  0
   14.9018   34.8491  -11.0915 H   0  0  0  0  0  0
   16.9090   37.6702  -12.5788 H   0  0  0  0  0  0
   18.9053   36.3035  -11.5651 H   0  0  0  0  0  0
   16.9011   37.6139  -10.0736 H   0  0  0  0  0  0
   14.2612   34.6725   -8.3920 H   0  0  0  0  0  0
   13.7462   33.7473   -9.8854 H   0  0  0  0  0  0
   13.3625   30.0897   -7.6949 H   0  0  0  0  0  0
   15.5876   29.4278   -8.5668 H   0  0  0  0  0  0
   12.2766   31.3912   -6.2957 H   0  0  0  0  0  0
   10.4953   32.5106   -5.1652 H   0  0  0  0  0  0
    9.9881   35.1938   -8.4771 H   0  0  0  0  0  0
   11.7176   34.0459   -9.6503 H   0  0  0  0  0  0
    7.9072   36.1778   -5.6110 H   0  0  0  0  0  0
    9.4233   36.5740   -6.4124 H   0  0  0  0  0  0
    8.1156   35.7803   -7.3065 H   0  0  0  0  0  0
  1  2  1  0  0  0
  1 16  1  0  0  0
  1 12  2  0  0  0
  2  3  1  0  0  0
  2 25  1  0  0  0
  3  4  1  0  0  0
  3  8  1  0  0  0
  3 26  1  0  0  0
  4  7  1  0  0  0
  4  5  1  0  0  0
  4  6  2  0  0  0
  5 27  1  0  0  0
  7 28  1  0  0  0
  8  9  1  0  0  0
  8 10  2  0  0  0
  8 11  1  0  0  0
  9 29  1  0  0  0
 11 30  1  0  0  0
 12 13  1  0  0  0
 12 31  1  0  0  0
 13 14  2  0  0  0
 13 17  1  0  0  0
 14 15  1  0  0  0
 14 32  1  0  0  0
 15 16  2  0  0  0
 15 33  1  0  0  0
 17 18  2  0  0  0
 17 22  1  0  0  0
 18 19  1  0  0  0
 18 34  1  0  0  0
 19 20  2  0  0  0
 19 35  1  0  0  0
 20 21  1  0  0  0
 20 23  1  0  0  0
 21 22  2  0  0  0
 21 36  1  0  0  0
 22 37  1  0  0  0
 23 24  1  0  0  0
 24 38  1  0  0  0
 24 39  1  0  0  0
 24 40  1  0  0  0
M  END
> <s_m_entry_id>
3117

> <s_m_entry_name>
dock_pv.132

> <s_m_Source_Path>
/home/csk/Desktop/cluster/DUD-E-result/fpps

> <s_m_Source_File>
dock_pv.maegz

> <i_m_Source_File_Index>
132

> <chembl_id>
CHEMBL2048247

> <chembl_pref_name>
None

> <i_lp_mmshare_version>
53161

> <r_lp_tautomer_probability>
0.999999772200052

> <s_lp_Force_Field>
OPLS_2005

> <r_lp_Energy>
1.472294

> <b_lp_Chiralities_Consistent>
1

> <s_lp_Variant>
CHEMBL1782_lig175-1

> <s_i_glide_gridfile>
glide-grid_1zw5

> <i_i_glide_lignum>
199

> <i_i_glide_rotatable_bonds>
10

> <r_i_docking_score>
-7.81233935167628

> <r_i_glide_ligand_efficiency>
-0.325514139653178

> <r_i_glide_ligand_efficiency_sa>
-0.938945255092892

> <r_i_glide_ligand_efficiency_ln>
-1.86985129174979

> <r_i_glide_gscore>
-7.81233935167628

> <r_i_glide_lipo>
-0.0203702946068995

> <r_i_glide_hbond>
-0.103707835373546

> <r_i_glide_metal>
-2.3

> <r_i_glide_rewards>
-0.851168810210834

> <r_i_glide_evdw>
-18.8928031921387

> <r_i_glide_ecoul>
-44.3956451416016

> <r_i_glide_erotb>
0.690276820089517

> <r_i_glide_esite>
-0.282729071967586

> <r_i_glide_emodel>
-102.783946970854

> <r_i_glide_energy>
-63.2884483337402

> <r_i_glide_einternal>
17.8798942565918

> <i_i_glide_confnum>
71

> <i_i_glide_posenum>
193

> <r_i_glide_eff_state_penalty>
0

> <s_user_duplicate_titles>
CHEMBL1782_lig175

> <i_f3d_flags>
0

> <s_m_subgroup_title>
dock_pv

> <s_m_subgroupid>
dock_pv

> <b_m_subgroup_collapsed>
1

$$$$
CHEMBL1782_lig37
                    3D
 Schrodinger Suite 2021-1.
 47 47  0  0  1  0            999 V2000
   16.4233   36.5674   -9.2374 C   0  0  0  0  0  0
   17.6009   37.4802   -8.1073 P   0  0  0  0  0  0
   17.1125   34.9991  -10.0280 P   0  0  0  0  0  0
   15.1504   36.1912   -8.4164 C   0  0  0  0  0  0
   18.1012   36.5800   -6.9985 O   0  0  0  0  0  0
   18.1010   34.2256   -9.1650 O   0  0  0  0  0  0
   16.1010   37.4928  -10.3007 O   0  0  0  0  0  0
   18.8515   37.9857   -9.1650 O   0  0  0  0  0  0
   15.7328   34.0633  -10.3734 O   0  0  0  0  0  0
   16.6950   38.8257   -7.5747 O   0  0  0  0  0  0
   17.7373   35.5631  -11.5089 O   0  0  0  0  0  0
   15.2232   35.0542   -7.3499 C   0  0  0  0  0  0
   14.7743   33.7342   -7.8405 N   0  0  2  0  0  0
   10.2177   33.6142   -8.7552 S   0  0  0  0  0  0
   10.1009   34.6003   -7.2782 C   0  0  0  0  0  0
   12.7867   32.4127   -8.7150 C   0  0  0  0  0  0
   13.3172   33.6970   -8.0326 C   0  0  0  0  0  0
   11.2855   32.1662   -8.4909 C   0  0  0  0  0  0
   15.0886   32.7099   -6.8387 C   0  0  0  0  0  0
    9.5689   35.8841   -7.3940 C   0  0  0  0  0  0
   10.4941   34.1186   -6.0244 C   0  0  0  0  0  0
    9.4396   36.6944   -6.2692 C   0  0  0  0  0  0
   10.3726   34.9313   -4.8990 C   0  0  0  0  0  0
    9.8447   36.2144   -5.0257 C   0  0  0  0  0  0
   14.6510   37.0748   -8.0213 H   0  0  0  0  0  0
   14.5011   35.7805   -9.1650 H   0  0  0  0  0  0
   16.7514   38.2166  -10.2948 H   0  0  0  0  0  0
   18.8230   38.1155  -10.1434 H   0  0  0  0  0  0
   15.1427   33.7887   -9.6305 H   0  0  0  0  0  0
   16.9696   39.7400   -7.7987 H   0  0  0  0  0  0
   18.2471   36.4104  -11.6218 H   0  0  0  0  0  0
   16.2492   34.9580   -7.0004 H   0  0  0  0  0  0
   14.6401   35.3369   -6.4718 H   0  0  0  0  0  0
   12.9227   32.5462   -9.7861 H   0  0  0  0  0  0
   13.3620   31.5153   -8.4982 H   0  0  0  0  0  0
   12.8196   33.8511   -7.0771 H   0  0  0  0  0  0
   12.9843   34.5338   -8.6452 H   0  0  0  0  0  0
   10.9482   31.3800   -9.1649 H   0  0  0  0  0  0
   11.1151   31.7593   -7.4963 H   0  0  0  0  0  0
   15.0047   31.7010   -7.2400 H   0  0  0  0  0  0
   16.1009   32.7909   -6.4829 H   0  0  0  0  0  0
   14.4417   32.7789   -5.9645 H   0  0  0  0  0  0
    9.2613   36.2516   -8.3620 H   0  0  0  0  0  0
   10.9008   33.1277   -5.9036 H   0  0  0  0  0  0
    9.0365   37.6921   -6.3639 H   0  0  0  0  0  0
   10.6859   34.5672   -3.9312 H   0  0  0  0  0  0
    9.7491   36.8428   -4.1520 H   0  0  0  0  0  0
  1  2  1  0  0  0
  1  3  1  0  0  0
  1  4  1  0  0  0
  1  7  1  0  0  0
  2  5  2  0  0  0
  2  8  1  0  0  0
  2 10  1  0  0  0
  3  6  2  0  0  0
  3  9  1  0  0  0
  3 11  1  0  0  0
  4 12  1  0  0  0
  4 25  1  0  0  0
  4 26  1  0  0  0
  7 27  1  0  0  0
  8 28  1  0  0  0
  9 29  1  0  0  0
 10 30  1  0  0  0
 11 31  1  0  0  0
 12 13  1  0  0  0
 12 32  1  0  0  0
 12 33  1  0  0  0
 13 17  1  0  0  0
 13 19  1  0  0  0
 14 18  1  0  0  0
 14 15  1  0  0  0
 15 20  1  0  0  0
 15 21  2  0  0  0
 16 17  1  0  0  0
 16 18  1  0  0  0
 16 34  1  0  0  0
 16 35  1  0  0  0
 17 36  1  0  0  0
 17 37  1  0  0  0
 18 38  1  0  0  0
 18 39  1  0  0  0
 19 40  1  0  0  0
 19 41  1  0  0  0
 19 42  1  0  0  0
 20 22  2  0  0  0
 20 43  1  0  0  0
 21 23  1  0  0  0
 21 44  1  0  0  0
 22 24  1  0  0  0
 22 45  1  0  0  0
 23 24  2  0  0  0
 23 46  1  0  0  0
 24 47  1  0  0  0
M  END
> <s_m_entry_id>
3118

> <s_m_entry_name>
dock_pv.133

> <s_m_Source_Path>
/home/csk/Desktop/cluster/DUD-E-result/fpps

> <s_m_Source_File>
dock_pv.maegz

> <i_m_Source_File_Index>
133

> <chembl_id>
CHEMBL100827

> <chembl_pref_name>
None

> <i_lp_mmshare_version>
53161

> <r_lp_tautomer_probability>
1

> <s_lp_Force_Field>
OPLS_2005

> <r_lp_Energy>
1.67006

> <b_lp_Chiralities_Consistent>
1

> <s_lp_Variant>
CHEMBL1782_lig37-1

> <s_i_glide_gridfile>
glide-grid_1zw5

> <i_i_glide_lignum>
41

> <i_i_glide_rotatable_bonds>
15

> <r_i_docking_score>
-7.79552028353001

> <r_i_glide_ligand_efficiency>
-0.324813345147084

> <r_i_glide_ligand_efficiency_sa>
-0.936923813944456

> <r_i_glide_ligand_efficiency_ln>
-1.86582571696564

> <r_i_glide_gscore>
-7.79552028353001

> <r_i_glide_lipo>
-0.349778722485618

> <r_i_glide_hbond>
0

> <r_i_glide_metal>
-2.3

> <r_i_glide_rewards>
-0.686333590909089

> <r_i_glide_evdw>
-27.3040199279785

> <r_i_glide_ecoul>
-56.2920188903809

> <r_i_glide_erotb>
1.10579302626362

> <r_i_glide_esite>
-0.2

> <r_i_glide_emodel>
-134.70332204967

> <r_i_glide_energy>
-83.5960388183594

> <r_i_glide_einternal>
19.1727752685547

> <i_i_glide_confnum>
159

> <i_i_glide_posenum>
240

> <r_i_glide_eff_state_penalty>
0

> <s_user_duplicate_titles>
CHEMBL1782_lig37

> <i_f3d_flags>
0

> <s_m_subgroup_title>
dock_pv

> <s_m_subgroupid>
dock_pv

> <b_m_subgroup_collapsed>
1

$$$$
CHEMBL1782_lig43
                    3D
 Schrodinger Suite 2021-1.
 35 35  0  0  1  0            999 V2000
   16.3170   35.8124   -8.7410 C   0  0  0  0  0  0
   16.7773   37.4648   -9.4412 P   0  0  0  0  0  0
   16.7889   34.4353   -9.9400 P   0  0  0  0  0  0
   14.9010   35.8037   -8.3650 N   0  0  0  0  0  0
   14.1800   34.7779   -7.8078 C   0  0  0  0  0  0
   12.9382   34.5276   -8.1163 N   0  0  0  0  0  0
   14.9010   33.5890   -6.7925 S   0  0  0  0  0  0
   12.5814   33.3207   -7.7295 C   0  0  0  0  0  0
   13.5437   32.5526   -7.0741 C   0  0  0  0  0  0
   16.1010   37.7800  -10.7649 O   0  0  0  0  0  0
   18.1010   33.7800   -9.5650 O   0  0  0  0  0  0
   16.4385   38.5575   -8.1818 O   0  0  0  0  0  0
   15.4731   33.3568   -9.9795 O   0  0  0  0  0  0
   18.4617   37.2548   -9.5650 O   0  0  0  0  0  0
   16.8235   35.1923  -11.4758 O   0  0  0  0  0  0
   13.5755   31.0920   -6.7010 C   0  0  0  0  0  0
   13.2281   30.1800   -7.8992 C   0  0  0  0  0  0
   14.0884   30.3991   -9.1614 C   0  0  0  0  0  0
   15.5739   30.0758   -8.9725 C   0  0  0  0  0  0
   16.8754   35.6572   -7.8148 H   0  0  0  0  0  0
   14.3536   36.3980   -8.9889 H   0  0  0  0  0  0
   11.6074   32.9529   -8.0205 H   0  0  0  0  0  0
   16.5595   39.5183   -8.3466 H   0  0  0  0  0  0
   14.6038   33.5273   -9.5650 H   0  0  0  0  0  0
   18.9009   37.6016  -10.3969 H   0  0  0  0  0  0
   17.3923   35.9614  -11.7033 H   0  0  0  0  0  0
   12.9010   30.9150   -5.8676 H   0  0  0  0  0  0
   14.5597   30.8072   -6.3264 H   0  0  0  0  0  0
   12.1804   30.3262   -8.1667 H   0  0  0  0  0  0
   13.3016   29.1369   -7.5878 H   0  0  0  0  0  0
   13.9699   31.4182   -9.5236 H   0  0  0  0  0  0
   13.7010   29.7800   -9.9650 H   0  0  0  0  0  0
   16.1088   30.1800   -9.9154 H   0  0  0  0  0  0
   15.7010   29.0481   -8.6307 H   0  0  0  0  0  0
   16.0472   30.7365   -8.2462 H   0  0  0  0  0  0
  1  2  1  0  0  0
  1  3  1  0  0  0
  1  4  1  0  0  0
  1 20  1  0  0  0
  2 10  2  0  0  0
  2 12  1  0  0  0
  2 14  1  0  0  0
  3 11  2  0  0  0
  3 13  1  0  0  0
  3 15  1  0  0  0
  4  5  1  0  0  0
  4 21  1  0  0  0
  5  6  2  0  0  0
  5  7  1  0  0  0
  6  8  1  0  0  0
  7  9  1  0  0  0
  8  9  2  0  0  0
  8 22  1  0  0  0
  9 16  1  0  0  0
 12 23  1  0  0  0
 13 24  1  0  0  0
 14 25  1  0  0  0
 15 26  1  0  0  0
 16 17  1  0  0  0
 16 27  1  0  0  0
 16 28  1  0  0  0
 17 18  1  0  0  0
 17 29  1  0  0  0
 17 30  1  0  0  0
 18 19  1  0  0  0
 18 31  1  0  0  0
 18 32  1  0  0  0
 19 33  1  0  0  0
 19 34  1  0  0  0
 19 35  1  0  0  0
M  END
> <s_m_entry_id>
3119

> <s_m_entry_name>
dock_pv.134

> <s_m_Source_Path>
/home/csk/Desktop/cluster/DUD-E-result/fpps

> <s_m_Source_File>
dock_pv.maegz

> <i_m_Source_File_Index>
134

> <chembl_id>
CHEMBL98476

> <chembl_pref_name>
None

> <i_lp_mmshare_version>
53161

> <r_lp_tautomer_probability>
1

> <s_lp_Force_Field>
OPLS_2005

> <r_lp_Energy>
-15.340668

> <b_lp_Chiralities_Consistent>
1

> <s_lp_Variant>
CHEMBL1782_lig43-1

> <s_i_glide_gridfile>
glide-grid_1zw5

> <i_i_glide_lignum>
47

> <i_i_glide_rotatable_bonds>
11

> <r_i_docking_score>
-7.79448091018769

> <r_i_glide_ligand_efficiency>
-0.4102358373783

> <r_i_glide_ligand_efficiency_sa>
-1.09467398375068

> <r_i_glide_ligand_efficiency_ln>
-1.9760683208325

> <r_i_glide_gscore>
-7.79448091018769

> <r_i_glide_lipo>
-0.0799061358379073

> <r_i_glide_hbond>
-0.148450704524843

> <r_i_glide_metal>
-2.3

> <r_i_glide_rewards>
-1.15748209090909

> <r_i_glide_evdw>
-17.0740184783936

> <r_i_glide_ecoul>
-50.6150169372559

> <r_i_glide_erotb>
1.03463285481761

> <r_i_glide_esite>
-0.289573909813788

> <r_i_glide_emodel>
-114.856475833323

> <r_i_glide_energy>
-67.6890354156494

> <r_i_glide_einternal>
15.3932800292969

> <i_i_glide_confnum>
52

> <i_i_glide_posenum>
186

> <r_i_glide_eff_state_penalty>
0

> <s_user_duplicate_titles>
CHEMBL1782_lig43

> <i_f3d_flags>
0

> <s_m_subgroup_title>
dock_pv

> <s_m_subgroupid>
dock_pv

> <b_m_subgroup_collapsed>
1

$$$$
CHEMBL1782_lig116
                    3D
 Schrodinger Suite 2021-1.
 26 26  0  0  1  0            999 V2000
   15.4194   34.6770   -8.4777 C   0  0  0  0  0  0
   16.1390   36.3362   -9.0436 P   0  0  0  0  0  0
   16.2022   33.2228   -9.3000 P   0  0  0  0  0  0
   13.9904   34.5780   -8.7650 N   0  0  0  0  0  0
   12.9488   34.3052   -7.8764 C   0  0  0  0  0  0
   11.7449   34.2064   -8.4873 N   0  0  0  0  0  0
   17.7005   33.3800   -9.4776 O   0  0  0  0  0  0
   16.1010   36.6556  -10.5340 O   0  0  0  0  0  0
   15.1857   37.4166   -8.1518 O   0  0  0  0  0  0
   17.7425   36.2762   -8.3663 O   0  0  0  0  0  0
   15.7230   31.9065   -8.3318 O   0  0  0  0  0  0
   15.3566   33.0631  -10.7650 O   0  0  0  0  0  0
   10.6305   34.1379   -7.7249 C   0  0  0  0  0  0
   10.6707   34.1555   -6.3324 C   0  0  0  0  0  0
   13.0827   34.2491   -6.4843 C   0  0  0  0  0  0
    9.0656   34.1799   -5.3108 Br  0  0  0  0  0  0
   11.9183   34.1832   -5.7098 C   0  0  0  0  0  0
   15.5852   34.6025   -7.4030 H   0  0  0  0  0  0
   13.6708   34.9384   -9.6568 H   0  0  0  0  0  0
   14.2425   37.5241   -8.3922 H   0  0  0  0  0  0
   18.3528   36.9801   -8.6918 H   0  0  0  0  0  0
   15.2057   31.1473   -8.6656 H   0  0  0  0  0  0
   14.4309   33.3528  -10.8831 H   0  0  0  0  0  0
    9.7007   34.1050   -8.2674 H   0  0  0  0  0  0
   14.0454   34.2964   -6.0039 H   0  0  0  0  0  0
   11.9800   34.1806   -4.6319 H   0  0  0  0  0  0
  1  2  1  0  0  0
  1  3  1  0  0  0
  1  4  1  0  0  0
  1 18  1  0  0  0
  2  8  2  0  0  0
  2  9  1  0  0  0
  2 10  1  0  0  0
  3  7  2  0  0  0
  3 11  1  0  0  0
  3 12  1  0  0  0
  4  5  1  0  0  0
  4 19  1  0  0  0
  5  6  1  0  0  0
  5 15  2  0  0  0
  6 13  2  0  0  0
  9 20  1  0  0  0
 10 21  1  0  0  0
 11 22  1  0  0  0
 12 23  1  0  0  0
 13 14  1  0  0  0
 13 24  1  0  0  0
 14 17  2  0  0  0
 14 16  1  0  0  0
 15 17  1  0  0  0
 15 25  1  0  0  0
 17 26  1  0  0  0
M  END
> <s_m_entry_id>
3120

> <s_m_entry_name>
dock_pv.135

> <s_m_Source_Path>
/home/csk/Desktop/cluster/DUD-E-result/fpps

> <s_m_Source_File>
dock_pv.maegz

> <i_m_Source_File_Index>
135

> <chembl_id>
CHEMBL100483

> <chembl_pref_name>
None

> <i_lp_mmshare_version>
53161

> <r_lp_tautomer_probability>
0.999999772200052

> <s_lp_Force_Field>
OPLS_2005

> <r_lp_Energy>
-8.365313

> <b_lp_Chiralities_Consistent>
1

> <s_lp_Variant>
CHEMBL1782_lig116-1

> <s_i_glide_gridfile>
glide-grid_1zw5

> <i_i_glide_lignum>
128

> <i_i_glide_rotatable_bonds>
8

> <r_i_docking_score>
-7.77530427501252

> <r_i_glide_ligand_efficiency>
-0.457370839706619

> <r_i_glide_ligand_efficiency_sa>
-1.17602921913088

> <r_i_glide_ligand_efficiency_ln>
-2.02840373783758

> <r_i_glide_gscore>
-7.77530427501252

> <r_i_glide_lipo>
0

> <r_i_glide_hbond>
-0.134157678738408

> <r_i_glide_metal>
-1.84488318628601

> <r_i_glide_rewards>
-1.04318685431702

> <r_i_glide_evdw>
-19.9294986724854

> <r_i_glide_ecoul>
-36.4139251708984

> <r_i_glide_erotb>
0.47386764322781

> <r_i_glide_esite>
-0.230469265274616

> <r_i_glide_emodel>
-91.8546947928605

> <r_i_glide_energy>
-56.3434238433838

> <r_i_glide_einternal>
16.9358215332031

> <i_i_glide_confnum>
5

> <i_i_glide_posenum>
389

> <r_i_glide_eff_state_penalty>
0

> <s_user_duplicate_titles>
CHEMBL1782_lig116,161684

> <i_f3d_flags>
0

> <s_m_subgroup_title>
dock_pv

> <s_m_subgroupid>
dock_pv

> <b_m_subgroup_collapsed>
1

$$$$
CHEMBL1782_lig88
                    3D
 Schrodinger Suite 2021-1.
 32 31  0  0  1  0            999 V2000
   16.2482   35.4892   -9.9571 C   0  0  0  0  0  0
   17.8954   34.7908  -10.4978 P   0  0  0  0  0  0
   16.2808   37.1815   -9.1650 P   0  0  0  0  0  0
   15.7210   34.5801   -8.9313 N   0  0  2  0  0  0
   18.1009   33.2994  -10.3649 O   0  0  0  0  0  0
   17.4425   37.4667   -8.2422 O   0  0  0  0  0  0
   18.1245   35.3801  -12.0787 O   0  0  0  0  0  0
   16.1010   38.1800  -10.5517 O   0  0  0  0  0  0
   14.7964   37.2302   -8.3650 O   0  0  0  0  0  0
   18.9009   35.6288   -9.3982 O   0  0  0  0  0  0
   14.7571   33.6393   -9.4991 C   0  0  0  0  0  0
   14.3419   32.5572   -8.4775 C   0  0  2  0  0  0
   15.5062   31.5939   -8.1430 C   0  0  0  0  0  0
   13.1127   31.7929   -8.9974 C   0  0  0  0  0  0
   15.2609   30.7052   -6.9114 C   0  0  0  0  0  0
   15.5643   35.5188  -10.8090 H   0  0  0  0  0  0
   15.2119   35.1252   -8.2439 H   0  0  0  0  0  0
   18.3535   36.3351  -12.2693 H   0  0  0  0  0  0
   16.6019   39.0464  -10.5309 H   0  0  0  0  0  0
   13.9594   36.9798   -8.8274 H   0  0  0  0  0  0
   19.4610   36.3791   -9.7059 H   0  0  0  0  0  0
   15.1968   33.1391  -10.3650 H   0  0  0  0  0  0
   13.8752   34.1572   -9.8833 H   0  0  0  0  0  0
   14.0338   33.0584   -7.5585 H   0  0  0  0  0  0
   16.4132   32.1705   -7.9746 H   0  0  0  0  0  0
   15.7212   30.9611   -9.0063 H   0  0  0  0  0  0
   13.3454   31.2939   -9.9385 H   0  0  0  0  0  0
   12.7655   31.0342   -8.2951 H   0  0  0  0  0  0
   12.2711   32.4641   -9.1729 H   0  0  0  0  0  0
   16.1067   30.0426   -6.7324 H   0  0  0  0  0  0
   14.3828   30.0702   -7.0311 H   0  0  0  0  0  0
   15.1214   31.3072   -6.0136 H   0  0  0  0  0  0
  1  2  1  0  0  0
  1  3  1  0  0  0
  1  4  1  0  0  0
  1 16  1  0  0  0
  2  5  2  0  0  0
  2  7  1  0  0  0
  2 10  1  0  0  0
  3  6  2  0  0  0
  3  8  1  0  0  0
  3  9  1  0  0  0
  4 11  1  0  0  0
  4 17  1  0  0  0
  7 18  1  0  0  0
  8 19  1  0  0  0
  9 20  1  0  0  0
 10 21  1  0  0  0
 11 12  1  0  0  0
 11 22  1  0  0  0
 11 23  1  0  0  0
 12 13  1  0  0  0
 12 14  1  0  0  0
 12 24  1  0  0  0
 13 15  1  0  0  0
 13 25  1  0  0  0
 13 26  1  0  0  0
 14 27  1  0  0  0
 14 28  1  0  0  0
 14 29  1  0  0  0
 15 30  1  0  0  0
 15 31  1  0  0  0
 15 32  1  0  0  0
M  END
> <s_m_entry_id>
3121

> <s_m_entry_name>
dock_pv.136

> <s_m_Source_Path>
/home/csk/Desktop/cluster/DUD-E-result/fpps

> <s_m_Source_File>
dock_pv.maegz

> <i_m_Source_File_Index>
136

> <chembl_id>
CHEMBL56011

> <chembl_pref_name>
None

> <i_lp_mmshare_version>
53161

> <r_lp_tautomer_probability>
1

> <s_lp_Force_Field>
OPLS_2005

> <r_lp_Energy>
1.768366

> <b_lp_Chiralities_Consistent>
1

> <s_lp_Variant>
CHEMBL1782_lig88-1

> <s_i_glide_gridfile>
glide-grid_1zw5

> <i_i_glide_lignum>
96

> <i_i_glide_rotatable_bonds>
10

> <r_i_docking_score>
-7.77267807884222

> <r_i_glide_ligand_efficiency>
-0.518178538589481

> <r_i_glide_ligand_efficiency_sa>
-1.27793816737472

> <r_i_glide_ligand_efficiency_ln>
-2.0961631200494

> <r_i_glide_gscore>
-7.77267807884222

> <r_i_glide_lipo>
-0.241140930882026

> <r_i_glide_hbond>
0

> <r_i_glide_metal>
-2.3

> <r_i_glide_rewards>
-1.62852409090909

> <r_i_glide_evdw>
-14.0372619628906

> <r_i_glide_ecoul>
-49.5487442016602

> <r_i_glide_erotb>
1.29885004109343

> <r_i_glide_esite>
-0.2

> <r_i_glide_emodel>
-105.717929389594

> <r_i_glide_energy>
-63.5860061645508

> <r_i_glide_einternal>
21.2612457275391

> <i_i_glide_confnum>
347

> <i_i_glide_posenum>
108

> <r_i_glide_eff_state_penalty>
0

> <s_user_duplicate_titles>
CHEMBL1782_lig88,84872

> <i_f3d_flags>
0

> <s_m_subgroup_title>
dock_pv

> <s_m_subgroupid>
dock_pv

> <b_m_subgroup_collapsed>
1

$$$$
CHEMBL1782_lig95
                    3D
 Schrodinger Suite 2021-1.
 43 42  0  0  1  0            999 V2000
   13.5973   33.9937   -9.1369 C   0  0  0  0  0  0
   14.9665   34.4571   -9.6931 C   0  0  0  0  0  0
   15.6068   35.7134   -9.0317 C   0  0  0  0  0  0
   16.8656   36.3576   -9.7049 C   0  0  0  0  0  0
   16.5010   37.2409  -10.7650 O   0  0  0  0  0  0
   17.6376   37.4064   -8.3534 P   0  0  0  0  0  0
   17.9377   35.0006  -10.4474 P   0  0  0  0  0  0
   18.1010   33.7800   -9.5650 O   0  0  0  0  0  0
   18.1010   36.5800   -7.1686 O   0  0  0  0  0  0
   18.9030   38.1800   -9.1650 O   0  0  0  0  0  0
   16.4517   38.5800   -8.0057 O   0  0  0  0  0  0
   17.2298   34.6747  -11.9650 O   0  0  0  0  0  0
   19.4092   35.7800  -10.7650 O   0  0  0  0  0  0
   13.4644   34.0069   -7.5987 C   0  0  0  0  0  0
   14.4654   33.0953   -6.8646 C   0  0  0  0  0  0
   14.1251   31.5988   -6.9624 C   0  0  0  0  0  0
   15.3004   30.7117   -6.5250 C   0  0  0  0  0  0
   14.9521   29.2233   -6.3957 C   0  0  0  0  0  0
   14.5871   28.5418   -7.7215 C   0  0  0  0  0  0
   13.3972   32.9879   -9.5088 H   0  0  0  0  0  0
   12.7889   34.5800   -9.5649 H   0  0  0  0  0  0
   15.6330   33.6040   -9.5793 H   0  0  0  0  0  0
   14.8964   34.6046  -10.7650 H   0  0  0  0  0  0
   14.8712   36.4848   -8.8110 H   0  0  0  0  0  0
   15.9010   35.3739   -8.0387 H   0  0  0  0  0  0
   17.3138   37.5821  -11.1899 H   0  0  0  0  0  0
   18.9058   38.4115  -10.1209 H   0  0  0  0  0  0
   16.6153   39.5169   -8.2506 H   0  0  0  0  0  0
   16.7263   35.3421  -12.4698 H   0  0  0  0  0  0
   19.4373   36.6984  -11.1483 H   0  0  0  0  0  0
   12.4479   33.7211   -7.3237 H   0  0  0  0  0  0
   13.5787   35.0302   -7.2414 H   0  0  0  0  0  0
   14.5026   33.3800   -5.8147 H   0  0  0  0  0  0
   15.4745   33.2654   -7.2394 H   0  0  0  0  0  0
   13.8550   31.3396   -7.9862 H   0  0  0  0  0  0
   13.2441   31.3847   -6.3553 H   0  0  0  0  0  0
   15.7010   31.0631   -5.5721 H   0  0  0  0  0  0
   16.1010   30.8233   -7.2525 H   0  0  0  0  0  0
   14.1270   29.1015   -5.6909 H   0  0  0  0  0  0
   15.8152   28.7119   -5.9674 H   0  0  0  0  0  0
   14.3854   27.4822   -7.5650 H   0  0  0  0  0  0
   15.3941   28.6209   -8.4501 H   0  0  0  0  0  0
   13.6935   28.9800   -8.1654 H   0  0  0  0  0  0
  1  2  1  0  0  0
  1 14  1  0  0  0
  1 20  1  0  0  0
  1 21  1  0  0  0
  2  3  1  0  0  0
  2 22  1  0  0  0
  2 23  1  0  0  0
  3  4  1  0  0  0
  3 24  1  0  0  0
  3 25  1  0  0  0
  4  6  1  0  0  0
  4  7  1  0  0  0
  4  5  1  0  0  0
  5 26  1  0  0  0
  6 10  1  0  0  0
  6 11  1  0  0  0
  6  9  2  0  0  0
  7 12  1  0  0  0
  7 13  1  0  0  0
  7  8  2  0  0  0
 10 27  1  0  0  0
 11 28  1  0  0  0
 12 29  1  0  0  0
 13 30  1  0  0  0
 14 15  1  0  0  0
 14 31  1  0  0  0
 14 32  1  0  0  0
 15 16  1  0  0  0
 15 33  1  0  0  0
 15 34  1  0  0  0
 16 17  1  0  0  0
 16 35  1  0  0  0
 16 36  1  0  0  0
 17 18  1  0  0  0
 17 37  1  0  0  0
 17 38  1  0  0  0
 18 19  1  0  0  0
 18 39  1  0  0  0
 18 40  1  0  0  0
 19 41  1  0  0  0
 19 42  1  0  0  0
 19 43  1  0  0  0
M  END
> <s_m_entry_id>
3122

> <s_m_entry_name>
dock_pv.137

> <s_m_Source_Path>
/home/csk/Desktop/cluster/DUD-E-result/fpps

> <s_m_Source_File>
dock_pv.maegz

> <i_m_Source_File_Index>
137

> <chembl_id>
CHEMBL54004

> <chembl_pref_name>
None

> <i_lp_mmshare_version>
53161

> <r_lp_tautomer_probability>
1

> <s_lp_Force_Field>
OPLS_2005

> <r_lp_Energy>
-4.063083

> <b_lp_Chiralities_Consistent>
1

> <s_lp_Variant>
CHEMBL1782_lig95-1

> <s_i_glide_gridfile>
glide-grid_1zw5

> <i_i_glide_lignum>
105

> <i_i_glide_rotatable_bonds>
15

> <r_i_docking_score>
-7.76147934694995

> <r_i_glide_ligand_efficiency>
-0.408498912997366

> <r_i_glide_ligand_efficiency_sa>
-1.09003917187344

> <r_i_glide_ligand_efficiency_ln>
-1.96770171574315

> <r_i_glide_gscore>
-7.76147934694995

> <r_i_glide_lipo>
-0.860791454995912

> <r_i_glide_hbond>
0

> <r_i_glide_metal>
-2.14995081010055

> <r_i_glide_rewards>
-1.23926672727273

> <r_i_glide_evdw>
-19.3620548248291

> <r_i_glide_ecoul>
-58.2304573059082

> <r_i_glide_erotb>
1.65663238666069

> <r_i_glide_esite>
-0.2

> <r_i_glide_emodel>
-130.377337500726

> <r_i_glide_energy>
-77.5925121307373

> <r_i_glide_einternal>
25.6836776733398

> <i_i_glide_confnum>
39

> <i_i_glide_posenum>
168

> <r_i_glide_eff_state_penalty>
0

> <s_user_duplicate_titles>
CHEMBL1782_lig95,83753

> <i_f3d_flags>
0

> <s_m_subgroup_title>
dock_pv

> <s_m_subgroupid>
dock_pv

> <b_m_subgroup_collapsed>
1

$$$$
CHEMBL1782_lig85
                    3D
 Schrodinger Suite 2021-1.
 24 23  0  0  1  0            999 V2000
   17.2317   36.5327   -9.7630 C   0  0  0  0  0  0
   17.8660   34.9227  -10.5438 P   0  0  0  0  0  0
   16.1016   36.1456   -8.3296 P   0  0  0  0  0  0
   18.3335   37.5023   -9.2017 C   0  0  0  0  0  0
   18.1010   33.7800   -9.5652 O   0  0  0  0  0  0
   16.9009   35.6082   -7.1648 O   0  0  0  0  0  0
   16.5010   37.2543  -10.7650 O   0  0  0  0  0  0
   19.6634   36.9800   -7.1811 N   0  0  0  0  0  0
   16.7248   34.5803  -11.7617 O   0  0  0  0  0  0
   15.3194   37.6364   -8.0293 O   0  0  0  0  0  0
   15.0424   34.9799   -8.9793 O   0  0  0  0  0  0
   19.2761   35.3801  -11.3492 O   0  0  0  0  0  0
   19.6277   36.8794   -8.6301 C   0  0  0  0  0  0
   17.8961   38.2091   -8.4939 H   0  0  0  0  0  0
   18.6672   38.1951   -9.9650 H   0  0  0  0  0  0
   17.1886   37.6780  -11.3183 H   0  0  0  0  0  0
   20.6462   37.0250   -6.9021 H   0  0  0  0  0  0
   19.3732   37.9250   -6.9402 H   0  0  0  0  0  0
   16.1431   35.2610  -12.1449 H   0  0  0  0  0  0
   15.8067   38.4809   -7.9515 H   0  0  0  0  0  0
   14.5421   34.3414   -8.4363 H   0  0  0  0  0  0
   19.4170   36.3426  -11.5651 H   0  0  0  0  0  0
   20.5002   37.3799   -9.0462 H   0  0  0  0  0  0
   19.7699   35.8511   -8.9433 H   0  0  0  0  0  0
  1  2  1  0  0  0
  1  3  1  0  0  0
  1  4  1  0  0  0
  1  7  1  0  0  0
  2  5  2  0  0  0
  2  9  1  0  0  0
  2 12  1  0  0  0
  3  6  2  0  0  0
  3 10  1  0  0  0
  3 11  1  0  0  0
  4 13  1  0  0  0
  4 14  1  0  0  0
  4 15  1  0  0  0
  7 16  1  0  0  0
  8 13  1  0  0  0
  8 17  1  0  0  0
  8 18  1  0  0  0
  9 19  1  0  0  0
 10 20  1  0  0  0
 11 21  1  0  0  0
 12 22  1  0  0  0
 13 23  1  0  0  0
 13 24  1  0  0  0
M  END
> <s_m_entry_id>
3123

> <s_m_entry_name>
dock_pv.138

> <s_m_Source_Path>
/home/csk/Desktop/cluster/DUD-E-result/fpps

> <s_m_Source_File>
dock_pv.maegz

> <i_m_Source_File_Index>
138

> <chembl_id>
CHEMBL834

> <chembl_pref_name>
PAMIDRONIC ACID

> <i_lp_mmshare_version>
53161

> <r_lp_tautomer_probability>
1

> <s_lp_Force_Field>
OPLS_2005

> <r_lp_Energy>
-4.543468

> <b_lp_Chiralities_Consistent>
1

> <s_lp_Variant>
CHEMBL1782_lig85-1

> <s_i_glide_gridfile>
glide-grid_1zw5

> <i_i_glide_lignum>
93

> <i_i_glide_rotatable_bonds>
9

> <r_i_docking_score>
-7.7610549450687

> <r_i_glide_ligand_efficiency>
-0.597004226543746

> <r_i_glide_ligand_efficiency_sa>
-1.40375674538802

> <r_i_glide_ligand_efficiency_ln>
-2.17704493580662

> <r_i_glide_gscore>
-7.7610549450687

> <r_i_glide_lipo>
0

> <r_i_glide_hbond>
-0.00942948582289089

> <r_i_glide_metal>
-2.16699032138919

> <r_i_glide_rewards>
-1.80634459090909

> <r_i_glide_evdw>
-10.2290182113647

> <r_i_glide_ecoul>
-59.5314979553223

> <r_i_glide_erotb>
0.933160363620711

> <r_i_glide_esite>
-0.2

> <r_i_glide_emodel>
-117.42890539194

> <r_i_glide_energy>
-69.760516166687

> <r_i_glide_einternal>
18.8265018463135

> <i_i_glide_confnum>
14

> <i_i_glide_posenum>
2

> <r_i_glide_eff_state_penalty>
0

> <s_user_duplicate_titles>
CHEMBL1782_lig85,60401

> <i_f3d_flags>
0

> <s_m_subgroup_title>
dock_pv

> <s_m_subgroupid>
dock_pv

> <b_m_subgroup_collapsed>
1

$$$$
CHEMBL1782_lig219
                    3D
 Schrodinger Suite 2021-1.
 41 43  0  0  1  0            999 V2000
   16.5039   36.4150   -8.4406 C   0  0  0  0  0  0
   17.3689   35.3131   -8.8848 N   0  0  0  0  0  0
   17.3010   32.1001  -10.3665 C   0  0  0  0  0  0
   16.1979   31.4368   -9.9650 N   0  0  0  0  0  0
   15.4130   32.1322   -9.1532 C   0  0  0  0  0  0
   15.7116   33.4377   -8.6633 C   0  0  0  0  0  0
   16.8963   34.0285   -9.1710 C   0  0  0  0  0  0
   17.6927   33.3586  -10.0361 N   0  0  0  0  0  0
   14.7290   33.8574   -7.7432 C   0  0  0  0  0  0
   13.6182   33.0657   -7.7932 C   0  0  0  0  0  0
   13.8493   31.5514   -8.6290 S   0  0  0  0  0  0
   12.3236   33.4610   -7.2511 C   0  0  0  0  0  0
   11.6175   32.6322   -6.4024 C   0  0  0  0  0  0
   10.4778   33.1285   -5.8037 C   0  0  0  0  0  0
   10.0183   34.4257   -6.0533 C   0  0  0  0  0  0
   10.7022   35.2211   -6.9707 C   0  0  0  0  0  0
   11.8574   34.7361   -7.5634 C   0  0  0  0  0  0
    8.7906   34.9609   -5.3246 C   0  0  0  0  0  0
   16.4359   37.5771   -9.8584 P   0  0  0  0  0  0
   17.9729   38.1800   -9.5650 O   0  0  0  0  0  0
   16.5010   36.6430  -11.2810 O   0  0  0  0  0  0
   15.3010   38.5800   -9.9909 O   0  0  0  0  0  0
   17.3924   37.1171   -6.9415 P   0  0  0  0  0  0
   17.7010   35.7800   -5.9650 O   0  0  0  0  0  0
   19.0247   37.0955   -7.4462 O   0  0  0  0  0  0
   16.9010   38.3422   -6.2258 O   0  0  0  0  0  0
    7.7388   34.1800   -5.5646 F   0  0  0  0  0  0
    8.4898   36.2012   -5.7067 F   0  0  0  0  0  0
    9.0179   34.9796   -4.0110 F   0  0  0  0  0  0
   15.4833   36.1416   -8.2334 H   0  0  0  0  0  0
   18.0553   35.6342   -9.5651 H   0  0  0  0  0  0
   17.8901   31.5629  -11.0999 H   0  0  0  0  0  0
   14.7376   34.7538   -7.1519 H   0  0  0  0  0  0
   11.9709   31.6358   -6.1776 H   0  0  0  0  0  0
    9.9369   32.4635   -5.1650 H   0  0  0  0  0  0
   10.3659   36.2169   -7.2208 H   0  0  0  0  0  0
   12.4052   35.3629   -8.2529 H   0  0  0  0  0  0
   18.0927   39.1414   -9.8200 H   0  0  0  0  0  0
   17.2997   36.7587  -11.8577 H   0  0  0  0  0  0
   17.7983   35.8913   -4.9894 H   0  0  0  0  0  0
   19.3642   37.7793   -8.0733 H   0  0  0  0  0  0
  1  2  1  0  0  0
  1 19  1  0  0  0
  1 23  1  0  0  0
  1 30  1  0  0  0
  2  7  1  0  0  0
  2 31  1  0  0  0
  3  4  1  0  0  0
  3  8  2  0  0  0
  3 32  1  0  0  0
  4  5  2  0  0  0
  5  6  1  0  0  0
  5 11  1  0  0  0
  6  7  2  0  0  0
  6  9  1  0  0  0
  7  8  1  0  0  0
  9 10  2  0  0  0
  9 33  1  0  0  0
 10 11  1  0  0  0
 10 12  1  0  0  0
 12 13  1  0  0  0
 12 17  2  0  0  0
 13 14  2  0  0  0
 13 34  1  0  0  0
 14 15  1  0  0  0
 14 35  1  0  0  0
 15 16  2  0  0  0
 15 18  1  0  0  0
 16 17  1  0  0  0
 16 36  1  0  0  0
 17 37  1  0  0  0
 18 27  1  0  0  0
 18 28  1  0  0  0
 18 29  1  0  0  0
 19 20  1  0  0  0
 19 21  1  0  0  0
 19 22  2  0  0  0
 20 38  1  0  0  0
 21 39  1  0  0  0
 23 24  1  0  0  0
 23 25  1  0  0  0
 23 26  2  0  0  0
 24 40  1  0  0  0
 25 41  1  0  0  0
M  END
> <s_m_entry_id>
3124

> <s_m_entry_name>
dock_pv.139

> <s_m_Source_Path>
/home/csk/Desktop/cluster/DUD-E-result/fpps

> <s_m_Source_File>
dock_pv.maegz

> <i_m_Source_File_Index>
139

> <chembl_id>
CHEMBL3087934

> <chembl_pref_name>
None

> <i_lp_mmshare_version>
53161

> <r_lp_tautomer_probability>
1

> <s_lp_Force_Field>
OPLS_2005

> <r_lp_Energy>
2.068516

> <b_lp_Chiralities_Consistent>
1

> <s_lp_Variant>
CHEMBL1782_lig219-1

> <s_i_glide_gridfile>
glide-grid_1zw5

> <i_i_glide_lignum>
244

> <i_i_glide_rotatable_bonds>
10

> <r_i_docking_score>
-7.74351078803929

> <r_i_glide_ligand_efficiency>
-0.267017613380665

> <r_i_glide_ligand_efficiency_sa>
-0.820362705423095

> <r_i_glide_ligand_efficiency_ln>
-1.77306761196969

> <r_i_glide_gscore>
-7.74351078803929

> <r_i_glide_lipo>
0

> <r_i_glide_hbond>
0

> <r_i_glide_metal>
-2.197508988126

> <r_i_glide_rewards>
-0.209520620454545

> <r_i_glide_evdw>
-25.1654376983643

> <r_i_glide_ecoul>
-40.1728057861328

> <r_i_glide_erotb>
0.45855821528905

> <r_i_glide_esite>
-0.536767509829585

> <r_i_glide_emodel>
-91.532259248912

> <r_i_glide_energy>
-65.3382434844971

> <r_i_glide_einternal>
19.4551830291748

> <i_i_glide_confnum>
199

> <i_i_glide_posenum>
386

> <r_i_glide_eff_state_penalty>
0

> <s_user_duplicate_titles>
CHEMBL1782_lig219

> <i_f3d_flags>
0

> <s_m_subgroup_title>
dock_pv

> <s_m_subgroupid>
dock_pv

> <b_m_subgroup_collapsed>
1

$$$$
CHEMBL1782_lig50
                    3D
 Schrodinger Suite 2021-1.
 40 40  0  0  1  0            999 V2000
   16.7067   36.8263   -9.3082 C   0  0  0  0  0  0
   18.0064   37.7725   -8.3509 P   0  0  0  0  0  0
   17.4267   35.2351  -10.0880 P   0  0  0  0  0  0
   15.4761   36.6137   -8.3423 C   0  0  0  0  0  0
   18.0976   34.2258   -9.1635 O   0  0  0  0  0  0
   18.5232   36.9738   -7.1712 O   0  0  0  0  0  0
   16.2457   37.6907  -10.3645 O   0  0  0  0  0  0
   16.1182   34.6132  -10.9797 O   0  0  0  0  0  0
   19.1676   38.1292   -9.5645 O   0  0  0  0  0  0
   18.5774   35.7795  -11.1892 O   0  0  0  0  0  0
   17.1720   39.1908   -7.9646 O   0  0  0  0  0  0
   14.0269   34.6249   -7.8622 N   0  0  2  0  0  0
   15.3135   35.2642   -7.6046 C   0  0  0  0  0  0
   13.8776   31.3440   -7.9843 C   0  0  0  0  0  0
   14.0008   33.7045   -9.0003 C   0  0  0  0  0  0
   13.1195   32.4826   -8.6644 C   0  0  0  0  0  0
   14.5908   31.5651   -6.8034 C   0  0  0  0  0  0
   13.8654   30.0663   -8.5493 C   0  0  0  0  0  0
   14.5716   29.0263   -7.9543 C   0  0  0  0  0  0
   15.3013   30.5242   -6.2130 C   0  0  0  0  0  0
   15.3002   29.2639   -6.7969 C   0  0  0  0  0  0
   15.5239   37.3736   -7.5612 H   0  0  0  0  0  0
   14.5205   36.8953   -8.7648 H   0  0  0  0  0  0
   16.8981   38.4054  -10.4745 H   0  0  0  0  0  0
   15.2727   34.3846  -10.5527 H   0  0  0  0  0  0
   19.0300   38.1812  -10.5515 H   0  0  0  0  0  0
   18.6923   36.7121  -11.5666 H   0  0  0  0  0  0
   17.2985   39.9653   -8.5779 H   0  0  0  0  0  0
   13.3326   35.3372   -8.0604 H   0  0  0  0  0  0
   16.1421   34.5705   -7.7213 H   0  0  0  0  0  0
   15.3000   35.4862   -6.5368 H   0  0  0  0  0  0
   13.6866   34.1719   -9.9434 H   0  0  0  0  0  0
   15.0070   33.3253   -9.1811 H   0  0  0  0  0  0
   12.2576   32.7621   -8.0565 H   0  0  0  0  0  0
   12.6900   32.1048   -9.5898 H   0  0  0  0  0  0
   14.6017   32.5396   -6.3405 H   0  0  0  0  0  0
   13.3068   29.8626   -9.4494 H   0  0  0  0  0  0
   14.5549   28.0357   -8.3838 H   0  0  0  0  0  0
   15.8607   30.6937   -5.3049 H   0  0  0  0  0  0
   15.8624   28.4555   -6.3557 H   0  0  0  0  0  0
  1  2  1  0  0  0
  1  3  1  0  0  0
  1  4  1  0  0  0
  1  7  1  0  0  0
  2  6  2  0  0  0
  2  9  1  0  0  0
  2 11  1  0  0  0
  3  5  2  0  0  0
  3  8  1  0  0  0
  3 10  1  0  0  0
  4 13  1  0  0  0
  4 22  1  0  0  0
  4 23  1  0  0  0
  7 24  1  0  0  0
  8 25  1  0  0  0
  9 26  1  0  0  0
 10 27  1  0  0  0
 11 28  1  0  0  0
 12 13  1  0  0  0
 12 15  1  0  0  0
 12 29  1  0  0  0
 13 30  1  0  0  0
 13 31  1  0  0  0
 14 16  1  0  0  0
 14 17  1  0  0  0
 14 18  2  0  0  0
 15 16  1  0  0  0
 15 32  1  0  0  0
 15 33  1  0  0  0
 16 34  1  0  0  0
 16 35  1  0  0  0
 17 20  2  0  0  0
 17 36  1  0  0  0
 18 19  1  0  0  0
 18 37  1  0  0  0
 19 21  2  0  0  0
 19 38  1  0  0  0
 20 21  1  0  0  0
 20 39  1  0  0  0
 21 40  1  0  0  0
M  END
> <s_m_entry_id>
3125

> <s_m_entry_name>
dock_pv.140

> <s_m_Source_Path>
/home/csk/Desktop/cluster/DUD-E-result/fpps

> <s_m_Source_File>
dock_pv.maegz

> <i_m_Source_File_Index>
140

> <chembl_id>
CHEMBL98083

> <chembl_pref_name>
None

> <i_lp_mmshare_version>
53161

> <r_lp_tautomer_probability>
1

> <s_lp_Force_Field>
OPLS_2005

> <r_lp_Energy>
-0.571641

> <b_lp_Chiralities_Consistent>
1

> <s_lp_Variant>
CHEMBL1782_lig50-1

> <s_i_glide_gridfile>
glide-grid_1zw5

> <i_i_glide_lignum>
55

> <i_i_glide_rotatable_bonds>
13

> <r_i_docking_score>
-7.73670693613242

> <r_i_glide_ligand_efficiency>
-0.368414616006306

> <r_i_glide_ligand_efficiency_sa>
-1.01642799000045

> <r_i_glide_ligand_efficiency_ln>
-1.91288515647035

> <r_i_glide_gscore>
-7.73670693613242

> <r_i_glide_lipo>
-0.810992714717844

> <r_i_glide_hbond>
0

> <r_i_glide_metal>
-2.15259150404642

> <r_i_glide_rewards>
-1.09623695454545

> <r_i_glide_evdw>
-12.5592241287231

> <r_i_glide_ecoul>
-65.1186676025391

> <r_i_glide_erotb>
1.15107544361345

> <r_i_glide_esite>
-0.2

> <r_i_glide_emodel>
-117.24560180898

> <r_i_glide_energy>
-77.6778917312622

> <r_i_glide_einternal>
31.5709629058838

> <i_i_glide_confnum>
23

> <i_i_glide_posenum>
13

> <r_i_glide_eff_state_penalty>
0

> <s_user_duplicate_titles>
CHEMBL1782_lig50

> <i_f3d_flags>
0

> <s_m_subgroup_title>
dock_pv

> <s_m_subgroupid>
dock_pv

> <b_m_subgroup_collapsed>
1

$$$$
CHEMBL1782_lig132
                    3D
 Schrodinger Suite 2021-1.
 30 29  0  0  1  0            999 V2000
   16.4888   35.5026   -9.1464 C   0  0  0  0  0  0
   17.8141   34.8755  -10.3452 P   0  0  0  0  0  0
   16.2629   37.3526   -9.3341 P   0  0  0  0  0  0
   14.9010   37.6478   -8.3720 O   0  0  0  0  0  0
   17.6262   38.0108   -8.5611 O   0  0  0  0  0  0
   17.3183   35.5347  -11.8379 O   0  0  0  0  0  0
   19.1385   35.7800   -9.7757 O   0  0  0  0  0  0
   18.1010   33.3800  -10.3649 O   0  0  0  0  0  0
   16.1010   37.7964  -10.7644 O   0  0  0  0  0  0
   16.9010   35.3795   -7.7902 O   0  0  0  0  0  0
   15.1771   34.6706   -9.2951 C   0  0  0  0  0  0
   15.2094   33.2138   -8.7425 C   0  0  0  0  0  0
   14.1010   32.0258   -9.5650 S   0  3  0  0  0  0
   14.4636   30.4865   -8.6761 C   0  0  0  0  0  0
   12.5036   32.4591   -8.8262 C   0  0  0  0  0  0
   14.0039   37.3800   -8.6849 H   0  0  0  0  0  0
   17.9440   38.9002   -8.8438 H   0  0  0  0  0  0
   19.5211   36.5201  -10.3029 H   0  0  0  0  0  0
   16.1558   35.6617   -7.2432 H   0  0  0  0  0  0
   14.3584   35.1828   -8.7858 H   0  0  0  0  0  0
   14.9010   34.6506  -10.3501 H   0  0  0  0  0  0
   16.1996   32.7815   -8.8604 H   0  0  0  0  0  0
   15.0263   33.2021   -7.6669 H   0  0  0  0  0  0
   13.7594   29.7109   -8.9832 H   0  0  0  0  0  0
   15.4692   30.1336   -8.9071 H   0  0  0  0  0  0
   14.3789   30.6139   -7.5969 H   0  0  0  0  0  0
   11.7476   31.7388   -9.1414 H   0  0  0  0  0  0
   12.5506   32.4526   -7.7377 H   0  0  0  0  0  0
   12.1857   33.4454   -9.1648 H   0  0  0  0  0  0
   17.7644   36.3332  -12.2164 H   0  0  0  0  0  0
  1 10  1  0  0  0
  1  3  1  0  0  0
  1 11  1  0  0  0
  1  2  1  0  0  0
  2  8  2  0  0  0
  2  6  1  0  0  0
  2  7  1  0  0  0
  3  9  2  0  0  0
  3  5  1  0  0  0
  3  4  1  0  0  0
  4 16  1  0  0  0
  5 17  1  0  0  0
  6 30  1  0  0  0
  7 18  1  0  0  0
 10 19  1  0  0  0
 11 12  1  0  0  0
 11 20  1  0  0  0
 11 21  1  0  0  0
 12 13  1  0  0  0
 12 22  1  0  0  0
 12 23  1  0  0  0
 13 14  1  0  0  0
 13 15  1  0  0  0
 14 24  1  0  0  0
 14 25  1  0  0  0
 14 26  1  0  0  0
 15 27  1  0  0  0
 15 28  1  0  0  0
 15 29  1  0  0  0
M  CHG  1  13   1
M  END
> <s_m_entry_id>
3126

> <s_m_entry_name>
dock_pv.141

> <s_m_Source_Path>
/home/csk/Desktop/cluster/DUD-E-result/fpps

> <s_m_Source_File>
dock_pv.maegz

> <i_m_Source_File_Index>
141

> <chembl_id>
CHEMBL392675

> <chembl_pref_name>
None

> <i_lp_mmshare_version>
53161

> <r_lp_tautomer_probability>
1

> <s_lp_Force_Field>
OPLS_2005

> <r_lp_Energy>
-15.069953

> <b_lp_Chiralities_Consistent>
1

> <s_lp_Variant>
CHEMBL1782_lig132-1

> <s_i_glide_gridfile>
glide-grid_1zw5

> <i_i_glide_lignum>
144

> <i_i_glide_rotatable_bonds>
10

> <r_i_docking_score>
-7.71424411397383

> <r_i_glide_ligand_efficiency>
-0.514282940931589

> <r_i_glide_ligand_efficiency_sa>
-1.26833079740277

> <r_i_glide_ligand_efficiency_ln>
-2.08040444319788

> <r_i_glide_gscore>
-7.71424411397383

> <r_i_glide_lipo>
0

> <r_i_glide_hbond>
0

> <r_i_glide_metal>
-2.3

> <r_i_glide_rewards>
-1.19194145454545

> <r_i_glide_evdw>
-12.0255270004272

> <r_i_glide_ecoul>
-48.9466133117676

> <r_i_glide_erotb>
0.640036041247466

> <r_i_glide_esite>
-0.261062350654482

> <r_i_glide_emodel>
-97.5906745472402

> <r_i_glide_energy>
-60.9721403121948

> <r_i_glide_einternal>
21.0334053039551

> <i_i_glide_confnum>
33

> <i_i_glide_posenum>
340

> <r_i_glide_eff_state_penalty>
0

> <s_user_duplicate_titles>
CHEMBL1782_lig132

> <i_f3d_flags>
0

> <s_m_subgroup_title>
dock_pv

> <s_m_subgroupid>
dock_pv

> <b_m_subgroup_collapsed>
1

$$$$
CHEMBL1782_lig302
                    3D
 Schrodinger Suite 2021-1.
 25 24  0  0  1  0            999 V2000
   15.5419   34.3358  -10.1490 C   0  0  0  0  0  0
   16.5506   35.5266  -10.2265 C   0  0  0  0  0  0
   16.5641   36.5340   -8.6157 P   0  0  0  0  0  0
   18.1994   34.8569  -10.9168 P   0  0  0  0  0  0
   18.5015   33.3800  -10.7624 O   0  0  0  0  0  0
   17.7010   36.1800   -7.6699 O   0  0  0  0  0  0
   16.5011   38.1802   -9.0932 O   0  0  0  0  0  0
   14.9982   36.2688   -7.9677 O   0  0  0  0  0  0
   18.1891   35.3800  -12.5329 O   0  0  0  0  0  0
   19.3022   35.8185  -10.0552 O   0  0  0  0  0  0
   15.7636   33.3134   -9.0075 C   0  0  0  0  0  0
   16.1010   36.4630  -11.1997 O   0  0  0  0  0  0
   14.8003   32.1202   -9.0957 C   0  0  0  0  0  0
   15.5470   33.8039  -11.1015 H   0  0  0  0  0  0
   14.5197   34.6939  -10.0409 H   0  0  0  0  0  0
   17.1834   38.7207   -9.5637 H   0  0  0  0  0  0
   14.2380   36.0298   -8.5389 H   0  0  0  0  0  0
   18.5512   36.2680  -12.7726 H   0  0  0  0  0  0
   19.7717   36.5675  -10.4870 H   0  0  0  0  0  0
   15.6302   33.7891   -8.0352 H   0  0  0  0  0  0
   16.7791   32.9262   -9.0084 H   0  0  0  0  0  0
   16.8914   36.7382  -11.6986 H   0  0  0  0  0  0
   14.9528   31.4316   -8.2638 H   0  0  0  0  0  0
   14.9472   31.5544  -10.0157 H   0  0  0  0  0  0
   13.7581   32.4417   -9.0680 H   0  0  0  0  0  0
  1  2  1  0  0  0
  1 11  1  0  0  0
  1 14  1  0  0  0
  1 15  1  0  0  0
  2  3  1  0  0  0
  2  4  1  0  0  0
  2 12  1  0  0  0
  3  7  1  0  0  0
  3  8  1  0  0  0
  3  6  2  0  0  0
  4  9  1  0  0  0
  4 10  1  0  0  0
  4  5  2  0  0  0
  7 16  1  0  0  0
  8 17  1  0  0  0
  9 18  1  0  0  0
 10 19  1  0  0  0
 11 13  1  0  0  0
 11 20  1  0  0  0
 11 21  1  0  0  0
 12 22  1  0  0  0
 13 23  1  0  0  0
 13 24  1  0  0  0
 13 25  1  0  0  0
M  END
> <s_m_entry_id>
3127

> <s_m_entry_name>
dock_pv.142

> <s_m_Source_Path>
/home/csk/Desktop/cluster/DUD-E-result/fpps

> <s_m_Source_File>
dock_pv.maegz

> <i_m_Source_File_Index>
142

> <chembl_id>
CHEMBL52761

> <chembl_pref_name>
None

> <i_lp_mmshare_version>
53161

> <r_lp_tautomer_probability>
1

> <s_lp_Force_Field>
OPLS_2005

> <r_lp_Energy>
-6.163994

> <b_lp_Chiralities_Consistent>
1

> <s_lp_Variant>
CHEMBL1782_lig302-1

> <s_i_glide_gridfile>
glide-grid_1zw5

> <i_i_glide_lignum>
348

> <i_i_glide_rotatable_bonds>
9

> <r_i_docking_score>
-7.70599018389575

> <r_i_glide_ligand_efficiency>
-0.592768475684289

> <r_i_glide_ligand_efficiency_sa>
-1.39379707747215

> <r_i_glide_ligand_efficiency_ln>
-2.16159878057367

> <r_i_glide_gscore>
-7.70599018389575

> <r_i_glide_lipo>
0

> <r_i_glide_hbond>
0

> <r_i_glide_metal>
-2.3

> <r_i_glide_rewards>
-1.81308136363636

> <r_i_glide_evdw>
-6.65559148788452

> <r_i_glide_ecoul>
-51.6252937316895

> <r_i_glide_erotb>
0.939870754134838

> <r_i_glide_esite>
-0.2

> <r_i_glide_emodel>
-103.102698021841

> <r_i_glide_energy>
-58.280885219574

> <r_i_glide_einternal>
19.7283058166504

> <i_i_glide_confnum>
6

> <i_i_glide_posenum>
35

> <r_i_glide_eff_state_penalty>
0

> <s_user_duplicate_titles>
CHEMBL1782_lig302

> <i_f3d_flags>
0

> <s_m_subgroup_title>
dock_pv

> <s_m_subgroupid>
dock_pv

> <b_m_subgroup_collapsed>
1

$$$$
CHEMBL1782_lig215
                    3D
 Schrodinger Suite 2021-1.
 45 48  0  0  1  0            999 V2000
   15.5033   34.9662   -9.7126 C   0  0  0  0  0  0
   14.9010   33.7962  -10.3650 N   0  0  0  0  0  0
   14.1010   30.5237   -9.2404 C   0  0  0  0  0  0
   13.1136   30.5980   -8.3188 N   0  0  0  0  0  0
   12.6751   31.8361   -8.0798 C   0  0  0  0  0  0
   13.1755   33.0180   -8.6979 C   0  0  0  0  0  0
   14.2066   32.7995   -9.6533 C   0  0  0  0  0  0
   14.6451   31.5470   -9.9371 N   0  0  0  0  0  0
   12.5228   34.1800   -8.1782 C   0  0  0  0  0  0
   11.6088   33.9023   -7.1702 C   0  0  0  0  0  0
   11.4036   32.1810   -6.9327 S   0  0  0  0  0  0
   10.8719   34.8456   -6.2720 C   0  0  0  0  0  0
   10.2031   35.9702   -6.7650 C   0  0  0  0  0  0
    9.7010   36.9292   -5.8811 C   0  0  0  0  0  0
    9.8702   36.7615   -4.5026 C   0  0  0  0  0  0
   10.4388   35.5917   -4.0087 C   0  0  0  0  0  0
   10.9363   34.6420   -4.8903 C   0  0  0  0  0  0
    9.4597   37.8448   -3.5178 C   0  0  1  0  0  0
   10.4187   38.5420   -2.5836 C   0  0  0  0  0  0
    9.8467   39.2935   -3.7615 C   0  0  0  0  0  0
    9.9829   38.8851   -1.3744 F   0  0  0  0  0  0
   11.7010   38.1800   -2.6105 F   0  0  0  0  0  0
   16.5475   35.8886  -10.9801 P   0  0  0  0  0  0
   16.1010   37.5395  -10.7650 O   0  0  0  0  0  0
   18.1361   35.9353  -10.3650 O   0  0  0  0  0  0
   16.5010   35.3800  -12.3917 O   0  0  0  0  0  0
   16.6413   34.2817   -8.5416 P   0  0  0  0  0  0
   17.3010   35.6821   -7.7773 O   0  0  0  0  0  0
   15.6796   33.5752   -7.3354 O   0  0  0  0  0  0
   17.7010   33.3800   -9.1650 O   0  0  0  0  0  0
   14.7934   35.5871   -9.1678 H   0  0  0  0  0  0
   15.4881   33.3973  -11.0839 H   0  0  0  0  0  0
   14.4534   29.5294   -9.4798 H   0  0  0  0  0  0
   12.7632   35.1834   -8.4894 H   0  0  0  0  0  0
   10.1338   36.1337   -7.8319 H   0  0  0  0  0  0
    9.2428   37.8273   -6.2701 H   0  0  0  0  0  0
   10.5471   35.4413   -2.9443 H   0  0  0  0  0  0
   11.4372   33.7800   -4.4854 H   0  0  0  0  0  0
    8.5010   37.6451   -3.0501 H   0  0  0  0  0  0
   10.5103   39.5538   -4.5851 H   0  0  0  0  0  0
    9.1230   40.0864   -3.5650 H   0  0  0  0  0  0
   16.8069   38.2204  -10.5995 H   0  0  0  0  0  0
   18.8080   36.4326  -10.8959 H   0  0  0  0  0  0
   16.9010   36.5749   -7.8898 H   0  0  0  0  0  0
   16.0242   32.8679   -6.7534 H   0  0  0  0  0  0
  1  2  1  0  0  0
  1 23  1  0  0  0
  1 27  1  0  0  0
  1 31  1  0  0  0
  2  7  1  0  0  0
  2 32  1  0  0  0
  3  4  1  0  0  0
  3  8  2  0  0  0
  3 33  1  0  0  0
  4  5  2  0  0  0
  5  6  1  0  0  0
  5 11  1  0  0  0
  6  7  2  0  0  0
  6  9  1  0  0  0
  7  8  1  0  0  0
  9 10  2  0  0  0
  9 34  1  0  0  0
 10 11  1  0  0  0
 10 12  1  0  0  0
 12 13  1  0  0  0
 12 17  2  0  0  0
 13 14  2  0  0  0
 13 35  1  0  0  0
 14 15  1  0  0  0
 14 36  1  0  0  0
 15 16  2  0  0  0
 15 18  1  0  0  0
 16 17  1  0  0  0
 16 37  1  0  0  0
 17 38  1  0  0  0
 18 19  1  0  0  0
 18 20  1  0  0  0
 18 39  1  0  0  0
 19 20  1  0  0  0
 19 21  1  0  0  0
 19 22  1  0  0  0
 20 40  1  0  0  0
 20 41  1  0  0  0
 23 24  1  0  0  0
 23 25  1  0  0  0
 23 26  2  0  0  0
 24 42  1  0  0  0
 25 43  1  0  0  0
 27 28  1  0  0  0
 27 29  1  0  0  0
 27 30  2  0  0  0
 28 44  1  0  0  0
 29 45  1  0  0  0
M  END
> <s_m_entry_id>
3128

> <s_m_entry_name>
dock_pv.143

> <s_m_Source_Path>
/home/csk/Desktop/cluster/DUD-E-result/fpps

> <s_m_Source_File>
dock_pv.maegz

> <i_m_Source_File_Index>
143

> <chembl_id>
CHEMBL3087938

> <chembl_pref_name>
None

> <i_lp_mmshare_version>
53161

> <r_lp_tautomer_probability>
1

> <s_lp_Force_Field>
OPLS_2005

> <r_lp_Energy>
11.495671

> <b_lp_Chiralities_Consistent>
1

> <s_lp_Variant>
CHEMBL1782_lig215-2

> <s_i_glide_gridfile>
glide-grid_1zw5

> <i_i_glide_lignum>
240

> <i_i_glide_rotatable_bonds>
10

> <r_i_docking_score>
-7.69873328335274

> <r_i_glide_ligand_efficiency>
-0.256624442778425

> <r_i_glide_ligand_efficiency_sa>
-0.797391809519388

> <r_i_glide_ligand_efficiency_ln>
-1.74923608639548

> <r_i_glide_gscore>
-7.69873328335274

> <r_i_glide_lipo>
-0.228748494230139

> <r_i_glide_hbond>
0

> <r_i_glide_metal>
-2.3

> <r_i_glide_rewards>
-0.154655959090908

> <r_i_glide_evdw>
-21.3435287475586

> <r_i_glide_ecoul>
-46.6553115844727

> <r_i_glide_erotb>
0.533452649881136

> <r_i_glide_esite>
-0.481605042534899

> <r_i_glide_emodel>
-93.985619687353

> <r_i_glide_energy>
-67.9988403320312

> <r_i_glide_einternal>
31.2845554351807

> <i_i_glide_confnum>
74

> <i_i_glide_posenum>
157

> <r_i_glide_eff_state_penalty>
0

> <s_user_duplicate_titles>
CHEMBL1782_lig215

> <i_f3d_flags>
0

> <s_m_subgroup_title>
dock_pv

> <s_m_subgroupid>
dock_pv

> <b_m_subgroup_collapsed>
1

$$$$
CHEMBL1782_lig66
                    3D
 Schrodinger Suite 2021-1.
 44 44  0  0  1  0            999 V2000
   16.3401   37.0995   -8.9531 C   0  0  0  0  0  0
   17.6550   37.7293   -7.7634 P   0  0  0  0  0  0
   16.8766   35.8633  -10.2530 P   0  0  0  0  0  0
   15.1064   36.5834   -8.1513 C   0  0  0  0  0  0
   18.2907   36.5802   -6.9977 O   0  0  0  0  0  0
   16.1012   35.9759  -11.5579 O   0  0  0  0  0  0
   15.8608   38.1801   -9.7574 O   0  0  0  0  0  0
   18.7292   38.5800   -8.7648 O   0  0  0  0  0  0
   18.5559   36.1326  -10.3649 O   0  0  0  0  0  0
   16.8249   38.8498   -6.7821 O   0  0  0  0  0  0
   16.7746   34.3547   -9.4390 O   0  0  0  0  0  0
   14.1852   32.8299   -9.0066 S   0  0  0  0  0  0
   14.3678   34.7770   -6.5362 N   0  0  1  0  0  0
   14.5889   31.3367   -8.1626 C   0  0  0  0  0  0
   12.2279   33.6976   -7.0751 C   0  0  0  0  0  0
   15.3012   35.8710   -6.7876 C   0  0  0  0  0  0
   12.9362   35.0117   -6.6842 C   0  0  0  0  0  0
   12.4741   33.2135   -8.5239 C   0  0  0  0  0  0
   14.9558   31.3621   -6.8156 C   0  0  0  0  0  0
   14.5543   30.1351   -8.8641 C   0  0  0  0  0  0
   14.9011   28.9530   -8.2176 C   0  0  0  0  0  0
   15.3008   30.1779   -6.1725 C   0  0  0  0  0  0
   15.2673   28.9786   -6.8750 C   0  0  0  0  0  0
   14.4985   37.4560   -7.9647 H   0  0  0  0  0  0
   14.5007   35.9330   -8.7675 H   0  0  0  0  0  0
   16.5187   38.8963   -9.7966 H   0  0  0  0  0  0
   18.4412   39.1685   -9.5055 H   0  0  0  0  0  0
   18.9001   36.8890  -10.9278 H   0  0  0  0  0  0
   16.0689   39.3819   -7.0889 H   0  0  0  0  0  0
   15.9101   33.9673   -9.1809 H   0  0  0  0  0  0
   14.6026   33.9622   -7.0955 H   0  0  0  0  0  0
   12.4784   32.9041   -6.3688 H   0  0  0  0  0  0
   11.1539   33.8495   -6.9627 H   0  0  0  0  0  0
   16.2661   35.3710   -6.7635 H   0  0  0  0  0  0
   15.2997   36.5855   -5.9639 H   0  0  0  0  0  0
   12.5272   35.3833   -5.7457 H   0  0  0  0  0  0
   12.7237   35.7584   -7.4505 H   0  0  0  0  0  0
   11.8733   32.3236   -8.7179 H   0  0  0  0  0  0
   12.1116   33.9731   -9.2180 H   0  0  0  0  0  0
   14.9990   32.2816   -6.2574 H   0  0  0  0  0  0
   14.2615   30.1109   -9.9040 H   0  0  0  0  0  0
   14.9009   28.0180   -8.7592 H   0  0  0  0  0  0
   15.6080   30.1821   -5.1367 H   0  0  0  0  0  0
   15.5447   28.0613   -6.3758 H   0  0  0  0  0  0
  1  2  1  0  0  0
  1  3  1  0  0  0
  1  4  1  0  0  0
  1  7  1  0  0  0
  2  5  2  0  0  0
  2  8  1  0  0  0
  2 10  1  0  0  0
  3  6  2  0  0  0
  3  9  1  0  0  0
  3 11  1  0  0  0
  4 16  1  0  0  0
  4 24  1  0  0  0
  4 25  1  0  0  0
  7 26  1  0  0  0
  8 27  1  0  0  0
  9 28  1  0  0  0
 10 29  1  0  0  0
 11 30  1  0  0  0
 12 18  1  0  0  0
 12 14  1  0  0  0
 13 16  1  0  0  0
 13 17  1  0  0  0
 13 31  1  0  0  0
 14 19  1  0  0  0
 14 20  2  0  0  0
 15 17  1  0  0  0
 15 18  1  0  0  0
 15 32  1  0  0  0
 15 33  1  0  0  0
 16 34  1  0  0  0
 16 35  1  0  0  0
 17 36  1  0  0  0
 17 37  1  0  0  0
 18 38  1  0  0  0
 18 39  1  0  0  0
 19 22  2  0  0  0
 19 40  1  0  0  0
 20 21  1  0  0  0
 20 41  1  0  0  0
 21 23  2  0  0  0
 21 42  1  0  0  0
 22 23  1  0  0  0
 22 43  1  0  0  0
 23 44  1  0  0  0
M  END
> <s_m_entry_id>
3129

> <s_m_entry_name>
dock_pv.144

> <s_m_Source_Path>
/home/csk/Desktop/cluster/DUD-E-result/fpps

> <s_m_Source_File>
dock_pv.maegz

> <i_m_Source_File_Index>
144

> <chembl_id>
CHEMBL100232

> <chembl_pref_name>
None

> <i_lp_mmshare_version>
53161

> <r_lp_tautomer_probability>
1

> <s_lp_Force_Field>
OPLS_2005

> <r_lp_Energy>
-6.297576

> <b_lp_Chiralities_Consistent>
1

> <s_lp_Variant>
CHEMBL1782_lig66-1

> <s_i_glide_gridfile>
glide-grid_1zw5

> <i_i_glide_lignum>
72

> <i_i_glide_rotatable_bonds>
15

> <r_i_docking_score>
-7.69271286976969

> <r_i_glide_ligand_efficiency>
-0.334465776946508

> <r_i_glide_ligand_efficiency_sa>
-0.951176177954438

> <r_i_glide_ligand_efficiency_ln>
-1.86016772557408

> <r_i_glide_gscore>
-7.69271286976969

> <r_i_glide_lipo>
-0.777338458648896

> <r_i_glide_hbond>
-0.0473548947164005

> <r_i_glide_metal>
-1.73276906814064

> <r_i_glide_rewards>
-0.781969363636362

> <r_i_glide_evdw>
-26.6490383148193

> <r_i_glide_ecoul>
-52.3725814819336

> <r_i_glide_erotb>
1.17917083111358

> <r_i_glide_esite>
-0.2

> <r_i_glide_emodel>
-134.140821720106

> <r_i_glide_energy>
-79.0216197967529

> <r_i_glide_einternal>
16.812313079834

> <i_i_glide_confnum>
222

> <i_i_glide_posenum>
153

> <r_i_glide_eff_state_penalty>
0

> <s_user_duplicate_titles>
CHEMBL1782_lig66

> <i_f3d_flags>
0

> <s_m_subgroup_title>
dock_pv

> <s_m_subgroupid>
dock_pv

> <b_m_subgroup_collapsed>
1

$$$$
CHEMBL1782_lig81
                    3D
 Schrodinger Suite 2021-1.
 27 26  0  0  1  0            999 V2000
   16.2602   37.1560   -9.1640 P   0  0  0  0  0  0
   17.8526   34.8094  -10.5173 P   0  0  0  0  0  0
   16.1884   35.4591   -9.9529 C   0  0  0  0  0  0
   17.4276   37.4101   -8.2391 O   0  0  0  0  0  0
   18.1004   33.3283  -10.3651 O   0  0  0  0  0  0
   16.0998   38.1800  -10.5379 O   0  0  0  0  0  0
   18.0018   35.3826  -12.1142 O   0  0  0  0  0  0
   18.9003   35.6751   -9.4771 O   0  0  0  0  0  0
   14.7859   37.3009   -8.3642 O   0  0  0  0  0  0
   15.5067   34.4345   -8.9982 C   0  0  0  0  0  0
   14.8850   33.2123   -9.7106 C   0  0  0  0  0  0
   14.2692   32.1583   -8.7700 C   0  0  0  0  0  0
   15.2811   31.4485   -7.8559 C   0  0  0  0  0  0
   15.5520   35.5407  -10.8369 H   0  0  0  0  0  0
   16.6051   39.0444  -10.5016 H   0  0  0  0  0  0
   18.2650   36.3242  -12.3224 H   0  0  0  0  0  0
   19.4404   36.4245   -9.8212 H   0  0  0  0  0  0
   13.9478   36.9803   -8.7759 H   0  0  0  0  0  0
   14.6924   34.9072   -8.4501 H   0  0  0  0  0  0
   16.2143   34.1111   -8.2355 H   0  0  0  0  0  0
   15.6094   32.7249  -10.3618 H   0  0  0  0  0  0
   14.0881   33.5683  -10.3617 H   0  0  0  0  0  0
   13.7635   31.4039   -9.3771 H   0  0  0  0  0  0
   13.4867   32.6155   -8.1619 H   0  0  0  0  0  0
   14.7985   30.6402   -7.3048 H   0  0  0  0  0  0
   15.7043   32.1300   -7.1182 H   0  0  0  0  0  0
   16.1010   31.0090   -8.4267 H   0  0  0  0  0  0
  1  3  1  0  0  0
  1  4  2  0  0  0
  1  6  1  0  0  0
  1  9  1  0  0  0
  2  3  1  0  0  0
  2  5  2  0  0  0
  2  7  1  0  0  0
  2  8  1  0  0  0
  3 10  1  0  0  0
  3 14  1  0  0  0
  6 15  1  0  0  0
  7 16  1  0  0  0
  8 17  1  0  0  0
  9 18  1  0  0  0
 10 11  1  0  0  0
 10 19  1  0  0  0
 10 20  1  0  0  0
 11 12  1  0  0  0
 11 21  1  0  0  0
 11 22  1  0  0  0
 12 13  1  0  0  0
 12 23  1  0  0  0
 12 24  1  0  0  0
 13 25  1  0  0  0
 13 26  1  0  0  0
 13 27  1  0  0  0
M  END
> <s_m_entry_id>
3130

> <s_m_entry_name>
dock_pv.145

> <s_m_Source_Path>
/home/csk/Desktop/cluster/DUD-E-result/fpps

> <s_m_Source_File>
dock_pv.maegz

> <i_m_Source_File_Index>
145

> <chembl_id>
CHEMBL322551

> <chembl_pref_name>
None

> <i_lp_mmshare_version>
53161

> <r_lp_tautomer_probability>
1

> <s_lp_Force_Field>
OPLS_2005

> <r_lp_Energy>
-8.928379

> <b_lp_Chiralities_Consistent>
1

> <s_lp_Variant>
CHEMBL1782_lig81-1

> <s_i_glide_gridfile>
glide-grid_1zw5

> <i_i_glide_lignum>
89

> <i_i_glide_rotatable_bonds>
9

> <r_i_docking_score>
-7.6855869724938

> <r_i_glide_ligand_efficiency>
-0.591198997884139

> <r_i_glide_ligand_efficiency_sa>
-1.39010670988221

> <r_i_glide_ligand_efficiency_ln>
-2.15587549831743

> <r_i_glide_gscore>
-7.6855869724938

> <r_i_glide_lipo>
0

> <r_i_glide_hbond>
0

> <r_i_glide_metal>
-2.3

> <r_i_glide_rewards>
-1.82653240909091

> <r_i_glide_evdw>
-12.6074857711792

> <r_i_glide_ecoul>
-45.651481628418

> <r_i_glide_erotb>
1.27131972515607

> <r_i_glide_esite>
-0.2

> <r_i_glide_emodel>
-98.6294848551586

> <r_i_glide_energy>
-58.2589673995972

> <r_i_glide_einternal>
21.1080760955811

> <i_i_glide_confnum>
8

> <i_i_glide_posenum>
350

> <r_i_glide_eff_state_penalty>
0

> <s_user_duplicate_titles>
CHEMBL1782_lig81,180882

> <i_f3d_flags>
0

> <s_m_subgroup_title>
dock_pv

> <s_m_subgroupid>
dock_pv

> <b_m_subgroup_collapsed>
1

$$$$
CHEMBL1782_lig104
                    3D
 Schrodinger Suite 2021-1.
 39 39  0  0  1  0            999 V2000
   15.7459   34.9682  -10.0326 C   0  0  0  0  0  0
   17.1893   33.8920  -10.3650 P   0  0  0  0  0  0
   16.3198   36.5140   -9.1272 P   0  0  0  0  0  0
   14.6932   34.1995   -9.3347 N   0  0  1  0  0  0
   18.1010   33.7800   -9.1713 O   0  0  0  0  0  0
   17.5161   36.3068   -8.1924 O   0  0  0  0  0  0
   16.5372   32.3827  -10.7650 O   0  0  0  0  0  0
   16.5010   37.6017  -10.4655 O   0  0  0  0  0  0
   14.9010   37.0643   -8.3650 O   0  0  0  0  0  0
   17.9462   34.5800  -11.7332 O   0  0  0  0  0  0
   14.9234   33.6979   -7.9768 C   0  0  0  0  0  0
   13.8169   34.2126   -7.0221 C   0  0  0  0  0  0
   15.1342   32.1618   -7.9701 C   0  0  0  0  0  0
   14.2452   31.2709   -8.8697 C   0  0  0  0  0  0
   12.3350   34.1542   -7.4636 C   0  0  0  0  0  0
   12.9208   30.8060   -8.2485 C   0  0  0  0  0  0
   11.7350   31.7800   -8.3650 C   0  0  0  0  0  0
   11.6055   32.8179   -7.2360 C   0  0  0  0  0  0
   15.3010   35.2552  -10.9871 H   0  0  0  0  0  0
   13.8128   34.7023   -9.3762 H   0  0  0  0  0  0
   15.8410   31.9565  -10.2228 H   0  0  0  0  0  0
   17.3607   37.7384  -10.9457 H   0  0  0  0  0  0
   14.0116   36.9150   -8.7618 H   0  0  0  0  0  0
   18.2593   35.5076  -11.8082 H   0  0  0  0  0  0
   15.8508   34.1309   -7.5992 H   0  0  0  0  0  0
   13.9217   33.7190   -6.0547 H   0  0  0  0  0  0
   14.0450   35.2568   -6.8104 H   0  0  0  0  0  0
   16.1686   31.9739   -8.2503 H   0  0  0  0  0  0
   15.0869   31.7956   -6.9433 H   0  0  0  0  0  0
   14.8175   30.3664   -9.0867 H   0  0  0  0  0  0
   14.0604   31.7185   -9.8466 H   0  0  0  0  0  0
   11.8042   34.9017   -6.8721 H   0  0  0  0  0  0
   12.2027   34.4894   -8.4928 H   0  0  0  0  0  0
   13.0697   30.5009   -7.2120 H   0  0  0  0  0  0
   12.6322   29.8883   -8.7650 H   0  0  0  0  0  0
   10.8294   31.1705   -8.3464 H   0  0  0  0  0  0
   11.7227   32.2610   -9.3437 H   0  0  0  0  0  0
   11.8823   32.3797   -6.2760 H   0  0  0  0  0  0
   10.5432   33.0483   -7.1404 H   0  0  0  0  0  0
  1  2  1  0  0  0
  1  3  1  0  0  0
  1  4  1  0  0  0
  1 19  1  0  0  0
  2  5  2  0  0  0
  2  7  1  0  0  0
  2 10  1  0  0  0
  3  6  2  0  0  0
  3  8  1  0  0  0
  3  9  1  0  0  0
  4 11  1  0  0  0
  4 20  1  0  0  0
  7 21  1  0  0  0
  8 22  1  0  0  0
  9 23  1  0  0  0
 10 24  1  0  0  0
 11 12  1  0  0  0
 11 13  1  0  0  0
 11 25  1  0  0  0
 12 15  1  0  0  0
 12 26  1  0  0  0
 12 27  1  0  0  0
 13 14  1  0  0  0
 13 28  1  0  0  0
 13 29  1  0  0  0
 14 16  1  0  0  0
 14 30  1  0  0  0
 14 31  1  0  0  0
 15 18  1  0  0  0
 15 32  1  0  0  0
 15 33  1  0  0  0
 16 17  1  0  0  0
 16 34  1  0  0  0
 16 35  1  0  0  0
 17 18  1  0  0  0
 17 36  1  0  0  0
 17 37  1  0  0  0
 18 38  1  0  0  0
 18 39  1  0  0  0
M  END
> <s_m_entry_id>
3131

> <s_m_entry_name>
dock_pv.146

> <s_m_Source_Path>
/home/csk/Desktop/cluster/DUD-E-result/fpps

> <s_m_Source_File>
dock_pv.maegz

> <i_m_Source_File_Index>
146

> <chembl_id>
CHEMBL412889

> <chembl_pref_name>
(CYCLOOCTYLAMINO)METHYLENEDIPHOSPHONIC ACID

> <i_lp_mmshare_version>
53161

> <r_lp_tautomer_probability>
1

> <s_lp_Force_Field>
OPLS_2005

> <r_lp_Energy>
15.636834

> <b_lp_Chiralities_Consistent>
1

> <s_lp_Variant>
CHEMBL1782_lig104-1

> <s_i_glide_gridfile>
glide-grid_1zw5

> <i_i_glide_lignum>
115

> <i_i_glide_rotatable_bonds>
8

> <r_i_docking_score>
-7.66443040983589

> <r_i_glide_ligand_efficiency>
-0.425801689435327

> <r_i_glide_ligand_efficiency_sa>
-1.11591611215211

> <r_i_glide_ligand_efficiency_ln>
-1.97010231587242

> <r_i_glide_gscore>
-7.66443040983589

> <r_i_glide_lipo>
0

> <r_i_glide_hbond>
-0.0285633877607185

> <r_i_glide_metal>
-1.43684186750977

> <r_i_glide_rewards>
-1.35536140909091

> <r_i_glide_evdw>
-21.6371574401855

> <r_i_glide_ecoul>
-45.6201553344727

> <r_i_glide_erotb>
0.425730735467167

> <r_i_glide_esite>
-0.187536608932377

> <r_i_glide_emodel>
-110.947244887298

> <r_i_glide_energy>
-67.2573127746582

> <r_i_glide_einternal>
10.5999822616577

> <i_i_glide_confnum>
41

> <i_i_glide_posenum>
285

> <r_i_glide_eff_state_penalty>
0

> <s_user_duplicate_titles>
CHEMBL1782_lig104,84208

> <i_f3d_flags>
0

> <s_m_subgroup_title>
dock_pv

> <s_m_subgroupid>
dock_pv

> <b_m_subgroup_collapsed>
1

$$$$
CHEMBL1782_lig54
                    3D
 Schrodinger Suite 2021-1.
 50 50  0  0  1  0            999 V2000
   16.3284   35.8488   -8.6435 C   0  0  0  0  0  0
   16.7365   34.5326   -9.9646 P   0  0  0  0  0  0
   16.4672   37.6583   -9.1443 P   0  0  0  0  0  0
   14.9603   35.5803   -7.9355 C   0  0  0  0  0  0
   17.7010   33.4233   -9.5650 O   0  0  0  0  0  0
   15.7010   38.1197  -10.3648 O   0  0  0  0  0  0
   17.3000   35.7798   -7.5999 O   0  0  0  0  0  0
   15.2114   33.9302  -10.3796 O   0  0  0  0  0  0
   16.0955   38.4819   -7.6994 O   0  0  0  0  0  0
   17.2562   35.4448  -11.3175 O   0  0  0  0  0  0
   18.1544   37.7796   -9.2811 O   0  0  0  0  0  0
   14.7507   34.2132   -7.2198 C   0  0  0  0  0  0
   14.2980   33.1410   -8.1272 N   0  0  2  0  0  0
    9.9942   35.0214   -6.2371 C   0  0  0  0  0  0
   11.9461   34.0443   -8.4890 C   0  0  0  0  0  0
   10.1307   33.7962   -6.8644 O   0  0  0  0  0  0
   12.8485   32.8916   -8.0042 C   0  0  0  0  0  0
   10.4530   33.7390   -8.2585 C   0  0  0  0  0  0
   15.0417   31.8960   -7.8552 C   0  0  0  0  0  0
    9.6185   36.2055   -6.8911 C   0  0  0  0  0  0
   10.2215   35.0496   -4.8595 C   0  0  0  0  0  0
   14.8945   30.8429   -8.9698 C   0  0  0  0  0  0
    9.4833   37.3912   -6.1725 C   0  0  0  0  0  0
   10.0900   36.2337   -4.1395 C   0  0  0  0  0  0
    9.7208   37.4015   -4.8003 C   0  0  0  0  0  0
   14.7682   36.3671   -7.2091 H   0  0  0  0  0  0
   14.2017   35.6929   -8.7053 H   0  0  0  0  0  0
   17.0734   36.5113   -7.0012 H   0  0  0  0  0  0
   14.6521   33.5403   -9.6523 H   0  0  0  0  0  0
   16.1079   39.4607   -7.6838 H   0  0  0  0  0  0
   17.9935   36.0982  -11.3385 H   0  0  0  0  0  0
   18.5451   38.4591   -9.8768 H   0  0  0  0  0  0
   15.7006   33.9344   -6.7637 H   0  0  0  0  0  0
   14.0732   34.3242   -6.3701 H   0  0  0  0  0  0
   12.1969   34.9803   -7.9997 H   0  0  0  0  0  0
   12.0970   34.1817   -9.5600 H   0  0  0  0  0  0
   12.5688   32.0166   -8.5924 H   0  0  0  0  0  0
   12.5916   32.6166   -6.9789 H   0  0  0  0  0  0
    9.8195   34.3859   -8.8638 H   0  0  0  0  0  0
   10.2286   32.7313   -8.6097 H   0  0  0  0  0  0
   16.1047   32.1238   -7.7848 H   0  0  0  0  0  0
   14.7593   31.4700   -6.8896 H   0  0  0  0  0  0
    9.4263   36.2298   -7.9514 H   0  0  0  0  0  0
   10.5209   34.1502   -4.3453 H   0  0  0  0  0  0
   15.6150   30.0358   -8.8255 H   0  0  0  0  0  0
   13.9057   30.3835   -8.9869 H   0  0  0  0  0  0
   15.0839   31.2673   -9.9558 H   0  0  0  0  0  0
    9.2068   38.3071   -6.6732 H   0  0  0  0  0  0
   10.2755   36.2477   -3.0763 H   0  0  0  0  0  0
    9.6259   38.3263   -4.2474 H   0  0  0  0  0  0
  1  2  1  0  0  0
  1  3  1  0  0  0
  1  4  1  0  0  0
  1  7  1  0  0  0
  2  5  2  0  0  0
  2  8  1  0  0  0
  2 10  1  0  0  0
  3  6  2  0  0  0
  3  9  1  0  0  0
  3 11  1  0  0  0
  4 12  1  0  0  0
  4 26  1  0  0  0
  4 27  1  0  0  0
  7 28  1  0  0  0
  8 29  1  0  0  0
  9 30  1  0  0  0
 10 31  1  0  0  0
 11 32  1  0  0  0
 12 13  1  0  0  0
 12 33  1  0  0  0
 12 34  1  0  0  0
 13 17  1  0  0  0
 13 19  1  0  0  0
 14 16  1  0  0  0
 14 20  2  0  0  0
 14 21  1  0  0  0
 15 17  1  0  0  0
 15 18  1  0  0  0
 15 35  1  0  0  0
 15 36  1  0  0  0
 16 18  1  0  0  0
 17 37  1  0  0  0
 17 38  1  0  0  0
 18 39  1  0  0  0
 18 40  1  0  0  0
 19 22  1  0  0  0
 19 41  1  0  0  0
 19 42  1  0  0  0
 20 23  1  0  0  0
 20 43  1  0  0  0
 21 24  2  0  0  0
 21 44  1  0  0  0
 22 45  1  0  0  0
 22 46  1  0  0  0
 22 47  1  0  0  0
 23 25  2  0  0  0
 23 48  1  0  0  0
 24 25  1  0  0  0
 24 49  1  0  0  0
 25 50  1  0  0  0
M  END
> <s_m_entry_id>
3132

> <s_m_entry_name>
dock_pv.147

> <s_m_Source_Path>
/home/csk/Desktop/cluster/DUD-E-result/fpps

> <s_m_Source_File>
dock_pv.maegz

> <i_m_Source_File_Index>
147

> <chembl_id>
CHEMBL101717

> <chembl_pref_name>
None

> <i_lp_mmshare_version>
53161

> <r_lp_tautomer_probability>
1

> <s_lp_Force_Field>
OPLS_2005

> <r_lp_Energy>
10.302136

> <b_lp_Chiralities_Consistent>
1

> <s_lp_Variant>
CHEMBL1782_lig54-1

> <s_i_glide_gridfile>
glide-grid_1zw5

> <i_i_glide_lignum>
59

> <i_i_glide_rotatable_bonds>
16

> <r_i_docking_score>
-7.66214448001899

> <r_i_glide_ligand_efficiency>
-0.306485779200759

> <r_i_glide_ligand_efficiency_sa>
-0.896169853931459

> <r_i_glide_ligand_efficiency_ln>
-1.8161578577057

> <r_i_glide_gscore>
-7.66214448001899

> <r_i_glide_lipo>
-0.367764983121491

> <r_i_glide_hbond>
0

> <r_i_glide_metal>
-2.3

> <r_i_glide_rewards>
-0.622732300045401

> <r_i_glide_evdw>
-25.7535533905029

> <r_i_glide_ecoul>
-52.9196472167969

> <r_i_glide_erotb>
1.11603047267305

> <r_i_glide_esite>
-0.2

> <r_i_glide_emodel>
-112.188366464641

> <r_i_glide_energy>
-78.6732006072998

> <r_i_glide_einternal>
35.5521659851074

> <i_i_glide_confnum>
244

> <i_i_glide_posenum>
142

> <r_i_glide_eff_state_penalty>
0

> <s_user_duplicate_titles>
CHEMBL1782_lig54

> <i_f3d_flags>
0

> <s_m_subgroup_title>
dock_pv

> <s_m_subgroupid>
dock_pv

> <b_m_subgroup_collapsed>
1

$$$$
CHEMBL1782_lig191
                    3D
 Schrodinger Suite 2021-1.
 57 57  0  0  1  0            999 V2000
   13.2336   32.9453   -9.0594 C   0  0  0  0  0  0
   12.7219   31.8761   -8.3605 N   0  0  0  0  0  0
   13.7091   30.8997   -8.3405 C   0  0  0  0  0  0
   14.8261   31.3913   -9.0157 C   0  0  0  0  0  0
   14.5209   32.6756   -9.4484 N   0  3  0  0  0  0
   11.3779   31.7479   -7.8068 C   0  0  0  0  0  0
   15.3179   33.5787  -10.2567 C   0  0  0  0  0  0
   16.4498   34.3344   -9.5172 C   0  0  0  0  0  0
   16.0487   35.2268   -7.9130 P   0  0  0  0  0  0
   17.3010   35.7800   -7.2573 O   0  0  0  0  0  0
   14.9010   36.4060   -8.3650 O   0  0  0  0  0  0
   15.3009   34.0402   -6.9412 O   0  0  0  0  0  0
   17.4418   33.3800   -9.1650 O   0  0  0  0  0  0
   17.1402   35.5592  -10.7490 P   0  0  0  0  0  0
   18.4952   36.1799   -9.9188 O   0  0  0  0  0  0
   16.1010   36.5800  -11.1655 O   0  0  0  0  0  0
   17.7171   34.5791  -12.0101 O   0  0  0  0  0  0
   10.5235   33.0389   -7.8913 C   0  0  0  0  0  0
   11.0348   34.2323   -7.0478 C   0  0  0  0  0  0
   10.0153   35.3892   -6.9465 C   0  0  0  0  0  0
    9.3473   35.4697   -5.5636 C   0  0  0  0  0  0
   10.2600   36.0820   -4.4766 C   0  0  0  0  0  0
   10.1245   35.4745   -3.0655 C   0  0  0  0  0  0
    8.7844   35.7095   -2.3425 C   0  0  0  0  0  0
    7.6166   34.8300   -2.8266 C   0  0  0  0  0  0
    6.3719   35.0096   -1.9649 C   0  0  0  0  0  0
   12.6923   33.8437   -9.3154 H   0  0  0  0  0  0
   13.5136   29.9379   -7.8811 H   0  0  0  0  0  0
   15.7649   30.9107   -9.2558 H   0  0  0  0  0  0
   11.4884   31.4465   -6.7654 H   0  0  0  0  0  0
   10.8827   30.9270   -8.3300 H   0  0  0  0  0  0
   15.7010   33.0120  -11.1047 H   0  0  0  0  0  0
   14.6361   34.3115  -10.6797 H   0  0  0  0  0  0
   14.3748   36.4272   -9.2031 H   0  0  0  0  0  0
   15.7495   33.2195   -6.6523 H   0  0  0  0  0  0
   16.9733   32.7224   -8.6266 H   0  0  0  0  0  0
   18.0182   34.9835  -12.8506 H   0  0  0  0  0  0
    9.5186   32.7843   -7.5648 H   0  0  0  0  0  0
   10.4047   33.3403   -8.9341 H   0  0  0  0  0  0
   11.9597   34.6346   -7.4558 H   0  0  0  0  0  0
   11.3085   33.8754   -6.0533 H   0  0  0  0  0  0
    9.2530   35.2895   -7.7204 H   0  0  0  0  0  0
   10.5015   36.3406   -7.1656 H   0  0  0  0  0  0
    9.0311   34.4651   -5.2805 H   0  0  0  0  0  0
    8.4365   36.0636   -5.6419 H   0  0  0  0  0  0
   10.1013   37.1608   -4.4324 H   0  0  0  0  0  0
   11.3010   35.9595   -4.7735 H   0  0  0  0  0  0
   10.9084   35.9083   -2.4442 H   0  0  0  0  0  0
   10.3520   34.4103   -3.1056 H   0  0  0  0  0  0
    8.5135   36.7644   -2.4105 H   0  0  0  0  0  0
    8.9363   35.5183   -1.2792 H   0  0  0  0  0  0
    7.8998   33.7800   -2.8193 H   0  0  0  0  0  0
    7.3491   35.0755   -3.8518 H   0  0  0  0  0  0
    5.5302   34.4370   -2.3564 H   0  0  0  0  0  0
    6.1010   36.0632   -1.9650 H   0  0  0  0  0  0
    6.5444   34.6899   -0.9361 H   0  0  0  0  0  0
   18.9010   37.0134  -10.2627 H   0  0  0  0  0  0
  1  2  1  0  0  0
  1  5  2  0  0  0
  1 27  1  0  0  0
  2  3  1  0  0  0
  2  6  1  0  0  0
  3  4  2  0  0  0
  3 28  1  0  0  0
  4  5  1  0  0  0
  4 29  1  0  0  0
  5  7  1  0  0  0
  6 18  1  0  0  0
  6 30  1  0  0  0
  6 31  1  0  0  0
  7  8  1  0  0  0
  7 32  1  0  0  0
  7 33  1  0  0  0
  8  9  1  0  0  0
  8 13  1  0  0  0
  8 14  1  0  0  0
  9 10  2  0  0  0
  9 11  1  0  0  0
  9 12  1  0  0  0
 11 34  1  0  0  0
 12 35  1  0  0  0
 13 36  1  0  0  0
 14 15  1  0  0  0
 14 16  2  0  0  0
 14 17  1  0  0  0
 15 57  1  0  0  0
 17 37  1  0  0  0
 18 19  1  0  0  0
 18 38  1  0  0  0
 18 39  1  0  0  0
 19 20  1  0  0  0
 19 40  1  0  0  0
 19 41  1  0  0  0
 20 21  1  0  0  0
 20 42  1  0  0  0
 20 43  1  0  0  0
 21 22  1  0  0  0
 21 44  1  0  0  0
 21 45  1  0  0  0
 22 23  1  0  0  0
 22 46  1  0  0  0
 22 47  1  0  0  0
 23 24  1  0  0  0
 23 48  1  0  0  0
 23 49  1  0  0  0
 24 25  1  0  0  0
 24 50  1  0  0  0
 24 51  1  0  0  0
 25 26  1  0  0  0
 25 52  1  0  0  0
 25 53  1  0  0  0
 26 54  1  0  0  0
 26 55  1  0  0  0
 26 56  1  0  0  0
M  CHG  1   5   1
M  END
> <s_m_entry_id>
3133

> <s_m_entry_name>
dock_pv.148

> <s_m_Source_Path>
/home/csk/Desktop/cluster/DUD-E-result/fpps

> <s_m_Source_File>
dock_pv.maegz

> <i_m_Source_File_Index>
148

> <chembl_id>
CHEMBL2338362

> <chembl_pref_name>
None

> <i_lp_mmshare_version>
53161

> <r_lp_tautomer_probability>
1

> <s_lp_Force_Field>
OPLS_2005

> <r_lp_Energy>
2.377533

> <b_lp_Chiralities_Consistent>
1

> <s_lp_Variant>
CHEMBL1782_lig191-1

> <s_i_glide_gridfile>
glide-grid_1zw5

> <i_i_glide_lignum>
215

> <i_i_glide_rotatable_bonds>
18

> <r_i_docking_score>
-7.66205388822199

> <r_i_glide_ligand_efficiency>
-0.29469438031623

> <r_i_glide_ligand_efficiency_sa>
-0.873030942120439

> <r_i_glide_ligand_efficiency_ln>
-1.79940821439951

> <r_i_glide_gscore>
-7.66205388822199

> <r_i_glide_lipo>
-0.731280200978498

> <r_i_glide_hbond>
0

> <r_i_glide_metal>
-2.3

> <r_i_glide_rewards>
-0.290704363636362

> <r_i_glide_evdw>
-27.5631637573242

> <r_i_glide_ecoul>
-44.6209754943848

> <r_i_glide_erotb>
1.38544880673578

> <r_i_glide_esite>
-0.347359942476693

> <r_i_glide_emodel>
-108.03394193371

> <r_i_glide_energy>
-72.184139251709

> <r_i_glide_einternal>
22.2018814086914

> <i_i_glide_confnum>
244

> <i_i_glide_posenum>
301

> <r_i_glide_eff_state_penalty>
0

> <s_user_duplicate_titles>
CHEMBL1782_lig191

> <i_f3d_flags>
0

> <s_m_subgroup_title>
dock_pv

> <s_m_subgroupid>
dock_pv

> <b_m_subgroup_collapsed>
1

$$$$
CHEMBL1782_lig118
                    3D
 Schrodinger Suite 2021-1.
 32 31  0  0  1  0            999 V2000
   15.9235   35.8922   -8.8331 C   0  0  0  0  0  0
   16.6721   35.7800  -10.5594 P   0  0  0  0  0  0
   16.7127   37.0286   -7.5817 P   0  0  0  0  0  0
   15.9504   34.5632   -8.1985 N   0  0  2  0  0  0
   16.1144   34.7561  -11.5170 O   0  0  0  0  0  0
   18.1010   36.5800   -7.1650 O   0  0  0  0  0  0
   16.5796   38.5800   -8.2714 O   0  0  0  0  0  0
   15.6035   36.9668   -6.2886 O   0  0  0  0  0  0
   16.5010   37.3792  -11.1650 O   0  0  0  0  0  0
   18.3368   35.5532  -10.2145 O   0  0  0  0  0  0
   14.9508   33.6347   -8.7246 C   0  0  0  0  0  0
   15.0665   32.2901   -7.9797 C   0  0  0  0  0  0
   14.1607   31.1692   -8.5439 C   0  0  0  0  0  0
   12.6602   31.4699   -8.3651 C   0  0  0  0  0  0
   14.5170   29.8040   -7.9260 C   0  0  0  0  0  0
   14.8873   36.1973   -8.9025 H   0  0  0  0  0  0
   15.7010   34.6736   -7.2231 H   0  0  0  0  0  0
   17.0395   38.9314   -9.0699 H   0  0  0  0  0  0
   15.8753   37.2746   -5.3996 H   0  0  0  0  0  0
   17.3601   37.7801  -11.5139 H   0  0  0  0  0  0
   19.0018   36.1345  -10.6480 H   0  0  0  0  0  0
   15.0892   33.4530   -9.7881 H   0  0  0  0  0  0
   13.9479   34.0470   -8.5994 H   0  0  0  0  0  0
   14.8486   32.4295   -6.9192 H   0  0  0  0  0  0
   16.1010   31.9479   -8.0298 H   0  0  0  0  0  0
   14.3501   31.0892   -9.6163 H   0  0  0  0  0  0
   12.3978   31.5887   -7.3132 H   0  0  0  0  0  0
   12.0497   30.6583   -8.7641 H   0  0  0  0  0  0
   12.3634   32.3760   -8.8932 H   0  0  0  0  0  0
   14.3406   29.7919   -6.8497 H   0  0  0  0  0  0
   13.9191   29.0038   -8.3649 H   0  0  0  0  0  0
   15.5643   29.5496   -8.0947 H   0  0  0  0  0  0
  1  2  1  0  0  0
  1  3  1  0  0  0
  1  4  1  0  0  0
  1 16  1  0  0  0
  2  5  2  0  0  0
  2  9  1  0  0  0
  2 10  1  0  0  0
  3  6  2  0  0  0
  3  7  1  0  0  0
  3  8  1  0  0  0
  4 11  1  0  0  0
  4 17  1  0  0  0
  7 18  1  0  0  0
  8 19  1  0  0  0
  9 20  1  0  0  0
 10 21  1  0  0  0
 11 12  1  0  0  0
 11 22  1  0  0  0
 11 23  1  0  0  0
 12 13  1  0  0  0
 12 24  1  0  0  0
 12 25  1  0  0  0
 13 14  1  0  0  0
 13 15  1  0  0  0
 13 26  1  0  0  0
 14 27  1  0  0  0
 14 28  1  0  0  0
 14 29  1  0  0  0
 15 30  1  0  0  0
 15 31  1  0  0  0
 15 32  1  0  0  0
M  END
> <s_m_entry_id>
3134

> <s_m_entry_name>
dock_pv.149

> <s_m_Source_Path>
/home/csk/Desktop/cluster/DUD-E-result/fpps

> <s_m_Source_File>
dock_pv.maegz

> <i_m_Source_File_Index>
149

> <chembl_id>
CHEMBL55856

> <chembl_pref_name>
(ISOPENTYLAMINO)METHYLENEDIPHOSPHONIC ACID

> <i_lp_mmshare_version>
53161

> <r_lp_tautomer_probability>
1

> <s_lp_Force_Field>
OPLS_2005

> <r_lp_Energy>
0.241597

> <b_lp_Chiralities_Consistent>
1

> <s_lp_Variant>
CHEMBL1782_lig118-1

> <s_i_glide_gridfile>
glide-grid_1zw5

> <i_i_glide_lignum>
130

> <i_i_glide_rotatable_bonds>
10

> <r_i_docking_score>
-7.65492848549597

> <r_i_glide_ligand_efficiency>
-0.510328565699731

> <r_i_glide_ligand_efficiency_sa>
-1.25857846946833

> <r_i_glide_ligand_efficiency_ln>
-2.06440799620797

> <r_i_glide_gscore>
-7.65492848549597

> <r_i_glide_lipo>
-0.071860866982199

> <r_i_glide_hbond>
-0.00835510701292755

> <r_i_glide_metal>
-2.3

> <r_i_glide_rewards>
-1.62852409090909

> <r_i_glide_evdw>
-14.9007692337036

> <r_i_glide_ecoul>
-48.2567825317383

> <r_i_glide_erotb>
1.29885004109343

> <r_i_glide_esite>
-0.2

> <r_i_glide_emodel>
-107.586787123767

> <r_i_glide_energy>
-63.1575517654419

> <r_i_glide_einternal>
17.0407485961914

> <i_i_glide_confnum>
313

> <i_i_glide_posenum>
26

> <r_i_glide_eff_state_penalty>
0

> <s_user_duplicate_titles>
CHEMBL1782_lig118,84339

> <i_f3d_flags>
0

> <s_m_subgroup_title>
dock_pv

> <s_m_subgroupid>
dock_pv

> <b_m_subgroup_collapsed>
1

$$$$
CHEMBL1782_lig107
                    3D
 Schrodinger Suite 2021-1.
 29 28  0  0  1  0            999 V2000
   16.2153   35.4252   -9.5975 C   0  0  0  0  0  0
   17.8170   34.8789  -10.3650 P   0  0  0  0  0  0
   16.2695   37.2646   -9.1720 P   0  0  0  0  0  0
   16.0218   34.5800   -8.4023 N   0  0  1  0  0  0
   17.4626   37.7053   -8.3604 O   0  0  0  0  0  0
   18.1010   33.3800  -10.3650 O   0  0  0  0  0  0
   17.7010   35.6439  -11.8860 O   0  0  0  0  0  0
   18.9010   35.7135   -9.3215 O   0  0  0  0  0  0
   16.1010   37.9840  -10.7642 O   0  0  0  0  0  0
   14.8125   37.5097   -8.3650 O   0  0  0  0  0  0
   14.6282   34.4353   -7.9790 C   0  0  0  0  0  0
   13.7317   33.6227   -8.9519 C   0  0  0  0  0  0
   12.3105   33.4755   -8.3806 C   0  0  0  0  0  0
   14.3145   32.2369   -9.3039 C   0  0  0  0  0  0
   15.4170   35.2222  -10.3094 H   0  0  0  0  0  0
   16.2681   33.6267   -8.6445 H   0  0  0  0  0  0
   18.1995   36.4770  -12.1179 H   0  0  0  0  0  0
   19.3597   36.5355   -9.6176 H   0  0  0  0  0  0
   16.9224   38.3025  -11.2279 H   0  0  0  0  0  0
   13.9811   37.0933   -8.6923 H   0  0  0  0  0  0
   14.1566   35.3677   -7.6761 H   0  0  0  0  0  0
   14.6780   33.8651   -7.0497 H   0  0  0  0  0  0
   13.6188   34.1800   -9.8816 H   0  0  0  0  0  0
   12.3081   32.9121   -7.4464 H   0  0  0  0  0  0
   11.6582   32.9523   -9.0819 H   0  0  0  0  0  0
   11.8579   34.4490   -8.1875 H   0  0  0  0  0  0
   14.4660   31.6264   -8.4125 H   0  0  0  0  0  0
   13.6448   31.6849   -9.9650 H   0  0  0  0  0  0
   15.2698   32.3160   -9.8226 H   0  0  0  0  0  0
  1  2  1  0  0  0
  1  3  1  0  0  0
  1  4  1  0  0  0
  1 15  1  0  0  0
  2  6  2  0  0  0
  2  7  1  0  0  0
  2  8  1  0  0  0
  3  5  2  0  0  0
  3  9  1  0  0  0
  3 10  1  0  0  0
  4 11  1  0  0  0
  4 16  1  0  0  0
  7 17  1  0  0  0
  8 18  1  0  0  0
  9 19  1  0  0  0
 10 20  1  0  0  0
 11 12  1  0  0  0
 11 21  1  0  0  0
 11 22  1  0  0  0
 12 13  1  0  0  0
 12 14  1  0  0  0
 12 23  1  0  0  0
 13 24  1  0  0  0
 13 25  1  0  0  0
 13 26  1  0  0  0
 14 27  1  0  0  0
 14 28  1  0  0  0
 14 29  1  0  0  0
M  END
> <s_m_entry_id>
3135

> <s_m_entry_name>
dock_pv.150

> <s_m_Source_Path>
/home/csk/Desktop/cluster/DUD-E-result/fpps

> <s_m_Source_File>
dock_pv.maegz

> <i_m_Source_File_Index>
150

> <chembl_id>
CHEMBL294478

> <chembl_pref_name>
(ISOBUTYLAMINO)METHYLENEDIPHOSPHONIC ACID

> <i_lp_mmshare_version>
53161

> <r_lp_tautomer_probability>
1

> <s_lp_Force_Field>
OPLS_2005

> <r_lp_Energy>
0.37756

> <b_lp_Chiralities_Consistent>
1

> <s_lp_Variant>
CHEMBL1782_lig107-1

> <s_i_glide_gridfile>
glide-grid_1zw5

> <i_i_glide_lignum>
118

> <i_i_glide_rotatable_bonds>
9

> <r_i_docking_score>
-7.64684097648893

> <r_i_glide_ligand_efficiency>
-0.546202926892066

> <r_i_glide_ligand_efficiency_sa>
-1.31642675776074

> <r_i_glide_ligand_efficiency_ln>
-2.10132467940465

> <r_i_glide_gscore>
-7.64684097648893

> <r_i_glide_lipo>
0

> <r_i_glide_hbond>
0

> <r_i_glide_metal>
-2.3

> <r_i_glide_rewards>
-1.72415986363636

> <r_i_glide_evdw>
-11.3021831512451

> <r_i_glide_ecoul>
-46.7706489562988

> <r_i_glide_erotb>
1.14242804470969

> <r_i_glide_esite>
-0.2

> <r_i_glide_emodel>
-101.385316532866

> <r_i_glide_energy>
-58.0728321075439

> <r_i_glide_einternal>
19.9076328277588

> <i_i_glide_confnum>
12

> <i_i_glide_posenum>
199

> <r_i_glide_eff_state_penalty>
0

> <s_user_duplicate_titles>
CHEMBL1782_lig107,84888

> <i_f3d_flags>
0

> <s_m_subgroup_title>
dock_pv

> <s_m_subgroupid>
dock_pv

> <b_m_subgroup_collapsed>
1

$$$$
CHEMBL1782_lig228
                    3D
 Schrodinger Suite 2021-1.
 49 52  0  0  1  0            999 V2000
   16.5010   36.9800  -11.9650 O   0  0  0  0  0  0
   17.0038   35.5693  -11.4954 P   0  0  0  0  0  0
   18.4113   35.3800  -12.2742 O   0  0  0  0  0  0
    8.7337   35.6836   -5.7907 C   0  0  0  0  0  0
   10.0229   35.0845   -6.3182 C   0  0  0  0  0  0
   11.1049   34.8701   -5.4620 C   0  0  0  0  0  0
   12.2954   34.3496   -5.9651 C   0  0  0  0  0  0
   10.1245   34.7585   -7.6706 C   0  0  0  0  0  0
   11.3030   34.2088   -8.1647 C   0  0  0  0  0  0
   12.3960   34.0181   -7.3145 C   0  0  0  0  0  0
   13.6657   33.4914   -7.8752 C   0  0  0  0  0  0
   13.6364   31.9077   -8.6174 S   0  0  0  0  0  0
   14.9147   34.0946   -7.9241 C   0  0  0  0  0  0
   15.8275   33.3955   -8.7700 C   0  0  0  0  0  0
   15.2761   32.1383   -9.1663 C   0  0  0  0  0  0
   15.9078   31.2278   -9.9043 N   0  0  0  0  0  0
   17.1139   31.6261  -10.3649 C   0  0  0  0  0  0
   17.7009   32.8128  -10.1873 N   0  0  0  0  0  0
   17.1246   33.6565   -9.3068 C   0  0  0  0  0  0
   17.9453   34.7855   -9.1651 N   0  0  0  0  0  0
   17.5536   36.0226   -9.8026 C   0  0  2  0  0  0
   16.5989   36.9499   -9.0230 C   0  0  0  0  0  0
   17.2505   37.5535   -7.7849 C   0  0  0  0  0  0
   18.3440   38.4075   -7.9493 C   0  0  0  0  0  0
   18.8821   39.0744   -6.8567 C   0  0  0  0  0  0
   18.3422   38.8686   -5.5929 C   0  0  0  0  0  0
   17.3012   37.9646   -5.4061 C   0  0  0  0  0  0
   16.7413   37.3179   -6.5055 C   0  0  0  0  0  0
   15.9907   34.5183  -11.6975 O   0  0  0  0  0  0
   17.2316   37.5869  -12.2872 H   0  0  0  0  0  0
   18.8878   36.2549  -12.3647 H   0  0  0  0  0  0
    8.8121   35.9705   -4.7415 H   0  0  0  0  0  0
    8.4767   36.5718   -6.3701 H   0  0  0  0  0  0
    7.9159   34.9739   -5.9049 H   0  0  0  0  0  0
   11.0267   35.1064   -4.4114 H   0  0  0  0  0  0
   13.1346   34.1793   -5.3088 H   0  0  0  0  0  0
    9.3012   34.9370   -8.3462 H   0  0  0  0  0  0
   11.3780   33.9656   -9.2164 H   0  0  0  0  0  0
   15.1083   35.0421   -7.4618 H   0  0  0  0  0  0
   17.7011   30.9264  -10.9453 H   0  0  0  0  0  0
   18.7938   34.5846   -9.6824 H   0  0  0  0  0  0
   18.4742   36.5828   -9.9629 H   0  0  0  0  0  0
   15.6340   36.4966   -8.8219 H   0  0  0  0  0  0
   16.3519   37.8102   -9.6473 H   0  0  0  0  0  0
   18.7493   38.6059   -8.9324 H   0  0  0  0  0  0
   19.7015   39.7664   -6.9934 H   0  0  0  0  0  0
   18.7560   39.4020   -4.7482 H   0  0  0  0  0  0
   16.9058   37.8033   -4.4131 H   0  0  0  0  0  0
   15.8908   36.6756   -6.3541 H   0  0  0  0  0  0
  1  2  1  0  0  0
  1 30  1  0  0  0
  2  3  1  0  0  0
  2 21  1  0  0  0
  2 29  2  0  0  0
  3 31  1  0  0  0
  4  5  1  0  0  0
  4 32  1  0  0  0
  4 33  1  0  0  0
  4 34  1  0  0  0
  5  6  1  0  0  0
  5  8  2  0  0  0
  6  7  2  0  0  0
  6 35  1  0  0  0
  7 10  1  0  0  0
  7 36  1  0  0  0
  8  9  1  0  0  0
  8 37  1  0  0  0
  9 10  2  0  0  0
  9 38  1  0  0  0
 10 11  1  0  0  0
 11 12  1  0  0  0
 11 13  2  0  0  0
 12 15  1  0  0  0
 13 14  1  0  0  0
 13 39  1  0  0  0
 14 15  1  0  0  0
 14 19  2  0  0  0
 15 16  2  0  0  0
 16 17  1  0  0  0
 17 18  2  0  0  0
 17 40  1  0  0  0
 18 19  1  0  0  0
 19 20  1  0  0  0
 20 21  1  0  0  0
 20 41  1  0  0  0
 21 22  1  0  0  0
 21 42  1  0  0  0
 22 23  1  0  0  0
 22 43  1  0  0  0
 22 44  1  0  0  0
 23 24  2  0  0  0
 23 28  1  0  0  0
 24 25  1  0  0  0
 24 45  1  0  0  0
 25 26  2  0  0  0
 25 46  1  0  0  0
 26 27  1  0  0  0
 26 47  1  0  0  0
 27 28  2  0  0  0
 27 48  1  0  0  0
 28 49  1  0  0  0
M  END
> <s_m_entry_id>
3136

> <s_m_entry_name>
dock_pv.151

> <s_m_Source_Path>
/home/csk/Desktop/cluster/DUD-E-result/fpps

> <s_m_Source_File>
dock_pv.maegz

> <i_m_Source_File_Index>
151

> <chembl_id>
CHEMBL4074061

> <chembl_pref_name>
None

> <i_lp_mmshare_version>
53161

> <r_lp_tautomer_probability>
1

> <s_lp_Force_Field>
OPLS_2005

> <r_lp_Energy>
8.309449

> <b_lp_Chiralities_Consistent>
1

> <s_lp_Variant>
CHEMBL1782_lig228-1

> <s_i_glide_gridfile>
glide-grid_1zw5

> <i_i_glide_lignum>
255

> <i_i_glide_rotatable_bonds>
8

> <r_i_docking_score>
-7.6378657206783

> <r_i_glide_ligand_efficiency>
-0.263374680023389

> <r_i_glide_ligand_efficiency_sa>
-0.809170459987247

> <r_i_glide_ligand_efficiency_ln>
-1.74887757047178

> <r_i_glide_gscore>
-7.6378657206783

> <r_i_glide_lipo>
-0.0340223424564806

> <r_i_glide_hbond>
-0.0233805846828096

> <r_i_glide_metal>
-2.3

> <r_i_glide_rewards>
-0.658352999999999

> <r_i_glide_evdw>
-17.4019737243652

> <r_i_glide_ecoul>
-34.2340469360352

> <r_i_glide_erotb>
0.547988892679255

> <r_i_glide_esite>
-0.3

> <r_i_glide_emodel>
-45.8440695429064

> <r_i_glide_energy>
-51.6360206604004

> <r_i_glide_einternal>
16.6986427307129

> <i_i_glide_confnum>
53

> <i_i_glide_posenum>
56

> <r_i_glide_eff_state_penalty>
0

> <s_user_duplicate_titles>
CHEMBL1782_lig228,CHEMBL1782_lig247

> <i_f3d_flags>
0

> <s_m_subgroup_title>
dock_pv

> <s_m_subgroupid>
dock_pv

> <b_m_subgroup_collapsed>
1

$$$$
CHEMBL1782_lig150
                    3D
 Schrodinger Suite 2021-1.
 34 34  0  0  1  0            999 V2000
   16.1785   36.4363   -8.4912 P   0  0  0  0  0  0
   16.2104   35.5447  -10.1637 C   0  0  0  0  0  0
   17.8838   34.8140  -10.3650 P   0  0  0  0  0  0
   17.9297   34.1800  -11.9423 O   0  0  0  0  0  0
   18.1010   33.7800   -9.2975 O   0  0  0  0  0  0
   18.9821   36.1124  -10.2380 O   0  0  0  0  0  0
   16.1857   38.1171   -8.8815 O   0  0  0  0  0  0
   17.3007   36.0079   -7.5428 O   0  0  0  0  0  0
   14.5746   36.1800   -7.9426 O   0  0  0  0  0  0
   16.1010   36.5560  -11.1650 O   0  0  0  0  0  0
   15.1998   34.3209  -10.3645 C   0  0  0  0  0  0
   15.1987   33.0834   -9.4112 C   0  0  1  0  0  0
   15.2578   33.4027   -7.9821 N   0  0  2  0  0  0
   15.2221   32.2410   -7.0884 C   0  0  0  0  0  0
   13.9720   31.3786   -7.3169 C   0  0  0  0  0  0
   13.8893   30.9314   -8.7802 C   0  0  0  0  0  0
   13.9761   32.1593   -9.7004 C   0  0  0  0  0  0
   18.5965   34.4574  -12.6045 H   0  0  0  0  0  0
   18.9010   36.9871  -10.7070 H   0  0  0  0  0  0
   16.9021   38.6457   -9.3046 H   0  0  0  0  0  0
   13.8349   36.0928   -8.5844 H   0  0  0  0  0  0
   16.9938   36.8100  -11.4542 H   0  0  0  0  0  0
   14.1522   34.5800  -10.3649 H   0  0  0  0  0  0
   15.3620   33.9305  -11.3691 H   0  0  0  0  0  0
   16.0905   32.4903   -9.6131 H   0  0  0  0  0  0
   14.5010   34.0327   -7.7508 H   0  0  0  0  0  0
   15.2773   32.5765   -6.0520 H   0  0  0  0  0  0
   16.1010   31.6292   -7.2753 H   0  0  0  0  0  0
   13.0753   31.9213   -7.0149 H   0  0  0  0  0  0
   14.0101   30.5016   -6.6691 H   0  0  0  0  0  0
   12.9635   30.3816   -8.9582 H   0  0  0  0  0  0
   14.7035   30.2405   -9.0060 H   0  0  0  0  0  0
   13.0529   32.7262   -9.5650 H   0  0  0  0  0  0
   13.9824   31.8225  -10.7359 H   0  0  0  0  0  0
  1  9  1  0  0  0
  1  2  1  0  0  0
  1  7  1  0  0  0
  1  8  2  0  0  0
  2 10  1  0  0  0
  2  3  1  0  0  0
  2 11  1  0  0  0
  3  5  2  0  0  0
  3  6  1  0  0  0
  3  4  1  0  0  0
  4 18  1  0  0  0
  6 19  1  0  0  0
  7 20  1  0  0  0
  9 21  1  0  0  0
 10 22  1  0  0  0
 11 12  1  0  0  0
 11 23  1  0  0  0
 11 24  1  0  0  0
 12 13  1  0  0  0
 12 17  1  0  0  0
 12 25  1  0  0  0
 13 14  1  0  0  0
 13 26  1  0  0  0
 14 15  1  0  0  0
 14 27  1  0  0  0
 14 28  1  0  0  0
 15 16  1  0  0  0
 15 29  1  0  0  0
 15 30  1  0  0  0
 16 17  1  0  0  0
 16 31  1  0  0  0
 16 32  1  0  0  0
 17 33  1  0  0  0
 17 34  1  0  0  0
M  END
> <s_m_entry_id>
3138

> <s_m_entry_name>
dock_pv.153

> <s_m_Source_Path>
/home/csk/Desktop/cluster/DUD-E-result/fpps

> <s_m_Source_File>
dock_pv.maegz

> <i_m_Source_File_Index>
153

> <chembl_id>
CHEMBL259729

> <chembl_pref_name>
None

> <i_lp_mmshare_version>
53161

> <r_lp_tautomer_probability>
1

> <s_lp_Force_Field>
OPLS_2005

> <r_lp_Energy>
1.822462

> <b_lp_Chiralities_Consistent>
1

> <s_lp_Variant>
CHEMBL1782_lig150-2

> <s_i_glide_gridfile>
glide-grid_1zw5

> <i_i_glide_lignum>
170

> <i_i_glide_rotatable_bonds>
9

> <r_i_docking_score>
-7.62196051419556

> <r_i_glide_ligand_efficiency>
-0.448350618482092

> <r_i_glide_ligand_efficiency_sa>
-1.15283569037449

> <r_i_glide_ligand_efficiency_ln>
-1.9883997654381

> <r_i_glide_gscore>
-7.62196051419556

> <r_i_glide_lipo>
0

> <r_i_glide_hbond>
0

> <r_i_glide_metal>
-2.3

> <r_i_glide_rewards>
-1.43754613636364

> <r_i_glide_evdw>
-6.81616830825806

> <r_i_glide_ecoul>
-59.2583122253418

> <r_i_glide_erotb>
0.653162420943816

> <r_i_glide_esite>
-0.196768383362835

> <r_i_glide_emodel>
-107.985039276263

> <r_i_glide_energy>
-66.0744805335999

> <r_i_glide_einternal>
21.7668914794922

> <i_i_glide_confnum>
26

> <i_i_glide_posenum>
296

> <r_i_glide_eff_state_penalty>
0

> <s_user_duplicate_titles>
CHEMBL1782_lig150

> <i_f3d_flags>
0

> <s_m_subgroup_title>
dock_pv

> <s_m_subgroupid>
dock_pv

> <b_m_subgroup_collapsed>
1

$$$$
CHEMBL1782_lig45
                    3D
 Schrodinger Suite 2021-1.
 43 43  0  0  1  0            999 V2000
   14.4726   33.3180   -7.6865 C   0  0  0  0  0  0
   14.6155   32.9931   -9.1133 N   0  0  1  0  0  0
   15.8663   33.5448   -9.6421 C   0  0  0  0  0  0
   15.7010   35.0022  -10.1276 C   0  0  0  0  0  0
   16.9599   35.8601  -10.4931 C   0  0  0  0  0  0
   18.3744   34.8147  -11.2363 P   0  0  0  0  0  0
   17.4192   36.9574   -9.0239 P   0  0  0  0  0  0
   17.7010   36.1800   -7.7511 O   0  0  0  0  0  0
   18.5010   33.3800  -10.7647 O   0  0  0  0  0  0
   18.1691   34.9800  -12.9252 O   0  0  0  0  0  0
   19.7483   35.6888  -10.7650 O   0  0  0  0  0  0
   18.7808   37.8201   -9.5650 O   0  0  0  0  0  0
   16.2025   38.1581   -8.9556 O   0  0  0  0  0  0
   16.5010   36.7539  -11.5089 O   0  0  0  0  0  0
   14.5911   31.5392   -9.3180 C   0  0  0  0  0  0
   13.1308   32.8980   -7.0357 C   0  0  0  0  0  0
   11.9295   33.7865   -7.3449 C   0  0  0  0  0  0
   11.3558   33.7807   -8.6178 C   0  0  0  0  0  0
   10.2448   34.5787   -8.8839 C   0  0  0  0  0  0
    9.7066   35.3800   -7.8770 C   0  0  0  0  0  0
   10.2629   35.3774   -6.6003 C   0  0  0  0  0  0
   11.3738   34.5800   -6.3347 C   0  0  0  0  0  0
   15.2874   32.8415   -7.1362 H   0  0  0  0  0  0
   14.6060   34.3899   -7.5340 H   0  0  0  0  0  0
   16.1442   32.9545  -10.5167 H   0  0  0  0  0  0
   16.6914   33.4372   -8.9366 H   0  0  0  0  0  0
   15.0085   35.5391   -9.4797 H   0  0  0  0  0  0
   15.1565   34.8629  -11.0589 H   0  0  0  0  0  0
   17.6842   35.7130  -13.3519 H   0  0  0  0  0  0
   19.7550   36.6549  -10.5920 H   0  0  0  0  0  0
   18.9010   38.1067  -10.5185 H   0  0  0  0  0  0
   16.4536   39.1007   -9.1139 H   0  0  0  0  0  0
   17.2834   37.2176  -11.8787 H   0  0  0  0  0  0
   13.6221   31.1102   -9.0647 H   0  0  0  0  0  0
   14.7552   31.2858  -10.3650 H   0  0  0  0  0  0
   15.3558   31.0303   -8.7280 H   0  0  0  0  0  0
   12.8753   31.8572   -7.2308 H   0  0  0  0  0  0
   13.2920   32.9241   -5.9650 H   0  0  0  0  0  0
   11.7732   33.1635   -9.4008 H   0  0  0  0  0  0
    9.8082   34.5780   -9.8725 H   0  0  0  0  0  0
    8.8462   35.9968   -8.0892 H   0  0  0  0  0  0
    9.8329   35.9890   -5.8216 H   0  0  0  0  0  0
   11.7940   34.5721   -5.3403 H   0  0  0  0  0  0
  1 16  1  0  0  0
  1  2  1  0  0  0
  1 23  1  0  0  0
  1 24  1  0  0  0
  2  3  1  0  0  0
  2 15  1  0  0  0
  3  4  1  0  0  0
  3 25  1  0  0  0
  3 26  1  0  0  0
  4  5  1  0  0  0
  4 27  1  0  0  0
  4 28  1  0  0  0
  5  6  1  0  0  0
  5 14  1  0  0  0
  5  7  1  0  0  0
  6 11  1  0  0  0
  6  9  2  0  0  0
  6 10  1  0  0  0
  7 12  1  0  0  0
  7 13  1  0  0  0
  7  8  2  0  0  0
 10 29  1  0  0  0
 11 30  1  0  0  0
 12 31  1  0  0  0
 13 32  1  0  0  0
 14 33  1  0  0  0
 15 34  1  0  0  0
 15 35  1  0  0  0
 15 36  1  0  0  0
 16 17  1  0  0  0
 16 37  1  0  0  0
 16 38  1  0  0  0
 17 18  2  0  0  0
 17 22  1  0  0  0
 18 19  1  0  0  0
 18 39  1  0  0  0
 19 20  2  0  0  0
 19 40  1  0  0  0
 20 21  1  0  0  0
 20 41  1  0  0  0
 21 22  2  0  0  0
 21 42  1  0  0  0
 22 43  1  0  0  0
M  END
> <s_m_entry_id>
3139

> <s_m_entry_name>
dock_pv.154

> <s_m_Source_Path>
/home/csk/Desktop/cluster/DUD-E-result/fpps

> <s_m_Source_File>
dock_pv.maegz

> <i_m_Source_File_Index>
154

> <chembl_id>
CHEMBL301244

> <chembl_pref_name>
None

> <i_lp_mmshare_version>
53161

> <r_lp_tautomer_probability>
1

> <s_lp_Force_Field>
OPLS_2005

> <r_lp_Energy>
3.801177

> <b_lp_Chiralities_Consistent>
1

> <s_lp_Variant>
CHEMBL1782_lig45-1

> <s_i_glide_gridfile>
glide-grid_1zw5

> <i_i_glide_lignum>
49

> <i_i_glide_rotatable_bonds>
13

> <r_i_docking_score>
-7.60865354138272

> <r_i_glide_ligand_efficiency>
-0.345847888244669

> <r_i_glide_ligand_efficiency_sa>
-0.969079384287183

> <r_i_glide_ligand_efficiency_ln>
-1.85983245789513

> <r_i_glide_gscore>
-7.60865354138272

> <r_i_glide_lipo>
-0.254228275857409

> <r_i_glide_hbond>
0

> <r_i_glide_metal>
-2.3

> <r_i_glide_rewards>
-1.00060118181818

> <r_i_glide_evdw>
-18.4997005462646

> <r_i_glide_ecoul>
-58.0507545471191

> <r_i_glide_erotb>
1.0711609436061

> <r_i_glide_esite>
-0.2

> <r_i_glide_emodel>
-123.989221939252

> <r_i_glide_energy>
-76.5504550933838

> <r_i_glide_einternal>
32.8602561950684

> <i_i_glide_confnum>
352

> <i_i_glide_posenum>
162

> <r_i_glide_eff_state_penalty>
0

> <s_user_duplicate_titles>
CHEMBL1782_lig45,83980

> <i_f3d_flags>
0

> <s_m_subgroup_title>
dock_pv

> <s_m_subgroupid>
dock_pv

> <b_m_subgroup_collapsed>
1

$$$$
CHEMBL1782_lig202
                    3D
 Schrodinger Suite 2021-1.
 47 47  0  0  1  0            999 V2000
   13.3645   33.6196   -8.7484 C   0  0  0  0  0  0
   12.7386   32.5577   -8.1376 N   0  0  0  0  0  0
   13.5474   32.1492   -7.0886 C   0  0  0  0  0  0
   14.6117   33.0465   -6.9974 C   0  0  0  0  0  0
   14.4536   34.0018   -7.9938 N   0  3  0  0  0  0
   11.3811   32.1159   -8.4290 C   0  0  0  0  0  0
   15.1693   35.2658   -8.1537 C   0  0  0  0  0  0
   16.5877   35.1806   -8.7762 C   0  0  0  0  0  0
   16.8139   33.8027  -10.0104 P   0  0  0  0  0  0
   15.8725   33.8167  -11.1650 O   0  0  0  0  0  0
   18.5010   33.7957  -10.3650 O   0  0  0  0  0  0
   16.7890   32.3548   -9.1650 O   0  0  0  0  0  0
   16.9590   36.8406   -9.5728 P   0  0  0  0  0  0
   16.9277   37.9305   -8.2717 O   0  0  0  0  0  0
   16.1010   37.2392  -10.7650 O   0  0  0  0  0  0
   18.5820   36.5800   -9.9650 O   0  0  0  0  0  0
   10.3451   32.9706   -7.6407 C   0  0  0  0  0  0
   10.4986   34.5123   -7.7926 C   0  0  0  0  0  0
    9.4753   35.4156   -7.0680 C   0  0  0  0  0  0
    9.2886   35.1633   -5.5575 C   0  0  0  0  0  0
   10.5785   35.2961   -4.7238 C   0  0  0  0  0  0
   10.3076   35.4005   -3.2155 C   0  0  0  0  0  0
   12.9364   34.1800   -9.5650 H   0  0  0  0  0  0
   13.2509   31.3165   -6.4623 H   0  0  0  0  0  0
   15.4033   33.1170   -6.2652 H   0  0  0  0  0  0
   11.2986   31.0517   -8.1959 H   0  0  0  0  0  0
   11.2219   32.2128   -9.5050 H   0  0  0  0  0  0
   14.5295   35.9039   -8.7650 H   0  0  0  0  0  0
   15.2090   35.7583   -7.1817 H   0  0  0  0  0  0
   17.3010   35.0043   -7.9650 H   0  0  0  0  0  0
   18.9220   34.5800  -10.7922 H   0  0  0  0  0  0
   16.0086   32.0234   -8.6740 H   0  0  0  0  0  0
   18.9179   37.1510  -10.7156 H   0  0  0  0  0  0
   10.4142   32.7043   -6.5855 H   0  0  0  0  0  0
    9.3509   32.6638   -7.9650 H   0  0  0  0  0  0
   10.4893   34.7668   -8.8541 H   0  0  0  0  0  0
   11.4778   34.8160   -7.4260 H   0  0  0  0  0  0
    8.5080   35.3800   -7.5649 H   0  0  0  0  0  0
    9.7955   36.4501   -7.2041 H   0  0  0  0  0  0
    8.8475   34.1799   -5.3961 H   0  0  0  0  0  0
    8.5506   35.8769   -5.1899 H   0  0  0  0  0  0
   11.1317   36.1801   -5.0394 H   0  0  0  0  0  0
   11.2307   34.4431   -4.9184 H   0  0  0  0  0  0
   11.2357   35.3801   -2.6445 H   0  0  0  0  0  0
    9.6866   34.5800   -2.8610 H   0  0  0  0  0  0
    9.7911   36.3299   -2.9726 H   0  0  0  0  0  0
   17.0087   38.8956   -8.4463 H   0  0  0  0  0  0
  1  2  1  0  0  0
  1  5  2  0  0  0
  1 23  1  0  0  0
  2  3  1  0  0  0
  2  6  1  0  0  0
  3  4  2  0  0  0
  3 24  1  0  0  0
  4  5  1  0  0  0
  4 25  1  0  0  0
  5  7  1  0  0  0
  6 17  1  0  0  0
  6 26  1  0  0  0
  6 27  1  0  0  0
  7  8  1  0  0  0
  7 28  1  0  0  0
  7 29  1  0  0  0
  8  9  1  0  0  0
  8 13  1  0  0  0
  8 30  1  0  0  0
  9 10  2  0  0  0
  9 11  1  0  0  0
  9 12  1  0  0  0
 11 31  1  0  0  0
 12 32  1  0  0  0
 13 14  1  0  0  0
 13 15  2  0  0  0
 13 16  1  0  0  0
 14 47  1  0  0  0
 16 33  1  0  0  0
 17 18  1  0  0  0
 17 34  1  0  0  0
 17 35  1  0  0  0
 18 19  1  0  0  0
 18 36  1  0  0  0
 18 37  1  0  0  0
 19 20  1  0  0  0
 19 38  1  0  0  0
 19 39  1  0  0  0
 20 21  1  0  0  0
 20 40  1  0  0  0
 20 41  1  0  0  0
 21 22  1  0  0  0
 21 42  1  0  0  0
 21 43  1  0  0  0
 22 44  1  0  0  0
 22 45  1  0  0  0
 22 46  1  0  0  0
M  CHG  1   5   1
M  END
> <s_m_entry_id>
3140

> <s_m_entry_name>
dock_pv.155

> <s_m_Source_Path>
/home/csk/Desktop/cluster/DUD-E-result/fpps

> <s_m_Source_File>
dock_pv.maegz

> <i_m_Source_File_Index>
155

> <chembl_id>
CHEMBL2338375

> <chembl_pref_name>
None

> <i_lp_mmshare_version>
53161

> <r_lp_tautomer_probability>
1

> <s_lp_Force_Field>
OPLS_2005

> <r_lp_Energy>
0.481754

> <b_lp_Chiralities_Consistent>
1

> <s_lp_Variant>
CHEMBL1782_lig202-1

> <s_i_glide_gridfile>
glide-grid_1zw5

> <i_i_glide_lignum>
226

> <i_i_glide_rotatable_bonds>
14

> <r_i_docking_score>
-7.60179169565854

> <r_i_glide_ligand_efficiency>
-0.345535986166297

> <r_i_glide_ligand_efficiency_sa>
-0.968205422397173

> <r_i_glide_ligand_efficiency_ln>
-1.85815517250824

> <r_i_glide_gscore>
-7.60179169565854

> <r_i_glide_lipo>
-0.422582771521098

> <r_i_glide_hbond>
-0.0160976068993797

> <r_i_glide_metal>
-2.3

> <r_i_glide_rewards>
-0.686698499999998

> <r_i_glide_evdw>
-24.3009090423584

> <r_i_glide_ecoul>
-41.4816284179688

> <r_i_glide_erotb>
1.36317017982755

> <r_i_glide_esite>
-0.324537544947693

> <r_i_glide_emodel>
-91.9924515760032

> <r_i_glide_energy>
-65.7825374603271

> <r_i_glide_einternal>
15.8954238891602

> <i_i_glide_confnum>
220

> <i_i_glide_posenum>
22

> <r_i_glide_eff_state_penalty>
0

> <s_user_duplicate_titles>
CHEMBL1782_lig202

> <i_f3d_flags>
0

> <s_m_subgroup_title>
dock_pv

> <s_m_subgroupid>
dock_pv

> <b_m_subgroup_collapsed>
1

$$$$
CHEMBL1782_lig73
                    3D
 Schrodinger Suite 2021-1.
 47 47  0  0  1  0            999 V2000
   16.8312   36.2856   -9.9921 C   0  0  0  0  0  0
   17.6232   37.3806   -8.6912 P   0  0  0  0  0  0
   17.9789   34.9506  -10.5707 P   0  0  0  0  0  0
   15.5040   35.6928   -9.4210 C   0  0  0  0  0  0
   18.1010   36.5800   -7.4933 O   0  0  0  0  0  0
   18.1010   33.7800   -9.6187 O   0  0  0  0  0  0
   16.5010   37.0545  -11.1636 O   0  0  0  0  0  0
   18.8852   38.1099   -9.5650 O   0  0  0  0  0  0
   17.4072   34.5799  -12.1268 O   0  0  0  0  0  0
   16.4610   38.5804   -8.3647 O   0  0  0  0  0  0
   19.4563   35.7778  -10.7656 O   0  0  0  0  0  0
   15.4924   34.4955   -8.4282 C   0  0  0  0  0  0
   15.1637   33.2288   -9.1025 N   0  0  2  0  0  0
   10.3713   34.8417   -6.9989 C   0  0  0  0  0  0
   10.1755   35.9765   -4.4675 C   0  0  0  0  0  0
   10.5011   34.1802   -8.6396 S   0  0  0  0  0  0
   10.0729   36.6814   -2.8960 Cl  0  0  0  0  0  0
   10.8447   34.1427   -5.8843 C   0  0  0  0  0  0
    9.7899   36.1001   -6.8417 C   0  0  0  0  0  0
   10.7481   34.7159   -4.6190 C   0  0  0  0  0  0
    9.6997   36.6740   -5.5761 C   0  0  0  0  0  0
   12.8347   32.5715   -8.2823 C   0  0  0  0  0  0
   13.7393   33.0491   -9.4451 C   0  0  0  0  0  0
   11.3277   32.5645   -8.5992 C   0  0  0  0  0  0
   15.7006   32.0699   -8.3936 C   0  0  0  0  0  0
   14.9010   36.4855   -8.9745 H   0  0  0  0  0  0
   14.9997   35.3217  -10.3098 H   0  0  0  0  0  0
   17.3363   37.3995  -11.5522 H   0  0  0  0  0  0
   18.9010   38.2009  -10.5571 H   0  0  0  0  0  0
   16.8933   35.2180  -12.6600 H   0  0  0  0  0  0
   16.6538   39.5005   -8.6662 H   0  0  0  0  0  0
   19.5036   36.6966  -11.1350 H   0  0  0  0  0  0
   16.4576   34.4233   -7.9273 H   0  0  0  0  0  0
   14.7723   34.6769   -7.6286 H   0  0  0  0  0  0
   11.2970   33.1678   -5.9787 H   0  0  0  0  0  0
    9.4353   36.6394   -7.7076 H   0  0  0  0  0  0
   11.1273   34.1902   -3.7556 H   0  0  0  0  0  0
    9.2788   37.6620   -5.4581 H   0  0  0  0  0  0
   13.0799   31.5277   -8.0811 H   0  0  0  0  0  0
   13.0612   33.1112   -7.3654 H   0  0  0  0  0  0
   13.3155   33.9398   -9.9103 H   0  0  0  0  0  0
   13.7030   32.2986  -10.2370 H   0  0  0  0  0  0
   11.1578   32.0855   -9.5639 H   0  0  0  0  0  0
   10.8009   31.9467   -7.8716 H   0  0  0  0  0  0
   15.4507   31.1387   -8.9079 H   0  0  0  0  0  0
   16.7831   32.1388   -8.3652 H   0  0  0  0  0  0
   15.3387   32.0093   -7.3645 H   0  0  0  0  0  0
  1  2  1  0  0  0
  1  3  1  0  0  0
  1  4  1  0  0  0
  1  7  1  0  0  0
  2  5  2  0  0  0
  2  8  1  0  0  0
  2 10  1  0  0  0
  3  6  2  0  0  0
  3  9  1  0  0  0
  3 11  1  0  0  0
  4 12  1  0  0  0
  4 26  1  0  0  0
  4 27  1  0  0  0
  7 28  1  0  0  0
  8 29  1  0  0  0
  9 30  1  0  0  0
 10 31  1  0  0  0
 11 32  1  0  0  0
 12 13  1  0  0  0
 12 33  1  0  0  0
 12 34  1  0  0  0
 13 23  1  0  0  0
 13 25  1  0  0  0
 14 16  1  0  0  0
 14 18  2  0  0  0
 14 19  1  0  0  0
 15 21  1  0  0  0
 15 17  1  0  0  0
 15 20  2  0  0  0
 16 24  1  0  0  0
 18 20  1  0  0  0
 18 35  1  0  0  0
 19 21  2  0  0  0
 19 36  1  0  0  0
 20 37  1  0  0  0
 21 38  1  0  0  0
 22 23  1  0  0  0
 22 24  1  0  0  0
 22 39  1  0  0  0
 22 40  1  0  0  0
 23 41  1  0  0  0
 23 42  1  0  0  0
 24 43  1  0  0  0
 24 44  1  0  0  0
 25 45  1  0  0  0
 25 46  1  0  0  0
 25 47  1  0  0  0
M  END
> <s_m_entry_id>
3141

> <s_m_entry_name>
dock_pv.156

> <s_m_Source_Path>
/home/csk/Desktop/cluster/DUD-E-result/fpps

> <s_m_Source_File>
dock_pv.maegz

> <i_m_Source_File_Index>
156

> <chembl_id>
CHEMBL102209

> <chembl_pref_name>
None

> <i_lp_mmshare_version>
53161

> <r_lp_tautomer_probability>
1

> <s_lp_Force_Field>
OPLS_2005

> <r_lp_Energy>
4.108151

> <b_lp_Chiralities_Consistent>
1

> <s_lp_Variant>
CHEMBL1782_lig73-1

> <s_i_glide_gridfile>
glide-grid_1zw5

> <i_i_glide_lignum>
81

> <i_i_glide_rotatable_bonds>
15

> <r_i_docking_score>
-7.58089644865247

> <r_i_glide_ligand_efficiency>
-0.303235857946099

> <r_i_glide_ligand_efficiency_sa>
-0.886667026545232

> <r_i_glide_ligand_efficiency_ln>
-1.79689963946481

> <r_i_glide_gscore>
-7.58089644865247

> <r_i_glide_lipo>
-0.539396902626305

> <r_i_glide_hbond>
0

> <r_i_glide_metal>
-2.3

> <r_i_glide_rewards>
-0.451482954545453

> <r_i_glide_evdw>
-20.846263885498

> <r_i_glide_ecoul>
-68.1899719238281

> <r_i_glide_erotb>
0.952296602794193

> <r_i_glide_esite>
-0.2

> <r_i_glide_emodel>
-144.022623209866

> <r_i_glide_energy>
-89.0362358093262

> <r_i_glide_einternal>
27.7619018554688

> <i_i_glide_confnum>
220

> <i_i_glide_posenum>
114

> <r_i_glide_eff_state_penalty>
0

> <s_user_duplicate_titles>
CHEMBL1782_lig73

> <i_f3d_flags>
0

> <s_m_subgroup_title>
dock_pv

> <s_m_subgroupid>
dock_pv

> <b_m_subgroup_collapsed>
1

$$$$
CHEMBL1782_lig270 
                    3D
 Schrodinger Suite 2021-1.
 52 55  0  0  1  0            999 V2000
   16.3868   33.4374   -9.6946 N   0  0  0  0  0  0
   15.6819   33.7285   -8.5619 C   0  0  0  0  0  0
   15.9037   34.7717   -7.7119 N   0  0  0  0  0  0
   16.8854   35.6444   -8.0379 C   0  0  0  0  0  0
   17.3654   34.2910   -9.9672 C   0  0  0  0  0  0
   17.6808   35.4241   -9.1672 C   0  0  0  0  0  0
   18.8393   36.0797   -9.6059 C   0  0  0  0  0  0
   19.4098   35.4249  -10.6694 C   0  0  0  0  0  0
   18.4351   34.1696  -11.3479 S   0  0  0  0  0  0
   17.1884   36.6932   -7.1475 N   0  0  0  0  0  0
   16.6723   38.0479   -7.4857 C   0  0  0  0  0  0
   15.6421   38.1505   -9.0578 P   0  0  0  0  0  0
   17.6854   39.4246   -6.8242 P   0  0  0  0  0  0
   16.0922   37.6283  -10.4036 O   0  0  0  0  0  0
   18.2047   38.8614   -5.3001 O   0  0  0  0  0  0
   16.9027   40.7033   -6.7617 O   0  0  0  0  0  0
   14.5017   37.1303   -8.3669 O   0  0  0  0  0  0
   14.9008   39.6819   -9.1630 O   0  0  0  0  0  0
   18.9068   39.4855   -7.9654 O   0  0  0  0  0  0
   14.4990   32.8716   -8.2848 C   0  0  0  0  0  0
   14.4357   31.5444   -8.7272 C   0  0  0  0  0  0
   13.2699   30.8004   -8.5796 C   0  0  0  0  0  0
   12.1394   31.3795   -8.0013 C   0  0  0  0  0  0
   12.1947   32.6761   -7.4882 C   0  0  0  0  0  0
   13.3807   33.4052   -7.6280 C   0  0  0  0  0  0
   10.9907   33.3245   -6.8658 C   0  0  0  0  0  0
   11.2393   33.9815   -5.7175 N   0  0  0  0  0  0
    9.8909   33.2921   -7.4087 O   0  0  0  0  0  0
   10.5795   35.1234   -5.2405 C   0  0  0  0  0  0
   10.0857   36.1076   -6.1124 C   0  0  0  0  0  0
    9.6597   37.3265   -5.6004 C   0  0  0  0  0  0
    9.7031   37.5533   -4.2245 C   0  0  0  0  0  0
   10.1183   36.5552   -3.3521 C   0  0  0  0  0  0
   10.5648   35.3376   -3.8638 C   0  0  0  0  0  0
   19.2157   37.0014   -9.1863 H   0  0  0  0  0  0
   20.2877   35.7769  -11.1651 H   0  0  0  0  0  0
   16.8053   36.5262   -6.2222 H   0  0  0  0  0  0
   15.8820   38.1086   -6.7357 H   0  0  0  0  0  0
   18.4869   39.5083   -4.6232 H   0  0  0  0  0  0
   13.7853   36.7870   -8.9437 H   0  0  0  0  0  0
   14.4510   40.0591   -9.9539 H   0  0  0  0  0  0
   18.6721   39.7728   -8.8771 H   0  0  0  0  0  0
   15.2820   31.0867   -9.2197 H   0  0  0  0  0  0
   13.2258   29.7875   -8.9580 H   0  0  0  0  0  0
   11.2316   30.7945   -7.9605 H   0  0  0  0  0  0
   13.4090   34.4276   -7.2818 H   0  0  0  0  0  0
   12.0848   33.7194   -5.2356 H   0  0  0  0  0  0
   10.1066   35.9634   -7.1850 H   0  0  0  0  0  0
    9.3235   38.1075   -6.2677 H   0  0  0  0  0  0
    9.3858   38.5109   -3.8326 H   0  0  0  0  0  0
   10.1313   36.7383   -2.2881 H   0  0  0  0  0  0
   10.9492   34.5901   -3.1831 H   0  0  0  0  0  0
  1  5  1  0  0  0
  1  2  2  0  0  0
  2  3  1  0  0  0
  2 20  1  0  0  0
  3  4  2  0  0  0
  4  6  1  0  0  0
  4 10  1  0  0  0
  5  6  2  0  0  0
  5  9  1  0  0  0
  6  7  1  0  0  0
  7  8  2  0  0  0
  7 35  1  0  0  0
  8  9  1  0  0  0
  8 36  1  0  0  0
 10 11  1  0  0  0
 10 37  1  0  0  0
 11 12  1  0  0  0
 11 13  1  0  0  0
 11 38  1  0  0  0
 12 14  2  0  0  0
 12 17  1  0  0  0
 12 18  1  0  0  0
 13 15  1  0  0  0
 13 16  2  0  0  0
 13 19  1  0  0  0
 15 39  1  0  0  0
 17 40  1  0  0  0
 18 41  1  0  0  0
 19 42  1  0  0  0
 20 21  2  0  0  0
 20 25  1  0  0  0
 21 22  1  0  0  0
 21 43  1  0  0  0
 22 23  2  0  0  0
 22 44  1  0  0  0
 23 24  1  0  0  0
 23 45  1  0  0  0
 24 25  2  0  0  0
 24 26  1  0  0  0
 25 46  1  0  0  0
 26 27  1  0  0  0
 26 28  2  0  0  0
 27 29  1  0  0  0
 27 47  1  0  0  0
 29 30  2  0  0  0
 29 34  1  0  0  0
 30 31  1  0  0  0
 30 48  1  0  0  0
 31 32  2  0  0  0
 31 49  1  0  0  0
 32 33  1  0  0  0
 32 50  1  0  0  0
 33 34  2  0  0  0
 33 51  1  0  0  0
 34 52  1  0  0  0
M  END
> <s_m_entry_id>
3142

> <s_m_entry_name>
dock_pv.157

> <s_m_Source_Path>
/home/csk/Desktop/cluster/DUD-E-result/fpps

> <s_m_Source_File>
dock_pv.maegz

> <i_m_Source_File_Index>
157

> <chembl_id>
CHEMBL4465832

> <chembl_pref_name>
None

> <i_lp_mmshare_version>
53161

> <r_lp_tautomer_probability>
1

> <s_lp_Force_Field>
OPLS_2005

> <r_lp_Energy>
15.788539

> <b_lp_Chiralities_Consistent>
1

> <s_lp_Variant>
CHEMBL1782_lig270 -1

> <s_i_glide_gridfile>
glide-grid_1zw5

> <i_i_glide_lignum>
311

> <i_i_glide_rotatable_bonds>
12

> <r_i_docking_score>
-7.5589617107776

> <r_i_glide_ligand_efficiency>
-0.222322403258165

> <r_i_glide_ligand_efficiency_sa>
-0.720238280436916

> <r_i_glide_ligand_efficiency_ln>
-1.66998666360511

> <r_i_glide_gscore>
-7.5589617107776

> <r_i_glide_lipo>
-0.339569680630419

> <r_i_glide_hbond>
-0.0205117136678254

> <r_i_glide_metal>
-2.3

> <r_i_glide_rewards>
0.147949290957764

> <r_i_glide_evdw>
-37.3983955383301

> <r_i_glide_ecoul>
-21.954870223999

> <r_i_glide_erotb>
0.607096424292394

> <r_i_glide_esite>
-0.490775721213159

> <r_i_glide_emodel>
-67.5182509808979

> <r_i_glide_energy>
-59.3532657623291

> <r_i_glide_einternal>
49.0054779052734

> <i_i_glide_confnum>
27

> <i_i_glide_posenum>
159

> <r_i_glide_eff_state_penalty>
0

> <s_user_duplicate_titles>
CHEMBL1782_lig270 

> <i_f3d_flags>
0

> <s_m_subgroup_title>
dock_pv

> <s_m_subgroupid>
dock_pv

> <b_m_subgroup_collapsed>
1

$$$$
CHEMBL1782_lig194
                    3D
 Schrodinger Suite 2021-1.
 66 66  0  0  1  0            999 V2000
   15.0136   32.7558   -9.2788 C   0  0  0  0  0  0
   14.9020   31.6454   -8.4756 N   0  0  0  0  0  0
   15.1512   32.0313   -7.1706 C   0  0  0  0  0  0
   15.3011   33.4108   -7.1730 C   0  0  0  0  0  0
   15.2584   33.8519   -8.4832 N   0  3  0  0  0  0
   14.3090   30.3944   -8.8780 C   0  0  0  0  0  0
   15.2323   35.2265   -8.9287 C   0  0  0  0  0  0
   16.5712   36.0050   -8.8573 C   0  0  0  0  0  0
   16.2235   37.7796   -9.2598 P   0  0  0  0  0  0
   16.1010   38.0909  -10.7396 O   0  0  0  0  0  0
   14.8035   38.0877   -8.4330 O   0  0  0  0  0  0
   17.4337   38.5796   -8.3649 O   0  0  0  0  0  0
   17.1224   36.0510   -7.5375 O   0  0  0  0  0  0
   17.8861   35.2725   -9.9634 P   0  0  0  0  0  0
   17.4348   35.7796  -11.5217 O   0  0  0  0  0  0
   18.1010   33.7802   -9.7784 O   0  0  0  0  0  0
   19.2198   36.1768   -9.3865 O   0  0  0  0  0  0
   12.9000   30.2335   -8.2513 C   0  0  0  0  0  0
   12.0805   31.5113   -7.8607 C   0  0  0  0  0  0
   11.0683   31.9220   -8.9215 C   0  0  0  0  0  0
   10.1262   33.0506   -8.4726 C   0  0  0  0  0  0
   10.7929   34.4343   -8.3052 C   0  0  0  0  0  0
    9.9467   35.4586   -7.5200 C   0  0  0  0  0  0
    9.7387   35.1229   -6.0280 C   0  0  0  0  0  0
    9.1356   36.3076   -5.2516 C   0  0  0  0  0  0
    8.9761   36.0750   -3.7356 C   0  0  0  0  0  0
    7.8485   35.0954   -3.3608 C   0  0  0  0  0  0
    7.5984   35.0410   -1.8424 C   0  0  0  0  0  0
    6.5251   34.0177   -1.4408 C   0  0  0  0  0  0
   14.7754   32.7848  -10.3325 H   0  0  0  0  0  0
   15.0794   31.3105   -6.3676 H   0  0  0  0  0  0
   15.4250   34.1099   -6.3646 H   0  0  0  0  0  0
   14.9738   29.5816   -8.5811 H   0  0  0  0  0  0
   14.2483   30.3598   -9.9638 H   0  0  0  0  0  0
   14.9010   35.2048   -9.9626 H   0  0  0  0  0  0
   14.4372   35.7100   -8.3613 H   0  0  0  0  0  0
   13.9334   37.7612   -8.7650 H   0  0  0  0  0  0
   17.7003   39.4742   -8.6990 H   0  0  0  0  0  0
   17.3024   36.9917   -7.3550 H   0  0  0  0  0  0
   19.6754   36.8462   -9.9480 H   0  0  0  0  0  0
   13.0062   29.5941   -7.3769 H   0  0  0  0  0  0
   12.3290   29.6521   -8.9762 H   0  0  0  0  0  0
   12.6984   32.3719   -7.6389 H   0  0  0  0  0  0
   11.5480   31.3796   -6.9201 H   0  0  0  0  0  0
   10.4959   31.0318   -9.1638 H   0  0  0  0  0  0
   11.5877   32.1804   -9.8354 H   0  0  0  0  0  0
    9.6957   32.7407   -7.5252 H   0  0  0  0  0  0
    9.3012   33.1287   -9.1861 H   0  0  0  0  0  0
   11.0095   34.8303   -9.2974 H   0  0  0  0  0  0
   11.7575   34.3468   -7.8094 H   0  0  0  0  0  0
    8.9818   35.5997   -8.0095 H   0  0  0  0  0  0
   10.4475   36.4248   -7.5680 H   0  0  0  0  0  0
   10.6943   34.8480   -5.5819 H   0  0  0  0  0  0
    9.0931   34.2504   -5.9319 H   0  0  0  0  0  0
    8.1757   36.5672   -5.6961 H   0  0  0  0  0  0
    9.7703   37.1833   -5.3952 H   0  0  0  0  0  0
    8.7900   37.0365   -3.2552 H   0  0  0  0  0  0
    9.9222   35.7233   -3.3172 H   0  0  0  0  0  0
    8.1030   34.1035   -3.7298 H   0  0  0  0  0  0
    6.9260   35.3798   -3.8668 H   0  0  0  0  0  0
    7.3059   36.0300   -1.4844 H   0  0  0  0  0  0
    8.5286   34.8023   -1.3261 H   0  0  0  0  0  0
    6.3611   34.0223   -0.3637 H   0  0  0  0  0  0
    6.8174   33.0033   -1.7121 H   0  0  0  0  0  0
    5.5692   34.2315   -1.9194 H   0  0  0  0  0  0
   17.9289   36.5191  -11.9651 H   0  0  0  0  0  0
  1  2  1  0  0  0
  1  5  2  0  0  0
  1 30  1  0  0  0
  2  3  1  0  0  0
  2  6  1  0  0  0
  3  4  2  0  0  0
  3 31  1  0  0  0
  4  5  1  0  0  0
  4 32  1  0  0  0
  5  7  1  0  0  0
  6 18  1  0  0  0
  6 33  1  0  0  0
  6 34  1  0  0  0
  7  8  1  0  0  0
  7 35  1  0  0  0
  7 36  1  0  0  0
  8  9  1  0  0  0
  8 13  1  0  0  0
  8 14  1  0  0  0
  9 10  2  0  0  0
  9 11  1  0  0  0
  9 12  1  0  0  0
 11 37  1  0  0  0
 12 38  1  0  0  0
 13 39  1  0  0  0
 14 15  1  0  0  0
 14 16  2  0  0  0
 14 17  1  0  0  0
 15 66  1  0  0  0
 17 40  1  0  0  0
 18 19  1  0  0  0
 18 41  1  0  0  0
 18 42  1  0  0  0
 19 20  1  0  0  0
 19 43  1  0  0  0
 19 44  1  0  0  0
 20 21  1  0  0  0
 20 45  1  0  0  0
 20 46  1  0  0  0
 21 22  1  0  0  0
 21 47  1  0  0  0
 21 48  1  0  0  0
 22 23  1  0  0  0
 22 49  1  0  0  0
 22 50  1  0  0  0
 23 24  1  0  0  0
 23 51  1  0  0  0
 23 52  1  0  0  0
 24 25  1  0  0  0
 24 53  1  0  0  0
 24 54  1  0  0  0
 25 26  1  0  0  0
 25 55  1  0  0  0
 25 56  1  0  0  0
 26 27  1  0  0  0
 26 57  1  0  0  0
 26 58  1  0  0  0
 27 28  1  0  0  0
 27 59  1  0  0  0
 27 60  1  0  0  0
 28 29  1  0  0  0
 28 61  1  0  0  0
 28 62  1  0  0  0
 29 63  1  0  0  0
 29 64  1  0  0  0
 29 65  1  0  0  0
M  CHG  1   5   1
M  END
> <s_m_entry_id>
3143

> <s_m_entry_name>
dock_pv.158

> <s_m_Source_Path>
/home/csk/Desktop/cluster/DUD-E-result/fpps

> <s_m_Source_File>
dock_pv.maegz

> <i_m_Source_File_Index>
158

> <chembl_id>
CHEMBL2338365

> <chembl_pref_name>
None

> <i_lp_mmshare_version>
53161

> <r_lp_tautomer_probability>
1

> <s_lp_Force_Field>
OPLS_2005

> <r_lp_Energy>
5.295927

> <b_lp_Chiralities_Consistent>
1

> <s_lp_Variant>
CHEMBL1782_lig194-1

> <s_i_glide_gridfile>
glide-grid_1zw5

> <i_i_glide_lignum>
218

> <i_i_glide_rotatable_bonds>
21

> <r_i_docking_score>
-7.54436486564772

> <r_i_glide_ligand_efficiency>
-0.260150512608542

> <r_i_glide_ligand_efficiency_sa>
-0.799264796200901

> <r_i_glide_ligand_efficiency_ln>
-1.72746824564689

> <r_i_glide_gscore>
-7.54436486564772

> <r_i_glide_lipo>
-0.567205382838516

> <r_i_glide_hbond>
0

> <r_i_glide_metal>
-2.3

> <r_i_glide_rewards>
-0.153797045454545

> <r_i_glide_evdw>
-22.9726104736328

> <r_i_glide_ecoul>
-50.8399314880371

> <r_i_glide_erotb>
1.01690803869415

> <r_i_glide_esite>
-0.391639952367173

> <r_i_glide_emodel>
-105.420874351981

> <r_i_glide_energy>
-73.8125419616699

> <r_i_glide_einternal>
28.6551952362061

> <i_i_glide_confnum>
200

> <i_i_glide_posenum>
384

> <r_i_glide_eff_state_penalty>
0

> <s_user_duplicate_titles>
CHEMBL1782_lig194

> <i_f3d_flags>
0

> <s_m_subgroup_title>
dock_pv

> <s_m_subgroupid>
dock_pv

> <b_m_subgroup_collapsed>
1

$$$$
CHEMBL1782_lig34
                    3D
 Schrodinger Suite 2021-1.
 46 46  0  0  1  0            999 V2000
   16.0485   33.7565   -9.0867 C   0  0  0  0  0  0
   15.7754   34.9371  -10.0612 C   0  0  0  0  0  0
   16.9805   35.8496  -10.4616 C   0  0  0  0  0  0
   16.5010   36.7161  -11.4870 O   0  0  0  0  0  0
   17.4306   36.9612   -9.0079 P   0  0  0  0  0  0
   18.3808   34.8141  -11.2285 P   0  0  0  0  0  0
   18.5010   33.3800  -10.7650 O   0  0  0  0  0  0
   17.7010   36.1800   -7.7326 O   0  0  0  0  0  0
   18.7915   37.8149   -9.5650 O   0  0  0  0  0  0
   16.2104   38.1592   -8.9526 O   0  0  0  0  0  0
   18.1589   34.9800  -12.9160 O   0  0  0  0  0  0
   19.7606   35.6846  -10.7650 O   0  0  0  0  0  0
   15.4370   32.5266   -9.6037 N   0  0  2  0  0  0
   14.0193   32.3677   -9.2435 C   0  0  0  0  0  0
   16.2051   31.3101   -9.3422 C   0  0  0  0  0  0
   13.7563   31.9882   -7.7601 C   0  0  0  0  0  0
   12.2708   31.7839   -7.4080 C   0  0  0  0  0  0
   11.4357   33.0527   -7.4752 C   0  0  0  0  0  0
   11.2553   33.8372   -6.3327 C   0  0  0  0  0  0
   10.4949   35.0012   -6.4003 C   0  0  0  0  0  0
    9.9261   35.3800   -7.6141 C   0  0  0  0  0  0
   10.1010   34.5973   -8.7551 C   0  0  0  0  0  0
   10.8464   33.4272   -8.6828 C   0  0  0  0  0  0
   17.1078   33.6236   -8.8906 H   0  0  0  0  0  0
   15.6306   33.9895   -8.1067 H   0  0  0  0  0  0
   15.0083   35.5309   -9.5650 H   0  0  0  0  0  0
   15.3010   34.5627  -10.9701 H   0  0  0  0  0  0
   17.2736   37.1871  -11.8663 H   0  0  0  0  0  0
   18.9010   38.0947  -10.5218 H   0  0  0  0  0  0
   16.4593   39.1014   -9.1181 H   0  0  0  0  0  0
   17.6607   35.7069  -13.3372 H   0  0  0  0  0  0
   19.7712   36.6501  -10.5896 H   0  0  0  0  0  0
   13.4711   33.2733   -9.5061 H   0  0  0  0  0  0
   13.5810   31.6050   -9.8898 H   0  0  0  0  0  0
   15.6927   30.4330   -9.7421 H   0  0  0  0  0  0
   17.1777   31.3510   -9.8290 H   0  0  0  0  0  0
   16.3642   31.1477   -8.2766 H   0  0  0  0  0  0
   14.2529   31.0444   -7.5343 H   0  0  0  0  0  0
   14.1790   32.7311   -7.0845 H   0  0  0  0  0  0
   11.8295   31.0174   -8.0489 H   0  0  0  0  0  0
   12.1998   31.3801   -6.3979 H   0  0  0  0  0  0
   11.7010   33.5449   -5.3952 H   0  0  0  0  0  0
   10.3500   35.6079   -5.5192 H   0  0  0  0  0  0
    9.3436   36.2867   -7.6760 H   0  0  0  0  0  0
    9.6524   34.8918   -9.6927 H   0  0  0  0  0  0
   10.9754   32.8175   -9.5650 H   0  0  0  0  0  0
  1  2  1  0  0  0
  1 13  1  0  0  0
  1 24  1  0  0  0
  1 25  1  0  0  0
  2  3  1  0  0  0
  2 26  1  0  0  0
  2 27  1  0  0  0
  3  4  1  0  0  0
  3  5  1  0  0  0
  3  6  1  0  0  0
  4 28  1  0  0  0
  5  8  2  0  0  0
  5  9  1  0  0  0
  5 10  1  0  0  0
  6 12  1  0  0  0
  6  7  2  0  0  0
  6 11  1  0  0  0
  9 29  1  0  0  0
 10 30  1  0  0  0
 11 31  1  0  0  0
 12 32  1  0  0  0
 13 14  1  0  0  0
 13 15  1  0  0  0
 14 16  1  0  0  0
 14 33  1  0  0  0
 14 34  1  0  0  0
 15 35  1  0  0  0
 15 36  1  0  0  0
 15 37  1  0  0  0
 16 17  1  0  0  0
 16 38  1  0  0  0
 16 39  1  0  0  0
 17 18  1  0  0  0
 17 40  1  0  0  0
 17 41  1  0  0  0
 18 19  2  0  0  0
 18 23  1  0  0  0
 19 20  1  0  0  0
 19 42  1  0  0  0
 20 21  2  0  0  0
 20 43  1  0  0  0
 21 22  1  0  0  0
 21 44  1  0  0  0
 22 23  2  0  0  0
 22 45  1  0  0  0
 23 46  1  0  0  0
M  END
> <s_m_entry_id>
3144

> <s_m_entry_name>
dock_pv.159

> <s_m_Source_Path>
/home/csk/Desktop/cluster/DUD-E-result/fpps

> <s_m_Source_File>
dock_pv.maegz

> <i_m_Source_File_Index>
159

> <chembl_id>
CHEMBL54537

> <chembl_pref_name>
None

> <i_lp_mmshare_version>
53161

> <r_lp_tautomer_probability>
1

> <s_lp_Force_Field>
OPLS_2005

> <r_lp_Energy>
4.94911

> <b_lp_Chiralities_Consistent>
1

> <s_lp_Variant>
CHEMBL1782_lig34-1

> <s_i_glide_gridfile>
glide-grid_1zw5

> <i_i_glide_lignum>
38

> <i_i_glide_rotatable_bonds>
14

> <r_i_docking_score>
-7.52795153541358

> <r_i_glide_ligand_efficiency>
-0.327302240670156

> <r_i_glide_ligand_efficiency_sa>
-0.930804033700442

> <r_i_glide_ligand_efficiency_ln>
-1.82032694095359

> <r_i_glide_gscore>
-7.52795153541358

> <r_i_glide_lipo>
-0.160024945454244

> <r_i_glide_hbond>
0

> <r_i_glide_metal>
-2.3

> <r_i_glide_rewards>
-0.904965409090908

> <r_i_glide_evdw>
-22.1009559631348

> <r_i_glide_ecoul>
-61.334098815918

> <r_i_glide_erotb>
1.14208661728831

> <r_i_glide_esite>
-0.2

> <r_i_glide_emodel>
-136.659907228463

> <r_i_glide_energy>
-83.4350547790527

> <r_i_glide_einternal>
29.4825077056885

> <i_i_glide_confnum>
90

> <i_i_glide_posenum>
311

> <r_i_glide_eff_state_penalty>
0

> <s_user_duplicate_titles>
CHEMBL1782_lig34,83941

> <i_f3d_flags>
0

> <s_m_subgroup_title>
dock_pv

> <s_m_subgroupid>
dock_pv

> <b_m_subgroup_collapsed>
1

$$$$
CHEMBL1782_lig49
                    3D
 Schrodinger Suite 2021-1.
 49 49  0  0  1  0            999 V2000
   16.5369   35.4452  -10.4744 C   0  0  0  0  0  0
   16.5689   36.5302   -8.9260 P   0  0  0  0  0  0
   18.2045   34.7822  -11.0149 P   0  0  0  0  0  0
   15.5307   34.2569  -10.3161 C   0  0  0  0  0  0
   17.7010   36.1800   -7.9644 O   0  0  0  0  0  0
   18.5010   33.3806  -10.5553 O   0  0  0  0  0  0
   16.1011   36.2396  -11.5650 O   0  0  0  0  0  0
   16.5001   38.1588   -9.4748 O   0  0  0  0  0  0
   18.1815   34.9800  -12.7066 O   0  0  0  0  0  0
   14.9915   36.3196   -8.2952 O   0  0  0  0  0  0
   19.2902   35.9066  -10.3648 O   0  0  0  0  0  0
   15.7172   33.3144   -9.0960 C   0  0  0  0  0  0
   14.5971   32.3769   -8.9723 N   0  0  2  0  0  0
   10.7632   33.7206   -6.8080 C   0  0  0  0  0  0
   12.1494   32.1506   -8.3576 C   0  0  0  0  0  0
   13.4398   32.9999   -8.3037 C   0  0  0  0  0  0
   11.2444   32.3034   -7.1178 C   0  0  0  0  0  0
   15.0157   31.0981   -8.3621 C   0  0  0  0  0  0
   10.8510   34.2096   -5.5009 C   0  0  0  0  0  0
   10.1931   34.5152   -7.8074 C   0  0  0  0  0  0
   15.1950   31.1350   -6.8311 C   0  0  0  0  0  0
   10.3502   35.4711   -5.1880 C   0  0  0  0  0  0
    9.7009   35.7801   -7.4973 C   0  0  0  0  0  0
    9.7704   36.2490   -6.1878 C   0  0  0  0  0  0
   14.4971   34.5800  -10.3648 H   0  0  0  0  0  0
   15.6412   33.6321  -11.2023 H   0  0  0  0  0  0
   16.8645   36.3750  -12.1542 H   0  0  0  0  0  0
   17.2190   38.7255   -9.8572 H   0  0  0  0  0  0
   18.8296   35.5473  -13.1731 H   0  0  0  0  0  0
   14.2210   36.1541   -8.8847 H   0  0  0  0  0  0
   19.3031   36.8354  -10.7117 H   0  0  0  0  0  0
   16.6274   32.7401   -9.2446 H   0  0  0  0  0  0
   15.8844   33.8605   -8.1666 H   0  0  0  0  0  0
   11.5812   32.4672   -9.2302 H   0  0  0  0  0  0
   12.3411   31.0981   -8.5618 H   0  0  0  0  0  0
   13.6873   33.2600   -7.2734 H   0  0  0  0  0  0
   13.2120   33.9496   -8.7869 H   0  0  0  0  0  0
   10.3681   31.6690   -7.2473 H   0  0  0  0  0  0
   11.7744   31.8959   -6.2551 H   0  0  0  0  0  0
   14.3144   30.3078   -8.6312 H   0  0  0  0  0  0
   15.9519   30.7739   -8.8201 H   0  0  0  0  0  0
   11.2993   33.6110   -4.7224 H   0  0  0  0  0  0
   10.1141   34.1540   -8.8228 H   0  0  0  0  0  0
   15.7552   30.2662   -6.4850 H   0  0  0  0  0  0
   15.7190   32.0285   -6.4986 H   0  0  0  0  0  0
   14.2294   31.1183   -6.3255 H   0  0  0  0  0  0
   10.4086   35.8421   -4.1751 H   0  0  0  0  0  0
    9.2607   36.3895   -8.2723 H   0  0  0  0  0  0
    9.3822   37.2289   -5.9510 H   0  0  0  0  0  0
  1  2  1  0  0  0
  1  3  1  0  0  0
  1  4  1  0  0  0
  1  7  1  0  0  0
  2  5  2  0  0  0
  2  8  1  0  0  0
  2 10  1  0  0  0
  3  6  2  0  0  0
  3  9  1  0  0  0
  3 11  1  0  0  0
  4 12  1  0  0  0
  4 25  1  0  0  0
  4 26  1  0  0  0
  7 27  1  0  0  0
  8 28  1  0  0  0
  9 29  1  0  0  0
 10 30  1  0  0  0
 11 31  1  0  0  0
 12 13  1  0  0  0
 12 32  1  0  0  0
 12 33  1  0  0  0
 13 16  1  0  0  0
 13 18  1  0  0  0
 14 17  1  0  0  0
 14 19  1  0  0  0
 14 20  2  0  0  0
 15 16  1  0  0  0
 15 17  1  0  0  0
 15 34  1  0  0  0
 15 35  1  0  0  0
 16 36  1  0  0  0
 16 37  1  0  0  0
 17 38  1  0  0  0
 17 39  1  0  0  0
 18 21  1  0  0  0
 18 40  1  0  0  0
 18 41  1  0  0  0
 19 22  2  0  0  0
 19 42  1  0  0  0
 20 23  1  0  0  0
 20 43  1  0  0  0
 21 44  1  0  0  0
 21 45  1  0  0  0
 21 46  1  0  0  0
 22 24  1  0  0  0
 22 47  1  0  0  0
 23 24  2  0  0  0
 23 48  1  0  0  0
 24 49  1  0  0  0
M  END
> <s_m_entry_id>
3145

> <s_m_entry_name>
dock_pv.160

> <s_m_Source_Path>
/home/csk/Desktop/cluster/DUD-E-result/fpps

> <s_m_Source_File>
dock_pv.maegz

> <i_m_Source_File_Index>
160

> <chembl_id>
CHEMBL321075

> <chembl_pref_name>
None

> <i_lp_mmshare_version>
53161

> <r_lp_tautomer_probability>
1

> <s_lp_Force_Field>
OPLS_2005

> <r_lp_Energy>
5.247285

> <b_lp_Chiralities_Consistent>
1

> <s_lp_Variant>
CHEMBL1782_lig49-1

> <s_i_glide_gridfile>
glide-grid_1zw5

> <i_i_glide_lignum>
54

> <i_i_glide_rotatable_bonds>
15

> <r_i_docking_score>
-7.51916329201714

> <r_i_glide_ligand_efficiency>
-0.313298470500714

> <r_i_glide_ligand_efficiency_sa>
-0.9037091679579

> <r_i_glide_ligand_efficiency_ln>
-1.79968080770059

> <r_i_glide_gscore>
-7.51916329201714

> <r_i_glide_lipo>
-0.174846453685083

> <r_i_glide_hbond>
0

> <r_i_glide_metal>
-2.3

> <r_i_glide_rewards>
-0.809329636363635

> <r_i_glide_evdw>
-22.0600185394287

> <r_i_glide_ecoul>
-58.8651809692383

> <r_i_glide_erotb>
1.06801372500302

> <r_i_glide_esite>
-0.2

> <r_i_glide_emodel>
-133.996440336121

> <r_i_glide_energy>
-80.925199508667

> <r_i_glide_einternal>
24.3156852722168

> <i_i_glide_confnum>
187

> <i_i_glide_posenum>
231

> <r_i_glide_eff_state_penalty>
0

> <s_user_duplicate_titles>
CHEMBL1782_lig49

> <i_f3d_flags>
0

> <s_m_subgroup_title>
dock_pv

> <s_m_subgroupid>
dock_pv

> <b_m_subgroup_collapsed>
1

$$$$
CHEMBL1782_lig84
                    3D
 Schrodinger Suite 2021-1.
 27 26  0  0  1  0            999 V2000
   15.9302   33.8402   -8.9810 C   0  0  0  0  0  0
   14.7228   32.9010   -8.7935 C   0  0  0  0  0  0
   15.8005   34.8256  -10.1750 C   0  0  0  0  0  0
   16.9842   35.8013  -10.5018 C   0  0  0  0  0  0
   18.7565   37.8154   -9.5650 O   0  0  0  0  0  0
   17.3997   36.9337   -9.0401 P   0  0  0  0  0  0
   16.1451   38.0954   -8.9905 O   0  0  0  0  0  0
   17.7010   36.1800   -7.7568 O   0  0  0  0  0  0
   18.4136   34.8106  -11.2329 P   0  0  0  0  0  0
   18.2256   34.9800  -12.9246 O   0  0  0  0  0  0
   19.7728   35.6892  -10.7217 O   0  0  0  0  0  0
   18.5010   33.3800  -10.7650 O   0  0  0  0  0  0
   16.5010   36.6385  -11.5481 O   0  0  0  0  0  0
   14.5010   32.0737   -9.9649 N   0  0  0  0  0  0
   16.8186   33.2216   -9.0530 H   0  0  0  0  0  0
   16.0282   34.3953   -8.0505 H   0  0  0  0  0  0
   14.8994   32.2480   -7.9369 H   0  0  0  0  0  0
   13.8169   33.4687   -8.5751 H   0  0  0  0  0  0
   14.9010   35.3800   -9.9462 H   0  0  0  0  0  0
   15.5700   34.2551  -11.0762 H   0  0  0  0  0  0
   18.9009   38.0845  -10.5204 H   0  0  0  0  0  0
   16.3710   39.0471   -9.1231 H   0  0  0  0  0  0
   17.7157   35.6959  -13.3512 H   0  0  0  0  0  0
   19.7666   36.6502  -10.5236 H   0  0  0  0  0  0
   17.2661   37.1228  -11.9206 H   0  0  0  0  0  0
   13.9970   31.2357   -9.6968 H   0  0  0  0  0  0
   13.8737   32.5568  -10.5970 H   0  0  0  0  0  0
  1  2  1  0  0  0
  1  3  1  0  0  0
  1 15  1  0  0  0
  1 16  1  0  0  0
  2 14  1  0  0  0
  2 17  1  0  0  0
  2 18  1  0  0  0
  3  4  1  0  0  0
  3 19  1  0  0  0
  3 20  1  0  0  0
  4  6  1  0  0  0
  4  9  1  0  0  0
  4 13  1  0  0  0
  5  6  1  0  0  0
  5 21  1  0  0  0
  6  7  1  0  0  0
  6  8  2  0  0  0
  7 22  1  0  0  0
  9 10  1  0  0  0
  9 11  1  0  0  0
  9 12  2  0  0  0
 10 23  1  0  0  0
 11 24  1  0  0  0
 13 25  1  0  0  0
 14 26  1  0  0  0
 14 27  1  0  0  0
M  END
> <s_m_entry_id>
3146

> <s_m_entry_name>
dock_pv.161

> <s_m_Source_Path>
/home/csk/Desktop/cluster/DUD-E-result/fpps

> <s_m_Source_File>
dock_pv.maegz

> <i_m_Source_File_Index>
161

> <chembl_id>
CHEMBL870

> <chembl_pref_name>
ALENDRONIC ACID

> <i_lp_mmshare_version>
53161

> <r_lp_tautomer_probability>
1

> <s_lp_Force_Field>
OPLS_2005

> <r_lp_Energy>
-6.179866

> <b_lp_Chiralities_Consistent>
1

> <s_lp_Variant>
CHEMBL1782_lig84-1

> <s_i_glide_gridfile>
glide-grid_1zw5

> <i_i_glide_lignum>
92

> <i_i_glide_rotatable_bonds>
10

> <r_i_docking_score>
-7.50822419986534

> <r_i_glide_ligand_efficiency>
-0.53630172856181

> <r_i_glide_ligand_efficiency_sa>
-1.29256346122

> <r_i_glide_ligand_efficiency_ln>
-2.06323328263123

> <r_i_glide_gscore>
-7.50822419986534

> <r_i_glide_lipo>
0

> <r_i_glide_hbond>
-0.153834230040714

> <r_i_glide_metal>
-2.3

> <r_i_glide_rewards>
-1.71070881818182

> <r_i_glide_evdw>
-5.41312551498413

> <r_i_glide_ecoul>
-57.2190170288086

> <r_i_glide_erotb>
1.1269751241064

> <r_i_glide_esite>
-0.2

> <r_i_glide_emodel>
-108.045180917891

> <r_i_glide_energy>
-62.6321425437927

> <r_i_glide_einternal>
22.6330871582031

> <i_i_glide_confnum>
60

> <i_i_glide_posenum>
125

> <r_i_glide_eff_state_penalty>
0

> <s_user_duplicate_titles>
CHEMBL1782_lig84,CHEMBL1782_lig262,70674

> <i_f3d_flags>
0

> <s_m_subgroup_title>
dock_pv

> <s_m_subgroupid>
dock_pv

> <b_m_subgroup_collapsed>
1

$$$$
CHEMBL1782_lig112
                    3D
 Schrodinger Suite 2021-1.
 26 25  0  0  1  0            999 V2000
   16.1791   35.4386   -9.6476 C   0  0  0  0  0  0
   17.8093   34.8819  -10.3650 P   0  0  0  0  0  0
   16.1579   37.1887   -8.9873 P   0  0  0  0  0  0
   15.8540   34.5673   -8.5096 N   0  0  2  0  0  0
   18.1010   33.3803  -10.3650 O   0  0  0  0  0  0
   17.2345   37.4963   -7.9726 O   0  0  0  0  0  0
   17.7010   35.6274  -11.8948 O   0  0  0  0  0  0
   16.1012   38.1800  -10.4044 O   0  0  0  0  0  0
   18.9008   35.7496   -9.3365 O   0  0  0  0  0  0
   14.5988   37.2877   -8.3650 O   0  0  0  0  0  0
   15.1748   33.3451   -8.9395 C   0  0  0  0  0  0
   14.8024   32.4727   -7.7291 C   0  0  0  0  0  0
   13.7943   33.1204   -6.7660 C   0  0  0  0  0  0
   15.3914   35.3394  -10.3979 H   0  0  0  0  0  0
   15.1946   35.0535   -7.9134 H   0  0  0  0  0  0
   18.1592   36.4868  -12.1125 H   0  0  0  0  0  0
   16.5989   39.0493  -10.3650 H   0  0  0  0  0  0
   19.3991   36.5301   -9.6754 H   0  0  0  0  0  0
   13.8144   36.9731   -8.8792 H   0  0  0  0  0  0
   15.7929   32.7647   -9.6241 H   0  0  0  0  0  0
   14.2594   33.6083   -9.4744 H   0  0  0  0  0  0
   15.7009   32.1794   -7.1840 H   0  0  0  0  0  0
   14.3716   31.5410   -8.1001 H   0  0  0  0  0  0
   13.4888   32.4052   -6.0031 H   0  0  0  0  0  0
   12.8934   33.4403   -7.2913 H   0  0  0  0  0  0
   14.2183   33.9856   -6.2572 H   0  0  0  0  0  0
  1  2  1  0  0  0
  1  3  1  0  0  0
  1  4  1  0  0  0
  1 14  1  0  0  0
  2  5  2  0  0  0
  2  7  1  0  0  0
  2  9  1  0  0  0
  3  6  2  0  0  0
  3  8  1  0  0  0
  3 10  1  0  0  0
  4 11  1  0  0  0
  4 15  1  0  0  0
  7 16  1  0  0  0
  8 17  1  0  0  0
  9 18  1  0  0  0
 10 19  1  0  0  0
 11 12  1  0  0  0
 11 20  1  0  0  0
 11 21  1  0  0  0
 12 13  1  0  0  0
 12 22  1  0  0  0
 12 23  1  0  0  0
 13 24  1  0  0  0
 13 25  1  0  0  0
 13 26  1  0  0  0
M  END
> <s_m_entry_id>
3148

> <s_m_entry_name>
dock_pv.163

> <s_m_Source_Path>
/home/csk/Desktop/cluster/DUD-E-result/fpps

> <s_m_Source_File>
dock_pv.maegz

> <i_m_Source_File_Index>
163

> <chembl_id>
CHEMBL299717

> <chembl_pref_name>
(PROPYLAMINO)METHYLENEDIPHOSPHONIC ACID

> <i_lp_mmshare_version>
53161

> <r_lp_tautomer_probability>
1

> <s_lp_Force_Field>
OPLS_2005

> <r_lp_Energy>
-1.857454

> <b_lp_Chiralities_Consistent>
1

> <s_lp_Variant>
CHEMBL1782_lig112-1

> <s_i_glide_gridfile>
glide-grid_1zw5

> <i_i_glide_lignum>
124

> <i_i_glide_rotatable_bonds>
9

> <r_i_docking_score>
-7.50663513700274

> <r_i_glide_ligand_efficiency>
-0.577433472077133

> <r_i_glide_ligand_efficiency_sa>
-1.35773935158516

> <r_i_glide_ligand_efficiency_ln>
-2.10567791693622

> <r_i_glide_gscore>
-7.50663513700274

> <r_i_glide_lipo>
0

> <r_i_glide_hbond>
0

> <r_i_glide_metal>
-2.3

> <r_i_glide_rewards>
-1.81979563636364

> <r_i_glide_evdw>
-8.98030376434326

> <r_i_glide_ecoul>
-48.6133918762207

> <r_i_glide_erotb>
1.26217568757806

> <r_i_glide_esite>
-0.2

> <r_i_glide_emodel>
-97.3723771103563

> <r_i_glide_energy>
-57.593695640564

> <r_i_glide_einternal>
18.3221607208252

> <i_i_glide_confnum>
124

> <i_i_glide_posenum>
46

> <r_i_glide_eff_state_penalty>
0

> <s_user_duplicate_titles>
CHEMBL1782_lig112,84213

> <i_f3d_flags>
0

> <s_m_subgroup_title>
dock_pv

> <s_m_subgroupid>
dock_pv

> <b_m_subgroup_collapsed>
1

$$$$
CHEMBL1782_lig26
                    3D
 Schrodinger Suite 2021-1.
 44 44  0  0  1  0            999 V2000
   16.6413   35.7233   -9.1510 C   0  0  0  0  0  0
   18.1260   35.2381  -10.1611 P   0  0  0  0  0  0
   16.3433   37.5736   -9.1131 P   0  0  0  0  0  0
   15.3887   34.9290   -9.5939 C   0  0  0  0  0  0
   18.5010   33.7800  -10.0777 O   0  0  0  0  0  0
   15.3010   38.0581   -8.1479 O   0  0  0  0  0  0
   16.9010   35.3800   -7.7912 O   0  0  0  0  0  0
   17.7010   35.7800  -11.7159 O   0  0  0  0  0  0
   17.8806   38.1800   -8.7650 O   0  0  0  0  0  0
   19.3121   36.1800   -9.3871 O   0  0  0  0  0  0
   16.1010   37.9880  -10.7650 O   0  0  0  0  0  0
   15.4239   33.3924   -9.3466 C   0  0  0  0  0  0
   14.1187   32.7340   -9.4590 N   0  0  2  0  0  0
   10.1447   35.7030   -4.8664 C   0  0  0  0  0  0
   10.5994   34.2645   -7.2139 C   0  0  0  0  0  0
    9.8716   36.5929   -3.4136 Cl  0  0  0  0  0  0
    9.6115   36.1565   -6.0710 C   0  0  0  0  0  0
   10.9004   34.5341   -4.8256 C   0  0  0  0  0  0
    9.8365   35.4317   -7.2380 C   0  0  0  0  0  0
   11.1243   33.8114   -5.9949 C   0  0  0  0  0  0
   10.7749   33.6212   -8.4228 O   0  0  0  0  0  0
   11.7456   32.5779   -8.5609 C   0  0  0  0  0  0
   13.2037   33.0786   -8.3559 C   0  0  0  0  0  0
   14.3243   31.2812   -9.4964 C   0  0  0  0  0  0
   14.5010   35.3800   -9.1649 H   0  0  0  0  0  0
   15.3010   35.0719  -10.6708 H   0  0  0  0  0  0
   16.0927   35.5557   -7.2937 H   0  0  0  0  0  0
   18.1599   36.5729  -12.1106 H   0  0  0  0  0  0
   18.0751   39.1220   -8.9942 H   0  0  0  0  0  0
   19.7218   36.9614   -9.8222 H   0  0  0  0  0  0
   16.8482   38.4784  -11.2086 H   0  0  0  0  0  0
   16.0746   32.9594  -10.1080 H   0  0  0  0  0  0
   15.8950   33.1448   -8.3934 H   0  0  0  0  0  0
    9.0332   37.0675   -6.1074 H   0  0  0  0  0  0
   11.3068   34.1800   -3.8894 H   0  0  0  0  0  0
    9.4328   35.7800   -8.1777 H   0  0  0  0  0  0
   11.7010   32.9005   -5.9435 H   0  0  0  0  0  0
   11.6077   32.1800   -9.5650 H   0  0  0  0  0  0
   11.5175   31.7470   -7.8914 H   0  0  0  0  0  0
   13.5998   32.6792   -7.4204 H   0  0  0  0  0  0
   13.1599   34.1566   -8.2210 H   0  0  0  0  0  0
   13.3830   30.7353   -9.5650 H   0  0  0  0  0  0
   14.9182   30.9934  -10.3649 H   0  0  0  0  0  0
   14.8409   30.9231   -8.6037 H   0  0  0  0  0  0
  1  2  1  0  0  0
  1  3  1  0  0  0
  1  4  1  0  0  0
  1  7  1  0  0  0
  2  5  2  0  0  0
  2  8  1  0  0  0
  2 10  1  0  0  0
  3  6  2  0  0  0
  3  9  1  0  0  0
  3 11  1  0  0  0
  4 12  1  0  0  0
  4 25  1  0  0  0
  4 26  1  0  0  0
  7 27  1  0  0  0
  8 28  1  0  0  0
  9 29  1  0  0  0
 10 30  1  0  0  0
 11 31  1  0  0  0
 12 13  1  0  0  0
 12 32  1  0  0  0
 12 33  1  0  0  0
 13 23  1  0  0  0
 13 24  1  0  0  0
 14 18  1  0  0  0
 14 16  1  0  0  0
 14 17  2  0  0  0
 15 21  1  0  0  0
 15 19  2  0  0  0
 15 20  1  0  0  0
 17 19  1  0  0  0
 17 34  1  0  0  0
 18 20  2  0  0  0
 18 35  1  0  0  0
 19 36  1  0  0  0
 20 37  1  0  0  0
 21 22  1  0  0  0
 22 23  1  0  0  0
 22 38  1  0  0  0
 22 39  1  0  0  0
 23 40  1  0  0  0
 23 41  1  0  0  0
 24 42  1  0  0  0
 24 43  1  0  0  0
 24 44  1  0  0  0
M  END
> <s_m_entry_id>
3149

> <s_m_entry_name>
dock_pv.164

> <s_m_Source_Path>
/home/csk/Desktop/cluster/DUD-E-result/fpps

> <s_m_Source_File>
dock_pv.maegz

> <i_m_Source_File_Index>
164

> <chembl_id>
CHEMBL319519

> <chembl_pref_name>
None

> <i_lp_mmshare_version>
53161

> <r_lp_tautomer_probability>
1

> <s_lp_Force_Field>
OPLS_2005

> <r_lp_Energy>
8.779619

> <b_lp_Chiralities_Consistent>
1

> <s_lp_Variant>
CHEMBL1782_lig26-1

> <s_i_glide_gridfile>
glide-grid_1zw5

> <i_i_glide_lignum>
30

> <i_i_glide_rotatable_bonds>
14

> <r_i_docking_score>
-7.50518747594527

> <r_i_glide_ligand_efficiency>
-0.312716144831053

> <r_i_glide_ligand_efficiency_sa>
-0.902029450065985

> <r_i_glide_ligand_efficiency_ln>
-1.79633575360618

> <r_i_glide_gscore>
-7.50518747594527

> <r_i_glide_lipo>
-0.2386915266749

> <r_i_glide_hbond>
0

> <r_i_glide_metal>
-2.3

> <r_i_glide_rewards>
-0.651712944060991

> <r_i_glide_evdw>
-21.5742855072021

> <r_i_glide_ecoul>
-58.1822166442871

> <r_i_glide_erotb>
0.96393127015073

> <r_i_glide_esite>
-0.2

> <r_i_glide_emodel>
-128.055659838673

> <r_i_glide_energy>
-79.7565021514893

> <r_i_glide_einternal>
32.143611907959

> <i_i_glide_confnum>
28

> <i_i_glide_posenum>
348

> <r_i_glide_eff_state_penalty>
0

> <s_user_duplicate_titles>
CHEMBL1782_lig26

> <i_f3d_flags>
0

> <s_m_subgroup_title>
dock_pv

> <s_m_subgroupid>
dock_pv

> <b_m_subgroup_collapsed>
1

$$$$
CHEMBL1782_lig109
                    3D
 Schrodinger Suite 2021-1.
 46 45  0  0  1  0            999 V2000
   16.6146   36.0195   -8.7854 C   0  0  0  0  0  0
   16.2230   37.7710   -9.2559 P   0  0  0  0  0  0
   17.8558   35.2629   -9.9648 P   0  0  0  0  0  0
   16.1010   38.0431  -10.7489 O   0  0  0  0  0  0
   18.1010   33.7800   -9.7585 O   0  0  0  0  0  0
   17.3010   36.1637   -7.5321 O   0  0  0  0  0  0
   14.7998   38.1021   -8.4439 O   0  0  0  0  0  0
   17.4338   38.5800   -8.3651 O   0  0  0  0  0  0
   17.3374   35.7526  -11.5102 O   0  0  0  0  0  0
   19.2258   36.1797   -9.5194 O   0  0  0  0  0  0
   15.3165   35.1682   -8.6512 C   0  0  0  0  0  0
   15.3740   33.8817   -7.7953 C   0  0  0  0  0  0
    9.5308   35.7545   -2.8480 C   0  0  0  0  0  0
    9.3511   35.1690   -4.2623 C   0  0  0  0  0  0
   11.6022   33.1533   -6.8089 C   0  0  0  0  0  0
   10.4267   33.9994   -6.2781 C   0  0  0  0  0  0
   10.6384   34.5710   -4.8630 C   0  0  0  0  0  0
   14.0221   33.1409   -7.6975 C   0  0  0  0  0  0
   12.8988   33.9554   -7.0199 C   0  0  0  0  0  0
   10.2944   37.0877   -2.8162 C   0  0  0  0  0  0
   17.4889   37.1185   -7.4431 H   0  0  0  0  0  0
   13.9387   37.7427   -8.7650 H   0  0  0  0  0  0
   17.7011   39.4707   -8.7101 H   0  0  0  0  0  0
   17.8041   36.4993  -11.9651 H   0  0  0  0  0  0
   19.6203   36.8436  -10.1321 H   0  0  0  0  0  0
   14.9410   34.9234   -9.6459 H   0  0  0  0  0  0
   14.5440   35.7868   -8.2040 H   0  0  0  0  0  0
   15.7032   34.1196   -6.7837 H   0  0  0  0  0  0
   16.1126   33.1917   -8.2016 H   0  0  0  0  0  0
   10.0356   35.0275   -2.2098 H   0  0  0  0  0  0
    8.5477   35.9099   -2.4010 H   0  0  0  0  0  0
    8.5892   34.3897   -4.2199 H   0  0  0  0  0  0
    8.9526   35.9353   -4.9285 H   0  0  0  0  0  0
   11.7888   32.3150   -6.1349 H   0  0  0  0  0  0
   11.3047   32.7063   -7.7597 H   0  0  0  0  0  0
    9.5327   33.3800   -6.2820 H   0  0  0  0  0  0
   10.2187   34.8132   -6.9751 H   0  0  0  0  0  0
   11.4159   35.3328   -4.8987 H   0  0  0  0  0  0
   11.0119   33.7849   -4.2053 H   0  0  0  0  0  0
   14.1752   32.2143   -7.1405 H   0  0  0  0  0  0
   13.7004   32.8354   -8.6950 H   0  0  0  0  0  0
   12.6599   34.8269   -7.6296 H   0  0  0  0  0  0
   13.2558   34.3300   -6.0606 H   0  0  0  0  0  0
   10.3849   37.4607   -1.7952 H   0  0  0  0  0  0
    9.7794   37.8532   -3.3986 H   0  0  0  0  0  0
   11.3009   36.9892   -3.2191 H   0  0  0  0  0  0
  1  2  1  0  0  0
  1  3  1  0  0  0
  1  6  1  0  0  0
  1 11  1  0  0  0
  2  4  2  0  0  0
  2  7  1  0  0  0
  2  8  1  0  0  0
  3  5  2  0  0  0
  3  9  1  0  0  0
  3 10  1  0  0  0
  6 21  1  0  0  0
  7 22  1  0  0  0
  8 23  1  0  0  0
  9 24  1  0  0  0
 10 25  1  0  0  0
 11 12  1  0  0  0
 11 26  1  0  0  0
 11 27  1  0  0  0
 12 18  1  0  0  0
 12 28  1  0  0  0
 12 29  1  0  0  0
 13 14  1  0  0  0
 13 20  1  0  0  0
 13 30  1  0  0  0
 13 31  1  0  0  0
 14 17  1  0  0  0
 14 32  1  0  0  0
 14 33  1  0  0  0
 15 19  1  0  0  0
 15 16  1  0  0  0
 15 34  1  0  0  0
 15 35  1  0  0  0
 16 17  1  0  0  0
 16 36  1  0  0  0
 16 37  1  0  0  0
 17 38  1  0  0  0
 17 39  1  0  0  0
 18 19  1  0  0  0
 18 40  1  0  0  0
 18 41  1  0  0  0
 19 42  1  0  0  0
 19 43  1  0  0  0
 20 44  1  0  0  0
 20 45  1  0  0  0
 20 46  1  0  0  0
M  END
> <s_m_entry_id>
3150

> <s_m_entry_name>
dock_pv.165

> <s_m_Source_Path>
/home/csk/Desktop/cluster/DUD-E-result/fpps

> <s_m_Source_File>
dock_pv.maegz

> <i_m_Source_File_Index>
165

> <chembl_id>
CHEMBL298852

> <chembl_pref_name>
None

> <i_lp_mmshare_version>
53161

> <r_lp_tautomer_probability>
1

> <s_lp_Force_Field>
OPLS_2005

> <r_lp_Energy>
-4.819429

> <b_lp_Chiralities_Consistent>
1

> <s_lp_Variant>
CHEMBL1782_lig109-1

> <s_i_glide_gridfile>
glide-grid_1zw5

> <i_i_glide_lignum>
120

> <i_i_glide_rotatable_bonds>
16

> <r_i_docking_score>
-7.48794447740336

> <r_i_glide_ligand_efficiency>
-0.374397223870168

> <r_i_glide_ligand_efficiency_sa>
-1.01627041906259

> <r_i_glide_ligand_efficiency_ln>
-1.8739855337563

> <r_i_glide_gscore>
-7.48794447740336

> <r_i_glide_lipo>
-0.36301893190492

> <r_i_glide_hbond>
0

> <r_i_glide_metal>
-2.3

> <r_i_glide_rewards>
-1.14363095454545

> <r_i_glide_evdw>
-13.5069608688354

> <r_i_glide_ecoul>
-56.5899505615234

> <r_i_glide_erotb>
1.19405345248879

> <r_i_glide_esite>
-0.2

> <r_i_glide_emodel>
-112.945932449112

> <r_i_glide_energy>
-70.0969114303589

> <r_i_glide_einternal>
23.7788619995117

> <i_i_glide_confnum>
110

> <i_i_glide_posenum>
356

> <r_i_glide_eff_state_penalty>
0

> <s_user_duplicate_titles>
CHEMBL1782_lig109

> <i_f3d_flags>
0

> <s_m_subgroup_title>
dock_pv

> <s_m_subgroupid>
dock_pv

> <b_m_subgroup_collapsed>
1

$$$$
CHEMBL1782_lig25
                    3D
 Schrodinger Suite 2021-1.
 49 49  0  0  1  0            999 V2000
   16.9850   35.8529  -10.4406 C   0  0  0  0  0  0
   17.4396   36.9693   -8.9952 P   0  0  0  0  0  0
   18.3804   34.8142  -11.2111 P   0  0  0  0  0  0
   15.7930   34.9341  -10.0160 C   0  0  0  0  0  0
   17.7010   36.1800   -7.7213 O   0  0  0  0  0  0
   18.5010   33.3800  -10.7455 O   0  0  0  0  0  0
   16.5010   36.7113  -11.4697 O   0  0  0  0  0  0
   18.8014   37.8129   -9.5650 O   0  0  0  0  0  0
   18.1516   34.9800  -12.8977 O   0  0  0  0  0  0
   16.2228   38.1711   -8.9430 O   0  0  0  0  0  0
   19.7657   35.6848  -10.7650 O   0  0  0  0  0  0
   16.0565   33.8757   -8.9099 C   0  0  0  0  0  0
   15.1301   32.7474   -9.0342 N   0  0  2  0  0  0
   10.9010   33.6118   -5.8812 C   0  0  0  0  0  0
   10.9907   33.2825   -7.2340 C   0  0  0  0  0  0
   10.3167   34.8129   -5.4709 C   0  0  0  0  0  0
   12.7317   32.0583   -8.6895 C   0  0  0  0  0  0
    9.9166   35.3800   -7.7864 C   0  0  0  0  0  0
   13.8800   33.0195   -8.3121 C   0  0  0  0  0  0
   11.6117   31.9502   -7.6424 C   0  0  0  0  0  0
    9.8247   35.6990   -6.4319 C   0  0  0  0  0  0
   10.4984   34.1777   -8.1889 C   0  0  0  0  0  0
   15.7492   31.5194   -8.5281 C   0  0  0  0  0  0
   10.2347   35.1612   -3.9964 C   0  0  0  0  0  0
   15.0379   35.5766   -9.5650 H   0  0  0  0  0  0
   15.3012   34.4792  -10.8776 H   0  0  0  0  0  0
   17.2714   37.1843  -11.8508 H   0  0  0  0  0  0
   18.9010   38.0912  -10.5233 H   0  0  0  0  0  0
   17.6566   35.7100  -13.3175 H   0  0  0  0  0  0
   16.4733   39.1116   -9.1167 H   0  0  0  0  0  0
   19.7789   36.6506  -10.5905 H   0  0  0  0  0  0
   17.0881   33.5424   -8.9118 H   0  0  0  0  0  0
   15.9354   34.3282   -7.9230 H   0  0  0  0  0  0
   11.2941   32.9179   -5.1580 H   0  0  0  0  0  0
   12.2586   32.4811   -9.5650 H   0  0  0  0  0  0
   13.0674   31.0779   -9.0259 H   0  0  0  0  0  0
    9.5417   36.0662   -8.5306 H   0  0  0  0  0  0
   14.0422   33.0207   -7.2321 H   0  0  0  0  0  0
   13.5464   34.0305   -8.5548 H   0  0  0  0  0  0
   10.8191   31.3041   -8.0235 H   0  0  0  0  0  0
   12.0154   31.4383   -6.7674 H   0  0  0  0  0  0
    9.3744   36.6349   -6.1358 H   0  0  0  0  0  0
   10.5546   33.9453   -9.2431 H   0  0  0  0  0  0
   15.0930   30.6537   -8.6108 H   0  0  0  0  0  0
   16.6388   31.2765   -9.1099 H   0  0  0  0  0  0
   16.0408   31.6151   -7.4808 H   0  0  0  0  0  0
   10.4739   36.2135   -3.8397 H   0  0  0  0  0  0
    9.2284   34.9833   -3.6174 H   0  0  0  0  0  0
   10.9460   34.5802   -3.4083 H   0  0  0  0  0  0
  1  2  1  0  0  0
  1  3  1  0  0  0
  1  4  1  0  0  0
  1  7  1  0  0  0
  2  5  2  0  0  0
  2  8  1  0  0  0
  2 10  1  0  0  0
  3  6  2  0  0  0
  3  9  1  0  0  0
  3 11  1  0  0  0
  4 12  1  0  0  0
  4 25  1  0  0  0
  4 26  1  0  0  0
  7 27  1  0  0  0
  8 28  1  0  0  0
  9 29  1  0  0  0
 10 30  1  0  0  0
 11 31  1  0  0  0
 12 13  1  0  0  0
 12 32  1  0  0  0
 12 33  1  0  0  0
 13 19  1  0  0  0
 13 23  1  0  0  0
 14 15  1  0  0  0
 14 16  2  0  0  0
 14 34  1  0  0  0
 15 20  1  0  0  0
 15 22  2  0  0  0
 16 24  1  0  0  0
 16 21  1  0  0  0
 17 19  1  0  0  0
 17 20  1  0  0  0
 17 35  1  0  0  0
 17 36  1  0  0  0
 18 22  1  0  0  0
 18 21  2  0  0  0
 18 37  1  0  0  0
 19 38  1  0  0  0
 19 39  1  0  0  0
 20 40  1  0  0  0
 20 41  1  0  0  0
 21 42  1  0  0  0
 22 43  1  0  0  0
 23 44  1  0  0  0
 23 45  1  0  0  0
 23 46  1  0  0  0
 24 47  1  0  0  0
 24 48  1  0  0  0
 24 49  1  0  0  0
M  END
> <s_m_entry_id>
3151

> <s_m_entry_name>
dock_pv.166

> <s_m_Source_Path>
/home/csk/Desktop/cluster/DUD-E-result/fpps

> <s_m_Source_File>
dock_pv.maegz

> <i_m_Source_File_Index>
166

> <chembl_id>
CHEMBL100441

> <chembl_pref_name>
None

> <i_lp_mmshare_version>
53161

> <r_lp_tautomer_probability>
1

> <s_lp_Force_Field>
OPLS_2005

> <r_lp_Energy>
-1.607572

> <b_lp_Chiralities_Consistent>
1

> <s_lp_Variant>
CHEMBL1782_lig25-1

> <s_i_glide_gridfile>
glide-grid_1zw5

> <i_i_glide_lignum>
29

> <i_i_glide_rotatable_bonds>
14

> <r_i_docking_score>
-7.48568850397444

> <r_i_glide_ligand_efficiency>
-0.311903687665602

> <r_i_glide_ligand_efficiency_sa>
-0.899685918072936

> <r_i_glide_ligand_efficiency_ln>
-1.79166875486404

> <r_i_glide_gscore>
-7.48568850397444

> <r_i_glide_lipo>
-0.288473635326599

> <r_i_glide_hbond>
0

> <r_i_glide_metal>
-2.3

> <r_i_glide_rewards>
-0.809329636363635

> <r_i_glide_evdw>
-21.788013458252

> <r_i_glide_ecoul>
-60.8252220153809

> <r_i_glide_erotb>
1.2015154406284

> <r_i_glide_esite>
-0.2

> <r_i_glide_emodel>
-134.948513638319

> <r_i_glide_energy>
-82.6132354736328

> <r_i_glide_einternal>
27.4972515106201

> <i_i_glide_confnum>
77

> <i_i_glide_posenum>
3

> <r_i_glide_eff_state_penalty>
0

> <s_user_duplicate_titles>
CHEMBL1782_lig25

> <i_f3d_flags>
0

> <s_m_subgroup_title>
dock_pv

> <s_m_subgroupid>
dock_pv

> <b_m_subgroup_collapsed>
1

$$$$
CHEMBL1782_lig126
                    3D
 Schrodinger Suite 2021-1.
 29 28  0  0  1  0            999 V2000
   16.9874   35.7783  -10.4577 C   0  0  0  0  0  0
   18.4503   34.7995  -11.1649 P   0  0  0  0  0  0
   17.4259   36.9220   -9.0059 P   0  0  0  0  0  0
   18.5011   33.3522  -10.7650 O   0  0  0  0  0  0
   17.7007   36.1803   -7.7094 O   0  0  0  0  0  0
   16.5010   36.5881  -11.5650 N   0  0  0  0  0  0
   18.3978   35.0521  -12.8566 O   0  0  0  0  0  0
   18.8088   37.7221   -9.5649 O   0  0  0  0  0  0
   16.2236   38.1413   -8.9833 O   0  0  0  0  0  0
   19.7808   35.6383  -10.5203 O   0  0  0  0  0  0
   15.7818   34.8632  -10.0575 C   0  0  0  0  0  0
   16.0329   33.6663   -9.1083 C   0  0  0  0  0  0
   14.7565   33.1879   -8.3928 C   0  0  0  0  0  0
   15.0063   31.9951   -7.4582 C   0  0  0  0  0  0
   17.2638   37.2385  -11.8231 H   0  0  0  0  0  0
   16.4364   35.9763  -12.3782 H   0  0  0  0  0  0
   18.1759   35.9118  -13.2671 H   0  0  0  0  0  0
   18.9011   37.9808  -10.5310 H   0  0  0  0  0  0
   16.4833   39.0777   -9.1647 H   0  0  0  0  0  0
   19.7389   36.5677  -10.1936 H   0  0  0  0  0  0
   15.3011   34.4587  -10.9492 H   0  0  0  0  0  0
   15.0343   35.4855   -9.5652 H   0  0  0  0  0  0
   16.7868   33.9100   -8.3649 H   0  0  0  0  0  0
   16.4148   32.8179   -9.6741 H   0  0  0  0  0  0
   14.0043   32.9085   -9.1329 H   0  0  0  0  0  0
   14.3237   34.0060   -7.8156 H   0  0  0  0  0  0
   14.0775   31.6625   -6.9926 H   0  0  0  0  0  0
   15.7006   32.2525   -6.6576 H   0  0  0  0  0  0
   15.4226   31.1444   -7.9996 H   0  0  0  0  0  0
  1  2  1  0  0  0
  1  3  1  0  0  0
  1  6  1  0  0  0
  1 11  1  0  0  0
  2  4  2  0  0  0
  2  7  1  0  0  0
  2 10  1  0  0  0
  3  5  2  0  0  0
  3  8  1  0  0  0
  3  9  1  0  0  0
  6 15  1  0  0  0
  6 16  1  0  0  0
  7 17  1  0  0  0
  8 18  1  0  0  0
  9 19  1  0  0  0
 10 20  1  0  0  0
 11 12  1  0  0  0
 11 21  1  0  0  0
 11 22  1  0  0  0
 12 13  1  0  0  0
 12 23  1  0  0  0
 12 24  1  0  0  0
 13 14  1  0  0  0
 13 25  1  0  0  0
 13 26  1  0  0  0
 14 27  1  0  0  0
 14 28  1  0  0  0
 14 29  1  0  0  0
M  END
> <s_m_entry_id>
3152

> <s_m_entry_name>
dock_pv.167

> <s_m_Source_Path>
/home/csk/Desktop/cluster/DUD-E-result/fpps

> <s_m_Source_File>
dock_pv.maegz

> <i_m_Source_File_Index>
167

> <chembl_id>
CHEMBL194624

> <chembl_pref_name>
None

> <i_lp_mmshare_version>
53161

> <r_lp_tautomer_probability>
1

> <s_lp_Force_Field>
OPLS_2005

> <r_lp_Energy>
-6.45979

> <b_lp_Chiralities_Consistent>
1

> <s_lp_Variant>
CHEMBL1782_lig126-1

> <s_i_glide_gridfile>
glide-grid_1zw5

> <i_i_glide_lignum>
138

> <i_i_glide_rotatable_bonds>
9

> <r_i_docking_score>
-7.47509341063518

> <r_i_glide_ligand_efficiency>
-0.533935243616798

> <r_i_glide_ligand_efficiency_sa>
-1.28685989584151

> <r_i_glide_ligand_efficiency_ln>
-2.05412905968851

> <r_i_glide_gscore>
-7.47509341063518

> <r_i_glide_lipo>
0

> <r_i_glide_hbond>
-0.200130569350567

> <r_i_glide_metal>
-2.3

> <r_i_glide_rewards>
-1.72415986363636

> <r_i_glide_evdw>
-3.86462044715881

> <r_i_glide_ecoul>
-58.2211456298828

> <r_i_glide_erotb>
1.14242804470969

> <r_i_glide_esite>
-0.2

> <r_i_glide_emodel>
-110.037699778963

> <r_i_glide_energy>
-62.0857660770416

> <r_i_glide_einternal>
17.374963760376

> <i_i_glide_confnum>
65

> <i_i_glide_posenum>
51

> <r_i_glide_eff_state_penalty>
0

> <s_user_duplicate_titles>
CHEMBL1782_lig126

> <i_f3d_flags>
0

> <s_m_subgroup_title>
dock_pv

> <s_m_subgroupid>
dock_pv

> <b_m_subgroup_collapsed>
1

$$$$
CHEMBL1782_lig47
                    3D
 Schrodinger Suite 2021-1.
 47 47  0  0  1  0            999 V2000
   16.7084   35.7140   -9.1083 C   0  0  0  0  0  0
   18.0160   35.2120  -10.3650 P   0  0  0  0  0  0
   16.2678   37.4929   -9.3311 P   0  0  0  0  0  0
   15.4868   34.7412   -9.0688 C   0  0  0  0  0  0
   18.5010   33.7800  -10.2733 O   0  0  0  0  0  0
   16.1010   37.9344  -10.7650 O   0  0  0  0  0  0
   17.3010   35.7800   -7.8226 O   0  0  0  0  0  0
   17.3013   35.6467  -11.8517 O   0  0  0  0  0  0
   14.9000   37.6533   -8.3742 O   0  0  0  0  0  0
   19.2371   36.3145   -9.9650 O   0  0  0  0  0  0
   17.4968   38.2695   -8.4548 O   0  0  0  0  0  0
   15.8298   33.2323   -9.1902 C   0  0  0  0  0  0
   14.7248   32.3249   -8.8840 N   0  0  2  0  0  0
    9.3521   36.4321   -6.3825 C   0  0  0  0  0  0
   11.1346   34.2993   -6.4299 C   0  0  0  0  0  0
    8.5010   37.4772   -6.3649 F   0  0  0  0  0  0
    9.9676   36.0248   -5.2027 C   0  0  0  0  0  0
    9.6135   35.7797   -7.5822 C   0  0  0  0  0  0
   10.5004   34.7080   -7.6102 C   0  0  0  0  0  0
   10.8631   34.9603   -5.2314 C   0  0  0  0  0  0
   13.2851   31.3815   -7.0549 C   0  0  0  0  0  0
   12.0630   33.2888   -6.3650 O   0  0  0  0  0  0
   14.6034   32.0949   -7.4362 C   0  0  0  0  0  0
   12.0417   32.2386   -7.3254 C   0  0  0  0  0  0
   14.9437   31.0422   -9.5650 C   0  0  0  0  0  0
   14.8069   34.9409   -8.2393 H   0  0  0  0  0  0
   14.9012   34.9723   -9.9586 H   0  0  0  0  0  0
   17.3853   36.7380   -7.6415 H   0  0  0  0  0  0
   17.6766   36.4029  -12.3645 H   0  0  0  0  0  0
   14.0325   37.2977   -8.6821 H   0  0  0  0  0  0
   19.4211   37.0660  -10.5869 H   0  0  0  0  0  0
   17.7164   39.1970   -8.7171 H   0  0  0  0  0  0
   16.1076   33.0694  -10.2331 H   0  0  0  0  0  0
   16.7150   32.9765   -8.6065 H   0  0  0  0  0  0
    9.7556   36.5361   -4.2754 H   0  0  0  0  0  0
    9.1326   36.1040   -8.4922 H   0  0  0  0  0  0
   10.7005   34.2314   -8.5577 H   0  0  0  0  0  0
   11.3459   34.6352   -4.3214 H   0  0  0  0  0  0
   13.1894   30.4214   -7.5602 H   0  0  0  0  0  0
   13.3103   31.1264   -5.9948 H   0  0  0  0  0  0
   15.4623   31.5412   -7.0507 H   0  0  0  0  0  0
   14.6182   33.0613   -6.9306 H   0  0  0  0  0  0
   12.0613   32.5975   -8.3546 H   0  0  0  0  0  0
   11.1342   31.6465   -7.1974 H   0  0  0  0  0  0
   14.0803   30.3825   -9.4815 H   0  0  0  0  0  0
   15.0985   31.1857  -10.6326 H   0  0  0  0  0  0
   15.8147   30.5135   -9.1724 H   0  0  0  0  0  0
  1  2  1  0  0  0
  1  3  1  0  0  0
  1  4  1  0  0  0
  1  7  1  0  0  0
  2  5  2  0  0  0
  2  8  1  0  0  0
  2 10  1  0  0  0
  3  6  2  0  0  0
  3  9  1  0  0  0
  3 11  1  0  0  0
  4 12  1  0  0  0
  4 26  1  0  0  0
  4 27  1  0  0  0
  7 28  1  0  0  0
  8 29  1  0  0  0
  9 30  1  0  0  0
 10 31  1  0  0  0
 11 32  1  0  0  0
 12 13  1  0  0  0
 12 33  1  0  0  0
 12 34  1  0  0  0
 13 23  1  0  0  0
 13 25  1  0  0  0
 14 17  2  0  0  0
 14 16  1  0  0  0
 14 18  1  0  0  0
 15 22  1  0  0  0
 15 19  1  0  0  0
 15 20  2  0  0  0
 17 20  1  0  0  0
 17 35  1  0  0  0
 18 19  2  0  0  0
 18 36  1  0  0  0
 19 37  1  0  0  0
 20 38  1  0  0  0
 21 23  1  0  0  0
 21 24  1  0  0  0
 21 39  1  0  0  0
 21 40  1  0  0  0
 22 24  1  0  0  0
 23 41  1  0  0  0
 23 42  1  0  0  0
 24 43  1  0  0  0
 24 44  1  0  0  0
 25 45  1  0  0  0
 25 46  1  0  0  0
 25 47  1  0  0  0
M  END
> <s_m_entry_id>
3153

> <s_m_entry_name>
dock_pv.168

> <s_m_Source_Path>
/home/csk/Desktop/cluster/DUD-E-result/fpps

> <s_m_Source_File>
dock_pv.maegz

> <i_m_Source_File_Index>
168

> <chembl_id>
CHEMBL101472

> <chembl_pref_name>
None

> <i_lp_mmshare_version>
53161

> <r_lp_tautomer_probability>
1

> <s_lp_Force_Field>
OPLS_2005

> <r_lp_Energy>
7.607728

> <b_lp_Chiralities_Consistent>
1

> <s_lp_Variant>
CHEMBL1782_lig47-1

> <s_i_glide_gridfile>
glide-grid_1zw5

> <i_i_glide_lignum>
52

> <i_i_glide_rotatable_bonds>
15

> <r_i_docking_score>
-7.46069928810568

> <r_i_glide_ligand_efficiency>
-0.298427971524227

> <r_i_glide_ligand_efficiency_sa>
-0.872608681379451

> <r_i_glide_ligand_efficiency_ln>
-1.76840931039698

> <r_i_glide_gscore>
-7.46069928810568

> <r_i_glide_lipo>
-0.08666242601332

> <r_i_glide_hbond>
0

> <r_i_glide_metal>
-2.3

> <r_i_glide_rewards>
-0.598407466819737

> <r_i_glide_evdw>
-19.4681072235107

> <r_i_glide_ecoul>
-57.5500106811523

> <r_i_glide_erotb>
0.767387271592431

> <r_i_glide_esite>
-0.269611305689514

> <r_i_glide_emodel>
-119.681684229175

> <r_i_glide_energy>
-77.0181179046631

> <r_i_glide_einternal>
28.4909706115723

> <i_i_glide_confnum>
204

> <i_i_glide_posenum>
175

> <r_i_glide_eff_state_penalty>
0

> <s_user_duplicate_titles>
CHEMBL1782_lig47

> <i_f3d_flags>
0

> <s_m_subgroup_title>
dock_pv

> <s_m_subgroupid>
dock_pv

> <b_m_subgroup_collapsed>
1

$$$$
CHEMBL1782_lig24
                    3D
 Schrodinger Suite 2021-1.
 47 47  0  0  1  0            999 V2000
   16.6098   35.9918   -8.8112 C   0  0  0  0  0  0
   17.8823   35.2709   -9.9650 P   0  0  0  0  0  0
   16.2139   37.7517   -9.2519 P   0  0  0  0  0  0
   15.3377   35.0919   -8.7650 C   0  0  0  0  0  0
   18.1010   33.7800   -9.7904 O   0  0  0  0  0  0
   16.1010   38.0413  -10.7411 O   0  0  0  0  0  0
   17.2526   36.0967   -7.5334 O   0  0  0  0  0  0
   17.3918   35.7799  -11.5132 O   0  0  0  0  0  0
   14.7803   38.0314   -8.4373 O   0  0  0  0  0  0
   19.2401   36.1788   -9.4571 O   0  0  0  0  0  0
   17.4177   38.5800   -8.3650 O   0  0  0  0  0  0
   15.4564   33.7253   -8.0422 C   0  0  0  0  0  0
   14.6270   32.6951   -8.6785 N   0  0  2  0  0  0
   10.1010   36.0027   -5.2874 C   0  0  0  0  0  0
   10.9505   33.9828   -7.0128 C   0  0  0  0  0  0
    9.7010   37.2920   -4.2164 Cl  0  0  0  0  0  0
   10.5383   34.7915   -4.7635 C   0  0  0  0  0  0
   10.0275   36.1898   -6.6658 C   0  0  0  0  0  0
   10.9496   33.7800   -5.6237 C   0  0  0  0  0  0
   10.4602   35.1821   -7.5223 C   0  0  0  0  0  0
   13.2386   31.7621   -6.8247 C   0  0  0  0  0  0
   11.4167   33.0696   -7.9383 O   0  0  0  0  0  0
   14.4183   31.5459   -7.7907 C   0  0  0  0  0  0
   11.8452   31.7800   -7.5063 C   0  0  0  0  0  0
   15.2366   32.2181   -9.9196 C   0  0  0  0  0  0
   14.5599   35.6243   -8.2185 H   0  0  0  0  0  0
   14.9029   34.9800   -9.7585 H   0  0  0  0  0  0
   17.4193   37.0482   -7.3969 H   0  0  0  0  0  0
   17.8736   36.5210  -11.9650 H   0  0  0  0  0  0
   13.9288   37.6541   -8.7650 H   0  0  0  0  0  0
   19.6612   36.8454  -10.0485 H   0  0  0  0  0  0
   17.7010   39.4625   -8.7191 H   0  0  0  0  0  0
   16.4883   33.3859   -7.9650 H   0  0  0  0  0  0
   15.1244   33.8635   -7.0122 H   0  0  0  0  0  0
   10.5854   34.6430   -3.6944 H   0  0  0  0  0  0
    9.6844   37.1283   -7.0756 H   0  0  0  0  0  0
   11.3010   32.8561   -5.1946 H   0  0  0  0  0  0
   10.4482   35.3415   -8.5913 H   0  0  0  0  0  0
   13.2529   30.9345   -6.1154 H   0  0  0  0  0  0
   13.3974   32.6569   -6.2266 H   0  0  0  0  0  0
   14.1775   30.6596   -8.3831 H   0  0  0  0  0  0
   15.3309   31.2915   -7.2468 H   0  0  0  0  0  0
   11.8418   31.1137   -8.3702 H   0  0  0  0  0  0
   11.0805   31.3800   -6.8430 H   0  0  0  0  0  0
   14.5870   31.4750  -10.3832 H   0  0  0  0  0  0
   15.3740   33.0207  -10.6435 H   0  0  0  0  0  0
   16.2043   31.7470   -9.7396 H   0  0  0  0  0  0
  1  2  1  0  0  0
  1  3  1  0  0  0
  1  4  1  0  0  0
  1  7  1  0  0  0
  2  5  2  0  0  0
  2  8  1  0  0  0
  2 10  1  0  0  0
  3  6  2  0  0  0
  3  9  1  0  0  0
  3 11  1  0  0  0
  4 12  1  0  0  0
  4 26  1  0  0  0
  4 27  1  0  0  0
  7 28  1  0  0  0
  8 29  1  0  0  0
  9 30  1  0  0  0
 10 31  1  0  0  0
 11 32  1  0  0  0
 12 13  1  0  0  0
 12 33  1  0  0  0
 12 34  1  0  0  0
 13 23  1  0  0  0
 13 25  1  0  0  0
 14 18  2  0  0  0
 14 16  1  0  0  0
 14 17  1  0  0  0
 15 22  1  0  0  0
 15 19  1  0  0  0
 15 20  2  0  0  0
 17 19  2  0  0  0
 17 35  1  0  0  0
 18 20  1  0  0  0
 18 36  1  0  0  0
 19 37  1  0  0  0
 20 38  1  0  0  0
 21 23  1  0  0  0
 21 24  1  0  0  0
 21 39  1  0  0  0
 21 40  1  0  0  0
 22 24  1  0  0  0
 23 41  1  0  0  0
 23 42  1  0  0  0
 24 43  1  0  0  0
 24 44  1  0  0  0
 25 45  1  0  0  0
 25 46  1  0  0  0
 25 47  1  0  0  0
M  END
> <s_m_entry_id>
3154

> <s_m_entry_name>
dock_pv.169

> <s_m_Source_Path>
/home/csk/Desktop/cluster/DUD-E-result/fpps

> <s_m_Source_File>
dock_pv.maegz

> <i_m_Source_File_Index>
169

> <chembl_id>
CHEMBL101407

> <chembl_pref_name>
None

> <i_lp_mmshare_version>
53161

> <r_lp_tautomer_probability>
1

> <s_lp_Force_Field>
OPLS_2005

> <r_lp_Energy>
7.7069

> <b_lp_Chiralities_Consistent>
1

> <s_lp_Variant>
CHEMBL1782_lig24-1

> <s_i_glide_gridfile>
glide-grid_1zw5

> <i_i_glide_lignum>
28

> <i_i_glide_rotatable_bonds>
15

> <r_i_docking_score>
-7.44404751958609

> <r_i_glide_ligand_efficiency>
-0.297761900783444

> <r_i_glide_ligand_efficiency_sa>
-0.870661078720586

> <r_i_glide_ligand_efficiency_ln>
-1.76446234224461

> <r_i_glide_gscore>
-7.44404751958609

> <r_i_glide_lipo>
-0.0853642873125176

> <r_i_glide_hbond>
0

> <r_i_glide_metal>
-2.3

> <r_i_glide_rewards>
-0.560931467425876

> <r_i_glide_evdw>
-20.2296409606934

> <r_i_glide_ecoul>
-57.140251159668

> <r_i_glide_erotb>
0.71373028318697

> <r_i_glide_esite>
-0.2

> <r_i_glide_emodel>
-121.762694683474

> <r_i_glide_energy>
-77.3698921203613

> <r_i_glide_einternal>
29.9741439819336

> <i_i_glide_confnum>
77

> <i_i_glide_posenum>
203

> <r_i_glide_eff_state_penalty>
0

> <s_user_duplicate_titles>
CHEMBL1782_lig24

> <i_f3d_flags>
0

> <s_m_subgroup_title>
dock_pv

> <s_m_subgroupid>
dock_pv

> <b_m_subgroup_collapsed>
1

$$$$
CHEMBL1782_lig88
                    3D
 Schrodinger Suite 2021-1.
 32 31  0  0  1  0            999 V2000
   16.2265   35.4478   -9.5089 C   0  0  0  0  0  0
   17.8082   34.8783  -10.3081 P   0  0  0  0  0  0
   16.2659   37.2901   -9.1650 P   0  0  0  0  0  0
   16.0556   34.8057   -8.1938 N   0  0  2  0  0  0
   18.1010   33.3800  -10.3650 O   0  0  0  0  0  0
   17.4449   37.7615   -8.3517 O   0  0  0  0  0  0
   17.7010   35.6890  -11.8059 O   0  0  0  0  0  0
   16.1010   37.9670  -10.7650 O   0  0  0  0  0  0
   14.7944   37.4839   -8.3650 O   0  0  0  0  0  0
   18.9010   35.7036   -9.2652 O   0  0  0  0  0  0
   15.6925   33.3859   -8.2082 C   0  0  0  0  0  0
   14.3463   33.0286   -8.8947 C   0  0  1  0  0  0
   14.0071   31.5256   -8.7335 C   0  0  0  0  0  0
   13.1658   33.8864   -8.3888 C   0  0  0  0  0  0
   15.0427   30.5574   -9.3313 C   0  0  0  0  0  0
   15.3673   35.2133  -10.1365 H   0  0  0  0  0  0
   15.3010   35.2868   -7.7170 H   0  0  0  0  0  0
   18.2233   36.5109  -12.0243 H   0  0  0  0  0  0
   16.9242   38.2651  -11.2384 H   0  0  0  0  0  0
   13.9525   37.1571   -8.7650 H   0  0  0  0  0  0
   19.3682   36.5193   -9.5650 H   0  0  0  0  0  0
   15.5979   33.1091   -7.1567 H   0  0  0  0  0  0
   16.5012   32.7502   -8.5598 H   0  0  0  0  0  0
   14.4477   33.2130   -9.9652 H   0  0  0  0  0  0
   13.0445   31.3233   -9.2065 H   0  0  0  0  0  0
   13.8668   31.2851   -7.6781 H   0  0  0  0  0  0
   12.9974   33.7446   -7.3207 H   0  0  0  0  0  0
   13.3277   34.9491   -8.5656 H   0  0  0  0  0  0
   12.2418   33.6226   -8.9060 H   0  0  0  0  0  0
   14.6647   29.5338   -9.3208 H   0  0  0  0  0  0
   15.9770   30.5585   -8.7696 H   0  0  0  0  0  0
   15.2706   30.8108  -10.3650 H   0  0  0  0  0  0
  1  2  1  0  0  0
  1  3  1  0  0  0
  1  4  1  0  0  0
  1 16  1  0  0  0
  2  5  2  0  0  0
  2  7  1  0  0  0
  2 10  1  0  0  0
  3  6  2  0  0  0
  3  8  1  0  0  0
  3  9  1  0  0  0
  4 11  1  0  0  0
  4 17  1  0  0  0
  7 18  1  0  0  0
  8 19  1  0  0  0
  9 20  1  0  0  0
 10 21  1  0  0  0
 11 12  1  0  0  0
 11 22  1  0  0  0
 11 23  1  0  0  0
 12 13  1  0  0  0
 12 14  1  0  0  0
 12 24  1  0  0  0
 13 15  1  0  0  0
 13 25  1  0  0  0
 13 26  1  0  0  0
 14 27  1  0  0  0
 14 28  1  0  0  0
 14 29  1  0  0  0
 15 30  1  0  0  0
 15 31  1  0  0  0
 15 32  1  0  0  0
M  END
> <s_m_entry_id>
3155

> <s_m_entry_name>
dock_pv.170

> <s_m_Source_Path>
/home/csk/Desktop/cluster/DUD-E-result/fpps

> <s_m_Source_File>
dock_pv.maegz

> <i_m_Source_File_Index>
170

> <chembl_id>
CHEMBL56011

> <chembl_pref_name>
None

> <i_lp_mmshare_version>
53161

> <r_lp_tautomer_probability>
1

> <s_lp_Force_Field>
OPLS_2005

> <r_lp_Energy>
1.727831

> <b_lp_Chiralities_Consistent>
1

> <s_lp_Variant>
CHEMBL1782_lig88-2

> <s_i_glide_gridfile>
glide-grid_1zw5

> <i_i_glide_lignum>
97

> <i_i_glide_rotatable_bonds>
10

> <r_i_docking_score>
-7.44177446027709

> <r_i_glide_ligand_efficiency>
-0.496118297351806

> <r_i_glide_ligand_efficiency_sa>
-1.22353293412083

> <r_i_glide_ligand_efficiency_ln>
-2.00692387014206

> <r_i_glide_gscore>
-7.44177446027709

> <r_i_glide_lipo>
0

> <r_i_glide_hbond>
0

> <r_i_glide_metal>
-2.3

> <r_i_glide_rewards>
-1.62852409090909

> <r_i_glide_evdw>
-12.2420082092285

> <r_i_glide_ecoul>
-49.8860397338867

> <r_i_glide_erotb>
1.29885004109343

> <r_i_glide_esite>
-0.2

> <r_i_glide_emodel>
-103.822288175519

> <r_i_glide_energy>
-62.1280479431152

> <r_i_glide_einternal>
19.7626075744629

> <i_i_glide_confnum>
296

> <i_i_glide_posenum>
198

> <r_i_glide_eff_state_penalty>
0

> <s_user_duplicate_titles>
CHEMBL1782_lig88

> <i_f3d_flags>
0

> <s_m_subgroup_title>
dock_pv

> <s_m_subgroupid>
dock_pv

> <b_m_subgroup_collapsed>
1

$$$$
CHEMBL1782_lig31
                    3D
 Schrodinger Suite 2021-1.
 44 44  0  0  1  0            999 V2000
   16.5075   35.6276  -10.1803 C   0  0  0  0  0  0
   16.4788   36.5399   -8.5237 P   0  0  0  0  0  0
   18.1907   35.0337  -10.7434 P   0  0  0  0  0  0
   15.5313   34.4074  -10.1962 C   0  0  0  0  0  0
   17.6072   36.1800   -7.5650 O   0  0  0  0  0  0
   18.5010   33.6049  -10.3650 O   0  0  0  0  0  0
   16.1010   36.5800  -11.1650 O   0  0  0  0  0  0
   16.4126   38.1800   -8.9529 O   0  0  0  0  0  0
   18.1864   35.3800  -12.4137 O   0  0  0  0  0  0
   14.9012   36.2224   -7.9362 O   0  0  0  0  0  0
   19.1969   36.1716   -9.9650 O   0  0  0  0  0  0
   15.6930   33.3470   -9.0693 C   0  0  0  0  0  0
   14.5415   32.4478   -8.9512 N   0  0  2  0  0  0
   10.5494   33.1816   -8.4624 S   0  0  0  0  0  0
   10.4155   34.2346   -7.0476 C   0  0  0  0  0  0
   12.0976   32.2333   -8.3297 C   0  0  0  0  0  0
   13.3741   33.1048   -8.3386 C   0  0  0  0  0  0
   14.9271   31.2610   -8.1794 C   0  0  0  0  0  0
   10.9909   33.8732   -5.8286 C   0  0  0  0  0  0
    9.7022   35.4276   -7.1650 C   0  0  0  0  0  0
   10.8591   34.7138   -4.7270 C   0  0  0  0  0  0
    9.5744   36.2709   -6.0645 C   0  0  0  0  0  0
   10.1525   35.9092   -4.8486 C   0  0  0  0  0  0
   14.5010   34.7072  -10.2765 H   0  0  0  0  0  0
   15.7007   33.8836  -11.1388 H   0  0  0  0  0  0
   16.9066   36.8612  -11.6357 H   0  0  0  0  0  0
   17.1010   38.7278   -9.4032 H   0  0  0  0  0  0
   18.5731   36.2274  -12.7453 H   0  0  0  0  0  0
   14.1625   36.0096   -8.5457 H   0  0  0  0  0  0
   19.5691   36.9303  -10.4762 H   0  0  0  0  0  0
   16.5488   32.7241   -9.3197 H   0  0  0  0  0  0
   15.9366   33.7957   -8.1053 H   0  0  0  0  0  0
   12.1115   31.5357   -9.1650 H   0  0  0  0  0  0
   12.0635   31.6108   -7.4359 H   0  0  0  0  0  0
   13.6071   33.4338   -7.3244 H   0  0  0  0  0  0
   13.1342   34.0077   -8.8966 H   0  0  0  0  0  0
   14.1182   30.5304   -8.1382 H   0  0  0  0  0  0
   15.7752   30.7513   -8.6398 H   0  0  0  0  0  0
   15.2044   31.5162   -7.1549 H   0  0  0  0  0  0
   11.5302   32.9443   -5.7240 H   0  0  0  0  0  0
    9.2578   35.7031   -8.1110 H   0  0  0  0  0  0
   11.3010   34.4351   -3.7811 H   0  0  0  0  0  0
    9.0345   37.2013   -6.1583 H   0  0  0  0  0  0
   10.0528   36.5608   -3.9926 H   0  0  0  0  0  0
  1  2  1  0  0  0
  1  3  1  0  0  0
  1  4  1  0  0  0
  1  7  1  0  0  0
  2  5  2  0  0  0
  2  8  1  0  0  0
  2 10  1  0  0  0
  3  6  2  0  0  0
  3  9  1  0  0  0
  3 11  1  0  0  0
  4 12  1  0  0  0
  4 24  1  0  0  0
  4 25  1  0  0  0
  7 26  1  0  0  0
  8 27  1  0  0  0
  9 28  1  0  0  0
 10 29  1  0  0  0
 11 30  1  0  0  0
 12 13  1  0  0  0
 12 31  1  0  0  0
 12 32  1  0  0  0
 13 17  1  0  0  0
 13 18  1  0  0  0
 14 16  1  0  0  0
 14 15  1  0  0  0
 15 19  2  0  0  0
 15 20  1  0  0  0
 16 17  1  0  0  0
 16 33  1  0  0  0
 16 34  1  0  0  0
 17 35  1  0  0  0
 17 36  1  0  0  0
 18 37  1  0  0  0
 18 38  1  0  0  0
 18 39  1  0  0  0
 19 21  1  0  0  0
 19 40  1  0  0  0
 20 22  2  0  0  0
 20 41  1  0  0  0
 21 23  2  0  0  0
 21 42  1  0  0  0
 22 23  1  0  0  0
 22 43  1  0  0  0
 23 44  1  0  0  0
M  END
> <s_m_entry_id>
3156

> <s_m_entry_name>
dock_pv.171

> <s_m_Source_Path>
/home/csk/Desktop/cluster/DUD-E-result/fpps

> <s_m_Source_File>
dock_pv.maegz

> <i_m_Source_File_Index>
171

> <chembl_id>
CHEMBL100508

> <chembl_pref_name>
None

> <i_lp_mmshare_version>
53161

> <r_lp_tautomer_probability>
1

> <s_lp_Force_Field>
OPLS_2005

> <r_lp_Energy>
3.420948

> <b_lp_Chiralities_Consistent>
1

> <s_lp_Variant>
CHEMBL1782_lig31-1

> <s_i_glide_gridfile>
glide-grid_1zw5

> <i_i_glide_lignum>
35

> <i_i_glide_rotatable_bonds>
14

> <r_i_docking_score>
-7.428491905599

> <r_i_glide_ligand_efficiency>
-0.322977908939087

> <r_i_glide_ligand_efficiency_sa>
-0.918506209493384

> <r_i_glide_ligand_efficiency_ln>
-1.79627670061436

> <r_i_glide_gscore>
-7.428491905599

> <r_i_glide_lipo>
-0.233014006709532

> <r_i_glide_hbond>
0

> <r_i_glide_metal>
-2.3

> <r_i_glide_rewards>
-0.781969363636362

> <r_i_glide_evdw>
-19.2332077026367

> <r_i_glide_ecoul>
-61.8466110229492

> <r_i_glide_erotb>
1.04815184987873

> <r_i_glide_esite>
-0.2

> <r_i_glide_emodel>
-134.12020167659

> <r_i_glide_energy>
-81.0798187255859

> <r_i_glide_einternal>
26.0371208190918

> <i_i_glide_confnum>
31

> <i_i_glide_posenum>
355

> <r_i_glide_eff_state_penalty>
0

> <s_user_duplicate_titles>
CHEMBL1782_lig31

> <i_f3d_flags>
0

> <s_m_subgroup_title>
dock_pv

> <s_m_subgroupid>
dock_pv

> <b_m_subgroup_collapsed>
1

$$$$
CHEMBL1782_lig22
                    3D
 Schrodinger Suite 2021-1.
 50 50  0  0  1  0            999 V2000
   16.8713   36.4304   -9.6967 C   0  0  0  0  0  0
   18.1255   35.1965  -10.3798 P   0  0  0  0  0  0
   17.6216   37.4509   -8.3305 P   0  0  0  0  0  0
   18.1010   33.7800   -9.8364 O   0  0  0  0  0  0
   18.1010   36.5800   -7.1795 O   0  0  0  0  0  0
   16.5010   37.3249  -10.7650 O   0  0  0  0  0  0
   18.0391   35.3799  -12.0725 O   0  0  0  0  0  0
   18.9010   38.2112   -9.1650 O   0  0  0  0  0  0
   19.6054   35.9310   -9.9650 O   0  0  0  0  0  0
   16.4275   38.6074   -7.9648 O   0  0  0  0  0  0
   15.5641   35.7511   -9.1735 C   0  0  0  0  0  0
   14.1096   32.7065   -8.4938 N   0  0  1  0  0  0
   10.5432   34.8845   -6.0150 C   0  0  0  0  0  0
   12.3575   31.7800   -6.9255 C   0  0  0  0  0  0
   11.2284   33.6876   -5.9646 O   0  0  0  0  0  0
   15.6319   34.6637   -8.0627 C   0  0  0  0  0  0
   13.8173   32.2395   -7.1272 C   0  0  0  0  0  0
   15.4811   33.2109   -8.5805 C   0  0  0  0  0  0
   11.2991   32.8701   -7.1327 C   0  0  0  0  0  0
   13.9377   31.6232   -9.4658 C   0  0  0  0  0  0
   10.5011   35.6281   -4.8339 C   0  0  0  0  0  0
    9.9169   35.3875   -7.1649 C   0  0  0  0  0  0
    9.3011   36.6325   -7.1375 C   0  0  0  0  0  0
    9.8862   36.8779   -4.8051 C   0  0  0  0  0  0
    9.3010   37.3816   -5.9649 C   0  0  0  0  0  0
   17.3143   37.6351  -11.2119 H   0  0  0  0  0  0
   18.1458   36.2739  -12.4758 H   0  0  0  0  0  0
   18.8571   38.5296  -10.0986 H   0  0  0  0  0  0
   19.7080   36.8925   -9.7638 H   0  0  0  0  0  0
   16.5706   39.5467   -8.2121 H   0  0  0  0  0  0
   14.9016   36.5375   -8.8012 H   0  0  0  0  0  0
   15.0493   35.3010  -10.0196 H   0  0  0  0  0  0
   12.1394   30.9266   -7.5651 H   0  0  0  0  0  0
   12.2605   31.3800   -5.9171 H   0  0  0  0  0  0
   16.5010   34.7464   -7.4228 H   0  0  0  0  0  0
   14.7882   34.8819   -7.4059 H   0  0  0  0  0  0
   14.4970   31.4321   -6.8464 H   0  0  0  0  0  0
   14.0062   33.0549   -6.4282 H   0  0  0  0  0  0
   15.7777   33.1932   -9.6291 H   0  0  0  0  0  0
   16.1707   32.5388   -8.0663 H   0  0  0  0  0  0
   11.5492   33.4421   -8.0277 H   0  0  0  0  0  0
   10.3234   32.4120   -7.3002 H   0  0  0  0  0  0
   12.9009   31.2997   -9.5184 H   0  0  0  0  0  0
   14.1896   31.9614  -10.4699 H   0  0  0  0  0  0
   14.5579   30.7560   -9.2309 H   0  0  0  0  0  0
   10.9637   35.2350   -3.9408 H   0  0  0  0  0  0
    9.9113   34.8431   -8.0966 H   0  0  0  0  0  0
    8.8421   37.0142   -8.0341 H   0  0  0  0  0  0
    9.8763   37.4602   -3.8944 H   0  0  0  0  0  0
    8.8526   38.3656   -5.9572 H   0  0  0  0  0  0
  1  2  1  0  0  0
  1  3  1  0  0  0
  1  6  1  0  0  0
  1 11  1  0  0  0
  2  4  2  0  0  0
  2  7  1  0  0  0
  2  9  1  0  0  0
  3  5  2  0  0  0
  3  8  1  0  0  0
  3 10  1  0  0  0
  6 26  1  0  0  0
  7 27  1  0  0  0
  8 28  1  0  0  0
  9 29  1  0  0  0
 10 30  1  0  0  0
 11 16  1  0  0  0
 11 31  1  0  0  0
 11 32  1  0  0  0
 12 18  1  0  0  0
 12 17  1  0  0  0
 12 20  1  0  0  0
 13 15  1  0  0  0
 13 21  1  0  0  0
 13 22  2  0  0  0
 14 17  1  0  0  0
 14 19  1  0  0  0
 14 33  1  0  0  0
 14 34  1  0  0  0
 15 19  1  0  0  0
 16 18  1  0  0  0
 16 35  1  0  0  0
 16 36  1  0  0  0
 17 37  1  0  0  0
 17 38  1  0  0  0
 18 39  1  0  0  0
 18 40  1  0  0  0
 19 41  1  0  0  0
 19 42  1  0  0  0
 20 43  1  0  0  0
 20 44  1  0  0  0
 20 45  1  0  0  0
 21 24  2  0  0  0
 21 46  1  0  0  0
 22 23  1  0  0  0
 22 47  1  0  0  0
 23 25  2  0  0  0
 23 48  1  0  0  0
 24 25  1  0  0  0
 24 49  1  0  0  0
 25 50  1  0  0  0
M  END
> <s_m_entry_id>
3157

> <s_m_entry_name>
dock_pv.172

> <s_m_Source_Path>
/home/csk/Desktop/cluster/DUD-E-result/fpps

> <s_m_Source_File>
dock_pv.maegz

> <i_m_Source_File_Index>
172

> <chembl_id>
CHEMBL101716

> <chembl_pref_name>
None

> <i_lp_mmshare_version>
53161

> <r_lp_tautomer_probability>
1

> <s_lp_Force_Field>
OPLS_2005

> <r_lp_Energy>
10.787679

> <b_lp_Chiralities_Consistent>
1

> <s_lp_Variant>
CHEMBL1782_lig22-1

> <s_i_glide_gridfile>
glide-grid_1zw5

> <i_i_glide_lignum>
26

> <i_i_glide_rotatable_bonds>
16

> <r_i_docking_score>
-7.42197757061143

> <r_i_glide_ligand_efficiency>
-0.296879102824457

> <r_i_glide_ligand_efficiency_sa>
-0.868079761832021

> <r_i_glide_ligand_efficiency_ln>
-1.75923110295461

> <r_i_glide_gscore>
-7.42197757061143

> <r_i_glide_lipo>
-0.104737357649299

> <r_i_glide_hbond>
0

> <r_i_glide_metal>
-2.25029521813899

> <r_i_glide_rewards>
-0.700242384079956

> <r_i_glide_evdw>
-28.134729385376

> <r_i_glide_ecoul>
-57.2582321166992

> <r_i_glide_erotb>
1.24003385852562

> <r_i_glide_esite>
-0.2

> <r_i_glide_emodel>
-136.286186955144

> <r_i_glide_energy>
-85.3929615020752

> <r_i_glide_einternal>
29.6140785217285

> <i_i_glide_confnum>
165

> <i_i_glide_posenum>
376

> <r_i_glide_eff_state_penalty>
0

> <s_user_duplicate_titles>
CHEMBL1782_lig22

> <i_f3d_flags>
0

> <s_m_subgroup_title>
dock_pv

> <s_m_subgroupid>
dock_pv

> <b_m_subgroup_collapsed>
1

$$$$
CHEMBL1782_lig59
                    3D
 Schrodinger Suite 2021-1.
 46 46  0  0  1  0            999 V2000
   16.4704   35.6558  -10.1114 C   0  0  0  0  0  0
   16.3379   36.5374   -8.4155 P   0  0  0  0  0  0
   18.2406   35.1009  -10.3650 P   0  0  0  0  0  0
   15.5251   34.4158  -10.1680 C   0  0  0  0  0  0
   17.2863   35.9554   -7.3652 O   0  0  0  0  0  0
   19.1396   35.7800   -9.3579 O   0  0  0  0  0  0
   16.1764   36.5793  -11.1639 O   0  0  0  0  0  0
   16.5389   38.1989   -8.7574 O   0  0  0  0  0  0
   18.1009   33.3800  -10.1537 O   0  0  0  0  0  0
   14.6856   36.4211   -7.9895 O   0  0  0  0  0  0
   18.6519   35.3799  -12.0025 O   0  0  0  0  0  0
   15.4937   33.5360   -8.8879 C   0  0  0  0  0  0
   14.5590   32.4253   -9.0080 N   0  0  2  0  0  0
    9.9982   35.3168   -6.5291 C   0  0  0  0  0  0
   11.0685   33.0149   -7.6739 C   0  0  0  0  0  0
    9.3107   36.7364   -5.8322 Cl  0  0  0  0  0  0
   10.1002   35.2122   -7.9138 C   0  0  0  0  0  0
   10.4331   34.2797   -5.7084 C   0  0  0  0  0  0
   10.9600   33.1240   -6.2824 C   0  0  0  0  0  0
   10.6329   34.0637   -8.4876 C   0  0  0  0  0  0
   12.8725   31.1392   -7.6629 C   0  0  0  0  0  0
   14.1388   32.0047   -7.6662 C   0  0  0  0  0  0
   11.6207   31.7507   -8.3316 C   0  0  0  0  0  0
   15.1161   31.2961   -9.7537 C   0  0  0  0  0  0
   14.5105   34.7722  -10.2657 H   0  0  0  0  0  0
   15.6924   33.8291  -11.0716 H   0  0  0  0  0  0
   17.0257   36.9253  -11.4949 H   0  0  0  0  0  0
   17.3007   38.6603   -9.1813 H   0  0  0  0  0  0
   17.2310   32.9564  -10.3329 H   0  0  0  0  0  0
   13.9779   36.2949   -8.6617 H   0  0  0  0  0  0
   18.8602   36.3269  -12.2975 H   0  0  0  0  0  0
   16.4726   33.2059   -8.5442 H   0  0  0  0  0  0
   15.1502   34.1613   -8.0679 H   0  0  0  0  0  0
    9.7658   36.0185   -8.5478 H   0  0  0  0  0  0
   10.3556   34.3670   -4.6346 H   0  0  0  0  0  0
   11.2755   32.3179   -5.6361 H   0  0  0  0  0  0
   10.7060   33.9892   -9.5640 H   0  0  0  0  0  0
   13.0818   30.1443   -8.0613 H   0  0  0  0  0  0
   12.6546   30.9799   -6.6124 H   0  0  0  0  0  0
   14.9538   31.4756   -7.1677 H   0  0  0  0  0  0
   13.9203   32.8758   -7.0451 H   0  0  0  0  0  0
   11.8555   31.9549   -9.3771 H   0  0  0  0  0  0
   10.8216   31.0083   -8.3445 H   0  0  0  0  0  0
   14.3500   30.5396   -9.9338 H   0  0  0  0  0  0
   15.4950   31.6040  -10.7255 H   0  0  0  0  0  0
   15.9393   30.8225   -9.2151 H   0  0  0  0  0  0
  1  2  1  0  0  0
  1  3  1  0  0  0
  1  4  1  0  0  0
  1  7  1  0  0  0
  2  5  2  0  0  0
  2  8  1  0  0  0
  2 10  1  0  0  0
  3  6  2  0  0  0
  3  9  1  0  0  0
  3 11  1  0  0  0
  4 12  1  0  0  0
  4 25  1  0  0  0
  4 26  1  0  0  0
  7 27  1  0  0  0
  8 28  1  0  0  0
  9 29  1  0  0  0
 10 30  1  0  0  0
 11 31  1  0  0  0
 12 13  1  0  0  0
 12 32  1  0  0  0
 12 33  1  0  0  0
 13 22  1  0  0  0
 13 24  1  0  0  0
 14 17  2  0  0  0
 14 16  1  0  0  0
 14 18  1  0  0  0
 15 23  1  0  0  0
 15 19  1  0  0  0
 15 20  2  0  0  0
 17 20  1  0  0  0
 17 34  1  0  0  0
 18 19  2  0  0  0
 18 35  1  0  0  0
 19 36  1  0  0  0
 20 37  1  0  0  0
 21 22  1  0  0  0
 21 23  1  0  0  0
 21 38  1  0  0  0
 21 39  1  0  0  0
 22 40  1  0  0  0
 22 41  1  0  0  0
 23 42  1  0  0  0
 23 43  1  0  0  0
 24 44  1  0  0  0
 24 45  1  0  0  0
 24 46  1  0  0  0
M  END
> <s_m_entry_id>
3158

> <s_m_entry_name>
dock_pv.173

> <s_m_Source_Path>
/home/csk/Desktop/cluster/DUD-E-result/fpps

> <s_m_Source_File>
dock_pv.maegz

> <i_m_Source_File_Index>
173

> <chembl_id>
CHEMBL101230

> <chembl_pref_name>
None

> <i_lp_mmshare_version>
53161

> <r_lp_tautomer_probability>
1

> <s_lp_Force_Field>
OPLS_2005

> <r_lp_Energy>
-0.799521

> <b_lp_Chiralities_Consistent>
1

> <s_lp_Variant>
CHEMBL1782_lig59-1

> <s_i_glide_gridfile>
glide-grid_1zw5

> <i_i_glide_lignum>
64

> <i_i_glide_rotatable_bonds>
14

> <r_i_docking_score>
-7.4128796781521

> <r_i_glide_ligand_efficiency>
-0.308869986589671

> <r_i_glide_ligand_efficiency_sa>
-0.890935209935802

> <r_i_glide_ligand_efficiency_ln>
-1.77424226186544

> <r_i_glide_gscore>
-7.4128796781521

> <r_i_glide_lipo>
-0.2095492301216

> <r_i_glide_hbond>
0

> <r_i_glide_metal>
-2.3

> <r_i_glide_rewards>
-0.670114772727271

> <r_i_glide_evdw>
-20.1137943267822

> <r_i_glide_ecoul>
-56.5762634277344

> <r_i_glide_erotb>
0.972474041035886

> <r_i_glide_esite>
-0.2

> <r_i_glide_emodel>
-135.350359682556

> <r_i_glide_energy>
-76.6900577545166

> <r_i_glide_einternal>
13.3406982421875

> <i_i_glide_confnum>
129

> <i_i_glide_posenum>
169

> <r_i_glide_eff_state_penalty>
0

> <s_user_duplicate_titles>
CHEMBL1782_lig59

> <i_f3d_flags>
0

> <s_m_subgroup_title>
dock_pv

> <s_m_subgroupid>
dock_pv

> <b_m_subgroup_collapsed>
1

$$$$
CHEMBL1782_lig154
                    3D
 Schrodinger Suite 2021-1.
 37 38  0  0  1  0            999 V2000
   14.2359   32.1927   -7.4700 C   0  0  0  0  0  0
   13.1380   32.7053   -6.7650 C   0  0  0  0  0  0
   12.8303   34.0628   -6.8260 C   0  0  0  0  0  0
   13.5932   34.8992   -7.6370 C   0  0  0  0  0  0
   14.6870   34.3927   -8.3322 C   0  0  0  0  0  0
   15.0503   33.0719   -8.1836 C   0  0  0  0  0  0
   15.3011   35.1456   -9.3220 N   0  0  0  0  0  0
   16.6938   35.5472   -9.1650 C   0  0  0  0  0  0
   16.7292   37.3904   -9.0942 P   0  0  0  0  0  0
   17.7590   34.8179  -10.5167 P   0  0  0  0  0  0
   18.1010   33.3541  -10.3650 O   0  0  0  0  0  0
   17.9804   37.8936   -8.4225 O   0  0  0  0  0  0
   16.5010   37.7800  -10.7650 O   0  0  0  0  0  0
   15.3010   37.7913   -8.2618 O   0  0  0  0  0  0
   16.9649   35.2585  -11.9675 O   0  0  0  0  0  0
   14.4828   30.7416   -7.5894 C   0  0  0  0  0  0
   15.0578   30.2453   -8.7655 C   0  0  0  0  0  0
   15.3010   28.8992   -8.9083 C   0  0  0  0  0  0
   14.9270   28.0266   -7.8996 C   0  0  0  0  0  0
   14.2825   28.4860   -6.7650 C   0  0  0  0  0  0
   14.1010   29.8483   -6.5858 C   0  0  0  0  0  0
   19.1451   35.7800  -10.3650 O   0  0  0  0  0  0
   12.4815   32.0436   -6.2190 H   0  0  0  0  0  0
   11.9595   34.4431   -6.3137 H   0  0  0  0  0  0
   13.3010   35.9230   -7.7848 H   0  0  0  0  0  0
   15.8997   32.7075   -8.7391 H   0  0  0  0  0  0
   14.6710   35.8660   -9.6766 H   0  0  0  0  0  0
   17.0845   35.1721   -8.2098 H   0  0  0  0  0  0
   17.3381   37.8870  -11.3074 H   0  0  0  0  0  0
   15.2167   38.6899   -7.8897 H   0  0  0  0  0  0
   17.3954   35.8105  -12.6544 H   0  0  0  0  0  0
   15.3138   30.8826   -9.5968 H   0  0  0  0  0  0
   15.7559   28.5372   -9.8143 H   0  0  0  0  0  0
   15.1432   26.9800   -8.0104 H   0  0  0  0  0  0
   13.9241   27.7907   -6.0222 H   0  0  0  0  0  0
   13.6271   30.1885   -5.6783 H   0  0  0  0  0  0
   19.3345   36.5266  -10.9879 H   0  0  0  0  0  0
  1  6  1  0  0  0
  1  2  2  0  0  0
  1 16  1  0  0  0
  2  3  1  0  0  0
  2 23  1  0  0  0
  3  4  2  0  0  0
  3 24  1  0  0  0
  4  5  1  0  0  0
  4 25  1  0  0  0
  5  6  2  0  0  0
  5  7  1  0  0  0
  6 26  1  0  0  0
  7  8  1  0  0  0
  7 27  1  0  0  0
  8  9  1  0  0  0
  8 10  1  0  0  0
  8 28  1  0  0  0
  9 12  2  0  0  0
  9 13  1  0  0  0
  9 14  1  0  0  0
 10 11  2  0  0  0
 10 15  1  0  0  0
 10 22  1  0  0  0
 13 29  1  0  0  0
 14 30  1  0  0  0
 15 31  1  0  0  0
 16 17  2  0  0  0
 16 21  1  0  0  0
 17 18  1  0  0  0
 17 32  1  0  0  0
 18 19  2  0  0  0
 18 33  1  0  0  0
 19 20  1  0  0  0
 19 34  1  0  0  0
 20 21  2  0  0  0
 20 35  1  0  0  0
 21 36  1  0  0  0
 22 37  1  0  0  0
M  END
> <s_m_entry_id>
3159

> <s_m_entry_name>
dock_pv.174

> <s_m_Source_Path>
/home/csk/Desktop/cluster/DUD-E-result/fpps

> <s_m_Source_File>
dock_pv.maegz

> <i_m_Source_File_Index>
174

> <chembl_id>
CHEMBL55371

> <chembl_pref_name>
None

> <i_lp_mmshare_version>
53161

> <r_lp_tautomer_probability>
1

> <s_lp_Force_Field>
OPLS_2005

> <r_lp_Energy>
6.573258

> <b_lp_Chiralities_Consistent>
1

> <s_lp_Variant>
CHEMBL1782_lig154-1

> <s_i_glide_gridfile>
glide-grid_1zw5

> <i_i_glide_lignum>
175

> <i_i_glide_rotatable_bonds>
9

> <r_i_docking_score>
-7.40813657226307

> <r_i_glide_ligand_efficiency>
-0.336733480557412

> <r_i_glide_ligand_efficiency_sa>
-0.943540455498175

> <r_i_glide_ligand_efficiency_ln>
-1.81081879660813

> <r_i_glide_gscore>
-7.40813657226307

> <r_i_glide_lipo>
-0.408674628950541

> <r_i_glide_hbond>
-0.14198272319914

> <r_i_glide_metal>
-2.3

> <r_i_glide_rewards>
0.215056761051281

> <r_i_glide_evdw>
-26.2054309844971

> <r_i_glide_ecoul>
-35.3416366577148

> <r_i_glide_erotb>
0.805321426585009

> <r_i_glide_esite>
-0.267585858524824

> <r_i_glide_emodel>
-94.6265753294291

> <r_i_glide_energy>
-61.5470676422119

> <r_i_glide_einternal>
19.4464836120605

> <i_i_glide_confnum>
199

> <i_i_glide_posenum>
93

> <r_i_glide_eff_state_penalty>
0

> <s_user_duplicate_titles>
CHEMBL1782_lig154

> <i_f3d_flags>
0

> <s_m_subgroup_title>
dock_pv

> <s_m_subgroupid>
dock_pv

> <b_m_subgroup_collapsed>
1

$$$$
CHEMBL1782_lig189
                    3D
 Schrodinger Suite 2021-1.
 51 51  0  0  1  0            999 V2000
   13.0225   33.0997   -8.8469 C   0  0  0  0  0  0
   12.5153   31.9762   -8.2390 N   0  0  0  0  0  0
   13.5047   31.0040   -8.2649 C   0  0  0  0  0  0
   14.6094   31.5357   -8.9291 C   0  0  0  0  0  0
   14.3015   32.8421   -9.2896 N   0  3  0  0  0  0
   11.1727   31.8504   -7.7001 C   0  0  0  0  0  0
   15.0855   33.7628  -10.0986 C   0  0  0  0  0  0
   16.3367   34.3850   -9.4315 C   0  0  0  0  0  0
   16.0186   35.2870   -7.8095 P   0  0  0  0  0  0
   17.3010   35.7800   -7.1650 O   0  0  0  0  0  0
   14.9010   36.5117   -8.2299 O   0  0  0  0  0  0
   15.1765   34.1535   -6.8467 O   0  0  0  0  0  0
   17.3010   33.3675   -9.1650 O   0  0  0  0  0  0
   17.0929   35.5426  -10.6916 P   0  0  0  0  0  0
   18.4550   36.1524   -9.8588 O   0  0  0  0  0  0
   16.1010   36.5800  -11.1674 O   0  0  0  0  0  0
   17.6808   34.4970  -11.8999 O   0  0  0  0  0  0
   11.0897   32.3999   -6.2598 C   0  0  0  0  0  0
   11.3760   33.9162   -6.1254 C   0  0  0  0  0  0
   10.9114   34.5407   -4.7947 C   0  0  0  0  0  0
    9.3825   34.6880   -4.6741 C   0  0  0  0  0  0
    8.9225   35.1453   -3.2779 C   0  0  0  0  0  0
    7.4233   34.8891   -3.0560 C   0  0  0  0  0  0
    6.9164   35.3321   -1.6827 C   0  0  0  0  0  0
   12.4687   34.0120   -9.0226 H   0  0  0  0  0  0
   13.3120   30.0172   -7.8600 H   0  0  0  0  0  0
   15.5415   31.0671   -9.2157 H   0  0  0  0  0  0
   10.8624   30.8077   -7.7707 H   0  0  0  0  0  0
   10.4977   32.3978   -8.3605 H   0  0  0  0  0  0
   15.3347   33.2558  -11.0310 H   0  0  0  0  0  0
   14.4208   34.5799  -10.3650 H   0  0  0  0  0  0
   14.3631   36.5575   -9.0554 H   0  0  0  0  0  0
   14.8412   33.2923   -7.1650 H   0  0  0  0  0  0
   16.8939   32.7322   -8.5588 H   0  0  0  0  0  0
   18.0099   34.8578  -12.7497 H   0  0  0  0  0  0
   11.7490   31.8232   -5.6117 H   0  0  0  0  0  0
   10.1010   32.1800   -5.8816 H   0  0  0  0  0  0
   10.9079   34.4585   -6.9490 H   0  0  0  0  0  0
   12.4488   34.0813   -6.2321 H   0  0  0  0  0  0
   11.3554   35.5306   -4.6915 H   0  0  0  0  0  0
   11.3010   33.9496   -3.9650 H   0  0  0  0  0  0
    8.9010   33.7426   -4.9091 H   0  0  0  0  0  0
    9.0203   35.3905   -5.4264 H   0  0  0  0  0  0
    9.1520   36.2036   -3.1429 H   0  0  0  0  0  0
    9.4867   34.6125   -2.5106 H   0  0  0  0  0  0
    7.2294   33.8225   -3.1531 H   0  0  0  0  0  0
    6.8395   35.3800   -3.8352 H   0  0  0  0  0  0
    5.8757   35.0281   -1.5650 H   0  0  0  0  0  0
    6.9819   36.4142   -1.5650 H   0  0  0  0  0  0
    7.4859   34.8673   -0.8769 H   0  0  0  0  0  0
   18.8897   36.9667  -10.2139 H   0  0  0  0  0  0
  1  2  1  0  0  0
  1  5  2  0  0  0
  1 25  1  0  0  0
  2  3  1  0  0  0
  2  6  1  0  0  0
  3  4  2  0  0  0
  3 26  1  0  0  0
  4  5  1  0  0  0
  4 27  1  0  0  0
  5  7  1  0  0  0
  6 18  1  0  0  0
  6 28  1  0  0  0
  6 29  1  0  0  0
  7  8  1  0  0  0
  7 30  1  0  0  0
  7 31  1  0  0  0
  8  9  1  0  0  0
  8 13  1  0  0  0
  8 14  1  0  0  0
  9 10  2  0  0  0
  9 11  1  0  0  0
  9 12  1  0  0  0
 11 32  1  0  0  0
 12 33  1  0  0  0
 13 34  1  0  0  0
 14 15  1  0  0  0
 14 16  2  0  0  0
 14 17  1  0  0  0
 15 51  1  0  0  0
 17 35  1  0  0  0
 18 19  1  0  0  0
 18 36  1  0  0  0
 18 37  1  0  0  0
 19 20  1  0  0  0
 19 38  1  0  0  0
 19 39  1  0  0  0
 20 21  1  0  0  0
 20 40  1  0  0  0
 20 41  1  0  0  0
 21 22  1  0  0  0
 21 42  1  0  0  0
 21 43  1  0  0  0
 22 23  1  0  0  0
 22 44  1  0  0  0
 22 45  1  0  0  0
 23 24  1  0  0  0
 23 46  1  0  0  0
 23 47  1  0  0  0
 24 48  1  0  0  0
 24 49  1  0  0  0
 24 50  1  0  0  0
M  CHG  1   5   1
M  END
> <s_m_entry_id>
3160

> <s_m_entry_name>
dock_pv.175

> <s_m_Source_Path>
/home/csk/Desktop/cluster/DUD-E-result/fpps

> <s_m_Source_File>
dock_pv.maegz

> <i_m_Source_File_Index>
175

> <chembl_id>
CHEMBL2338360

> <chembl_pref_name>
None

> <i_lp_mmshare_version>
53161

> <r_lp_tautomer_probability>
1

> <s_lp_Force_Field>
OPLS_2005

> <r_lp_Energy>
2.340886

> <b_lp_Chiralities_Consistent>
1

> <s_lp_Variant>
CHEMBL1782_lig189-1

> <s_i_glide_gridfile>
glide-grid_1zw5

> <i_i_glide_lignum>
213

> <i_i_glide_rotatable_bonds>
16

> <r_i_docking_score>
-7.38819849347506

> <r_i_glide_ligand_efficiency>
-0.307841603894794

> <r_i_glide_ligand_efficiency_sa>
-0.887968840939349

> <r_i_glide_ligand_efficiency_ln>
-1.76833492182646

> <r_i_glide_gscore>
-7.38819849347506

> <r_i_glide_lipo>
-0.251734882582734

> <r_i_glide_hbond>
0

> <r_i_glide_metal>
-2.3

> <r_i_glide_rewards>
-0.481975909090908

> <r_i_glide_evdw>
-26.5210647583008

> <r_i_glide_ecoul>
-44.9976119995117

> <r_i_glide_erotb>
1.31019566839933

> <r_i_glide_esite>
-0.338630132285712

> <r_i_glide_emodel>
-106.105538752515

> <r_i_glide_energy>
-71.5186767578125

> <r_i_glide_einternal>
19.4115447998047

> <i_i_glide_confnum>
500

> <i_i_glide_posenum>
240

> <r_i_glide_eff_state_penalty>
0

> <s_user_duplicate_titles>
CHEMBL1782_lig189

> <i_f3d_flags>
0

> <s_m_subgroup_title>
dock_pv

> <s_m_subgroupid>
dock_pv

> <b_m_subgroup_collapsed>
1

$$$$
CHEMBL1782_lig28
                    3D
 Schrodinger Suite 2021-1.
 50 50  0  0  1  0            999 V2000
   16.3582   35.5886  -10.0481 C   0  0  0  0  0  0
   16.1454   36.4849   -8.3651 P   0  0  0  0  0  0
   18.1559   35.0924  -10.2195 P   0  0  0  0  0  0
   15.4760   34.2933  -10.1178 C   0  0  0  0  0  0
   17.1028   35.9808   -7.2842 O   0  0  0  0  0  0
   18.9840   35.7800   -9.1650 O   0  0  0  0  0  0
   16.1010   36.5115  -11.1209 O   0  0  0  0  0  0
   16.2698   38.1607   -8.7341 O   0  0  0  0  0  0
   18.1010   33.3800   -9.9979 O   0  0  0  0  0  0
   14.5010   36.2525   -7.9650 O   0  0  0  0  0  0
   18.6395   35.3800  -11.8238 O   0  0  0  0  0  0
   15.4948   33.4132   -8.8266 C   0  0  0  0  0  0
   15.0539   32.0336   -9.0245 N   0  0  2  0  0  0
   10.9612   33.7289   -6.2107 C   0  0  0  0  0  0
   11.2412   32.9698   -7.3490 C   0  0  0  0  0  0
   10.2556   34.9305   -6.2995 C   0  0  0  0  0  0
   13.6721   30.3176   -7.8695 C   0  0  0  0  0  0
   11.9563   31.8121   -7.1366 O   0  0  0  0  0  0
   10.1010   34.6330   -8.6935 C   0  0  0  0  0  0
   14.7954   31.3677   -7.7364 C   0  0  0  0  0  0
   12.3204   30.9581   -8.2207 C   0  0  0  0  0  0
   10.7900   33.4275   -8.5970 C   0  0  0  0  0  0
    9.8279   35.3812   -7.5488 C   0  0  0  0  0  0
   15.9646   31.1974   -9.8012 C   0  0  0  0  0  0
    9.9376   35.7281   -5.0491 C   0  0  0  0  0  0
   14.4328   34.5800  -10.2129 H   0  0  0  0  0  0
   15.6451   33.7268  -11.0329 H   0  0  0  0  0  0
   16.9588   36.8466  -11.4352 H   0  0  0  0  0  0
   17.0327   38.6417   -9.1315 H   0  0  0  0  0  0
   17.2348   32.9302  -10.1416 H   0  0  0  0  0  0
   13.8077   36.1476   -8.6553 H   0  0  0  0  0  0
   18.8348   36.3258  -12.1164 H   0  0  0  0  0  0
   16.4468   33.4453   -8.2969 H   0  0  0  0  0  0
   14.7842   33.8642   -8.1323 H   0  0  0  0  0  0
   11.3010   33.3707   -5.2511 H   0  0  0  0  0  0
   13.9260   29.5585   -8.6097 H   0  0  0  0  0  0
   13.5756   29.7794   -6.9264 H   0  0  0  0  0  0
    9.7619   34.9799   -9.6585 H   0  0  0  0  0  0
   15.6997   30.9262   -7.3113 H   0  0  0  0  0  0
   14.4624   32.1015   -7.0000 H   0  0  0  0  0  0
   12.4417   31.4800   -9.1650 H   0  0  0  0  0  0
   11.5516   30.1981   -8.3651 H   0  0  0  0  0  0
   10.9561   32.8759   -9.5089 H   0  0  0  0  0  0
    9.2825   36.3088   -7.6397 H   0  0  0  0  0  0
   15.5223   30.2194   -9.9939 H   0  0  0  0  0  0
   16.1887   31.6401  -10.7650 H   0  0  0  0  0  0
   16.9011   31.0259   -9.2722 H   0  0  0  0  0  0
    8.8983   36.0566   -5.0709 H   0  0  0  0  0  0
   10.0682   35.1341   -4.1427 H   0  0  0  0  0  0
   10.5654   36.6173   -4.9901 H   0  0  0  0  0  0
  1  2  1  0  0  0
  1  3  1  0  0  0
  1  4  1  0  0  0
  1  7  1  0  0  0
  2  5  2  0  0  0
  2  8  1  0  0  0
  2 10  1  0  0  0
  3  6  2  0  0  0
  3  9  1  0  0  0
  3 11  1  0  0  0
  4 12  1  0  0  0
  4 26  1  0  0  0
  4 27  1  0  0  0
  7 28  1  0  0  0
  8 29  1  0  0  0
  9 30  1  0  0  0
 10 31  1  0  0  0
 11 32  1  0  0  0
 12 13  1  0  0  0
 12 33  1  0  0  0
 12 34  1  0  0  0
 13 20  1  0  0  0
 13 24  1  0  0  0
 14 15  2  0  0  0
 14 16  1  0  0  0
 14 35  1  0  0  0
 15 18  1  0  0  0
 15 22  1  0  0  0
 16 25  1  0  0  0
 16 23  2  0  0  0
 17 20  1  0  0  0
 17 21  1  0  0  0
 17 36  1  0  0  0
 17 37  1  0  0  0
 18 21  1  0  0  0
 19 22  2  0  0  0
 19 23  1  0  0  0
 19 38  1  0  0  0
 20 39  1  0  0  0
 20 40  1  0  0  0
 21 41  1  0  0  0
 21 42  1  0  0  0
 22 43  1  0  0  0
 23 44  1  0  0  0
 24 45  1  0  0  0
 24 46  1  0  0  0
 24 47  1  0  0  0
 25 48  1  0  0  0
 25 49  1  0  0  0
 25 50  1  0  0  0
M  END
> <s_m_entry_id>
3161

> <s_m_entry_name>
dock_pv.176

> <s_m_Source_Path>
/home/csk/Desktop/cluster/DUD-E-result/fpps

> <s_m_Source_File>
dock_pv.maegz

> <i_m_Source_File_Index>
176

> <chembl_id>
CHEMBL100835

> <chembl_pref_name>
None

> <i_lp_mmshare_version>
53161

> <r_lp_tautomer_probability>
1

> <s_lp_Force_Field>
OPLS_2005

> <r_lp_Energy>
2.365492

> <b_lp_Chiralities_Consistent>
1

> <s_lp_Variant>
CHEMBL1782_lig28-1

> <s_i_glide_gridfile>
glide-grid_1zw5

> <i_i_glide_lignum>
32

> <i_i_glide_rotatable_bonds>
15

> <r_i_docking_score>
-7.38506059257164

> <r_i_glide_ligand_efficiency>
-0.295402423702866

> <r_i_glide_ligand_efficiency_sa>
-0.863761925891471

> <r_i_glide_ligand_efficiency_ln>
-1.75048067284662

> <r_i_glide_gscore>
-7.38506059257164

> <r_i_glide_lipo>
-0.278723241772731

> <r_i_glide_hbond>
0

> <r_i_glide_metal>
-2.3

> <r_i_glide_rewards>
-0.700242759861649

> <r_i_glide_evdw>
-22.9743385314941

> <r_i_glide_ecoul>
-53.626049041748

> <r_i_glide_erotb>
1.24003385852561

> <r_i_glide_esite>
-0.197411522888169

> <r_i_glide_emodel>
-130.349688696067

> <r_i_glide_energy>
-76.6003875732422

> <r_i_glide_einternal>
14.7703609466553

> <i_i_glide_confnum>
571

> <i_i_glide_posenum>
360

> <r_i_glide_eff_state_penalty>
0

> <s_user_duplicate_titles>
CHEMBL1782_lig28

> <i_f3d_flags>
0

> <s_m_subgroup_title>
dock_pv

> <s_m_subgroupid>
dock_pv

> <b_m_subgroup_collapsed>
1

$$$$
CHEMBL1782_lig304
                    3D
 Schrodinger Suite 2021-1.
 28 28  0  0  1  0            999 V2000
   16.5949   35.6031   -9.0196 C   0  0  0  0  0  0
   18.1291   35.2323   -9.9650 P   0  0  0  0  0  0
   16.2588   37.4189   -9.3093 P   0  0  0  0  0  0
   15.5954   34.6819   -9.5833 N   0  0  0  0  0  0
   14.6580   33.9818   -8.8028 C   0  0  0  0  0  0
   18.5010   33.7800   -9.9650 O   0  0  0  0  0  0
   16.1010   37.8008  -10.7650 O   0  0  0  0  0  0
   16.9010   35.3824   -7.6426 O   0  0  0  0  0  0
   13.9678   34.5713   -7.7379 C   0  0  0  0  0  0
   14.4160   32.6402   -9.1099 C   0  0  0  0  0  0
   13.5311   31.8865   -8.3385 C   0  0  0  0  0  0
   13.0617   33.8276   -6.9820 C   0  0  0  0  0  0
   12.8495   32.4809   -7.2769 C   0  0  0  0  0  0
   17.7170   35.7800  -11.5119 O   0  0  0  0  0  0
   14.9010   37.7042   -8.3650 O   0  0  0  0  0  0
   17.5676   38.1800   -8.5617 O   0  0  0  0  0  0
   19.2481   36.1800   -9.0613 O   0  0  0  0  0  0
   13.3010   30.2128   -8.6853 Cl  0  0  0  0  0  0
   12.2127   34.5800   -5.6805 Cl  0  0  0  0  0  0
   15.8888   34.2112  -10.4285 H   0  0  0  0  0  0
   16.1468   35.7045   -7.1340 H   0  0  0  0  0  0
   14.1155   35.6084   -7.5010 H   0  0  0  0  0  0
   14.9306   32.1594   -9.9289 H   0  0  0  0  0  0
   12.1617   31.8923   -6.6869 H   0  0  0  0  0  0
   18.1141   36.6246  -11.8659 H   0  0  0  0  0  0
   14.0183   37.3888   -8.6745 H   0  0  0  0  0  0
   17.8028   39.0879   -8.8783 H   0  0  0  0  0  0
   19.6771   36.9798   -9.4444 H   0  0  0  0  0  0
  1  2  1  0  0  0
  1  3  1  0  0  0
  1  4  1  0  0  0
  1  8  1  0  0  0
  2  6  2  0  0  0
  2 14  1  0  0  0
  2 17  1  0  0  0
  3  7  2  0  0  0
  3 15  1  0  0  0
  3 16  1  0  0  0
  4  5  1  0  0  0
  4 20  1  0  0  0
  5  9  2  0  0  0
  5 10  1  0  0  0
  8 21  1  0  0  0
  9 12  1  0  0  0
  9 22  1  0  0  0
 10 11  2  0  0  0
 10 23  1  0  0  0
 11 13  1  0  0  0
 11 18  1  0  0  0
 12 19  1  0  0  0
 12 13  2  0  0  0
 13 24  1  0  0  0
 14 25  1  0  0  0
 15 26  1  0  0  0
 16 27  1  0  0  0
 17 28  1  0  0  0
M  END
> <s_m_entry_id>
3162

> <s_m_entry_name>
dock_pv.177

> <s_m_Source_Path>
/home/csk/Desktop/cluster/DUD-E-result/fpps

> <s_m_Source_File>
dock_pv.maegz

> <i_m_Source_File_Index>
177

> <chembl_id>
CHEMBL149321

> <chembl_pref_name>
None

> <i_lp_mmshare_version>
53161

> <r_lp_tautomer_probability>
1

> <s_lp_Force_Field>
OPLS_2005

> <r_lp_Energy>
1.234358

> <b_lp_Chiralities_Consistent>
1

> <s_lp_Variant>
CHEMBL1782_lig304-1

> <s_i_glide_gridfile>
glide-grid_1zw5

> <i_i_glide_lignum>
350

> <i_i_glide_rotatable_bonds>
9

> <r_i_docking_score>
-7.38388459877344

> <r_i_glide_ligand_efficiency>
-0.388625505198602

> <r_i_glide_ligand_efficiency_sa>
-1.03700893778954

> <r_i_glide_ligand_efficiency_ln>
-1.87197333708882

> <r_i_glide_gscore>
-7.38388459877344

> <r_i_glide_lipo>
0

> <r_i_glide_hbond>
0

> <r_i_glide_metal>
-2.3

> <r_i_glide_rewards>
-0.812686802605775

> <r_i_glide_evdw>
-4.42416143417358

> <r_i_glide_ecoul>
-59.9941062927246

> <r_i_glide_erotb>
0.323370482307238

> <r_i_glide_esite>
-0.373360206766219

> <r_i_glide_emodel>
-106.349835975988

> <r_i_glide_energy>
-64.4182677268982

> <r_i_glide_einternal>
20.6267433166504

> <i_i_glide_confnum>
20

> <i_i_glide_posenum>
201

> <r_i_glide_eff_state_penalty>
0

> <s_user_duplicate_titles>
CHEMBL1782_lig304

> <i_f3d_flags>
0

> <s_m_subgroup_title>
dock_pv

> <s_m_subgroupid>
dock_pv

> <b_m_subgroup_collapsed>
1

$$$$
CHEMBL1782_lig72
                    3D
 Schrodinger Suite 2021-1.
 51 51  0  0  1  0            999 V2000
   16.5147   35.7801   -8.9056 C   0  0  0  0  0  0
   17.8763   35.1069   -9.9804 P   0  0  0  0  0  0
   16.3405   37.6425   -9.1020 P   0  0  0  0  0  0
   15.2029   34.9800   -9.1109 C   0  0  0  0  0  0
   18.1010   33.6087   -9.9650 O   0  0  0  0  0  0
   15.7010   38.1699  -10.3650 O   0  0  0  0  0  0
   16.9010   35.6001   -7.5474 O   0  0  0  0  0  0
   17.5423   35.7800  -11.5063 O   0  0  0  0  0  0
   15.6652   38.1462   -7.6239 O   0  0  0  0  0  0
   19.1717   35.9020   -9.2177 O   0  0  0  0  0  0
   17.9307   38.1800   -8.9569 O   0  0  0  0  0  0
   15.1996   33.5276   -8.5501 C   0  0  0  0  0  0
   14.3733   32.6369   -9.3729 N   0  0  2  0  0  0
   10.3200   36.2477   -4.2416 C   0  0  0  0  0  0
   10.1480   35.1986   -6.8427 C   0  0  0  0  0  0
    9.7010   36.9825   -5.2640 C   0  0  0  0  0  0
    9.6142   36.4527   -6.5499 C   0  0  0  0  0  0
   10.8236   34.9795   -4.5274 C   0  0  0  0  0  0
   10.7463   34.4555   -5.8145 C   0  0  0  0  0  0
   12.2048   33.7976   -8.7651 C   0  0  0  0  0  0
   10.0449   34.7807   -8.1568 O   0  0  0  0  0  0
   10.4925   36.6987   -2.9469 O   0  0  0  0  0  0
   12.9905   32.4804   -8.8977 C   0  0  0  0  0  0
   10.6902   33.5833   -8.5939 C   0  0  0  0  0  0
   14.9748   31.3042   -9.4475 C   0  0  0  0  0  0
   10.0934   38.0258   -2.6124 C   0  0  0  0  0  0
   14.4103   35.5252   -8.5988 H   0  0  0  0  0  0
   14.9010   34.9800  -10.1583 H   0  0  0  0  0  0
   16.1730   35.9317   -7.0053 H   0  0  0  0  0  0
   18.0908   36.5182  -11.8888 H   0  0  0  0  0  0
   16.0991   38.8586   -7.1117 H   0  0  0  0  0  0
   19.6094   36.6792   -9.6367 H   0  0  0  0  0  0
   18.1081   39.0765   -9.3493 H   0  0  0  0  0  0
   16.2185   33.1513   -8.4691 H   0  0  0  0  0  0
   14.8331   33.5214   -7.5216 H   0  0  0  0  0  0
    9.3011   37.9698   -5.0852 H   0  0  0  0  0  0
    9.1534   37.0256   -7.3403 H   0  0  0  0  0  0
   11.2994   34.4036   -3.7466 H   0  0  0  0  0  0
   11.1694   33.4794   -5.9966 H   0  0  0  0  0  0
   12.5627   34.3048   -7.8716 H   0  0  0  0  0  0
   12.4086   34.4701   -9.5969 H   0  0  0  0  0  0
   12.4455   31.8097   -9.5641 H   0  0  0  0  0  0
   12.9931   31.9767   -7.9282 H   0  0  0  0  0  0
   10.2606   33.3115   -9.5592 H   0  0  0  0  0  0
   10.4631   32.7476   -7.9302 H   0  0  0  0  0  0
   14.3761   30.6368  -10.0695 H   0  0  0  0  0  0
   15.9693   31.3507   -9.8928 H   0  0  0  0  0  0
   15.0678   30.8459   -8.4608 H   0  0  0  0  0  0
   10.3346   38.2228   -1.5677 H   0  0  0  0  0  0
   10.6185   38.7688   -3.2154 H   0  0  0  0  0  0
    9.0181   38.1636   -2.7326 H   0  0  0  0  0  0
  1  2  1  0  0  0
  1  3  1  0  0  0
  1  4  1  0  0  0
  1  7  1  0  0  0
  2  5  2  0  0  0
  2  8  1  0  0  0
  2 10  1  0  0  0
  3  6  2  0  0  0
  3  9  1  0  0  0
  3 11  1  0  0  0
  4 12  1  0  0  0
  4 27  1  0  0  0
  4 28  1  0  0  0
  7 29  1  0  0  0
  8 30  1  0  0  0
  9 31  1  0  0  0
 10 32  1  0  0  0
 11 33  1  0  0  0
 12 13  1  0  0  0
 12 34  1  0  0  0
 12 35  1  0  0  0
 13 23  1  0  0  0
 13 25  1  0  0  0
 14 18  1  0  0  0
 14 22  1  0  0  0
 14 16  2  0  0  0
 15 21  1  0  0  0
 15 17  2  0  0  0
 15 19  1  0  0  0
 16 17  1  0  0  0
 16 36  1  0  0  0
 17 37  1  0  0  0
 18 19  2  0  0  0
 18 38  1  0  0  0
 19 39  1  0  0  0
 20 23  1  0  0  0
 20 24  1  0  0  0
 20 40  1  0  0  0
 20 41  1  0  0  0
 21 24  1  0  0  0
 22 26  1  0  0  0
 23 42  1  0  0  0
 23 43  1  0  0  0
 24 44  1  0  0  0
 24 45  1  0  0  0
 25 46  1  0  0  0
 25 47  1  0  0  0
 25 48  1  0  0  0
 26 49  1  0  0  0
 26 50  1  0  0  0
 26 51  1  0  0  0
M  END
> <s_m_entry_id>
3163

> <s_m_entry_name>
dock_pv.178

> <s_m_Source_Path>
/home/csk/Desktop/cluster/DUD-E-result/fpps

> <s_m_Source_File>
dock_pv.maegz

> <i_m_Source_File_Index>
178

> <chembl_id>
CHEMBL316913

> <chembl_pref_name>
None

> <i_lp_mmshare_version>
53161

> <r_lp_tautomer_probability>
1

> <s_lp_Force_Field>
OPLS_2005

> <r_lp_Energy>
5.621818

> <b_lp_Chiralities_Consistent>
1

> <s_lp_Variant>
CHEMBL1782_lig72-1

> <s_i_glide_gridfile>
glide-grid_1zw5

> <i_i_glide_lignum>
80

> <i_i_glide_rotatable_bonds>
16

> <r_i_docking_score>
-7.38326198536163

> <r_i_glide_ligand_efficiency>
-0.283971614821601

> <r_i_glide_ligand_efficiency_sa>
-0.841264791534645

> <r_i_glide_ligand_efficiency_ln>
-1.73393485080361

> <r_i_glide_gscore>
-7.38326198536163

> <r_i_glide_lipo>
-0.27687576426413

> <r_i_glide_hbond>
0

> <r_i_glide_metal>
-2.3

> <r_i_glide_rewards>
-0.590623436954397

> <r_i_glide_evdw>
-23.4127502441406

> <r_i_glide_ecoul>
-61.7889633178711

> <r_i_glide_erotb>
1.15487472806393

> <r_i_glide_esite>
-0.2

> <r_i_glide_emodel>
-126.648429739504

> <r_i_glide_energy>
-85.2017135620117

> <r_i_glide_einternal>
39.5766181945801

> <i_i_glide_confnum>
276

> <i_i_glide_posenum>
383

> <r_i_glide_eff_state_penalty>
0

> <s_user_duplicate_titles>
CHEMBL1782_lig72

> <i_f3d_flags>
0

> <s_m_subgroup_title>
dock_pv

> <s_m_subgroupid>
dock_pv

> <b_m_subgroup_collapsed>
1

$$$$
CHEMBL1782_lig133
                    3D
 Schrodinger Suite 2021-1.
 32 31  0  0  1  0            999 V2000
   15.4941   34.7990   -9.3674 C   0  0  0  0  0  0
   16.7820   35.6599   -9.1979 C   0  0  0  0  0  0
   16.3811   37.4850   -9.1160 P   0  0  0  0  0  0
   18.0879   35.1596  -10.4181 P   0  0  0  0  0  0
   17.4308   35.7010  -11.8897 O   0  0  0  0  0  0
   19.3568   36.1800   -9.9650 O   0  0  0  0  0  0
   18.5010   33.7075  -10.3650 O   0  0  0  0  0  0
   17.8858   38.1800   -8.7650 O   0  0  0  0  0  0
   16.1010   37.9166  -10.7650 O   0  0  0  0  0  0
   15.3010   37.8725   -8.1458 O   0  0  0  0  0  0
   15.5773   33.1051   -8.6882 S   0  3  2  0  0  0
   14.0762   32.2921   -9.3199 C   0  0  0  0  0  0
   13.7785   30.8984   -8.7215 C   0  0  0  0  0  0
   14.9013   29.8635   -8.9119 C   0  0  0  0  0  0
   15.0562   33.4016   -6.9742 C   0  0  0  0  0  0
   15.2307   34.7312  -10.4229 H   0  0  0  0  0  0
   14.6430   35.2892   -8.8894 H   0  0  0  0  0  0
   17.1970   35.4034   -8.2148 H   0  0  0  0  0  0
   19.6219   36.9353  -10.5451 H   0  0  0  0  0  0
   18.0549   39.1169   -9.0384 H   0  0  0  0  0  0
   16.8336   38.4324  -11.2065 H   0  0  0  0  0  0
   14.1700   32.2021  -10.4006 H   0  0  0  0  0  0
   13.2193   32.9472   -9.1551 H   0  0  0  0  0  0
   12.8662   30.5003   -9.1650 H   0  0  0  0  0  0
   13.5525   30.9885   -7.6582 H   0  0  0  0  0  0
   14.5971   28.8918   -8.5198 H   0  0  0  0  0  0
   15.8168   30.1474   -8.3923 H   0  0  0  0  0  0
   15.1426   29.7212   -9.9650 H   0  0  0  0  0  0
   15.7374   34.0822   -6.4716 H   0  0  0  0  0  0
   14.0527   33.8258   -6.9382 H   0  0  0  0  0  0
   15.0499   32.4622   -6.4195 H   0  0  0  0  0  0
   17.8832   36.4407  -12.3650 H   0  0  0  0  0  0
  1 11  1  0  0  0
  1  2  1  0  0  0
  1 16  1  0  0  0
  1 17  1  0  0  0
  2  3  1  0  0  0
  2  4  1  0  0  0
  2 18  1  0  0  0
  3  8  1  0  0  0
  3  9  1  0  0  0
  3 10  2  0  0  0
  4  5  1  0  0  0
  4  6  1  0  0  0
  4  7  2  0  0  0
  5 32  1  0  0  0
  6 19  1  0  0  0
  8 20  1  0  0  0
  9 21  1  0  0  0
 11 12  1  0  0  0
 11 15  1  0  0  0
 12 13  1  0  0  0
 12 22  1  0  0  0
 12 23  1  0  0  0
 13 14  1  0  0  0
 13 24  1  0  0  0
 13 25  1  0  0  0
 14 26  1  0  0  0
 14 27  1  0  0  0
 14 28  1  0  0  0
 15 29  1  0  0  0
 15 30  1  0  0  0
 15 31  1  0  0  0
M  CHG  1  11   1
M  END
> <s_m_entry_id>
3164

> <s_m_entry_name>
dock_pv.179

> <s_m_Source_Path>
/home/csk/Desktop/cluster/DUD-E-result/fpps

> <s_m_Source_File>
dock_pv.maegz

> <i_m_Source_File_Index>
179

> <chembl_id>
CHEMBL235059

> <chembl_pref_name>
None

> <i_lp_mmshare_version>
53161

> <r_lp_tautomer_probability>
1

> <s_lp_Force_Field>
OPLS_2005

> <r_lp_Energy>
-6.480382

> <b_lp_Chiralities_Consistent>
1

> <s_lp_Variant>
CHEMBL1782_lig133-1

> <s_i_glide_gridfile>
glide-grid_1zw5

> <i_i_glide_lignum>
145

> <i_i_glide_rotatable_bonds>
10

> <r_i_docking_score>
-7.36861665258522

> <r_i_glide_ligand_efficiency>
-0.491241110172348

> <r_i_glide_ligand_efficiency_sa>
-1.21150475622094

> <r_i_glide_ligand_efficiency_ln>
-1.98719441565136

> <r_i_glide_gscore>
-7.36861665258522

> <r_i_glide_lipo>
0

> <r_i_glide_hbond>
-0.000558948202700283

> <r_i_glide_metal>
-2.3

> <r_i_glide_rewards>
-1.2053925

> <r_i_glide_evdw>
-14.7320404052734

> <r_i_glide_ecoul>
-43.6179351806641

> <r_i_glide_erotb>
1.15698510868654

> <r_i_glide_esite>
-0.28304829280538

> <r_i_glide_emodel>
-87.516959934029

> <r_i_glide_energy>
-58.3499755859375

> <r_i_glide_einternal>
23.1894416809082

> <i_i_glide_confnum>
123

> <i_i_glide_posenum>
261

> <r_i_glide_eff_state_penalty>
0

> <s_user_duplicate_titles>
CHEMBL1782_lig133,402782

> <i_f3d_flags>
0

> <s_m_subgroup_title>
dock_pv

> <s_m_subgroupid>
dock_pv

> <b_m_subgroup_collapsed>
1

$$$$
CHEMBL1782_lig75
                    3D
 Schrodinger Suite 2021-1.
 30 29  0  0  1  0            999 V2000
   16.2600   36.4465   -9.0608 P   0  0  0  0  0  0
   16.9647   33.8407  -10.2799 P   0  0  0  0  0  0
   15.5452   34.8424   -9.6921 C   0  0  0  0  0  0
   17.4698   36.2422   -8.1391 O   0  0  0  0  0  0
   18.1010   33.7800   -9.2899 O   0  0  0  0  0  0
   16.5010   37.3230  -10.5372 O   0  0  0  0  0  0
   16.3447   32.2990  -10.6166 O   0  0  0  0  0  0
   17.4180   34.5800  -11.7496 O   0  0  0  0  0  0
   14.9010   37.2020   -8.3647 O   0  0  0  0  0  0
   14.7229   34.1721   -8.5551 C   0  0  0  0  0  0
   14.0232   32.8313   -8.8847 C   0  0  0  0  0  0
   13.9968   30.2791   -8.5061 C   0  0  0  0  0  0
   14.6130   31.6327   -8.1093 C   0  0  0  0  0  0
   14.5568   29.1136   -7.6765 C   0  0  0  0  0  0
   14.9010   34.9800  -10.5557 H   0  0  0  0  0  0
   17.2960   37.9005  -10.6755 H   0  0  0  0  0  0
   15.7859   31.7908   -9.9927 H   0  0  0  0  0  0
   17.7010   35.5156  -11.8410 H   0  0  0  0  0  0
   13.9935   37.0298   -8.7113 H   0  0  0  0  0  0
   13.9377   34.8681   -8.2565 H   0  0  0  0  0  0
   15.3466   34.0602   -7.6657 H   0  0  0  0  0  0
   14.0132   32.6462   -9.9596 H   0  0  0  0  0  0
   12.9667   32.9110   -8.6207 H   0  0  0  0  0  0
   14.1701   30.0817   -9.5650 H   0  0  0  0  0  0
   12.9128   30.3136   -8.3815 H   0  0  0  0  0  0
   14.4491   31.7917   -7.0417 H   0  0  0  0  0  0
   15.6960   31.5869   -8.2303 H   0  0  0  0  0  0
   14.0959   28.1686   -7.9650 H   0  0  0  0  0  0
   14.3641   29.2556   -6.6124 H   0  0  0  0  0  0
   15.6338   29.0089   -7.8124 H   0  0  0  0  0  0
  1  3  1  0  0  0
  1  4  2  0  0  0
  1  6  1  0  0  0
  1  9  1  0  0  0
  2  3  1  0  0  0
  2  5  2  0  0  0
  2  7  1  0  0  0
  2  8  1  0  0  0
  3 10  1  0  0  0
  3 15  1  0  0  0
  6 16  1  0  0  0
  7 17  1  0  0  0
  8 18  1  0  0  0
  9 19  1  0  0  0
 10 11  1  0  0  0
 10 20  1  0  0  0
 10 21  1  0  0  0
 11 13  1  0  0  0
 11 22  1  0  0  0
 11 23  1  0  0  0
 12 13  1  0  0  0
 12 14  1  0  0  0
 12 24  1  0  0  0
 12 25  1  0  0  0
 13 26  1  0  0  0
 13 27  1  0  0  0
 14 28  1  0  0  0
 14 29  1  0  0  0
 14 30  1  0  0  0
M  END
> <s_m_entry_id>
3165

> <s_m_entry_name>
dock_pv.180

> <s_m_Source_Path>
/home/csk/Desktop/cluster/DUD-E-result/fpps

> <s_m_Source_File>
dock_pv.maegz

> <i_m_Source_File_Index>
180

> <chembl_id>
CHEMBL280463

> <chembl_pref_name>
None

> <i_lp_mmshare_version>
53161

> <r_lp_tautomer_probability>
1

> <s_lp_Force_Field>
OPLS_2005

> <r_lp_Energy>
-8.572484

> <b_lp_Chiralities_Consistent>
1

> <s_lp_Variant>
CHEMBL1782_lig75-1

> <s_i_glide_gridfile>
glide-grid_1zw5

> <i_i_glide_lignum>
83

> <i_i_glide_rotatable_bonds>
10

> <r_i_docking_score>
-7.3463606465579

> <r_i_glide_ligand_efficiency>
-0.524740046182707

> <r_i_glide_ligand_efficiency_sa>
-1.26469816189767

> <r_i_glide_ligand_efficiency_ln>
-2.01875375437809

> <r_i_glide_gscore>
-7.3463606465579

> <r_i_glide_lipo>
-0.245674202757738

> <r_i_glide_hbond>
0

> <r_i_glide_metal>
-1.49956616584327

> <r_i_glide_rewards>
-1.73089663636364

> <r_i_glide_evdw>
-13.8300313949585

> <r_i_glide_ecoul>
-47.9958381652832

> <r_i_glide_erotb>
1.00650226298507

> <r_i_glide_esite>
-0.185224334830409

> <r_i_glide_emodel>
-108.2595297312

> <r_i_glide_energy>
-61.8258695602417

> <r_i_glide_einternal>
10.5759840011597

> <i_i_glide_confnum>
37

> <i_i_glide_posenum>
211

> <r_i_glide_eff_state_penalty>
0

> <s_user_duplicate_titles>
CHEMBL1782_lig75,180880

> <i_f3d_flags>
0

> <s_m_subgroup_title>
dock_pv

> <s_m_subgroupid>
dock_pv

> <b_m_subgroup_collapsed>
1

$$$$
CHEMBL1782_lig204
                    3D
 Schrodinger Suite 2021-1.
 53 53  0  0  1  0            999 V2000
   13.4304   34.1800   -8.7758 C   0  0  0  0  0  0
   12.8574   34.2823   -7.5263 N   0  0  0  0  0  0
   13.8923   34.2161   -6.6156 C   0  0  0  0  0  0
   15.0894   34.1913   -7.3116 C   0  0  0  0  0  0
   14.8090   34.1971   -8.6676 N   0  3  0  0  0  0
   11.4460   34.4843   -7.1998 C   0  0  0  0  0  0
   15.7676   34.1800   -9.7762 C   0  0  0  0  0  0
   16.9944   35.1362   -9.6116 C   0  0  0  0  0  0
   18.1125   34.8633  -11.0867 P   0  0  0  0  0  0
   17.5047   34.9800  -12.4589 O   0  0  0  0  0  0
   19.4706   35.7800  -10.7650 O   0  0  0  0  0  0
   18.8425   33.3788  -10.7650 O   0  0  0  0  0  0
   16.5311   36.9449   -9.4615 P   0  0  0  0  0  0
   15.3010   36.9678   -8.2856 O   0  0  0  0  0  0
   16.1010   37.5716  -10.7650 O   0  0  0  0  0  0
   17.9426   37.6088   -8.7830 O   0  0  0  0  0  0
   10.5109   33.3554   -7.6768 C   0  0  0  0  0  0
   11.0174   31.9271   -7.3995 C   0  0  0  0  0  0
   11.7460   31.3231   -8.6139 C   0  0  0  0  0  0
   12.9010   30.3537   -8.3222 C   0  0  0  0  0  0
   14.0856   30.8777   -7.4886 C   0  0  0  0  0  0
   14.7945   29.7536   -6.7176 C   0  0  0  0  0  0
   15.2914   28.6184   -7.6248 C   0  0  0  0  0  0
   15.7010   27.3800   -6.8327 C   0  0  0  0  0  0
   12.8746   34.1800   -9.6996 H   0  0  0  0  0  0
   13.6730   34.1800   -5.5650 H   0  0  0  0  0  0
   16.1010   34.1702   -6.9586 H   0  0  0  0  0  0
   11.1387   35.4382   -7.6309 H   0  0  0  0  0  0
   11.3613   34.5836   -6.1168 H   0  0  0  0  0  0
   16.0964   33.1447   -9.8826 H   0  0  0  0  0  0
   15.2310   34.4229  -10.6950 H   0  0  0  0  0  0
   17.5456   34.8451   -8.7084 H   0  0  0  0  0  0
   19.4507   36.7356  -11.0521 H   0  0  0  0  0  0
   19.1980   32.8721  -11.5527 H   0  0  0  0  0  0
   18.1888   38.5409   -8.9825 H   0  0  0  0  0  0
   10.2791   33.4796   -8.7370 H   0  0  0  0  0  0
    9.5590   33.4905   -7.1651 H   0  0  0  0  0  0
   10.1704   31.2811   -7.1711 H   0  0  0  0  0  0
   11.6234   31.9077   -6.4948 H   0  0  0  0  0  0
   12.0946   32.0801   -9.3086 H   0  0  0  0  0  0
   10.9812   30.7779   -9.1650 H   0  0  0  0  0  0
   13.2845   29.9700   -9.2689 H   0  0  0  0  0  0
   12.5010   29.4904   -7.8133 H   0  0  0  0  0  0
   13.7492   31.5968   -6.7491 H   0  0  0  0  0  0
   14.7928   31.3971   -8.1349 H   0  0  0  0  0  0
   14.1010   29.3511   -5.9761 H   0  0  0  0  0  0
   15.6318   30.1633   -6.1500 H   0  0  0  0  0  0
   16.1010   28.9925   -8.2447 H   0  0  0  0  0  0
   14.5176   28.2986   -8.3222 H   0  0  0  0  0  0
   16.1010   26.6169   -7.4923 H   0  0  0  0  0  0
   14.8204   26.9477   -6.3650 H   0  0  0  0  0  0
   16.4500   27.5948   -6.0677 H   0  0  0  0  0  0
   14.4234   36.5800   -8.4821 H   0  0  0  0  0  0
  1  2  1  0  0  0
  1  5  2  0  0  0
  1 25  1  0  0  0
  2  3  1  0  0  0
  2  6  1  0  0  0
  3  4  2  0  0  0
  3 26  1  0  0  0
  4  5  1  0  0  0
  4 27  1  0  0  0
  5  7  1  0  0  0
  6 17  1  0  0  0
  6 28  1  0  0  0
  6 29  1  0  0  0
  7  8  1  0  0  0
  7 30  1  0  0  0
  7 31  1  0  0  0
  8  9  1  0  0  0
  8 13  1  0  0  0
  8 32  1  0  0  0
  9 10  2  0  0  0
  9 11  1  0  0  0
  9 12  1  0  0  0
 11 33  1  0  0  0
 12 34  1  0  0  0
 13 14  1  0  0  0
 13 15  2  0  0  0
 13 16  1  0  0  0
 14 53  1  0  0  0
 16 35  1  0  0  0
 17 18  1  0  0  0
 17 36  1  0  0  0
 17 37  1  0  0  0
 18 19  1  0  0  0
 18 38  1  0  0  0
 18 39  1  0  0  0
 19 20  1  0  0  0
 19 40  1  0  0  0
 19 41  1  0  0  0
 20 21  1  0  0  0
 20 42  1  0  0  0
 20 43  1  0  0  0
 21 22  1  0  0  0
 21 44  1  0  0  0
 21 45  1  0  0  0
 22 23  1  0  0  0
 22 46  1  0  0  0
 22 47  1  0  0  0
 23 24  1  0  0  0
 23 48  1  0  0  0
 23 49  1  0  0  0
 24 50  1  0  0  0
 24 51  1  0  0  0
 24 52  1  0  0  0
M  CHG  1   5   1
M  END
> <s_m_entry_id>
3166

> <s_m_entry_name>
dock_pv.181

> <s_m_Source_Path>
/home/csk/Desktop/cluster/DUD-E-result/fpps

> <s_m_Source_File>
dock_pv.maegz

> <i_m_Source_File_Index>
181

> <chembl_id>
CHEMBL2338377

> <chembl_pref_name>
None

> <i_lp_mmshare_version>
53161

> <r_lp_tautomer_probability>
1

> <s_lp_Force_Field>
OPLS_2005

> <r_lp_Energy>
1.325466

> <b_lp_Chiralities_Consistent>
1

> <s_lp_Variant>
CHEMBL1782_lig204-1

> <s_i_glide_gridfile>
glide-grid_1zw5

> <i_i_glide_lignum>
228

> <i_i_glide_rotatable_bonds>
16

> <r_i_docking_score>
-7.32951888631297

> <r_i_glide_ligand_efficiency>
-0.30539662026304

> <r_i_glide_ligand_efficiency_sa>
-0.88091628776221

> <r_i_glide_ligand_efficiency_ln>
-1.75429019920085

> <r_i_glide_gscore>
-7.32951888631297

> <r_i_glide_lipo>
-0.55095415164136

> <r_i_glide_hbond>
0

> <r_i_glide_metal>
-2.3

> <r_i_glide_rewards>
-0.495426954545453

> <r_i_glide_evdw>
-21.8463764190674

> <r_i_glide_ecoul>
-34.7702903747559

> <r_i_glide_erotb>
1.45454518052267

> <r_i_glide_esite>
-0.345364139695457

> <r_i_glide_emodel>
-69.99702748784

> <r_i_glide_energy>
-56.6166667938232

> <r_i_glide_einternal>
22.0388431549072

> <i_i_glide_confnum>
204

> <i_i_glide_posenum>
207

> <r_i_glide_eff_state_penalty>
0

> <s_user_duplicate_titles>
CHEMBL1782_lig204

> <i_f3d_flags>
0

> <s_m_subgroup_title>
dock_pv

> <s_m_subgroupid>
dock_pv

> <b_m_subgroup_collapsed>
1

$$$$
CHEMBL1782_lig131
                    3D
 Schrodinger Suite 2021-1.
 27 26  0  0  1  0            999 V2000
   15.3583   34.5399  -10.0502 C   0  0  0  0  0  0
   16.4436   35.6670  -10.1211 C   0  0  0  0  0  0
   16.5361   36.5934   -8.4769 P   0  0  0  0  0  0
   18.0579   34.8746  -10.6175 P   0  0  0  0  0  0
   18.3126   35.3800  -12.2161 O   0  0  0  0  0  0
   19.1459   35.7800   -9.6559 O   0  0  0  0  0  0
   18.1237   33.3800  -10.3650 O   0  0  0  0  0  0
   17.2229   38.1412   -8.7650 O   0  0  0  0  0  0
   14.9009   36.8483   -8.0973 O   0  0  0  0  0  0
   17.3010   35.7800   -7.4457 O   0  0  0  0  0  0
   15.4549   33.1834   -8.8107 S   0  3  0  0  0  0
   14.4171   33.7834   -7.4488 C   0  0  0  0  0  0
   14.3086   31.9607   -9.5069 C   0  0  0  0  0  0
   16.1010   36.5800  -11.1650 O   0  0  0  0  0  0
   14.3950   34.9800   -9.8620 H   0  0  0  0  0  0
   15.3008   34.0576  -11.0269 H   0  0  0  0  0  0
   19.7681   36.4340  -10.0491 H   0  0  0  0  0  0
   17.3010   38.7045   -9.5724 H   0  0  0  0  0  0
   14.1895   36.8524   -8.7787 H   0  0  0  0  0  0
   14.2478   32.9750   -6.7360 H   0  0  0  0  0  0
   14.9044   34.5963   -6.9159 H   0  0  0  0  0  0
   13.4471   34.1258   -7.8105 H   0  0  0  0  0  0
   14.0851   31.1866   -8.7713 H   0  0  0  0  0  0
   13.3663   32.4151   -9.8158 H   0  0  0  0  0  0
   14.7544   31.4643  -10.3650 H   0  0  0  0  0  0
   16.9193   36.7933  -11.6477 H   0  0  0  0  0  0
   18.6529   36.2982  -12.3983 H   0  0  0  0  0  0
  1 11  1  0  0  0
  1  2  1  0  0  0
  1 15  1  0  0  0
  1 16  1  0  0  0
  2  4  1  0  0  0
  2  3  1  0  0  0
  2 14  1  0  0  0
  3  8  1  0  0  0
  3  9  1  0  0  0
  3 10  2  0  0  0
  4  7  2  0  0  0
  4  5  1  0  0  0
  4  6  1  0  0  0
  5 27  1  0  0  0
  6 17  1  0  0  0
  8 18  1  0  0  0
  9 19  1  0  0  0
 11 12  1  0  0  0
 11 13  1  0  0  0
 12 20  1  0  0  0
 12 21  1  0  0  0
 12 22  1  0  0  0
 13 23  1  0  0  0
 13 24  1  0  0  0
 13 25  1  0  0  0
 14 26  1  0  0  0
M  CHG  1  11   1
M  END
> <s_m_entry_id>
3167

> <s_m_entry_name>
dock_pv.182

> <s_m_Source_Path>
/home/csk/Desktop/cluster/DUD-E-result/fpps

> <s_m_Source_File>
dock_pv.maegz

> <i_m_Source_File_Index>
182

> <chembl_id>
CHEMBL277580

> <chembl_pref_name>
None

> <i_lp_mmshare_version>
53161

> <r_lp_tautomer_probability>
1

> <s_lp_Force_Field>
OPLS_2005

> <r_lp_Energy>
-3.253617

> <b_lp_Chiralities_Consistent>
1

> <s_lp_Variant>
CHEMBL1782_lig131-1

> <s_i_glide_gridfile>
glide-grid_1zw5

> <i_i_glide_lignum>
143

> <i_i_glide_rotatable_bonds>
9

> <r_i_docking_score>
-7.29375031913511

> <r_i_glide_ligand_efficiency>
-0.520982165652508

> <r_i_glide_ligand_efficiency_sa>
-1.25564113521608

> <r_i_glide_ligand_efficiency_ln>
-2.00429662368255

> <r_i_glide_gscore>
-7.29375031913511

> <r_i_glide_lipo>
0

> <r_i_glide_hbond>
0

> <r_i_glide_metal>
-2.3

> <r_i_glide_rewards>
-1.28757722727273

> <r_i_glide_evdw>
-3.59243893623352

> <r_i_glide_ecoul>
-53.475212097168

> <r_i_glide_erotb>
0.749330880475059

> <r_i_glide_esite>
-0.27588202552577

> <r_i_glide_emodel>
-87.4018893205309

> <r_i_glide_energy>
-57.0676510334015

> <r_i_glide_einternal>
20.5941276550293

> <i_i_glide_confnum>
14

> <i_i_glide_posenum>
83

> <r_i_glide_eff_state_penalty>
0

> <s_user_duplicate_titles>
CHEMBL1782_lig131

> <i_f3d_flags>
0

> <s_m_subgroup_title>
dock_pv

> <s_m_subgroupid>
dock_pv

> <b_m_subgroup_collapsed>
1

$$$$
CHEMBL1782_lig206
                    3D
 Schrodinger Suite 2021-1.
 59 59  0  0  1  0            999 V2000
   15.7337   31.9343   -8.2602 C   0  0  0  0  0  0
   15.0350   30.9085   -8.7943 N   0  0  0  0  0  0
   14.4982   31.3850   -9.9647 C   0  0  0  0  0  0
   15.0414   32.6284  -10.2412 C   0  0  0  0  0  0
   15.8478   32.9422   -9.1829 N   0  3  0  0  0  0
   14.6367   29.7279   -8.0868 C   0  0  0  0  0  0
   16.5983   34.1512   -9.0715 C   0  0  0  0  0  0
   15.7079   35.3959   -8.8933 C   0  0  0  0  0  0
   16.8420   36.7944   -9.3124 P   0  0  0  0  0  0
   18.2413   36.4225   -8.8205 O   0  0  0  0  0  0
   16.5276   36.9815  -11.0151 O   0  0  0  0  0  0
   16.1336   38.1767   -8.6196 O   0  0  0  0  0  0
   14.9010   35.4359   -7.2291 P   0  0  0  0  0  0
   13.2593   35.3797   -7.6251 O   0  0  0  0  0  0
   15.2993   36.5949   -6.3649 O   0  0  0  0  0  0
   15.2291   33.9611   -6.4647 O   0  0  0  0  0  0
   13.1209   29.7674   -7.9568 C   0  0  0  0  0  0
   12.4667   31.1168   -7.5341 C   0  0  0  0  0  0
   11.0413   31.2402   -8.0993 C   0  0  0  0  0  0
   10.1878   32.3558   -7.4982 C   0  0  0  0  0  0
   10.7165   33.7837   -7.6312 C   0  0  0  0  0  0
    9.6902   34.8325   -7.1383 C   0  0  0  0  0  0
   10.2749   36.0535   -6.4098 C   0  0  0  0  0  0
   11.0652   35.7484   -5.1123 C   0  0  0  0  0  0
   10.2596   35.0819   -3.9791 C   0  0  0  0  0  0
    9.2113   36.0063   -3.3444 C   0  0  0  0  0  0
   16.1007   31.9217   -7.2545 H   0  0  0  0  0  0
   13.7015   30.8064  -10.3736 H   0  0  0  0  0  0
   14.9018   33.3670  -11.0138 H   0  0  0  0  0  0
   15.1249   29.7044   -7.1101 H   0  0  0  0  0  0
   14.9676   28.8549   -8.6544 H   0  0  0  0  0  0
   17.2915   34.0455   -8.2496 H   0  0  0  0  0  0
   17.1887   34.2215   -9.9887 H   0  0  0  0  0  0
   14.9208   35.3539   -9.6395 H   0  0  0  0  0  0
   17.2888   37.3223  -11.5683 H   0  0  0  0  0  0
   16.6073   39.0396   -8.6133 H   0  0  0  0  0  0
   14.5143   33.3546   -6.1863 H   0  0  0  0  0  0
   12.9010   28.9831   -7.2386 H   0  0  0  0  0  0
   12.6971   29.4287   -8.9030 H   0  0  0  0  0  0
   13.0009   31.9945   -7.8860 H   0  0  0  0  0  0
   12.5007   31.2122   -6.4487 H   0  0  0  0  0  0
   10.5090   30.2975   -7.9694 H   0  0  0  0  0  0
   11.0991   31.3844   -9.1711 H   0  0  0  0  0  0
   10.1011   32.1489   -6.4318 H   0  0  0  0  0  0
    9.2087   32.2954   -7.9650 H   0  0  0  0  0  0
   11.0027   33.9926   -8.6651 H   0  0  0  0  0  0
   11.6290   33.8164   -7.0431 H   0  0  0  0  0  0
    8.9406   34.3731   -6.4931 H   0  0  0  0  0  0
    9.1329   35.1969   -8.0018 H   0  0  0  0  0  0
    9.4644   36.7497   -6.1868 H   0  0  0  0  0  0
   10.8997   36.5826   -7.1231 H   0  0  0  0  0  0
   11.4850   36.6745   -4.7257 H   0  0  0  0  0  0
   11.9245   35.1194   -5.3403 H   0  0  0  0  0  0
   10.9440   34.7497   -3.1982 H   0  0  0  0  0  0
    9.7787   34.1811   -4.3563 H   0  0  0  0  0  0
    8.6657   35.4965   -2.5485 H   0  0  0  0  0  0
    8.4864   36.3318   -4.0865 H   0  0  0  0  0  0
    9.6744   36.8958   -2.9136 H   0  0  0  0  0  0
   12.8490   35.9829   -8.2897 H   0  0  0  0  0  0
  1  2  1  0  0  0
  1  5  2  0  0  0
  1 27  1  0  0  0
  2  3  1  0  0  0
  2  6  1  0  0  0
  3  4  2  0  0  0
  3 28  1  0  0  0
  4  5  1  0  0  0
  4 29  1  0  0  0
  5  7  1  0  0  0
  6 17  1  0  0  0
  6 30  1  0  0  0
  6 31  1  0  0  0
  7  8  1  0  0  0
  7 32  1  0  0  0
  7 33  1  0  0  0
  8  9  1  0  0  0
  8 13  1  0  0  0
  8 34  1  0  0  0
  9 10  2  0  0  0
  9 11  1  0  0  0
  9 12  1  0  0  0
 11 35  1  0  0  0
 12 36  1  0  0  0
 13 14  1  0  0  0
 13 15  2  0  0  0
 13 16  1  0  0  0
 14 59  1  0  0  0
 16 37  1  0  0  0
 17 18  1  0  0  0
 17 38  1  0  0  0
 17 39  1  0  0  0
 18 19  1  0  0  0
 18 40  1  0  0  0
 18 41  1  0  0  0
 19 20  1  0  0  0
 19 42  1  0  0  0
 19 43  1  0  0  0
 20 21  1  0  0  0
 20 44  1  0  0  0
 20 45  1  0  0  0
 21 22  1  0  0  0
 21 46  1  0  0  0
 21 47  1  0  0  0
 22 23  1  0  0  0
 22 48  1  0  0  0
 22 49  1  0  0  0
 23 24  1  0  0  0
 23 50  1  0  0  0
 23 51  1  0  0  0
 24 25  1  0  0  0
 24 52  1  0  0  0
 24 53  1  0  0  0
 25 26  1  0  0  0
 25 54  1  0  0  0
 25 55  1  0  0  0
 26 56  1  0  0  0
 26 57  1  0  0  0
 26 58  1  0  0  0
M  CHG  1   5   1
M  END
> <s_m_entry_id>
3168

> <s_m_entry_name>
dock_pv.183

> <s_m_Source_Path>
/home/csk/Desktop/cluster/DUD-E-result/fpps

> <s_m_Source_File>
dock_pv.maegz

> <i_m_Source_File_Index>
183

> <chembl_id>
CHEMBL2338379

> <chembl_pref_name>
None

> <i_lp_mmshare_version>
53161

> <r_lp_tautomer_probability>
1

> <s_lp_Force_Field>
OPLS_2005

> <r_lp_Energy>
3.529595

> <b_lp_Chiralities_Consistent>
1

> <s_lp_Variant>
CHEMBL1782_lig206-1

> <s_i_glide_gridfile>
glide-grid_1zw5

> <i_i_glide_lignum>
230

> <i_i_glide_rotatable_bonds>
18

> <r_i_docking_score>
-7.26951727626676

> <r_i_glide_ligand_efficiency>
-0.279596818317952

> <r_i_glide_ligand_efficiency_sa>
-0.828304474106578

> <r_i_glide_ligand_efficiency_ln>
-1.70722227909951

> <r_i_glide_gscore>
-7.26951727626676

> <r_i_glide_lipo>
-0.320055196905907

> <r_i_glide_hbond>
-0.181968355438512

> <r_i_glide_metal>
-2.28642752357042

> <r_i_glide_rewards>
-0.304155409090908

> <r_i_glide_evdw>
-19.2316112518311

> <r_i_glide_ecoul>
-25.8829383850098

> <r_i_glide_erotb>
1.05974282769676

> <r_i_glide_esite>
-0.392632298614753

> <r_i_glide_emodel>
-54.1219424611645

> <r_i_glide_energy>
-45.1145496368408

> <r_i_glide_einternal>
21.2642078399658

> <i_i_glide_confnum>
111

> <i_i_glide_posenum>
262

> <r_i_glide_eff_state_penalty>
0

> <s_user_duplicate_titles>
CHEMBL1782_lig206

> <i_f3d_flags>
0

> <s_m_subgroup_title>
dock_pv

> <s_m_subgroupid>
dock_pv

> <b_m_subgroup_collapsed>
1

$$$$
CHEMBL1782_lig51
                    3D
 Schrodinger Suite 2021-1.
 55 55  0  0  1  0            999 V2000
   16.8743   36.3811   -9.7129 C   0  0  0  0  0  0
   17.6328   37.4106   -8.3448 P   0  0  0  0  0  0
   17.9075   34.9960  -10.4534 P   0  0  0  0  0  0
   15.5654   35.7351   -9.2174 C   0  0  0  0  0  0
   18.1010   33.7800   -9.5650 O   0  0  0  0  0  0
   18.1010   36.5800   -7.1653 O   0  0  0  0  0  0
   16.5010   37.2793  -10.7650 O   0  0  0  0  0  0
   17.1533   34.6557  -11.9457 O   0  0  0  0  0  0
   18.9010   38.1800   -9.1650 O   0  0  0  0  0  0
   19.3705   35.7800  -10.8000 O   0  0  0  0  0  0
   16.4438   38.5800   -7.9943 O   0  0  0  0  0  0
   15.5877   34.8463   -7.9432 C   0  0  0  0  0  0
   14.7068   33.6744   -8.0005 N   0  0  1  0  0  0
    9.7010   37.1749   -4.6363 C   0  0  0  0  0  0
   13.3263   33.9670   -8.3994 C   0  0  0  0  0  0
   15.2681   32.5643   -8.7673 C   0  0  0  0  0  0
    9.2410   36.8638   -6.0607 C   0  0  0  0  0  0
    9.6794   36.2230   -3.6069 C   0  0  0  0  0  0
   10.1425   38.4712   -4.3649 C   0  0  0  0  0  0
   12.3633   33.7683   -7.2279 C   0  0  0  0  0  0
    8.8906   35.3946   -6.3855 C   0  0  0  0  0  0
   10.0629   34.3932   -6.3130 C   0  0  0  0  0  0
   11.0691   34.5604   -7.4539 C   0  0  0  0  0  0
   10.6309   38.7899   -3.1035 C   0  0  0  0  0  0
   10.1671   36.5445   -2.3455 C   0  0  0  0  0  0
   10.6540   37.8249   -2.1048 C   0  0  0  0  0  0
   15.0882   35.1952  -10.0352 H   0  0  0  0  0  0
   14.9010   36.5567   -8.9585 H   0  0  0  0  0  0
   17.3119   37.6122  -11.2010 H   0  0  0  0  0  0
   16.6430   35.3201  -12.4478 H   0  0  0  0  0  0
   18.9082   38.3969  -10.1243 H   0  0  0  0  0  0
   19.3847   36.6935  -11.2036 H   0  0  0  0  0  0
   16.6024   39.5169   -8.2429 H   0  0  0  0  0  0
   15.2628   35.4418   -7.0886 H   0  0  0  0  0  0
   16.5916   34.5211   -7.6888 H   0  0  0  0  0  0
   13.0089   33.3291   -9.2279 H   0  0  0  0  0  0
   13.2074   34.9800   -8.7787 H   0  0  0  0  0  0
   16.2378   32.2704   -8.3652 H   0  0  0  0  0  0
   14.6202   31.6881   -8.7049 H   0  0  0  0  0  0
   15.3904   32.8190   -9.8208 H   0  0  0  0  0  0
    8.3750   37.4871   -6.2824 H   0  0  0  0  0  0
   10.0122   37.2088   -6.7497 H   0  0  0  0  0  0
    9.2989   35.2266   -3.7658 H   0  0  0  0  0  0
   10.1252   39.2330   -5.1324 H   0  0  0  0  0  0
   12.8350   33.9945   -6.2702 H   0  0  0  0  0  0
   12.1024   32.7094   -7.1817 H   0  0  0  0  0  0
    8.0727   35.0588   -5.7472 H   0  0  0  0  0  0
    8.5010   35.3800   -7.4016 H   0  0  0  0  0  0
   10.5889   34.4731   -5.3637 H   0  0  0  0  0  0
    9.6764   33.3765   -6.3442 H   0  0  0  0  0  0
   10.6068   34.2643   -8.3978 H   0  0  0  0  0  0
   11.3287   35.6121   -7.5649 H   0  0  0  0  0  0
   11.0021   39.7800   -2.8980 H   0  0  0  0  0  0
   10.1734   35.8009   -1.5650 H   0  0  0  0  0  0
   11.0478   38.0880   -1.1382 H   0  0  0  0  0  0
  1  2  1  0  0  0
  1  3  1  0  0  0
  1  4  1  0  0  0
  1  7  1  0  0  0
  2  6  2  0  0  0
  2  9  1  0  0  0
  2 11  1  0  0  0
  3  5  2  0  0  0
  3  8  1  0  0  0
  3 10  1  0  0  0
  4 12  1  0  0  0
  4 27  1  0  0  0
  4 28  1  0  0  0
  7 29  1  0  0  0
  8 30  1  0  0  0
  9 31  1  0  0  0
 10 32  1  0  0  0
 11 33  1  0  0  0
 12 13  1  0  0  0
 12 34  1  0  0  0
 12 35  1  0  0  0
 13 15  1  0  0  0
 13 16  1  0  0  0
 14 17  1  0  0  0
 14 18  2  0  0  0
 14 19  1  0  0  0
 15 20  1  0  0  0
 15 36  1  0  0  0
 15 37  1  0  0  0
 16 38  1  0  0  0
 16 39  1  0  0  0
 16 40  1  0  0  0
 17 21  1  0  0  0
 17 41  1  0  0  0
 17 42  1  0  0  0
 18 25  1  0  0  0
 18 43  1  0  0  0
 19 24  2  0  0  0
 19 44  1  0  0  0
 20 23  1  0  0  0
 20 45  1  0  0  0
 20 46  1  0  0  0
 21 22  1  0  0  0
 21 47  1  0  0  0
 21 48  1  0  0  0
 22 23  1  0  0  0
 22 49  1  0  0  0
 22 50  1  0  0  0
 23 51  1  0  0  0
 23 52  1  0  0  0
 24 26  1  0  0  0
 24 53  1  0  0  0
 25 26  2  0  0  0
 25 54  1  0  0  0
 26 55  1  0  0  0
M  END
> <s_m_entry_id>
3169

> <s_m_entry_name>
dock_pv.184

> <s_m_Source_Path>
/home/csk/Desktop/cluster/DUD-E-result/fpps

> <s_m_Source_File>
dock_pv.maegz

> <i_m_Source_File_Index>
184

> <chembl_id>
CHEMBL317338

> <chembl_pref_name>
None

> <i_lp_mmshare_version>
53161

> <r_lp_tautomer_probability>
1

> <s_lp_Force_Field>
OPLS_2005

> <r_lp_Energy>
5.894554

> <b_lp_Chiralities_Consistent>
1

> <s_lp_Variant>
CHEMBL1782_lig51-1

> <s_i_glide_gridfile>
glide-grid_1zw5

> <i_i_glide_lignum>
56

> <i_i_glide_rotatable_bonds>
17

> <r_i_docking_score>
-7.26813587394076

> <r_i_glide_ligand_efficiency>
-0.27954368745926

> <r_i_glide_ligand_efficiency_sa>
-0.828147074146762

> <r_i_glide_ligand_efficiency_ln>
-1.706897861296

> <r_i_glide_gscore>
-7.26813587394076

> <r_i_glide_lipo>
-0.233785006349079

> <r_i_glide_hbond>
0

> <r_i_glide_metal>
-2.19796701403242

> <r_i_glide_rewards>
-0.618058090909089

> <r_i_glide_evdw>
-26.2173652648926

> <r_i_glide_ecoul>
-57.7096748352051

> <r_i_glide_erotb>
1.29254250059445

> <r_i_glide_esite>
-0.2

> <r_i_glide_emodel>
-131.747233959023

> <r_i_glide_energy>
-83.9270401000977

> <r_i_glide_einternal>
31.9787845611572

> <i_i_glide_confnum>
234

> <i_i_glide_posenum>
246

> <r_i_glide_eff_state_penalty>
0

> <s_user_duplicate_titles>
CHEMBL1782_lig51

> <i_f3d_flags>
0

> <s_m_subgroup_title>
dock_pv

> <s_m_subgroupid>
dock_pv

> <b_m_subgroup_collapsed>
1

$$$$
CHEMBL1782_lig92
                    3D
 Schrodinger Suite 2021-1.
 27 26  0  0  1  0            999 V2000
   16.5830   36.1936   -9.6763 C   0  0  0  0  0  0
   17.6470   37.2669   -8.5644 P   0  0  0  0  0  0
   17.3389   34.6993  -10.4952 P   0  0  0  0  0  0
   15.3010   35.7814   -8.8848 C   0  0  0  0  0  0
   18.1009   33.7800   -9.5650 O   0  0  0  0  0  0
   18.1010   36.5800   -7.2927 O   0  0  0  0  0  0
   16.1871   37.0414  -10.7647 O   0  0  0  0  0  0
   18.9549   37.6773   -9.5650 O   0  0  0  0  0  0
   15.9825   33.9198  -11.1650 O   0  0  0  0  0  0
   18.2888   35.3800  -11.7550 O   0  0  0  0  0  0
   16.6699   38.6348   -8.3650 O   0  0  0  0  0  0
   15.3757   34.8511   -7.6330 C   0  0  1  0  0  0
   14.2247   35.1205   -6.7914 N   0  0  0  0  0  0
   15.2770   33.3402   -7.9256 C   0  0  0  0  0  0
   14.6245   35.2730   -9.5649 H   0  0  0  0  0  0
   14.8022   36.7124   -8.6038 H   0  0  0  0  0  0
   16.9379   37.6241  -10.9689 H   0  0  0  0  0  0
   18.9343   37.7800  -10.5596 H   0  0  0  0  0  0
   15.2260   33.6070  -10.6312 H   0  0  0  0  0  0
   18.5437   36.3404  -11.8529 H   0  0  0  0  0  0
   16.9010   39.4743   -8.8472 H   0  0  0  0  0  0
   16.2566   35.0537   -7.0289 H   0  0  0  0  0  0
   13.4109   35.1143   -7.3956 H   0  0  0  0  0  0
   14.1001   34.3074   -6.2013 H   0  0  0  0  0  0
   16.0927   32.9611   -8.5291 H   0  0  0  0  0  0
   14.3533   33.0830   -8.4479 H   0  0  0  0  0  0
   15.3010   32.7548   -7.0041 H   0  0  0  0  0  0
  1  2  1  0  0  0
  1  3  1  0  0  0
  1  4  1  0  0  0
  1  7  1  0  0  0
  2  6  2  0  0  0
  2  8  1  0  0  0
  2 11  1  0  0  0
  3  5  2  0  0  0
  3  9  1  0  0  0
  3 10  1  0  0  0
  4 12  1  0  0  0
  4 15  1  0  0  0
  4 16  1  0  0  0
  7 17  1  0  0  0
  8 18  1  0  0  0
  9 19  1  0  0  0
 10 20  1  0  0  0
 11 21  1  0  0  0
 12 13  1  0  0  0
 12 14  1  0  0  0
 12 22  1  0  0  0
 13 23  1  0  0  0
 13 24  1  0  0  0
 14 25  1  0  0  0
 14 26  1  0  0  0
 14 27  1  0  0  0
M  END
> <s_m_entry_id>
3170

> <s_m_entry_name>
dock_pv.185

> <s_m_Source_Path>
/home/csk/Desktop/cluster/DUD-E-result/fpps

> <s_m_Source_File>
dock_pv.maegz

> <i_m_Source_File_Index>
185

> <chembl_id>
CHEMBL55358

> <chembl_pref_name>
None

> <i_lp_mmshare_version>
53161

> <r_lp_tautomer_probability>
1

> <s_lp_Force_Field>
OPLS_2005

> <r_lp_Energy>
-4.889278

> <b_lp_Chiralities_Consistent>
1

> <s_lp_Variant>
CHEMBL1782_lig92-2

> <s_i_glide_gridfile>
glide-grid_1zw5

> <i_i_glide_lignum>
102

> <i_i_glide_rotatable_bonds>
9

> <r_i_docking_score>
-7.26715663877721

> <r_i_glide_ligand_efficiency>
-0.519082617055515

> <r_i_glide_ligand_efficiency_sa>
-1.25106295286364

> <r_i_glide_ligand_efficiency_ln>
-1.99698877498738

> <r_i_glide_gscore>
-7.26715663877721

> <r_i_glide_lipo>
0

> <r_i_glide_hbond>
-0.00603144715297334

> <r_i_glide_metal>
-2.3

> <r_i_glide_rewards>
-1.71070881818182

> <r_i_glide_evdw>
2.08704566955566

> <r_i_glide_ecoul>
-65.3597640991211

> <r_i_glide_erotb>
0.845231343079803

> <r_i_glide_esite>
-0.2

> <r_i_glide_emodel>
-103.524491809781

> <r_i_glide_energy>
-63.2727184295654

> <r_i_glide_einternal>
13.0320777893066

> <i_i_glide_confnum>
27

> <i_i_glide_posenum>
252

> <r_i_glide_eff_state_penalty>
0

> <s_user_duplicate_titles>
CHEMBL1782_lig92,83754

> <i_f3d_flags>
0

> <s_m_subgroup_title>
dock_pv

> <s_m_subgroupid>
dock_pv

> <b_m_subgroup_collapsed>
1

$$$$
CHEMBL1782_lig114
                    3D
 Schrodinger Suite 2021-1.
 44 43  0  0  1  0            999 V2000
   15.5757   34.9837   -9.8434 C   0  0  0  0  0  0
   16.9858   33.9081  -10.3654 P   0  0  0  0  0  0
   16.2895   36.5637   -9.1646 P   0  0  0  0  0  0
   14.7823   34.3946   -8.7621 N   0  0  1  0  0  0
   17.5232   36.3232   -8.2847 O   0  0  0  0  0  0
   18.1010   33.7800   -9.3506 O   0  0  0  0  0  0
   16.2884   32.4142  -10.7630 O   0  0  0  0  0  0
   16.5010   37.4227  -10.6622 O   0  0  0  0  0  0
   14.9226   37.2352   -8.3650 O   0  0  0  0  0  0
   17.5174   34.6100  -11.8275 O   0  0  0  0  0  0
   13.6540   33.5840   -9.2097 C   0  0  0  0  0  0
   12.6610   33.2838   -8.0679 C   0  0  0  0  0  0
   14.8990   28.5184   -8.3067 C   0  0  0  0  0  0
   15.1840   28.4969   -6.8017 C   0  0  0  0  0  0
   14.0198   30.7740   -6.3649 C   0  0  0  0  0  0
   15.2558   29.8808   -6.1337 C   0  0  0  0  0  0
   13.2301   33.2146   -6.6358 C   0  0  0  0  0  0
   14.4177   32.2530   -6.4463 C   0  0  0  0  0  0
   15.5143   29.6674   -9.1256 C   0  0  0  0  0  0
   14.9092   35.1433  -10.6932 H   0  0  0  0  0  0
   15.3232   33.9127   -8.0559 H   0  0  0  0  0  0
   15.7149   31.9022  -10.1584 H   0  0  0  0  0  0
   17.3854   37.7802  -10.9557 H   0  0  0  0  0  0
   14.0144   36.9797   -8.6500 H   0  0  0  0  0  0
   17.8502   35.5281  -11.9241 H   0  0  0  0  0  0
   14.0005   32.6565   -9.6641 H   0  0  0  0  0  0
   13.0983   34.1340   -9.9672 H   0  0  0  0  0  0
   12.1276   32.3609   -8.3016 H   0  0  0  0  0  0
   11.8938   34.0596   -8.0762 H   0  0  0  0  0  0
   13.8126   28.5792   -8.3652 H   0  0  0  0  0  0
   15.1832   27.5590   -8.7410 H   0  0  0  0  0  0
   14.3848   27.9010   -6.3649 H   0  0  0  0  0  0
   16.1010   27.9467   -6.6035 H   0  0  0  0  0  0
   13.4865   30.5099   -7.2759 H   0  0  0  0  0  0
   13.3011   30.5987   -5.5649 H   0  0  0  0  0  0
   15.4286   29.7803   -5.0627 H   0  0  0  0  0  0
   16.1498   30.3771   -6.5076 H   0  0  0  0  0  0
   12.4173   32.9418   -5.9652 H   0  0  0  0  0  0
   13.5364   34.2157   -6.3295 H   0  0  0  0  0  0
   14.9820   32.5439   -5.5651 H   0  0  0  0  0  0
   15.1385   32.3584   -7.2537 H   0  0  0  0  0  0
   15.6098   29.3798  -10.1704 H   0  0  0  0  0  0
   16.5007   29.9517   -8.7644 H   0  0  0  0  0  0
   14.8871   30.5553   -9.0877 H   0  0  0  0  0  0
  1  2  1  0  0  0
  1  3  1  0  0  0
  1  4  1  0  0  0
  1 20  1  0  0  0
  2  6  2  0  0  0
  2  7  1  0  0  0
  2 10  1  0  0  0
  3  5  2  0  0  0
  3  8  1  0  0  0
  3  9  1  0  0  0
  4 11  1  0  0  0
  4 21  1  0  0  0
  7 22  1  0  0  0
  8 23  1  0  0  0
  9 24  1  0  0  0
 10 25  1  0  0  0
 11 12  1  0  0  0
 11 26  1  0  0  0
 11 27  1  0  0  0
 12 17  1  0  0  0
 12 28  1  0  0  0
 12 29  1  0  0  0
 13 14  1  0  0  0
 13 19  1  0  0  0
 13 30  1  0  0  0
 13 31  1  0  0  0
 14 16  1  0  0  0
 14 32  1  0  0  0
 14 33  1  0  0  0
 15 18  1  0  0  0
 15 16  1  0  0  0
 15 34  1  0  0  0
 15 35  1  0  0  0
 16 36  1  0  0  0
 16 37  1  0  0  0
 17 18  1  0  0  0
 17 38  1  0  0  0
 17 39  1  0  0  0
 18 40  1  0  0  0
 18 41  1  0  0  0
 19 42  1  0  0  0
 19 43  1  0  0  0
 19 44  1  0  0  0
M  END
> <s_m_entry_id>
3171

> <s_m_entry_name>
dock_pv.186

> <s_m_Source_Path>
/home/csk/Desktop/cluster/DUD-E-result/fpps

> <s_m_Source_File>
dock_pv.maegz

> <i_m_Source_File_Index>
186

> <chembl_id>
CHEMBL417549

> <chembl_pref_name>
(NONYLAMINO)METHYLENEDIPHOSPHONIC ACID

> <i_lp_mmshare_version>
53161

> <r_lp_tautomer_probability>
1

> <s_lp_Force_Field>
OPLS_2005

> <r_lp_Energy>
0.58038

> <b_lp_Chiralities_Consistent>
1

> <s_lp_Variant>
CHEMBL1782_lig114-1

> <s_i_glide_gridfile>
glide-grid_1zw5

> <i_i_glide_lignum>
126

> <i_i_glide_rotatable_bonds>
15

> <r_i_docking_score>
-7.25805424413883

> <r_i_glide_ligand_efficiency>
-0.382002854954675

> <r_i_glide_ligand_efficiency_sa>
-1.01933704697709

> <r_i_glide_ligand_efficiency_ln>
-1.84007263960074

> <r_i_glide_gscore>
-7.25805424413883

> <r_i_glide_lipo>
-0.694799248259286

> <r_i_glide_hbond>
0

> <r_i_glide_metal>
-2.01564303751228

> <r_i_glide_rewards>
-1.245981

> <r_i_glide_evdw>
-19.2820568084717

> <r_i_glide_ecoul>
-48.4204216003418

> <r_i_glide_erotb>
1.85077387500906

> <r_i_glide_esite>
-0.188301992952732

> <r_i_glide_emodel>
-112.323559141203

> <r_i_glide_energy>
-67.7024784088135

> <r_i_glide_einternal>
14.6899480819702

> <i_i_glide_confnum>
223

> <i_i_glide_posenum>
76

> <r_i_glide_eff_state_penalty>
0

> <s_user_duplicate_titles>
CHEMBL1782_lig114,84932

> <i_f3d_flags>
0

> <s_m_subgroup_title>
dock_pv

> <s_m_subgroupid>
dock_pv

> <b_m_subgroup_collapsed>
1

$$$$
CHEMBL1782_lig74
                    3D
 Schrodinger Suite 2021-1.
 52 52  0  0  1  0            999 V2000
   16.5755   35.9185   -8.8331 C   0  0  0  0  0  0
   17.8754   35.2607   -9.9650 P   0  0  0  0  0  0
   16.3032   37.7379   -9.0531 P   0  0  0  0  0  0
   15.2587   35.1076   -8.9520 C   0  0  0  0  0  0
   18.1010   33.7800   -9.8042 O   0  0  0  0  0  0
   15.7010   38.1800  -10.3650 O   0  0  0  0  0  0
   17.0776   35.7801   -7.5030 O   0  0  0  0  0  0
   17.3796   35.7800  -11.5053 O   0  0  0  0  0  0
   15.3010   38.0612   -7.7647 O   0  0  0  0  0  0
   19.2201   36.1399   -9.3858 O   0  0  0  0  0  0
   17.8521   38.3261   -8.7174 O   0  0  0  0  0  0
   15.2050   33.7306   -8.2439 C   0  0  0  0  0  0
   14.1191   32.9136   -8.7918 N   0  0  2  0  0  0
    9.6540   35.6553   -5.5473 C   0  0  0  0  0  0
   13.6764   31.8424   -7.8943 C   0  0  0  0  0  0
   14.5337   32.2906  -10.0471 C   0  0  0  0  0  0
    9.5495   34.1543   -5.7799 C   0  0  0  0  0  0
    9.9158   36.1401   -4.2616 C   0  0  0  0  0  0
    9.4304   36.5466   -6.6004 C   0  0  0  0  0  0
   12.9719   32.3551   -6.6251 C   0  0  0  0  0  0
   10.8623   33.3668   -5.5963 C   0  0  0  0  0  0
   11.7409   33.2597   -6.8571 C   0  0  0  0  0  0
    9.4548   37.9187   -6.3629 C   0  0  0  0  0  0
    9.9435   37.5122   -4.0261 C   0  0  0  0  0  0
    9.7010   38.3943   -5.0766 C   0  0  0  0  0  0
   14.4781   35.6946   -8.4668 H   0  0  0  0  0  0
   14.9275   35.0320   -9.9858 H   0  0  0  0  0  0
   16.5010   36.3000   -6.9261 H   0  0  0  0  0  0
   17.8925   36.4942  -11.9650 H   0  0  0  0  0  0
   14.3540   37.8977   -7.9275 H   0  0  0  0  0  0
   19.6288   36.8671   -9.9086 H   0  0  0  0  0  0
   18.0719   39.2130   -9.1016 H   0  0  0  0  0  0
   16.1583   33.2022   -8.2756 H   0  0  0  0  0  0
   15.0329   33.9229   -7.1863 H   0  0  0  0  0  0
   12.9687   31.2011   -8.4255 H   0  0  0  0  0  0
   14.5223   31.2082   -7.6197 H   0  0  0  0  0  0
   13.7010   31.7495  -10.4994 H   0  0  0  0  0  0
   14.8629   33.0315  -10.7720 H   0  0  0  0  0  0
   15.3516   31.5830   -9.8978 H   0  0  0  0  0  0
    9.1321   33.9522   -6.7649 H   0  0  0  0  0  0
    8.8089   33.7824   -5.0713 H   0  0  0  0  0  0
   10.0826   35.4547   -3.4432 H   0  0  0  0  0  0
    9.2335   36.1792   -7.5980 H   0  0  0  0  0  0
   12.6562   31.4645   -6.0789 H   0  0  0  0  0  0
   13.6897   32.8339   -5.9650 H   0  0  0  0  0  0
   10.6070   32.3469   -5.3062 H   0  0  0  0  0  0
   11.4343   33.7800   -4.7653 H   0  0  0  0  0  0
   12.0601   34.2494   -7.1872 H   0  0  0  0  0  0
   11.1454   32.8457   -7.6729 H   0  0  0  0  0  0
    9.3010   38.6204   -7.1687 H   0  0  0  0  0  0
   10.1355   37.8945   -3.0336 H   0  0  0  0  0  0
    9.7087   39.4610   -4.8946 H   0  0  0  0  0  0
  1  2  1  0  0  0
  1  3  1  0  0  0
  1  4  1  0  0  0
  1  7  1  0  0  0
  2  5  2  0  0  0
  2  8  1  0  0  0
  2 10  1  0  0  0
  3  6  2  0  0  0
  3  9  1  0  0  0
  3 11  1  0  0  0
  4 12  1  0  0  0
  4 26  1  0  0  0
  4 27  1  0  0  0
  7 28  1  0  0  0
  8 29  1  0  0  0
  9 30  1  0  0  0
 10 31  1  0  0  0
 11 32  1  0  0  0
 12 13  1  0  0  0
 12 33  1  0  0  0
 12 34  1  0  0  0
 13 15  1  0  0  0
 13 16  1  0  0  0
 14 17  1  0  0  0
 14 18  2  0  0  0
 14 19  1  0  0  0
 15 20  1  0  0  0
 15 35  1  0  0  0
 15 36  1  0  0  0
 16 37  1  0  0  0
 16 38  1  0  0  0
 16 39  1  0  0  0
 17 21  1  0  0  0
 17 40  1  0  0  0
 17 41  1  0  0  0
 18 24  1  0  0  0
 18 42  1  0  0  0
 19 23  2  0  0  0
 19 43  1  0  0  0
 20 22  1  0  0  0
 20 44  1  0  0  0
 20 45  1  0  0  0
 21 22  1  0  0  0
 21 46  1  0  0  0
 21 47  1  0  0  0
 22 48  1  0  0  0
 22 49  1  0  0  0
 23 25  1  0  0  0
 23 50  1  0  0  0
 24 25  2  0  0  0
 24 51  1  0  0  0
 25 52  1  0  0  0
M  END
> <s_m_entry_id>
3172

> <s_m_entry_name>
dock_pv.187

> <s_m_Source_Path>
/home/csk/Desktop/cluster/DUD-E-result/fpps

> <s_m_Source_File>
dock_pv.maegz

> <i_m_Source_File_Index>
187

> <chembl_id>
CHEMBL102185

> <chembl_pref_name>
None

> <i_lp_mmshare_version>
53161

> <r_lp_tautomer_probability>
1

> <s_lp_Force_Field>
OPLS_2005

> <r_lp_Energy>
5.442077

> <b_lp_Chiralities_Consistent>
1

> <s_lp_Variant>
CHEMBL1782_lig74-1

> <s_i_glide_gridfile>
glide-grid_1zw5

> <i_i_glide_lignum>
82

> <i_i_glide_rotatable_bonds>
16

> <r_i_docking_score>
-7.24951194609192

> <r_i_glide_ligand_efficiency>
-0.289980477843677

> <r_i_glide_ligand_efficiency_sa>
-0.847908060040583

> <r_i_glide_ligand_efficiency_ln>
-1.71835158156578

> <r_i_glide_gscore>
-7.24951194609192

> <r_i_glide_lipo>
-0.259694598866275

> <r_i_glide_hbond>
0

> <r_i_glide_metal>
-2.3

> <r_i_glide_rewards>
-0.713693863636362

> <r_i_glide_evdw>
-20.5461826324463

> <r_i_glide_ecoul>
-56.5232009887695

> <r_i_glide_erotb>
1.25118564803304

> <r_i_glide_esite>
-0.2

> <r_i_glide_emodel>
-125.352223631599

> <r_i_glide_energy>
-77.0693836212158

> <r_i_glide_einternal>
26.3139324188232

> <i_i_glide_confnum>
256

> <i_i_glide_posenum>
370

> <r_i_glide_eff_state_penalty>
0

> <s_user_duplicate_titles>
CHEMBL1782_lig74

> <i_f3d_flags>
0

> <s_m_subgroup_title>
dock_pv

> <s_m_subgroupid>
dock_pv

> <b_m_subgroup_collapsed>
1

$$$$
CHEMBL1782_lig127
                    3D
 Schrodinger Suite 2021-1.
 32 31  0  0  1  0            999 V2000
   16.8270   36.4331   -9.6760 C   0  0  0  0  0  0
   17.8380   35.0071  -10.4263 P   0  0  0  0  0  0
   17.6850   37.4341   -8.3325 P   0  0  0  0  0  0
   18.1010   33.7800   -9.5650 O   0  0  0  0  0  0
   18.1010   36.5800   -7.1550 O   0  0  0  0  0  0
   16.5010   37.3800  -10.7650 N   0  0  0  0  0  0
   17.0611   34.6816  -11.9069 O   0  0  0  0  0  0
   18.9884   38.1271   -9.1650 O   0  0  0  0  0  0
   16.5743   38.6736   -7.9654 O   0  0  0  0  0  0
   19.2820   35.7800  -10.8601 O   0  0  0  0  0  0
   15.5086   35.8681   -9.0671 C   0  0  0  0  0  0
   15.5932   34.9865   -7.7916 C   0  0  0  0  0  0
   14.2793   32.7521   -8.0343 C   0  0  0  0  0  0
   14.3087   34.1904   -7.4758 C   0  0  0  0  0  0
   14.2464   32.6592   -9.5650 C   0  0  0  0  0  0
   16.5010   38.3060  -10.3289 H   0  0  0  0  0  0
   17.3276   37.4650  -11.3792 H   0  0  0  0  0  0
   17.4499   34.9800  -12.7539 H   0  0  0  0  0  0
   19.0108   38.2960  -10.1339 H   0  0  0  0  0  0
   16.7900   39.6044   -8.1961 H   0  0  0  0  0  0
   19.3010   36.6980  -11.2608 H   0  0  0  0  0  0
   14.9878   35.3034   -9.8371 H   0  0  0  0  0  0
   14.8677   36.7063   -8.7871 H   0  0  0  0  0  0
   15.7840   35.6355   -6.9368 H   0  0  0  0  0  0
   16.4302   34.2947   -7.8280 H   0  0  0  0  0  0
   13.3956   32.2458   -7.6423 H   0  0  0  0  0  0
   15.1324   32.1874   -7.6539 H   0  0  0  0  0  0
   13.4266   34.7411   -7.8087 H   0  0  0  0  0  0
   14.2082   34.1149   -6.3919 H   0  0  0  0  0  0
   14.0836   31.6307   -9.8902 H   0  0  0  0  0  0
   15.1802   32.9986  -10.0122 H   0  0  0  0  0  0
   13.4332   33.2636   -9.9650 H   0  0  0  0  0  0
  1  2  1  0  0  0
  1  3  1  0  0  0
  1  6  1  0  0  0
  1 11  1  0  0  0
  2  4  2  0  0  0
  2  7  1  0  0  0
  2 10  1  0  0  0
  3  5  2  0  0  0
  3  8  1  0  0  0
  3  9  1  0  0  0
  6 16  1  0  0  0
  6 17  1  0  0  0
  7 18  1  0  0  0
  8 19  1  0  0  0
  9 20  1  0  0  0
 10 21  1  0  0  0
 11 12  1  0  0  0
 11 22  1  0  0  0
 11 23  1  0  0  0
 12 14  1  0  0  0
 12 24  1  0  0  0
 12 25  1  0  0  0
 13 14  1  0  0  0
 13 15  1  0  0  0
 13 26  1  0  0  0
 13 27  1  0  0  0
 14 28  1  0  0  0
 14 29  1  0  0  0
 15 30  1  0  0  0
 15 31  1  0  0  0
 15 32  1  0  0  0
M  END
> <s_m_entry_id>
3173

> <s_m_entry_name>
dock_pv.188

> <s_m_Source_Path>
/home/csk/Desktop/cluster/DUD-E-result/fpps

> <s_m_Source_File>
dock_pv.maegz

> <i_m_Source_File_Index>
188

> <chembl_id>
CHEMBL198510

> <chembl_pref_name>
None

> <i_lp_mmshare_version>
53161

> <r_lp_tautomer_probability>
1

> <s_lp_Force_Field>
OPLS_2005

> <r_lp_Energy>
-6.128937

> <b_lp_Chiralities_Consistent>
1

> <s_lp_Variant>
CHEMBL1782_lig127-1

> <s_i_glide_gridfile>
glide-grid_1zw5

> <i_i_glide_lignum>
139

> <i_i_glide_rotatable_bonds>
10

> <r_i_docking_score>
-7.23511277468209

> <r_i_glide_ligand_efficiency>
-0.482340851645473

> <r_i_glide_ligand_efficiency_sa>
-1.18955483119712

> <r_i_glide_ligand_efficiency_ln>
-1.95119062102543

> <r_i_glide_gscore>
-7.23511277468209

> <r_i_glide_lipo>
0

> <r_i_glide_hbond>
-0.198785535207309

> <r_i_glide_metal>
-2.3

> <r_i_glide_rewards>
-1.62852409090909

> <r_i_glide_evdw>
-4.13306379318237

> <r_i_glide_ecoul>
-62.3946418762207

> <r_i_glide_erotb>
1.29885004109343

> <r_i_glide_esite>
-0.2

> <r_i_glide_emodel>
-110.986096647674

> <r_i_glide_energy>
-66.5277056694031

> <r_i_glide_einternal>
18.3667411804199

> <i_i_glide_confnum>
231

> <i_i_glide_posenum>
350

> <r_i_glide_eff_state_penalty>
0

> <s_user_duplicate_titles>
CHEMBL1782_lig127,330447

> <i_f3d_flags>
0

> <s_m_subgroup_title>
dock_pv

> <s_m_subgroupid>
dock_pv

> <b_m_subgroup_collapsed>
1

$$$$
CHEMBL1782_lig200
                    3D
 Schrodinger Suite 2021-1.
 41 41  0  0  1  0            999 V2000
   13.1099   33.3980   -8.3300 C   0  0  0  0  0  0
   12.6194   32.1787   -7.8994 N   0  0  0  0  0  0
   13.6283   31.5738   -7.1650 C   0  0  0  0  0  0
   14.6958   32.4635   -7.0835 C   0  0  0  0  0  0
   14.3514   33.6142   -7.7794 N   0  3  0  0  0  0
   11.2829   31.6281   -8.1266 C   0  0  0  0  0  0
   15.1434   34.8284   -7.9362 C   0  0  0  0  0  0
   15.5750   35.0587   -9.4057 C   0  0  0  0  0  0
   16.5246   33.6502  -10.0447 P   0  0  0  0  0  0
   17.7010   33.3800   -9.1650 O   0  0  0  0  0  0
   15.4328   32.3543  -10.1899 O   0  0  0  0  0  0
   17.0213   34.1844  -11.5650 O   0  0  0  0  0  0
   16.4756   36.7163   -9.6022 P   0  0  0  0  0  0
   16.9453   37.1249   -8.0087 O   0  0  0  0  0  0
   15.7023   37.7800  -10.3650 O   0  0  0  0  0  0
   17.9291   36.2344  -10.3650 O   0  0  0  0  0  0
   10.2807   32.6657   -8.6753 C   0  0  0  0  0  0
   10.0657   33.8870   -7.7462 C   0  0  0  0  0  0
    9.7194   35.1556   -8.5372 C   0  0  0  0  0  0
    9.3949   36.3608   -7.6459 C   0  0  0  0  0  0
   12.5761   34.1086   -8.9462 H   0  0  0  0  0  0
   13.4801   30.5867   -6.7430 H   0  0  0  0  0  0
   15.6476   32.3750   -6.5764 H   0  0  0  0  0  0
   10.9083   31.2925   -7.1650 H   0  0  0  0  0  0
   11.3663   30.7483   -8.7650 H   0  0  0  0  0  0
   14.5295   35.6632   -7.5950 H   0  0  0  0  0  0
   16.0033   34.7712   -7.2678 H   0  0  0  0  0  0
   14.6876   34.9800  -10.0262 H   0  0  0  0  0  0
   14.8987   32.0027   -9.4508 H   0  0  0  0  0  0
   17.5339   35.0182  -11.6583 H   0  0  0  0  0  0
   18.4296   36.8828  -10.9477 H   0  0  0  0  0  0
    9.3207   32.1800   -8.8569 H   0  0  0  0  0  0
   10.6152   32.9854   -9.6630 H   0  0  0  0  0  0
   10.9425   34.1008   -7.1373 H   0  0  0  0  0  0
    9.3010   33.6592   -7.0094 H   0  0  0  0  0  0
    8.9010   34.9801   -9.2346 H   0  0  0  0  0  0
   10.5771   35.3800   -9.1650 H   0  0  0  0  0  0
    9.3010   37.2670   -8.2434 H   0  0  0  0  0  0
   10.1837   36.5374   -6.9152 H   0  0  0  0  0  0
    8.4594   36.2121   -7.1063 H   0  0  0  0  0  0
   17.1575   38.0577   -7.7877 H   0  0  0  0  0  0
  1  2  1  0  0  0
  1  5  2  0  0  0
  1 21  1  0  0  0
  2  3  1  0  0  0
  2  6  1  0  0  0
  3  4  2  0  0  0
  3 22  1  0  0  0
  4  5  1  0  0  0
  4 23  1  0  0  0
  5  7  1  0  0  0
  6 17  1  0  0  0
  6 24  1  0  0  0
  6 25  1  0  0  0
  7  8  1  0  0  0
  7 26  1  0  0  0
  7 27  1  0  0  0
  8  9  1  0  0  0
  8 13  1  0  0  0
  8 28  1  0  0  0
  9 10  2  0  0  0
  9 11  1  0  0  0
  9 12  1  0  0  0
 11 29  1  0  0  0
 12 30  1  0  0  0
 13 14  1  0  0  0
 13 15  2  0  0  0
 13 16  1  0  0  0
 14 41  1  0  0  0
 16 31  1  0  0  0
 17 18  1  0  0  0
 17 32  1  0  0  0
 17 33  1  0  0  0
 18 19  1  0  0  0
 18 34  1  0  0  0
 18 35  1  0  0  0
 19 20  1  0  0  0
 19 36  1  0  0  0
 19 37  1  0  0  0
 20 38  1  0  0  0
 20 39  1  0  0  0
 20 40  1  0  0  0
M  CHG  1   5   1
M  END
> <s_m_entry_id>
3174

> <s_m_entry_name>
dock_pv.189

> <s_m_Source_Path>
/home/csk/Desktop/cluster/DUD-E-result/fpps

> <s_m_Source_File>
dock_pv.maegz

> <i_m_Source_File_Index>
189

> <chembl_id>
CHEMBL2338373

> <chembl_pref_name>
None

> <i_lp_mmshare_version>
53161

> <r_lp_tautomer_probability>
1

> <s_lp_Force_Field>
OPLS_2005

> <r_lp_Energy>
0.874659

> <b_lp_Chiralities_Consistent>
1

> <s_lp_Variant>
CHEMBL1782_lig200-1

> <s_i_glide_gridfile>
glide-grid_1zw5

> <i_i_glide_lignum>
224

> <i_i_glide_rotatable_bonds>
12

> <r_i_docking_score>
-7.22951103686793

> <r_i_glide_ligand_efficiency>
-0.361475551843396

> <r_i_glide_ligand_efficiency_sa>
-0.981195604912281

> <r_i_glide_ligand_efficiency_ln>
-1.80930816729562

> <r_i_glide_gscore>
-7.22951103686793

> <r_i_glide_lipo>
-0.19965118493934

> <r_i_glide_hbond>
0

> <r_i_glide_metal>
-2.3

> <r_i_glide_rewards>
-0.877970045454545

> <r_i_glide_evdw>
-15.2261934280396

> <r_i_glide_ecoul>
-48.3551788330078

> <r_i_glide_erotb>
1.22672378675608

> <r_i_glide_esite>
-0.317303921828141

> <r_i_glide_emodel>
-93.1499772993652

> <r_i_glide_energy>
-63.5813722610474

> <r_i_glide_einternal>
16.0130805969238

> <i_i_glide_confnum>
258

> <i_i_glide_posenum>
313

> <r_i_glide_eff_state_penalty>
0

> <s_user_duplicate_titles>
CHEMBL1782_lig200

> <i_f3d_flags>
0

> <s_m_subgroup_title>
dock_pv

> <s_m_subgroupid>
dock_pv

> <b_m_subgroup_collapsed>
1

$$$$
CHEMBL1782_lig193
                    3D
 Schrodinger Suite 2021-1.
 63 63  0  0  1  0            999 V2000
   15.2230   33.7413   -7.7917 C   0  0  0  0  0  0
   14.8376   32.5382   -8.3522 N   0  0  0  0  0  0
   14.8165   32.7106   -9.7240 C   0  0  0  0  0  0
   15.1732   34.0232   -9.9900 C   0  0  0  0  0  0
   15.4472   34.6693   -8.7954 N   0  3  0  0  0  0
   14.4802   31.3149   -7.6471 C   0  0  0  0  0  0
   15.8787   36.0646   -8.6240 C   0  0  0  0  0  0
   17.0835   36.5491   -9.5296 C   0  0  0  0  0  0
   18.1498   37.7150   -8.4432 P   0  0  0  0  0  0
   18.7925   36.9800   -7.2859 O   0  0  0  0  0  0
   19.2986   38.2875   -9.5650 O   0  0  0  0  0  0
   17.0766   38.9503   -7.9650 O   0  0  0  0  0  0
   16.5010   37.3095  -10.6106 O   0  0  0  0  0  0
   18.1161   35.1217  -10.3176 P   0  0  0  0  0  0
   17.5938   35.0445  -11.9410 O   0  0  0  0  0  0
   18.1010   33.7805   -9.5824 O   0  0  0  0  0  0
   19.6945   35.7634  -10.3648 O   0  0  0  0  0  0
   13.0526   30.8387   -8.0095 C   0  0  0  0  0  0
   11.9023   31.7752   -7.5706 C   0  0  0  0  0  0
   11.6716   32.9954   -8.4848 C   0  0  0  0  0  0
   10.4390   33.8283   -8.1179 C   0  0  0  0  0  0
   10.5465   34.5746   -6.7711 C   0  0  0  0  0  0
    9.4708   35.6660   -6.6279 C   0  0  0  0  0  0
    9.5116   36.4550   -5.3032 C   0  0  0  0  0  0
    9.0428   35.6985   -4.0403 C   0  0  0  0  0  0
    7.6531   35.0311   -4.1598 C   0  0  0  0  0  0
    6.8401   34.9876   -2.8477 C   0  0  0  0  0  0
    7.4852   34.1766   -1.7159 C   0  0  0  0  0  0
   15.3203   33.9141   -6.7317 H   0  0  0  0  0  0
   14.5247   31.8904  -10.3650 H   0  0  0  0  0  0
   15.3010   34.5445  -10.9237 H   0  0  0  0  0  0
   14.5608   31.4900   -6.5728 H   0  0  0  0  0  0
   15.2176   30.5500   -7.8984 H   0  0  0  0  0  0
   14.9962   36.6935   -8.7650 H   0  0  0  0  0  0
   16.1181   36.1859   -7.5669 H   0  0  0  0  0  0
   19.1723   38.3166  -10.5553 H   0  0  0  0  0  0
   17.1156   39.7895   -8.4904 H   0  0  0  0  0  0
   17.1800   37.9269  -10.9380 H   0  0  0  0  0  0
   19.9202   36.7193  -10.3220 H   0  0  0  0  0  0
   12.9011   29.8628   -7.5488 H   0  0  0  0  0  0
   12.9731   30.6307   -9.0778 H   0  0  0  0  0  0
   12.0583   32.0894   -6.5380 H   0  0  0  0  0  0
   10.9828   31.1875   -7.5650 H   0  0  0  0  0  0
   11.5577   32.6451   -9.5119 H   0  0  0  0  0  0
   12.5290   33.6622   -8.4875 H   0  0  0  0  0  0
    9.5764   33.1664   -8.1149 H   0  0  0  0  0  0
   10.2688   34.5485   -8.9208 H   0  0  0  0  0  0
   11.5308   35.0379   -6.6908 H   0  0  0  0  0  0
   10.4734   33.8624   -5.9485 H   0  0  0  0  0  0
    8.4831   35.2294   -6.7660 H   0  0  0  0  0  0
    9.5911   36.3744   -7.4497 H   0  0  0  0  0  0
    8.9010   37.3497   -5.4222 H   0  0  0  0  0  0
   10.5207   36.8291   -5.1351 H   0  0  0  0  0  0
    9.0380   36.4112   -3.2138 H   0  0  0  0  0  0
    9.7824   34.9449   -3.7656 H   0  0  0  0  0  0
    7.7849   34.0279   -4.5601 H   0  0  0  0  0  0
    7.0521   35.5498   -4.9061 H   0  0  0  0  0  0
    5.8489   34.5797   -3.0532 H   0  0  0  0  0  0
    6.6694   36.0052   -2.4945 H   0  0  0  0  0  0
    6.9006   34.2586   -0.7985 H   0  0  0  0  0  0
    8.4913   34.5336   -1.4976 H   0  0  0  0  0  0
    7.5357   33.1178   -1.9649 H   0  0  0  0  0  0
   17.4115   35.8506  -12.4671 H   0  0  0  0  0  0
  1  2  1  0  0  0
  1  5  2  0  0  0
  1 29  1  0  0  0
  2  3  1  0  0  0
  2  6  1  0  0  0
  3  4  2  0  0  0
  3 30  1  0  0  0
  4  5  1  0  0  0
  4 31  1  0  0  0
  5  7  1  0  0  0
  6 18  1  0  0  0
  6 32  1  0  0  0
  6 33  1  0  0  0
  7  8  1  0  0  0
  7 34  1  0  0  0
  7 35  1  0  0  0
  8  9  1  0  0  0
  8 13  1  0  0  0
  8 14  1  0  0  0
  9 10  2  0  0  0
  9 11  1  0  0  0
  9 12  1  0  0  0
 11 36  1  0  0  0
 12 37  1  0  0  0
 13 38  1  0  0  0
 14 15  1  0  0  0
 14 16  2  0  0  0
 14 17  1  0  0  0
 15 63  1  0  0  0
 17 39  1  0  0  0
 18 19  1  0  0  0
 18 40  1  0  0  0
 18 41  1  0  0  0
 19 20  1  0  0  0
 19 42  1  0  0  0
 19 43  1  0  0  0
 20 21  1  0  0  0
 20 44  1  0  0  0
 20 45  1  0  0  0
 21 22  1  0  0  0
 21 46  1  0  0  0
 21 47  1  0  0  0
 22 23  1  0  0  0
 22 48  1  0  0  0
 22 49  1  0  0  0
 23 24  1  0  0  0
 23 50  1  0  0  0
 23 51  1  0  0  0
 24 25  1  0  0  0
 24 52  1  0  0  0
 24 53  1  0  0  0
 25 26  1  0  0  0
 25 54  1  0  0  0
 25 55  1  0  0  0
 26 27  1  0  0  0
 26 56  1  0  0  0
 26 57  1  0  0  0
 27 28  1  0  0  0
 27 58  1  0  0  0
 27 59  1  0  0  0
 28 60  1  0  0  0
 28 61  1  0  0  0
 28 62  1  0  0  0
M  CHG  1   5   1
M  END
> <s_m_entry_id>
3175

> <s_m_entry_name>
dock_pv.190

> <s_m_Source_Path>
/home/csk/Desktop/cluster/DUD-E-result/fpps

> <s_m_Source_File>
dock_pv.maegz

> <i_m_Source_File_Index>
190

> <chembl_id>
CHEMBL2338364

> <chembl_pref_name>
None

> <i_lp_mmshare_version>
53161

> <r_lp_tautomer_probability>
1

> <s_lp_Force_Field>
OPLS_2005

> <r_lp_Energy>
3.610221

> <b_lp_Chiralities_Consistent>
1

> <s_lp_Variant>
CHEMBL1782_lig193-1

> <s_i_glide_gridfile>
glide-grid_1zw5

> <i_i_glide_lignum>
217

> <i_i_glide_rotatable_bonds>
20

> <r_i_docking_score>
-7.21743604251842

> <r_i_glide_ligand_efficiency>
-0.257765572947086

> <r_i_glide_ligand_efficiency_sa>
-0.782728095270931

> <r_i_glide_ligand_efficiency_ln>
-1.66599615174366

> <r_i_glide_gscore>
-7.21743604251842

> <r_i_glide_lipo>
-0.525460588063275

> <r_i_glide_hbond>
0

> <r_i_glide_metal>
-1.73612720787856

> <r_i_glide_rewards>
-0.249432818181816

> <r_i_glide_evdw>
-34.9355583190918

> <r_i_glide_ecoul>
-45.4187469482422

> <r_i_glide_erotb>
1.43520531618371

> <r_i_glide_esite>
-0.394842828623888

> <r_i_glide_emodel>
-113.91203023056

> <r_i_glide_energy>
-80.354305267334

> <r_i_glide_einternal>
28.6302795410156

> <i_i_glide_confnum>
131

> <i_i_glide_posenum>
289

> <r_i_glide_eff_state_penalty>
0

> <s_user_duplicate_titles>
CHEMBL1782_lig193

> <i_f3d_flags>
0

> <s_m_subgroup_title>
dock_pv

> <s_m_subgroupid>
dock_pv

> <b_m_subgroup_collapsed>
1

$$$$
CHEMBL1782_lig78
                    3D
 Schrodinger Suite 2021-1.
 31 30  0  0  1  0            999 V2000
   16.9895   36.1350  -10.1075 C   0  0  0  0  0  0
   18.1134   34.8014  -10.9221 P   0  0  0  0  0  0
   17.7069   37.2983   -8.7856 P   0  0  0  0  0  0
   18.1010   33.3800  -10.3650 O   0  0  0  0  0  0
   18.1010   36.5800   -7.5096 O   0  0  0  0  0  0
   16.5010   36.9800  -11.1650 O   0  0  0  0  0  0
   17.7329   34.9098  -12.5841 O   0  0  0  0  0  0
   19.6691   35.4666  -10.7650 O   0  0  0  0  0  0
   19.0382   38.0006   -9.5650 O   0  0  0  0  0  0
   16.5471   38.5462   -8.6275 O   0  0  0  0  0  0
   15.7010   35.4754   -9.5317 C   0  0  0  0  0  0
   15.8172   34.4764   -8.3523 C   0  0  0  0  0  0
   13.8916   32.8550   -9.0867 C   0  0  0  0  0  0
   14.4868   33.7757   -7.9981 C   0  0  0  0  0  0
   14.8008   31.6905   -9.5105 C   0  0  0  0  0  0
   17.2774   37.4307  -11.5584 H   0  0  0  0  0  0
   17.3589   35.7102  -13.0029 H   0  0  0  0  0  0
   19.8480   36.4311  -10.7320 H   0  0  0  0  0  0
   19.0549   38.1800  -10.5482 H   0  0  0  0  0  0
   16.7851   39.4440   -8.9878 H   0  0  0  0  0  0
   15.1827   34.9800  -10.3524 H   0  0  0  0  0  0
   15.0366   36.2609   -9.1650 H   0  0  0  0  0  0
   16.1405   35.0064   -7.4579 H   0  0  0  0  0  0
   16.5632   33.7090   -8.5302 H   0  0  0  0  0  0
   13.6123   33.4364   -9.9650 H   0  0  0  0  0  0
   12.9545   32.4389   -8.7132 H   0  0  0  0  0  0
   13.7440   34.5317   -7.7382 H   0  0  0  0  0  0
   14.6328   33.1867   -7.0907 H   0  0  0  0  0  0
   14.2779   31.0258  -10.1997 H   0  0  0  0  0  0
   15.1079   31.0924   -8.6516 H   0  0  0  0  0  0
   15.6990   32.0419  -10.0165 H   0  0  0  0  0  0
  1  2  1  0  0  0
  1  3  1  0  0  0
  1  6  1  0  0  0
  1 11  1  0  0  0
  2  4  2  0  0  0
  2  7  1  0  0  0
  2  8  1  0  0  0
  3  5  2  0  0  0
  3  9  1  0  0  0
  3 10  1  0  0  0
  6 16  1  0  0  0
  7 17  1  0  0  0
  8 18  1  0  0  0
  9 19  1  0  0  0
 10 20  1  0  0  0
 11 12  1  0  0  0
 11 21  1  0  0  0
 11 22  1  0  0  0
 12 14  1  0  0  0
 12 23  1  0  0  0
 12 24  1  0  0  0
 13 14  1  0  0  0
 13 15  1  0  0  0
 13 25  1  0  0  0
 13 26  1  0  0  0
 14 27  1  0  0  0
 14 28  1  0  0  0
 15 29  1  0  0  0
 15 30  1  0  0  0
 15 31  1  0  0  0
M  END
> <s_m_entry_id>
3176

> <s_m_entry_name>
dock_pv.191

> <s_m_Source_Path>
/home/csk/Desktop/cluster/DUD-E-result/fpps

> <s_m_Source_File>
dock_pv.maegz

> <i_m_Source_File_Index>
191

> <chembl_id>
CHEMBL299988

> <chembl_pref_name>
None

> <i_lp_mmshare_version>
53161

> <r_lp_tautomer_probability>
1

> <s_lp_Force_Field>
OPLS_2005

> <r_lp_Energy>
-10.731922

> <b_lp_Chiralities_Consistent>
1

> <s_lp_Variant>
CHEMBL1782_lig78-1

> <s_i_glide_gridfile>
glide-grid_1zw5

> <i_i_glide_lignum>
86

> <i_i_glide_rotatable_bonds>
11

> <r_i_docking_score>
-7.20447699957057

> <r_i_glide_ligand_efficiency>
-0.480298466638038

> <r_i_glide_ligand_efficiency_sa>
-1.1845178766359

> <r_i_glide_ligand_efficiency_ln>
-1.94292865760799

> <r_i_glide_gscore>
-7.20447699957057

> <r_i_glide_lipo>
0

> <r_i_glide_hbond>
0

> <r_i_glide_metal>
-2.3

> <r_i_glide_rewards>
-1.62180981818182

> <r_i_glide_evdw>
-7.46238231658936

> <r_i_glide_ecoul>
-58.0167388916016

> <r_i_glide_erotb>
1.29045193444071

> <r_i_glide_esite>
-0.2

> <r_i_glide_emodel>
-108.895745141306

> <r_i_glide_energy>
-65.4791212081909

> <r_i_glide_einternal>
21.3364601135254

> <i_i_glide_confnum>
215

> <i_i_glide_posenum>
347

> <r_i_glide_eff_state_penalty>
0

> <s_user_duplicate_titles>
CHEMBL1782_lig78,83813

> <i_f3d_flags>
0

> <s_m_subgroup_title>
dock_pv

> <s_m_subgroupid>
dock_pv

> <b_m_subgroup_collapsed>
1

$$$$
CHEMBL1782_lig102
                    3D
 Schrodinger Suite 2021-1.
 49 48  0  0  1  0            999 V2000
   10.3588   35.2026   -3.6014 C   0  0  0  0  0  0
    9.0213   35.4475   -4.3183 C   0  0  0  0  0  0
    9.1600   35.8056   -5.8124 C   0  0  0  0  0  0
    9.7008   34.6543   -6.6802 C   0  0  0  0  0  0
    9.8069   35.0109   -8.1773 C   0  0  0  0  0  0
   10.1143   33.8137   -9.1091 C   0  0  0  0  0  0
   11.3190   32.9547   -8.7075 C   0  0  0  0  0  0
   12.6315   33.7358   -8.7148 C   0  0  0  0  0  0
   13.8196   32.8908   -8.2415 C   0  0  0  0  0  0
   15.1621   33.4746   -8.6866 C   0  0  0  0  0  0
   15.4040   34.9427   -8.2426 C   0  0  0  0  0  0
   16.6715   35.6156   -8.8249 C   0  0  0  0  0  0
   16.5603   35.9838  -10.6662 P   0  0  0  0  0  0
   16.1011   37.6554  -10.7582 O   0  0  0  0  0  0
   15.7010   35.1206  -11.5359 O   0  0  0  0  0  0
   18.1855   35.7800  -11.1067 O   0  0  0  0  0  0
   17.3010   36.9801   -7.7062 P   0  0  0  0  0  0
   16.6062   38.3117   -7.6380 O   0  0  0  0  0  0
   17.5593   36.1798   -6.2330 O   0  0  0  0  0  0
   18.9811   36.9476   -8.0048 O   0  0  0  0  0  0
   17.7010   34.6517   -8.7678 O   0  0  0  0  0  0
   10.2011   35.0054   -2.5412 H   0  0  0  0  0  0
   11.0055   36.0761   -3.6791 H   0  0  0  0  0  0
   10.8955   34.3465   -4.0131 H   0  0  0  0  0  0
    8.3807   34.5722   -4.2070 H   0  0  0  0  0  0
    8.5048   36.2579   -3.8050 H   0  0  0  0  0  0
    8.1823   36.1005   -6.1955 H   0  0  0  0  0  0
    9.7990   36.6830   -5.9220 H   0  0  0  0  0  0
   10.6857   34.3586   -6.3195 H   0  0  0  0  0  0
    9.0610   33.7827   -6.5540 H   0  0  0  0  0  0
    8.8909   35.4877   -8.5181 H   0  0  0  0  0  0
   10.5659   35.7797   -8.3043 H   0  0  0  0  0  0
    9.2720   33.1347   -9.1650 H   0  0  0  0  0  0
   10.2537   34.1828  -10.1268 H   0  0  0  0  0  0
   11.1532   32.5035   -7.7285 H   0  0  0  0  0  0
   11.3986   32.1196   -9.4042 H   0  0  0  0  0  0
   12.8135   34.1162   -9.7215 H   0  0  0  0  0  0
   12.5441   34.6124   -8.0736 H   0  0  0  0  0  0
   13.7913   32.7854   -7.1557 H   0  0  0  0  0  0
   13.7388   31.8786   -8.6433 H   0  0  0  0  0  0
   15.9503   32.8300   -8.2937 H   0  0  0  0  0  0
   15.2223   33.3896   -9.7709 H   0  0  0  0  0  0
   14.5512   35.5710   -8.5023 H   0  0  0  0  0  0
   15.4422   34.9426   -7.1527 H   0  0  0  0  0  0
   16.4589   38.3375  -10.1327 H   0  0  0  0  0  0
   18.6035   36.6053  -11.5245 H   0  0  0  0  0  0
   17.5348   36.6692   -5.3805 H   0  0  0  0  0  0
   19.4985   37.7780   -8.1383 H   0  0  0  0  0  0
   18.1680   34.7716   -9.6165 H   0  0  0  0  0  0
  1  2  1  0  0  0
  1 22  1  0  0  0
  1 23  1  0  0  0
  1 24  1  0  0  0
  2  3  1  0  0  0
  2 25  1  0  0  0
  2 26  1  0  0  0
  3  4  1  0  0  0
  3 27  1  0  0  0
  3 28  1  0  0  0
  4  5  1  0  0  0
  4 29  1  0  0  0
  4 30  1  0  0  0
  5  6  1  0  0  0
  5 31  1  0  0  0
  5 32  1  0  0  0
  6  7  1  0  0  0
  6 33  1  0  0  0
  6 34  1  0  0  0
  7  8  1  0  0  0
  7 35  1  0  0  0
  7 36  1  0  0  0
  8  9  1  0  0  0
  8 37  1  0  0  0
  8 38  1  0  0  0
  9 10  1  0  0  0
  9 39  1  0  0  0
  9 40  1  0  0  0
 10 11  1  0  0  0
 10 41  1  0  0  0
 10 42  1  0  0  0
 11 12  1  0  0  0
 11 43  1  0  0  0
 11 44  1  0  0  0
 12 13  1  0  0  0
 12 17  1  0  0  0
 12 21  1  0  0  0
 13 15  2  0  0  0
 13 14  1  0  0  0
 13 16  1  0  0  0
 14 45  1  0  0  0
 16 46  1  0  0  0
 17 18  2  0  0  0
 17 19  1  0  0  0
 17 20  1  0  0  0
 19 47  1  0  0  0
 20 48  1  0  0  0
 21 49  1  0  0  0
M  END
> <s_m_entry_id>
3177

> <s_m_entry_name>
dock_pv.192

> <s_m_Source_Path>
/home/csk/Desktop/cluster/DUD-E-result/fpps

> <s_m_Source_File>
dock_pv.maegz

> <i_m_Source_File_Index>
192

> <chembl_id>
CHEMBL416301

> <chembl_pref_name>
None

> <i_lp_mmshare_version>
53161

> <r_lp_tautomer_probability>
1

> <s_lp_Force_Field>
OPLS_2005

> <r_lp_Energy>
-10.512163

> <b_lp_Chiralities_Consistent>
1

> <s_lp_Variant>
CHEMBL1782_lig102-1

> <s_i_glide_gridfile>
glide-grid_1zw5

> <i_i_glide_lignum>
113

> <i_i_glide_rotatable_bonds>
17

> <r_i_docking_score>
-7.18285481521276

> <r_i_glide_ligand_efficiency>
-0.342040705486322

> <r_i_glide_ligand_efficiency_sa>
-0.943664370714999

> <r_i_glide_ligand_efficiency_ln>
-1.77594633873656

> <r_i_glide_gscore>
-7.18285481521276

> <r_i_glide_lipo>
-0.426519857758288

> <r_i_glide_hbond>
-0.0921221186260296

> <r_i_glide_metal>
-2.3

> <r_i_glide_rewards>
-1.04799518181818

> <r_i_glide_evdw>
-17.2000312805176

> <r_i_glide_ecoul>
-45.387279510498

> <r_i_glide_erotb>
1.74378390701562

> <r_i_glide_esite>
-0.2

> <r_i_glide_emodel>
-90.0093937800202

> <r_i_glide_energy>
-62.5873107910156

> <r_i_glide_einternal>
26.6946601867676

> <i_i_glide_confnum>
30

> <i_i_glide_posenum>
70

> <r_i_glide_eff_state_penalty>
0

> <s_user_duplicate_titles>
CHEMBL1782_lig102,83800

> <i_f3d_flags>
0

> <s_m_subgroup_title>
dock_pv

> <s_m_subgroupid>
dock_pv

> <b_m_subgroup_collapsed>
1

$$$$
CHEMBL1782_lig213
                    3D
 Schrodinger Suite 2021-1.
 44 47  0  0  1  0            999 V2000
   15.7062   38.2241   -8.8809 P   0  0  0  0  0  0
   15.7016   38.1800  -10.3650 O   0  0  0  0  0  0
   14.5012   37.1968   -8.3643 O   0  0  0  0  0  0
   18.1830   38.6337   -6.8986 P   0  0  0  0  0  0
   19.2993   37.4564   -6.4250 O   0  0  0  0  0  0
   17.4160   39.2306   -5.7461 O   0  0  0  0  0  0
   17.8383   33.1278  -10.7687 N   0  0  0  0  0  0
   18.6691   34.1382  -11.1180 C   0  0  0  0  0  0
   18.7549   35.3591  -10.5506 N   0  0  0  0  0  0
   17.8878   35.6447   -9.5587 C   0  0  0  0  0  0
   18.1178   36.8942   -8.9640 N   0  0  0  0  0  0
   17.2125   37.5613   -8.0214 C   0  0  0  0  0  0
   15.6849   39.8311   -8.3646 O   0  0  0  0  0  0
   18.8982   39.7540   -7.9648 O   0  0  0  0  0  0
   16.9352   33.4522   -9.8546 C   0  0  0  0  0  0
   16.9052   34.6936   -9.1660 C   0  0  0  0  0  0
   15.8963   34.6652   -8.1829 C   0  0  0  0  0  0
   15.0564   33.5838   -8.2734 C   0  0  0  0  0  0
   15.6377   32.3759   -9.4060 S   0  0  0  0  0  0
   13.7716   33.4325   -7.5523 C   0  0  0  0  0  0
   13.0046   32.2757   -7.6739 C   0  0  0  0  0  0
   13.2934   34.5106   -6.7868 C   0  0  0  0  0  0
   11.7762   32.1844   -7.0452 C   0  0  0  0  0  0
   12.0475   34.4471   -6.1443 C   0  0  0  0  0  0
   11.3008   33.2616   -6.2739 C   0  0  0  0  0  0
   10.1053   33.1835   -5.5980 C   0  0  0  0  0  0
    9.5223   34.2570   -4.9299 C   0  0  0  0  0  0
   10.2401   35.4328   -4.8047 C   0  0  0  0  0  0
   11.5064   35.5000   -5.3632 C   0  0  0  0  0  0
   13.7411   36.9814   -8.9657 H   0  0  0  0  0  0
   20.1244   37.7535   -5.9650 H   0  0  0  0  0  0
   19.3044   33.9586  -11.9659 H   0  0  0  0  0  0
   18.7467   37.5025   -9.4822 H   0  0  0  0  0  0
   16.9257   36.8216   -7.2891 H   0  0  0  0  0  0
   16.3594   40.4596   -8.7237 H   0  0  0  0  0  0
   18.3911   40.1595   -8.7050 H   0  0  0  0  0  0
   15.6870   35.4357   -7.4788 H   0  0  0  0  0  0
   13.3406   31.4326   -8.2546 H   0  0  0  0  0  0
   13.8371   35.4327   -6.6877 H   0  0  0  0  0  0
   11.1738   31.2965   -7.1651 H   0  0  0  0  0  0
    9.7035   32.1988   -5.5638 H   0  0  0  0  0  0
    8.5696   34.1569   -4.4430 H   0  0  0  0  0  0
    9.8464   36.2522   -4.2259 H   0  0  0  0  0  0
   12.0920   36.3734   -5.1649 H   0  0  0  0  0  0
  1  2  2  0  0  0
  1  3  1  0  0  0
  1 12  1  0  0  0
  1 13  1  0  0  0
  3 30  1  0  0  0
  4  5  1  0  0  0
  4  6  2  0  0  0
  4 12  1  0  0  0
  4 14  1  0  0  0
  5 31  1  0  0  0
  7  8  2  0  0  0
  7 15  1  0  0  0
  8  9  1  0  0  0
  8 32  1  0  0  0
  9 10  2  0  0  0
 10 16  1  0  0  0
 10 11  1  0  0  0
 11 12  1  0  0  0
 11 33  1  0  0  0
 12 34  1  0  0  0
 13 35  1  0  0  0
 14 36  1  0  0  0
 15 16  2  0  0  0
 15 19  1  0  0  0
 16 17  1  0  0  0
 17 18  2  0  0  0
 17 37  1  0  0  0
 18 19  1  0  0  0
 18 20  1  0  0  0
 20 21  2  0  0  0
 20 22  1  0  0  0
 21 23  1  0  0  0
 21 38  1  0  0  0
 22 24  2  0  0  0
 22 39  1  0  0  0
 23 25  2  0  0  0
 23 40  1  0  0  0
 24 25  1  0  0  0
 24 29  1  0  0  0
 25 26  1  0  0  0
 26 27  2  0  0  0
 26 41  1  0  0  0
 27 28  1  0  0  0
 27 42  1  0  0  0
 28 29  2  0  0  0
 28 43  1  0  0  0
 29 44  1  0  0  0
M  END
> <s_m_entry_id>
3178

> <s_m_entry_name>
dock_pv.193

> <s_m_Source_Path>
/home/csk/Desktop/cluster/DUD-E-result/fpps

> <s_m_Source_File>
dock_pv.maegz

> <i_m_Source_File_Index>
193

> <chembl_id>
CHEMBL2347863

> <chembl_pref_name>
None

> <i_lp_mmshare_version>
53161

> <r_lp_tautomer_probability>
1

> <s_lp_Force_Field>
OPLS_2005

> <r_lp_Energy>
4.888707

> <b_lp_Chiralities_Consistent>
1

> <s_lp_Variant>
CHEMBL1782_lig213-1

> <s_i_glide_gridfile>
glide-grid_1zw5

> <i_i_glide_lignum>
237

> <i_i_glide_rotatable_bonds>
9

> <r_i_docking_score>
-7.18056484006314

> <r_i_glide_ligand_efficiency>
-0.247605684140108

> <r_i_glide_ligand_efficiency_sa>
-0.76072310866525

> <r_i_glide_ligand_efficiency_ln>
-1.6441672649607

> <r_i_glide_gscore>
-7.18056484006314

> <r_i_glide_lipo>
-0.103931532001095

> <r_i_glide_hbond>
-0.1258511318644

> <r_i_glide_metal>
-2.3

> <r_i_glide_rewards>
-0.481833954545454

> <r_i_glide_evdw>
-5.22493362426758

> <r_i_glide_ecoul>
-40.0704498291016

> <r_i_glide_erotb>
0.492298459561185

> <r_i_glide_esite>
-0.4

> <r_i_glide_emodel>
-46.2385245591883

> <r_i_glide_energy>
-45.2953834533691

> <r_i_glide_einternal>
32.8060455322266

> <i_i_glide_confnum>
171

> <i_i_glide_posenum>
392

> <r_i_glide_eff_state_penalty>
0

> <s_user_duplicate_titles>
CHEMBL1782_lig213

> <i_f3d_flags>
0

> <s_m_subgroup_title>
dock_pv

> <s_m_subgroupid>
dock_pv

> <b_m_subgroup_collapsed>
1

$$$$
CHEMBL1782_lig186
                    3D
 Schrodinger Suite 2021-1.
 42 42  0  0  1  0            999 V2000
   13.5009   33.7222   -8.4745 C   0  0  0  0  0  0
   13.4049   32.4712   -7.8982 N   0  0  0  0  0  0
   14.2464   32.4646   -6.8025 C   0  0  0  0  0  0
   14.9253   33.6613   -6.7649 C   0  0  0  0  0  0
   14.4771   34.4456   -7.8076 N   0  3  0  0  0  0
   12.5890   31.3521   -8.3400 C   0  0  0  0  0  0
   14.9239   35.7952   -8.1112 C   0  0  0  0  0  0
   16.3629   35.9347   -8.7030 C   0  0  0  0  0  0
   16.9513   34.6366   -9.9659 P   0  0  0  0  0  0
   18.1010   33.7800   -9.4779 O   0  0  0  0  0  0
   15.5805   33.7198  -10.3881 O   0  0  0  0  0  0
   17.3395   35.5188  -11.3851 O   0  0  0  0  0  0
   17.2301   35.8542   -7.5674 O   0  0  0  0  0  0
   16.6099   37.6542   -9.3519 P   0  0  0  0  0  0
   15.8855   38.6246   -8.1596 O   0  0  0  0  0  0
   16.1010   37.8615  -10.7650 O   0  0  0  0  0  0
   18.2989   37.7800   -9.1650 O   0  0  0  0  0  0
   13.4251   30.2329   -9.0199 C   0  0  0  0  0  0
   14.7166   29.7262   -8.3389 C   0  0  0  0  0  0
   14.5166   29.1180   -6.9336 C   0  0  0  0  0  0
   15.7015   29.3800   -5.9882 C   0  0  0  0  0  0
   12.9389   34.0586   -9.3373 H   0  0  0  0  0  0
   14.3152   31.5930   -6.1776 H   0  0  0  0  0  0
   15.7006   33.9942   -6.1000 H   0  0  0  0  0  0
   11.8279   31.7230   -9.0294 H   0  0  0  0  0  0
   12.0542   30.9800   -7.4685 H   0  0  0  0  0  0
   14.1884   36.2280   -8.7650 H   0  0  0  0  0  0
   14.8294   36.3802   -7.1975 H   0  0  0  0  0  0
   15.0617   33.2034   -9.7420 H   0  0  0  0  0  0
   17.9414   36.3017  -11.4632 H   0  0  0  0  0  0
   16.9686   36.5800   -6.9791 H   0  0  0  0  0  0
   15.8872   39.5980   -8.2784 H   0  0  0  0  0  0
   13.7010   30.5718  -10.0177 H   0  0  0  0  0  0
   12.7635   29.3800   -9.1650 H   0  0  0  0  0  0
   15.4408   30.5407   -8.3209 H   0  0  0  0  0  0
   15.1780   28.9699   -8.9772 H   0  0  0  0  0  0
   14.3227   28.0464   -7.0113 H   0  0  0  0  0  0
   13.6209   29.5244   -6.4709 H   0  0  0  0  0  0
   15.3594   29.5577   -4.9699 H   0  0  0  0  0  0
   16.2656   30.2643   -6.2775 H   0  0  0  0  0  0
   16.3976   28.5414   -5.9650 H   0  0  0  0  0  0
   18.8059   38.3927   -9.7443 H   0  0  0  0  0  0
  1  2  1  0  0  0
  1  5  2  0  0  0
  1 22  1  0  0  0
  2  3  1  0  0  0
  2  6  1  0  0  0
  3  4  2  0  0  0
  3 23  1  0  0  0
  4  5  1  0  0  0
  4 24  1  0  0  0
  5  7  1  0  0  0
  6 18  1  0  0  0
  6 25  1  0  0  0
  6 26  1  0  0  0
  7  8  1  0  0  0
  7 27  1  0  0  0
  7 28  1  0  0  0
  8  9  1  0  0  0
  8 13  1  0  0  0
  8 14  1  0  0  0
  9 10  2  0  0  0
  9 11  1  0  0  0
  9 12  1  0  0  0
 11 29  1  0  0  0
 12 30  1  0  0  0
 13 31  1  0  0  0
 14 15  1  0  0  0
 14 16  2  0  0  0
 14 17  1  0  0  0
 15 32  1  0  0  0
 17 42  1  0  0  0
 18 19  1  0  0  0
 18 33  1  0  0  0
 18 34  1  0  0  0
 19 20  1  0  0  0
 19 35  1  0  0  0
 19 36  1  0  0  0
 20 21  1  0  0  0
 20 37  1  0  0  0
 20 38  1  0  0  0
 21 39  1  0  0  0
 21 40  1  0  0  0
 21 41  1  0  0  0
M  CHG  1   5   1
M  END
> <s_m_entry_id>
3179

> <s_m_entry_name>
dock_pv.194

> <s_m_Source_Path>
/home/csk/Desktop/cluster/DUD-E-result/fpps

> <s_m_Source_File>
dock_pv.maegz

> <i_m_Source_File_Index>
194

> <chembl_id>
CHEMBL2338357

> <chembl_pref_name>
None

> <i_lp_mmshare_version>
53161

> <r_lp_tautomer_probability>
1

> <s_lp_Force_Field>
OPLS_2005

> <r_lp_Energy>
2.6555

> <b_lp_Chiralities_Consistent>
1

> <s_lp_Variant>
CHEMBL1782_lig186-1

> <s_i_glide_gridfile>
glide-grid_1zw5

> <i_i_glide_lignum>
210

> <i_i_glide_rotatable_bonds>
13

> <r_i_docking_score>
-7.17474369838355

> <r_i_glide_ligand_efficiency>
-0.341654461827788

> <r_i_glide_ligand_efficiency_sa>
-0.942598753748578

> <r_i_glide_ligand_efficiency_ln>
-1.77394088149059

> <r_i_glide_gscore>
-7.17474369838355

> <r_i_glide_lipo>
-0.450621933954497

> <r_i_glide_hbond>
0

> <r_i_glide_metal>
-2.3

> <r_i_glide_rewards>
-0.768883227272726

> <r_i_glide_evdw>
-9.07369995117188

> <r_i_glide_ecoul>
-56.1845855712891

> <r_i_glide_erotb>
1.12732387130625

> <r_i_glide_esite>
-0.328877410903985

> <r_i_glide_emodel>
-97.2036413411378

> <r_i_glide_energy>
-65.2582855224609

> <r_i_glide_einternal>
18.823371887207

> <i_i_glide_confnum>
181

> <i_i_glide_posenum>
331

> <r_i_glide_eff_state_penalty>
0

> <s_user_duplicate_titles>
CHEMBL1782_lig186

> <i_f3d_flags>
0

> <s_m_subgroup_title>
dock_pv

> <s_m_subgroupid>
dock_pv

> <b_m_subgroup_collapsed>
1

$$$$
CHEMBL1782_lig121
                    3D
 Schrodinger Suite 2021-1.
 30 29  0  0  1  0            999 V2000
   16.9916   36.1355  -10.1076 C   0  0  0  0  0  0
   18.1150   34.8009  -10.9222 P   0  0  0  0  0  0
   17.7100   37.2984   -8.7851 P   0  0  0  0  0  0
   18.1010   33.3800  -10.3650 O   0  0  0  0  0  0
   18.1010   36.5800   -7.5084 O   0  0  0  0  0  0
   16.5010   36.9800  -11.1650 O   0  0  0  0  0  0
   13.1900   32.1799   -6.7651 N   0  0  0  0  0  0
   17.7325   34.9086  -12.5838 O   0  0  0  0  0  0
   19.6715   35.4643  -10.7650 O   0  0  0  0  0  0
   19.0435   37.9979   -9.5650 O   0  0  0  0  0  0
   16.5522   38.5485   -8.6288 O   0  0  0  0  0  0
   15.7010   35.4808   -9.5321 C   0  0  0  0  0  0
   14.5105   32.7478   -6.9618 C   0  0  0  0  0  0
   15.8026   34.4784   -8.3572 C   0  0  0  0  0  0
   14.4471   33.8005   -8.0792 C   0  0  0  0  0  0
   17.2787   37.4322  -11.5584 H   0  0  0  0  0  0
   12.8810   31.7278   -7.6164 H   0  0  0  0  0  0
   13.2286   31.4421   -6.0735 H   0  0  0  0  0  0
   17.3519   35.7059  -13.0023 H   0  0  0  0  0  0
   19.8527   36.4281  -10.7256 H   0  0  0  0  0  0
   19.0619   38.1800  -10.5475 H   0  0  0  0  0  0
   16.7916   39.4458   -8.9899 H   0  0  0  0  0  0
   15.1747   34.9800  -10.3475 H   0  0  0  0  0  0
   15.0414   36.2707   -9.1650 H   0  0  0  0  0  0
   14.8527   33.1928   -6.0265 H   0  0  0  0  0  0
   15.2115   31.9520   -7.2199 H   0  0  0  0  0  0
   16.1205   34.9888   -7.4489 H   0  0  0  0  0  0
   16.5332   33.6986   -8.5501 H   0  0  0  0  0  0
   14.0883   33.3249   -8.9945 H   0  0  0  0  0  0
   13.7075   34.5623   -7.8246 H   0  0  0  0  0  0
  1  2  1  0  0  0
  1  3  1  0  0  0
  1  6  1  0  0  0
  1 12  1  0  0  0
  2  4  2  0  0  0
  2  8  1  0  0  0
  2  9  1  0  0  0
  3  5  2  0  0  0
  3 10  1  0  0  0
  3 11  1  0  0  0
  6 16  1  0  0  0
  7 13  1  0  0  0
  7 17  1  0  0  0
  7 18  1  0  0  0
  8 19  1  0  0  0
  9 20  1  0  0  0
 10 21  1  0  0  0
 11 22  1  0  0  0
 12 14  1  0  0  0
 12 23  1  0  0  0
 12 24  1  0  0  0
 13 15  1  0  0  0
 13 25  1  0  0  0
 13 26  1  0  0  0
 14 15  1  0  0  0
 14 27  1  0  0  0
 14 28  1  0  0  0
 15 29  1  0  0  0
 15 30  1  0  0  0
M  END
> <s_m_entry_id>
3180

> <s_m_entry_name>
dock_pv.195

> <s_m_Source_Path>
/home/csk/Desktop/cluster/DUD-E-result/fpps

> <s_m_Source_File>
dock_pv.maegz

> <i_m_Source_File_Index>
195

> <chembl_id>
CHEMBL298771

> <chembl_pref_name>
None

> <i_lp_mmshare_version>
53161

> <r_lp_tautomer_probability>
1

> <s_lp_Force_Field>
OPLS_2005

> <r_lp_Energy>
-5.179946

> <b_lp_Chiralities_Consistent>
1

> <s_lp_Variant>
CHEMBL1782_lig121-1

> <s_i_glide_gridfile>
glide-grid_1zw5

> <i_i_glide_lignum>
133

> <i_i_glide_rotatable_bonds>
11

> <r_i_docking_score>
-7.16938098436373

> <r_i_glide_ligand_efficiency>
-0.477958732290915

> <r_i_glide_ligand_efficiency_sa>
-1.1787475955435

> <r_i_glide_ligand_efficiency_ln>
-1.93346384097838

> <r_i_glide_gscore>
-7.16938098436373

> <r_i_glide_lipo>
0

> <r_i_glide_hbond>
0

> <r_i_glide_metal>
-2.3

> <r_i_glide_rewards>
-1.61507304545454

> <r_i_glide_evdw>
-6.7283182144165

> <r_i_glide_ecoul>
-60.9173011779785

> <r_i_glide_erotb>
1.28210797181164

> <r_i_glide_esite>
-0.2

> <r_i_glide_emodel>
-113.929560422726

> <r_i_glide_energy>
-67.645619392395

> <r_i_glide_einternal>
20.1572875976562

> <i_i_glide_confnum>
36

> <i_i_glide_posenum>
86

> <r_i_glide_eff_state_penalty>
0

> <s_user_duplicate_titles>
CHEMBL1782_lig121,84097

> <i_f3d_flags>
0

> <s_m_subgroup_title>
dock_pv

> <s_m_subgroupid>
dock_pv

> <b_m_subgroup_collapsed>
1

$$$$
CHEMBL1782_lig201
                    3D
 Schrodinger Suite 2021-1.
 44 44  0  0  1  0            999 V2000
   14.8020   32.8208   -9.4137 C   0  0  0  0  0  0
   14.6360   31.6762   -8.6741 N   0  0  0  0  0  0
   15.0029   31.9549   -7.3681 C   0  0  0  0  0  0
   15.3010   33.3115   -7.3045 C   0  0  0  0  0  0
   15.1773   33.8428   -8.5781 N   0  3  0  0  0  0
   14.0157   30.4685   -9.1679 C   0  0  0  0  0  0
   15.2408   35.2342   -8.9680 C   0  0  0  0  0  0
   16.6325   35.8718   -8.8620 C   0  0  0  0  0  0
   17.8910   35.1460  -10.0197 P   0  0  0  0  0  0
   18.1010   33.6474   -9.9650 O   0  0  0  0  0  0
   17.4416   35.7800  -11.5336 O   0  0  0  0  0  0
   19.2544   35.9509   -9.4046 O   0  0  0  0  0  0
   16.4171   37.6968   -9.1015 P   0  0  0  0  0  0
   15.7010   38.1800   -7.6368 O   0  0  0  0  0  0
   15.7010   38.1366  -10.3650 O   0  0  0  0  0  0
   18.0228   38.1800   -9.0402 O   0  0  0  0  0  0
   12.6731   30.1849   -8.4598 C   0  0  0  0  0  0
   11.7943   31.3773   -7.9650 C   0  0  0  0  0  0
   11.3419   32.3991   -9.0208 C   0  0  0  0  0  0
   10.5446   33.5912   -8.4589 C   0  0  0  0  0  0
   11.3901   34.5800   -7.6414 C   0  0  0  0  0  0
   14.5226   32.9321  -10.4491 H   0  0  0  0  0  0
   14.9357   31.1897   -6.6053 H   0  0  0  0  0  0
   15.5544   33.9336   -6.4620 H   0  0  0  0  0  0
   14.7136   29.6385   -9.0408 H   0  0  0  0  0  0
   13.8518   30.5801  -10.2394 H   0  0  0  0  0  0
   14.9023   35.2923   -9.9968 H   0  0  0  0  0  0
   14.5051   35.7715   -8.3649 H   0  0  0  0  0  0
   17.0171   35.6967   -7.8511 H   0  0  0  0  0  0
   17.9764   36.5001  -11.9650 H   0  0  0  0  0  0
   19.6640   36.7089   -9.8831 H   0  0  0  0  0  0
   18.2067   39.0749   -9.4324 H   0  0  0  0  0  0
   12.9010   29.5413   -7.6078 H   0  0  0  0  0  0
   12.0962   29.5850   -9.1650 H   0  0  0  0  0  0
   12.2995   31.8814   -7.1429 H   0  0  0  0  0  0
   10.8783   30.9800   -7.5348 H   0  0  0  0  0  0
   10.7120   31.8898   -9.7464 H   0  0  0  0  0  0
   12.1987   32.7794   -9.5650 H   0  0  0  0  0  0
    9.7123   33.2271   -7.8557 H   0  0  0  0  0  0
   10.0935   34.1313   -9.2933 H   0  0  0  0  0  0
   10.7847   35.4250   -7.3132 H   0  0  0  0  0  0
   12.2086   34.9793   -8.2403 H   0  0  0  0  0  0
   11.8163   34.1135   -6.7536 H   0  0  0  0  0  0
   15.7010   39.1259   -7.3885 H   0  0  0  0  0  0
  1  2  1  0  0  0
  1  5  2  0  0  0
  1 22  1  0  0  0
  2  3  1  0  0  0
  2  6  1  0  0  0
  3  4  2  0  0  0
  3 23  1  0  0  0
  4  5  1  0  0  0
  4 24  1  0  0  0
  5  7  1  0  0  0
  6 17  1  0  0  0
  6 25  1  0  0  0
  6 26  1  0  0  0
  7  8  1  0  0  0
  7 27  1  0  0  0
  7 28  1  0  0  0
  8  9  1  0  0  0
  8 13  1  0  0  0
  8 29  1  0  0  0
  9 10  2  0  0  0
  9 11  1  0  0  0
  9 12  1  0  0  0
 11 30  1  0  0  0
 12 31  1  0  0  0
 13 14  1  0  0  0
 13 15  2  0  0  0
 13 16  1  0  0  0
 14 44  1  0  0  0
 16 32  1  0  0  0
 17 18  1  0  0  0
 17 33  1  0  0  0
 17 34  1  0  0  0
 18 19  1  0  0  0
 18 35  1  0  0  0
 18 36  1  0  0  0
 19 20  1  0  0  0
 19 37  1  0  0  0
 19 38  1  0  0  0
 20 21  1  0  0  0
 20 39  1  0  0  0
 20 40  1  0  0  0
 21 41  1  0  0  0
 21 42  1  0  0  0
 21 43  1  0  0  0
M  CHG  1   5   1
M  END
> <s_m_entry_id>
3181

> <s_m_entry_name>
dock_pv.196

> <s_m_Source_Path>
/home/csk/Desktop/cluster/DUD-E-result/fpps

> <s_m_Source_File>
dock_pv.maegz

> <i_m_Source_File_Index>
196

> <chembl_id>
CHEMBL2338374

> <chembl_pref_name>
None

> <i_lp_mmshare_version>
53161

> <r_lp_tautomer_probability>
1

> <s_lp_Force_Field>
OPLS_2005

> <r_lp_Energy>
2.648664

> <b_lp_Chiralities_Consistent>
1

> <s_lp_Variant>
CHEMBL1782_lig201-1

> <s_i_glide_gridfile>
glide-grid_1zw5

> <i_i_glide_lignum>
225

> <i_i_glide_rotatable_bonds>
13

> <r_i_docking_score>
-7.15516044789531

> <r_i_glide_ligand_efficiency>
-0.340721926090253

> <r_i_glide_ligand_efficiency_sa>
-0.940025958359564

> <r_i_glide_ligand_efficiency_ln>
-1.76909896237906

> <r_i_glide_gscore>
-7.15516044789531

> <r_i_glide_lipo>
-0.125706692919433

> <r_i_glide_hbond>
0

> <r_i_glide_metal>
-2.3

> <r_i_glide_rewards>
-0.932334272727271

> <r_i_glide_evdw>
-14.2969789505005

> <r_i_glide_ecoul>
-51.062915802002

> <r_i_glide_erotb>
1.30161171994267

> <r_i_glide_esite>
-0.383882254666255

> <r_i_glide_emodel>
-93.2109318651071

> <r_i_glide_energy>
-65.3598947525024

> <r_i_glide_einternal>
25.1865844726562

> <i_i_glide_confnum>
55

> <i_i_glide_posenum>
123

> <r_i_glide_eff_state_penalty>
0

> <s_user_duplicate_titles>
CHEMBL1782_lig201

> <i_f3d_flags>
0

> <s_m_subgroup_title>
dock_pv

> <s_m_subgroupid>
dock_pv

> <b_m_subgroup_collapsed>
1

$$$$
CHEMBL1782_lig30
                    3D
 Schrodinger Suite 2021-1.
 47 47  0  0  1  0            999 V2000
   16.7101   35.6257  -10.5568 C   0  0  0  0  0  0
   16.5828   36.5186   -8.8955 P   0  0  0  0  0  0
   18.3490   34.8396  -10.9688 P   0  0  0  0  0  0
   15.6124   34.5252  -10.7154 C   0  0  0  0  0  0
   17.7010   36.1800   -7.9222 O   0  0  0  0  0  0
   18.5010   33.4656  -10.3650 O   0  0  0  0  0  0
   16.5010   36.5998  -11.5650 O   0  0  0  0  0  0
   16.4298   38.1800   -9.2824 O   0  0  0  0  0  0
   18.3836   34.8675  -12.6701 O   0  0  0  0  0  0
   15.0147   36.1207   -8.3386 O   0  0  0  0  0  0
   19.4898   35.9443  -10.3650 O   0  0  0  0  0  0
   15.7072   33.2405   -9.8452 C   0  0  0  0  0  0
   14.4662   32.4680   -9.7478 N   0  0  2  0  0  0
   10.5434   34.9026   -6.4989 C   0  0  0  0  0  0
   12.1448   32.3831   -8.6969 C   0  0  0  0  0  0
   10.9482   34.1708   -7.5973 O   0  0  0  0  0  0
   13.5216   33.0858   -8.8037 C   0  0  0  0  0  0
   11.3613   32.8139   -7.4494 C   0  0  0  0  0  0
   14.7950   31.0948   -9.3361 C   0  0  0  0  0  0
   10.0518   36.1800   -6.7650 C   0  0  0  0  0  0
   10.6148   34.4609   -5.1683 C   0  0  0  0  0  0
    9.6607   37.0225   -5.7279 C   0  0  0  0  0  0
   10.2217   35.3000   -4.1280 C   0  0  0  0  0  0
    9.7526   36.5797   -4.4112 C   0  0  0  0  0  0
   14.6208   34.9344  -10.6460 H   0  0  0  0  0  0
   15.7010   34.1800  -11.7469 H   0  0  0  0  0  0
   17.3569   36.9854  -11.8456 H   0  0  0  0  0  0
   17.1149   38.7947   -9.6491 H   0  0  0  0  0  0
   19.0074   35.4304  -13.1711 H   0  0  0  0  0  0
   14.2644   35.9604   -8.9530 H   0  0  0  0  0  0
   19.4368   36.9035  -10.5974 H   0  0  0  0  0  0
   16.4009   32.5762  -10.3565 H   0  0  0  0  0  0
   16.1373   33.4400   -8.8618 H   0  0  0  0  0  0
   11.5456   32.6622   -9.5648 H   0  0  0  0  0  0
   12.2082   31.2980   -8.7377 H   0  0  0  0  0  0
   13.9753   33.1759   -7.8146 H   0  0  0  0  0  0
   13.3230   34.1098   -9.1188 H   0  0  0  0  0  0
   10.4798   32.1844   -7.3222 H   0  0  0  0  0  0
   12.0027   32.6571   -6.5816 H   0  0  0  0  0  0
   13.9437   30.4226   -9.4357 H   0  0  0  0  0  0
   15.5728   30.6598   -9.9650 H   0  0  0  0  0  0
   15.1453   31.0535   -8.3030 H   0  0  0  0  0  0
    9.9992   36.5244   -7.7882 H   0  0  0  0  0  0
   10.9862   33.4806   -4.9186 H   0  0  0  0  0  0
    9.3010   38.0189   -5.9442 H   0  0  0  0  0  0
   10.2918   34.9617   -3.1047 H   0  0  0  0  0  0
    9.4625   37.2354   -3.6026 H   0  0  0  0  0  0
  1  2  1  0  0  0
  1  3  1  0  0  0
  1  4  1  0  0  0
  1  7  1  0  0  0
  2  5  2  0  0  0
  2  8  1  0  0  0
  2 10  1  0  0  0
  3  6  2  0  0  0
  3  9  1  0  0  0
  3 11  1  0  0  0
  4 12  1  0  0  0
  4 25  1  0  0  0
  4 26  1  0  0  0
  7 27  1  0  0  0
  8 28  1  0  0  0
  9 29  1  0  0  0
 10 30  1  0  0  0
 11 31  1  0  0  0
 12 13  1  0  0  0
 12 32  1  0  0  0
 12 33  1  0  0  0
 13 17  1  0  0  0
 13 19  1  0  0  0
 14 16  1  0  0  0
 14 20  1  0  0  0
 14 21  2  0  0  0
 15 17  1  0  0  0
 15 18  1  0  0  0
 15 34  1  0  0  0
 15 35  1  0  0  0
 16 18  1  0  0  0
 17 36  1  0  0  0
 17 37  1  0  0  0
 18 38  1  0  0  0
 18 39  1  0  0  0
 19 40  1  0  0  0
 19 41  1  0  0  0
 19 42  1  0  0  0
 20 22  2  0  0  0
 20 43  1  0  0  0
 21 23  1  0  0  0
 21 44  1  0  0  0
 22 24  1  0  0  0
 22 45  1  0  0  0
 23 24  2  0  0  0
 23 46  1  0  0  0
 24 47  1  0  0  0
M  END
> <s_m_entry_id>
3182

> <s_m_entry_name>
dock_pv.197

> <s_m_Source_Path>
/home/csk/Desktop/cluster/DUD-E-result/fpps

> <s_m_Source_File>
dock_pv.maegz

> <i_m_Source_File_Index>
197

> <chembl_id>
CHEMBL101886

> <chembl_pref_name>
None

> <i_lp_mmshare_version>
53161

> <r_lp_tautomer_probability>
1

> <s_lp_Force_Field>
OPLS_2005

> <r_lp_Energy>
8.114617

> <b_lp_Chiralities_Consistent>
1

> <s_lp_Variant>
CHEMBL1782_lig30-1

> <s_i_glide_gridfile>
glide-grid_1zw5

> <i_i_glide_lignum>
34

> <i_i_glide_rotatable_bonds>
15

> <r_i_docking_score>
-7.1297921852169

> <r_i_glide_ligand_efficiency>
-0.297074674384038

> <r_i_glide_ligand_efficiency_sa>
-0.856911642051413

> <r_i_glide_ligand_efficiency_ln>
-1.70648643476744

> <r_i_glide_gscore>
-7.1297921852169

> <r_i_glide_lipo>
-0.269225169615804

> <r_i_glide_hbond>
0

> <r_i_glide_metal>
-2.3

> <r_i_glide_rewards>
-0.795646883713958

> <r_i_glide_evdw>
-15.1074275970459

> <r_i_glide_ecoul>
-61.6690940856934

> <r_i_glide_erotb>
1.19045124796515

> <r_i_glide_esite>
-0.2

> <r_i_glide_emodel>
-125.966592186426

> <r_i_glide_energy>
-76.7765216827393

> <r_i_glide_einternal>
23.3116722106934

> <i_i_glide_confnum>
61

> <i_i_glide_posenum>
245

> <r_i_glide_eff_state_penalty>
0

> <s_user_duplicate_titles>
CHEMBL1782_lig30

> <i_f3d_flags>
0

> <s_m_subgroup_title>
dock_pv

> <s_m_subgroupid>
dock_pv

> <b_m_subgroup_collapsed>
1

$$$$
CHEMBL1782_lig93
                    3D
 Schrodinger Suite 2021-1.
 29 28  0  0  1  0            999 V2000
   16.5010   35.8312   -9.2302 C   0  0  0  0  0  0
   17.9244   35.1091  -10.1653 P   0  0  0  0  0  0
   16.3269   37.6867   -9.1340 P   0  0  0  0  0  0
   16.6557   35.3800   -7.8328 N   0  0  2  0  0  0
   18.1010   33.6011  -10.0922 O   0  0  0  0  0  0
   15.3010   38.1800   -8.1541 O   0  0  0  0  0  0
   17.9010   38.1800   -8.7640 O   0  0  0  0  0  0
   16.1010   38.1800  -10.7650 O   0  0  0  0  0  0
   17.7010   35.7800  -11.7136 O   0  0  0  0  0  0
   19.1747   35.9043   -9.3213 O   0  0  0  0  0  0
   15.5795   34.4633   -7.4321 C   0  0  0  0  0  0
   15.5355   33.1264   -8.2056 C   0  0  0  0  0  0
   14.4610   32.1640   -7.6701 C   0  0  0  0  0  0
   14.4055   30.8401   -8.4481 C   0  0  0  0  0  0
   15.5746   35.4476   -9.6581 H   0  0  0  0  0  0
   16.5009   36.2184   -7.2738 H   0  0  0  0  0  0
   18.1482   39.1097   -8.9854 H   0  0  0  0  0  0
   16.8198   38.7351  -11.1741 H   0  0  0  0  0  0
   18.1989   36.5929  -12.0098 H   0  0  0  0  0  0
   19.6751   36.6471   -9.7298 H   0  0  0  0  0  0
   14.6164   34.9727   -7.5076 H   0  0  0  0  0  0
   15.7010   34.2405   -6.3715 H   0  0  0  0  0  0
   16.5010   32.6290   -8.1424 H   0  0  0  0  0  0
   15.3425   33.3005   -9.2644 H   0  0  0  0  0  0
   13.4813   32.6423   -7.7145 H   0  0  0  0  0  0
   14.6499   31.9494   -6.6169 H   0  0  0  0  0  0
   13.6394   30.1790   -8.0403 H   0  0  0  0  0  0
   15.3568   30.3082   -8.3995 H   0  0  0  0  0  0
   14.1664   31.0038   -9.4997 H   0  0  0  0  0  0
  1  2  1  0  0  0
  1  3  1  0  0  0
  1  4  1  0  0  0
  1 15  1  0  0  0
  2  5  2  0  0  0
  2  9  1  0  0  0
  2 10  1  0  0  0
  3  6  2  0  0  0
  3  7  1  0  0  0
  3  8  1  0  0  0
  4 11  1  0  0  0
  4 16  1  0  0  0
  7 17  1  0  0  0
  8 18  1  0  0  0
  9 19  1  0  0  0
 10 20  1  0  0  0
 11 12  1  0  0  0
 11 21  1  0  0  0
 11 22  1  0  0  0
 12 13  1  0  0  0
 12 23  1  0  0  0
 12 24  1  0  0  0
 13 14  1  0  0  0
 13 25  1  0  0  0
 13 26  1  0  0  0
 14 27  1  0  0  0
 14 28  1  0  0  0
 14 29  1  0  0  0
M  END
> <s_m_entry_id>
3183

> <s_m_entry_name>
dock_pv.198

> <s_m_Source_Path>
/home/csk/Desktop/cluster/DUD-E-result/fpps

> <s_m_Source_File>
dock_pv.maegz

> <i_m_Source_File_Index>
198

> <chembl_id>
CHEMBL55608

> <chembl_pref_name>
(BUTYLAMINO)METHYLENEDIPHOSPHONIC ACID

> <i_lp_mmshare_version>
53161

> <r_lp_tautomer_probability>
1

> <s_lp_Force_Field>
OPLS_2005

> <r_lp_Energy>
0.383249

> <b_lp_Chiralities_Consistent>
1

> <s_lp_Variant>
CHEMBL1782_lig93-1

> <s_i_glide_gridfile>
glide-grid_1zw5

> <i_i_glide_lignum>
103

> <i_i_glide_rotatable_bonds>
10

> <r_i_docking_score>
-7.12876204625175

> <r_i_glide_ligand_efficiency>
-0.509197289017982

> <r_i_glide_ligand_efficiency_sa>
-1.2272379059861

> <r_i_glide_ligand_efficiency_ln>
-1.9589584336132

> <r_i_glide_gscore>
-7.12876204625175

> <r_i_glide_lipo>
0

> <r_i_glide_hbond>
0

> <r_i_glide_metal>
-2.3

> <r_i_glide_rewards>
-1.72415986363636

> <r_i_glide_evdw>
-6.65274477005005

> <r_i_glide_ecoul>
-54.8337326049805

> <r_i_glide_erotb>
1.42803505588712

> <r_i_glide_esite>
-0.2

> <r_i_glide_emodel>
-99.6467154518746

> <r_i_glide_energy>
-61.4864773750305

> <r_i_glide_einternal>
23.9230670928955

> <i_i_glide_confnum>
314

> <i_i_glide_posenum>
77

> <r_i_glide_eff_state_penalty>
0

> <s_user_duplicate_titles>
CHEMBL1782_lig93,84244

> <i_f3d_flags>
0

> <s_m_subgroup_title>
dock_pv

> <s_m_subgroupid>
dock_pv

> <b_m_subgroup_collapsed>
1

$$$$
CHEMBL1782_lig61
                    3D
 Schrodinger Suite 2021-1.
 46 46  0  0  1  0            999 V2000
   16.4225   35.6401  -10.1161 C   0  0  0  0  0  0
   16.3036   36.5074   -8.4175 P   0  0  0  0  0  0
   18.2079   35.0965  -10.3650 P   0  0  0  0  0  0
   15.5061   34.3721  -10.1826 C   0  0  0  0  0  0
   19.1207   35.7800   -9.3750 O   0  0  0  0  0  0
   17.2990   35.9574   -7.3937 O   0  0  0  0  0  0
   16.1146   36.5800  -11.1599 O   0  0  0  0  0  0
   16.4521   38.1800   -8.7626 O   0  0  0  0  0  0
   18.1010   33.3800  -10.1112 O   0  0  0  0  0  0
   18.5920   35.3800  -12.0059 O   0  0  0  0  0  0
   14.6646   36.3043   -7.9651 O   0  0  0  0  0  0
   15.2578   32.0994   -9.1546 N   0  0  2  0  0  0
   15.5140   33.5058   -8.8926 C   0  0  0  0  0  0
   10.8302   33.6318   -6.5402 C   0  0  0  0  0  0
   13.9174   31.8029   -9.6670 C   0  0  0  0  0  0
   11.3453   32.1987   -6.6497 C   0  0  0  0  0  0
   10.8692   34.2966   -5.3102 C   0  0  0  0  0  0
   10.2510   34.2567   -7.6479 C   0  0  0  0  0  0
   12.7358   32.3732   -8.8400 C   0  0  0  0  0  0
   12.7188   32.0157   -7.3364 C   0  0  0  0  0  0
    9.7011   35.5303   -7.5241 C   0  0  0  0  0  0
   10.3191   35.5702   -5.1850 C   0  0  0  0  0  0
    9.7327   36.1799   -6.2925 C   0  0  0  0  0  0
   15.7792   33.7805  -11.0579 H   0  0  0  0  0  0
   14.4639   34.6014  -10.3648 H   0  0  0  0  0  0
   16.9618   36.9245  -11.4948 H   0  0  0  0  0  0
   17.2049   38.6581   -9.1843 H   0  0  0  0  0  0
   17.2210   32.9353  -10.1991 H   0  0  0  0  0  0
   18.7773   36.3239  -12.3077 H   0  0  0  0  0  0
   13.9527   36.1825   -8.6327 H   0  0  0  0  0  0
   15.4002   31.5441   -8.3173 H   0  0  0  0  0  0
   14.8198   33.8895   -8.1455 H   0  0  0  0  0  0
   16.4848   33.5439   -8.4006 H   0  0  0  0  0  0
   13.8275   30.7156   -9.7011 H   0  0  0  0  0  0
   13.8414   32.1348  -10.7019 H   0  0  0  0  0  0
   11.3931   31.7797   -5.6445 H   0  0  0  0  0  0
   10.5964   31.5954   -7.1659 H   0  0  0  0  0  0
   11.3011   33.8183   -4.4436 H   0  0  0  0  0  0
   10.2053   33.7499   -8.6015 H   0  0  0  0  0  0
   11.8186   31.9989   -9.2952 H   0  0  0  0  0  0
   12.6878   33.4553   -8.9637 H   0  0  0  0  0  0
   13.4787   32.5835   -6.7992 H   0  0  0  0  0  0
   13.0025   30.9674   -7.2280 H   0  0  0  0  0  0
    9.2488   36.0064   -8.3814 H   0  0  0  0  0  0
   10.3375   36.0775   -4.2316 H   0  0  0  0  0  0
    9.3033   37.1667   -6.1997 H   0  0  0  0  0  0
  1  2  1  0  0  0
  1  3  1  0  0  0
  1  4  1  0  0  0
  1  7  1  0  0  0
  2  6  2  0  0  0
  2  8  1  0  0  0
  2 11  1  0  0  0
  3  5  2  0  0  0
  3  9  1  0  0  0
  3 10  1  0  0  0
  4 13  1  0  0  0
  4 24  1  0  0  0
  4 25  1  0  0  0
  7 26  1  0  0  0
  8 27  1  0  0  0
  9 28  1  0  0  0
 10 29  1  0  0  0
 11 30  1  0  0  0
 12 13  1  0  0  0
 12 15  1  0  0  0
 12 31  1  0  0  0
 13 32  1  0  0  0
 13 33  1  0  0  0
 14 16  1  0  0  0
 14 17  2  0  0  0
 14 18  1  0  0  0
 15 19  1  0  0  0
 15 34  1  0  0  0
 15 35  1  0  0  0
 16 20  1  0  0  0
 16 36  1  0  0  0
 16 37  1  0  0  0
 17 22  1  0  0  0
 17 38  1  0  0  0
 18 21  2  0  0  0
 18 39  1  0  0  0
 19 20  1  0  0  0
 19 40  1  0  0  0
 19 41  1  0  0  0
 20 42  1  0  0  0
 20 43  1  0  0  0
 21 23  1  0  0  0
 21 44  1  0  0  0
 22 23  2  0  0  0
 22 45  1  0  0  0
 23 46  1  0  0  0
M  END
> <s_m_entry_id>
3184

> <s_m_entry_name>
dock_pv.199

> <s_m_Source_Path>
/home/csk/Desktop/cluster/DUD-E-result/fpps

> <s_m_Source_File>
dock_pv.maegz

> <i_m_Source_File_Index>
199

> <chembl_id>
CHEMBL55464

> <chembl_pref_name>
None

> <i_lp_mmshare_version>
53161

> <r_lp_tautomer_probability>
1

> <s_lp_Force_Field>
OPLS_2005

> <r_lp_Energy>
-1.710964

> <b_lp_Chiralities_Consistent>
1

> <s_lp_Variant>
CHEMBL1782_lig61-1

> <s_i_glide_gridfile>
glide-grid_1zw5

> <i_i_glide_lignum>
67

> <i_i_glide_rotatable_bonds>
15

> <r_i_docking_score>
-7.10589476772873

> <r_i_glide_ligand_efficiency>
-0.308951946422988

> <r_i_glide_ligand_efficiency_sa>
-0.878618237874905

> <r_i_glide_ligand_efficiency_ln>
-1.71826978752821

> <r_i_glide_gscore>
-7.10589476772873

> <r_i_glide_lipo>
-0.0647043200244251

> <r_i_glide_hbond>
0

> <r_i_glide_metal>
-2.3

> <r_i_glide_rewards>
-0.904965409090907

> <r_i_glide_evdw>
-18.4214496612549

> <r_i_glide_ecoul>
-57.3774108886719

> <r_i_glide_erotb>
1.28484744444935

> <r_i_glide_esite>
-0.2

> <r_i_glide_emodel>
-131.679281914008

> <r_i_glide_energy>
-75.7988605499268

> <r_i_glide_einternal>
12.9254522323608

> <i_i_glide_confnum>
250

> <i_i_glide_posenum>
134

> <r_i_glide_eff_state_penalty>
0

> <s_user_duplicate_titles>
CHEMBL1782_lig61,83880

> <i_f3d_flags>
0

> <s_m_subgroup_title>
dock_pv

> <s_m_subgroupid>
dock_pv

> <b_m_subgroup_collapsed>
1

$$$$
CHEMBL1782_lig245
                    3D
 Schrodinger Suite 2021-1.
 40 42  0  0  1  0            999 V2000
   19.3010   38.2391   -8.2112 O   0  0  0  0  0  0
   18.2787   37.9151   -7.0003 P   0  0  0  0  0  0
   18.4780   39.1772   -6.0050 O   0  0  0  0  0  0
   13.8887   27.6057   -6.4832 C   0  0  0  0  0  0
   14.3670   28.9286   -7.0119 C   0  0  0  0  0  0
   15.0513   28.9371   -8.2100 C   0  0  0  0  0  0
   15.3010   27.7800   -8.8487 F   0  0  0  0  0  0
   15.4971   30.1258   -8.7488 C   0  0  0  0  0  0
   14.1010   30.1289   -6.3649 C   0  0  0  0  0  0
   14.4734   31.3428   -6.9408 C   0  0  0  0  0  0
   14.0375   32.5082   -6.3650 O   0  0  0  0  0  0
   12.6948   32.8363   -6.7041 C   0  0  0  0  0  0
   15.2341   31.3517   -8.1204 C   0  0  0  0  0  0
   15.7192   32.6233   -8.7342 C   0  0  0  0  0  0
   15.7010   33.9232   -8.2454 C   0  0  0  0  0  0
   16.0945   34.8763   -9.2151 C   0  0  0  0  0  0
   16.2002   36.2819   -9.2102 C   0  0  0  0  0  0
   15.9511   36.9830   -8.0166 N   0  0  0  0  0  0
   16.6258   38.2622   -7.7660 C   0  0  0  0  0  0
   16.5010   36.9447  -10.3637 N   0  0  0  0  0  0
   16.7078   36.1800  -11.4705 C   0  0  0  0  0  0
   16.7539   34.8453  -11.5650 N   0  0  0  0  0  0
   16.4476   34.2415  -10.4320 C   0  0  0  0  0  0
   16.4968   32.5341  -10.2962 S   0  0  0  0  0  0
   18.5010   36.5800   -6.3650 O   0  0  0  0  0  0
   20.2121   38.5800   -7.9904 H   0  0  0  0  0  0
   18.5926   40.0590   -6.4156 H   0  0  0  0  0  0
   13.3010   27.6736   -5.5669 H   0  0  0  0  0  0
   14.7540   26.9572   -6.3650 H   0  0  0  0  0  0
   13.3010   27.1331   -7.2585 H   0  0  0  0  0  0
   16.0510   30.0362   -9.6685 H   0  0  0  0  0  0
   13.5203   30.1263   -5.4555 H   0  0  0  0  0  0
   12.4197   33.7757   -6.2255 H   0  0  0  0  0  0
   12.5746   32.9643   -7.7818 H   0  0  0  0  0  0
   11.9927   32.0723   -6.3650 H   0  0  0  0  0  0
   15.3586   34.2014   -7.2612 H   0  0  0  0  0  0
   14.9484   37.0915   -7.9650 H   0  0  0  0  0  0
   16.6757   38.9266   -8.6287 H   0  0  0  0  0  0
   16.0655   38.7926   -6.9977 H   0  0  0  0  0  0
   16.9010   36.6967  -12.3979 H   0  0  0  0  0  0
  1  2  1  0  0  0
  1 26  1  0  0  0
  2  3  1  0  0  0
  2 19  1  0  0  0
  2 25  2  0  0  0
  3 27  1  0  0  0
  4  5  1  0  0  0
  4 28  1  0  0  0
  4 29  1  0  0  0
  4 30  1  0  0  0
  5  6  1  0  0  0
  5  9  2  0  0  0
  6  7  1  0  0  0
  6  8  2  0  0  0
  8 13  1  0  0  0
  8 31  1  0  0  0
  9 10  1  0  0  0
  9 32  1  0  0  0
 10 11  1  0  0  0
 10 13  2  0  0  0
 11 12  1  0  0  0
 12 33  1  0  0  0
 12 34  1  0  0  0
 12 35  1  0  0  0
 13 14  1  0  0  0
 14 15  2  0  0  0
 14 24  1  0  0  0
 15 16  1  0  0  0
 15 36  1  0  0  0
 16 17  2  0  0  0
 16 23  1  0  0  0
 17 18  1  0  0  0
 17 20  1  0  0  0
 18 19  1  0  0  0
 18 37  1  0  0  0
 19 38  1  0  0  0
 19 39  1  0  0  0
 20 21  2  0  0  0
 21 22  1  0  0  0
 21 40  1  0  0  0
 22 23  2  0  0  0
 23 24  1  0  0  0
M  END
> <s_m_entry_id>
3185

> <s_m_entry_name>
dock_pv.200

> <s_m_Source_Path>
/home/csk/Desktop/cluster/DUD-E-result/fpps

> <s_m_Source_File>
dock_pv.maegz

> <i_m_Source_File_Index>
200

> <chembl_id>
CHEMBL4093024

> <chembl_pref_name>
None

> <i_lp_mmshare_version>
53161

> <r_lp_tautomer_probability>
1

> <s_lp_Force_Field>
OPLS_2005

> <r_lp_Energy>
9.438482

> <b_lp_Chiralities_Consistent>
1

> <s_lp_Variant>
CHEMBL1782_lig245-1

> <s_i_glide_gridfile>
glide-grid_1zw5

> <i_i_glide_lignum>
286

> <i_i_glide_rotatable_bonds>
7

> <r_i_docking_score>
-7.09071558183104

> <r_i_glide_ligand_efficiency>
-0.283628623273242

> <r_i_glide_ligand_efficiency_sa>
-0.829335124626011

> <r_i_glide_ligand_efficiency_ln>
-1.68071208449293

> <r_i_glide_gscore>
-7.09071558183104

> <r_i_glide_lipo>
-0.553558190524533

> <r_i_glide_hbond>
-0.0204963517929464

> <r_i_glide_metal>
-0.343048428749269

> <r_i_glide_rewards>
-0.945440025

> <r_i_glide_evdw>
-28.9238929748535

> <r_i_glide_ecoul>
-29.4706916809082

> <r_i_glide_erotb>
0.528930263092196

> <r_i_glide_esite>
-0.310908200113816

> <r_i_glide_emodel>
-81.1962018080749

> <r_i_glide_energy>
-58.3945846557617

> <r_i_glide_einternal>
15.2229528427124

> <i_i_glide_confnum>
92

> <i_i_glide_posenum>
381

> <r_i_glide_eff_state_penalty>
0

> <s_user_duplicate_titles>
CHEMBL1782_lig245

> <i_f3d_flags>
0

> <s_m_subgroup_title>
dock_pv

> <s_m_subgroupid>
dock_pv

> <b_m_subgroup_collapsed>
1

$$$$
CHEMBL1782_lig236
                    3D
 Schrodinger Suite 2021-1.
 53 56  0  0  1  0            999 V2000
   19.6736   35.7800  -10.8623 O   0  0  0  0  0  0
   18.5742   34.8356  -11.5655 P   0  0  0  0  0  0
   18.9015   33.3800  -10.9470 O   0  0  0  0  0  0
    7.3333   35.7868   -2.1110 C   0  0  0  0  0  0
    8.3375   35.3791   -3.1743 C   0  0  0  0  0  0
    9.6993   35.3933   -2.8766 C   0  0  0  0  0  0
   10.6217   34.9809   -3.8340 C   0  0  0  0  0  0
    7.9069   34.9806   -4.4412 C   0  0  0  0  0  0
    8.8388   34.5839   -5.3978 C   0  0  0  0  0  0
   10.2036   34.5616   -5.0967 C   0  0  0  0  0  0
   11.2278   34.0323   -6.0522 C   0  0  0  0  0  0
   12.4862   34.5210   -6.3559 C   0  0  0  0  0  0
   13.2314   33.6673   -7.2260 C   0  0  0  0  0  0
   14.5107   33.7747   -7.8062 C   0  0  0  0  0  0
   15.2153   34.9821   -7.6707 N   0  0  0  0  0  0
   15.6872   35.7004   -8.8384 C   0  0  1  0  0  0
   15.8359   37.2234   -8.6218 C   0  0  0  0  0  0
   16.8256   37.7138   -7.5761 C   0  0  0  0  0  0
   16.5726   37.5299   -6.2036 C   0  0  0  0  0  0
   17.3865   38.1413   -5.2593 C   0  0  0  0  0  0
   18.4717   38.9045   -5.6662 C   0  0  0  0  0  0
   18.8019   38.9926   -7.0088 C   0  0  0  0  0  0
   18.0002   38.3894   -7.9651 C   0  0  0  0  0  0
   16.9438   35.0817   -9.4563 C   0  0  0  0  0  0
   17.1421   35.3044  -10.7548 N   0  0  0  0  0  0
   17.7010   34.4104   -8.7650 O   0  0  0  0  0  0
   15.0048   32.7925   -8.6123 N   0  0  0  0  0  0
   14.2121   31.7149   -8.8294 C   0  0  0  0  0  0
   12.9560   31.5185   -8.3606 N   0  0  0  0  0  0
   12.5040   32.5039   -7.5809 C   0  0  0  0  0  0
   10.9010   32.5382   -6.9081 S   0  0  0  0  0  0
   18.4164   34.9279  -13.0378 O   0  0  0  0  0  0
   19.6093   36.7105  -11.2164 H   0  0  0  0  0  0
   19.2871   32.7595  -11.6228 H   0  0  0  0  0  0
    7.3932   35.1081   -1.2591 H   0  0  0  0  0  0
    7.5583   36.7889   -1.7433 H   0  0  0  0  0  0
    6.3093   35.7792   -2.4861 H   0  0  0  0  0  0
   10.0441   35.6994   -1.9010 H   0  0  0  0  0  0
   11.6650   34.9274   -3.5721 H   0  0  0  0  0  0
    6.8545   34.9755   -4.6874 H   0  0  0  0  0  0
    8.4912   34.2709   -6.3653 H   0  0  0  0  0  0
   12.8683   35.4422   -5.9649 H   0  0  0  0  0  0
   14.6177   35.5934   -7.1403 H   0  0  0  0  0  0
   14.9010   35.5885   -9.5651 H   0  0  0  0  0  0
   14.8625   37.6421   -8.3653 H   0  0  0  0  0  0
   16.0923   37.7056   -9.5672 H   0  0  0  0  0  0
   15.7039   36.9842   -5.8727 H   0  0  0  0  0  0
   17.1640   38.0495   -4.2051 H   0  0  0  0  0  0
   19.0888   39.4064   -4.9344 H   0  0  0  0  0  0
   19.6676   39.5673   -7.3087 H   0  0  0  0  0  0
   18.2406   38.5307   -9.0103 H   0  0  0  0  0  0
   16.4576   35.7766  -11.3164 H   0  0  0  0  0  0
   14.6096   30.9314   -9.4593 H   0  0  0  0  0  0
  1  2  1  0  0  0
  1 33  1  0  0  0
  2  3  1  0  0  0
  2 25  1  0  0  0
  2 32  2  0  0  0
  3 34  1  0  0  0
  4  5  1  0  0  0
  4 35  1  0  0  0
  4 36  1  0  0  0
  4 37  1  0  0  0
  5  6  1  0  0  0
  5  8  2  0  0  0
  6  7  2  0  0  0
  6 38  1  0  0  0
  7 10  1  0  0  0
  7 39  1  0  0  0
  8  9  1  0  0  0
  8 40  1  0  0  0
  9 10  2  0  0  0
  9 41  1  0  0  0
 10 11  1  0  0  0
 11 12  2  0  0  0
 11 31  1  0  0  0
 12 13  1  0  0  0
 12 42  1  0  0  0
 13 14  2  0  0  0
 13 30  1  0  0  0
 14 15  1  0  0  0
 14 27  1  0  0  0
 15 16  1  0  0  0
 15 43  1  0  0  0
 16 17  1  0  0  0
 16 24  1  0  0  0
 16 44  1  0  0  0
 17 18  1  0  0  0
 17 45  1  0  0  0
 17 46  1  0  0  0
 18 19  2  0  0  0
 18 23  1  0  0  0
 19 20  1  0  0  0
 19 47  1  0  0  0
 20 21  2  0  0  0
 20 48  1  0  0  0
 21 22  1  0  0  0
 21 49  1  0  0  0
 22 23  2  0  0  0
 22 50  1  0  0  0
 23 51  1  0  0  0
 24 25  1  0  0  0
 24 26  2  0  0  0
 25 52  1  0  0  0
 27 28  2  0  0  0
 28 29  1  0  0  0
 28 53  1  0  0  0
 29 30  2  0  0  0
 30 31  1  0  0  0
M  END
> <s_m_entry_id>
3186

> <s_m_entry_name>
dock_pv.201

> <s_m_Source_Path>
/home/csk/Desktop/cluster/DUD-E-result/fpps

> <s_m_Source_File>
dock_pv.maegz

> <i_m_Source_File_Index>
201

> <chembl_id>
CHEMBL4094213

> <chembl_pref_name>
None

> <i_lp_mmshare_version>
53161

> <r_lp_tautomer_probability>
1

> <s_lp_Force_Field>
OPLS_2005

> <r_lp_Energy>
5.149461

> <b_lp_Chiralities_Consistent>
1

> <s_lp_Variant>
CHEMBL1782_lig236-1

> <s_i_glide_gridfile>
glide-grid_1zw5

> <i_i_glide_lignum>
269

> <i_i_glide_rotatable_bonds>
10

> <r_i_docking_score>
-7.03218310338384

> <r_i_glide_ligand_efficiency>
-0.219755721980745

> <r_i_glide_ligand_efficiency_sa>
-0.697680927690539

> <r_i_glide_ligand_efficiency_ln>
-1.57469748691926

> <r_i_glide_gscore>
-7.03218310338384

> <r_i_glide_lipo>
-0.714399257681871

> <r_i_glide_hbond>
0

> <r_i_glide_metal>
0

> <r_i_glide_rewards>
-0.365002499999999

> <r_i_glide_evdw>
-43.665885925293

> <r_i_glide_ecoul>
-26.5664367675781

> <r_i_glide_erotb>
0.64399285063626

> <r_i_glide_esite>
-0.42851438493686

> <r_i_glide_emodel>
-97.4491170341189

> <r_i_glide_energy>
-70.2323226928711

> <r_i_glide_einternal>
11.4511318206787

> <i_i_glide_confnum>
5

> <i_i_glide_posenum>
367

> <r_i_glide_eff_state_penalty>
0

> <s_user_duplicate_titles>
CHEMBL1782_lig236

> <i_f3d_flags>
0

> <s_m_subgroup_title>
dock_pv

> <s_m_subgroupid>
dock_pv

> <b_m_subgroup_collapsed>
1

$$$$
CHEMBL1782_lig97
                    3D
 Schrodinger Suite 2021-1.
 61 60  0  0  1  0            999 V2000
   17.0104   36.1345  -10.1241 C   0  0  0  0  0  0
   18.1321   34.7957  -10.9363 P   0  0  0  0  0  0
   17.7234   37.2974   -8.7963 P   0  0  0  0  0  0
   18.1010   33.3800  -10.3650 O   0  0  0  0  0  0
   18.1010   36.5802   -7.5137 O   0  0  0  0  0  0
   16.5010   36.9800  -11.1650 O   0  0  0  0  0  0
   17.7511   34.8910  -12.5986 O   0  0  0  0  0  0
   19.6910   35.4492  -10.7651 O   0  0  0  0  0  0
   19.0672   37.9896   -9.5650 O   0  0  0  0  0  0
   16.5660   38.5503   -8.6530 O   0  0  0  0  0  0
   15.7576   35.4429   -9.5130 C   0  0  0  0  0  0
   16.0380   34.3848   -8.4137 C   0  0  0  0  0  0
   10.6709   38.7310   -1.9951 C   0  0  0  0  0  0
   10.3438   37.9031   -3.2525 C   0  0  0  0  0  0
   12.8741   34.3317   -7.7967 C   0  0  0  0  0  0
   11.6361   33.4234   -7.6984 C   0  0  0  0  0  0
   10.4392   33.9187   -8.5262 C   0  0  0  0  0  0
    9.7706   35.2130   -8.0130 C   0  0  0  0  0  0
    9.1318   35.1215   -6.6083 C   0  0  0  0  0  0
    9.9777   35.7453   -5.4822 C   0  0  0  0  0  0
    9.2543   35.7162   -4.1206 C   0  0  0  0  0  0
    9.9937   36.4259   -2.9690 C   0  0  0  0  0  0
   15.3345   34.6169   -7.0589 C   0  0  0  0  0  0
   14.0142   33.8464   -6.8890 C   0  0  0  0  0  0
    9.4267   39.1302   -1.1842 C   0  0  0  0  0  0
   17.2732   37.4244  -11.5762 H   0  0  0  0  0  0
   17.3807   35.6874  -13.0283 H   0  0  0  0  0  0
   19.8771   36.4115  -10.7116 H   0  0  0  0  0  0
   19.0931   38.1711  -10.5477 H   0  0  0  0  0  0
   16.8109   39.4470   -9.0149 H   0  0  0  0  0  0
   15.1922   34.9512  -10.3065 H   0  0  0  0  0  0
   15.0871   36.2057   -9.1146 H   0  0  0  0  0  0
   17.1044   34.3302   -8.2254 H   0  0  0  0  0  0
   15.7888   33.3910   -8.7911 H   0  0  0  0  0  0
   11.1841   39.6447   -2.3003 H   0  0  0  0  0  0
   11.3769   38.1951   -1.3597 H   0  0  0  0  0  0
    9.5284   38.3892   -3.7911 H   0  0  0  0  0  0
   11.1997   37.9396   -3.9266 H   0  0  0  0  0  0
   13.2036   34.3568   -8.8360 H   0  0  0  0  0  0
   12.6200   35.3586   -7.5352 H   0  0  0  0  0  0
   11.3402   33.2917   -6.6572 H   0  0  0  0  0  0
   11.9079   32.4260   -8.0499 H   0  0  0  0  0  0
    9.7001   33.1199   -8.5722 H   0  0  0  0  0  0
   10.7597   34.0684   -9.5592 H   0  0  0  0  0  0
    8.9991   35.4921   -8.7321 H   0  0  0  0  0  0
   10.4846   36.0329   -8.0396 H   0  0  0  0  0  0
    8.8999   34.0850   -6.3645 H   0  0  0  0  0  0
    8.1701   35.6368   -6.6390 H   0  0  0  0  0  0
   10.1995   36.7765   -5.7558 H   0  0  0  0  0  0
   10.9365   35.2329   -5.4002 H   0  0  0  0  0  0
    9.0708   34.6795   -3.8355 H   0  0  0  0  0  0
    8.2696   36.1698   -4.2270 H   0  0  0  0  0  0
   10.9023   35.8755   -2.7228 H   0  0  0  0  0  0
    9.3643   36.3633   -2.0810 H   0  0  0  0  0  0
   15.1915   35.6812   -6.8679 H   0  0  0  0  0  0
   16.0032   34.2725   -6.2713 H   0  0  0  0  0  0
   13.6915   33.9158   -5.8502 H   0  0  0  0  0  0
   14.1973   32.7846   -7.0647 H   0  0  0  0  0  0
    9.6993   39.7786   -0.3519 H   0  0  0  0  0  0
    8.9060   38.2657   -0.7722 H   0  0  0  0  0  0
    8.7183   39.6860   -1.8000 H   0  0  0  0  0  0
  1  2  1  0  0  0
  1  3  1  0  0  0
  1  6  1  0  0  0
  1 11  1  0  0  0
  2  4  2  0  0  0
  2  7  1  0  0  0
  2  8  1  0  0  0
  3  5  2  0  0  0
  3  9  1  0  0  0
  3 10  1  0  0  0
  6 26  1  0  0  0
  7 27  1  0  0  0
  8 28  1  0  0  0
  9 29  1  0  0  0
 10 30  1  0  0  0
 11 12  1  0  0  0
 11 31  1  0  0  0
 11 32  1  0  0  0
 12 23  1  0  0  0
 12 33  1  0  0  0
 12 34  1  0  0  0
 13 14  1  0  0  0
 13 25  1  0  0  0
 13 35  1  0  0  0
 13 36  1  0  0  0
 14 22  1  0  0  0
 14 37  1  0  0  0
 14 38  1  0  0  0
 15 24  1  0  0  0
 15 16  1  0  0  0
 15 39  1  0  0  0
 15 40  1  0  0  0
 16 17  1  0  0  0
 16 41  1  0  0  0
 16 42  1  0  0  0
 17 18  1  0  0  0
 17 43  1  0  0  0
 17 44  1  0  0  0
 18 19  1  0  0  0
 18 45  1  0  0  0
 18 46  1  0  0  0
 19 20  1  0  0  0
 19 47  1  0  0  0
 19 48  1  0  0  0
 20 21  1  0  0  0
 20 49  1  0  0  0
 20 50  1  0  0  0
 21 22  1  0  0  0
 21 51  1  0  0  0
 21 52  1  0  0  0
 22 53  1  0  0  0
 22 54  1  0  0  0
 23 24  1  0  0  0
 23 55  1  0  0  0
 23 56  1  0  0  0
 24 57  1  0  0  0
 24 58  1  0  0  0
 25 59  1  0  0  0
 25 60  1  0  0  0
 25 61  1  0  0  0
M  END
> <s_m_entry_id>
3187

> <s_m_entry_name>
dock_pv.202

> <s_m_Source_Path>
/home/csk/Desktop/cluster/DUD-E-result/fpps

> <s_m_Source_File>
dock_pv.maegz

> <i_m_Source_File_Index>
202

> <chembl_id>
CHEMBL55837

> <chembl_pref_name>
None

> <i_lp_mmshare_version>
53161

> <r_lp_tautomer_probability>
1

> <s_lp_Force_Field>
OPLS_2005

> <r_lp_Energy>
-0.988781

> <b_lp_Chiralities_Consistent>
1

> <s_lp_Variant>
CHEMBL1782_lig97-1

> <s_i_glide_gridfile>
glide-grid_1zw5

> <i_i_glide_lignum>
107

> <i_i_glide_rotatable_bonds>
21

> <r_i_docking_score>
-7.03209660232107

> <r_i_glide_ligand_efficiency>
-0.281283864092843

> <r_i_glide_ligand_efficiency_sa>
-0.822479007198044

> <r_i_glide_ligand_efficiency_ln>
-1.66681762968

> <r_i_glide_gscore>
-7.03209660232107

> <r_i_glide_lipo>
-0.52113866767295

> <r_i_glide_hbond>
0

> <r_i_glide_metal>
-2.3

> <r_i_glide_rewards>
-0.665452090909089

> <r_i_glide_evdw>
-23.2663631439209

> <r_i_glide_ecoul>
-57.550365447998

> <r_i_glide_erotb>
1.81781231345701

> <r_i_glide_esite>
-0.2

> <r_i_glide_emodel>
-121.538054611257

> <r_i_glide_energy>
-80.8167285919189

> <r_i_glide_einternal>
33.615062713623

> <i_i_glide_confnum>
19

> <i_i_glide_posenum>
116

> <r_i_glide_eff_state_penalty>
0

> <s_user_duplicate_titles>
CHEMBL1782_lig97

> <i_f3d_flags>
0

> <s_m_subgroup_title>
dock_pv

> <s_m_subgroupid>
dock_pv

> <b_m_subgroup_collapsed>
1

$$$$
CHEMBL1782_lig169
                    3D
 Schrodinger Suite 2021-1.
 36 37  0  0  1  0            999 V2000
   15.1738   34.8115   -7.3051 C   0  0  0  0  0  0
   16.1944   35.7124   -7.6146 N   0  0  0  0  0  0
   16.2739   35.9449   -9.0666 C   0  0  0  0  0  0
   17.8382   35.2513   -9.7226 P   0  0  0  0  0  0
   17.8629   35.7799  -11.3181 O   0  0  0  0  0  0
   18.1009   33.7800   -9.5311 O   0  0  0  0  0  0
   18.9009   36.1800   -8.7660 O   0  0  0  0  0  0
   16.2412   37.7596   -9.3131 P   0  0  0  0  0  0
   14.9010   38.1801   -8.3959 O   0  0  0  0  0  0
   16.1010   38.1318  -10.7650 O   0  0  0  0  0  0
   17.7210   38.2168   -8.5947 O   0  0  0  0  0  0
   15.3010   33.4700   -7.6475 C   0  0  0  0  0  0
   14.2759   32.5773   -7.3479 C   0  0  0  0  0  0
   13.1098   33.0840   -6.7651 C   0  0  0  0  0  0
   13.0485   34.4422   -6.4491 C   0  0  0  0  0  0
   14.0769   35.3025   -6.6808 N   0  0  0  0  0  0
   14.4692   31.1356   -7.6165 C   0  0  0  0  0  0
   14.1008   30.1864   -6.6597 C   0  0  0  0  0  0
   14.2996   28.8335   -6.8932 C   0  0  0  0  0  0
   14.9015   28.4308   -8.0745 C   0  0  0  0  0  0
   15.2826   29.3624   -9.0375 C   0  0  0  0  0  0
   15.0619   30.7125   -8.8110 C   0  0  0  0  0  0
   16.0413   36.5961   -7.1405 H   0  0  0  0  0  0
   15.4269   35.4983   -9.5918 H   0  0  0  0  0  0
   18.3309   36.6280  -11.5749 H   0  0  0  0  0  0
   18.6520   37.1391   -8.6037 H   0  0  0  0  0  0
   14.0017   37.8837   -8.6701 H   0  0  0  0  0  0
   18.0737   39.0993   -8.8767 H   0  0  0  0  0  0
   16.2074   33.1015   -8.0961 H   0  0  0  0  0  0
   12.2794   32.4299   -6.5403 H   0  0  0  0  0  0
   12.1579   34.8507   -5.9948 H   0  0  0  0  0  0
   13.6300   30.4878   -5.7369 H   0  0  0  0  0  0
   13.9662   28.1001   -6.1756 H   0  0  0  0  0  0
   15.0547   27.3801   -8.2659 H   0  0  0  0  0  0
   15.7235   29.0283   -9.9647 H   0  0  0  0  0  0
   15.3447   31.4253   -9.5708 H   0  0  0  0  0  0
  1 12  2  0  0  0
  1  2  1  0  0  0
  1 16  1  0  0  0
  2  3  1  0  0  0
  2 23  1  0  0  0
  3  4  1  0  0  0
  3  8  1  0  0  0
  3 24  1  0  0  0
  4  6  2  0  0  0
  4  7  1  0  0  0
  4  5  1  0  0  0
  5 25  1  0  0  0
  7 26  1  0  0  0
  8  9  1  0  0  0
  8 10  2  0  0  0
  8 11  1  0  0  0
  9 27  1  0  0  0
 11 28  1  0  0  0
 12 13  1  0  0  0
 12 29  1  0  0  0
 13 14  2  0  0  0
 13 17  1  0  0  0
 14 15  1  0  0  0
 14 30  1  0  0  0
 15 16  2  0  0  0
 15 31  1  0  0  0
 17 18  2  0  0  0
 17 22  1  0  0  0
 18 19  1  0  0  0
 18 32  1  0  0  0
 19 20  2  0  0  0
 19 33  1  0  0  0
 20 21  1  0  0  0
 20 34  1  0  0  0
 21 22  2  0  0  0
 21 35  1  0  0  0
 22 36  1  0  0  0
M  END
> <s_m_entry_id>
3188

> <s_m_entry_name>
dock_pv.203

> <s_m_Source_Path>
/home/csk/Desktop/cluster/DUD-E-result/fpps

> <s_m_Source_File>
dock_pv.maegz

> <i_m_Source_File_Index>
203

> <chembl_id>
CHEMBL2048239

> <chembl_pref_name>
None

> <i_lp_mmshare_version>
53161

> <r_lp_tautomer_probability>
0.999999772200052

> <s_lp_Force_Field>
OPLS_2005

> <r_lp_Energy>
-3.011677

> <b_lp_Chiralities_Consistent>
1

> <s_lp_Variant>
CHEMBL1782_lig169-1

> <s_i_glide_gridfile>
glide-grid_1zw5

> <i_i_glide_lignum>
192

> <i_i_glide_rotatable_bonds>
9

> <r_i_docking_score>
-6.96354378262111

> <r_i_glide_ligand_efficiency>
-0.316524717391869

> <r_i_glide_ligand_efficiency_sa>
-0.886914706342767

> <r_i_glide_ligand_efficiency_ln>
-1.7021441019036

> <r_i_glide_gscore>
-6.96354378262111

> <r_i_glide_lipo>
-0.453330815610978

> <r_i_glide_hbond>
-0.0716940703459854

> <r_i_glide_metal>
-2.3

> <r_i_glide_rewards>
0.400349786567116

> <r_i_glide_evdw>
-15.9945020675659

> <r_i_glide_ecoul>
-57.8225708007812

> <r_i_glide_erotb>
0.560856420147035

> <r_i_glide_esite>
-0.3

> <r_i_glide_emodel>
-105.606729224173

> <r_i_glide_energy>
-73.8170728683472

> <r_i_glide_einternal>
25.2276515960693

> <i_i_glide_confnum>
187

> <i_i_glide_posenum>
51

> <r_i_glide_eff_state_penalty>
0

> <s_user_duplicate_titles>
CHEMBL1782_lig169

> <i_f3d_flags>
0

> <s_m_subgroup_title>
dock_pv

> <s_m_subgroupid>
dock_pv

> <b_m_subgroup_collapsed>
1

$$$$
CHEMBL1782_lig64
                    3D
 Schrodinger Suite 2021-1.
 43 43  0  0  1  0            999 V2000
   16.8602   36.2801   -9.9413 C   0  0  0  0  0  0
   17.6522   37.3800   -8.6648 P   0  0  0  0  0  0
   17.9830   34.9401  -10.5304 P   0  0  0  0  0  0
   15.5558   35.6492   -9.3773 C   0  0  0  0  0  0
   18.1099   36.5800   -7.4580 O   0  0  0  0  0  0
   18.1010   33.7800   -9.5650 O   0  0  0  0  0  0
   16.5010   37.0543  -11.0917 O   0  0  0  0  0  0
   18.9175   38.0802   -9.5650 O   0  0  0  0  0  0
   17.3631   34.5800  -12.0696 O   0  0  0  0  0  0
   16.4872   38.5800   -8.3650 O   0  0  0  0  0  0
   19.4739   35.7267  -10.7650 O   0  0  0  0  0  0
   15.4130   33.3800   -8.3021 N   0  0  2  0  0  0
   15.5823   34.8107   -8.0694 C   0  0  0  0  0  0
   10.9820   33.7492   -7.5257 C   0  0  0  0  0  0
   14.0739   32.8917   -7.9818 C   0  0  0  0  0  0
   11.5765   32.9143   -8.6549 C   0  0  0  0  0  0
   11.1936   33.3801   -6.1957 C   0  0  0  0  0  0
   10.2495   34.9022   -7.8213 C   0  0  0  0  0  0
   13.0196   33.3288   -9.0141 C   0  0  0  0  0  0
   10.7068   34.1801   -5.1650 C   0  0  0  0  0  0
    9.7404   35.6895   -6.7915 C   0  0  0  0  0  0
    9.9777   35.3284   -5.4667 C   0  0  0  0  0  0
   14.9010   36.4858   -9.1532 H   0  0  0  0  0  0
   15.0716   35.0586  -10.1586 H   0  0  0  0  0  0
   17.3236   37.3992  -11.5027 H   0  0  0  0  0  0
   18.9010   38.1800  -10.5574 H   0  0  0  0  0  0
   16.8377   35.2224  -12.5852 H   0  0  0  0  0  0
   16.6780   39.4964   -8.6804 H   0  0  0  0  0  0
   19.5455   36.6568  -11.0956 H   0  0  0  0  0  0
   16.0934   32.8424   -7.7766 H   0  0  0  0  0  0
   16.5010   34.9305   -7.5125 H   0  0  0  0  0  0
   14.8056   35.1729   -7.3923 H   0  0  0  0  0  0
   14.1024   31.8010   -7.9585 H   0  0  0  0  0  0
   13.8020   33.1963   -6.9708 H   0  0  0  0  0  0
   10.9389   33.0163   -9.5355 H   0  0  0  0  0  0
   11.5318   31.8533   -8.4017 H   0  0  0  0  0  0
   11.7542   32.4849   -5.9650 H   0  0  0  0  0  0
   10.0868   35.1948   -8.8488 H   0  0  0  0  0  0
   13.0386   34.4081   -9.1650 H   0  0  0  0  0  0
   13.3010   32.8787   -9.9650 H   0  0  0  0  0  0
   10.9010   33.9131   -4.1366 H   0  0  0  0  0  0
    9.1789   36.5818   -7.0243 H   0  0  0  0  0  0
    9.5986   35.9461   -4.6662 H   0  0  0  0  0  0
  1  2  1  0  0  0
  1  3  1  0  0  0
  1  4  1  0  0  0
  1  7  1  0  0  0
  2  5  2  0  0  0
  2  8  1  0  0  0
  2 10  1  0  0  0
  3  6  2  0  0  0
  3  9  1  0  0  0
  3 11  1  0  0  0
  4 13  1  0  0  0
  4 23  1  0  0  0
  4 24  1  0  0  0
  7 25  1  0  0  0
  8 26  1  0  0  0
  9 27  1  0  0  0
 10 28  1  0  0  0
 11 29  1  0  0  0
 12 13  1  0  0  0
 12 15  1  0  0  0
 12 30  1  0  0  0
 13 31  1  0  0  0
 13 32  1  0  0  0
 14 16  1  0  0  0
 14 17  1  0  0  0
 14 18  2  0  0  0
 15 19  1  0  0  0
 15 33  1  0  0  0
 15 34  1  0  0  0
 16 19  1  0  0  0
 16 35  1  0  0  0
 16 36  1  0  0  0
 17 20  2  0  0  0
 17 37  1  0  0  0
 18 21  1  0  0  0
 18 38  1  0  0  0
 19 39  1  0  0  0
 19 40  1  0  0  0
 20 22  1  0  0  0
 20 41  1  0  0  0
 21 22  2  0  0  0
 21 42  1  0  0  0
 22 43  1  0  0  0
M  END
> <s_m_entry_id>
3189

> <s_m_entry_name>
dock_pv.204

> <s_m_Source_Path>
/home/csk/Desktop/cluster/DUD-E-result/fpps

> <s_m_Source_File>
dock_pv.maegz

> <i_m_Source_File_Index>
204

> <chembl_id>
CHEMBL273286

> <chembl_pref_name>
None

> <i_lp_mmshare_version>
53161

> <r_lp_tautomer_probability>
1

> <s_lp_Force_Field>
OPLS_2005

> <r_lp_Energy>
1.931486

> <b_lp_Chiralities_Consistent>
1

> <s_lp_Variant>
CHEMBL1782_lig64-1

> <s_i_glide_gridfile>
glide-grid_1zw5

> <i_i_glide_lignum>
70

> <i_i_glide_rotatable_bonds>
14

> <r_i_docking_score>
-6.88492540233302

> <r_i_glide_ligand_efficiency>
-0.312951154651501

> <r_i_glide_ligand_efficiency_sa>
-0.876901443004009

> <r_i_glide_ligand_efficiency_ln>
-1.6829269020861

> <r_i_glide_gscore>
-6.88492540233302

> <r_i_glide_lipo>
-0.0130682451760008

> <r_i_glide_hbond>
0

> <r_i_glide_metal>
-2.3

> <r_i_glide_rewards>
-1.00060118181818

> <r_i_glide_evdw>
-11.9087982177734

> <r_i_glide_ecoul>
-67.5977325439453

> <r_i_glide_erotb>
1.22418393554983

> <r_i_glide_esite>
-0.2

> <r_i_glide_emodel>
-128.794724796856

> <r_i_glide_energy>
-79.5065307617188

> <r_i_glide_einternal>
24.0026111602783

> <i_i_glide_confnum>
332

> <i_i_glide_posenum>
258

> <r_i_glide_eff_state_penalty>
0

> <s_user_duplicate_titles>
CHEMBL1782_lig64

> <i_f3d_flags>
0

> <s_m_subgroup_title>
dock_pv

> <s_m_subgroupid>
dock_pv

> <b_m_subgroup_collapsed>
1

$$$$
CHEMBL1782_lig230
                    3D
 Schrodinger Suite 2021-1.
 40 42  0  0  1  0            999 V2000
   19.6570   36.9226   -6.7677 O   0  0  0  0  0  0
   18.1200   37.3802   -6.5103 P   0  0  0  0  0  0
   18.1375   38.3946   -5.2491 O   0  0  0  0  0  0
   10.1328   30.9644   -8.2739 C   0  0  0  0  0  0
   11.4382   31.7113   -8.3643 C   0  0  0  0  0  0
   11.5061   33.0708   -8.6783 C   0  0  0  0  0  0
   10.1011   34.0453   -8.9295 Cl  0  0  0  0  0  0
   12.7485   33.6615   -8.8489 C   0  0  0  0  0  0
   12.6105   30.9812   -8.1789 C   0  0  0  0  0  0
   13.8686   31.5704   -8.3297 C   0  0  0  0  0  0
   15.0499   30.8834   -8.1085 O   0  0  0  0  0  0
   15.0081   29.5436   -7.6258 C   0  0  0  0  0  0
   13.9248   32.9161   -8.7339 C   0  0  0  0  0  0
   15.1759   33.6197   -9.1115 C   0  0  0  0  0  0
   15.4724   34.9583   -8.9414 C   0  0  0  0  0  0
   16.7529   35.2985   -9.4314 C   0  0  0  0  0  0
   17.5092   36.4822   -9.3621 C   0  0  0  0  0  0
   16.9504   37.6568   -8.8216 N   0  0  0  0  0  0
   17.8093   38.4586   -7.9542 C   0  0  0  0  0  0
   18.8309   36.4461   -9.6596 N   0  0  0  0  0  0
   19.2751   35.3802  -10.3644 C   0  0  0  0  0  0
   18.6203   34.2071  -10.5722 N   0  0  0  0  0  0
   17.3983   34.1860  -10.0422 C   0  0  0  0  0  0
   16.4336   32.7433   -9.9649 S   0  0  0  0  0  0
   17.2988   36.1522   -6.3615 O   0  0  0  0  0  0
   20.3436   37.6082   -6.5825 H   0  0  0  0  0  0
   18.7144   39.1813   -5.3285 H   0  0  0  0  0  0
   10.2289   29.9962   -8.7648 H   0  0  0  0  0  0
    9.2956   31.4866   -8.7390 H   0  0  0  0  0  0
    9.9410   30.7534   -7.2312 H   0  0  0  0  0  0
   12.7820   34.6950   -9.1554 H   0  0  0  0  0  0
   12.5223   29.9319   -7.9444 H   0  0  0  0  0  0
   16.0243   29.2074   -7.4288 H   0  0  0  0  0  0
   14.4536   29.4669   -6.6889 H   0  0  0  0  0  0
   14.5685   28.8667   -8.3604 H   0  0  0  0  0  0
   14.8177   35.6640   -8.4500 H   0  0  0  0  0  0
   16.6494   38.2761   -9.5645 H   0  0  0  0  0  0
   18.7243   38.7943   -8.4478 H   0  0  0  0  0  0
   17.2685   39.3546   -7.6481 H   0  0  0  0  0  0
   20.2632   35.4936  -10.7759 H   0  0  0  0  0  0
  1  2  1  0  0  0
  1 26  1  0  0  0
  2  3  1  0  0  0
  2 19  1  0  0  0
  2 25  2  0  0  0
  3 27  1  0  0  0
  4  5  1  0  0  0
  4 28  1  0  0  0
  4 29  1  0  0  0
  4 30  1  0  0  0
  5  6  1  0  0  0
  5  9  2  0  0  0
  6  7  1  0  0  0
  6  8  2  0  0  0
  8 13  1  0  0  0
  8 31  1  0  0  0
  9 10  1  0  0  0
  9 32  1  0  0  0
 10 11  1  0  0  0
 10 13  2  0  0  0
 11 12  1  0  0  0
 12 33  1  0  0  0
 12 34  1  0  0  0
 12 35  1  0  0  0
 13 14  1  0  0  0
 14 15  2  0  0  0
 14 24  1  0  0  0
 15 16  1  0  0  0
 15 36  1  0  0  0
 16 17  2  0  0  0
 16 23  1  0  0  0
 17 18  1  0  0  0
 17 20  1  0  0  0
 18 19  1  0  0  0
 18 37  1  0  0  0
 19 38  1  0  0  0
 19 39  1  0  0  0
 20 21  2  0  0  0
 21 22  1  0  0  0
 21 40  1  0  0  0
 22 23  2  0  0  0
 23 24  1  0  0  0
M  END
> <s_m_entry_id>
3190

> <s_m_entry_name>
dock_pv.205

> <s_m_Source_Path>
/home/csk/Desktop/cluster/DUD-E-result/fpps

> <s_m_Source_File>
dock_pv.maegz

> <i_m_Source_File_Index>
205

> <chembl_id>
CHEMBL4067698

> <chembl_pref_name>
None

> <i_lp_mmshare_version>
53161

> <r_lp_tautomer_probability>
1

> <s_lp_Force_Field>
OPLS_2005

> <r_lp_Energy>
9.623667

> <b_lp_Chiralities_Consistent>
1

> <s_lp_Variant>
CHEMBL1782_lig230-1

> <s_i_glide_gridfile>
glide-grid_1zw5

> <i_i_glide_lignum>
259

> <i_i_glide_rotatable_bonds>
7

> <r_i_docking_score>
-6.8020856773475

> <r_i_glide_ligand_efficiency>
-0.2720834270939

> <r_i_glide_ligand_efficiency_sa>
-0.79557676624269

> <r_i_glide_ligand_efficiency_ln>
-1.61229814759006

> <r_i_glide_gscore>
-6.8020856773475

> <r_i_glide_lipo>
-0.340576474479886

> <r_i_glide_hbond>
-0.0111838251430302

> <r_i_glide_metal>
0

> <r_i_glide_rewards>
-0.833251636363636

> <r_i_glide_evdw>
-36.1507530212402

> <r_i_glide_ecoul>
-28.020206451416

> <r_i_glide_erotb>
0.490463909701063

> <r_i_glide_esite>
-0.3

> <r_i_glide_emodel>
-85.0403712948342

> <r_i_glide_energy>
-64.1709594726562

> <r_i_glide_einternal>
18.7073020935059

> <i_i_glide_confnum>
99

> <i_i_glide_posenum>
139

> <r_i_glide_eff_state_penalty>
0

> <s_user_duplicate_titles>
CHEMBL1782_lig230

> <i_f3d_flags>
0

> <s_m_subgroup_title>
dock_pv

> <s_m_subgroupid>
dock_pv

> <b_m_subgroup_collapsed>
1

$$$$
83740
                    3D
 Schrodinger Suite 2021-1.
 26 26  0  0  1  0            999 V2000
   13.3095   31.5391   -8.7633 C   0  0  0  0  0  0
   13.5750   32.8527   -9.1651 C   0  0  0  0  0  0
   14.8937   33.3162   -9.1529 C   0  0  0  0  0  0
   15.9234   32.5202   -8.7632 N   0  0  0  0  0  0
   15.6555   31.2392   -8.3982 C   0  0  0  0  0  0
   14.3665   30.7163   -8.3738 C   0  0  0  0  0  0
   14.0988   29.0903   -7.8648 Cl  0  0  0  0  0  0
   15.1471   34.6362   -9.5651 N   0  0  0  0  0  0
   16.3702   35.3775   -9.2116 C   0  0  0  0  0  0
   16.2265   37.2539   -9.3435 P   0  0  0  0  0  0
   16.1010   37.7798  -10.7616 O   0  0  0  0  0  0
   14.9008   37.5948   -8.3651 O   0  0  0  0  0  0
   17.5966   37.8363   -8.5175 O   0  0  0  0  0  0
   17.8032   34.8683  -10.2409 P   0  0  0  0  0  0
   18.1010   33.3802  -10.3650 O   0  0  0  0  0  0
   17.6483   35.7650  -11.6946 O   0  0  0  0  0  0
   18.9010   35.6882   -9.2331 O   0  0  0  0  0  0
   12.2982   31.1566   -8.7651 H   0  0  0  0  0  0
   12.7627   33.4883   -9.4873 H   0  0  0  0  0  0
   16.4951   30.6209   -8.1117 H   0  0  0  0  0  0
   14.3327   35.1941   -9.8132 H   0  0  0  0  0  0
   16.5965   35.1250   -8.1710 H   0  0  0  0  0  0
   13.9929   37.3442   -8.6562 H   0  0  0  0  0  0
   17.9244   38.7437   -8.7132 H   0  0  0  0  0  0
   18.1012   36.6443  -11.8698 H   0  0  0  0  0  0
   19.3978   36.4709   -9.5719 H   0  0  0  0  0  0
  1  6  1  0  0  0
  1  2  2  0  0  0
  1 18  1  0  0  0
  2  3  1  0  0  0
  2 19  1  0  0  0
  3  4  2  0  0  0
  3  8  1  0  0  0
  4  5  1  0  0  0
  5  6  2  0  0  0
  5 20  1  0  0  0
  6  7  1  0  0  0
  8  9  1  0  0  0
  8 21  1  0  0  0
  9 10  1  0  0  0
  9 14  1  0  0  0
  9 22  1  0  0  0
 10 11  2  0  0  0
 10 12  1  0  0  0
 10 13  1  0  0  0
 12 23  1  0  0  0
 13 24  1  0  0  0
 14 15  2  0  0  0
 14 16  1  0  0  0
 14 17  1  0  0  0
 16 25  1  0  0  0
 17 26  1  0  0  0
M  END
> <s_m_entry_id>
3306

> <s_m_entry_name>
ligand_docking-pose.33

> <s_m_Source_Path>
/home/csk/Desktop/cluster/DUD-E-result/fpps

> <s_m_Source_File>
ligand_docking-pose.sdf

> <i_m_Source_File_Index>
33

> <i_lp_mmshare_version>
53161

> <r_lp_tautomer_probability>
0.999999772200052

> <s_lp_Force_Field>
OPLS_2005

> <r_lp_Energy>
-7.684754

> <b_lp_Chiralities_Consistent>
1

> <s_lp_Variant>
83740-1

> <s_i_glide_gridfile>
glide-grid_1zw5

> <i_i_glide_lignum>
32

> <i_i_glide_rotatable_bonds>
8

> <r_i_docking_score>
-8.18684338132623

> <r_i_glide_ligand_efficiency>
-0.481579022430955

> <r_i_glide_ligand_efficiency_sa>
-1.23827527365447

> <r_i_glide_ligand_efficiency_ln>
-2.13576512614952

> <r_i_glide_gscore>
-8.18684338132623

> <r_i_glide_lipo>
-0.0304534535850088

> <r_i_glide_hbond>
-0.16

> <r_i_glide_metal>
-2.3

> <r_i_glide_rewards>
-1.34267782025485

> <r_i_glide_evdw>
-10.3328084945679

> <r_i_glide_ecoul>
-54.7403755187988

> <r_i_glide_erotb>
0.42245383088203

> <r_i_glide_esite>
-0.259525513640003

> <r_i_glide_emodel>
-114.262687827679

> <r_i_glide_energy>
-65.0731840133667

> <r_i_glide_einternal>
16.433744430542

> <i_i_glide_confnum>
6

> <i_i_glide_posenum>
378

> <r_i_glide_eff_state_penalty>
0

> <s_user_duplicate_titles>
83740

> <i_f3d_flags>
0

> <s_m_subgroup_title>
dock_pv

> <s_m_subgroupid>
dock_pv1

> <b_m_subgroup_collapsed>
0

$$$$
83931
                    3D
 Schrodinger Suite 2021-1.
 35 34  0  0  1  0            999 V2000
   11.2704   33.9929   -8.0560 C   0  0  0  0  0  0
   12.4387   33.7103   -9.0109 C   0  0  0  0  0  0
   13.7764   34.2638   -8.4868 C   0  0  0  0  0  0
   14.9459   34.0972   -9.3774 N   0  0  0  0  0  0
   15.1368   32.7046   -9.8215 C   0  0  0  0  0  0
   15.4624   31.6953   -8.6962 C   0  0  0  0  0  0
   15.3897   30.2356   -9.1651 C   0  0  0  0  0  0
   16.2206   34.7824   -9.0025 C   0  0  0  0  0  0
   16.0543   36.0430   -7.6052 P   0  0  0  0  0  0
   15.3088   35.6151   -6.3650 O   0  0  0  0  0  0
   17.7010   36.4309   -7.2863 O   0  0  0  0  0  0
   15.3010   37.3532   -8.3922 O   0  0  0  0  0  0
   16.9572   35.5594  -10.5525 P   0  0  0  0  0  0
   16.1010   36.5800  -11.2757 O   0  0  0  0  0  0
   18.4304   36.1800   -9.9650 O   0  0  0  0  0  0
   17.4934   34.2336  -11.4837 O   0  0  0  0  0  0
   10.3380   33.5975   -8.4609 H   0  0  0  0  0  0
   11.1339   35.0641   -7.9029 H   0  0  0  0  0  0
   11.4321   33.5285   -7.0826 H   0  0  0  0  0  0
   12.4886   32.6322   -9.1651 H   0  0  0  0  0  0
   12.2137   34.1800   -9.9650 H   0  0  0  0  0  0
   13.5972   35.3260   -8.3262 H   0  0  0  0  0  0
   13.9743   33.8454   -7.4995 H   0  0  0  0  0  0
   14.2698   32.3651  -10.3885 H   0  0  0  0  0  0
   15.9342   32.6689  -10.5609 H   0  0  0  0  0  0
   16.4858   31.8601   -8.3650 H   0  0  0  0  0  0
   14.8316   31.8375   -7.8191 H   0  0  0  0  0  0
   15.6228   29.5521   -8.3476 H   0  0  0  0  0  0
   14.3929   29.9801   -9.5291 H   0  0  0  0  0  0
   16.1010   30.0354   -9.9650 H   0  0  0  0  0  0
   16.9277   34.0325   -8.6383 H   0  0  0  0  0  0
   17.9713   37.3800   -7.3392 H   0  0  0  0  0  0
   14.4467   37.2580   -8.8686 H   0  0  0  0  0  0
   18.8682   36.8935  -10.4993 H   0  0  0  0  0  0
   17.8852   34.3990  -12.3654 H   0  0  0  0  0  0
  1  2  1  0  0  0
  1 17  1  0  0  0
  1 18  1  0  0  0
  1 19  1  0  0  0
  2  3  1  0  0  0
  2 20  1  0  0  0
  2 21  1  0  0  0
  3  4  1  0  0  0
  3 22  1  0  0  0
  3 23  1  0  0  0
  4  5  1  0  0  0
  4  8  1  0  0  0
  5  6  1  0  0  0
  5 24  1  0  0  0
  5 25  1  0  0  0
  6  7  1  0  0  0
  6 26  1  0  0  0
  6 27  1  0  0  0
  7 28  1  0  0  0
  7 29  1  0  0  0
  7 30  1  0  0  0
  8  9  1  0  0  0
  8 13  1  0  0  0
  8 31  1  0  0  0
  9 10  2  0  0  0
  9 11  1  0  0  0
  9 12  1  0  0  0
 11 32  1  0  0  0
 12 33  1  0  0  0
 13 14  2  0  0  0
 13 15  1  0  0  0
 13 16  1  0  0  0
 15 34  1  0  0  0
 16 35  1  0  0  0
M  END
> <s_m_entry_id>
3318

> <s_m_entry_name>
ligand_docking-pose.45

> <s_m_Source_Path>
/home/csk/Desktop/cluster/DUD-E-result/fpps

> <s_m_Source_File>
ligand_docking-pose.sdf

> <i_m_Source_File_Index>
45

> <i_lp_mmshare_version>
53161

> <r_lp_tautomer_probability>
1

> <s_lp_Force_Field>
OPLS_2005

> <r_lp_Energy>
8.358865

> <b_lp_Chiralities_Consistent>
1

> <s_lp_Variant>
83931-1

> <s_i_glide_gridfile>
glide-grid_1zw5

> <i_i_glide_lignum>
96

> <i_i_glide_rotatable_bonds>
11

> <r_i_docking_score>
-7.87185065996326

> <r_i_glide_ligand_efficiency>
-0.491990666247704

> <r_i_glide_ligand_efficiency_sa>
-1.23973879236881

> <r_i_glide_ligand_efficiency_ln>
-2.08659126120956

> <r_i_glide_gscore>
-7.87185065996326

> <r_i_glide_lipo>
0

> <r_i_glide_hbond>
-0.152238158340131

> <r_i_glide_metal>
-2.3

> <r_i_glide_rewards>
-1.53288831818182

> <r_i_glide_evdw>
-17.465669631958

> <r_i_glide_ecoul>
-41.0356864929199

> <r_i_glide_erotb>
1.18655929815659

> <r_i_glide_esite>
-0.2

> <r_i_glide_emodel>
-104.738751444292

> <r_i_glide_energy>
-58.5013561248779

> <r_i_glide_einternal>
19.6232719421387

> <i_i_glide_confnum>
310

> <i_i_glide_posenum>
310

> <r_i_glide_eff_state_penalty>
0

> <s_user_duplicate_titles>
83931

> <i_f3d_flags>
0

> <s_m_subgroup_title>
dock_pv

> <s_m_subgroupid>
dock_pv1

> <b_m_subgroup_collapsed>
0

$$$$
84873
                    3D
 Schrodinger Suite 2021-1.
 49 49  0  0  1  0            999 V2000
   14.4289   34.4001   -6.0958 C   0  0  0  0  0  0
   13.6241   34.9137   -7.2003 N   0  0  2  0  0  0
   12.5334   33.9619   -7.4713 C   0  0  0  0  0  0
   11.3356   34.1391   -6.5090 C   0  0  0  0  0  0
   10.3848   35.2732   -6.9525 C   0  0  0  0  0  0
    9.2501   35.5931   -5.9592 C   0  0  0  0  0  0
    9.7010   36.4003   -4.7469 C   0  0  0  0  0  0
    9.7011   37.7979   -4.8039 C   0  0  0  0  0  0
   10.1011   38.5408   -3.6955 C   0  0  0  0  0  0
   10.5001   37.8845   -2.5330 C   0  0  0  0  0  0
   10.5010   36.4924   -2.4680 C   0  0  0  0  0  0
   10.1009   35.7493   -3.5764 C   0  0  0  0  0  0
   14.5010   35.0613   -8.3650 C   0  0  0  0  0  0
   15.2354   36.4299   -8.3789 C   0  0  0  0  0  0
   16.4489   36.6547   -9.3581 C   0  0  0  0  0  0
   16.1010   37.6283  -10.3650 O   0  0  0  0  0  0
   17.7665   37.4474   -8.2995 P   0  0  0  0  0  0
   18.1010   36.5800   -7.1040 O   0  0  0  0  0  0
   19.0739   37.6263   -9.3705 O   0  0  0  0  0  0
   17.1089   38.9800   -7.9650 O   0  0  0  0  0  0
   17.1109   35.0954  -10.2378 P   0  0  0  0  0  0
   18.1010   34.2311   -9.4498 O   0  0  0  0  0  0
   15.7376   34.2254  -10.7650 O   0  0  0  0  0  0
   17.7010   35.7294  -11.7057 O   0  0  0  0  0  0
   15.3104   35.0247   -5.9650 H   0  0  0  0  0  0
   13.8631   34.3902   -5.1663 H   0  0  0  0  0  0
   14.7803   33.3823   -6.2818 H   0  0  0  0  0  0
   12.8804   32.9261   -7.4844 H   0  0  0  0  0  0
   12.1546   34.1490   -8.4784 H   0  0  0  0  0  0
   11.6880   34.3648   -5.5037 H   0  0  0  0  0  0
   10.7797   33.2029   -6.4479 H   0  0  0  0  0  0
    9.9375   34.9869   -7.9060 H   0  0  0  0  0  0
   10.9495   36.1800   -7.1650 H   0  0  0  0  0  0
    8.7546   34.6767   -5.6358 H   0  0  0  0  0  0
    8.4741   36.1593   -6.4773 H   0  0  0  0  0  0
    9.3898   38.3149   -5.7011 H   0  0  0  0  0  0
   10.0995   39.6223   -3.7336 H   0  0  0  0  0  0
   10.8083   38.4656   -1.6752 H   0  0  0  0  0  0
   10.8159   35.9917   -1.5650 H   0  0  0  0  0  0
   10.1069   34.6703   -3.5256 H   0  0  0  0  0  0
   15.2022   34.2272   -8.4160 H   0  0  0  0  0  0
   13.9022   34.9800   -9.2661 H   0  0  0  0  0  0
   14.5010   37.1841   -8.6453 H   0  0  0  0  0  0
   15.4570   36.7265   -7.3535 H   0  0  0  0  0  0
   16.8004   38.3049  -10.3980 H   0  0  0  0  0  0
   19.0217   37.7800  -10.3441 H   0  0  0  0  0  0
   17.3010   39.7497   -8.5638 H   0  0  0  0  0  0
   15.0598   33.8514  -10.1701 H   0  0  0  0  0  0
   18.2612   36.5470  -11.8073 H   0  0  0  0  0  0
  1  2  1  0  0  0
  1 25  1  0  0  0
  1 26  1  0  0  0
  1 27  1  0  0  0
  2  3  1  0  0  0
  2 13  1  0  0  0
  3  4  1  0  0  0
  3 28  1  0  0  0
  3 29  1  0  0  0
  4  5  1  0  0  0
  4 30  1  0  0  0
  4 31  1  0  0  0
  5  6  1  0  0  0
  5 32  1  0  0  0
  5 33  1  0  0  0
  6  7  1  0  0  0
  6 34  1  0  0  0
  6 35  1  0  0  0
  7 12  1  0  0  0
  7  8  2  0  0  0
  8  9  1  0  0  0
  8 36  1  0  0  0
  9 10  2  0  0  0
  9 37  1  0  0  0
 10 11  1  0  0  0
 10 38  1  0  0  0
 11 12  2  0  0  0
 11 39  1  0  0  0
 12 40  1  0  0  0
 13 14  1  0  0  0
 13 41  1  0  0  0
 13 42  1  0  0  0
 14 15  1  0  0  0
 14 43  1  0  0  0
 14 44  1  0  0  0
 15 16  1  0  0  0
 15 17  1  0  0  0
 15 21  1  0  0  0
 16 45  1  0  0  0
 17 18  2  0  0  0
 17 19  1  0  0  0
 17 20  1  0  0  0
 19 46  1  0  0  0
 20 47  1  0  0  0
 21 22  2  0  0  0
 21 23  1  0  0  0
 21 24  1  0  0  0
 23 48  1  0  0  0
 24 49  1  0  0  0
M  END
> <s_m_entry_id>
3326

> <s_m_entry_name>
ligand_docking-pose.53

> <s_m_Source_Path>
/home/csk/Desktop/cluster/DUD-E-result/fpps

> <s_m_Source_File>
ligand_docking-pose.sdf

> <i_m_Source_File_Index>
53

> <i_lp_mmshare_version>
53161

> <r_lp_tautomer_probability>
1

> <s_lp_Force_Field>
OPLS_2005

> <r_lp_Energy>
3.536257

> <b_lp_Chiralities_Consistent>
1

> <s_lp_Variant>
84873-1

> <s_i_glide_gridfile>
glide-grid_1zw5

> <i_i_glide_lignum>
45

> <i_i_glide_rotatable_bonds>
15

> <r_i_docking_score>
-7.64237898588161

> <r_i_glide_ligand_efficiency>
-0.318432457745067

> <r_i_glide_ligand_efficiency_sa>
-0.918518149736476

> <r_i_glide_ligand_efficiency_ln>
-1.82917197724213

> <r_i_glide_gscore>
-7.64237898588161

> <r_i_glide_lipo>
-0.354221257584113

> <r_i_glide_hbond>
0

> <r_i_glide_metal>
-2.3

> <r_i_glide_rewards>
-0.809329636363635

> <r_i_glide_evdw>
-23.6068706512451

> <r_i_glide_ecoul>
-61.6859855651855

> <r_i_glide_erotb>
1.2015154406284

> <r_i_glide_esite>
-0.2

> <r_i_glide_emodel>
-142.582963304243

> <r_i_glide_energy>
-85.2928562164307

> <r_i_glide_einternal>
20.5433807373047

> <i_i_glide_confnum>
213

> <i_i_glide_posenum>
400

> <r_i_glide_eff_state_penalty>
0

> <s_user_duplicate_titles>
84873

> <i_f3d_flags>
0

> <s_m_subgroup_title>
dock_pv

> <s_m_subgroupid>
dock_pv1

> <b_m_subgroup_collapsed>
0

$$$$
180928
                    3D
 Schrodinger Suite 2021-1.
 40 39  0  0  1  0            999 V2000
   14.7063   28.9000   -7.1742 C   0  0  0  0  0  0
   14.1223   30.0673   -7.9826 C   0  0  0  0  0  0
   15.2069   30.9639   -8.6109 C   0  0  0  0  0  0
   14.6573   32.0491   -9.5612 C   0  0  0  0  0  0
   13.7370   33.1103   -8.9154 C   0  0  0  0  0  0
   14.3564   33.9503   -7.7732 C   0  0  0  0  0  0
   15.6885   34.6652   -8.0919 C   0  0  0  0  0  0
   15.6123   35.6476   -9.2907 C   0  0  0  0  0  0
   16.9142   36.3326   -9.7935 C   0  0  0  0  0  0
   16.5010   37.2606  -10.8020 O   0  0  0  0  0  0
   17.6316   37.3800   -8.3991 P   0  0  0  0  0  0
   18.1010   36.5800   -7.2008 O   0  0  0  0  0  0
   18.9010   38.1887   -9.1650 O   0  0  0  0  0  0
   16.4188   38.5330   -8.0732 O   0  0  0  0  0  0
   17.9841   35.0175  -10.6541 P   0  0  0  0  0  0
   18.1010   33.6720   -9.9650 O   0  0  0  0  0  0
   17.3643   34.9403  -12.2452 O   0  0  0  0  0  0
   19.4935   35.7800  -10.7650 O   0  0  0  0  0  0
   13.9108   28.2992   -6.7313 H   0  0  0  0  0  0
   15.3450   29.2557   -6.3650 H   0  0  0  0  0  0
   15.3010   28.2397   -7.8068 H   0  0  0  0  0  0
   13.4759   29.6663   -8.7651 H   0  0  0  0  0  0
   13.4780   30.6599   -7.3324 H   0  0  0  0  0  0
   15.8038   31.4241   -7.8227 H   0  0  0  0  0  0
   15.8989   30.3345   -9.1737 H   0  0  0  0  0  0
   15.4934   32.5473  -10.0517 H   0  0  0  0  0  0
   14.1053   31.5586  -10.3650 H   0  0  0  0  0  0
   13.3729   33.7799   -9.6954 H   0  0  0  0  0  0
   12.8383   32.6187   -8.5407 H   0  0  0  0  0  0
   13.6225   34.6930   -7.4573 H   0  0  0  0  0  0
   14.5057   33.3047   -6.9060 H   0  0  0  0  0  0
   15.9863   35.2030   -7.1931 H   0  0  0  0  0  0
   16.4457   33.9016   -8.2403 H   0  0  0  0  0  0
   15.1755   35.1112  -10.1328 H   0  0  0  0  0  0
   14.9010   36.4197   -8.9968 H   0  0  0  0  0  0
   17.2994   37.6308  -11.2313 H   0  0  0  0  0  0
   18.9222   38.4281  -10.1186 H   0  0  0  0  0  0
   16.5766   39.4751   -8.3009 H   0  0  0  0  0  0
   16.9436   35.6938  -12.7027 H   0  0  0  0  0  0
   19.5636   36.7093  -11.1060 H   0  0  0  0  0  0
  1  2  1  0  0  0
  1 19  1  0  0  0
  1 20  1  0  0  0
  1 21  1  0  0  0
  2  3  1  0  0  0
  2 22  1  0  0  0
  2 23  1  0  0  0
  3  4  1  0  0  0
  3 24  1  0  0  0
  3 25  1  0  0  0
  4  5  1  0  0  0
  4 26  1  0  0  0
  4 27  1  0  0  0
  5  6  1  0  0  0
  5 28  1  0  0  0
  5 29  1  0  0  0
  6  7  1  0  0  0
  6 30  1  0  0  0
  6 31  1  0  0  0
  7  8  1  0  0  0
  7 32  1  0  0  0
  7 33  1  0  0  0
  8  9  1  0  0  0
  8 34  1  0  0  0
  8 35  1  0  0  0
  9 10  1  0  0  0
  9 11  1  0  0  0
  9 15  1  0  0  0
 10 36  1  0  0  0
 11 12  2  0  0  0
 11 13  1  0  0  0
 11 14  1  0  0  0
 13 37  1  0  0  0
 14 38  1  0  0  0
 15 16  2  0  0  0
 15 17  1  0  0  0
 15 18  1  0  0  0
 17 39  1  0  0  0
 18 40  1  0  0  0
M  END
> <s_m_entry_id>
3334

> <s_m_entry_name>
ligand_docking-pose.61

> <s_m_Source_Path>
/home/csk/Desktop/cluster/DUD-E-result/fpps

> <s_m_Source_File>
ligand_docking-pose.sdf

> <i_m_Source_File_Index>
61

> <i_lp_mmshare_version>
53161

> <r_lp_tautomer_probability>
1

> <s_lp_Force_Field>
OPLS_2005

> <r_lp_Energy>
-5.216518

> <b_lp_Chiralities_Consistent>
1

> <s_lp_Variant>
180928-1

> <s_i_glide_gridfile>
glide-grid_1zw5

> <i_i_glide_lignum>
86

> <i_i_glide_rotatable_bonds>
14

> <r_i_docking_score>
-7.43096679849493

> <r_i_glide_ligand_efficiency>
-0.412831488805274

> <r_i_glide_ligand_efficiency_sa>
-1.08192457050248

> <r_i_glide_ligand_efficiency_ln>
-1.91009169841225

> <r_i_glide_gscore>
-7.43096679849493

> <r_i_glide_lipo>
-0.301657920721198

> <r_i_glide_hbond>
0

> <r_i_glide_metal>
-2.28731879842539

> <r_i_glide_rewards>
-1.3349025

> <r_i_glide_evdw>
-18.0200233459473

> <r_i_glide_ecoul>
-56.6693687438965

> <r_i_glide_erotb>
1.59391358794903

> <r_i_glide_esite>
-0.2

> <r_i_glide_emodel>
-125.849702965899

> <r_i_glide_energy>
-74.6893920898438

> <r_i_glide_einternal>
22.0472297668457

> <i_i_glide_confnum>
220

> <i_i_glide_posenum>
258

> <r_i_glide_eff_state_penalty>
0

> <s_user_duplicate_titles>
180928

> <i_f3d_flags>
0

> <s_m_subgroup_title>
dock_pv

> <s_m_subgroupid>
dock_pv1

> <b_m_subgroup_collapsed>
0

$$$$
402755
                    3D
 Schrodinger Suite 2021-1.
 59 58  0  0  1  0            999 V2000
    7.4283   35.7142   -1.5688 C   0  0  0  0  0  0
    8.3348   34.9866   -2.5647 C   0  0  0  0  0  0
    9.3890   35.9018   -3.2118 C   0  0  0  0  0  0
   10.3413   35.1746   -4.1795 C   0  0  0  0  0  0
    9.6703   34.6505   -5.4664 C   0  0  0  0  0  0
   10.6898   34.0375   -6.4415 C   0  0  0  0  0  0
   10.1008   33.6566   -7.8123 C   0  0  0  0  0  0
   11.1297   33.1905   -8.8608 C   0  0  0  0  0  0
   11.7153   31.7718   -8.6380 C   0  0  0  0  0  0
   13.1826   31.6031   -9.1252 C   0  0  0  0  0  0
   14.2531   31.7022   -8.0183 C   0  0  0  0  0  0
   14.1026   32.9218   -7.0940 C   0  0  0  0  0  0
   15.3011   34.2711   -7.1665 S   0  3  2  0  0  0
   14.2918   35.5935   -6.5115 C   0  0  0  0  0  0
   15.4573   34.8249   -8.8931 C   0  0  0  0  0  0
   16.8458   35.4555   -9.2490 C   0  0  0  0  0  0
   16.8421   37.2979   -9.5262 P   0  0  0  0  0  0
   16.1011   37.7561  -10.7648 O   0  0  0  0  0  0
   16.2325   37.8850   -8.0479 O   0  0  0  0  0  0
   18.5146   37.5826   -9.5650 O   0  0  0  0  0  0
   17.5488   34.5340  -10.6807 P   0  0  0  0  0  0
   16.7228   34.5800  -11.9362 O   0  0  0  0  0  0
   19.1280   35.1399  -10.8272 O   0  0  0  0  0  0
   17.7009   32.9772   -9.9649 O   0  0  0  0  0  0
    6.7244   35.0156   -1.1135 H   0  0  0  0  0  0
    6.8537   36.5070   -2.0475 H   0  0  0  0  0  0
    8.0191   36.1609   -0.7701 H   0  0  0  0  0  0
    8.8407   34.1802   -2.0357 H   0  0  0  0  0  0
    7.7149   34.5214   -3.3310 H   0  0  0  0  0  0
    8.9009   36.7251   -3.7337 H   0  0  0  0  0  0
    9.9850   36.3661   -2.4233 H   0  0  0  0  0  0
   11.1316   35.8722   -4.4573 H   0  0  0  0  0  0
   10.8418   34.3556   -3.6589 H   0  0  0  0  0  0
    8.9101   33.9083   -5.2222 H   0  0  0  0  0  0
    9.1495   35.4729   -5.9590 H   0  0  0  0  0  0
   11.4788   34.7696   -6.6032 H   0  0  0  0  0  0
   11.1516   33.1654   -5.9774 H   0  0  0  0  0  0
    9.3403   32.8858   -7.6919 H   0  0  0  0  0  0
    9.5983   34.5360   -8.2199 H   0  0  0  0  0  0
   10.6351   33.2008   -9.8321 H   0  0  0  0  0  0
   11.9184   33.9383   -8.9486 H   0  0  0  0  0  0
   11.6400   31.4691   -7.5926 H   0  0  0  0  0  0
   11.0731   31.0641   -9.1652 H   0  0  0  0  0  0
   13.3009   30.6102   -9.5634 H   0  0  0  0  0  0
   13.3945   32.3004   -9.9359 H   0  0  0  0  0  0
   14.1841   30.7956   -7.4110 H   0  0  0  0  0  0
   15.2501   31.6674   -8.4583 H   0  0  0  0  0  0
   13.1118   33.3413   -7.1575 H   0  0  0  0  0  0
   14.1697   32.5580   -6.0668 H   0  0  0  0  0  0
   14.9010   36.4883   -6.3833 H   0  0  0  0  0  0
   13.4699   35.7804   -7.2033 H   0  0  0  0  0  0
   13.8757   35.2637   -5.5652 H   0  0  0  0  0  0
   15.2376   33.9550   -9.5118 H   0  0  0  0  0  0
   14.6482   35.5065   -9.1355 H   0  0  0  0  0  0
   17.5264   35.2633   -8.4090 H   0  0  0  0  0  0
   16.0979   38.8481   -7.9332 H   0  0  0  0  0  0
   18.9008   37.8003  -10.4648 H   0  0  0  0  0  0
   19.3057   36.0401  -11.1833 H   0  0  0  0  0  0
   16.9008   32.4444   -9.7553 H   0  0  0  0  0  0
  1  2  1  0  0  0
  1 25  1  0  0  0
  1 26  1  0  0  0
  1 27  1  0  0  0
  2  3  1  0  0  0
  2 28  1  0  0  0
  2 29  1  0  0  0
  3  4  1  0  0  0
  3 30  1  0  0  0
  3 31  1  0  0  0
  4  5  1  0  0  0
  4 32  1  0  0  0
  4 33  1  0  0  0
  5  6  1  0  0  0
  5 34  1  0  0  0
  5 35  1  0  0  0
  6  7  1  0  0  0
  6 36  1  0  0  0
  6 37  1  0  0  0
  7  8  1  0  0  0
  7 38  1  0  0  0
  7 39  1  0  0  0
  8  9  1  0  0  0
  8 40  1  0  0  0
  8 41  1  0  0  0
  9 10  1  0  0  0
  9 42  1  0  0  0
  9 43  1  0  0  0
 10 11  1  0  0  0
 10 44  1  0  0  0
 10 45  1  0  0  0
 11 12  1  0  0  0
 11 46  1  0  0  0
 11 47  1  0  0  0
 12 13  1  0  0  0
 12 48  1  0  0  0
 12 49  1  0  0  0
 13 14  1  0  0  0
 13 15  1  0  0  0
 14 50  1  0  0  0
 14 51  1  0  0  0
 14 52  1  0  0  0
 15 16  1  0  0  0
 15 53  1  0  0  0
 15 54  1  0  0  0
 16 17  1  0  0  0
 16 21  1  0  0  0
 16 55  1  0  0  0
 17 18  2  0  0  0
 17 19  1  0  0  0
 17 20  1  0  0  0
 19 56  1  0  0  0
 20 57  1  0  0  0
 21 22  2  0  0  0
 21 23  1  0  0  0
 21 24  1  0  0  0
 23 58  1  0  0  0
 24 59  1  0  0  0
M  CHG  1  13   1
M  END
> <s_m_entry_id>
3343

> <s_m_entry_name>
ligand_docking-pose.70

> <s_m_Source_Path>
/home/csk/Desktop/cluster/DUD-E-result/fpps

> <s_m_Source_File>
ligand_docking-pose.sdf

> <i_m_Source_File_Index>
70

> <i_lp_mmshare_version>
53161

> <r_lp_tautomer_probability>
1

> <s_lp_Force_Field>
OPLS_2005

> <r_lp_Energy>
-6.185831

> <b_lp_Chiralities_Consistent>
1

> <s_lp_Variant>
402755-1

> <s_i_glide_gridfile>
glide-grid_1zw5

> <i_i_glide_lignum>
72

> <i_i_glide_rotatable_bonds>
19

> <r_i_docking_score>
-7.09697426757065

> <r_i_glide_ligand_efficiency>
-0.295707261148777

> <r_i_glide_ligand_efficiency_sa>
-0.852967339753617

> <r_i_glide_ligand_efficiency_ln>
-1.69863160115858

> <r_i_glide_gscore>
-7.09697426757065

> <r_i_glide_lipo>
-0.726364816887662

> <r_i_glide_hbond>
-0.0117409059784597

> <r_i_glide_metal>
-2.3

> <r_i_glide_rewards>
-0.344670545454545

> <r_i_glide_evdw>
-22.0830574035645

> <r_i_glide_ecoul>
-36.1807823181152

> <r_i_glide_erotb>
1.673716345349

> <r_i_glide_esite>
-0.283761474420759

> <r_i_glide_emodel>
-85.9624179122571

> <r_i_glide_energy>
-58.2638397216797

> <r_i_glide_einternal>
24.832820892334

> <i_i_glide_confnum>
322

> <i_i_glide_posenum>
286

> <r_i_glide_eff_state_penalty>
0

> <s_user_duplicate_titles>
402755

> <i_f3d_flags>
0

> <s_m_subgroup_title>
dock_pv

> <s_m_subgroupid>
dock_pv1

> <b_m_subgroup_collapsed>
0

$$$$
402775
                    3D
 Schrodinger Suite 2021-1.
 47 46  0  0  1  0            999 V2000
    8.5017   35.5575   -3.4883 C   0  0  0  0  0  0
    9.5618   36.2651   -4.3474 C   0  0  0  0  0  0
    9.7857   35.6258   -5.7306 C   0  0  0  0  0  0
   10.3003   34.1749   -5.6807 C   0  0  0  0  0  0
   10.6948   33.6388   -7.0665 C   0  0  0  0  0  0
   11.1710   32.1755   -7.0238 C   0  0  0  0  0  0
   11.6861   31.6360   -8.3739 C   0  0  0  0  0  0
   12.9581   32.3268   -8.8988 C   0  0  0  0  0  0
   14.3109   32.4727   -7.6878 S   0  3  1  0  0  0
   14.9092   30.7576   -7.6551 C   0  0  0  0  0  0
   15.6029   33.2913   -8.6652 C   0  0  0  0  0  0
   15.4640   34.8197   -8.9686 C   0  0  0  0  0  0
   16.5097   35.3286  -10.4291 P   0  0  0  0  0  0
   16.1013   36.5804  -11.1650 O   0  0  0  0  0  0
   18.1040   35.3549   -9.7966 O   0  0  0  0  0  0
   16.3467   33.9673  -11.3888 O   0  0  0  0  0  0
   15.8437   35.8553   -7.4878 P   0  0  0  0  0  0
   17.3009   35.7801   -7.0530 O   0  0  0  0  0  0
   15.3031   37.3937   -7.9735 O   0  0  0  0  0  0
   14.6989   35.2798   -6.3611 O   0  0  0  0  0  0
    8.2822   36.1324   -2.5875 H   0  0  0  0  0  0
    8.8487   34.5763   -3.1667 H   0  0  0  0  0  0
    7.5660   35.4154   -4.0331 H   0  0  0  0  0  0
    9.2748   37.3074   -4.4860 H   0  0  0  0  0  0
   10.5054   36.2935   -3.8009 H   0  0  0  0  0  0
    8.8602   35.6634   -6.3067 H   0  0  0  0  0  0
   10.5005   36.2380   -6.2817 H   0  0  0  0  0  0
   11.1635   34.1172   -5.0151 H   0  0  0  0  0  0
    9.5368   33.5286   -5.2486 H   0  0  0  0  0  0
    9.8516   33.7224   -7.7537 H   0  0  0  0  0  0
   11.4792   34.2747   -7.4780 H   0  0  0  0  0  0
   11.9325   32.0503   -6.2545 H   0  0  0  0  0  0
   10.3593   31.5334   -6.6994 H   0  0  0  0  0  0
   11.8781   30.5660   -8.2774 H   0  0  0  0  0  0
   10.9001   31.7131   -9.1275 H   0  0  0  0  0  0
   13.3082   31.7980   -9.7876 H   0  0  0  0  0  0
   12.7019   33.3300   -9.2404 H   0  0  0  0  0  0
   15.8208   30.6775   -7.0604 H   0  0  0  0  0  0
   14.1572   30.1094   -7.2012 H   0  0  0  0  0  0
   15.1151   30.3791   -8.6573 H   0  0  0  0  0  0
   16.5277   33.0980   -8.1375 H   0  0  0  0  0  0
   15.6551   32.7049   -9.5800 H   0  0  0  0  0  0
   14.4209   34.9788   -9.2325 H   0  0  0  0  0  0
   18.7517   35.9581  -10.2324 H   0  0  0  0  0  0
   15.4677   33.6909  -11.7190 H   0  0  0  0  0  0
   14.7518   37.5559   -8.7647 H   0  0  0  0  0  0
   13.9761   34.6704   -6.6087 H   0  0  0  0  0  0
  1  2  1  0  0  0
  1 21  1  0  0  0
  1 22  1  0  0  0
  1 23  1  0  0  0
  2  3  1  0  0  0
  2 24  1  0  0  0
  2 25  1  0  0  0
  3  4  1  0  0  0
  3 26  1  0  0  0
  3 27  1  0  0  0
  4  5  1  0  0  0
  4 28  1  0  0  0
  4 29  1  0  0  0
  5  6  1  0  0  0
  5 30  1  0  0  0
  5 31  1  0  0  0
  6  7  1  0  0  0
  6 32  1  0  0  0
  6 33  1  0  0  0
  7  8  1  0  0  0
  7 34  1  0  0  0
  7 35  1  0  0  0
  8  9  1  0  0  0
  8 36  1  0  0  0
  8 37  1  0  0  0
  9 10  1  0  0  0
  9 11  1  0  0  0
 10 38  1  0  0  0
 10 39  1  0  0  0
 10 40  1  0  0  0
 11 12  1  0  0  0
 11 41  1  0  0  0
 11 42  1  0  0  0
 12 13  1  0  0  0
 12 17  1  0  0  0
 12 43  1  0  0  0
 13 14  2  0  0  0
 13 15  1  0  0  0
 13 16  1  0  0  0
 15 44  1  0  0  0
 16 45  1  0  0  0
 17 18  2  0  0  0
 17 19  1  0  0  0
 17 20  1  0  0  0
 19 46  1  0  0  0
 20 47  1  0  0  0
M  CHG  1   9   1
M  END
> <s_m_entry_id>
3344

> <s_m_entry_name>
ligand_docking-pose.71

> <s_m_Source_Path>
/home/csk/Desktop/cluster/DUD-E-result/fpps

> <s_m_Source_File>
ligand_docking-pose.sdf

> <i_m_Source_File_Index>
71

> <i_lp_mmshare_version>
53161

> <r_lp_tautomer_probability>
1

> <s_lp_Force_Field>
OPLS_2005

> <r_lp_Energy>
-4.791465

> <b_lp_Chiralities_Consistent>
1

> <s_lp_Variant>
402775-1

> <s_i_glide_gridfile>
glide-grid_1zw5

> <i_i_glide_lignum>
79

> <i_i_glide_rotatable_bonds>
15

> <r_i_docking_score>
-6.93109678711879

> <r_i_glide_ligand_efficiency>
-0.34655483935594

> <r_i_glide_ligand_efficiency_sa>
-0.940694560124624

> <r_i_glide_ligand_efficiency_ln>
-1.73462492294409

> <r_i_glide_gscore>
-6.93109678711879

> <r_i_glide_lipo>
-0.336641518761553

> <r_i_glide_hbond>
0

> <r_i_glide_metal>
-2.3

> <r_i_glide_rewards>
-0.727213636363635

> <r_i_glide_evdw>
-18.609245300293

> <r_i_glide_ecoul>
-33.8588104248047

> <r_i_glide_erotb>
1.56076769752222

> <r_i_glide_esite>
-0.197547064501179

> <r_i_glide_emodel>
-81.8864503901408

> <r_i_glide_energy>
-52.4680557250977

> <r_i_glide_einternal>
12.4646902084351

> <i_i_glide_confnum>
505

> <i_i_glide_posenum>
283

> <r_i_glide_eff_state_penalty>
0

> <s_user_duplicate_titles>
402775

> <i_f3d_flags>
0

> <s_m_subgroup_title>
dock_pv

> <s_m_subgroupid>
dock_pv1

> <b_m_subgroup_collapsed>
0

$$$$
