CHEMBL1849_lig106
                    3D
 Schrodinger Suite 2021-1.
 47 50  0  0  1  0            999 V2000
    7.5347   31.6981   59.1377 N   0  0  0  0  0  0
    5.1337   27.1773   60.2905 C   0  0  1  0  0  0
    3.6729   27.3983   59.8413 C   0  0  0  0  0  0
    5.7039   26.3222   59.3192 O   0  0  0  0  0  0
    7.0625   30.5547   59.7336 C   0  0  0  0  0  0
    6.0018   29.5227   58.8354 S   0  0  0  0  0  0
    5.9274   28.4817   60.2392 C   0  0  0  0  0  0
    6.6642   28.9349   61.2292 N   0  0  0  0  0  0
    7.3039   30.1274   60.9468 N   0  0  0  0  0  0
    5.1497   26.5072   61.6773 C   0  0  0  0  0  0
    5.6967   24.8834   62.0189 S   0  0  0  0  0  0
    5.3043   25.1367   63.6883 C   0  0  0  0  0  0
    4.8053   26.4193   63.8571 C   0  0  0  0  0  0
    4.7123   27.1310   62.7517 N   0  0  0  0  0  0
    4.3637   27.0926   65.1360 C   0  0  0  0  0  0
    8.4716   32.6113   59.6397 C   0  0  0  0  0  0
    8.6530   33.8024   58.9378 C   0  0  0  0  0  0
    9.5795   34.7219   59.4181 C   0  0  0  0  0  0
   10.3019   34.4312   60.5733 C   0  0  0  0  0  0
   10.1041   33.2020   61.2280 C   0  0  0  0  0  0
    9.1764   32.3223   60.7675 N   0  0  0  0  0  0
   10.8051   32.7215   62.5256 C   0  0  0  0  0  0
   12.3105   32.8882   62.7608 C   0  0  0  0  0  0
   13.0527   31.7900   63.2280 C   0  0  0  0  0  0
   14.4083   31.9220   63.5177 C   0  0  0  0  0  0
   15.0763   33.1038   63.2281 C   0  0  0  0  0  0
   14.3590   34.1696   62.7090 C   0  0  0  0  0  0
   12.9802   34.1101   62.6022 C   0  0  0  0  0  0
   12.4624   30.5968   63.4625 F   0  0  0  0  0  0
   12.3368   35.2776   62.4277 F   0  0  0  0  0  0
    7.1329   31.9977   58.2651 H   0  0  0  0  0  0
    3.1653   28.1146   60.4883 H   0  0  0  0  0  0
    3.6058   27.7808   58.8219 H   0  0  0  0  0  0
    3.1015   26.4700   59.8794 H   0  0  0  0  0  0
    6.5726   26.0302   59.6281 H   0  0  0  0  0  0
    5.4692   24.3730   64.4278 H   0  0  0  0  0  0
    4.4549   26.4294   65.9966 H   0  0  0  0  0  0
    3.3219   27.4123   65.0900 H   0  0  0  0  0  0
    4.9639   27.9776   65.3542 H   0  0  0  0  0  0
    8.0945   34.0183   58.0393 H   0  0  0  0  0  0
    9.7365   35.6593   58.9042 H   0  0  0  0  0  0
   10.9770   35.1954   60.8850 H   0  0  0  0  0  0
   10.3378   33.1223   63.4089 H   0  0  0  0  0  0
   10.5759   31.6583   62.6189 H   0  0  0  0  0  0
   14.9555   31.0920   63.9253 H   0  0  0  0  0  0
   16.1415   33.1812   63.3856 H   0  0  0  0  0  0
   14.8538   35.0811   62.4280 H   0  0  0  0  0  0
  1  5  1  0  0  0
  1 16  1  0  0  0
  1 31  1  0  0  0
  2  3  1  0  0  0
  2  4  1  0  0  0
  2  7  1  0  0  0
  2 10  1  0  0  0
  3 32  1  0  0  0
  3 33  1  0  0  0
  3 34  1  0  0  0
  4 35  1  0  0  0
  5  6  1  0  0  0
  5  9  2  0  0  0
  6  7  1  0  0  0
  7  8  2  0  0  0
  8  9  1  0  0  0
 10 11  1  0  0  0
 10 14  2  0  0  0
 11 12  1  0  0  0
 12 13  2  0  0  0
 12 36  1  0  0  0
 13 14  1  0  0  0
 13 15  1  0  0  0
 15 37  1  0  0  0
 15 38  1  0  0  0
 15 39  1  0  0  0
 16 17  2  0  0  0
 16 21  1  0  0  0
 17 18  1  0  0  0
 17 40  1  0  0  0
 18 19  2  0  0  0
 18 41  1  0  0  0
 19 20  1  0  0  0
 19 42  1  0  0  0
 20 21  2  0  0  0
 20 22  1  0  0  0
 22 23  1  0  0  0
 22 43  1  0  0  0
 22 44  1  0  0  0
 23 24  2  0  0  0
 23 28  1  0  0  0
 24 25  1  0  0  0
 24 29  1  0  0  0
 25 26  2  0  0  0
 25 45  1  0  0  0
 26 27  1  0  0  0
 26 46  1  0  0  0
 27 28  2  0  0  0
 27 47  1  0  0  0
 28 30  1  0  0  0
M  END
> <s_m_entry_id>
8207

> <s_m_entry_name>
dock_pv.2

> <s_m_Source_Path>
/home/csk/Desktop/cluster/DUD-E-result/inha

> <s_m_Source_File>
dock_pv.maegz

> <i_m_Source_File_Index>
2

> <chembl_id>
CHEMBL3088177

> <chembl_pref_name>
None

> <i_lp_mmshare_version>
53161

> <r_lp_tautomer_probability>
0.999999772200052

> <s_lp_Force_Field>
OPLS_2005

> <r_lp_Energy>
2.089275

> <b_lp_Chiralities_Consistent>
1

> <s_lp_Variant>
CHEMBL1849_lig106-2

> <s_i_glide_gridfile>
glide-grid_2h7l

> <i_i_glide_lignum>
162

> <i_i_glide_rotatable_bonds>
7

> <r_i_docking_score>
-9.4541224285286

> <r_i_glide_ligand_efficiency>
-0.315137414284287

> <r_i_glide_ligand_efficiency_sa>
-0.979205216396227

> <r_i_glide_ligand_efficiency_ln>
-2.14807962667608

> <r_i_glide_gscore>
-9.4541224285286

> <r_i_glide_lipo>
-4.70003682029996

> <r_i_glide_hbond>
-0.519036045484219

> <r_i_glide_metal>
0

> <r_i_glide_rewards>
-2.11194883772283

> <r_i_glide_evdw>
-40.994083404541

> <r_i_glide_ecoul>
-4.52172040939331

> <r_i_glide_erotb>
0.604861506614454

> <r_i_glide_esite>
0

> <r_i_glide_emodel>
-68.0926824147081

> <r_i_glide_energy>
-45.5158038139343

> <r_i_glide_einternal>
12.9915971755981

> <i_i_glide_confnum>
49

> <i_i_glide_posenum>
58

> <r_i_glide_eff_state_penalty>
0

> <s_user_duplicate_titles>
CHEMBL1849_lig106

> <i_f3d_flags>
0

> <s_m_subgroup_title>
dock_pv

> <s_m_subgroupid>
dock_pv

> <b_m_subgroup_collapsed>
0

$$$$
CHEMBL1849_lig51
                    3D
 Schrodinger Suite 2021-1.
 44 46  0  0  1  0            999 V2000
    5.9205   27.5770   59.3992 C   0  0  0  0  0  0
    4.5643   27.6328   59.7323 C   0  0  0  0  0  0
    3.8231   28.7872   59.4229 C   0  0  0  0  0  0
    4.4617   29.8813   58.8284 C   0  0  0  0  0  0
    5.8306   29.8440   58.5410 C   0  0  0  0  0  0
    6.5447   28.6646   58.7929 C   0  0  0  0  0  0
    6.5131   31.0643   57.9698 C   0  0  0  0  0  0
    7.5639   31.6131   58.6449 N   0  0  0  0  0  0
    6.0979   31.5219   56.9023 O   0  0  0  0  0  0
    8.1033   31.0810   59.8945 C   0  0  0  0  0  0
    8.1712   32.2103   60.9394 C   0  0  0  0  0  0
    8.9262   33.3892   60.4960 N   0  0  0  0  0  0
    8.4310   33.8745   59.2006 C   0  0  0  0  0  0
    8.3111   32.7681   58.1224 C   0  0  0  0  0  0
   10.1066   33.8288   61.1003 C   0  0  0  0  0  0
   10.5337   35.1586   60.9732 C   0  0  0  0  0  0
   11.7023   35.6025   61.5961 C   0  0  0  0  0  0
   12.5032   34.7119   62.3047 C   0  0  0  0  0  0
   12.1070   33.3843   62.4282 C   0  0  0  0  0  0
   10.9041   32.9587   61.8628 C   0  0  0  0  0  0
   13.1320   32.2499   63.2280 Cl  0  0  0  0  0  0
    2.3413   28.8945   59.7535 C   0  0  0  0  0  0
    3.9284   26.4346   60.4249 C   0  0  0  0  0  0
    6.5037   26.6958   59.6259 H   0  0  0  0  0  0
    3.8910   30.7755   58.6133 H   0  0  0  0  0  0
    7.5977   28.5953   58.5541 H   0  0  0  0  0  0
    7.5364   30.2622   60.3309 H   0  0  0  0  0  0
    9.0936   30.7211   59.6279 H   0  0  0  0  0  0
    8.5599   31.8114   61.8750 H   0  0  0  0  0  0
    7.1642   32.5527   61.1832 H   0  0  0  0  0  0
    9.0711   34.6649   58.8098 H   0  0  0  0  0  0
    7.4546   34.3208   59.3948 H   0  0  0  0  0  0
    9.3077   32.4310   57.8474 H   0  0  0  0  0  0
    7.8795   33.1798   57.2283 H   0  0  0  0  0  0
    9.9404   35.8732   60.4235 H   0  0  0  0  0  0
   11.9924   36.6388   61.5151 H   0  0  0  0  0  0
   13.4263   35.0495   62.7517 H   0  0  0  0  0  0
   10.6379   31.9210   61.9747 H   0  0  0  0  0  0
    1.9800   29.9207   59.6767 H   0  0  0  0  0  0
    1.7548   28.2641   59.0856 H   0  0  0  0  0  0
    2.1522   28.5700   60.7766 H   0  0  0  0  0  0
    3.7800   26.6470   61.4842 H   0  0  0  0  0  0
    2.9543   26.2041   59.9935 H   0  0  0  0  0  0
    4.5400   25.5359   60.3259 H   0  0  0  0  0  0
  1  6  1  0  0  0
  1  2  2  0  0  0
  1 24  1  0  0  0
  2  3  1  0  0  0
  2 23  1  0  0  0
  3  4  2  0  0  0
  3 22  1  0  0  0
  4  5  1  0  0  0
  4 25  1  0  0  0
  5  7  1  0  0  0
  5  6  2  0  0  0
  6 26  1  0  0  0
  7  8  1  0  0  0
  7  9  2  0  0  0
  8 14  1  0  0  0
  8 10  1  0  0  0
 10 11  1  0  0  0
 10 27  1  0  0  0
 10 28  1  0  0  0
 11 12  1  0  0  0
 11 29  1  0  0  0
 11 30  1  0  0  0
 12 13  1  0  0  0
 12 15  1  0  0  0
 13 14  1  0  0  0
 13 31  1  0  0  0
 13 32  1  0  0  0
 14 33  1  0  0  0
 14 34  1  0  0  0
 15 16  2  0  0  0
 15 20  1  0  0  0
 16 17  1  0  0  0
 16 35  1  0  0  0
 17 18  2  0  0  0
 17 36  1  0  0  0
 18 19  1  0  0  0
 18 37  1  0  0  0
 19 20  2  0  0  0
 19 21  1  0  0  0
 20 38  1  0  0  0
 22 39  1  0  0  0
 22 40  1  0  0  0
 22 41  1  0  0  0
 23 42  1  0  0  0
 23 43  1  0  0  0
 23 44  1  0  0  0
M  END
> <s_m_entry_id>
8208

> <s_m_entry_name>
dock_pv.3

> <s_m_Source_Path>
/home/csk/Desktop/cluster/DUD-E-result/inha

> <s_m_Source_File>
dock_pv.maegz

> <i_m_Source_File_Index>
3

> <chembl_id>
CHEMBL239673

> <chembl_pref_name>
None

> <i_lp_mmshare_version>
53161

> <r_lp_tautomer_probability>
1

> <s_lp_Force_Field>
OPLS_2005

> <r_lp_Energy>
47.237142

> <b_lp_Chiralities_Consistent>
1

> <s_lp_Variant>
CHEMBL1849_lig51-1

> <s_i_glide_gridfile>
glide-grid_2h7l

> <i_i_glide_lignum>
101

> <i_i_glide_rotatable_bonds>
3

> <r_i_docking_score>
-9.35442290487184

> <r_i_glide_ligand_efficiency>
-0.406714039342254

> <r_i_glide_ligand_efficiency_sa>
-1.15664062551861

> <r_i_glide_ligand_efficiency_ln>
-2.26198427961532

> <r_i_glide_gscore>
-9.35442290487184

> <r_i_glide_lipo>
-4.16953567499197

> <r_i_glide_hbond>
-0.32

> <r_i_glide_metal>
0

> <r_i_glide_rewards>
-2.6216557563876

> <r_i_glide_evdw>
-37.0371170043945

> <r_i_glide_ecoul>
-6.08394479751587

> <r_i_glide_erotb>
0.521216096354844

> <r_i_glide_esite>
0

> <r_i_glide_emodel>
-65.448909511798

> <r_i_glide_energy>
-43.1210618019104

> <r_i_glide_einternal>
1.37557291984558

> <i_i_glide_confnum>
46

> <i_i_glide_posenum>
305

> <r_i_glide_eff_state_penalty>
0

> <s_user_duplicate_titles>
CHEMBL1849_lig51,406362

> <i_f3d_flags>
0

> <s_m_subgroup_title>
dock_pv

> <s_m_subgroupid>
dock_pv

> <b_m_subgroup_collapsed>
0

$$$$
CHEMBL1849_lig49
                    3D
 Schrodinger Suite 2021-1.
 38 40  0  0  1  0            999 V2000
    5.7058   27.6385   59.3842 C   0  0  0  0  0  0
    4.3432   27.7545   59.6492 C   0  0  0  0  0  0
    3.6619   28.9353   59.3647 C   0  0  0  0  0  0
    4.3504   30.0189   58.8269 C   0  0  0  0  0  0
    5.7237   29.9190   58.5754 C   0  0  0  0  0  0
    6.3949   28.7149   58.8320 C   0  0  0  0  0  0
    6.4642   31.1010   58.0039 C   0  0  0  0  0  0
    7.5039   31.6353   58.7073 N   0  0  0  0  0  0
    6.1060   31.5220   56.9011 O   0  0  0  0  0  0
    8.3299   32.7221   58.1551 C   0  0  0  0  0  0
    8.4867   33.8666   59.1820 C   0  0  0  0  0  0
    8.9380   33.4083   60.4995 N   0  0  0  0  0  0
    8.1039   32.3069   60.9966 C   0  0  0  0  0  0
    7.9357   31.1335   60.0154 C   0  0  0  0  0  0
   10.1139   33.8395   61.1139 C   0  0  0  0  0  0
   10.5395   35.1693   60.9939 C   0  0  0  0  0  0
   11.7045   35.6073   61.6252 C   0  0  0  0  0  0
   12.5038   34.7091   62.3283 C   0  0  0  0  0  0
   12.1062   33.3801   62.4419 C   0  0  0  0  0  0
   10.9030   32.9605   61.8728 C   0  0  0  0  0  0
   13.1311   32.2369   63.2285 Cl  0  0  0  0  0  0
    3.6749   26.7102   60.1866 F   0  0  0  0  0  0
    6.2246   26.7178   59.6098 H   0  0  0  0  0  0
    2.6035   29.0141   59.5667 H   0  0  0  0  0  0
    3.8114   30.9331   58.6161 H   0  0  0  0  0  0
    7.4518   28.6126   58.6240 H   0  0  0  0  0  0
    9.3111   32.3149   57.9274 H   0  0  0  0  0  0
    7.9498   33.1250   57.2294 H   0  0  0  0  0  0
    7.5322   34.3701   59.3398 H   0  0  0  0  0  0
    9.1750   34.6067   58.7728 H   0  0  0  0  0  0
    7.1295   32.7444   61.2208 H   0  0  0  0  0  0
    8.4745   31.9307   61.9495 H   0  0  0  0  0  0
    7.2563   30.4159   60.4729 H   0  0  0  0  0  0
    8.8972   30.6552   59.8552 H   0  0  0  0  0  0
    9.9492   35.8866   60.4431 H   0  0  0  0  0  0
   11.9981   36.6434   61.5526 H   0  0  0  0  0  0
   13.4278   35.0415   62.7774 H   0  0  0  0  0  0
   10.6239   31.9243   61.9744 H   0  0  0  0  0  0
  1  6  1  0  0  0
  1  2  2  0  0  0
  1 23  1  0  0  0
  2  3  1  0  0  0
  2 22  1  0  0  0
  3  4  2  0  0  0
  3 24  1  0  0  0
  4  5  1  0  0  0
  4 25  1  0  0  0
  5  6  2  0  0  0
  5  7  1  0  0  0
  6 26  1  0  0  0
  7  8  1  0  0  0
  7  9  2  0  0  0
  8 14  1  0  0  0
  8 10  1  0  0  0
 10 11  1  0  0  0
 10 27  1  0  0  0
 10 28  1  0  0  0
 11 12  1  0  0  0
 11 29  1  0  0  0
 11 30  1  0  0  0
 12 13  1  0  0  0
 12 15  1  0  0  0
 13 14  1  0  0  0
 13 31  1  0  0  0
 13 32  1  0  0  0
 14 33  1  0  0  0
 14 34  1  0  0  0
 15 16  2  0  0  0
 15 20  1  0  0  0
 16 17  1  0  0  0
 16 35  1  0  0  0
 17 18  2  0  0  0
 17 36  1  0  0  0
 18 19  1  0  0  0
 18 37  1  0  0  0
 19 20  2  0  0  0
 19 21  1  0  0  0
 20 38  1  0  0  0
M  END
> <s_m_entry_id>
8209

> <s_m_entry_name>
dock_pv.4

> <s_m_Source_Path>
/home/csk/Desktop/cluster/DUD-E-result/inha

> <s_m_Source_File>
dock_pv.maegz

> <i_m_Source_File_Index>
4

> <chembl_id>
CHEMBL239674

> <chembl_pref_name>
None

> <i_lp_mmshare_version>
53161

> <r_lp_tautomer_probability>
1

> <s_lp_Force_Field>
OPLS_2005

> <r_lp_Energy>
50.383288

> <b_lp_Chiralities_Consistent>
1

> <s_lp_Variant>
CHEMBL1849_lig49-1

> <s_i_glide_gridfile>
glide-grid_2h7l

> <i_i_glide_lignum>
99

> <i_i_glide_rotatable_bonds>
3

> <r_i_docking_score>
-9.27699635782372

> <r_i_glide_ligand_efficiency>
-0.421681652628351

> <r_i_glide_ligand_efficiency_sa>
-1.18156857446298

> <r_i_glide_ligand_efficiency_ln>
-2.26763629651613

> <r_i_glide_gscore>
-9.27699635782372

> <r_i_glide_lipo>
-4.01129078824614

> <r_i_glide_hbond>
-0.32

> <r_i_glide_metal>
0

> <r_i_glide_rewards>
-2.78614688038165

> <r_i_glide_evdw>
-36.5286979675293

> <r_i_glide_ecoul>
-5.89141845703125

> <r_i_glide_erotb>
0.55058897773523

> <r_i_glide_esite>
0

> <r_i_glide_emodel>
-63.5419243427213

> <r_i_glide_energy>
-42.4201164245605

> <r_i_glide_einternal>
3.25147867202759

> <i_i_glide_confnum>
36

> <i_i_glide_posenum>
50

> <r_i_glide_eff_state_penalty>
0

> <s_user_duplicate_titles>
CHEMBL1849_lig49

> <i_f3d_flags>
0

> <s_m_subgroup_title>
dock_pv

> <s_m_subgroupid>
dock_pv

> <b_m_subgroup_collapsed>
0

$$$$
CHEMBL1849_lig24
                    3D
 Schrodinger Suite 2021-1.
 47 50  0  0  1  0            999 V2000
    6.3494   31.8824   58.2141 C   0  0  0  0  0  0
    7.4129   32.9157   58.5902 C   0  0  0  0  0  0
    7.2926   33.1720   60.0884 C   0  0  1  0  0  0
    6.0035   32.4433   60.4589 C   0  0  0  0  0  0
    5.7380   31.5033   59.3634 N   0  0  0  0  0  0
    4.6519   30.4911   59.3960 C   0  0  0  0  0  0
    4.9860   29.1452   58.6848 C   0  0  0  0  0  0
    6.1557   28.3964   59.3549 C   0  0  0  0  0  0
    5.8191   28.0687   60.8217 C   0  0  0  0  0  0
    5.3232   29.3059   61.5976 C   0  0  0  0  0  0
    4.2186   30.0795   60.8294 C   0  0  0  0  0  0
    8.5515   32.6356   60.8279 C   0  0  0  0  0  0
    9.6861   33.3903   60.8304 N   0  0  0  0  0  0
    8.4803   31.5519   61.4099 O   0  0  0  0  0  0
    6.1110   31.5217   57.0607 O   0  0  0  0  0  0
    9.7295   34.7219   60.2224 C   0  0  0  0  0  0
   11.1415   35.2324   60.4290 C   0  0  0  0  0  0
   10.8176   33.2431   61.6698 C   0  0  0  0  0  0
   11.6864   34.3199   61.4795 C   0  0  0  0  0  0
   12.9244   34.3529   62.1227 C   0  0  0  0  0  0
   13.2829   33.3216   62.9895 C   0  0  0  0  0  0
   12.4096   32.2555   63.2136 C   0  0  0  0  0  0
   11.1846   32.2034   62.5407 C   0  0  0  0  0  0
    7.3052   33.8402   58.0284 H   0  0  0  0  0  0
    8.3768   32.5015   58.2854 H   0  0  0  0  0  0
    7.1803   34.2337   60.3099 H   0  0  0  0  0  0
    6.0189   32.0278   61.4667 H   0  0  0  0  0  0
    5.1851   33.1655   60.4815 H   0  0  0  0  0  0
    3.7982   30.9500   58.8942 H   0  0  0  0  0  0
    4.1024   28.5072   58.6811 H   0  0  0  0  0  0
    5.1989   29.3012   57.6313 H   0  0  0  0  0  0
    6.3769   27.4772   58.8133 H   0  0  0  0  0  0
    7.0613   29.0043   59.3094 H   0  0  0  0  0  0
    5.0519   27.2958   60.8489 H   0  0  0  0  0  0
    6.6912   27.6458   61.3185 H   0  0  0  0  0  0
    4.9481   28.9975   62.5746 H   0  0  0  0  0  0
    6.1764   29.9529   61.7981 H   0  0  0  0  0  0
    3.9078   30.9589   61.3912 H   0  0  0  0  0  0
    3.3220   29.4609   60.7728 H   0  0  0  0  0  0
    9.3287   34.8374   59.2143 H   0  0  0  0  0  0
    9.0877   35.3339   60.8564 H   0  0  0  0  0  0
   11.1597   36.2990   60.6615 H   0  0  0  0  0  0
   11.7020   35.0986   59.5038 H   0  0  0  0  0  0
   13.6203   35.1595   61.9393 H   0  0  0  0  0  0
   14.2417   33.3479   63.4890 H   0  0  0  0  0  0
   12.6962   31.4556   63.8797 H   0  0  0  0  0  0
   10.5389   31.3573   62.7163 H   0  0  0  0  0  0
  1  2  1  0  0  0
  1 15  2  0  0  0
  1  5  1  0  0  0
  2  3  1  0  0  0
  2 24  1  0  0  0
  2 25  1  0  0  0
  3 12  1  0  0  0
  3  4  1  0  0  0
  3 26  1  0  0  0
  4  5  1  0  0  0
  4 27  1  0  0  0
  4 28  1  0  0  0
  5  6  1  0  0  0
  6  7  1  0  0  0
  6 11  1  0  0  0
  6 29  1  0  0  0
  7  8  1  0  0  0
  7 30  1  0  0  0
  7 31  1  0  0  0
  8  9  1  0  0  0
  8 32  1  0  0  0
  8 33  1  0  0  0
  9 10  1  0  0  0
  9 34  1  0  0  0
  9 35  1  0  0  0
 10 11  1  0  0  0
 10 36  1  0  0  0
 10 37  1  0  0  0
 11 38  1  0  0  0
 11 39  1  0  0  0
 12 13  1  0  0  0
 12 14  2  0  0  0
 13 16  1  0  0  0
 13 18  1  0  0  0
 16 17  1  0  0  0
 16 40  1  0  0  0
 16 41  1  0  0  0
 17 19  1  0  0  0
 17 42  1  0  0  0
 17 43  1  0  0  0
 18 19  2  0  0  0
 18 23  1  0  0  0
 19 20  1  0  0  0
 20 21  2  0  0  0
 20 44  1  0  0  0
 21 22  1  0  0  0
 21 45  1  0  0  0
 22 23  2  0  0  0
 22 46  1  0  0  0
 23 47  1  0  0  0
M  END
> <s_m_entry_id>
8210

> <s_m_entry_name>
dock_pv.5

> <s_m_Source_Path>
/home/csk/Desktop/cluster/DUD-E-result/inha

> <s_m_Source_File>
dock_pv.maegz

> <i_m_Source_File_Index>
5

> <chembl_id>
CHEMBL217499

> <chembl_pref_name>
None

> <i_lp_mmshare_version>
53161

> <r_lp_tautomer_probability>
1

> <s_lp_Force_Field>
OPLS_2005

> <r_lp_Energy>
54.784892

> <b_lp_Chiralities_Consistent>
1

> <s_lp_Variant>
CHEMBL1849_lig24-2

> <s_i_glide_gridfile>
glide-grid_2h7l

> <i_i_glide_lignum>
37

> <i_i_glide_rotatable_bonds>
3

> <r_i_docking_score>
-9.21092298584513

> <r_i_glide_ligand_efficiency>
-0.400474912428049

> <r_i_glide_ligand_efficiency_sa>
-1.13889737852274

> <r_i_glide_ligand_efficiency_ln>
-2.22728469800934

> <r_i_glide_gscore>
-9.21092298584513

> <r_i_glide_lipo>
-3.96063278330728

> <r_i_glide_hbond>
-0.314656928124073

> <r_i_glide_metal>
0

> <r_i_glide_rewards>
-2.80061254664948

> <r_i_glide_evdw>
-38.8013725280762

> <r_i_glide_ecoul>
-5.10290193557739

> <r_i_glide_erotb>
0.570483188976124

> <r_i_glide_esite>
0

> <r_i_glide_emodel>
-63.0286474301622

> <r_i_glide_energy>
-43.9042744636536

> <r_i_glide_einternal>
2.22502589225769

> <i_i_glide_confnum>
8

> <i_i_glide_posenum>
164

> <r_i_glide_eff_state_penalty>
0

> <s_user_duplicate_titles>
CHEMBL1849_lig24

> <i_f3d_flags>
0

> <s_m_subgroup_title>
dock_pv

> <s_m_subgroupid>
dock_pv

> <b_m_subgroup_collapsed>
0

$$$$
CHEMBL1849_lig36
                    3D
 Schrodinger Suite 2021-1.
 54 58  0  0  1  0            999 V2000
    9.3042   33.4435   60.7990 C   0  0  0  0  0  0
   10.3699   32.9910   61.5848 C   0  0  0  0  0  0
   11.5267   33.7681   61.7907 C   0  0  0  0  0  0
   11.5484   35.0538   61.2268 C   0  0  0  0  0  0
   10.5044   35.5192   60.4384 C   0  0  0  0  0  0
    9.3926   34.7171   60.2158 C   0  0  0  0  0  0
   12.7078   33.2324   62.5538 C   0  0  0  0  0  0
   13.9340   33.9232   62.5770 C   0  0  0  0  0  0
   15.0140   33.4432   63.3089 C   0  0  0  0  0  0
   14.8869   32.2681   64.0276 C   0  0  0  0  0  0
   13.7202   31.5220   63.9593 C   0  0  0  0  0  0
   12.6410   32.0022   63.2280 C   0  0  0  0  0  0
    6.1594   28.2495   61.4622 C   0  0  1  0  0  0
    6.2258   29.4107   60.5388 N   0  0  0  0  0  0
    6.2636   29.3732   59.1784 C   0  0  0  0  0  0
    5.8848   30.7694   58.6910 C   0  0  0  0  0  0
    5.9647   31.7041   59.8994 C   0  0  1  0  0  0
    5.9362   30.7414   61.0847 C   0  0  0  0  0  0
    6.5042   28.4294   58.4281 O   0  0  0  0  0  0
    4.7145   28.0042   61.9873 C   0  0  0  0  0  0
    4.4742   26.4981   61.7407 C   0  0  1  0  0  0
    6.5046   26.8316   60.9080 C   0  0  2  0  0  0
    5.1621   26.3078   60.3956 C   0  0  0  0  0  0
    5.3564   25.6397   62.6680 C   0  0  0  0  0  0
    6.7637   25.8516   62.0774 C   0  0  0  0  0  0
    7.1814   32.6555   59.7719 C   0  0  0  0  0  0
    8.1815   32.5937   60.6785 N   0  0  0  0  0  0
    7.1746   33.4402   58.8281 O   0  0  0  0  0  0
   10.2811   32.0030   62.0032 H   0  0  0  0  0  0
   12.3772   35.7264   61.3693 H   0  0  0  0  0  0
   10.5504   36.5116   60.0095 H   0  0  0  0  0  0
    8.5947   35.1222   59.6155 H   0  0  0  0  0  0
   14.0874   34.8423   62.0360 H   0  0  0  0  0  0
   15.9556   33.9698   63.3274 H   0  0  0  0  0  0
   15.7040   31.9224   64.6369 H   0  0  0  0  0  0
   13.6425   30.5904   64.5029 H   0  0  0  0  0  0
   11.7492   31.3996   63.2431 H   0  0  0  0  0  0
    6.8323   28.4140   62.3063 H   0  0  0  0  0  0
    6.5769   31.0237   57.8858 H   0  0  0  0  0  0
    4.8922   30.7719   58.2416 H   0  0  0  0  0  0
    5.1009   32.3720   59.9150 H   0  0  0  0  0  0
    4.9219   30.7269   61.4878 H   0  0  0  0  0  0
    6.5596   31.0367   61.9283 H   0  0  0  0  0  0
    3.9728   28.5747   61.4248 H   0  0  0  0  0  0
    4.6087   28.2669   63.0398 H   0  0  0  0  0  0
    3.4190   26.2165   61.7537 H   0  0  0  0  0  0
    7.3165   26.8134   60.1791 H   0  0  0  0  0  0
    5.1980   25.2687   60.0581 H   0  0  0  0  0  0
    4.7190   26.9061   59.5975 H   0  0  0  0  0  0
    5.0689   24.5890   62.6167 H   0  0  0  0  0  0
    5.2872   25.9548   63.7112 H   0  0  0  0  0  0
    7.4548   26.2472   62.8183 H   0  0  0  0  0  0
    7.1807   24.9122   61.7093 H   0  0  0  0  0  0
    8.1430   31.8393   61.3464 H   0  0  0  0  0  0
  1  2  2  0  0  0
  1  6  1  0  0  0
  1 27  1  0  0  0
  2  3  1  0  0  0
  2 29  1  0  0  0
  3  4  2  0  0  0
  3  7  1  0  0  0
  4  5  1  0  0  0
  4 30  1  0  0  0
  5  6  2  0  0  0
  5 31  1  0  0  0
  6 32  1  0  0  0
  7  8  2  0  0  0
  7 12  1  0  0  0
  8  9  1  0  0  0
  8 33  1  0  0  0
  9 10  2  0  0  0
  9 34  1  0  0  0
 10 11  1  0  0  0
 10 35  1  0  0  0
 11 12  2  0  0  0
 11 36  1  0  0  0
 12 37  1  0  0  0
 13 14  1  0  0  0
 13 20  1  0  0  0
 13 22  1  0  0  0
 13 38  1  0  0  0
 14 18  1  0  0  0
 14 15  1  0  0  0
 15 16  1  0  0  0
 15 19  2  0  0  0
 16 17  1  0  0  0
 16 39  1  0  0  0
 16 40  1  0  0  0
 17 18  1  0  0  0
 17 26  1  0  0  0
 17 41  1  0  0  0
 18 42  1  0  0  0
 18 43  1  0  0  0
 20 21  1  0  0  0
 20 44  1  0  0  0
 20 45  1  0  0  0
 21 23  1  0  0  0
 21 24  1  0  0  0
 21 46  1  0  0  0
 22 23  1  0  0  0
 22 25  1  0  0  0
 22 47  1  0  0  0
 23 48  1  0  0  0
 23 49  1  0  0  0
 24 25  1  0  0  0
 24 50  1  0  0  0
 24 51  1  0  0  0
 25 52  1  0  0  0
 25 53  1  0  0  0
 26 27  1  0  0  0
 26 28  2  0  0  0
 27 54  1  0  0  0
M  END
> <s_m_entry_id>
8211

> <s_m_entry_name>
dock_pv.6

> <s_m_Source_Path>
/home/csk/Desktop/cluster/DUD-E-result/inha

> <s_m_Source_File>
dock_pv.maegz

> <i_m_Source_File_Index>
6

> <chembl_id>
CHEMBL217852

> <chembl_pref_name>
None

> <i_lp_mmshare_version>
53161

> <r_lp_tautomer_probability>
1

> <s_lp_Force_Field>
OPLS_2005

> <r_lp_Energy>
75.918765

> <b_lp_Chiralities_Consistent>
1

> <s_lp_Variant>
CHEMBL1849_lig36-4

> <s_i_glide_gridfile>
glide-grid_2h7l

> <i_i_glide_lignum>
69

> <i_i_glide_rotatable_bonds>
5

> <r_i_docking_score>
-8.95819789537674

> <r_i_glide_ligand_efficiency>
-0.319935639120598

> <r_i_glide_ligand_efficiency_sa>
-0.971513032384506

> <r_i_glide_ligand_efficiency_ln>
-2.06781509837227

> <r_i_glide_gscore>
-8.95819789537674

> <r_i_glide_lipo>
-4.51738455807592

> <r_i_glide_hbond>
0

> <r_i_glide_metal>
0

> <r_i_glide_rewards>
-2.59253640125438

> <r_i_glide_evdw>
-45.2335014343262

> <r_i_glide_ecoul>
-1.84030592441559

> <r_i_glide_erotb>
0.689444024332202

> <r_i_glide_esite>
0

> <r_i_glide_emodel>
-67.3528359932639

> <r_i_glide_energy>
-47.0738073587418

> <r_i_glide_einternal>
9.57767772674561

> <i_i_glide_confnum>
114

> <i_i_glide_posenum>
235

> <r_i_glide_eff_state_penalty>
0

> <s_user_duplicate_titles>
CHEMBL1849_lig36

> <i_f3d_flags>
0

> <s_m_subgroup_title>
dock_pv

> <s_m_subgroupid>
dock_pv

> <b_m_subgroup_collapsed>
0

$$$$
CHEMBL1849_lig53
                    3D
 Schrodinger Suite 2021-1.
 41 43  0  0  1  0            999 V2000
    4.9623   27.9013   59.4733 C   0  0  0  0  0  0
    3.6222   28.2401   59.6746 C   0  0  0  0  0  0
    3.1639   29.5167   59.3465 C   0  0  0  0  0  0
    4.0452   30.4575   58.8224 C   0  0  0  0  0  0
    5.3900   30.1254   58.6254 C   0  0  0  0  0  0
    5.8448   28.8404   58.9473 C   0  0  0  0  0  0
    6.3291   31.1406   58.0281 C   0  0  0  0  0  0
    7.3812   31.5881   58.7718 N   0  0  0  0  0  0
    6.1040   31.5217   56.8755 O   0  0  0  0  0  0
    7.6668   31.1105   60.1356 C   0  0  0  0  0  0
    8.0566   32.2890   61.0618 C   0  0  0  0  0  0
    8.9650   33.2938   60.4938 N   0  0  0  0  0  0
    8.5490   33.7222   59.1565 C   0  0  0  0  0  0
    8.3534   32.5326   58.1961 C   0  0  0  0  0  0
   10.1044   33.7756   61.1347 C   0  0  0  0  0  0
   10.5047   35.1113   60.9915 C   0  0  0  0  0  0
   11.6658   35.5798   61.6106 C   0  0  0  0  0  0
   12.4866   34.7049   62.3166 C   0  0  0  0  0  0
   12.1114   33.3705   62.4516 C   0  0  0  0  0  0
   10.9052   32.9243   61.9102 C   0  0  0  0  0  0
    2.6540   27.2128   60.2283 C   0  0  0  0  0  0
   13.1714   32.2539   63.2282 Cl  0  0  0  0  0  0
    5.3211   26.9116   59.7159 H   0  0  0  0  0  0
    2.1275   29.7885   59.4939 H   0  0  0  0  0  0
    3.6709   31.4401   58.5691 H   0  0  0  0  0  0
    6.8770   28.5592   58.7866 H   0  0  0  0  0  0
    6.8362   30.5879   60.6099 H   0  0  0  0  0  0
    8.5037   30.4210   60.0499 H   0  0  0  0  0  0
    8.4315   31.9098   62.0127 H   0  0  0  0  0  0
    7.1537   32.8524   61.3050 H   0  0  0  0  0  0
    9.2798   34.4057   58.7229 H   0  0  0  0  0  0
    7.6240   34.2905   59.2689 H   0  0  0  0  0  0
    9.3032   32.0223   58.0554 H   0  0  0  0  0  0
    8.0594   32.9180   57.2284 H   0  0  0  0  0  0
    9.9056   35.8039   60.4199 H   0  0  0  0  0  0
   11.9439   36.6184   61.5141 H   0  0  0  0  0  0
   13.4121   35.0600   62.7465 H   0  0  0  0  0  0
   10.6403   31.8859   62.0246 H   0  0  0  0  0  0
    1.6766   27.3143   59.7557 H   0  0  0  0  0  0
    2.9959   26.1961   60.0295 H   0  0  0  0  0  0
    2.5304   27.3440   61.3031 H   0  0  0  0  0  0
  1  6  1  0  0  0
  1  2  2  0  0  0
  1 23  1  0  0  0
  2 21  1  0  0  0
  2  3  1  0  0  0
  3  4  2  0  0  0
  3 24  1  0  0  0
  4  5  1  0  0  0
  4 25  1  0  0  0
  5  6  2  0  0  0
  5  7  1  0  0  0
  6 26  1  0  0  0
  7  8  1  0  0  0
  7  9  2  0  0  0
  8 14  1  0  0  0
  8 10  1  0  0  0
 10 11  1  0  0  0
 10 27  1  0  0  0
 10 28  1  0  0  0
 11 12  1  0  0  0
 11 29  1  0  0  0
 11 30  1  0  0  0
 12 13  1  0  0  0
 12 15  1  0  0  0
 13 14  1  0  0  0
 13 31  1  0  0  0
 13 32  1  0  0  0
 14 33  1  0  0  0
 14 34  1  0  0  0
 15 16  2  0  0  0
 15 20  1  0  0  0
 16 17  1  0  0  0
 16 35  1  0  0  0
 17 18  2  0  0  0
 17 36  1  0  0  0
 18 19  1  0  0  0
 18 37  1  0  0  0
 19 20  2  0  0  0
 19 22  1  0  0  0
 20 38  1  0  0  0
 21 39  1  0  0  0
 21 40  1  0  0  0
 21 41  1  0  0  0
M  END
> <s_m_entry_id>
8212

> <s_m_entry_name>
dock_pv.7

> <s_m_Source_Path>
/home/csk/Desktop/cluster/DUD-E-result/inha

> <s_m_Source_File>
dock_pv.maegz

> <i_m_Source_File_Index>
7

> <chembl_id>
CHEMBL430180

> <chembl_pref_name>
None

> <i_lp_mmshare_version>
53161

> <r_lp_tautomer_probability>
1

> <s_lp_Force_Field>
OPLS_2005

> <r_lp_Energy>
50.351821

> <b_lp_Chiralities_Consistent>
1

> <s_lp_Variant>
CHEMBL1849_lig53-1

> <s_i_glide_gridfile>
glide-grid_2h7l

> <i_i_glide_lignum>
103

> <i_i_glide_rotatable_bonds>
3

> <r_i_docking_score>
-8.94801086886035

> <r_i_glide_ligand_efficiency>
-0.406727766766379

> <r_i_glide_ligand_efficiency_sa>
-1.13966719817477

> <r_i_glide_ligand_efficiency_ln>
-2.1872202429762

> <r_i_glide_gscore>
-8.94801086886035

> <r_i_glide_lipo>
-3.82882138138703

> <r_i_glide_hbond>
-0.32

> <r_i_glide_metal>
0

> <r_i_glide_rewards>
-2.66275012723939

> <r_i_glide_evdw>
-37.3469161987305

> <r_i_glide_ecoul>
-5.54628562927246

> <r_i_glide_erotb>
0.562849294093467

> <r_i_glide_esite>
0

> <r_i_glide_emodel>
-62.055702762056

> <r_i_glide_energy>
-42.8932018280029

> <r_i_glide_einternal>
2.95442295074463

> <i_i_glide_confnum>
12

> <i_i_glide_posenum>
387

> <r_i_glide_eff_state_penalty>
0

> <s_user_duplicate_titles>
CHEMBL1849_lig53

> <i_f3d_flags>
0

> <s_m_subgroup_title>
dock_pv

> <s_m_subgroupid>
dock_pv

> <b_m_subgroup_collapsed>
0

$$$$
CHEMBL1849_lig52
                    3D
 Schrodinger Suite 2021-1.
 41 43  0  0  1  0            999 V2000
    5.7891   27.5549   59.3144 C   0  0  0  0  0  0
    4.4154   27.5227   59.5498 C   0  0  0  0  0  0
    3.6312   28.6479   59.2831 C   0  0  0  0  0  0
    4.2385   29.8215   58.8313 C   0  0  0  0  0  0
    5.6251   29.8817   58.6353 C   0  0  0  0  0  0
    6.3877   28.7192   58.8343 C   0  0  0  0  0  0
    6.2516   31.1796   58.1783 C   0  0  0  0  0  0
    7.3528   31.6733   58.8198 N   0  0  0  0  0  0
    5.7247   31.7621   57.2275 O   0  0  0  0  0  0
    7.9990   32.9031   58.3252 C   0  0  0  0  0  0
    8.3222   33.8682   59.4853 C   0  0  0  0  0  0
    9.0214   33.2424   60.6143 N   0  0  0  0  0  0
    8.2956   32.0530   61.0758 C   0  0  0  0  0  0
    7.9847   31.0187   59.9757 C   0  0  0  0  0  0
   10.1646   33.7604   61.2273 C   0  0  0  0  0  0
   10.5283   35.1081   61.0719 C   0  0  0  0  0  0
   11.7057   35.6026   61.6283 C   0  0  0  0  0  0
   12.5678   34.7508   62.3135 C   0  0  0  0  0  0
   12.2276   33.4128   62.4780 C   0  0  0  0  0  0
   11.0176   32.9352   61.9791 C   0  0  0  0  0  0
   13.3350   32.3230   63.2278 Cl  0  0  0  0  0  0
    2.1302   28.6145   59.5030 C   0  0  0  0  0  0
    6.3922   26.6789   59.5054 H   0  0  0  0  0  0
    3.9608   26.6150   59.9190 H   0  0  0  0  0  0
    3.6245   30.6939   58.6488 H   0  0  0  0  0  0
    7.4524   28.7137   58.6459 H   0  0  0  0  0  0
    8.9322   32.6365   57.8271 H   0  0  0  0  0  0
    7.3763   33.4557   57.6283 H   0  0  0  0  0  0
    7.3988   34.2783   59.8981 H   0  0  0  0  0  0
    8.8826   34.7082   59.0779 H   0  0  0  0  0  0
    7.3582   32.4323   61.4874 H   0  0  0  0  0  0
    8.7826   31.5607   61.9150 H   0  0  0  0  0  0
    7.3559   30.2714   60.4560 H   0  0  0  0  0  0
    8.9038   30.5489   59.6284 H   0  0  0  0  0  0
    9.8972   35.8005   60.5368 H   0  0  0  0  0  0
   11.9559   36.6465   61.5172 H   0  0  0  0  0  0
   13.5032   35.1219   62.7048 H   0  0  0  0  0  0
   10.8062   31.8870   62.1075 H   0  0  0  0  0  0
    1.7953   29.5416   59.9724 H   0  0  0  0  0  0
    1.6081   28.5182   58.5498 H   0  0  0  0  0  0
    1.8340   27.7982   60.1628 H   0  0  0  0  0  0
  1  6  1  0  0  0
  1  2  2  0  0  0
  1 23  1  0  0  0
  2  3  1  0  0  0
  2 24  1  0  0  0
  3  4  2  0  0  0
  3 22  1  0  0  0
  4  5  1  0  0  0
  4 25  1  0  0  0
  5  6  2  0  0  0
  5  7  1  0  0  0
  6 26  1  0  0  0
  7  8  1  0  0  0
  7  9  2  0  0  0
  8 14  1  0  0  0
  8 10  1  0  0  0
 10 11  1  0  0  0
 10 27  1  0  0  0
 10 28  1  0  0  0
 11 12  1  0  0  0
 11 29  1  0  0  0
 11 30  1  0  0  0
 12 13  1  0  0  0
 12 15  1  0  0  0
 13 14  1  0  0  0
 13 31  1  0  0  0
 13 32  1  0  0  0
 14 33  1  0  0  0
 14 34  1  0  0  0
 15 16  2  0  0  0
 15 20  1  0  0  0
 16 17  1  0  0  0
 16 35  1  0  0  0
 17 18  2  0  0  0
 17 36  1  0  0  0
 18 19  1  0  0  0
 18 37  1  0  0  0
 19 20  2  0  0  0
 19 21  1  0  0  0
 20 38  1  0  0  0
 22 39  1  0  0  0
 22 40  1  0  0  0
 22 41  1  0  0  0
M  END
> <s_m_entry_id>
8213

> <s_m_entry_name>
dock_pv.8

> <s_m_Source_Path>
/home/csk/Desktop/cluster/DUD-E-result/inha

> <s_m_Source_File>
dock_pv.maegz

> <i_m_Source_File_Index>
8

> <chembl_id>
CHEMBL239459

> <chembl_pref_name>
None

> <i_lp_mmshare_version>
53161

> <r_lp_tautomer_probability>
1

> <s_lp_Force_Field>
OPLS_2005

> <r_lp_Energy>
48.749568

> <b_lp_Chiralities_Consistent>
1

> <s_lp_Variant>
CHEMBL1849_lig52-1

> <s_i_glide_gridfile>
glide-grid_2h7l

> <i_i_glide_lignum>
102

> <i_i_glide_rotatable_bonds>
3

> <r_i_docking_score>
-8.87620753816343

> <r_i_glide_ligand_efficiency>
-0.403463979007429

> <r_i_glide_ligand_efficiency_sa>
-1.1305219365167

> <r_i_glide_ligand_efficiency_ln>
-2.16966888986375

> <r_i_glide_gscore>
-8.87620753816343

> <r_i_glide_lipo>
-4.05003435964663

> <r_i_glide_hbond>
-0.195522882596489

> <r_i_glide_metal>
0

> <r_i_glide_rewards>
-2.61475842103794

> <r_i_glide_evdw>
-38.0837669372559

> <r_i_glide_ecoul>
-4.49701881408691

> <r_i_glide_erotb>
0.562849294093467

> <r_i_glide_esite>
0

> <r_i_glide_emodel>
-63.8793273016103

> <r_i_glide_energy>
-42.5807857513428

> <r_i_glide_einternal>
0.930232584476471

> <i_i_glide_confnum>
15

> <i_i_glide_posenum>
347

> <r_i_glide_eff_state_penalty>
0

> <s_user_duplicate_titles>
CHEMBL1849_lig52

> <i_f3d_flags>
0

> <s_m_subgroup_title>
dock_pv

> <s_m_subgroupid>
dock_pv

> <b_m_subgroup_collapsed>
0

$$$$
CHEMBL1849_lig48
                    3D
 Schrodinger Suite 2021-1.
 38 40  0  0  1  0            999 V2000
    3.0955   29.5843   59.3434 C   0  0  0  0  0  0
    3.4949   28.2748   59.6100 C   0  0  0  0  0  0
    4.8104   27.8836   59.3593 C   0  0  0  0  0  0
    5.7287   28.8011   58.8494 C   0  0  0  0  0  0
    5.3343   30.1192   58.5855 C   0  0  0  0  0  0
    4.0094   30.5030   58.8284 C   0  0  0  0  0  0
    6.3099   31.1084   58.0113 C   0  0  0  0  0  0
    7.3729   31.4999   58.7681 N   0  0  0  0  0  0
    6.1032   31.5220   56.8676 O   0  0  0  0  0  0
    7.6554   30.9694   60.1142 C   0  0  0  0  0  0
    8.0232   32.1207   61.0798 C   0  0  0  0  0  0
    8.9469   33.1393   60.5561 N   0  0  0  0  0  0
    8.5405   33.6075   59.2253 C   0  0  0  0  0  0
    8.3553   32.4500   58.2255 C   0  0  0  0  0  0
   10.1043   33.5757   61.2039 C   0  0  0  0  0  0
   10.5824   34.8816   61.0142 C   0  0  0  0  0  0
   11.7595   35.3114   61.6262 C   0  0  0  0  0  0
   12.5038   34.4331   62.4105 C   0  0  0  0  0  0
   12.0510   33.1314   62.6055 C   0  0  0  0  0  0
   10.8500   32.7177   62.0280 C   0  0  0  0  0  0
   13.0049   32.0154   63.5114 Cl  0  0  0  0  0  0
    5.3041   26.2594   59.6611 Cl  0  0  0  0  0  0
    2.0776   29.8967   59.5304 H   0  0  0  0  0  0
    2.7824   27.5651   60.0039 H   0  0  0  0  0  0
    6.7434   28.4816   58.6541 H   0  0  0  0  0  0
    3.6765   31.5116   58.6222 H   0  0  0  0  0  0
    6.8267   30.4206   60.5609 H   0  0  0  0  0  0
    8.5034   30.2928   60.0277 H   0  0  0  0  0  0
    8.3755   31.7132   62.0270 H   0  0  0  0  0  0
    7.1161   32.6788   61.3190 H   0  0  0  0  0  0
    9.2785   34.2950   58.8112 H   0  0  0  0  0  0
    7.6181   34.1791   59.3440 H   0  0  0  0  0  0
    9.3040   31.9353   58.0863 H   0  0  0  0  0  0
    8.0857   32.8461   57.2477 H   0  0  0  0  0  0
   10.0325   35.5860   60.4079 H   0  0  0  0  0  0
   12.1037   36.3227   61.4753 H   0  0  0  0  0  0
   13.4320   34.7573   62.8581 H   0  0  0  0  0  0
   10.5314   31.7006   62.1887 H   0  0  0  0  0  0
  1  6  1  0  0  0
  1  2  2  0  0  0
  1 23  1  0  0  0
  2  3  1  0  0  0
  2 24  1  0  0  0
  3  4  2  0  0  0
  3 22  1  0  0  0
  4  5  1  0  0  0
  4 25  1  0  0  0
  5  6  2  0  0  0
  5  7  1  0  0  0
  6 26  1  0  0  0
  7  8  1  0  0  0
  7  9  2  0  0  0
  8 14  1  0  0  0
  8 10  1  0  0  0
 10 11  1  0  0  0
 10 27  1  0  0  0
 10 28  1  0  0  0
 11 12  1  0  0  0
 11 29  1  0  0  0
 11 30  1  0  0  0
 12 13  1  0  0  0
 12 15  1  0  0  0
 13 14  1  0  0  0
 13 31  1  0  0  0
 13 32  1  0  0  0
 14 33  1  0  0  0
 14 34  1  0  0  0
 15 16  2  0  0  0
 15 20  1  0  0  0
 16 17  1  0  0  0
 16 35  1  0  0  0
 17 18  2  0  0  0
 17 36  1  0  0  0
 18 19  1  0  0  0
 18 37  1  0  0  0
 19 20  2  0  0  0
 19 21  1  0  0  0
 20 38  1  0  0  0
M  END
> <s_m_entry_id>
8214

> <s_m_entry_name>
dock_pv.9

> <s_m_Source_Path>
/home/csk/Desktop/cluster/DUD-E-result/inha

> <s_m_Source_File>
dock_pv.maegz

> <i_m_Source_File_Index>
9

> <chembl_id>
CHEMBL240105

> <chembl_pref_name>
None

> <i_lp_mmshare_version>
53161

> <r_lp_tautomer_probability>
1

> <s_lp_Force_Field>
OPLS_2005

> <r_lp_Energy>
49.409365

> <b_lp_Chiralities_Consistent>
1

> <s_lp_Variant>
CHEMBL1849_lig48-1

> <s_i_glide_gridfile>
glide-grid_2h7l

> <i_i_glide_lignum>
98

> <i_i_glide_rotatable_bonds>
3

> <r_i_docking_score>
-8.87352271888015

> <r_i_glide_ligand_efficiency>
-0.403341941767279

> <r_i_glide_ligand_efficiency_sa>
-1.13017998337035

> <r_i_glide_ligand_efficiency_ln>
-2.16901262209976

> <r_i_glide_gscore>
-8.87352271888015

> <r_i_glide_lipo>
-3.79513724776425

> <r_i_glide_hbond>
-0.32

> <r_i_glide_metal>
0

> <r_i_glide_rewards>
-2.50463295886004

> <r_i_glide_evdw>
-38.3330001831055

> <r_i_glide_ecoul>
-5.60581588745117

> <r_i_glide_erotb>
0.503769880017094

> <r_i_glide_esite>
0

> <r_i_glide_emodel>
-65.2614056142193

> <r_i_glide_energy>
-43.9388160705566

> <r_i_glide_einternal>
0.898260951042175

> <i_i_glide_confnum>
38

> <i_i_glide_posenum>
5

> <r_i_glide_eff_state_penalty>
0

> <s_user_duplicate_titles>
CHEMBL1849_lig48

> <i_f3d_flags>
0

> <s_m_subgroup_title>
dock_pv

> <s_m_subgroupid>
dock_pv

> <b_m_subgroup_collapsed>
0

$$$$
CHEMBL1849_lig34
                    3D
 Schrodinger Suite 2021-1.
 56 59  0  0  1  0            999 V2000
    3.7685   28.8591   59.2305 C   0  0  0  0  0  0
    4.1217   30.3275   59.0030 C   0  0  0  0  0  0
    5.3931   30.5802   59.8103 C   0  0  1  0  0  0
    5.9804   29.1861   59.9543 C   0  0  0  0  0  0
    4.8173   28.2940   59.8887 N   0  0  0  0  0  0
    4.8984   26.8291   60.1181 C   0  0  0  0  0  0
    6.1744   26.3614   60.8753 C   0  0  0  0  0  0
    6.2069   26.7728   62.3654 C   0  0  0  0  0  0
    4.9439   26.3141   63.1189 C   0  0  0  0  0  0
    3.6510   26.6984   62.3702 C   0  0  0  0  0  0
    3.7010   26.2178   60.9057 C   0  0  0  0  0  0
    6.4343   31.4991   59.1337 C   0  0  0  0  0  0
    7.2327   32.2043   59.9739 N   0  0  0  0  0  0
    6.5126   31.5224   57.9024 O   0  0  0  0  0  0
    2.7374   28.3230   58.8294 O   0  0  0  0  0  0
    8.2306   33.1539   59.6626 C   0  0  0  0  0  0
    9.1307   33.5302   60.6638 C   0  0  0  0  0  0
   10.1237   34.4966   60.4285 C   0  0  0  0  0  0
   10.1750   35.1217   59.1810 C   0  0  0  0  0  0
    9.3040   34.7343   58.1697 C   0  0  0  0  0  0
    8.3377   33.7708   58.4170 C   0  0  0  0  0  0
   11.0922   34.9614   61.5194 C   0  0  0  0  0  0
   12.0990   33.9712   62.1200 C   0  0  0  0  0  0
   11.7041   32.7387   62.6565 C   0  0  0  0  0  0
   12.6468   31.8853   63.2279 C   0  0  0  0  0  0
   13.9770   32.2836   63.3189 C   0  0  0  0  0  0
   14.3761   33.5222   62.8281 C   0  0  0  0  0  0
   13.4421   34.3507   62.2107 C   0  0  0  0  0  0
    4.1798   30.5608   57.9392 H   0  0  0  0  0  0
    3.2875   30.8955   59.4168 H   0  0  0  0  0  0
    5.1580   30.9986   60.7908 H   0  0  0  0  0  0
    6.5835   29.0845   60.8515 H   0  0  0  0  0  0
    6.5876   28.9118   59.0884 H   0  0  0  0  0  0
    4.9174   26.3793   59.1244 H   0  0  0  0  0  0
    7.0712   26.7187   60.3678 H   0  0  0  0  0  0
    6.2328   25.2735   60.8280 H   0  0  0  0  0  0
    6.3119   27.8503   62.4768 H   0  0  0  0  0  0
    7.0922   26.3381   62.8285 H   0  0  0  0  0  0
    4.9350   26.7329   64.1261 H   0  0  0  0  0  0
    4.9749   25.2309   63.2452 H   0  0  0  0  0  0
    3.5093   27.7790   62.4015 H   0  0  0  0  0  0
    2.7874   26.2637   62.8762 H   0  0  0  0  0  0
    3.7819   25.1294   60.8918 H   0  0  0  0  0  0
    2.7493   26.4241   60.4177 H   0  0  0  0  0  0
    7.1228   32.0204   60.9588 H   0  0  0  0  0  0
    9.0292   33.0814   61.6345 H   0  0  0  0  0  0
   10.9005   35.8950   58.9841 H   0  0  0  0  0  0
    9.3613   35.2003   57.1982 H   0  0  0  0  0  0
    7.6537   33.5390   57.6280 H   0  0  0  0  0  0
   11.6451   35.8226   61.1382 H   0  0  0  0  0  0
   10.5040   35.3848   62.3166 H   0  0  0  0  0  0
   10.6767   32.4210   62.6474 H   0  0  0  0  0  0
   12.3429   30.9293   63.6270 H   0  0  0  0  0  0
   14.7069   31.6318   63.7774 H   0  0  0  0  0  0
   15.4110   33.8270   62.9015 H   0  0  0  0  0  0
   13.7665   35.3035   61.8201 H   0  0  0  0  0  0
  1 15  2  0  0  0
  1  5  1  0  0  0
  1  2  1  0  0  0
  2  3  1  0  0  0
  2 29  1  0  0  0
  2 30  1  0  0  0
  3 12  1  0  0  0
  3  4  1  0  0  0
  3 31  1  0  0  0
  4  5  1  0  0  0
  4 32  1  0  0  0
  4 33  1  0  0  0
  5  6  1  0  0  0
  6 11  1  0  0  0
  6  7  1  0  0  0
  6 34  1  0  0  0
  7  8  1  0  0  0
  7 35  1  0  0  0
  7 36  1  0  0  0
  8  9  1  0  0  0
  8 37  1  0  0  0
  8 38  1  0  0  0
  9 10  1  0  0  0
  9 39  1  0  0  0
  9 40  1  0  0  0
 10 11  1  0  0  0
 10 41  1  0  0  0
 10 42  1  0  0  0
 11 43  1  0  0  0
 11 44  1  0  0  0
 12 14  2  0  0  0
 12 13  1  0  0  0
 13 16  1  0  0  0
 13 45  1  0  0  0
 16 17  2  0  0  0
 16 21  1  0  0  0
 17 18  1  0  0  0
 17 46  1  0  0  0
 18 19  2  0  0  0
 18 22  1  0  0  0
 19 20  1  0  0  0
 19 47  1  0  0  0
 20 21  2  0  0  0
 20 48  1  0  0  0
 21 49  1  0  0  0
 22 23  1  0  0  0
 22 50  1  0  0  0
 22 51  1  0  0  0
 23 24  2  0  0  0
 23 28  1  0  0  0
 24 25  1  0  0  0
 24 52  1  0  0  0
 25 26  2  0  0  0
 25 53  1  0  0  0
 26 27  1  0  0  0
 26 54  1  0  0  0
 27 28  2  0  0  0
 27 55  1  0  0  0
 28 56  1  0  0  0
M  END
> <s_m_entry_id>
8215

> <s_m_entry_name>
dock_pv.10

> <s_m_Source_Path>
/home/csk/Desktop/cluster/DUD-E-result/inha

> <s_m_Source_File>
dock_pv.maegz

> <i_m_Source_File_Index>
10

> <chembl_id>
CHEMBL424724

> <chembl_pref_name>
None

> <i_lp_mmshare_version>
53161

> <r_lp_tautomer_probability>
1

> <s_lp_Force_Field>
OPLS_2005

> <r_lp_Energy>
33.941573

> <b_lp_Chiralities_Consistent>
1

> <s_lp_Variant>
CHEMBL1849_lig34-2

> <s_i_glide_gridfile>
glide-grid_2h7l

> <i_i_glide_lignum>
63

> <i_i_glide_rotatable_bonds>
6

> <r_i_docking_score>
-8.84677563398908

> <r_i_glide_ligand_efficiency>
-0.315956272642467

> <r_i_glide_ligand_efficiency_sa>
-0.959429332035384

> <r_i_glide_ligand_efficiency_ln>
-2.04209556894425

> <r_i_glide_gscore>
-8.84677563398908

> <r_i_glide_lipo>
-4.75703887127467

> <r_i_glide_hbond>
0

> <r_i_glide_metal>
0

> <r_i_glide_rewards>
-2.22889160685054

> <r_i_glide_evdw>
-42.6079063415527

> <r_i_glide_ecoul>
-3.6658091545105

> <r_i_glide_erotb>
0.819421534390345

> <r_i_glide_esite>
0

> <r_i_glide_emodel>
-68.4900056460269

> <r_i_glide_energy>
-46.2737154960632

> <r_i_glide_einternal>
3.35763359069824

> <i_i_glide_confnum>
51

> <i_i_glide_posenum>
333

> <r_i_glide_eff_state_penalty>
0

> <s_user_duplicate_titles>
CHEMBL1849_lig34,360333

> <i_f3d_flags>
0

> <s_m_subgroup_title>
dock_pv

> <s_m_subgroupid>
dock_pv

> <b_m_subgroup_collapsed>
0

$$$$
CHEMBL1849_lig47
                    3D
 Schrodinger Suite 2021-1.
 38 40  0  0  1  0            999 V2000
    3.0785   29.6046   59.3079 C   0  0  0  0  0  0
    3.4620   28.2877   59.5646 C   0  0  0  0  0  0
    4.7845   27.8908   59.3293 C   0  0  0  0  0  0
    5.7086   28.8095   58.8309 C   0  0  0  0  0  0
    5.3248   30.1309   58.5714 C   0  0  0  0  0  0
    4.0030   30.5230   58.8122 C   0  0  0  0  0  0
    6.3075   31.1126   57.9959 C   0  0  0  0  0  0
    7.3715   31.5020   58.7526 N   0  0  0  0  0  0
    6.1043   31.5220   56.8494 O   0  0  0  0  0  0
    8.3585   32.4475   58.2080 C   0  0  0  0  0  0
    8.5513   33.6061   59.2068 C   0  0  0  0  0  0
    8.9498   33.1404   60.5415 N   0  0  0  0  0  0
    8.0182   32.1285   61.0639 C   0  0  0  0  0  0
    7.6526   30.9737   60.1013 C   0  0  0  0  0  0
   10.1042   33.5756   61.1978 C   0  0  0  0  0  0
   10.5857   34.8807   61.0105 C   0  0  0  0  0  0
   11.7608   35.3096   61.6278 C   0  0  0  0  0  0
   12.5007   34.4297   62.4147 C   0  0  0  0  0  0
   12.0440   33.1287   62.6098 C   0  0  0  0  0  0
   10.8437   32.7164   62.0280 C   0  0  0  0  0  0
   12.9923   32.0107   63.5203 Cl  0  0  0  0  0  0
    5.3039   26.2703   59.6276 Cl  0  0  0  0  0  0
    2.2819   27.1727   60.1615 Cl  0  0  0  0  0  0
    2.0600   29.9217   59.4851 H   0  0  0  0  0  0
    6.7237   28.4858   58.6411 H   0  0  0  0  0  0
    3.6785   31.5357   58.6110 H   0  0  0  0  0  0
    9.3035   31.9264   58.0689 H   0  0  0  0  0  0
    8.0907   32.8446   57.2298 H   0  0  0  0  0  0
    7.6325   34.1830   59.3216 H   0  0  0  0  0  0
    9.2940   34.2885   58.7928 H   0  0  0  0  0  0
    7.1120   32.6914   61.2962 H   0  0  0  0  0  0
    8.3633   31.7234   62.0146 H   0  0  0  0  0  0
    6.8237   30.4251   60.5494 H   0  0  0  0  0  0
    8.5039   30.2982   60.0236 H   0  0  0  0  0  0
   10.0391   35.5855   60.4017 H   0  0  0  0  0  0
   12.1050   36.3223   61.4803 H   0  0  0  0  0  0
   13.4274   34.7541   62.8655 H   0  0  0  0  0  0
   10.5204   31.7005   62.1869 H   0  0  0  0  0  0
  1  6  1  0  0  0
  1  2  2  0  0  0
  1 24  1  0  0  0
  2  3  1  0  0  0
  2 23  1  0  0  0
  3  4  2  0  0  0
  3 22  1  0  0  0
  4  5  1  0  0  0
  4 25  1  0  0  0
  5  7  1  0  0  0
  5  6  2  0  0  0
  6 26  1  0  0  0
  7  8  1  0  0  0
  7  9  2  0  0  0
  8 14  1  0  0  0
  8 10  1  0  0  0
 10 11  1  0  0  0
 10 27  1  0  0  0
 10 28  1  0  0  0
 11 12  1  0  0  0
 11 29  1  0  0  0
 11 30  1  0  0  0
 12 13  1  0  0  0
 12 15  1  0  0  0
 13 14  1  0  0  0
 13 31  1  0  0  0
 13 32  1  0  0  0
 14 33  1  0  0  0
 14 34  1  0  0  0
 15 16  2  0  0  0
 15 20  1  0  0  0
 16 17  1  0  0  0
 16 35  1  0  0  0
 17 18  2  0  0  0
 17 36  1  0  0  0
 18 19  1  0  0  0
 18 37  1  0  0  0
 19 20  2  0  0  0
 19 21  1  0  0  0
 20 38  1  0  0  0
M  END
> <s_m_entry_id>
8216

> <s_m_entry_name>
dock_pv.11

> <s_m_Source_Path>
/home/csk/Desktop/cluster/DUD-E-result/inha

> <s_m_Source_File>
dock_pv.maegz

> <i_m_Source_File_Index>
11

> <chembl_id>
CHEMBL429994

> <chembl_pref_name>
None

> <i_lp_mmshare_version>
53161

> <r_lp_tautomer_probability>
1

> <s_lp_Force_Field>
OPLS_2005

> <r_lp_Energy>
50.209436

> <b_lp_Chiralities_Consistent>
1

> <s_lp_Variant>
CHEMBL1849_lig47-1

> <s_i_glide_gridfile>
glide-grid_2h7l

> <i_i_glide_lignum>
97

> <i_i_glide_rotatable_bonds>
3

> <r_i_docking_score>
-8.83295931876818

> <r_i_glide_ligand_efficiency>
-0.38404170951166

> <r_i_glide_ligand_efficiency_sa>
-1.09216353542447

> <r_i_glide_ligand_efficiency_ln>
-2.13588965612508

> <r_i_glide_gscore>
-8.83295931876818

> <r_i_glide_lipo>
-3.81640731291732

> <r_i_glide_hbond>
-0.32

> <r_i_glide_metal>
0

> <r_i_glide_rewards>
-2.27148638653757

> <r_i_glide_evdw>
-39.1696701049805

> <r_i_glide_ecoul>
-5.93272972106934

> <r_i_glide_erotb>
0.42332734409614

> <r_i_glide_esite>
0

> <r_i_glide_emodel>
-66.8900246954701

> <r_i_glide_energy>
-45.1023998260498

> <r_i_glide_einternal>
0.571909129619598

> <i_i_glide_confnum>
15

> <i_i_glide_posenum>
325

> <r_i_glide_eff_state_penalty>
0

> <s_user_duplicate_titles>
CHEMBL1849_lig47

> <i_f3d_flags>
0

> <s_m_subgroup_title>
dock_pv

> <s_m_subgroupid>
dock_pv

> <b_m_subgroup_collapsed>
0

$$$$
CHEMBL1849_lig176
                    3D
 Schrodinger Suite 2021-1.
 34 37  0  0  1  0            999 V2000
    6.3811   27.7197   61.1480 C   0  0  0  0  0  0
    6.2328   28.8360   61.9840 C   0  0  0  0  0  0
    6.1946   30.1308   61.4504 C   0  0  0  0  0  0
    6.4554   27.8813   59.7603 C   0  0  0  0  0  0
    6.3792   29.1732   59.2523 C   0  0  0  0  0  0
    6.2724   30.2702   60.0643 C   0  0  0  0  0  0
    6.2482   31.3550   59.2155 N   0  0  0  0  0  0
    6.2161   30.9016   57.8896 C   0  0  0  0  0  0
    6.3706   29.5490   57.9462 O   0  0  0  0  0  0
    6.1043   31.5198   56.8301 O   0  0  0  0  0  0
    6.2736   32.7808   59.5724 C   0  0  0  0  0  0
    7.7296   33.2554   59.7288 C   0  0  0  0  0  0
    8.1851   34.0278   58.8878 O   0  0  0  0  0  0
    8.4155   32.7713   60.7874 N   0  0  0  0  0  0
    9.6909   33.1161   61.2171 C   0  0  0  0  0  0
   10.5086   34.6324   60.8281 S   0  0  0  0  0  0
   10.3125   32.3220   62.0396 N   0  0  0  0  0  0
   11.5307   32.8086   62.3859 C   0  0  0  0  0  0
   11.8581   34.0698   61.8153 C   0  0  0  0  0  0
   13.1118   34.6526   62.0390 C   0  0  0  0  0  0
   14.0469   33.9211   62.7735 C   0  0  0  0  0  0
   13.7384   32.6747   63.3133 C   0  0  0  0  0  0
   12.4695   32.1168   63.1641 C   0  0  0  0  0  0
    6.4640   26.1383   61.8340 Cl  0  0  0  0  0  0
    6.1414   28.6924   63.0504 H   0  0  0  0  0  0
    6.0850   30.9830   62.1058 H   0  0  0  0  0  0
    6.5678   27.0223   59.1195 H   0  0  0  0  0  0
    5.7472   32.9365   60.5148 H   0  0  0  0  0  0
    5.7652   33.3983   58.8299 H   0  0  0  0  0  0
    7.9918   32.0189   61.3068 H   0  0  0  0  0  0
   13.3621   35.6186   61.6274 H   0  0  0  0  0  0
   15.0380   34.3207   62.9256 H   0  0  0  0  0  0
   14.4921   32.1428   63.8774 H   0  0  0  0  0  0
   12.2374   31.1516   63.5887 H   0  0  0  0  0  0
  1  2  2  0  0  0
  1  4  1  0  0  0
  1 24  1  0  0  0
  2  3  1  0  0  0
  2 25  1  0  0  0
  3  6  2  0  0  0
  3 26  1  0  0  0
  4  5  2  0  0  0
  4 27  1  0  0  0
  5  6  1  0  0  0
  5  9  1  0  0  0
  6  7  1  0  0  0
  7  8  1  0  0  0
  7 11  1  0  0  0
  8  9  1  0  0  0
  8 10  2  0  0  0
 11 12  1  0  0  0
 11 28  1  0  0  0
 11 29  1  0  0  0
 12 13  2  0  0  0
 12 14  1  0  0  0
 14 15  1  0  0  0
 14 30  1  0  0  0
 15 16  1  0  0  0
 15 17  2  0  0  0
 16 19  1  0  0  0
 17 18  1  0  0  0
 18 19  2  0  0  0
 18 23  1  0  0  0
 19 20  1  0  0  0
 20 21  2  0  0  0
 20 31  1  0  0  0
 21 22  1  0  0  0
 21 32  1  0  0  0
 22 23  2  0  0  0
 22 33  1  0  0  0
 23 34  1  0  0  0
M  END
> <s_m_entry_id>
8217

> <s_m_entry_name>
dock_pv.12

> <s_m_Source_Path>
/home/csk/Desktop/cluster/DUD-E-result/inha

> <s_m_Source_File>
dock_pv.maegz

> <i_m_Source_File_Index>
12

> <chembl_id>
CHEMBL3343868

> <chembl_pref_name>
None

> <i_lp_mmshare_version>
53161

> <r_lp_tautomer_probability>
1

> <s_lp_Force_Field>
OPLS_2005

> <r_lp_Energy>
27.462551

> <b_lp_Chiralities_Consistent>
1

> <s_lp_Variant>
CHEMBL1849_lig176-1

> <s_i_glide_gridfile>
glide-grid_2h7l

> <i_i_glide_lignum>
243

> <i_i_glide_rotatable_bonds>
4

> <r_i_docking_score>
-8.82992102981926

> <r_i_glide_ligand_efficiency>
-0.367913376242469

> <r_i_glide_ligand_efficiency_sa>
-1.06124581646787

> <r_i_glide_ligand_efficiency_ln>
-2.11340528111001

> <r_i_glide_gscore>
-8.82992102981926

> <r_i_glide_lipo>
-3.88550254467981

> <r_i_glide_hbond>
-0.32

> <r_i_glide_metal>
0

> <r_i_glide_rewards>
-2.24126489827758

> <r_i_glide_evdw>
-41.6616668701172

> <r_i_glide_ecoul>
-3.97516942024231

> <r_i_glide_erotb>
0.296205169680338

> <r_i_glide_esite>
0

> <r_i_glide_emodel>
-66.3195984301975

> <r_i_glide_energy>
-45.6368362903595

> <r_i_glide_einternal>
3.89098119735718

> <i_i_glide_confnum>
3

> <i_i_glide_posenum>
268

> <r_i_glide_eff_state_penalty>
0

> <s_user_duplicate_titles>
CHEMBL1849_lig176

> <i_f3d_flags>
0

> <s_m_subgroup_title>
dock_pv

> <s_m_subgroupid>
dock_pv

> <b_m_subgroup_collapsed>
0

$$$$
CHEMBL1849_lig36
                    3D
 Schrodinger Suite 2021-1.
 54 58  0  0  1  0            999 V2000
    8.9030   33.2334   60.4285 C   0  0  0  0  0  0
    9.8983   32.8380   61.3371 C   0  0  0  0  0  0
   11.0554   33.6150   61.5684 C   0  0  0  0  0  0
   11.1501   34.8278   60.8603 C   0  0  0  0  0  0
   10.1811   35.2177   59.9424 C   0  0  0  0  0  0
    9.0718   34.4159   59.7162 C   0  0  0  0  0  0
   12.1981   33.1225   62.4280 C   0  0  0  0  0  0
   12.1815   31.8329   62.9963 C   0  0  0  0  0  0
   13.3038   31.3020   63.6279 C   0  0  0  0  0  0
   14.4538   32.0670   63.7424 C   0  0  0  0  0  0
   14.4959   33.3533   63.2288 C   0  0  0  0  0  0
   13.3775   33.8770   62.5867 C   0  0  0  0  0  0
    4.5073   27.5539   61.1609 C   0  0  2  0  0  0
    5.2710   28.6894   60.5947 N   0  0  0  0  0  0
    5.9426   28.5492   59.4243 C   0  0  0  0  0  0
    6.2171   29.9520   58.8883 C   0  0  0  0  0  0
    5.8980   30.9207   60.0241 C   0  0  1  0  0  0
    5.0051   30.0909   60.9405 C   0  0  0  0  0  0
    6.2234   27.5157   58.8281 O   0  0  0  0  0  0
    3.8529   27.8057   62.5481 C   0  0  0  0  0  0
    4.3031   26.5880   63.3861 C   0  0  1  0  0  0
    5.3300   26.2594   61.4483 C   0  0  2  0  0  0
    4.3672   25.4810   62.3415 C   0  0  0  0  0  0
    5.7891   26.7386   63.7656 C   0  0  0  0  0  0
    6.5066   26.5224   62.4172 C   0  0  0  0  0  0
    7.2084   31.4107   60.6923 C   0  0  0  0  0  0
    7.7267   32.5243   60.1356 N   0  0  0  0  0  0
    7.7034   30.7900   61.6333 O   0  0  0  0  0  0
    9.7650   31.9181   61.8697 H   0  0  0  0  0  0
   11.9947   35.4882   60.9607 H   0  0  0  0  0  0
   10.2980   36.1454   59.4016 H   0  0  0  0  0  0
    8.3348   34.7359   58.9967 H   0  0  0  0  0  0
   11.3250   31.1852   62.9247 H   0  0  0  0  0  0
   13.2768   30.3009   64.0345 H   0  0  0  0  0  0
   15.3125   31.6588   64.2414 H   0  0  0  0  0  0
   15.4034   33.9273   63.3197 H   0  0  0  0  0  0
   13.4807   34.8723   62.1891 H   0  0  0  0  0  0
    3.7064   27.2646   60.4777 H   0  0  0  0  0  0
    7.2647   29.9641   58.5796 H   0  0  0  0  0  0
    5.6310   30.1593   57.9936 H   0  0  0  0  0  0
    5.3630   31.7958   59.6506 H   0  0  0  0  0  0
    3.9575   30.3129   60.7306 H   0  0  0  0  0  0
    5.1479   30.3395   61.9927 H   0  0  0  0  0  0
    2.7671   27.8315   62.4611 H   0  0  0  0  0  0
    4.1741   28.7216   63.0353 H   0  0  0  0  0  0
    3.6547   26.3745   64.2359 H   0  0  0  0  0  0
    5.6270   25.7150   60.5510 H   0  0  0  0  0  0
    4.7827   24.5429   62.7173 H   0  0  0  0  0  0
    3.4071   25.2649   61.8684 H   0  0  0  0  0  0
    6.0893   25.9783   64.4887 H   0  0  0  0  0  0
    6.0106   27.7108   64.2064 H   0  0  0  0  0  0
    7.1123   27.3813   62.1213 H   0  0  0  0  0  0
    7.1715   25.6578   62.4640 H   0  0  0  0  0  0
    7.1780   32.9311   59.3954 H   0  0  0  0  0  0
  1  2  2  0  0  0
  1  6  1  0  0  0
  1 27  1  0  0  0
  2  3  1  0  0  0
  2 29  1  0  0  0
  3  4  2  0  0  0
  3  7  1  0  0  0
  4  5  1  0  0  0
  4 30  1  0  0  0
  5  6  2  0  0  0
  5 31  1  0  0  0
  6 32  1  0  0  0
  7  8  2  0  0  0
  7 12  1  0  0  0
  8  9  1  0  0  0
  8 33  1  0  0  0
  9 10  2  0  0  0
  9 34  1  0  0  0
 10 11  1  0  0  0
 10 35  1  0  0  0
 11 12  2  0  0  0
 11 36  1  0  0  0
 12 37  1  0  0  0
 13 14  1  0  0  0
 13 20  1  0  0  0
 13 22  1  0  0  0
 13 38  1  0  0  0
 14 18  1  0  0  0
 14 15  1  0  0  0
 15 16  1  0  0  0
 15 19  2  0  0  0
 16 17  1  0  0  0
 16 39  1  0  0  0
 16 40  1  0  0  0
 17 18  1  0  0  0
 17 26  1  0  0  0
 17 41  1  0  0  0
 18 42  1  0  0  0
 18 43  1  0  0  0
 20 21  1  0  0  0
 20 44  1  0  0  0
 20 45  1  0  0  0
 21 23  1  0  0  0
 21 24  1  0  0  0
 21 46  1  0  0  0
 22 23  1  0  0  0
 22 25  1  0  0  0
 22 47  1  0  0  0
 23 48  1  0  0  0
 23 49  1  0  0  0
 24 25  1  0  0  0
 24 50  1  0  0  0
 24 51  1  0  0  0
 25 52  1  0  0  0
 25 53  1  0  0  0
 26 27  1  0  0  0
 26 28  2  0  0  0
 27 54  1  0  0  0
M  END
> <s_m_entry_id>
8218

> <s_m_entry_name>
dock_pv.13

> <s_m_Source_Path>
/home/csk/Desktop/cluster/DUD-E-result/inha

> <s_m_Source_File>
dock_pv.maegz

> <i_m_Source_File_Index>
13

> <chembl_id>
CHEMBL217852

> <chembl_pref_name>
None

> <i_lp_mmshare_version>
53161

> <r_lp_tautomer_probability>
1

> <s_lp_Force_Field>
OPLS_2005

> <r_lp_Energy>
77.616373

> <b_lp_Chiralities_Consistent>
1

> <s_lp_Variant>
CHEMBL1849_lig36-3

> <s_i_glide_gridfile>
glide-grid_2h7l

> <i_i_glide_lignum>
68

> <i_i_glide_rotatable_bonds>
5

> <r_i_docking_score>
-8.80842417969529

> <r_i_glide_ligand_efficiency>
-0.31458657784626

> <r_i_glide_ligand_efficiency_sa>
-0.955270131927007

> <r_i_glide_ligand_efficiency_ln>
-2.03324292724561

> <r_i_glide_gscore>
-8.80842417969529

> <r_i_glide_lipo>
-4.48586970313229

> <r_i_glide_hbond>
-0.150616767013672

> <r_i_glide_metal>
0

> <r_i_glide_rewards>
-2.50154569195419

> <r_i_glide_evdw>
-43.2773933410645

> <r_i_glide_ecoul>
-1.30644249916077

> <r_i_glide_erotb>
0.689444024332202

> <r_i_glide_esite>
0

> <r_i_glide_emodel>
-61.6918971921518

> <r_i_glide_energy>
-44.5838358402252

> <r_i_glide_einternal>
5.3982195854187

> <i_i_glide_confnum>
67

> <i_i_glide_posenum>
219

> <r_i_glide_eff_state_penalty>
0

> <s_user_duplicate_titles>
CHEMBL1849_lig36

> <i_f3d_flags>
0

> <s_m_subgroup_title>
dock_pv

> <s_m_subgroupid>
dock_pv

> <b_m_subgroup_collapsed>
0

$$$$
CHEMBL1849_lig24
                    3D
 Schrodinger Suite 2021-1.
 47 50  0  0  1  0            999 V2000
    5.3629   32.6013   60.2796 C   0  0  0  0  0  0
    6.3311   33.7579   60.5073 C   0  0  0  0  0  0
    7.6252   33.4149   59.7788 C   0  0  2  0  0  0
    7.1597   32.3649   58.7852 C   0  0  0  0  0  0
    5.9333   31.7888   59.3538 N   0  0  0  0  0  0
    5.2098   30.6645   58.7146 C   0  0  0  0  0  0
    6.1041   29.8010   57.7838 C   0  0  0  0  0  0
    7.1598   28.9594   58.5398 C   0  0  0  0  0  0
    6.5168   28.0690   59.6244 C   0  0  0  0  0  0
    5.5644   28.8686   60.5349 C   0  0  0  0  0  0
    4.5366   29.6552   59.6938 C   0  0  0  0  0  0
    8.6892   32.8306   60.7563 C   0  0  0  0  0  0
    9.8606   33.4908   60.9789 N   0  0  0  0  0  0
    8.4289   31.7579   61.3034 O   0  0  0  0  0  0
    4.2670   32.5049   60.8276 O   0  0  0  0  0  0
   10.0916   34.8608   60.5069 C   0  0  0  0  0  0
   11.5117   35.2011   60.9147 C   0  0  0  0  0  0
   10.9041   33.1215   61.8610 C   0  0  0  0  0  0
   11.8890   34.1084   61.8593 C   0  0  0  0  0  0
   13.0871   33.9194   62.5499 C   0  0  0  0  0  0
   13.3116   32.7209   63.2279 C   0  0  0  0  0  0
   12.3337   31.7265   63.2279 C   0  0  0  0  0  0
   11.1238   31.9282   62.5642 C   0  0  0  0  0  0
    6.4609   33.8432   61.5881 H   0  0  0  0  0  0
    5.9091   34.7041   60.1658 H   0  0  0  0  0  0
    7.9952   34.2914   59.2534 H   0  0  0  0  0  0
    6.9066   32.8464   57.8433 H   0  0  0  0  0  0
    7.9464   31.6538   58.5314 H   0  0  0  0  0  0
    4.4272   31.1249   58.1080 H   0  0  0  0  0  0
    5.4619   29.1220   57.2282 H   0  0  0  0  0  0
    6.5767   30.4160   57.0193 H   0  0  0  0  0  0
    7.7141   28.3382   57.8361 H   0  0  0  0  0  0
    7.9014   29.6028   59.0139 H   0  0  0  0  0  0
    5.9651   27.2580   59.1467 H   0  0  0  0  0  0
    7.2982   27.5928   60.2186 H   0  0  0  0  0  0
    5.0522   28.1924   61.2200 H   0  0  0  0  0  0
    6.1405   29.5559   61.1571 H   0  0  0  0  0  0
    3.8147   30.1449   60.3431 H   0  0  0  0  0  0
    3.9330   28.9493   59.1198 H   0  0  0  0  0  0
    9.9076   35.0583   59.4480 H   0  0  0  0  0  0
    9.4185   35.4942   61.0890 H   0  0  0  0  0  0
   11.5977   36.2183   61.2941 H   0  0  0  0  0  0
   12.1364   35.1214   60.0287 H   0  0  0  0  0  0
   13.8638   34.6696   62.5258 H   0  0  0  0  0  0
   14.2445   32.5630   63.7518 H   0  0  0  0  0  0
   12.5108   30.7998   63.7529 H   0  0  0  0  0  0
   10.3920   31.1367   62.5855 H   0  0  0  0  0  0
  1  2  1  0  0  0
  1 15  2  0  0  0
  1  5  1  0  0  0
  2  3  1  0  0  0
  2 24  1  0  0  0
  2 25  1  0  0  0
  3 12  1  0  0  0
  3  4  1  0  0  0
  3 26  1  0  0  0
  4  5  1  0  0  0
  4 27  1  0  0  0
  4 28  1  0  0  0
  5  6  1  0  0  0
  6  7  1  0  0  0
  6 11  1  0  0  0
  6 29  1  0  0  0
  7  8  1  0  0  0
  7 30  1  0  0  0
  7 31  1  0  0  0
  8  9  1  0  0  0
  8 32  1  0  0  0
  8 33  1  0  0  0
  9 10  1  0  0  0
  9 34  1  0  0  0
  9 35  1  0  0  0
 10 11  1  0  0  0
 10 36  1  0  0  0
 10 37  1  0  0  0
 11 38  1  0  0  0
 11 39  1  0  0  0
 12 13  1  0  0  0
 12 14  2  0  0  0
 13 16  1  0  0  0
 13 18  1  0  0  0
 16 17  1  0  0  0
 16 40  1  0  0  0
 16 41  1  0  0  0
 17 19  1  0  0  0
 17 42  1  0  0  0
 17 43  1  0  0  0
 18 19  2  0  0  0
 18 23  1  0  0  0
 19 20  1  0  0  0
 20 21  2  0  0  0
 20 44  1  0  0  0
 21 22  1  0  0  0
 21 45  1  0  0  0
 22 23  2  0  0  0
 22 46  1  0  0  0
 23 47  1  0  0  0
M  END
> <s_m_entry_id>
8219

> <s_m_entry_name>
dock_pv.14

> <s_m_Source_Path>
/home/csk/Desktop/cluster/DUD-E-result/inha

> <s_m_Source_File>
dock_pv.maegz

> <i_m_Source_File_Index>
14

> <chembl_id>
CHEMBL217499

> <chembl_pref_name>
None

> <i_lp_mmshare_version>
53161

> <r_lp_tautomer_probability>
1

> <s_lp_Force_Field>
OPLS_2005

> <r_lp_Energy>
54.543799

> <b_lp_Chiralities_Consistent>
1

> <s_lp_Variant>
CHEMBL1849_lig24-1

> <s_i_glide_gridfile>
glide-grid_2h7l

> <i_i_glide_lignum>
36

> <i_i_glide_rotatable_bonds>
3

> <r_i_docking_score>
-8.79812602598757

> <r_i_glide_ligand_efficiency>
-0.382527218521199

> <r_i_glide_ligand_efficiency_sa>
-1.08785652450991

> <r_i_glide_ligand_efficiency_ln>
-2.12746665007989

> <r_i_glide_gscore>
-8.79812602598757

> <r_i_glide_lipo>
-4.29158894288321

> <r_i_glide_hbond>
0

> <r_i_glide_metal>
0

> <r_i_glide_rewards>
-2.96838682538705

> <r_i_glide_evdw>
-40.0888442993164

> <r_i_glide_ecoul>
-0.694608211517334

> <r_i_glide_erotb>
0.570483188976124

> <r_i_glide_esite>
0

> <r_i_glide_emodel>
-60.3109058539418

> <r_i_glide_energy>
-40.7834525108337

> <r_i_glide_einternal>
1.45779180526733

> <i_i_glide_confnum>
19

> <i_i_glide_posenum>
126

> <r_i_glide_eff_state_penalty>
0

> <s_user_duplicate_titles>
CHEMBL1849_lig24

> <i_f3d_flags>
0

> <s_m_subgroup_title>
dock_pv

> <s_m_subgroupid>
dock_pv

> <b_m_subgroup_collapsed>
0

$$$$
CHEMBL1849_lig36
                    3D
 Schrodinger Suite 2021-1.
 54 58  0  0  1  0            999 V2000
    9.3420   33.4349   60.5496 C   0  0  0  0  0  0
   10.3615   32.9846   61.4042 C   0  0  0  0  0  0
   11.4740   33.7894   61.7326 C   0  0  0  0  0  0
   11.4856   35.0993   61.2291 C   0  0  0  0  0  0
   10.5040   35.5510   60.3606 C   0  0  0  0  0  0
    9.4469   34.7219   60.0093 C   0  0  0  0  0  0
   12.6498   33.2637   62.5215 C   0  0  0  0  0  0
   12.5919   32.0482   63.2280 C   0  0  0  0  0  0
   13.7030   31.5553   63.9139 C   0  0  0  0  0  0
   14.8707   32.2977   63.9464 C   0  0  0  0  0  0
   14.9776   33.4761   63.2281 C   0  0  0  0  0  0
   13.8804   33.9461   62.5156 C   0  0  0  0  0  0
    6.1780   28.3255   60.6504 C   0  0  1  0  0  0
    5.8600   29.6327   60.0363 N   0  0  0  0  0  0
    4.7153   30.3560   60.1709 C   0  0  0  0  0  0
    4.8839   31.6080   59.3120 C   0  0  0  0  0  0
    6.3555   31.6601   58.8940 C   0  0  2  0  0  0
    6.8399   30.2312   59.1321 C   0  0  0  0  0  0
    3.7097   30.1036   60.8284 O   0  0  0  0  0  0
    6.9096   28.4473   62.0095 C   0  0  0  0  0  0
    6.1781   27.4203   62.9046 C   0  0  1  0  0  0
    4.9944   27.3791   61.0240 C   0  0  2  0  0  0
    4.7330   27.6686   62.5052 C   0  0  0  0  0  0
    6.4032   25.9794   62.3960 C   0  0  0  0  0  0
    5.5286   25.9327   61.1237 C   0  0  0  0  0  0
    7.1321   32.7927   59.6224 C   0  0  0  0  0  0
    8.3455   32.5171   60.1531 N   0  0  0  0  0  0
    6.6377   33.9189   59.6277 O   0  0  0  0  0  0
   10.3044   31.9693   61.7634 H   0  0  0  0  0  0
   12.2742   35.7954   61.4653 H   0  0  0  0  0  0
   10.5638   36.5516   59.9561 H   0  0  0  0  0  0
    8.7262   35.1001   59.3029 H   0  0  0  0  0  0
   11.6859   31.4645   63.2686 H   0  0  0  0  0  0
   13.6389   30.6251   64.4595 H   0  0  0  0  0  0
   15.7031   31.9352   64.5250 H   0  0  0  0  0  0
   15.9200   33.9993   63.2121 H   0  0  0  0  0  0
   14.0272   34.8514   61.9504 H   0  0  0  0  0  0
    6.8072   27.7532   59.9659 H   0  0  0  0  0  0
    4.2108   31.5940   58.4540 H   0  0  0  0  0  0
    4.5630   32.4532   59.9245 H   0  0  0  0  0  0
    6.4170   31.9323   57.8400 H   0  0  0  0  0  0
    7.8783   30.1407   59.4527 H   0  0  0  0  0  0
    6.7988   29.6836   58.1885 H   0  0  0  0  0  0
    6.7961   29.4492   62.4271 H   0  0  0  0  0  0
    7.9777   28.2453   61.9291 H   0  0  0  0  0  0
    6.3807   27.5398   63.9694 H   0  0  0  0  0  0
    4.1240   27.4649   60.3725 H   0  0  0  0  0  0
    4.0253   26.9779   62.9696 H   0  0  0  0  0  0
    4.4056   28.6837   62.7267 H   0  0  0  0  0  0
    6.0665   25.2448   63.1290 H   0  0  0  0  0  0
    7.4547   25.7785   62.1857 H   0  0  0  0  0  0
    6.1026   25.6385   60.2456 H   0  0  0  0  0  0
    4.7116   25.2178   61.2365 H   0  0  0  0  0  0
    8.5777   31.5451   60.2782 H   0  0  0  0  0  0
  1  2  2  0  0  0
  1  6  1  0  0  0
  1 27  1  0  0  0
  2  3  1  0  0  0
  2 29  1  0  0  0
  3  4  2  0  0  0
  3  7  1  0  0  0
  4  5  1  0  0  0
  4 30  1  0  0  0
  5  6  2  0  0  0
  5 31  1  0  0  0
  6 32  1  0  0  0
  7  8  2  0  0  0
  7 12  1  0  0  0
  8  9  1  0  0  0
  8 33  1  0  0  0
  9 10  2  0  0  0
  9 34  1  0  0  0
 10 11  1  0  0  0
 10 35  1  0  0  0
 11 12  2  0  0  0
 11 36  1  0  0  0
 12 37  1  0  0  0
 13 14  1  0  0  0
 13 20  1  0  0  0
 13 22  1  0  0  0
 13 38  1  0  0  0
 14 18  1  0  0  0
 14 15  1  0  0  0
 15 16  1  0  0  0
 15 19  2  0  0  0
 16 17  1  0  0  0
 16 39  1  0  0  0
 16 40  1  0  0  0
 17 18  1  0  0  0
 17 26  1  0  0  0
 17 41  1  0  0  0
 18 42  1  0  0  0
 18 43  1  0  0  0
 20 21  1  0  0  0
 20 44  1  0  0  0
 20 45  1  0  0  0
 21 23  1  0  0  0
 21 24  1  0  0  0
 21 46  1  0  0  0
 22 23  1  0  0  0
 22 25  1  0  0  0
 22 47  1  0  0  0
 23 48  1  0  0  0
 23 49  1  0  0  0
 24 25  1  0  0  0
 24 50  1  0  0  0
 24 51  1  0  0  0
 25 52  1  0  0  0
 25 53  1  0  0  0
 26 27  1  0  0  0
 26 28  2  0  0  0
 27 54  1  0  0  0
M  END
> <s_m_entry_id>
8220

> <s_m_entry_name>
dock_pv.15

> <s_m_Source_Path>
/home/csk/Desktop/cluster/DUD-E-result/inha

> <s_m_Source_File>
dock_pv.maegz

> <i_m_Source_File_Index>
15

> <chembl_id>
CHEMBL217852

> <chembl_pref_name>
None

> <i_lp_mmshare_version>
53161

> <r_lp_tautomer_probability>
1

> <s_lp_Force_Field>
OPLS_2005

> <r_lp_Energy>
77.218267

> <b_lp_Chiralities_Consistent>
1

> <s_lp_Variant>
CHEMBL1849_lig36-2

> <s_i_glide_gridfile>
glide-grid_2h7l

> <i_i_glide_lignum>
67

> <i_i_glide_rotatable_bonds>
5

> <r_i_docking_score>
-8.79406271739147

> <r_i_glide_ligand_efficiency>
-0.314073668478267

> <r_i_glide_ligand_efficiency_sa>
-0.953712636998316

> <r_i_glide_ligand_efficiency_ln>
-2.02992788007504

> <r_i_glide_gscore>
-8.79406271739147

> <r_i_glide_lipo>
-4.77981656921458

> <r_i_glide_hbond>
0

> <r_i_glide_metal>
0

> <r_i_glide_rewards>
-2.37119165785684

> <r_i_glide_evdw>
-44.7367477416992

> <r_i_glide_ecoul>
-0.637740850448608

> <r_i_glide_erotb>
0.689444024332202

> <r_i_glide_esite>
0

> <r_i_glide_emodel>
-59.7580559494923

> <r_i_glide_energy>
-45.3744885921478

> <r_i_glide_einternal>
11.9161291122437

> <i_i_glide_confnum>
52

> <i_i_glide_posenum>
80

> <r_i_glide_eff_state_penalty>
0

> <s_user_duplicate_titles>
CHEMBL1849_lig36

> <i_f3d_flags>
0

> <s_m_subgroup_title>
dock_pv

> <s_m_subgroupid>
dock_pv

> <b_m_subgroup_collapsed>
0

$$$$
CHEMBL1849_lig11 
                    3D
 Schrodinger Suite 2021-1.
 39 40  0  0  1  0            999 V2000
    5.2595   31.6528   59.2405 O   0  0  0  0  0  0
    6.2750   31.2627   58.2565 S   0  0  0  0  0  0
    6.0752   31.5220   56.8280 O   0  0  0  0  0  0
   11.1191   33.9481   61.5531 C   0  0  0  0  0  0
   11.3463   35.1220   60.8280 C   0  0  0  0  0  0
   10.5040   35.4850   59.7825 C   0  0  0  0  0  0
    9.4121   34.6883   59.4586 C   0  0  0  0  0  0
    9.1443   33.5244   60.1864 C   0  0  0  0  0  0
   10.0049   33.1565   61.2280 C   0  0  0  0  0  0
    7.9559   32.7274   59.8566 C   0  0  0  0  0  0
    7.8244   32.0457   58.7034 C   0  0  0  0  0  0
    6.5361   29.5155   58.3879 N   0  0  0  0  0  0
   12.0202   33.5981   62.7369 C   0  0  0  0  0  0
   12.5040   34.7111   63.2859 F   0  0  0  0  0  0
   11.3040   32.9297   63.6280 F   0  0  0  0  0  0
   13.0615   32.8341   62.4280 F   0  0  0  0  0  0
    5.6813   28.7120   59.1515 C   0  0  0  0  0  0
    4.2882   28.8481   59.0782 C   0  0  0  0  0  0
    3.4457   28.0469   59.8626 C   0  0  0  0  0  0
    4.0206   27.0804   60.6947 C   0  0  0  0  0  0
    5.4049   26.9167   60.7459 C   0  0  0  0  0  0
    6.2331   27.7334   59.9785 C   0  0  0  0  0  0
    1.9207   28.1851   59.8621 C   0  0  0  0  0  0
    1.3743   29.1220   58.8901 N   0  0  0  0  0  0
   12.1765   35.7659   61.0760 H   0  0  0  0  0  0
   10.6897   36.3906   59.2281 H   0  0  0  0  0  0
    8.7639   34.9881   58.6484 H   0  0  0  0  0  0
    9.7928   32.2635   61.7988 H   0  0  0  0  0  0
    7.1478   32.7534   60.5756 H   0  0  0  0  0  0
    8.6183   31.9760   57.9767 H   0  0  0  0  0  0
    7.5087   29.2763   58.5021 H   0  0  0  0  0  0
    3.8608   29.5877   58.4162 H   0  0  0  0  0  0
    3.3921   26.4481   61.3050 H   0  0  0  0  0  0
    5.8384   26.1607   61.3843 H   0  0  0  0  0  0
    7.3040   27.5984   60.0322 H   0  0  0  0  0  0
    1.4958   27.2035   59.6468 H   0  0  0  0  0  0
    1.5829   28.4752   60.8582 H   0  0  0  0  0  0
    0.3836   28.9545   58.7994 H   0  0  0  0  0  0
    1.4237   30.0865   59.2280 H   0  0  0  0  0  0
  1  2  2  0  0  0
  2  3  2  0  0  0
  2 11  1  0  0  0
  2 12  1  0  0  0
  4  5  2  0  0  0
  4  9  1  0  0  0
  4 13  1  0  0  0
  5  6  1  0  0  0
  5 25  1  0  0  0
  6  7  2  0  0  0
  6 26  1  0  0  0
  7  8  1  0  0  0
  7 27  1  0  0  0
  8  9  2  0  0  0
  8 10  1  0  0  0
  9 28  1  0  0  0
 10 11  2  0  0  0
 10 29  1  0  0  0
 11 30  1  0  0  0
 12 17  1  0  0  0
 12 31  1  0  0  0
 13 14  1  0  0  0
 13 15  1  0  0  0
 13 16  1  0  0  0
 17 18  2  0  0  0
 17 22  1  0  0  0
 18 19  1  0  0  0
 18 32  1  0  0  0
 19 20  2  0  0  0
 19 23  1  0  0  0
 20 21  1  0  0  0
 20 33  1  0  0  0
 21 22  2  0  0  0
 21 34  1  0  0  0
 22 35  1  0  0  0
 23 24  1  0  0  0
 23 36  1  0  0  0
 23 37  1  0  0  0
 24 38  1  0  0  0
 24 39  1  0  0  0
M  END
> <s_m_entry_id>
8221

> <s_m_entry_name>
dock_pv.16

> <s_m_Source_Path>
/home/csk/Desktop/cluster/DUD-E-result/inha

> <s_m_Source_File>
dock_pv.maegz

> <i_m_Source_File_Index>
16

> <chembl_id>
CHEMBL4444080

> <chembl_pref_name>
None

> <i_lp_mmshare_version>
53161

> <r_lp_tautomer_probability>
1

> <s_lp_Force_Field>
OPLS_2005

> <r_lp_Energy>
4.564353

> <b_lp_Chiralities_Consistent>
1

> <s_lp_Variant>
CHEMBL1849_lig11 -1

> <s_i_glide_gridfile>
glide-grid_2h7l

> <i_i_glide_lignum>
11

> <i_i_glide_rotatable_bonds>
6

> <r_i_docking_score>
-8.77337340707684

> <r_i_glide_ligand_efficiency>
-0.365557225294869

> <r_i_glide_ligand_efficiency_sa>
-1.05444950109155

> <r_i_glide_ligand_efficiency_ln>
-2.09987084018642

> <r_i_glide_gscore>
-8.77337340707684

> <r_i_glide_lipo>
-3.21795690767419

> <r_i_glide_hbond>
-0.16

> <r_i_glide_metal>
0

> <r_i_glide_rewards>
-2.96745365401754

> <r_i_glide_evdw>
-33.9898376464844

> <r_i_glide_ecoul>
-8.5049524307251

> <r_i_glide_erotb>
0.602589422700382

> <r_i_glide_esite>
-0.0553175211525119

> <r_i_glide_emodel>
-57.3988168412881

> <r_i_glide_energy>
-42.4947900772095

> <r_i_glide_einternal>
9.03070640563965

> <i_i_glide_confnum>
44

> <i_i_glide_posenum>
293

> <r_i_glide_eff_state_penalty>
0

> <s_user_duplicate_titles>
CHEMBL1849_lig11 

> <i_f3d_flags>
0

> <s_m_subgroup_title>
dock_pv

> <s_m_subgroupid>
dock_pv

> <b_m_subgroup_collapsed>
0

$$$$
CHEMBL1849_lig36
                    3D
 Schrodinger Suite 2021-1.
 54 58  0  0  1  0            999 V2000
    8.9573   32.9211   60.8272 C   0  0  0  0  0  0
   10.1041   32.7247   61.6058 C   0  0  0  0  0  0
   11.1484   33.6738   61.6279 C   0  0  0  0  0  0
   10.9680   34.8441   60.8657 C   0  0  0  0  0  0
    9.8422   35.0365   60.0741 C   0  0  0  0  0  0
    8.8355   34.0808   60.0524 C   0  0  0  0  0  0
   12.4379   33.4178   62.3601 C   0  0  0  0  0  0
   13.5742   34.1981   62.0912 C   0  0  0  0  0  0
   14.7952   33.9219   62.6868 C   0  0  0  0  0  0
   14.9039   32.8782   63.5911 C   0  0  0  0  0  0
   13.8191   32.0451   63.8288 C   0  0  0  0  0  0
   12.5936   32.3229   63.2280 C   0  0  0  0  0  0
    6.0600   26.7953   60.6174 C   0  0  1  0  0  0
    5.7899   28.2289   60.3789 N   0  0  0  0  0  0
    4.8641   28.6194   59.4639 C   0  0  0  0  0  0
    5.0155   30.1251   59.2911 C   0  0  0  0  0  0
    5.9910   30.5796   60.3726 C   0  0  1  0  0  0
    6.6665   29.3006   60.8472 C   0  0  0  0  0  0
    4.0750   27.9218   58.8315 O   0  0  0  0  0  0
    7.1927   26.4523   61.6350 C   0  0  0  0  0  0
    6.5026   25.4985   62.6318 C   0  0  2  0  0  0
    4.8625   26.0041   61.2238 C   0  0  1  0  0  0
    5.5487   24.7342   61.7191 C   0  0  0  0  0  0
    5.5263   26.2892   63.5278 C   0  0  0  0  0  0
    4.3763   26.6268   62.5557 C   0  0  0  0  0  0
    7.0515   31.6136   59.9387 C   0  0  0  0  0  0
    7.9462   31.9515   60.8937 N   0  0  0  0  0  0
    7.0569   32.0659   58.7899 O   0  0  0  0  0  0
   10.1742   31.8147   62.1774 H   0  0  0  0  0  0
   11.7020   35.6338   60.8488 H   0  0  0  0  0  0
    9.7416   35.9385   59.4891 H   0  0  0  0  0  0
    7.9566   34.2748   59.4579 H   0  0  0  0  0  0
   13.5573   35.0103   61.3850 H   0  0  0  0  0  0
   15.6613   34.5101   62.4281 H   0  0  0  0  0  0
   15.8460   32.7216   64.0896 H   0  0  0  0  0  0
   13.9169   31.2144   64.5125 H   0  0  0  0  0  0
   11.7727   31.6664   63.4688 H   0  0  0  0  0  0
    6.3204   26.3214   59.6696 H   0  0  0  0  0  0
    5.2979   30.3725   58.2691 H   0  0  0  0  0  0
    4.0275   30.5525   59.4676 H   0  0  0  0  0  0
    5.4702   31.0447   61.2128 H   0  0  0  0  0  0
    6.7665   29.2779   61.9338 H   0  0  0  0  0  0
    7.6322   29.1228   60.3634 H   0  0  0  0  0  0
    7.6299   27.2982   62.1625 H   0  0  0  0  0  0
    8.0050   25.9232   61.1331 H   0  0  0  0  0  0
    7.1972   24.8732   63.1952 H   0  0  0  0  0  0
    4.0551   25.8255   60.5128 H   0  0  0  0  0  0
    6.0538   24.1726   60.9283 H   0  0  0  0  0  0
    4.8787   24.0549   62.2517 H   0  0  0  0  0  0
    5.9881   27.1809   63.9564 H   0  0  0  0  0  0
    5.1676   25.6736   64.3547 H   0  0  0  0  0  0
    3.4444   26.1618   62.8842 H   0  0  0  0  0  0
    4.1949   27.6991   62.4822 H   0  0  0  0  0  0
    7.9157   31.4258   61.7538 H   0  0  0  0  0  0
  1  2  2  0  0  0
  1  6  1  0  0  0
  1 27  1  0  0  0
  2  3  1  0  0  0
  2 29  1  0  0  0
  3  4  2  0  0  0
  3  7  1  0  0  0
  4  5  1  0  0  0
  4 30  1  0  0  0
  5  6  2  0  0  0
  5 31  1  0  0  0
  6 32  1  0  0  0
  7  8  2  0  0  0
  7 12  1  0  0  0
  8  9  1  0  0  0
  8 33  1  0  0  0
  9 10  2  0  0  0
  9 34  1  0  0  0
 10 11  1  0  0  0
 10 35  1  0  0  0
 11 12  2  0  0  0
 11 36  1  0  0  0
 12 37  1  0  0  0
 13 14  1  0  0  0
 13 20  1  0  0  0
 13 22  1  0  0  0
 13 38  1  0  0  0
 14 18  1  0  0  0
 14 15  1  0  0  0
 15 16  1  0  0  0
 15 19  2  0  0  0
 16 17  1  0  0  0
 16 39  1  0  0  0
 16 40  1  0  0  0
 17 18  1  0  0  0
 17 26  1  0  0  0
 17 41  1  0  0  0
 18 42  1  0  0  0
 18 43  1  0  0  0
 20 21  1  0  0  0
 20 44  1  0  0  0
 20 45  1  0  0  0
 21 23  1  0  0  0
 21 24  1  0  0  0
 21 46  1  0  0  0
 22 23  1  0  0  0
 22 25  1  0  0  0
 22 47  1  0  0  0
 23 48  1  0  0  0
 23 49  1  0  0  0
 24 25  1  0  0  0
 24 50  1  0  0  0
 24 51  1  0  0  0
 25 52  1  0  0  0
 25 53  1  0  0  0
 26 27  1  0  0  0
 26 28  2  0  0  0
 27 54  1  0  0  0
M  END
> <s_m_entry_id>
8222

> <s_m_entry_name>
dock_pv.17

> <s_m_Source_Path>
/home/csk/Desktop/cluster/DUD-E-result/inha

> <s_m_Source_File>
dock_pv.maegz

> <i_m_Source_File_Index>
17

> <chembl_id>
CHEMBL217852

> <chembl_pref_name>
None

> <i_lp_mmshare_version>
53161

> <r_lp_tautomer_probability>
1

> <s_lp_Force_Field>
OPLS_2005

> <r_lp_Energy>
77.401718

> <b_lp_Chiralities_Consistent>
1

> <s_lp_Variant>
CHEMBL1849_lig36-8

> <s_i_glide_gridfile>
glide-grid_2h7l

> <i_i_glide_lignum>
73

> <i_i_glide_rotatable_bonds>
5

> <r_i_docking_score>
-8.76537944400194

> <r_i_glide_ligand_efficiency>
-0.313049265857212

> <r_i_glide_ligand_efficiency_sa>
-0.950601947299916

> <r_i_glide_ligand_efficiency_ln>
-2.02330693839923

> <r_i_glide_gscore>
-8.76537944400194

> <r_i_glide_lipo>
-4.45599953025808

> <r_i_glide_hbond>
0

> <r_i_glide_metal>
0

> <r_i_glide_rewards>
-2.40052839249806

> <r_i_glide_evdw>
-43.0772132873535

> <r_i_glide_ecoul>
-2.96289920806885

> <r_i_glide_erotb>
0.689444024332202

> <r_i_glide_esite>
0

> <r_i_glide_emodel>
-65.9386827307271

> <r_i_glide_energy>
-46.0401124954224

> <r_i_glide_einternal>
5.67858648300171

> <i_i_glide_confnum>
135

> <i_i_glide_posenum>
224

> <r_i_glide_eff_state_penalty>
0

> <s_user_duplicate_titles>
CHEMBL1849_lig36,360412

> <i_f3d_flags>
0

> <s_m_subgroup_title>
dock_pv

> <s_m_subgroupid>
dock_pv

> <b_m_subgroup_collapsed>
0

$$$$
CHEMBL1849_lig185
                    3D
 Schrodinger Suite 2021-1.
 43 45  0  0  1  0            999 V2000
   13.8837   31.9509   63.6162 C   0  0  0  0  0  0
   14.6043   33.0852   63.2344 C   0  0  0  0  0  0
   13.9954   34.0649   62.4472 C   0  0  0  0  0  0
   12.5515   31.7995   63.2280 C   0  0  0  0  0  0
   11.9459   32.7951   62.4579 C   0  0  0  0  0  0
   12.6662   33.9197   62.0631 C   0  0  0  0  0  0
   12.1053   34.8808   61.2296 N   0  0  0  0  0  0
   10.9260   34.7179   60.7595 C   0  0  0  0  0  0
   10.0937   33.6756   61.1514 N   0  0  0  0  0  0
   10.5041   32.6814   62.0280 C   0  0  0  0  0  0
    9.7579   31.8019   62.4607 O   0  0  0  0  0  0
    8.6452   33.6920   60.7407 C   0  0  0  0  0  0
    8.1587   32.4383   59.9859 C   0  0  0  0  0  0
    7.3445   31.6315   60.6916 N   0  0  0  0  0  0
    8.5040   32.2482   58.8201 O   0  0  0  0  0  0
    6.7349   30.4445   60.2601 C   0  0  0  0  0  0
    6.8484   29.3489   61.1239 C   0  0  0  0  0  0
    6.2044   28.1359   60.8469 C   0  0  0  0  0  0
    5.4427   28.0302   59.6773 C   0  0  0  0  0  0
    5.2967   29.1259   58.8283 C   0  0  0  0  0  0
    5.9230   30.3395   59.1109 C   0  0  0  0  0  0
   10.4908   35.6752   59.6787 C   0  0  0  0  0  0
    5.5899   31.6727   58.0522 Cl  0  0  0  0  0  0
    6.3131   26.9655   61.8329 C   0  0  0  0  0  0
    5.3913   26.0393   61.5588 F   0  0  0  0  0  0
    6.0372   27.4264   63.0544 F   0  0  0  0  0  0
    7.7043   26.3219   61.8197 C   0  0  0  0  0  0
   14.3607   31.1880   64.2141 H   0  0  0  0  0  0
   15.6384   33.1915   63.5307 H   0  0  0  0  0  0
   14.5539   34.9245   62.1123 H   0  0  0  0  0  0
   12.0046   30.9184   63.5377 H   0  0  0  0  0  0
    8.3773   34.5413   60.1156 H   0  0  0  0  0  0
    8.0186   33.8183   61.6221 H   0  0  0  0  0  0
    7.3871   31.7562   61.6927 H   0  0  0  0  0  0
    7.4375   29.4394   62.0266 H   0  0  0  0  0  0
    4.9300   27.1102   59.4353 H   0  0  0  0  0  0
    4.6617   29.0451   57.9587 H   0  0  0  0  0  0
   11.3040   36.3220   59.3926 H   0  0  0  0  0  0
   10.1626   35.1488   58.7822 H   0  0  0  0  0  0
    9.7041   36.3221   60.0283 H   0  0  0  0  0  0
    7.7498   25.4745   62.5034 H   0  0  0  0  0  0
    8.4740   27.0315   62.1216 H   0  0  0  0  0  0
    7.9652   25.9560   60.8281 H   0  0  0  0  0  0
  1  2  2  0  0  0
  1  4  1  0  0  0
  1 28  1  0  0  0
  2  3  1  0  0  0
  2 29  1  0  0  0
  3  6  2  0  0  0
  3 30  1  0  0  0
  4  5  2  0  0  0
  4 31  1  0  0  0
  5  6  1  0  0  0
  5 10  1  0  0  0
  6  7  1  0  0  0
  7  8  2  0  0  0
  8  9  1  0  0  0
  8 22  1  0  0  0
  9 10  1  0  0  0
  9 12  1  0  0  0
 10 11  2  0  0  0
 12 13  1  0  0  0
 12 32  1  0  0  0
 12 33  1  0  0  0
 13 14  1  0  0  0
 13 15  2  0  0  0
 14 16  1  0  0  0
 14 34  1  0  0  0
 16 17  2  0  0  0
 16 21  1  0  0  0
 17 18  1  0  0  0
 17 35  1  0  0  0
 18 19  2  0  0  0
 18 24  1  0  0  0
 19 20  1  0  0  0
 19 36  1  0  0  0
 20 21  2  0  0  0
 20 37  1  0  0  0
 21 23  1  0  0  0
 22 38  1  0  0  0
 22 39  1  0  0  0
 22 40  1  0  0  0
 24 25  1  0  0  0
 24 26  1  0  0  0
 24 27  1  0  0  0
 27 41  1  0  0  0
 27 42  1  0  0  0
 27 43  1  0  0  0
M  END
> <s_m_entry_id>
8223

> <s_m_entry_name>
dock_pv.18

> <s_m_Source_Path>
/home/csk/Desktop/cluster/DUD-E-result/inha

> <s_m_Source_File>
dock_pv.maegz

> <i_m_Source_File_Index>
18

> <chembl_id>
CHEMBL3331279

> <chembl_pref_name>
None

> <i_lp_mmshare_version>
53161

> <r_lp_tautomer_probability>
1

> <s_lp_Force_Field>
OPLS_2005

> <r_lp_Energy>
28.694145

> <b_lp_Chiralities_Consistent>
1

> <s_lp_Variant>
CHEMBL1849_lig185-1

> <s_i_glide_gridfile>
glide-grid_2h7l

> <i_i_glide_lignum>
252

> <i_i_glide_rotatable_bonds>
5

> <r_i_docking_score>
-8.72037219838509

> <r_i_glide_ligand_efficiency>
-0.322976748088337

> <r_i_glide_ligand_efficiency_sa>
-0.968930243200532

> <r_i_glide_ligand_efficiency_ln>
-2.02995888121239

> <r_i_glide_gscore>
-8.72037219838509

> <r_i_glide_lipo>
-3.89824816054664

> <r_i_glide_hbond>
0

> <r_i_glide_metal>
0

> <r_i_glide_rewards>
-2.88438051360833

> <r_i_glide_evdw>
-38.2941360473633

> <r_i_glide_ecoul>
-3.54423904418945

> <r_i_glide_erotb>
0.50859913476646

> <r_i_glide_esite>
0

> <r_i_glide_emodel>
-58.9105849143424

> <r_i_glide_energy>
-41.8383750915527

> <r_i_glide_einternal>
8.54164791107178

> <i_i_glide_confnum>
7

> <i_i_glide_posenum>
260

> <r_i_glide_eff_state_penalty>
0

> <s_user_duplicate_titles>
CHEMBL1849_lig185

> <i_f3d_flags>
0

> <s_m_subgroup_title>
dock_pv

> <s_m_subgroupid>
dock_pv

> <b_m_subgroup_collapsed>
0

$$$$
CHEMBL1849_lig70
                    3D
 Schrodinger Suite 2021-1.
 49 50  0  0  1  0            999 V2000
   10.1040   35.0428   59.2362 C   0  0  0  0  0  0
   10.4249   34.6677   60.5403 C   0  0  0  0  0  0
    9.7392   33.5972   61.1136 C   0  0  0  0  0  0
    8.7205   32.9457   60.4272 C   0  0  0  0  0  0
    8.3934   33.3171   59.1135 C   0  0  0  0  0  0
    9.1233   34.3548   58.5227 C   0  0  0  0  0  0
    7.3744   32.7197   58.3882 O   0  0  0  0  0  0
    6.7932   31.5656   58.8548 C   0  0  0  0  0  0
    7.4121   30.3408   58.6182 C   0  0  0  0  0  0
    6.9035   29.1860   59.1979 C   0  0  0  0  0  0
    5.7646   29.2530   60.0170 C   0  0  0  0  0  0
    5.1243   30.4781   60.2190 C   0  0  0  0  0  0
    5.6323   31.6334   59.6272 C   0  0  0  0  0  0
    8.9040   34.7220   57.2280 O   0  0  0  0  0  0
   11.4920   35.4311   61.3173 C   0  0  0  0  0  0
   12.8175   34.6705   61.5543 C   0  0  0  0  0  0
   12.7673   33.6574   62.7171 C   0  0  0  0  0  0
   14.0022   32.7571   62.8968 C   0  0  0  0  0  0
   15.3471   33.4634   63.1122 C   0  0  0  0  0  0
   15.5938   33.9218   64.5542 C   0  0  0  0  0  0
    5.2870   28.1378   60.7305 N   0  0  0  0  0  0
    5.3754   26.8436   60.3512 C   0  0  0  0  0  0
    5.7039   26.4616   59.2279 O   0  0  0  0  0  0
    5.0576   25.8816   61.4208 C   0  0  0  0  0  0
    4.3386   26.1330   62.3900 O   0  0  0  0  0  0
    5.7040   24.6890   61.2277 O   0  0  0  0  0  0
   10.6275   35.8608   58.7668 H   0  0  0  0  0  0
    9.9513   33.2823   62.1185 H   0  0  0  0  0  0
    8.1934   32.1499   60.9333 H   0  0  0  0  0  0
    8.3145   30.2909   58.0278 H   0  0  0  0  0  0
    7.4346   28.2584   59.0457 H   0  0  0  0  0  0
    4.2460   30.5475   60.8465 H   0  0  0  0  0  0
    5.1564   32.5864   59.8042 H   0  0  0  0  0  0
    8.2345   34.2014   56.7634 H   0  0  0  0  0  0
   11.7042   36.3413   60.7648 H   0  0  0  0  0  0
   11.0758   35.7845   62.2584 H   0  0  0  0  0  0
   13.1426   34.1954   60.6292 H   0  0  0  0  0  0
   13.5853   35.4094   61.7862 H   0  0  0  0  0  0
   12.5660   34.2091   63.6282 H   0  0  0  0  0  0
   11.9309   32.9788   62.5896 H   0  0  0  0  0  0
   13.8219   32.0662   63.7226 H   0  0  0  0  0  0
   14.1012   32.1136   62.0280 H   0  0  0  0  0  0
   16.1102   32.7411   62.8397 H   0  0  0  0  0  0
   15.4756   34.2941   62.4193 H   0  0  0  0  0  0
   16.6066   34.3067   64.6767 H   0  0  0  0  0  0
   14.9042   34.7177   64.8311 H   0  0  0  0  0  0
   15.4745   33.0961   65.2548 H   0  0  0  0  0  0
    4.8925   28.3217   61.6421 H   0  0  0  0  0  0
    6.2678   24.7209   60.4431 H   0  0  0  0  0  0
  1  2  2  0  0  0
  1  6  1  0  0  0
  1 27  1  0  0  0
  2 15  1  0  0  0
  2  3  1  0  0  0
  3  4  2  0  0  0
  3 28  1  0  0  0
  4  5  1  0  0  0
  4 29  1  0  0  0
  5  7  1  0  0  0
  5  6  2  0  0  0
  6 14  1  0  0  0
  7  8  1  0  0  0
  8 13  1  0  0  0
  8  9  2  0  0  0
  9 10  1  0  0  0
  9 30  1  0  0  0
 10 11  2  0  0  0
 10 31  1  0  0  0
 11 21  1  0  0  0
 11 12  1  0  0  0
 12 13  2  0  0  0
 12 32  1  0  0  0
 13 33  1  0  0  0
 14 34  1  0  0  0
 15 16  1  0  0  0
 15 35  1  0  0  0
 15 36  1  0  0  0
 16 17  1  0  0  0
 16 37  1  0  0  0
 16 38  1  0  0  0
 17 18  1  0  0  0
 17 39  1  0  0  0
 17 40  1  0  0  0
 18 19  1  0  0  0
 18 41  1  0  0  0
 18 42  1  0  0  0
 19 20  1  0  0  0
 19 43  1  0  0  0
 19 44  1  0  0  0
 20 45  1  0  0  0
 20 46  1  0  0  0
 20 47  1  0  0  0
 21 22  1  0  0  0
 21 48  1  0  0  0
 22 23  2  0  0  0
 22 24  1  0  0  0
 24 25  2  0  0  0
 24 26  1  0  0  0
 26 49  1  0  0  0
M  END
> <s_m_entry_id>
8224

> <s_m_entry_name>
dock_pv.19

> <s_m_Source_Path>
/home/csk/Desktop/cluster/DUD-E-result/inha

> <s_m_Source_File>
dock_pv.maegz

> <i_m_Source_File_Index>
19

> <chembl_id>
CHEMBL262343

> <chembl_pref_name>
None

> <i_lp_mmshare_version>
53161

> <r_lp_tautomer_probability>
0.999999999999776

> <s_lp_Force_Field>
OPLS_2005

> <r_lp_Energy>
21.182691

> <b_lp_Chiralities_Consistent>
1

> <s_lp_Variant>
CHEMBL1849_lig70-1

> <s_i_glide_gridfile>
glide-grid_2h7l

> <i_i_glide_lignum>
120

> <i_i_glide_rotatable_bonds>
12

> <r_i_docking_score>
-8.56943816039023

> <r_i_glide_ligand_efficiency>
-0.329593775399624

> <r_i_glide_ligand_efficiency_sa>
-0.976420262732505

> <r_i_glide_ligand_efficiency_ln>
-2.01250443334758

> <r_i_glide_gscore>
-8.56943816039023

> <r_i_glide_lipo>
-4.31311409518174

> <r_i_glide_hbond>
-0.288

> <r_i_glide_metal>
0

> <r_i_glide_rewards>
-2.04670301694947

> <r_i_glide_evdw>
-39.2003440856934

> <r_i_glide_ecoul>
-8.73622512817383

> <r_i_glide_erotb>
1.34882992525172

> <r_i_glide_esite>
0

> <r_i_glide_emodel>
-68.7809055745041

> <r_i_glide_energy>
-47.9365692138672

> <r_i_glide_einternal>
10.6820058822632

> <i_i_glide_confnum>
148

> <i_i_glide_posenum>
195

> <r_i_glide_eff_state_penalty>
0

> <s_user_duplicate_titles>
CHEMBL1849_lig70,428282

> <i_f3d_flags>
0

> <s_m_subgroup_title>
dock_pv

> <s_m_subgroupid>
dock_pv

> <b_m_subgroup_collapsed>
0

$$$$
CHEMBL1849_lig35
                    3D
 Schrodinger Suite 2021-1.
 37 39  0  0  1  0            999 V2000
   10.1035   33.1653   61.4450 N   0  0  0  0  0  0
   11.3868   33.3410   61.9762 C   0  0  0  0  0  0
   11.8267   32.3229   62.8279 C   0  0  0  0  0  0
   13.1577   32.2762   63.2307 C   0  0  0  0  0  0
   14.0376   33.2946   62.8708 C   0  0  0  0  0  0
   13.5868   34.3503   62.0813 C   0  0  0  0  0  0
   12.2661   34.3790   61.6318 C   0  0  0  0  0  0
   13.7042   30.9388   64.1693 Cl  0  0  0  0  0  0
    6.1953   30.0101   59.8651 C   0  0  0  0  0  0
    6.8422   31.2624   59.6447 N   0  0  0  0  0  0
    6.9730   31.8660   58.4270 C   0  0  0  0  0  0
    7.8651   33.0938   58.5962 C   0  0  0  0  0  0
    8.0277   33.3050   60.0853 C   0  0  1  0  0  0
    7.6460   31.9463   60.6746 C   0  0  0  0  0  0
    6.5038   31.5235   57.3389 O   0  0  0  0  0  0
    5.1746   29.5247   59.0229 C   0  0  0  0  0  0
    4.5892   28.2833   59.2509 C   0  0  0  0  0  0
    5.0066   27.5138   60.3304 C   0  0  0  0  0  0
    5.9962   27.9823   61.1899 C   0  0  0  0  0  0
    6.5803   29.2259   60.9628 C   0  0  0  0  0  0
    9.4340   33.8355   60.4758 C   0  0  0  0  0  0
    9.8696   34.8256   59.8901 O   0  0  0  0  0  0
    9.5953   32.4070   61.8698 H   0  0  0  0  0  0
   11.1672   31.5136   63.1062 H   0  0  0  0  0  0
   15.0680   33.2606   63.1953 H   0  0  0  0  0  0
   14.2757   35.1258   61.7876 H   0  0  0  0  0  0
   11.9666   35.1878   60.9835 H   0  0  0  0  0  0
    7.3102   33.9235   58.1629 H   0  0  0  0  0  0
    8.7997   32.9983   58.0392 H   0  0  0  0  0  0
    7.3433   34.0698   60.4596 H   0  0  0  0  0  0
    8.5079   31.2929   60.8054 H   0  0  0  0  0  0
    7.0985   32.0302   61.6158 H   0  0  0  0  0  0
    4.8038   30.0965   58.1874 H   0  0  0  0  0  0
    3.8086   27.9252   58.5953 H   0  0  0  0  0  0
    4.5545   26.5491   60.5072 H   0  0  0  0  0  0
    6.3134   27.3818   62.0282 H   0  0  0  0  0  0
    7.3537   29.5517   61.6416 H   0  0  0  0  0  0
  1  2  1  0  0  0
  1 21  1  0  0  0
  1 23  1  0  0  0
  2  7  2  0  0  0
  2  3  1  0  0  0
  3  4  2  0  0  0
  3 24  1  0  0  0
  4  8  1  0  0  0
  4  5  1  0  0  0
  5  6  2  0  0  0
  5 25  1  0  0  0
  6  7  1  0  0  0
  6 26  1  0  0  0
  7 27  1  0  0  0
  9 10  1  0  0  0
  9 16  2  0  0  0
  9 20  1  0  0  0
 10 14  1  0  0  0
 10 11  1  0  0  0
 11 12  1  0  0  0
 11 15  2  0  0  0
 12 13  1  0  0  0
 12 28  1  0  0  0
 12 29  1  0  0  0
 13 14  1  0  0  0
 13 21  1  0  0  0
 13 30  1  0  0  0
 14 31  1  0  0  0
 14 32  1  0  0  0
 16 17  1  0  0  0
 16 33  1  0  0  0
 17 18  2  0  0  0
 17 34  1  0  0  0
 18 19  1  0  0  0
 18 35  1  0  0  0
 19 20  2  0  0  0
 19 36  1  0  0  0
 20 37  1  0  0  0
 21 22  2  0  0  0
M  END
> <s_m_entry_id>
8225

> <s_m_entry_name>
dock_pv.20

> <s_m_Source_Path>
/home/csk/Desktop/cluster/DUD-E-result/inha

> <s_m_Source_File>
dock_pv.maegz

> <i_m_Source_File_Index>
20

> <chembl_id>
CHEMBL216642

> <chembl_pref_name>
None

> <i_lp_mmshare_version>
53161

> <r_lp_tautomer_probability>
1

> <s_lp_Force_Field>
OPLS_2005

> <r_lp_Energy>
33.617142

> <b_lp_Chiralities_Consistent>
1

> <s_lp_Variant>
CHEMBL1849_lig35-2

> <s_i_glide_gridfile>
glide-grid_2h7l

> <i_i_glide_lignum>
65

> <i_i_glide_rotatable_bonds>
4

> <r_i_docking_score>
-8.55065794192996

> <r_i_glide_ligand_efficiency>
-0.388666270087725

> <r_i_glide_ligand_efficiency_sa>
-1.08905817416283

> <r_i_glide_ligand_efficiency_ln>
-2.09009269383425

> <r_i_glide_gscore>
-8.55065794192996

> <r_i_glide_lipo>
-3.87066083592161

> <r_i_glide_hbond>
-0.271281180076234

> <r_i_glide_metal>
0

> <r_i_glide_rewards>
-2.79344816676266

> <r_i_glide_evdw>
-39.2839889526367

> <r_i_glide_ecoul>
-2.67809748649597

> <r_i_glide_erotb>
0.75064631143678

> <r_i_glide_esite>
0

> <r_i_glide_emodel>
-61.5064356874989

> <r_i_glide_energy>
-41.9620864391327

> <r_i_glide_einternal>
2.87736368179321

> <i_i_glide_confnum>
28

> <i_i_glide_posenum>
166

> <r_i_glide_eff_state_penalty>
0

> <s_user_duplicate_titles>
CHEMBL1849_lig35

> <i_f3d_flags>
0

> <s_m_subgroup_title>
dock_pv

> <s_m_subgroupid>
dock_pv

> <b_m_subgroup_collapsed>
0

$$$$
CHEMBL1849_lig186
                    3D
 Schrodinger Suite 2021-1.
 43 45  0  0  1  0            999 V2000
   13.2169   31.6454   63.6279 C   0  0  0  0  0  0
   14.0988   32.6927   63.3466 C   0  0  0  0  0  0
   13.6654   33.7745   62.5759 C   0  0  0  0  0  0
   11.9084   31.6672   63.1482 C   0  0  0  0  0  0
   11.5031   32.7234   62.3313 C   0  0  0  0  0  0
   12.3708   33.7790   62.0592 C   0  0  0  0  0  0
   11.9944   34.8264   61.2288 N   0  0  0  0  0  0
   10.8574   34.8062   60.6391 C   0  0  0  0  0  0
    9.9124   33.8016   60.8281 N   0  0  0  0  0  0
   10.1313   32.7380   61.6970 C   0  0  0  0  0  0
    9.2722   31.9218   62.0268 O   0  0  0  0  0  0
    8.5354   33.9816   60.2449 C   0  0  0  0  0  0
    7.9462   32.7431   59.5432 C   0  0  0  0  0  0
    7.0089   32.0888   60.2506 N   0  0  0  0  0  0
    8.3550   32.4145   58.4291 O   0  0  0  0  0  0
    6.4164   30.8716   59.9059 C   0  0  0  0  0  0
    6.5216   29.8472   60.8525 C   0  0  0  0  0  0
    5.9230   28.6011   60.6352 C   0  0  0  0  0  0
    5.2000   28.3972   59.4548 C   0  0  0  0  0  0
    5.0741   29.4221   58.5199 C   0  0  0  0  0  0
    5.6629   30.6664   58.7347 C   0  0  0  0  0  0
   10.5890   35.9252   59.6604 C   0  0  0  0  0  0
    5.3751   31.9138   57.5662 Cl  0  0  0  0  0  0
    6.0414   27.4996   61.6920 C   0  0  0  0  0  0
    7.3039   27.4536   62.1174 F   0  0  0  0  0  0
    5.7750   26.3094   61.1505 F   0  0  0  0  0  0
    5.0943   27.7534   62.8725 C   0  0  0  0  0  0
   13.7040   30.3223   64.6064 Cl  0  0  0  0  0  0
   15.1083   32.6695   63.7334 H   0  0  0  0  0  0
   14.3379   34.5878   62.3494 H   0  0  0  0  0  0
   11.2385   30.8494   63.3796 H   0  0  0  0  0  0
    8.4899   34.7389   59.4662 H   0  0  0  0  0  0
    7.8583   34.3366   61.0242 H   0  0  0  0  0  0
    6.9897   32.3124   61.2344 H   0  0  0  0  0  0
    7.0824   30.0158   61.7626 H   0  0  0  0  0  0
    4.7174   27.4497   59.2620 H   0  0  0  0  0  0
    4.4942   29.2542   57.6281 H   0  0  0  0  0  0
   11.3293   36.7048   59.7090 H   0  0  0  0  0  0
   10.5125   35.5626   58.6359 H   0  0  0  0  0  0
    9.7040   36.4580   59.9254 H   0  0  0  0  0  0
    5.1878   26.9660   63.6206 H   0  0  0  0  0  0
    4.0550   27.7790   62.5456 H   0  0  0  0  0  0
    5.3152   28.7019   63.3627 H   0  0  0  0  0  0
  1  2  2  0  0  0
  1  4  1  0  0  0
  1 28  1  0  0  0
  2  3  1  0  0  0
  2 29  1  0  0  0
  3  6  2  0  0  0
  3 30  1  0  0  0
  4  5  2  0  0  0
  4 31  1  0  0  0
  5  6  1  0  0  0
  5 10  1  0  0  0
  6  7  1  0  0  0
  7  8  2  0  0  0
  8  9  1  0  0  0
  8 22  1  0  0  0
  9 10  1  0  0  0
  9 12  1  0  0  0
 10 11  2  0  0  0
 12 13  1  0  0  0
 12 32  1  0  0  0
 12 33  1  0  0  0
 13 14  1  0  0  0
 13 15  2  0  0  0
 14 16  1  0  0  0
 14 34  1  0  0  0
 16 17  2  0  0  0
 16 21  1  0  0  0
 17 18  1  0  0  0
 17 35  1  0  0  0
 18 19  2  0  0  0
 18 24  1  0  0  0
 19 20  1  0  0  0
 19 36  1  0  0  0
 20 21  2  0  0  0
 20 37  1  0  0  0
 21 23  1  0  0  0
 22 38  1  0  0  0
 22 39  1  0  0  0
 22 40  1  0  0  0
 24 25  1  0  0  0
 24 26  1  0  0  0
 24 27  1  0  0  0
 27 41  1  0  0  0
 27 42  1  0  0  0
 27 43  1  0  0  0
M  END
> <s_m_entry_id>
8226

> <s_m_entry_name>
dock_pv.21

> <s_m_Source_Path>
/home/csk/Desktop/cluster/DUD-E-result/inha

> <s_m_Source_File>
dock_pv.maegz

> <i_m_Source_File_Index>
21

> <chembl_id>
CHEMBL3331280

> <chembl_pref_name>
None

> <i_lp_mmshare_version>
53161

> <r_lp_tautomer_probability>
1

> <s_lp_Force_Field>
OPLS_2005

> <r_lp_Energy>
27.477455

> <b_lp_Chiralities_Consistent>
1

> <s_lp_Variant>
CHEMBL1849_lig186-1

> <s_i_glide_gridfile>
glide-grid_2h7l

> <i_i_glide_lignum>
253

> <i_i_glide_rotatable_bonds>
5

> <r_i_docking_score>
-8.4702128964607

> <r_i_glide_ligand_efficiency>
-0.302507603445025

> <r_i_glide_ligand_efficiency_sa>
-0.918591251509388

> <r_i_glide_ligand_efficiency_ln>
-1.9551738327603

> <r_i_glide_gscore>
-8.4702128964607

> <r_i_glide_lipo>
-3.98899472279482

> <r_i_glide_hbond>
0

> <r_i_glide_metal>
0

> <r_i_glide_rewards>
-2.62155901051056

> <r_i_glide_evdw>
-37.817741394043

> <r_i_glide_ecoul>
-2.70447731018066

> <r_i_glide_erotb>
0.436899503073922

> <r_i_glide_esite>
0

> <r_i_glide_emodel>
-56.8740662368527

> <r_i_glide_energy>
-40.5222187042236

> <r_i_glide_einternal>
9.11282157897949

> <i_i_glide_confnum>
7

> <i_i_glide_posenum>
192

> <r_i_glide_eff_state_penalty>
0

> <s_user_duplicate_titles>
CHEMBL1849_lig186

> <i_f3d_flags>
0

> <s_m_subgroup_title>
dock_pv

> <s_m_subgroupid>
dock_pv

> <b_m_subgroup_collapsed>
0

$$$$
CHEMBL1849_lig111
                    3D
 Schrodinger Suite 2021-1.
 45 48  0  0  1  0            999 V2000
    3.6803   29.4671   59.7618 C   0  0  1  0  0  0
    2.6997   29.9988   60.8280 C   0  0  0  0  0  0
    2.9323   29.4100   58.5581 O   0  0  0  0  0  0
   13.3040   32.0962   63.2280 C   0  0  0  0  0  0
   13.7229   33.3738   62.8686 C   0  0  0  0  0  0
   12.8238   34.2711   62.2957 C   0  0  0  0  0  0
   11.4987   33.8963   62.0280 C   0  0  0  0  0  0
   11.0843   32.6087   62.4124 C   0  0  0  0  0  0
   11.9800   31.7224   63.0117 C   0  0  0  0  0  0
   10.5381   34.9185   61.3883 C   0  0  0  0  0  0
    9.9048   34.5623   60.1352 N   0  0  0  0  0  0
    8.8852   33.6942   60.1141 N   0  0  0  0  0  0
    8.4584   33.6786   58.8719 C   0  0  0  0  0  0
    9.2126   34.5452   58.0748 C   0  0  0  0  0  0
   10.1340   35.1222   58.9156 C   0  0  0  0  0  0
    7.3999   32.9367   58.4280 N   0  0  0  0  0  0
    6.5816   32.0559   59.0870 C   0  0  0  0  0  0
    5.2906   31.3283   58.1852 S   0  0  0  0  0  0
    4.8488   30.4550   59.6320 C   0  0  0  0  0  0
    5.6361   30.7578   60.6453 N   0  0  0  0  0  0
    6.6357   31.6705   60.3360 N   0  0  0  0  0  0
    4.1585   28.0444   60.0797 C   0  0  0  0  0  0
    3.4168   27.1703   60.7267 N   0  0  0  0  0  0
    4.0190   26.0166   60.9399 C   0  0  0  0  0  0
    5.3040   25.9219   60.4281 C   0  0  0  0  0  0
    5.7203   27.4049   59.6365 S   0  0  0  0  0  0
    3.2386   24.9725   61.7033 C   0  0  0  0  0  0
    9.8206   32.1856   62.2012 F   0  0  0  0  0  0
   13.2487   35.5220   62.0280 F   0  0  0  0  0  0
    3.1187   29.8914   61.8263 H   0  0  0  0  0  0
    2.4965   31.0595   60.6763 H   0  0  0  0  0  0
    1.7446   29.4714   60.8149 H   0  0  0  0  0  0
    3.4925   29.1222   57.8308 H   0  0  0  0  0  0
   13.9981   31.4052   63.6848 H   0  0  0  0  0  0
   14.7414   33.6815   63.0561 H   0  0  0  0  0  0
   11.6437   30.7373   63.2990 H   0  0  0  0  0  0
   11.0449   35.8727   61.2367 H   0  0  0  0  0  0
    9.7059   35.1618   62.0280 H   0  0  0  0  0  0
    9.0885   34.7325   57.0191 H   0  0  0  0  0  0
   10.9040   35.8657   58.7872 H   0  0  0  0  0  0
    7.1727   33.1096   57.4648 H   0  0  0  0  0  0
    5.9969   25.0948   60.4710 H   0  0  0  0  0  0
    3.7853   24.0322   61.7785 H   0  0  0  0  0  0
    2.2833   24.7474   61.2280 H   0  0  0  0  0  0
    3.0226   25.2966   62.7218 H   0  0  0  0  0  0
  1  2  1  0  0  0
  1  3  1  0  0  0
  1 19  1  0  0  0
  1 22  1  0  0  0
  2 30  1  0  0  0
  2 31  1  0  0  0
  2 32  1  0  0  0
  3 33  1  0  0  0
  4  5  2  0  0  0
  4  9  1  0  0  0
  4 34  1  0  0  0
  5  6  1  0  0  0
  5 35  1  0  0  0
  6  7  2  0  0  0
  6 29  1  0  0  0
  7  8  1  0  0  0
  7 10  1  0  0  0
  8  9  2  0  0  0
  8 28  1  0  0  0
  9 36  1  0  0  0
 10 11  1  0  0  0
 10 37  1  0  0  0
 10 38  1  0  0  0
 11 12  1  0  0  0
 11 15  1  0  0  0
 12 13  2  0  0  0
 13 14  1  0  0  0
 13 16  1  0  0  0
 14 15  2  0  0  0
 14 39  1  0  0  0
 15 40  1  0  0  0
 16 17  1  0  0  0
 16 41  1  0  0  0
 17 18  1  0  0  0
 17 21  2  0  0  0
 18 19  1  0  0  0
 19 20  2  0  0  0
 20 21  1  0  0  0
 22 23  2  0  0  0
 22 26  1  0  0  0
 23 24  1  0  0  0
 24 25  2  0  0  0
 24 27  1  0  0  0
 25 26  1  0  0  0
 25 42  1  0  0  0
 27 43  1  0  0  0
 27 44  1  0  0  0
 27 45  1  0  0  0
M  END
> <s_m_entry_id>
8227

> <s_m_entry_name>
dock_pv.22

> <s_m_Source_Path>
/home/csk/Desktop/cluster/DUD-E-result/inha

> <s_m_Source_File>
dock_pv.maegz

> <i_m_Source_File_Index>
22

> <chembl_id>
CHEMBL3088172

> <chembl_pref_name>
None

> <i_lp_mmshare_version>
53161

> <r_lp_tautomer_probability>
1

> <s_lp_Force_Field>
OPLS_2005

> <r_lp_Energy>
4.030331

> <b_lp_Chiralities_Consistent>
1

> <s_lp_Variant>
CHEMBL1849_lig111-1

> <s_i_glide_gridfile>
glide-grid_2h7l

> <i_i_glide_lignum>
171

> <i_i_glide_rotatable_bonds>
7

> <r_i_docking_score>
-8.44714285521674

> <r_i_glide_ligand_efficiency>
-0.291280788110922

> <r_i_glide_ligand_efficiency_sa>
-0.894906865307748

> <r_i_glide_ligand_efficiency_ln>
-1.9341815127836

> <r_i_glide_gscore>
-8.44714285521674

> <r_i_glide_lipo>
-3.76993279560948

> <r_i_glide_hbond>
-0.536254175090658

> <r_i_glide_metal>
0

> <r_i_glide_rewards>
-2.10353256180296

> <r_i_glide_evdw>
-45.3671073913574

> <r_i_glide_ecoul>
-2.68043160438538

> <r_i_glide_erotb>
0.632996787512037

> <r_i_glide_esite>
0

> <r_i_glide_emodel>
-67.1699837340796

> <r_i_glide_energy>
-48.0475389957428

> <r_i_glide_einternal>
5.22444200515747

> <i_i_glide_confnum>
49

> <i_i_glide_posenum>
333

> <r_i_glide_eff_state_penalty>
0

> <s_user_duplicate_titles>
CHEMBL1849_lig111,CHEMBL1849_lig110

> <i_f3d_flags>
0

> <s_m_subgroup_title>
dock_pv

> <s_m_subgroupid>
dock_pv

> <b_m_subgroup_collapsed>
0

$$$$
CHEMBL1849_lig110
                    3D
 Schrodinger Suite 2021-1.
 45 48  0  0  1  0            999 V2000
   13.1459   32.0953   63.2281 C   0  0  0  0  0  0
   13.6078   33.3621   62.8828 C   0  0  0  0  0  0
   12.7495   34.2811   62.2812 C   0  0  0  0  0  0
   11.4251   33.9379   61.9715 C   0  0  0  0  0  0
   10.9725   32.6528   62.3179 C   0  0  0  0  0  0
   11.8255   31.7482   62.9515 C   0  0  0  0  0  0
   10.4981   34.9971   61.3446 C   0  0  0  0  0  0
    9.8260   34.6560   60.1033 N   0  0  0  0  0  0
    8.7642   33.8413   60.1069 N   0  0  0  0  0  0
    8.3806   33.7430   58.8541 C   0  0  0  0  0  0
    9.1796   34.5365   58.0284 C   0  0  0  0  0  0
   10.1041   35.1270   58.8564 C   0  0  0  0  0  0
    9.7128   32.2531   62.0464 F   0  0  0  0  0  0
   13.2111   35.5222   62.0273 F   0  0  0  0  0  0
    7.3475   32.9544   58.4280 N   0  0  0  0  0  0
    3.5692   29.7366   60.1292 C   0  0  2  0  0  0
    2.9524   29.1460   58.8460 C   0  0  0  0  0  0
    2.4805   30.3218   60.8280 O   0  0  0  0  0  0
    6.3853   32.3081   59.1604 C   0  0  0  0  0  0
    5.3601   31.1779   58.3377 S   0  0  0  0  0  0
    4.6085   30.8322   59.8757 C   0  0  0  0  0  0
    5.0982   31.5842   60.8412 N   0  0  0  0  0  0
    6.1214   32.4293   60.4365 N   0  0  0  0  0  0
    4.2020   28.6046   60.9582 C   0  0  0  0  0  0
    5.7264   27.8549   60.5468 S   0  0  0  0  0  0
    5.5571   26.8120   61.9205 C   0  0  0  0  0  0
    4.3685   27.1082   62.5742 C   0  0  0  0  0  0
    3.6498   28.0721   62.0281 N   0  0  0  0  0  0
    3.8067   26.4670   63.8214 C   0  0  0  0  0  0
   13.8055   31.3900   63.7130 H   0  0  0  0  0  0
   14.6252   33.6472   63.1074 H   0  0  0  0  0  0
   11.4580   30.7703   63.2259 H   0  0  0  0  0  0
   11.0381   35.9293   61.1728 H   0  0  0  0  0  0
    9.7062   35.2686   62.0279 H   0  0  0  0  0  0
    9.0945   34.6557   56.9590 H   0  0  0  0  0  0
   10.9037   35.8263   58.6957 H   0  0  0  0  0  0
    7.2682   32.8889   57.4301 H   0  0  0  0  0  0
    3.6981   28.6396   58.2330 H   0  0  0  0  0  0
    2.1732   28.4173   59.0729 H   0  0  0  0  0  0
    2.5043   29.9216   58.2319 H   0  0  0  0  0  0
    1.9616   30.8915   60.2323 H   0  0  0  0  0  0
    6.3069   26.0736   62.1643 H   0  0  0  0  0  0
    4.4477   25.6653   64.1906 H   0  0  0  0  0  0
    2.8220   26.0324   63.6470 H   0  0  0  0  0  0
    3.7028   27.1883   64.6332 H   0  0  0  0  0  0
  1  2  2  0  0  0
  1  6  1  0  0  0
  1 30  1  0  0  0
  2  3  1  0  0  0
  2 31  1  0  0  0
  3  4  2  0  0  0
  3 14  1  0  0  0
  4  5  1  0  0  0
  4  7  1  0  0  0
  5  6  2  0  0  0
  5 13  1  0  0  0
  6 32  1  0  0  0
  7  8  1  0  0  0
  7 33  1  0  0  0
  7 34  1  0  0  0
  8  9  1  0  0  0
  8 12  1  0  0  0
  9 10  2  0  0  0
 10 11  1  0  0  0
 10 15  1  0  0  0
 11 12  2  0  0  0
 11 35  1  0  0  0
 12 36  1  0  0  0
 15 19  1  0  0  0
 15 37  1  0  0  0
 16 17  1  0  0  0
 16 18  1  0  0  0
 16 21  1  0  0  0
 16 24  1  0  0  0
 17 38  1  0  0  0
 17 39  1  0  0  0
 17 40  1  0  0  0
 18 41  1  0  0  0
 19 20  1  0  0  0
 19 23  2  0  0  0
 20 21  1  0  0  0
 21 22  2  0  0  0
 22 23  1  0  0  0
 24 25  1  0  0  0
 24 28  2  0  0  0
 25 26  1  0  0  0
 26 27  2  0  0  0
 26 42  1  0  0  0
 27 28  1  0  0  0
 27 29  1  0  0  0
 29 43  1  0  0  0
 29 44  1  0  0  0
 29 45  1  0  0  0
M  END
> <s_m_entry_id>
8228

> <s_m_entry_name>
dock_pv.23

> <s_m_Source_Path>
/home/csk/Desktop/cluster/DUD-E-result/inha

> <s_m_Source_File>
dock_pv.maegz

> <i_m_Source_File_Index>
23

> <chembl_id>
CHEMBL3088173

> <chembl_pref_name>
None

> <i_lp_mmshare_version>
53161

> <r_lp_tautomer_probability>
1

> <s_lp_Force_Field>
OPLS_2005

> <r_lp_Energy>
3.455618

> <b_lp_Chiralities_Consistent>
1

> <s_lp_Variant>
CHEMBL1849_lig110-1

> <s_i_glide_gridfile>
glide-grid_2h7l

> <i_i_glide_lignum>
169

> <i_i_glide_rotatable_bonds>
7

> <r_i_docking_score>
-8.38933630574354

> <r_i_glide_ligand_efficiency>
-0.289287458818743

> <r_i_glide_ligand_efficiency_sa>
-0.888782726191126

> <r_i_glide_ligand_efficiency_ln>
-1.92094527880185

> <r_i_glide_gscore>
-8.38933630574354

> <r_i_glide_lipo>
-3.61758106390752

> <r_i_glide_hbond>
-0.447042253569019

> <r_i_glide_metal>
0

> <r_i_glide_rewards>
-2.08162110886314

> <r_i_glide_evdw>
-44.6404037475586

> <r_i_glide_ecoul>
-4.29378986358643

> <r_i_glide_erotb>
0.632996787512036

> <r_i_glide_esite>
0

> <r_i_glide_emodel>
-71.440358751663

> <r_i_glide_energy>
-48.934193611145

> <r_i_glide_einternal>
6.23793268203735

> <i_i_glide_confnum>
63

> <i_i_glide_posenum>
359

> <r_i_glide_eff_state_penalty>
0

> <s_user_duplicate_titles>
CHEMBL1849_lig110

> <i_f3d_flags>
0

> <s_m_subgroup_title>
dock_pv

> <s_m_subgroupid>
dock_pv

> <b_m_subgroup_collapsed>
0

$$$$
CHEMBL1849_lig191
                    3D
 Schrodinger Suite 2021-1.
 42 45  0  0  1  0            999 V2000
    5.6132   27.0104   63.6873 C   0  0  0  0  0  0
    5.9504   25.9652   62.8273 C   0  0  0  0  0  0
    6.2454   26.2293   61.4887 C   0  0  0  0  0  0
    5.5730   28.3219   63.2100 C   0  0  0  0  0  0
    5.8944   28.5839   61.8717 C   0  0  0  0  0  0
    6.2185   27.5379   61.0103 C   0  0  0  0  0  0
    6.5043   27.7624   59.6600 N   0  0  0  0  0  0
    6.5224   28.9574   59.1972 C   0  0  0  0  0  0
    6.2050   30.0686   59.9721 N   0  0  0  0  0  0
    5.9226   29.9999   61.3280 C   0  0  0  0  0  0
    5.7077   30.9920   62.0280 O   0  0  0  0  0  0
    6.0334   31.4175   59.3506 C   0  0  0  0  0  0
    7.3297   32.2489   59.3347 C   0  0  0  0  0  0
    7.4675   33.1823   60.2856 N   0  0  0  0  0  0
    8.1382   32.1055   58.4231 O   0  0  0  0  0  0
    8.4846   34.2411   60.2544 C   0  0  0  0  0  0
    9.8258   33.9159   60.8869 C   0  0  0  0  0  0
   11.0961   35.1222   60.9316 S   0  0  0  0  0  0
   10.0965   32.8008   61.5211 N   0  0  0  0  0  0
    6.9038   29.1259   57.7347 C   0  0  0  0  0  0
    5.2638   26.6853   65.3470 Cl  0  0  0  0  0  0
   11.3079   32.8387   62.1214 C   0  0  0  0  0  0
   12.0528   34.0271   61.9128 C   0  0  0  0  0  0
   13.3494   34.1769   62.4257 C   0  0  0  0  0  0
   13.9004   33.1011   63.1245 C   0  0  0  0  0  0
   13.1809   31.9243   63.3265 C   0  0  0  0  0  0
   11.8715   31.7862   62.8566 C   0  0  0  0  0  0
    5.9844   24.9505   63.1963 H   0  0  0  0  0  0
    6.5040   25.4196   60.8280 H   0  0  0  0  0  0
    5.3051   29.1204   63.8902 H   0  0  0  0  0  0
    5.6218   31.3546   58.3419 H   0  0  0  0  0  0
    5.2584   31.9886   59.8649 H   0  0  0  0  0  0
    6.8226   33.1847   61.0638 H   0  0  0  0  0  0
    8.6181   34.6092   59.2349 H   0  0  0  0  0  0
    8.0695   35.0821   60.8060 H   0  0  0  0  0  0
    7.2794   28.2039   57.2966 H   0  0  0  0  0  0
    6.0585   29.4644   57.1383 H   0  0  0  0  0  0
    7.7113   29.8430   57.6252 H   0  0  0  0  0  0
   13.9163   35.0813   62.2611 H   0  0  0  0  0  0
   14.9063   33.1752   63.5141 H   0  0  0  0  0  0
   13.6401   31.1140   63.8750 H   0  0  0  0  0  0
   11.3190   30.8765   63.0311 H   0  0  0  0  0  0
  1  2  2  0  0  0
  1  4  1  0  0  0
  1 21  1  0  0  0
  2  3  1  0  0  0
  2 28  1  0  0  0
  3  6  2  0  0  0
  3 29  1  0  0  0
  4  5  2  0  0  0
  4 30  1  0  0  0
  5  6  1  0  0  0
  5 10  1  0  0  0
  6  7  1  0  0  0
  7  8  2  0  0  0
  8  9  1  0  0  0
  8 20  1  0  0  0
  9 10  1  0  0  0
  9 12  1  0  0  0
 10 11  2  0  0  0
 12 13  1  0  0  0
 12 31  1  0  0  0
 12 32  1  0  0  0
 13 14  1  0  0  0
 13 15  2  0  0  0
 14 16  1  0  0  0
 14 33  1  0  0  0
 16 17  1  0  0  0
 16 34  1  0  0  0
 16 35  1  0  0  0
 17 18  1  0  0  0
 17 19  2  0  0  0
 18 23  1  0  0  0
 19 22  1  0  0  0
 20 36  1  0  0  0
 20 37  1  0  0  0
 20 38  1  0  0  0
 22 23  2  0  0  0
 22 27  1  0  0  0
 23 24  1  0  0  0
 24 25  2  0  0  0
 24 39  1  0  0  0
 25 26  1  0  0  0
 25 40  1  0  0  0
 26 27  2  0  0  0
 26 41  1  0  0  0
 27 42  1  0  0  0
M  END
> <s_m_entry_id>
8229

> <s_m_entry_name>
dock_pv.24

> <s_m_Source_Path>
/home/csk/Desktop/cluster/DUD-E-result/inha

> <s_m_Source_File>
dock_pv.maegz

> <i_m_Source_File_Index>
24

> <chembl_id>
CHEMBL3331292

> <chembl_pref_name>
None

> <i_lp_mmshare_version>
53161

> <r_lp_tautomer_probability>
1

> <s_lp_Force_Field>
OPLS_2005

> <r_lp_Energy>
17.595928

> <b_lp_Chiralities_Consistent>
1

> <s_lp_Variant>
CHEMBL1849_lig191-1

> <s_i_glide_gridfile>
glide-grid_2h7l

> <i_i_glide_lignum>
258

> <i_i_glide_rotatable_bonds>
5

> <r_i_docking_score>
-8.35956347392924

> <r_i_glide_ligand_efficiency>
-0.309613461997379

> <r_i_glide_ligand_efficiency_sa>
-0.928840384971702

> <r_i_glide_ligand_efficiency_ln>
-1.94596855855578

> <r_i_glide_gscore>
-8.35956347392924

> <r_i_glide_lipo>
-4.03386687063769

> <r_i_glide_hbond>
0

> <r_i_glide_metal>
0

> <r_i_glide_rewards>
-2.33331312571172

> <r_i_glide_evdw>
-44.9641036987305

> <r_i_glide_ecoul>
-1.57791233062744

> <r_i_glide_erotb>
0.492508556950822

> <r_i_glide_esite>
0

> <r_i_glide_emodel>
-65.1561479826478

> <r_i_glide_energy>
-46.5420160293579

> <r_i_glide_einternal>
8.00566673278809

> <i_i_glide_confnum>
2

> <i_i_glide_posenum>
394

> <r_i_glide_eff_state_penalty>
0

> <s_user_duplicate_titles>
CHEMBL1849_lig191

> <i_f3d_flags>
0

> <s_m_subgroup_title>
dock_pv

> <s_m_subgroupid>
dock_pv

> <b_m_subgroup_collapsed>
0

$$$$
CHEMBL1849_lig34
                    3D
 Schrodinger Suite 2021-1.
 56 59  0  0  1  0            999 V2000
    5.1055   27.7745   59.7688 C   0  0  0  0  0  0
    6.1699   28.5772   60.5072 C   0  0  0  0  0  0
    5.5852   29.9705   60.7331 C   0  0  2  0  0  0
    4.0897   29.7632   60.5504 C   0  0  0  0  0  0
    3.9523   28.4872   59.8466 N   0  0  0  0  0  0
    2.6812   27.9704   59.2889 C   0  0  0  0  0  0
    2.1617   26.6899   60.0034 C   0  0  0  0  0  0
    1.6415   26.9677   61.4255 C   0  0  0  0  0  0
    0.4709   27.9684   61.3872 C   0  0  0  0  0  0
    0.8329   29.2580   60.6254 C   0  0  0  0  0  0
    1.4998   28.9801   59.2535 C   0  0  0  0  0  0
    6.2035   30.9776   59.7296 C   0  0  0  0  0  0
    7.1175   31.7922   60.2845 N   0  0  0  0  0  0
    5.8852   30.9700   58.5385 O   0  0  0  0  0  0
    5.3043   26.6888   59.2281 O   0  0  0  0  0  0
    7.9547   32.7597   59.7158 C   0  0  0  0  0  0
    8.8058   33.3899   60.6093 C   0  0  0  0  0  0
    9.7353   34.3499   60.2179 C   0  0  0  0  0  0
    9.7594   34.7291   58.8758 C   0  0  0  0  0  0
    8.9040   34.1183   57.9609 C   0  0  0  0  0  0
    8.0156   33.1204   58.3717 C   0  0  0  0  0  0
   10.6498   35.0177   61.2489 C   0  0  0  0  0  0
   11.7246   34.1602   61.9371 C   0  0  0  0  0  0
   11.4325   32.9231   62.5300 C   0  0  0  0  0  0
   12.4291   32.1901   63.1728 C   0  0  0  0  0  0
   13.7255   32.6879   63.2272 C   0  0  0  0  0  0
   14.0292   33.9219   62.6617 C   0  0  0  0  0  0
   13.0295   34.6581   62.0286 C   0  0  0  0  0  0
    6.4571   28.0959   61.4406 H   0  0  0  0  0  0
    7.0613   28.5685   59.8762 H   0  0  0  0  0  0
    5.7991   30.3130   61.7473 H   0  0  0  0  0  0
    3.5923   30.6138   60.0805 H   0  0  0  0  0  0
    3.6270   29.6604   61.5339 H   0  0  0  0  0  0
    2.9143   27.7239   58.2517 H   0  0  0  0  0  0
    2.9364   25.9249   60.0321 H   0  0  0  0  0  0
    1.3599   26.2502   59.4077 H   0  0  0  0  0  0
    2.4463   27.3588   62.0477 H   0  0  0  0  0  0
    1.3162   26.0377   61.8930 H   0  0  0  0  0  0
    0.1525   28.2126   62.3997 H   0  0  0  0  0  0
   -0.3886   27.4993   60.9040 H   0  0  0  0  0  0
    1.4813   29.8763   61.2440 H   0  0  0  0  0  0
   -0.0657   29.8572   60.4701 H   0  0  0  0  0  0
    0.7413   28.6105   58.5624 H   0  0  0  0  0  0
    1.8381   29.9217   58.8262 H   0  0  0  0  0  0
    7.2429   31.6846   61.2790 H   0  0  0  0  0  0
    8.7277   33.1160   61.6297 H   0  0  0  0  0  0
   10.4546   35.4832   58.5350 H   0  0  0  0  0  0
    8.9420   34.4085   56.9216 H   0  0  0  0  0  0
    7.3822   32.6544   57.6365 H   0  0  0  0  0  0
   11.1235   35.8809   60.7786 H   0  0  0  0  0  0
   10.0207   35.4478   62.0248 H   0  0  0  0  0  0
   10.4407   32.5089   62.5287 H   0  0  0  0  0  0
   12.1943   31.2390   63.6256 H   0  0  0  0  0  0
   14.5017   32.1190   63.7209 H   0  0  0  0  0  0
   15.0339   34.3136   62.7234 H   0  0  0  0  0  0
   13.2759   35.6284   61.6267 H   0  0  0  0  0  0
  1 15  2  0  0  0
  1  5  1  0  0  0
  1  2  1  0  0  0
  2  3  1  0  0  0
  2 29  1  0  0  0
  2 30  1  0  0  0
  3 12  1  0  0  0
  3  4  1  0  0  0
  3 31  1  0  0  0
  4  5  1  0  0  0
  4 32  1  0  0  0
  4 33  1  0  0  0
  5  6  1  0  0  0
  6 11  1  0  0  0
  6  7  1  0  0  0
  6 34  1  0  0  0
  7  8  1  0  0  0
  7 35  1  0  0  0
  7 36  1  0  0  0
  8  9  1  0  0  0
  8 37  1  0  0  0
  8 38  1  0  0  0
  9 10  1  0  0  0
  9 39  1  0  0  0
  9 40  1  0  0  0
 10 11  1  0  0  0
 10 41  1  0  0  0
 10 42  1  0  0  0
 11 43  1  0  0  0
 11 44  1  0  0  0
 12 14  2  0  0  0
 12 13  1  0  0  0
 13 16  1  0  0  0
 13 45  1  0  0  0
 16 17  2  0  0  0
 16 21  1  0  0  0
 17 18  1  0  0  0
 17 46  1  0  0  0
 18 19  2  0  0  0
 18 22  1  0  0  0
 19 20  1  0  0  0
 19 47  1  0  0  0
 20 21  2  0  0  0
 20 48  1  0  0  0
 21 49  1  0  0  0
 22 23  1  0  0  0
 22 50  1  0  0  0
 22 51  1  0  0  0
 23 24  2  0  0  0
 23 28  1  0  0  0
 24 25  1  0  0  0
 24 52  1  0  0  0
 25 26  2  0  0  0
 25 53  1  0  0  0
 26 27  1  0  0  0
 26 54  1  0  0  0
 27 28  2  0  0  0
 27 55  1  0  0  0
 28 56  1  0  0  0
M  END
> <s_m_entry_id>
8230

> <s_m_entry_name>
dock_pv.25

> <s_m_Source_Path>
/home/csk/Desktop/cluster/DUD-E-result/inha

> <s_m_Source_File>
dock_pv.maegz

> <i_m_Source_File_Index>
25

> <chembl_id>
CHEMBL424724

> <chembl_pref_name>
None

> <i_lp_mmshare_version>
53161

> <r_lp_tautomer_probability>
1

> <s_lp_Force_Field>
OPLS_2005

> <r_lp_Energy>
33.736085

> <b_lp_Chiralities_Consistent>
1

> <s_lp_Variant>
CHEMBL1849_lig34-1

> <s_i_glide_gridfile>
glide-grid_2h7l

> <i_i_glide_lignum>
62

> <i_i_glide_rotatable_bonds>
6

> <r_i_docking_score>
-8.35891724064671

> <r_i_glide_ligand_efficiency>
-0.298532758594525

> <r_i_glide_ligand_efficiency_sa>
-0.90652128148485

> <r_i_glide_ligand_efficiency_ln>
-1.92948352761598

> <r_i_glide_gscore>
-8.35891724064671

> <r_i_glide_lipo>
-4.14003209526145

> <r_i_glide_hbond>
-0.172877776800872

> <r_i_glide_metal>
0

> <r_i_glide_rewards>
-2.27756327616275

> <r_i_glide_evdw>
-41.2068977355957

> <r_i_glide_ecoul>
-3.51680493354797

> <r_i_glide_erotb>
0.819421534390345

> <r_i_glide_esite>
0

> <r_i_glide_emodel>
-63.2274800746746

> <r_i_glide_energy>
-44.7237026691437

> <r_i_glide_einternal>
4.09091711044312

> <i_i_glide_confnum>
117

> <i_i_glide_posenum>
172

> <r_i_glide_eff_state_penalty>
0

> <s_user_duplicate_titles>
CHEMBL1849_lig34

> <i_f3d_flags>
0

> <s_m_subgroup_title>
dock_pv

> <s_m_subgroupid>
dock_pv

> <b_m_subgroup_collapsed>
0

$$$$
CHEMBL1849_lig44
                    3D
 Schrodinger Suite 2021-1.
 45 47  0  0  1  0            999 V2000
    4.5522   27.7552   59.3922 C   0  0  0  0  0  0
    3.2231   28.1420   59.5876 C   0  0  0  0  0  0
    2.8115   29.4282   59.2381 C   0  0  0  0  0  0
    3.7238   30.3391   58.7049 C   0  0  0  0  0  0
    5.0597   29.9677   58.5211 C   0  0  0  0  0  0
    5.4622   28.6652   58.8507 C   0  0  0  0  0  0
    6.0684   30.9713   58.0277 C   0  0  0  0  0  0
    7.1459   31.2102   58.8221 N   0  0  0  0  0  0
    5.8945   31.5198   56.9369 O   0  0  0  0  0  0
    8.1995   32.1499   58.3824 C   0  0  0  0  0  0
    8.0325   33.4587   59.1903 C   0  0  0  0  0  0
    8.0426   33.2104   60.7202 C   0  0  0  0  0  0
    6.9198   32.2010   61.0298 C   0  0  0  0  0  0
    7.1469   30.8797   60.2702 C   0  0  0  0  0  0
    9.4113   32.7179   61.2730 C   0  0  0  0  0  0
   10.5044   33.7556   61.4874 C   0  0  0  0  0  0
   10.3521   35.0904   61.0971 C   0  0  0  0  0  0
   11.3393   36.0133   61.3974 C   0  0  0  0  0  0
   12.5019   35.5976   62.0427 C   0  0  0  0  0  0
   12.6743   34.2733   62.4276 C   0  0  0  0  0  0
   11.6655   33.3557   62.1588 C   0  0  0  0  0  0
    5.0258   26.3678   59.7882 C   0  0  0  0  0  0
    2.5077   27.4554   60.0149 H   0  0  0  0  0  0
    1.7872   29.7333   59.3966 H   0  0  0  0  0  0
    3.3875   31.3375   58.4595 H   0  0  0  0  0  0
    6.4911   28.3629   58.7166 H   0  0  0  0  0  0
    9.1565   31.6778   58.6008 H   0  0  0  0  0  0
    8.2030   32.3230   57.3080 H   0  0  0  0  0  0
    8.8384   34.1325   58.9011 H   0  0  0  0  0  0
    7.1053   33.9483   58.8910 H   0  0  0  0  0  0
    7.7545   34.1359   61.2226 H   0  0  0  0  0  0
    5.9379   32.6129   60.7870 H   0  0  0  0  0  0
    6.9007   31.9834   62.0980 H   0  0  0  0  0  0
    6.4484   30.1066   60.5820 H   0  0  0  0  0  0
    8.1194   30.4552   60.5093 H   0  0  0  0  0  0
    9.2452   32.2551   62.2469 H   0  0  0  0  0  0
    9.8144   31.9253   60.6493 H   0  0  0  0  0  0
    9.4612   35.4427   60.6055 H   0  0  0  0  0  0
   11.2125   37.0488   61.1154 H   0  0  0  0  0  0
   13.2733   36.3223   62.2461 H   0  0  0  0  0  0
   13.5746   33.9654   62.9378 H   0  0  0  0  0  0
   11.7813   32.3309   62.4794 H   0  0  0  0  0  0
    5.9135   26.4402   60.4183 H   0  0  0  0  0  0
    4.2673   25.8172   60.3474 H   0  0  0  0  0  0
    5.3050   25.7903   58.9059 H   0  0  0  0  0  0
  1  6  1  0  0  0
  1  2  2  0  0  0
  1 22  1  0  0  0
  2  3  1  0  0  0
  2 23  1  0  0  0
  3  4  2  0  0  0
  3 24  1  0  0  0
  4  5  1  0  0  0
  4 25  1  0  0  0
  5  6  2  0  0  0
  5  7  1  0  0  0
  6 26  1  0  0  0
  7  8  1  0  0  0
  7  9  2  0  0  0
  8 14  1  0  0  0
  8 10  1  0  0  0
 10 11  1  0  0  0
 10 27  1  0  0  0
 10 28  1  0  0  0
 11 12  1  0  0  0
 11 29  1  0  0  0
 11 30  1  0  0  0
 12 13  1  0  0  0
 12 15  1  0  0  0
 12 31  1  0  0  0
 13 14  1  0  0  0
 13 32  1  0  0  0
 13 33  1  0  0  0
 14 34  1  0  0  0
 14 35  1  0  0  0
 15 16  1  0  0  0
 15 36  1  0  0  0
 15 37  1  0  0  0
 16 17  2  0  0  0
 16 21  1  0  0  0
 17 18  1  0  0  0
 17 38  1  0  0  0
 18 19  2  0  0  0
 18 39  1  0  0  0
 19 20  1  0  0  0
 19 40  1  0  0  0
 20 21  2  0  0  0
 20 41  1  0  0  0
 21 42  1  0  0  0
 22 43  1  0  0  0
 22 44  1  0  0  0
 22 45  1  0  0  0
M  END
> <s_m_entry_id>
8231

> <s_m_entry_name>
dock_pv.26

> <s_m_Source_Path>
/home/csk/Desktop/cluster/DUD-E-result/inha

> <s_m_Source_File>
dock_pv.maegz

> <i_m_Source_File_Index>
26

> <chembl_id>
CHEMBL240531

> <chembl_pref_name>
None

> <i_lp_mmshare_version>
53161

> <r_lp_tautomer_probability>
1

> <s_lp_Force_Field>
OPLS_2005

> <r_lp_Energy>
37.557604

> <b_lp_Chiralities_Consistent>
1

> <s_lp_Variant>
CHEMBL1849_lig44-1

> <s_i_glide_gridfile>
glide-grid_2h7l

> <i_i_glide_lignum>
94

> <i_i_glide_rotatable_bonds>
4

> <r_i_docking_score>
-8.30107655631737

> <r_i_glide_ligand_efficiency>
-0.37732166165079

> <r_i_glide_ligand_efficiency_sa>
-1.0572701351644

> <r_i_glide_ligand_efficiency_ln>
-2.0290858994883

> <r_i_glide_gscore>
-8.30107655631737

> <r_i_glide_lipo>
-3.91458499600447

> <r_i_glide_hbond>
-0.315940878274633

> <r_i_glide_metal>
0

> <r_i_glide_rewards>
-2.67520296735568

> <r_i_glide_evdw>
-32.8290824890137

> <r_i_glide_ecoul>
-4.0195107460022

> <r_i_glide_erotb>
0.849033021668425

> <r_i_glide_esite>
0

> <r_i_glide_emodel>
-50.164657573475

> <r_i_glide_energy>
-36.8485932350159

> <r_i_glide_einternal>
8.8252067565918

> <i_i_glide_confnum>
119

> <i_i_glide_posenum>
191

> <r_i_glide_eff_state_penalty>
0

> <s_user_duplicate_titles>
CHEMBL1849_lig44

> <i_f3d_flags>
0

> <s_m_subgroup_title>
dock_pv

> <s_m_subgroupid>
dock_pv

> <b_m_subgroup_collapsed>
0

$$$$
CHEMBL1849_lig108
                    3D
 Schrodinger Suite 2021-1.
 44 47  0  0  1  0            999 V2000
   13.3034   32.1086   63.2281 C   0  0  0  0  0  0
   11.9918   31.6831   63.0366 C   0  0  0  0  0  0
   11.0551   32.5196   62.4281 C   0  0  0  0  0  0
   11.4184   33.8128   62.0038 C   0  0  0  0  0  0
   12.7259   34.2487   62.2750 C   0  0  0  0  0  0
   13.6663   33.3971   62.8508 C   0  0  0  0  0  0
   10.4296   34.7920   61.3318 C   0  0  0  0  0  0
    9.7207   34.3709   60.1244 N   0  0  0  0  0  0
    8.8987   33.3155   60.0898 N   0  0  0  0  0  0
    8.5046   33.3107   58.8318 C   0  0  0  0  0  0
    8.9255   34.3213   58.0864 N   0  0  0  0  0  0
    9.7041   34.9794   58.9029 C   0  0  0  0  0  0
   13.0909   35.5214   62.0214 F   0  0  0  0  0  0
    9.7997   32.0461   62.2799 F   0  0  0  0  0  0
    7.8374   32.2844   58.2178 N   0  0  0  0  0  0
    4.5914   28.8362   60.5904 C   0  0  2  0  0  0
    3.6702   27.9916   59.6790 C   0  0  0  0  0  0
    3.7096   29.7439   61.2276 O   0  0  0  0  0  0
    7.1349   31.2200   58.7253 C   0  0  0  0  0  0
    6.2804   31.2116   60.2453 S   0  0  0  0  0  0
    5.6282   29.6408   59.7945 C   0  0  0  0  0  0
    6.1183   29.2202   58.6498 N   0  0  0  0  0  0
    6.9513   30.1332   58.0261 N   0  0  0  0  0  0
    5.2712   27.9318   61.6319 C   0  0  0  0  0  0
    4.9042   27.9139   63.3398 S   0  0  0  0  0  0
    6.0297   26.6159   63.5457 C   0  0  0  0  0  0
    6.5961   26.3002   62.3191 C   0  0  0  0  0  0
    6.1678   27.0250   61.2994 N   0  0  0  0  0  0
    7.6319   25.2364   62.0276 C   0  0  0  0  0  0
   14.0273   31.4546   63.6930 H   0  0  0  0  0  0
   11.6943   30.6972   63.3588 H   0  0  0  0  0  0
   14.6700   33.7520   63.0339 H   0  0  0  0  0  0
   10.9539   35.7127   61.0713 H   0  0  0  0  0  0
    9.6748   35.1192   62.0280 H   0  0  0  0  0  0
   10.2779   35.8744   58.7122 H   0  0  0  0  0  0
    8.0275   32.2262   57.2322 H   0  0  0  0  0  0
    4.2326   27.2214   59.1507 H   0  0  0  0  0  0
    2.8953   27.4821   60.2539 H   0  0  0  0  0  0
    3.1737   28.6032   58.9235 H   0  0  0  0  0  0
    3.2304   30.2363   60.5541 H   0  0  0  0  0  0
    6.2124   26.1778   64.5152 H   0  0  0  0  0  0
    8.1649   24.9267   62.9255 H   0  0  0  0  0  0
    8.3886   25.5707   61.3169 H   0  0  0  0  0  0
    7.1754   24.3376   61.6153 H   0  0  0  0  0  0
  1  2  2  0  0  0
  1  6  1  0  0  0
  1 30  1  0  0  0
  2  3  1  0  0  0
  2 31  1  0  0  0
  3  4  2  0  0  0
  3 14  1  0  0  0
  4  5  1  0  0  0
  4  7  1  0  0  0
  5  6  2  0  0  0
  5 13  1  0  0  0
  6 32  1  0  0  0
  7  8  1  0  0  0
  7 33  1  0  0  0
  7 34  1  0  0  0
  8  9  1  0  0  0
  8 12  1  0  0  0
  9 10  2  0  0  0
 10 11  1  0  0  0
 10 15  1  0  0  0
 11 12  2  0  0  0
 12 35  1  0  0  0
 15 19  1  0  0  0
 15 36  1  0  0  0
 16 17  1  0  0  0
 16 18  1  0  0  0
 16 21  1  0  0  0
 16 24  1  0  0  0
 17 37  1  0  0  0
 17 38  1  0  0  0
 17 39  1  0  0  0
 18 40  1  0  0  0
 19 20  1  0  0  0
 19 23  2  0  0  0
 20 21  1  0  0  0
 21 22  2  0  0  0
 22 23  1  0  0  0
 24 25  1  0  0  0
 24 28  2  0  0  0
 25 26  1  0  0  0
 26 27  2  0  0  0
 26 41  1  0  0  0
 27 28  1  0  0  0
 27 29  1  0  0  0
 29 42  1  0  0  0
 29 43  1  0  0  0
 29 44  1  0  0  0
M  END
> <s_m_entry_id>
8232

> <s_m_entry_name>
dock_pv.27

> <s_m_Source_Path>
/home/csk/Desktop/cluster/DUD-E-result/inha

> <s_m_Source_File>
dock_pv.maegz

> <i_m_Source_File_Index>
27

> <chembl_id>
CHEMBL3088175

> <chembl_pref_name>
None

> <i_lp_mmshare_version>
53161

> <r_lp_tautomer_probability>
0.999999999999839

> <s_lp_Force_Field>
OPLS_2005

> <r_lp_Energy>
3.329913

> <b_lp_Chiralities_Consistent>
1

> <s_lp_Variant>
CHEMBL1849_lig108-1

> <s_i_glide_gridfile>
glide-grid_2h7l

> <i_i_glide_lignum>
165

> <i_i_glide_rotatable_bonds>
7

> <r_i_docking_score>
-8.28937729623591

> <r_i_glide_ligand_efficiency>
-0.285840596421928

> <r_i_glide_ligand_efficiency_sa>
-0.878192872865456

> <r_i_glide_ligand_efficiency_ln>
-1.89805720036638

> <r_i_glide_gscore>
-8.28937729623591

> <r_i_glide_lipo>
-3.34168255675187

> <r_i_glide_hbond>
-0.00723595870960517

> <r_i_glide_metal>
0

> <r_i_glide_rewards>
-3.00335653585064

> <r_i_glide_evdw>
-48.7618408203125

> <r_i_glide_ecoul>
-0.862702786922455

> <r_i_glide_erotb>
0.630395214130189

> <r_i_glide_esite>
0

> <r_i_glide_emodel>
-66.9650434330262

> <r_i_glide_energy>
-49.624543607235

> <r_i_glide_einternal>
10.0284719467163

> <i_i_glide_confnum>
76

> <i_i_glide_posenum>
361

> <r_i_glide_eff_state_penalty>
0

> <s_user_duplicate_titles>
CHEMBL1849_lig108

> <i_f3d_flags>
0

> <s_m_subgroup_title>
dock_pv

> <s_m_subgroupid>
dock_pv

> <b_m_subgroup_collapsed>
0

$$$$
CHEMBL1849_lig25
                    3D
 Schrodinger Suite 2021-1.
 53 56  0  0  1  0            999 V2000
    3.7842   29.4547   60.4840 C   0  0  0  0  0  0
    3.8825   29.8768   59.0182 C   0  0  0  0  0  0
    5.3130   29.5645   58.5750 C   0  0  2  0  0  0
    5.7847   28.5524   59.6135 C   0  0  0  0  0  0
    4.9024   28.7388   60.7638 N   0  0  0  0  0  0
    5.0395   28.0259   62.0536 C   0  0  0  0  0  0
    4.1501   26.7555   62.1517 C   0  0  0  0  0  0
    4.6931   25.5445   61.3694 C   0  0  0  0  0  0
    6.1146   25.1851   61.8328 C   0  0  0  0  0  0
    7.0641   26.3913   61.7331 C   0  0  0  0  0  0
    6.4984   27.6502   62.4374 C   0  0  0  0  0  0
    6.1482   30.8657   58.4793 C   0  0  0  0  0  0
    6.8727   31.2470   59.5632 N   0  0  0  0  0  0
    6.0989   31.4871   57.4151 O   0  0  0  0  0  0
    2.8387   29.7052   61.2274 O   0  0  0  0  0  0
    7.7547   32.3413   59.6937 C   0  0  0  0  0  0
    8.6934   32.3145   60.7330 C   0  0  0  0  0  0
    9.7207   33.2781   60.8356 C   0  0  0  0  0  0
    9.7042   34.3279   59.9068 C   0  0  0  0  0  0
    8.7617   34.3872   58.8950 C   0  0  0  0  0  0
    7.7760   33.4198   58.8070 C   0  0  0  0  0  0
   10.8909   33.1233   61.7882 C   0  0  0  0  0  0
   11.0818   31.9421   62.5319 C   0  0  0  0  0  0
   12.2664   31.7115   63.2278 C   0  0  0  0  0  0
   13.2660   32.6775   63.2283 C   0  0  0  0  0  0
   13.0668   33.8934   62.5919 C   0  0  0  0  0  0
   11.8888   34.1148   61.8884 C   0  0  0  0  0  0
    3.1426   29.3676   58.4018 H   0  0  0  0  0  0
    3.6276   30.9380   58.9773 H   0  0  0  0  0  0
    5.3222   29.1241   57.5784 H   0  0  0  0  0  0
    6.8520   28.6165   59.8267 H   0  0  0  0  0  0
    5.6355   27.5452   59.2239 H   0  0  0  0  0  0
    4.6716   28.7196   62.8141 H   0  0  0  0  0  0
    3.1326   26.9745   61.8242 H   0  0  0  0  0  0
    4.0530   26.4785   63.2038 H   0  0  0  0  0  0
    4.6908   25.7586   60.3001 H   0  0  0  0  0  0
    4.0302   24.6879   61.5062 H   0  0  0  0  0  0
    6.5022   24.3545   61.2382 H   0  0  0  0  0  0
    6.0812   24.8294   62.8647 H   0  0  0  0  0  0
    7.2754   26.5968   60.6861 H   0  0  0  0  0  0
    8.0296   26.1271   62.1676 H   0  0  0  0  0  0
    6.5280   27.4860   63.5159 H   0  0  0  0  0  0
    7.1628   28.4994   62.2663 H   0  0  0  0  0  0
    6.8286   30.6373   60.3642 H   0  0  0  0  0  0
    8.6526   31.4873   61.4212 H   0  0  0  0  0  0
   10.4556   35.1001   59.8929 H   0  0  0  0  0  0
    8.8053   35.1876   58.1736 H   0  0  0  0  0  0
    7.0489   33.5219   58.0287 H   0  0  0  0  0  0
   10.3496   31.1540   62.5414 H   0  0  0  0  0  0
   12.4154   30.7767   63.7511 H   0  0  0  0  0  0
   14.1885   32.4939   63.7605 H   0  0  0  0  0  0
   13.8319   34.6561   62.6217 H   0  0  0  0  0  0
   11.8026   35.0658   61.3885 H   0  0  0  0  0  0
  1 15  2  0  0  0
  1  5  1  0  0  0
  1  2  1  0  0  0
  2  3  1  0  0  0
  2 28  1  0  0  0
  2 29  1  0  0  0
  3 12  1  0  0  0
  3  4  1  0  0  0
  3 30  1  0  0  0
  4  5  1  0  0  0
  4 31  1  0  0  0
  4 32  1  0  0  0
  5  6  1  0  0  0
  6 11  1  0  0  0
  6  7  1  0  0  0
  6 33  1  0  0  0
  7  8  1  0  0  0
  7 34  1  0  0  0
  7 35  1  0  0  0
  8  9  1  0  0  0
  8 36  1  0  0  0
  8 37  1  0  0  0
  9 10  1  0  0  0
  9 38  1  0  0  0
  9 39  1  0  0  0
 10 11  1  0  0  0
 10 40  1  0  0  0
 10 41  1  0  0  0
 11 42  1  0  0  0
 11 43  1  0  0  0
 12 13  1  0  0  0
 12 14  2  0  0  0
 13 16  1  0  0  0
 13 44  1  0  0  0
 16 17  2  0  0  0
 16 21  1  0  0  0
 17 18  1  0  0  0
 17 45  1  0  0  0
 18 19  2  0  0  0
 18 22  1  0  0  0
 19 20  1  0  0  0
 19 46  1  0  0  0
 20 21  2  0  0  0
 20 47  1  0  0  0
 21 48  1  0  0  0
 22 23  2  0  0  0
 22 27  1  0  0  0
 23 24  1  0  0  0
 23 49  1  0  0  0
 24 25  2  0  0  0
 24 50  1  0  0  0
 25 26  1  0  0  0
 25 51  1  0  0  0
 26 27  2  0  0  0
 26 52  1  0  0  0
 27 53  1  0  0  0
M  END
> <s_m_entry_id>
8233

> <s_m_entry_name>
dock_pv.28

> <s_m_Source_Path>
/home/csk/Desktop/cluster/DUD-E-result/inha

> <s_m_Source_File>
dock_pv.maegz

> <i_m_Source_File_Index>
28

> <chembl_id>
CHEMBL441373

> <chembl_pref_name>
None

> <i_lp_mmshare_version>
53161

> <r_lp_tautomer_probability>
1

> <s_lp_Force_Field>
OPLS_2005

> <r_lp_Energy>
37.319943

> <b_lp_Chiralities_Consistent>
1

> <s_lp_Variant>
CHEMBL1849_lig25-1

> <s_i_glide_gridfile>
glide-grid_2h7l

> <i_i_glide_lignum>
38

> <i_i_glide_rotatable_bonds>
5

> <r_i_docking_score>
-8.27753188527237

> <r_i_glide_ligand_efficiency>
-0.306575255010088

> <r_i_glide_ligand_efficiency_sa>
-0.919725764019841

> <r_i_glide_ligand_efficiency_ln>
-1.9268729571129

> <r_i_glide_gscore>
-8.27753188527237

> <r_i_glide_lipo>
-3.97851809064191

> <r_i_glide_hbond>
-0.137335168584104

> <r_i_glide_metal>
0

> <r_i_glide_rewards>
-2.23094460175978

> <r_i_glide_evdw>
-42.6557006835938

> <r_i_glide_ecoul>
-3.49079513549805

> <r_i_glide_erotb>
0.73078848753412

> <r_i_glide_esite>
-0.00511820731630153

> <r_i_glide_emodel>
-58.747515406977

> <r_i_glide_energy>
-46.1464958190918

> <r_i_glide_einternal>
8.79558563232422

> <i_i_glide_confnum>
130

> <i_i_glide_posenum>
303

> <r_i_glide_eff_state_penalty>
0

> <s_user_duplicate_titles>
CHEMBL1849_lig25,360323

> <i_f3d_flags>
0

> <s_m_subgroup_title>
dock_pv

> <s_m_subgroupid>
dock_pv

> <b_m_subgroup_collapsed>
0

$$$$
CHEMBL1849_lig45
                    3D
 Schrodinger Suite 2021-1.
 45 47  0  0  1  0            999 V2000
    3.1905   28.2117   59.5473 C   0  0  0  0  0  0
    4.5031   27.7774   59.3595 C   0  0  0  0  0  0
    5.4516   28.6459   58.8280 C   0  0  0  0  0  0
    8.2306   32.1432   58.3882 C   0  0  0  0  0  0
    8.0669   33.4562   59.1881 C   0  0  0  0  0  0
    8.0509   33.2172   60.7198 C   0  0  0  0  0  0
    6.9152   32.2208   61.0220 C   0  0  0  0  0  0
    7.1383   30.8949   60.2713 C   0  0  0  0  0  0
   10.5040   33.7483   61.4955 C   0  0  0  0  0  0
   10.3540   35.0805   61.0982 C   0  0  0  0  0  0
   12.5039   35.5884   62.0292 C   0  0  0  0  0  0
    2.1550   27.2674   60.1259 C   0  0  0  0  0  0
    6.1385   30.9127   57.9792 C   0  0  0  0  0  0
    7.1611   31.2245   58.8251 N   0  0  0  0  0  0
   11.3412   36.0040   61.3867 C   0  0  0  0  0  0
   12.6750   34.2664   62.4246 C   0  0  0  0  0  0
   11.6643   33.3489   62.1683 C   0  0  0  0  0  0
    6.0503   31.3629   56.8282 O   0  0  0  0  0  0
    9.4111   32.7149   61.2828 C   0  0  0  0  0  0
    5.0945   29.9588   58.4958 C   0  0  0  0  0  0
    3.7827   30.3952   58.6966 C   0  0  0  0  0  0
    2.8346   29.5220   59.2247 C   0  0  0  0  0  0
    4.7906   26.7702   59.6202 H   0  0  0  0  0  0
    6.4671   28.3008   58.6896 H   0  0  0  0  0  0
    9.1786   31.6610   58.6195 H   0  0  0  0  0  0
    8.2450   32.3229   57.3140 H   0  0  0  0  0  0
    8.8876   34.1164   58.9090 H   0  0  0  0  0  0
    7.1534   33.9627   58.8751 H   0  0  0  0  0  0
    7.7679   34.1450   61.2232 H   0  0  0  0  0  0
    5.9419   32.6405   60.7644 H   0  0  0  0  0  0
    6.8823   32.0110   62.0922 H   0  0  0  0  0  0
    6.4265   30.1288   60.5713 H   0  0  0  0  0  0
    8.1053   30.4643   60.5224 H   0  0  0  0  0  0
    9.4627   35.4349   60.6086 H   0  0  0  0  0  0
   13.2833   36.3063   62.2210 H   0  0  0  0  0  0
    2.6150   26.5479   60.8065 H   0  0  0  0  0  0
    1.4097   27.8143   60.7049 H   0  0  0  0  0  0
    1.6488   26.7239   59.3286 H   0  0  0  0  0  0
   11.2147   37.0378   61.1028 H   0  0  0  0  0  0
   13.5800   33.9609   62.9292 H   0  0  0  0  0  0
   11.7845   32.3259   62.4894 H   0  0  0  0  0  0
    9.2401   32.2511   62.2545 H   0  0  0  0  0  0
    9.8198   31.9265   60.6603 H   0  0  0  0  0  0
    3.4893   31.4079   58.4603 H   0  0  0  0  0  0
    1.8261   29.8721   59.3824 H   0  0  0  0  0  0
  1 12  1  0  0  0
  1 22  2  0  0  0
  1  2  1  0  0  0
  2  3  2  0  0  0
  2 23  1  0  0  0
  3 20  1  0  0  0
  3 24  1  0  0  0
  4 14  1  0  0  0
  4  5  1  0  0  0
  4 25  1  0  0  0
  4 26  1  0  0  0
  5  6  1  0  0  0
  5 27  1  0  0  0
  5 28  1  0  0  0
  6  7  1  0  0  0
  6 19  1  0  0  0
  6 29  1  0  0  0
  7  8  1  0  0  0
  7 30  1  0  0  0
  7 31  1  0  0  0
  8 14  1  0  0  0
  8 32  1  0  0  0
  8 33  1  0  0  0
  9 17  1  0  0  0
  9 19  1  0  0  0
  9 10  2  0  0  0
 10 15  1  0  0  0
 10 34  1  0  0  0
 11 16  1  0  0  0
 11 15  2  0  0  0
 11 35  1  0  0  0
 12 36  1  0  0  0
 12 37  1  0  0  0
 12 38  1  0  0  0
 13 18  2  0  0  0
 13 20  1  0  0  0
 13 14  1  0  0  0
 15 39  1  0  0  0
 16 17  2  0  0  0
 16 40  1  0  0  0
 17 41  1  0  0  0
 19 42  1  0  0  0
 19 43  1  0  0  0
 20 21  2  0  0  0
 21 22  1  0  0  0
 21 44  1  0  0  0
 22 45  1  0  0  0
M  END
> <s_m_entry_id>
8234

> <s_m_entry_name>
dock_pv.29

> <s_m_Source_Path>
/home/csk/Desktop/cluster/DUD-E-result/inha

> <s_m_Source_File>
dock_pv.maegz

> <i_m_Source_File_Index>
29

> <chembl_id>
CHEMBL240530

> <chembl_pref_name>
None

> <i_lp_mmshare_version>
53161

> <r_lp_tautomer_probability>
1

> <s_lp_Force_Field>
OPLS_2005

> <r_lp_Energy>
37.56035

> <b_lp_Chiralities_Consistent>
1

> <s_lp_Variant>
CHEMBL1849_lig45-1

> <s_i_glide_gridfile>
glide-grid_2h7l

> <i_i_glide_lignum>
95

> <i_i_glide_rotatable_bonds>
4

> <r_i_docking_score>
-8.25031230586468

> <r_i_glide_ligand_efficiency>
-0.375014195721122

> <r_i_glide_ligand_efficiency_sa>
-1.05080452488199

> <r_i_glide_ligand_efficiency_ln>
-2.01667726500663

> <r_i_glide_gscore>
-8.25031230586468

> <r_i_glide_lipo>
-3.83817543731191

> <r_i_glide_hbond>
-0.32

> <r_i_glide_metal>
0

> <r_i_glide_rewards>
-2.72058134919031

> <r_i_glide_evdw>
-31.5005950927734

> <r_i_glide_ecoul>
-4.30372524261475

> <r_i_glide_erotb>
0.849033021668425

> <r_i_glide_esite>
0

> <r_i_glide_emodel>
-49.1367165848919

> <r_i_glide_energy>
-35.8043203353882

> <r_i_glide_einternal>
8.83639335632324

> <i_i_glide_confnum>
107

> <i_i_glide_posenum>
369

> <r_i_glide_eff_state_penalty>
0

> <s_user_duplicate_titles>
CHEMBL1849_lig45

> <i_f3d_flags>
0

> <s_m_subgroup_title>
dock_pv

> <s_m_subgroupid>
dock_pv

> <b_m_subgroup_collapsed>
0

$$$$
CHEMBL1849_lig14
                    3D
 Schrodinger Suite 2021-1.
 50 52  0  0  1  0            999 V2000
    6.4344   30.8084   58.0214 C   0  0  0  0  0  0
    6.2546   29.2984   58.0152 C   0  0  0  0  0  0
    6.9778   28.7852   59.2402 C   0  0  1  0  0  0
    7.0915   30.0087   60.1375 C   0  0  0  0  0  0
    6.9213   31.1614   59.2431 N   0  0  0  0  0  0
    6.7781   32.5395   59.7921 C   0  0  0  0  0  0
    7.3680   32.7121   61.2139 C   0  0  0  0  0  0
    8.9132   32.6977   61.2278 C   0  0  0  0  0  0
    9.4665   33.8629   60.4001 C   0  0  0  0  0  0
    8.9267   33.7748   58.9603 C   0  0  0  0  0  0
    7.3924   33.6921   58.9468 C   0  0  0  0  0  0
    6.2979   27.5871   59.9457 C   0  0  0  0  0  0
    5.7001   26.7519   59.2627 O   0  0  0  0  0  0
    5.8187   26.6313   62.1844 C   0  0  0  0  0  0
    5.5208   25.3029   61.8588 C   0  0  0  0  0  0
    4.8818   24.4675   62.7886 C   0  0  0  0  0  0
    4.5750   24.9707   64.0527 C   0  0  0  0  0  0
    4.9027   26.2843   64.4074 C   0  0  0  0  0  0
    5.5289   27.1061   63.4645 C   0  0  0  0  0  0
    6.1041   31.5223   57.0775 O   0  0  0  0  0  0
    4.5718   26.8386   65.7931 C   0  0  0  0  0  0
    3.8717   25.9716   66.5376 F   0  0  0  0  0  0
    5.7043   27.1218   66.4396 F   0  0  0  0  0  0
    3.8578   27.9661   65.6711 F   0  0  0  0  0  0
    4.5210   23.1593   62.5382 O   0  0  0  0  0  0
    4.9099   22.5743   61.3046 C   0  0  0  0  0  0
    6.4118   27.5318   61.2932 N   0  0  0  0  0  0
    6.7455   28.9390   57.1113 H   0  0  0  0  0  0
    5.1978   29.0352   57.9588 H   0  0  0  0  0  0
    7.9691   28.4174   58.9701 H   0  0  0  0  0  0
    6.2524   30.0850   60.8327 H   0  0  0  0  0  0
    8.0364   30.0273   60.6788 H   0  0  0  0  0  0
    5.6980   32.7030   59.8547 H   0  0  0  0  0  0
    7.0089   33.6608   61.6174 H   0  0  0  0  0  0
    6.9734   31.9676   61.9030 H   0  0  0  0  0  0
    9.3113   32.7083   62.2367 H   0  0  0  0  0  0
    9.2894   31.7835   60.7852 H   0  0  0  0  0  0
    9.1620   34.8101   60.8488 H   0  0  0  0  0  0
   10.5560   33.8615   60.4256 H   0  0  0  0  0  0
    9.2681   34.6336   58.3783 H   0  0  0  0  0  0
    9.3036   32.8875   58.4499 H   0  0  0  0  0  0
    7.0938   33.5585   57.9247 H   0  0  0  0  0  0
    6.9967   34.6587   59.2711 H   0  0  0  0  0  0
    5.7860   24.9304   60.8812 H   0  0  0  0  0  0
    4.0733   24.3211   64.7580 H   0  0  0  0  0  0
    5.7547   28.1305   63.7312 H   0  0  0  0  0  0
    4.5462   21.5550   61.2579 H   0  0  0  0  0  0
    5.9941   22.5505   61.2296 H   0  0  0  0  0  0
    4.5056   23.1047   60.4406 H   0  0  0  0  0  0
    6.8909   28.3010   61.7323 H   0  0  0  0  0  0
  1  2  1  0  0  0
  1  5  1  0  0  0
  1 20  2  0  0  0
  2  3  1  0  0  0
  2 28  1  0  0  0
  2 29  1  0  0  0
  3  4  1  0  0  0
  3 12  1  0  0  0
  3 30  1  0  0  0
  4  5  1  0  0  0
  4 31  1  0  0  0
  4 32  1  0  0  0
  5  6  1  0  0  0
  6  7  1  0  0  0
  6 11  1  0  0  0
  6 33  1  0  0  0
  7  8  1  0  0  0
  7 34  1  0  0  0
  7 35  1  0  0  0
  8  9  1  0  0  0
  8 36  1  0  0  0
  8 37  1  0  0  0
  9 10  1  0  0  0
  9 38  1  0  0  0
  9 39  1  0  0  0
 10 11  1  0  0  0
 10 40  1  0  0  0
 10 41  1  0  0  0
 11 42  1  0  0  0
 11 43  1  0  0  0
 12 13  2  0  0  0
 12 27  1  0  0  0
 14 15  2  0  0  0
 14 19  1  0  0  0
 14 27  1  0  0  0
 15 16  1  0  0  0
 15 44  1  0  0  0
 16 17  2  0  0  0
 16 25  1  0  0  0
 17 18  1  0  0  0
 17 45  1  0  0  0
 18 19  2  0  0  0
 18 21  1  0  0  0
 19 46  1  0  0  0
 21 22  1  0  0  0
 21 23  1  0  0  0
 21 24  1  0  0  0
 25 26  1  0  0  0
 26 47  1  0  0  0
 26 48  1  0  0  0
 26 49  1  0  0  0
 27 50  1  0  0  0
M  END
> <s_m_entry_id>
8235

> <s_m_entry_name>
dock_pv.30

> <s_m_Source_Path>
/home/csk/Desktop/cluster/DUD-E-result/inha

> <s_m_Source_File>
dock_pv.maegz

> <i_m_Source_File_Index>
30

> <chembl_id>
CHEMBL216704

> <chembl_pref_name>
None

> <i_lp_mmshare_version>
53161

> <r_lp_tautomer_probability>
1

> <s_lp_Force_Field>
OPLS_2005

> <r_lp_Energy>
37.993763

> <b_lp_Chiralities_Consistent>
1

> <s_lp_Variant>
CHEMBL1849_lig14-2

> <s_i_glide_gridfile>
glide-grid_2h7l

> <i_i_glide_lignum>
17

> <i_i_glide_rotatable_bonds>
6

> <r_i_docking_score>
-8.21381430253089

> <r_i_glide_ligand_efficiency>
-0.304215344538181

> <r_i_glide_ligand_efficiency_sa>
-0.912646032611899

> <r_i_glide_ligand_efficiency_ln>
-1.91204055431713

> <r_i_glide_gscore>
-8.21381430253089

> <r_i_glide_lipo>
-2.89603247991852

> <r_i_glide_hbond>
-0.562236982165961

> <r_i_glide_metal>
0

> <r_i_glide_rewards>
-2.62337921267414

> <r_i_glide_evdw>
-34.5990600585938

> <r_i_glide_ecoul>
-6.19024515151978

> <r_i_glide_erotb>
0.526324147885387

> <r_i_glide_esite>
0

> <r_i_glide_emodel>
-55.780514669845

> <r_i_glide_energy>
-40.7893052101135

> <r_i_glide_einternal>
9.15071105957031

> <i_i_glide_confnum>
43

> <i_i_glide_posenum>
289

> <r_i_glide_eff_state_penalty>
0

> <s_user_duplicate_titles>
CHEMBL1849_lig14

> <i_f3d_flags>
0

> <s_m_subgroup_title>
dock_pv

> <s_m_subgroupid>
dock_pv

> <b_m_subgroup_collapsed>
0

$$$$
CHEMBL1849_lig25
                    3D
 Schrodinger Suite 2021-1.
 53 56  0  0  1  0            999 V2000
    3.5479   29.0022   58.9909 C   0  0  0  0  0  0
    3.7059   30.5081   58.8249 C   0  0  0  0  0  0
    4.7856   30.9641   59.8008 C   0  0  1  0  0  0
    5.3156   29.6767   60.4251 C   0  0  0  0  0  0
    4.5098   28.5980   59.8564 N   0  0  0  0  0  0
    4.6299   27.1811   60.2572 C   0  0  0  0  0  0
    6.0777   26.7210   60.5844 C   0  0  0  0  0  0
    6.6091   27.1294   61.9777 C   0  0  0  0  0  0
    5.6257   26.7742   63.1079 C   0  0  0  0  0  0
    4.1979   27.2731   62.8176 C   0  0  0  0  0  0
    3.6982   26.7989   61.4377 C   0  0  0  0  0  0
    5.9469   31.7697   59.1768 C   0  0  0  0  0  0
    6.8014   32.2785   60.0877 N   0  0  0  0  0  0
    6.0761   31.8810   57.9548 O   0  0  0  0  0  0
    2.6895   28.3222   58.4304 O   0  0  0  0  0  0
    7.9385   33.0675   59.8840 C   0  0  0  0  0  0
    8.9295   33.0113   60.8605 C   0  0  0  0  0  0
   10.0824   33.8160   60.8183 C   0  0  0  0  0  0
   10.1789   34.7219   59.7453 C   0  0  0  0  0  0
    9.2311   34.7363   58.7253 C   0  0  0  0  0  0
    8.1052   33.9219   58.7973 C   0  0  0  0  0  0
   11.2333   33.5959   61.7622 C   0  0  0  0  0  0
   12.3032   34.5033   61.8304 C   0  0  0  0  0  0
   13.4597   34.1967   62.5406 C   0  0  0  0  0  0
   13.5546   32.9918   63.2263 C   0  0  0  0  0  0
   12.4874   32.1029   63.2266 C   0  0  0  0  0  0
   11.3320   32.4093   62.5123 C   0  0  0  0  0  0
    3.8895   30.7447   57.7759 H   0  0  0  0  0  0
    2.7567   30.9705   59.0795 H   0  0  0  0  0  0
    4.3650   31.6091   60.5756 H   0  0  0  0  0  0
    5.1813   29.6988   61.5057 H   0  0  0  0  0  0
    6.3715   29.4957   60.2132 H   0  0  0  0  0  0
    4.3009   26.5932   59.3980 H   0  0  0  0  0  0
    6.7645   27.0649   59.8092 H   0  0  0  0  0  0
    6.1027   25.6327   60.5168 H   0  0  0  0  0  0
    6.8298   28.1947   62.0102 H   0  0  0  0  0  0
    7.5656   26.6367   62.1567 H   0  0  0  0  0  0
    5.9815   27.1896   64.0526 H   0  0  0  0  0  0
    5.6085   25.6908   63.2417 H   0  0  0  0  0  0
    4.1624   28.3600   62.8729 H   0  0  0  0  0  0
    3.5209   26.9158   63.5946 H   0  0  0  0  0  0
    3.5875   25.7137   61.4566 H   0  0  0  0  0  0
    2.6926   27.1821   61.2577 H   0  0  0  0  0  0
    6.6377   32.0197   61.0474 H   0  0  0  0  0  0
    8.7831   32.3262   61.6801 H   0  0  0  0  0  0
   11.0401   35.3597   59.6210 H   0  0  0  0  0  0
    9.3579   35.4052   57.8871 H   0  0  0  0  0  0
    7.3543   33.9864   58.0288 H   0  0  0  0  0  0
   12.2810   35.4414   61.2974 H   0  0  0  0  0  0
   14.2909   34.8828   62.5379 H   0  0  0  0  0  0
   14.4583   32.7498   63.7679 H   0  0  0  0  0  0
   12.5640   31.1657   63.7587 H   0  0  0  0  0  0
   10.5553   31.6626   62.5016 H   0  0  0  0  0  0
  1 15  2  0  0  0
  1  5  1  0  0  0
  1  2  1  0  0  0
  2  3  1  0  0  0
  2 28  1  0  0  0
  2 29  1  0  0  0
  3 12  1  0  0  0
  3  4  1  0  0  0
  3 30  1  0  0  0
  4  5  1  0  0  0
  4 31  1  0  0  0
  4 32  1  0  0  0
  5  6  1  0  0  0
  6 11  1  0  0  0
  6  7  1  0  0  0
  6 33  1  0  0  0
  7  8  1  0  0  0
  7 34  1  0  0  0
  7 35  1  0  0  0
  8  9  1  0  0  0
  8 36  1  0  0  0
  8 37  1  0  0  0
  9 10  1  0  0  0
  9 38  1  0  0  0
  9 39  1  0  0  0
 10 11  1  0  0  0
 10 40  1  0  0  0
 10 41  1  0  0  0
 11 42  1  0  0  0
 11 43  1  0  0  0
 12 13  1  0  0  0
 12 14  2  0  0  0
 13 16  1  0  0  0
 13 44  1  0  0  0
 16 17  2  0  0  0
 16 21  1  0  0  0
 17 18  1  0  0  0
 17 45  1  0  0  0
 18 19  2  0  0  0
 18 22  1  0  0  0
 19 20  1  0  0  0
 19 46  1  0  0  0
 20 21  2  0  0  0
 20 47  1  0  0  0
 21 48  1  0  0  0
 22 23  2  0  0  0
 22 27  1  0  0  0
 23 24  1  0  0  0
 23 49  1  0  0  0
 24 25  2  0  0  0
 24 50  1  0  0  0
 25 26  1  0  0  0
 25 51  1  0  0  0
 26 27  2  0  0  0
 26 52  1  0  0  0
 27 53  1  0  0  0
M  END
> <s_m_entry_id>
8236

> <s_m_entry_name>
dock_pv.31

> <s_m_Source_Path>
/home/csk/Desktop/cluster/DUD-E-result/inha

> <s_m_Source_File>
dock_pv.maegz

> <i_m_Source_File_Index>
31

> <chembl_id>
CHEMBL441373

> <chembl_pref_name>
None

> <i_lp_mmshare_version>
53161

> <r_lp_tautomer_probability>
1

> <s_lp_Force_Field>
OPLS_2005

> <r_lp_Energy>
44.771026

> <b_lp_Chiralities_Consistent>
1

> <s_lp_Variant>
CHEMBL1849_lig25-2

> <s_i_glide_gridfile>
glide-grid_2h7l

> <i_i_glide_lignum>
39

> <i_i_glide_rotatable_bonds>
5

> <r_i_docking_score>
-8.18092010499798

> <r_i_glide_ligand_efficiency>
-0.302997040925851

> <r_i_glide_ligand_efficiency_sa>
-0.908991121778924

> <r_i_glide_ligand_efficiency_ln>
-1.9043833274347

> <r_i_glide_gscore>
-8.18092010499798

> <r_i_glide_lipo>
-4.13572078925969

> <r_i_glide_hbond>
0

> <r_i_glide_metal>
0

> <r_i_glide_rewards>
-2.12007533017493

> <r_i_glide_evdw>
-43.431453704834

> <r_i_glide_ecoul>
-3.2213876247406

> <r_i_glide_erotb>
0.73078848753412

> <r_i_glide_esite>
-0.00113164414467942

> <r_i_glide_emodel>
-65.4831526011967

> <r_i_glide_energy>
-46.6528413295746

> <r_i_glide_einternal>
3.47868728637695

> <i_i_glide_confnum>
61

> <i_i_glide_posenum>
216

> <r_i_glide_eff_state_penalty>
0

> <s_user_duplicate_titles>
CHEMBL1849_lig25

> <i_f3d_flags>
0

> <s_m_subgroup_title>
dock_pv

> <s_m_subgroupid>
dock_pv

> <b_m_subgroup_collapsed>
0

$$$$
CHEMBL1849_lig46
                    3D
 Schrodinger Suite 2021-1.
 42 44  0  0  1  0            999 V2000
    2.8120   29.4495   59.2486 C   0  0  0  0  0  0
    3.1550   28.1587   59.6529 C   0  0  0  0  0  0
    4.4690   27.7103   59.5168 C   0  0  0  0  0  0
    5.4374   28.5502   58.9673 C   0  0  0  0  0  0
    5.1004   29.8502   58.5669 C   0  0  0  0  0  0
    3.7812   30.2960   58.7124 C   0  0  0  0  0  0
    6.1573   30.7759   58.0270 C   0  0  0  0  0  0
    7.1396   31.1791   58.8760 N   0  0  0  0  0  0
    6.0977   31.1322   56.8482 O   0  0  0  0  0  0
    8.1864   32.1156   58.4064 C   0  0  0  0  0  0
    8.0213   33.4330   59.2007 C   0  0  0  0  0  0
    8.0360   33.2031   60.7323 C   0  0  0  0  0  0
    6.9005   32.2164   61.0537 C   0  0  0  0  0  0
    7.1282   30.8773   60.3289 C   0  0  0  0  0  0
    4.9019   26.1201   60.0289 Cl  0  0  0  0  0  0
    9.4002   32.6921   61.2756 C   0  0  0  0  0  0
   10.5046   33.7111   61.4957 C   0  0  0  0  0  0
   11.6453   33.3055   62.1948 C   0  0  0  0  0  0
   12.6660   34.2120   62.4515 C   0  0  0  0  0  0
   12.5203   35.5269   62.0284 C   0  0  0  0  0  0
   11.3826   35.9450   61.3487 C   0  0  0  0  0  0
   10.3819   35.0357   61.0638 C   0  0  0  0  0  0
    1.7958   29.8046   59.3595 H   0  0  0  0  0  0
    2.4019   27.5108   60.0768 H   0  0  0  0  0  0
    6.4537   28.1914   58.8677 H   0  0  0  0  0  0
    3.4981   31.2992   58.4255 H   0  0  0  0  0  0
    9.1540   31.6573   58.6018 H   0  0  0  0  0  0
    8.1449   32.3218   57.3356 H   0  0  0  0  0  0
    8.8305   34.0993   58.8986 H   0  0  0  0  0  0
    7.0931   33.9245   58.9005 H   0  0  0  0  0  0
    7.7692   34.1392   61.2277 H   0  0  0  0  0  0
    5.9239   32.6290   60.7927 H   0  0  0  0  0  0
    6.8720   32.0219   62.1282 H   0  0  0  0  0  0
    6.4090   30.1250   60.6471 H   0  0  0  0  0  0
    8.1011   30.4562   60.5834 H   0  0  0  0  0  0
    9.2352   32.2086   62.2408 H   0  0  0  0  0  0
    9.8036   31.9243   60.6256 H   0  0  0  0  0  0
   11.7408   32.2867   62.5409 H   0  0  0  0  0  0
   13.5530   33.9042   62.9860 H   0  0  0  0  0  0
   13.3040   36.2407   62.2224 H   0  0  0  0  0  0
   11.2844   36.9732   61.0329 H   0  0  0  0  0  0
    9.5063   35.3925   60.5444 H   0  0  0  0  0  0
  1  6  1  0  0  0
  1  2  2  0  0  0
  1 23  1  0  0  0
  2  3  1  0  0  0
  2 24  1  0  0  0
  3 15  1  0  0  0
  3  4  2  0  0  0
  4  5  1  0  0  0
  4 25  1  0  0  0
  5  6  2  0  0  0
  5  7  1  0  0  0
  6 26  1  0  0  0
  7  8  1  0  0  0
  7  9  2  0  0  0
  8 14  1  0  0  0
  8 10  1  0  0  0
 10 11  1  0  0  0
 10 27  1  0  0  0
 10 28  1  0  0  0
 11 12  1  0  0  0
 11 29  1  0  0  0
 11 30  1  0  0  0
 12 13  1  0  0  0
 12 16  1  0  0  0
 12 31  1  0  0  0
 13 14  1  0  0  0
 13 32  1  0  0  0
 13 33  1  0  0  0
 14 34  1  0  0  0
 14 35  1  0  0  0
 16 17  1  0  0  0
 16 36  1  0  0  0
 16 37  1  0  0  0
 17 18  2  0  0  0
 17 22  1  0  0  0
 18 19  1  0  0  0
 18 38  1  0  0  0
 19 20  2  0  0  0
 19 39  1  0  0  0
 20 21  1  0  0  0
 20 40  1  0  0  0
 21 22  2  0  0  0
 21 41  1  0  0  0
 22 42  1  0  0  0
M  END
> <s_m_entry_id>
8237

> <s_m_entry_name>
dock_pv.32

> <s_m_Source_Path>
/home/csk/Desktop/cluster/DUD-E-result/inha

> <s_m_Source_File>
dock_pv.maegz

> <i_m_Source_File_Index>
32

> <chembl_id>
CHEMBL240318

> <chembl_pref_name>
None

> <i_lp_mmshare_version>
53161

> <r_lp_tautomer_probability>
1

> <s_lp_Force_Field>
OPLS_2005

> <r_lp_Energy>
36.690283

> <b_lp_Chiralities_Consistent>
1

> <s_lp_Variant>
CHEMBL1849_lig46-1

> <s_i_glide_gridfile>
glide-grid_2h7l

> <i_i_glide_lignum>
96

> <i_i_glide_rotatable_bonds>
4

> <r_i_docking_score>
-8.17200245797282

> <r_i_glide_ligand_efficiency>
-0.371454657180583

> <r_i_glide_ligand_efficiency_sa>
-1.04083055790269

> <r_i_glide_ligand_efficiency_ln>
-1.99753548176076

> <r_i_glide_gscore>
-8.17200245797282

> <r_i_glide_lipo>
-3.90696834977925

> <r_i_glide_hbond>
-0.242584091571123

> <r_i_glide_metal>
0

> <r_i_glide_rewards>
-2.58073793422777

> <r_i_glide_evdw>
-33.1036529541016

> <r_i_glide_ecoul>
-3.60770320892334

> <r_i_glide_erotb>
0.754626046648902

> <r_i_glide_esite>
0

> <r_i_glide_emodel>
-51.5590401744869

> <r_i_glide_energy>
-36.7113561630249

> <r_i_glide_einternal>
5.93657302856445

> <i_i_glide_confnum>
127

> <i_i_glide_posenum>
166

> <r_i_glide_eff_state_penalty>
0

> <s_user_duplicate_titles>
CHEMBL1849_lig46

> <i_f3d_flags>
0

> <s_m_subgroup_title>
dock_pv

> <s_m_subgroupid>
dock_pv

> <b_m_subgroup_collapsed>
0

$$$$
CHEMBL1849_lig50
                    3D
 Schrodinger Suite 2021-1.
 47 49  0  0  1  0            999 V2000
   10.2890   34.7219   60.2612 C   0  0  0  0  0  0
   10.8741   33.9220   61.2469 C   0  0  0  0  0  0
   10.2418   32.7227   61.6278 C   0  0  0  0  0  0
    9.0455   32.3372   61.0047 C   0  0  0  0  0  0
    8.4795   33.1206   59.9895 C   0  0  0  0  0  0
    9.1083   34.3219   59.6372 C   0  0  0  0  0  0
    7.1602   32.7601   59.3418 C   0  0  0  0  0  0
    6.9186   31.4960   58.8959 N   0  0  0  0  0  0
    6.3240   33.6558   59.2279 O   0  0  0  0  0  0
    7.9439   30.4530   58.7400 C   0  0  0  0  0  0
    7.4009   29.1190   59.3226 C   0  0  0  0  0  0
    5.9397   28.9079   59.2630 N   0  0  0  0  0  0
    5.3479   29.6915   58.1657 C   0  0  0  0  0  0
    5.6067   31.2191   58.2720 C   0  0  0  0  0  0
    5.2868   27.8531   59.9088 C   0  0  0  0  0  0
    3.8839   27.7844   59.9491 C   0  0  0  0  0  0
    3.2257   26.7534   60.6160 C   0  0  0  0  0  0
    3.9595   25.7714   61.2724 C   0  0  0  0  0  0
    5.3562   25.8166   61.2754 C   0  0  0  0  0  0
    6.0065   26.8572   60.5941 C   0  0  0  0  0  0
   10.8137   31.8546   62.7382 C   0  0  0  0  0  0
   12.1881   34.3653   61.8762 C   0  0  0  0  0  0
    6.1344   24.7427   62.0370 C   0  0  0  0  0  0
    7.4516   24.9534   62.0314 F   0  0  0  0  0  0
    5.7246   24.7224   63.3057 F   0  0  0  0  0  0
    5.8962   23.5474   61.4967 F   0  0  0  0  0  0
   10.7515   35.6527   59.9651 H   0  0  0  0  0  0
    8.5391   31.4397   61.3304 H   0  0  0  0  0  0
    8.6804   34.9613   58.8777 H   0  0  0  0  0  0
    8.0382   30.3188   57.6617 H   0  0  0  0  0  0
    8.9484   30.7007   59.0786 H   0  0  0  0  0  0
    7.6554   29.1208   60.3836 H   0  0  0  0  0  0
    7.9005   28.3008   58.8017 H   0  0  0  0  0  0
    4.2843   29.5119   58.0278 H   0  0  0  0  0  0
    5.8254   29.3089   57.2630 H   0  0  0  0  0  0
    4.8388   31.5803   58.9582 H   0  0  0  0  0  0
    5.4979   31.6707   57.2872 H   0  0  0  0  0  0
    3.2688   28.5387   59.4855 H   0  0  0  0  0  0
    2.1463   26.7250   60.6331 H   0  0  0  0  0  0
    3.4383   24.9798   61.7934 H   0  0  0  0  0  0
    7.0861   26.8804   60.5967 H   0  0  0  0  0  0
   10.1351   31.0502   63.0245 H   0  0  0  0  0  0
   11.7631   31.4206   62.4282 H   0  0  0  0  0  0
   10.9965   32.4557   63.6267 H   0  0  0  0  0  0
   12.1044   34.4280   62.9604 H   0  0  0  0  0  0
   12.9724   33.6401   61.6573 H   0  0  0  0  0  0
   12.5104   35.3392   61.5063 H   0  0  0  0  0  0
  1  6  1  0  0  0
  1  2  2  0  0  0
  1 27  1  0  0  0
  2  3  1  0  0  0
  2 22  1  0  0  0
  3  4  2  0  0  0
  3 21  1  0  0  0
  4  5  1  0  0  0
  4 28  1  0  0  0
  5  7  1  0  0  0
  5  6  2  0  0  0
  6 29  1  0  0  0
  7  8  1  0  0  0
  7  9  2  0  0  0
  8 10  1  0  0  0
  8 14  1  0  0  0
 10 11  1  0  0  0
 10 30  1  0  0  0
 10 31  1  0  0  0
 11 12  1  0  0  0
 11 32  1  0  0  0
 11 33  1  0  0  0
 12 13  1  0  0  0
 12 15  1  0  0  0
 13 14  1  0  0  0
 13 34  1  0  0  0
 13 35  1  0  0  0
 14 36  1  0  0  0
 14 37  1  0  0  0
 15 16  2  0  0  0
 15 20  1  0  0  0
 16 17  1  0  0  0
 16 38  1  0  0  0
 17 18  2  0  0  0
 17 39  1  0  0  0
 18 19  1  0  0  0
 18 40  1  0  0  0
 19 20  2  0  0  0
 19 23  1  0  0  0
 20 41  1  0  0  0
 21 42  1  0  0  0
 21 43  1  0  0  0
 21 44  1  0  0  0
 22 45  1  0  0  0
 22 46  1  0  0  0
 22 47  1  0  0  0
 23 24  1  0  0  0
 23 25  1  0  0  0
 23 26  1  0  0  0
M  END
> <s_m_entry_id>
8238

> <s_m_entry_name>
dock_pv.33

> <s_m_Source_Path>
/home/csk/Desktop/cluster/DUD-E-result/inha

> <s_m_Source_File>
dock_pv.maegz

> <i_m_Source_File_Index>
33

> <chembl_id>
CHEMBL239890

> <chembl_pref_name>
None

> <i_lp_mmshare_version>
53161

> <r_lp_tautomer_probability>
1

> <s_lp_Force_Field>
OPLS_2005

> <r_lp_Energy>
50.177074

> <b_lp_Chiralities_Consistent>
1

> <s_lp_Variant>
CHEMBL1849_lig50-1

> <s_i_glide_gridfile>
glide-grid_2h7l

> <i_i_glide_lignum>
100

> <i_i_glide_rotatable_bonds>
4

> <r_i_docking_score>
-8.15822467750606

> <r_i_glide_ligand_efficiency>
-0.313777872211772

> <r_i_glide_ligand_efficiency_sa>
-0.929565711771066

> <r_i_glide_ligand_efficiency_ln>
-1.91593229619373

> <r_i_glide_gscore>
-8.15822467750606

> <r_i_glide_lipo>
-3.39150896108953

> <r_i_glide_hbond>
0

> <r_i_glide_metal>
0

> <r_i_glide_rewards>
-3.00580006165833

> <r_i_glide_evdw>
-38.7054595947266

> <r_i_glide_ecoul>
-1.76186525821686

> <r_i_glide_erotb>
0.438637113710649

> <r_i_glide_esite>
0

> <r_i_glide_emodel>
-58.3274760488846

> <r_i_glide_energy>
-40.4673248529434

> <r_i_glide_einternal>
2.74310922622681

> <i_i_glide_confnum>
143

> <i_i_glide_posenum>
97

> <r_i_glide_eff_state_penalty>
0

> <s_user_duplicate_titles>
CHEMBL1849_lig50

> <i_f3d_flags>
0

> <s_m_subgroup_title>
dock_pv

> <s_m_subgroupid>
dock_pv

> <b_m_subgroup_collapsed>
0

$$$$
CHEMBL1849_lig19
                    3D
 Schrodinger Suite 2021-1.
 46 48  0  0  1  0            999 V2000
    9.3042   33.4834   60.8281 N   0  0  0  0  0  0
   10.5241   33.4246   61.5462 C   0  0  0  0  0  0
   11.4111   34.5190   61.4632 C   0  0  0  0  0  0
   12.6469   34.4726   62.1203 C   0  0  0  0  0  0
   13.0324   33.3374   62.8272 C   0  0  0  0  0  0
   12.1683   32.2505   62.9006 C   0  0  0  0  0  0
   10.9054   32.3185   62.3176 C   0  0  0  0  0  0
   11.0652   35.7804   60.6893 C   0  0  0  0  0  0
   12.6929   30.7769   63.6279 Cl  0  0  0  0  0  0
    6.2474   31.8756   58.0273 C   0  0  0  0  0  0
    7.3112   32.8642   58.5045 C   0  0  0  0  0  0
    7.0521   33.1253   59.9819 C   0  0  1  0  0  0
    5.7367   32.3952   60.2640 C   0  0  0  0  0  0
    5.4888   31.5388   59.0977 N   0  0  0  0  0  0
    4.3137   30.6514   58.9177 C   0  0  0  0  0  0
    4.6825   29.2176   58.4286 C   0  0  0  0  0  0
    5.3989   28.3750   59.4985 C   0  0  0  0  0  0
    4.5014   28.2142   60.7350 C   0  0  0  0  0  0
    4.0108   29.5742   61.2652 C   0  0  0  0  0  0
    3.4068   30.4756   60.1642 C   0  0  0  0  0  0
    6.1041   31.5220   56.8549 O   0  0  0  0  0  0
    8.2550   32.6238   60.8061 C   0  0  0  0  0  0
    8.2064   31.5257   61.3627 O   0  0  0  0  0  0
    9.1861   34.3375   60.3073 H   0  0  0  0  0  0
   13.3287   35.3092   62.0596 H   0  0  0  0  0  0
   14.0094   33.2904   63.2855 H   0  0  0  0  0  0
   10.2724   31.4559   62.4273 H   0  0  0  0  0  0
   10.0520   36.0878   60.9135 H   0  0  0  0  0  0
   11.7023   36.6159   60.9780 H   0  0  0  0  0  0
   11.1483   35.6134   59.6168 H   0  0  0  0  0  0
    7.3041   33.8020   57.9584 H   0  0  0  0  0  0
    8.2852   32.4180   58.2857 H   0  0  0  0  0  0
    6.9398   34.1932   60.1864 H   0  0  0  0  0  0
    5.7174   31.9006   61.2337 H   0  0  0  0  0  0
    4.9279   33.1273   60.3095 H   0  0  0  0  0  0
    3.7057   31.1296   58.1485 H   0  0  0  0  0  0
    3.7742   28.7039   58.1092 H   0  0  0  0  0  0
    5.3073   29.2570   57.5388 H   0  0  0  0  0  0
    5.6601   27.3945   59.0979 H   0  0  0  0  0  0
    6.3400   28.8519   59.7789 H   0  0  0  0  0  0
    3.6401   27.5950   60.4789 H   0  0  0  0  0  0
    5.0376   27.6781   61.5185 H   0  0  0  0  0  0
    3.2548   29.4034   62.0279 H   0  0  0  0  0  0
    4.8404   30.0758   61.7586 H   0  0  0  0  0  0
    3.1357   31.4483   60.5750 H   0  0  0  0  0  0
    2.4601   30.0422   59.8403 H   0  0  0  0  0  0
  1  2  1  0  0  0
  1 22  1  0  0  0
  1 24  1  0  0  0
  2  7  2  0  0  0
  2  3  1  0  0  0
  3  4  2  0  0  0
  3  8  1  0  0  0
  4  5  1  0  0  0
  4 25  1  0  0  0
  5  6  2  0  0  0
  5 26  1  0  0  0
  6  7  1  0  0  0
  6  9  1  0  0  0
  7 27  1  0  0  0
  8 28  1  0  0  0
  8 29  1  0  0  0
  8 30  1  0  0  0
 10 14  1  0  0  0
 10 11  1  0  0  0
 10 21  2  0  0  0
 11 12  1  0  0  0
 11 31  1  0  0  0
 11 32  1  0  0  0
 12 13  1  0  0  0
 12 22  1  0  0  0
 12 33  1  0  0  0
 13 14  1  0  0  0
 13 34  1  0  0  0
 13 35  1  0  0  0
 14 15  1  0  0  0
 15 16  1  0  0  0
 15 20  1  0  0  0
 15 36  1  0  0  0
 16 17  1  0  0  0
 16 37  1  0  0  0
 16 38  1  0  0  0
 17 18  1  0  0  0
 17 39  1  0  0  0
 17 40  1  0  0  0
 18 19  1  0  0  0
 18 41  1  0  0  0
 18 42  1  0  0  0
 19 20  1  0  0  0
 19 43  1  0  0  0
 19 44  1  0  0  0
 20 45  1  0  0  0
 20 46  1  0  0  0
 22 23  2  0  0  0
M  END
> <s_m_entry_id>
8240

> <s_m_entry_name>
dock_pv.35

> <s_m_Source_Path>
/home/csk/Desktop/cluster/DUD-E-result/inha

> <s_m_Source_File>
dock_pv.maegz

> <i_m_Source_File_Index>
35

> <chembl_id>
CHEMBL425259

> <chembl_pref_name>
None

> <i_lp_mmshare_version>
53161

> <r_lp_tautomer_probability>
1

> <s_lp_Force_Field>
OPLS_2005

> <r_lp_Energy>
32.817383

> <b_lp_Chiralities_Consistent>
1

> <s_lp_Variant>
CHEMBL1849_lig19-2

> <s_i_glide_gridfile>
glide-grid_2h7l

> <i_i_glide_lignum>
27

> <i_i_glide_rotatable_bonds>
4

> <r_i_docking_score>
-8.07017728822204

> <r_i_glide_ligand_efficiency>
-0.350877273400958

> <r_i_glide_ligand_efficiency_sa>
-0.99784829076242

> <r_i_glide_ligand_efficiency_ln>
-1.95144204461397

> <r_i_glide_gscore>
-8.07017728822204

> <r_i_glide_lipo>
-3.6509773922095

> <r_i_glide_hbond>
-0.32

> <r_i_glide_metal>
0

> <r_i_glide_rewards>
-2.17666517826957

> <r_i_glide_evdw>
-34.1782722473145

> <r_i_glide_ecoul>
-5.91126108169556

> <r_i_glide_erotb>
0.673068056877081

> <r_i_glide_esite>
0

> <r_i_glide_emodel>
-56.6623063482767

> <r_i_glide_energy>
-40.08953332901

> <r_i_glide_einternal>
3.2947313785553

> <i_i_glide_confnum>
1

> <i_i_glide_posenum>
79

> <r_i_glide_eff_state_penalty>
0

> <s_user_duplicate_titles>
CHEMBL1849_lig19

> <i_f3d_flags>
0

> <s_m_subgroup_title>
dock_pv

> <s_m_subgroupid>
dock_pv

> <b_m_subgroup_collapsed>
0

$$$$
CHEMBL1849_lig42
                    3D
 Schrodinger Suite 2021-1.
 62 67  0  0  1  0            999 V2000
    5.0454   26.7624   61.8545 C   0  0  0  0  0  0
    8.3232   31.6807   59.1067 C   0  0  1  0  0  0
    7.3501   30.6697   58.6703 N   0  0  0  0  0  0
    6.1145   30.8848   58.1441 C   0  0  0  0  0  0
    5.3841   29.5559   58.2276 C   0  0  0  0  0  0
    6.4181   28.5182   58.6244 C   0  0  1  0  0  0
    7.6531   29.2865   59.0364 C   0  0  0  0  0  0
    5.6111   31.9209   57.7173 O   0  0  0  0  0  0
    8.3487   33.0802   58.4275 C   0  0  0  0  0  0
    8.2385   34.0392   59.6288 C   0  0  2  0  0  0
    8.1986   32.0424   60.6116 C   0  0  1  0  0  0
    9.0598   33.2996   60.6736 C   0  0  0  0  0  0
    6.8277   33.9638   60.2615 C   0  0  0  0  0  0
    6.8097   32.6045   60.9671 C   0  0  0  0  0  0
    5.8886   27.4941   59.6594 C   0  0  0  0  0  0
    5.5720   27.8088   60.9478 N   0  0  0  0  0  0
    5.6990   26.3595   59.2275 O   0  0  0  0  0  0
    5.7777   29.1146   61.5796 C   0  0  0  0  0  0
    3.8437   27.1657   62.7291 C   0  0  0  0  0  0
    1.6494   27.9234   64.2881 C   0  0  0  0  0  0
    2.6125   27.5251   62.0805 C   0  0  0  0  0  0
    1.5109   27.9339   62.8901 C   0  0  0  0  0  0
    0.2958   28.3422   62.2816 C   0  0  0  0  0  0
    0.1639   28.3350   60.8979 C   0  0  0  0  0  0
    1.2147   27.9110   60.0960 C   0  0  0  0  0  0
    2.4165   27.5006   60.6658 C   0  0  0  0  0  0
    2.8356   27.5363   64.9394 C   0  0  0  0  0  0
    3.9728   27.1590   64.1599 C   0  0  0  0  0  0
    5.1627   26.7966   64.8662 C   0  0  0  0  0  0
    5.1968   26.7803   66.2574 C   0  0  0  0  0  0
    4.0753   27.1295   66.9940 C   0  0  0  0  0  0
    2.9065   27.5201   66.3542 C   0  0  0  0  0  0
    4.7119   25.8851   61.2987 H   0  0  0  0  0  0
    5.8880   26.3920   62.4266 H   0  0  0  0  0  0
    9.3107   31.2529   58.9831 H   0  0  0  0  0  0
    4.5112   29.6171   58.8812 H   0  0  0  0  0  0
    5.0224   29.3585   57.2281 H   0  0  0  0  0  0
    6.7378   27.9228   57.7693 H   0  0  0  0  0  0
    8.5197   28.9615   58.4596 H   0  0  0  0  0  0
    7.8897   29.2139   60.0978 H   0  0  0  0  0  0
    7.5759   33.2727   57.6938 H   0  0  0  0  0  0
    9.3025   33.2391   57.9266 H   0  0  0  0  0  0
    8.5719   35.0613   59.4185 H   0  0  0  0  0  0
    8.5047   31.2456   61.2897 H   0  0  0  0  0  0
   10.1046   33.1368   60.4276 H   0  0  0  0  0  0
    9.0596   33.8115   61.6237 H   0  0  0  0  0  0
    6.0221   34.0749   59.5347 H   0  0  0  0  0  0
    6.7023   34.7216   61.0286 H   0  0  0  0  0  0
    6.7086   32.7230   62.0468 H   0  0  0  0  0  0
    5.9729   31.9925   60.6415 H   0  0  0  0  0  0
    6.0790   29.8877   60.8849 H   0  0  0  0  0  0
    4.8517   29.4694   62.0380 H   0  0  0  0  0  0
    6.5307   29.0425   62.3648 H   0  0  0  0  0  0
    0.8050   28.2222   64.8930 H   0  0  0  0  0  0
   -0.5312   28.6613   62.8989 H   0  0  0  0  0  0
   -0.7622   28.6575   60.4425 H   0  0  0  0  0  0
    1.0975   27.9016   59.0222 H   0  0  0  0  0  0
    3.2001   27.1634   60.0084 H   0  0  0  0  0  0
    6.0674   26.5181   64.3517 H   0  0  0  0  0  0
    6.1027   26.4933   66.7698 H   0  0  0  0  0  0
    4.1116   27.1149   68.0718 H   0  0  0  0  0  0
    2.0435   27.8077   66.9367 H   0  0  0  0  0  0
  1 16  1  0  0  0
  1 19  1  0  0  0
  1 33  1  0  0  0
  1 34  1  0  0  0
  2  3  1  0  0  0
  2  9  1  0  0  0
  2 11  1  0  0  0
  2 35  1  0  0  0
  3  7  1  0  0  0
  3  4  1  0  0  0
  4  8  2  0  0  0
  4  5  1  0  0  0
  5  6  1  0  0  0
  5 36  1  0  0  0
  5 37  1  0  0  0
  6  7  1  0  0  0
  6 15  1  0  0  0
  6 38  1  0  0  0
  7 39  1  0  0  0
  7 40  1  0  0  0
  9 10  1  0  0  0
  9 41  1  0  0  0
  9 42  1  0  0  0
 10 12  1  0  0  0
 10 13  1  0  0  0
 10 43  1  0  0  0
 11 12  1  0  0  0
 11 14  1  0  0  0
 11 44  1  0  0  0
 12 45  1  0  0  0
 12 46  1  0  0  0
 13 14  1  0  0  0
 13 47  1  0  0  0
 13 48  1  0  0  0
 14 49  1  0  0  0
 14 50  1  0  0  0
 15 16  1  0  0  0
 15 17  2  0  0  0
 16 18  1  0  0  0
 18 51  1  0  0  0
 18 52  1  0  0  0
 18 53  1  0  0  0
 19 28  2  0  0  0
 19 21  1  0  0  0
 20 27  2  0  0  0
 20 22  1  0  0  0
 20 54  1  0  0  0
 21 22  1  0  0  0
 21 26  2  0  0  0
 22 23  2  0  0  0
 23 24  1  0  0  0
 23 55  1  0  0  0
 24 25  2  0  0  0
 24 56  1  0  0  0
 25 26  1  0  0  0
 25 57  1  0  0  0
 26 58  1  0  0  0
 27 28  1  0  0  0
 27 32  1  0  0  0
 28 29  1  0  0  0
 29 30  2  0  0  0
 29 59  1  0  0  0
 30 31  1  0  0  0
 30 60  1  0  0  0
 31 32  2  0  0  0
 31 61  1  0  0  0
 32 62  1  0  0  0
M  END
> <s_m_entry_id>
8241

> <s_m_entry_name>
dock_pv.36

> <s_m_Source_Path>
/home/csk/Desktop/cluster/DUD-E-result/inha

> <s_m_Source_File>
dock_pv.maegz

> <i_m_Source_File_Index>
36

> <chembl_id>
CHEMBL426702

> <chembl_pref_name>
None

> <i_lp_mmshare_version>
53161

> <r_lp_tautomer_probability>
1

> <s_lp_Force_Field>
OPLS_2005

> <r_lp_Energy>
89.424573

> <b_lp_Chiralities_Consistent>
1

> <s_lp_Variant>
CHEMBL1849_lig42-8

> <s_i_glide_gridfile>
glide-grid_2h7l

> <i_i_glide_lignum>
91

> <i_i_glide_rotatable_bonds>
5

> <r_i_docking_score>
-8.06060716814743

> <r_i_glide_ligand_efficiency>
-0.251893974004607

> <r_i_glide_ligand_efficiency_sa>
-0.799713517714862

> <r_i_glide_ligand_efficiency_ln>
-1.80498966880105

> <r_i_glide_gscore>
-8.06060716814743

> <r_i_glide_lipo>
-4.04392725708958

> <r_i_glide_hbond>
-0.32

> <r_i_glide_metal>
0

> <r_i_glide_rewards>
-1.67290349308762

> <r_i_glide_evdw>
-38.8522987365723

> <r_i_glide_ecoul>
-3.44995284080505

> <r_i_glide_erotb>
0.436331444979144

> <r_i_glide_esite>
0

> <r_i_glide_emodel>
-54.7158021085781

> <r_i_glide_energy>
-42.3022515773773

> <r_i_glide_einternal>
13.7113466262817

> <i_i_glide_confnum>
11

> <i_i_glide_posenum>
171

> <r_i_glide_eff_state_penalty>
0

> <s_user_duplicate_titles>
CHEMBL1849_lig42,360413

> <i_f3d_flags>
0

> <s_m_subgroup_title>
dock_pv

> <s_m_subgroupid>
dock_pv

> <b_m_subgroup_collapsed>
0

$$$$
CHEMBL1849_lig9
                    3D
 Schrodinger Suite 2021-1.
 29 30  0  0  1  0            999 V2000
    6.8300   27.5220   59.2440 C   0  0  0  0  0  0
    5.5542   27.1643   59.6564 C   0  0  0  0  0  0
    4.5298   28.1055   59.6280 C   0  0  0  0  0  0
    4.7580   29.4274   59.1998 C   0  0  0  0  0  0
    6.0730   29.7727   58.7789 C   0  0  0  0  0  0
    7.0844   28.8059   58.7904 C   0  0  0  0  0  0
    3.6031   30.4175   59.2280 C   0  0  0  0  0  0
    2.4238   29.9220   59.6906 O   0  0  0  0  0  0
    3.7040   31.5863   58.8692 O   0  0  0  0  0  0
    6.4973   31.1178   58.2908 C   0  0  0  0  0  0
    6.1040   31.5219   57.1921 O   0  0  0  0  0  0
    7.4205   31.9383   59.1410 C   0  0  0  0  0  0
    7.9589   33.1118   58.6163 C   0  0  0  0  0  0
    8.9040   33.8825   59.3013 C   0  0  0  0  0  0
    9.3035   33.4575   60.5841 C   0  0  0  0  0  0
    8.7196   32.3220   61.1476 C   0  0  0  0  0  0
    7.7852   31.5679   60.4408 C   0  0  0  0  0  0
    9.4953   35.0449   58.5970 N   0  3  0  0  0  0
   10.1040   35.8991   59.2280 O   0  0  0  0  0  0
    9.3040   35.1220   57.3853 O   0  5  0  0  0  0
   10.5478   34.2371   61.5024 Cl  0  0  0  0  0  0
    7.6293   26.7952   59.2708 H   0  0  0  0  0  0
    5.3621   26.1587   60.0022 H   0  0  0  0  0  0
    3.5523   27.7851   59.9605 H   0  0  0  0  0  0
    8.0909   29.0397   58.4669 H   0  0  0  0  0  0
    1.7505   30.6261   59.6280 H   0  0  0  0  0  0
    7.6690   33.4204   57.6280 H   0  0  0  0  0  0
    9.0157   32.0026   62.1365 H   0  0  0  0  0  0
    7.3784   30.6820   60.9087 H   0  0  0  0  0  0
  1  6  1  0  0  0
  1  2  2  0  0  0
  1 22  1  0  0  0
  2  3  1  0  0  0
  2 23  1  0  0  0
  3  4  2  0  0  0
  3 24  1  0  0  0
  4  7  1  0  0  0
  4  5  1  0  0  0
  5  6  2  0  0  0
  5 10  1  0  0  0
  6 25  1  0  0  0
  7  8  1  0  0  0
  7  9  2  0  0  0
  8 26  1  0  0  0
 10 11  2  0  0  0
 10 12  1  0  0  0
 12 13  2  0  0  0
 12 17  1  0  0  0
 13 14  1  0  0  0
 13 27  1  0  0  0
 14 15  2  0  0  0
 14 18  1  0  0  0
 15 16  1  0  0  0
 15 21  1  0  0  0
 16 17  2  0  0  0
 16 28  1  0  0  0
 17 29  1  0  0  0
 18 19  2  0  0  0
 18 20  1  0  0  0
M  CHG  2  18   1  20  -1
M  END
> <s_m_entry_id>
8242

> <s_m_entry_name>
dock_pv.37

> <s_m_Source_Path>
/home/csk/Desktop/cluster/DUD-E-result/inha

> <s_m_Source_File>
dock_pv.maegz

> <i_m_Source_File_Index>
37

> <chembl_id>
CHEMBL2059070

> <chembl_pref_name>
None

> <i_lp_mmshare_version>
53161

> <r_lp_tautomer_probability>
1

> <s_lp_Force_Field>
OPLS_2005

> <r_lp_Energy>
28.039531

> <b_lp_Chiralities_Consistent>
1

> <s_lp_Variant>
CHEMBL1849_lig9-1

> <s_i_glide_gridfile>
glide-grid_2h7l

> <i_i_glide_lignum>
9

> <i_i_glide_rotatable_bonds>
5

> <r_i_docking_score>
-8.05592862980083

> <r_i_glide_ligand_efficiency>
-0.383615649038135

> <r_i_glide_ligand_efficiency_sa>
-1.05836648749537

> <r_i_glide_ligand_efficiency_ln>
-1.9918120751817

> <r_i_glide_gscore>
-8.05592862980083

> <r_i_glide_lipo>
-2.75119066561481

> <r_i_glide_hbond>
-0.269558647663085

> <r_i_glide_metal>
0

> <r_i_glide_rewards>
-2.41794617075467

> <r_i_glide_evdw>
-34.9335098266602

> <r_i_glide_ecoul>
-9.30157566070557

> <r_i_glide_erotb>
0.592737395665717

> <r_i_glide_esite>
-0.0680587009951346

> <r_i_glide_emodel>
-65.8071328940324

> <r_i_glide_energy>
-44.2350854873657

> <r_i_glide_einternal>
2.019451379776

> <i_i_glide_confnum>
10

> <i_i_glide_posenum>
369

> <r_i_glide_eff_state_penalty>
0

> <s_user_duplicate_titles>
CHEMBL1849_lig9

> <i_f3d_flags>
0

> <s_m_subgroup_title>
dock_pv

> <s_m_subgroupid>
dock_pv

> <b_m_subgroup_collapsed>
0

$$$$
CHEMBL1849_lig109
                    3D
 Schrodinger Suite 2021-1.
 45 48  0  0  1  0            999 V2000
   13.3629   32.5040   63.2204 C   0  0  0  0  0  0
   12.0883   32.0274   62.9262 C   0  0  0  0  0  0
   11.1575   32.8446   62.2846 C   0  0  0  0  0  0
   11.4814   34.1672   61.9307 C   0  0  0  0  0  0
   12.7589   34.6348   62.2566 C   0  0  0  0  0  0
   13.7015   33.8072   62.8654 C   0  0  0  0  0  0
   10.4665   35.1520   61.3059 C   0  0  0  0  0  0
    9.7600   34.7179   60.1104 N   0  0  0  0  0  0
    8.7166   33.8412   60.0309 C   0  0  0  0  0  0
    8.4996   33.6063   58.6862 C   0  0  0  0  0  0
    9.3042   34.5685   58.0755 C   0  0  0  0  0  0
   10.1055   35.1870   58.9100 N   0  0  0  0  0  0
   13.0762   35.9214   62.0281 F   0  0  0  0  0  0
    9.9414   32.3220   62.0278 F   0  0  0  0  0  0
    7.6860   32.7128   58.0452 N   0  0  0  0  0  0
    5.2528   29.1563   61.0473 C   0  0  1  0  0  0
    5.7047   29.6780   62.4281 C   0  0  0  0  0  0
    3.8641   29.4443   60.9890 O   0  0  0  0  0  0
    7.0285   31.6114   58.5436 C   0  0  0  0  0  0
    7.3124   30.9603   60.1263 S   0  0  0  0  0  0
    5.9361   29.9171   59.9011 C   0  0  0  0  0  0
    5.4795   29.9866   58.6664 N   0  0  0  0  0  0
    6.1056   30.9584   57.8868 N   0  0  0  0  0  0
    5.4662   27.6381   60.9878 C   0  0  0  0  0  0
    4.2660   26.4838   60.4688 S   0  0  0  0  0  0
    5.3030   25.2037   61.0038 C   0  0  0  0  0  0
    6.4767   25.7438   61.5081 C   0  0  0  0  0  0
    6.5541   27.0600   61.4569 N   0  0  0  0  0  0
    7.6724   24.9991   62.0563 C   0  0  0  0  0  0
   14.0838   31.8698   63.7178 H   0  0  0  0  0  0
   11.8151   31.0191   63.1996 H   0  0  0  0  0  0
   14.6802   34.1968   63.1045 H   0  0  0  0  0  0
   10.9452   36.1054   61.0729 H   0  0  0  0  0  0
    9.7022   35.4085   62.0277 H   0  0  0  0  0  0
    8.2848   33.4226   60.9260 H   0  0  0  0  0  0
    9.3845   34.7340   57.0113 H   0  0  0  0  0  0
    7.5990   32.8923   57.0615 H   0  0  0  0  0  0
    6.7804   29.5492   62.5358 H   0  0  0  0  0  0
    5.5051   30.7439   62.5455 H   0  0  0  0  0  0
    5.2436   29.1220   63.2461 H   0  0  0  0  0  0
    3.7425   30.3973   60.9610 H   0  0  0  0  0  0
    5.0207   24.1662   60.9080 H   0  0  0  0  0  0
    7.5987   23.9257   61.8706 H   0  0  0  0  0  0
    7.7694   25.1220   63.1348 H   0  0  0  0  0  0
    8.6051   25.3327   61.5995 H   0  0  0  0  0  0
  1  2  2  0  0  0
  1  6  1  0  0  0
  1 30  1  0  0  0
  2  3  1  0  0  0
  2 31  1  0  0  0
  3  4  2  0  0  0
  3 14  1  0  0  0
  4  5  1  0  0  0
  4  7  1  0  0  0
  5  6  2  0  0  0
  5 13  1  0  0  0
  6 32  1  0  0  0
  7  8  1  0  0  0
  7 33  1  0  0  0
  7 34  1  0  0  0
  8  9  1  0  0  0
  8 12  1  0  0  0
  9 10  2  0  0  0
  9 35  1  0  0  0
 10 11  1  0  0  0
 10 15  1  0  0  0
 11 12  2  0  0  0
 11 36  1  0  0  0
 15 19  1  0  0  0
 15 37  1  0  0  0
 16 17  1  0  0  0
 16 18  1  0  0  0
 16 21  1  0  0  0
 16 24  1  0  0  0
 17 38  1  0  0  0
 17 39  1  0  0  0
 17 40  1  0  0  0
 18 41  1  0  0  0
 19 20  1  0  0  0
 19 23  2  0  0  0
 20 21  1  0  0  0
 21 22  2  0  0  0
 22 23  1  0  0  0
 24 25  1  0  0  0
 24 28  2  0  0  0
 25 26  1  0  0  0
 26 27  2  0  0  0
 26 42  1  0  0  0
 27 28  1  0  0  0
 27 29  1  0  0  0
 29 43  1  0  0  0
 29 44  1  0  0  0
 29 45  1  0  0  0
M  END
> <s_m_entry_id>
8243

> <s_m_entry_name>
dock_pv.38

> <s_m_Source_Path>
/home/csk/Desktop/cluster/DUD-E-result/inha

> <s_m_Source_File>
dock_pv.maegz

> <i_m_Source_File_Index>
38

> <chembl_id>
CHEMBL3088174

> <chembl_pref_name>
None

> <i_lp_mmshare_version>
53161

> <r_lp_tautomer_probability>
1

> <s_lp_Force_Field>
OPLS_2005

> <r_lp_Energy>
7.047952

> <b_lp_Chiralities_Consistent>
1

> <s_lp_Variant>
CHEMBL1849_lig109-2

> <s_i_glide_gridfile>
glide-grid_2h7l

> <i_i_glide_lignum>
168

> <i_i_glide_rotatable_bonds>
7

> <r_i_docking_score>
-8.03552816545923

> <r_i_glide_ligand_efficiency>
-0.277087178119284

> <r_i_glide_ligand_efficiency_sa>
-0.851299598562161

> <r_i_glide_ligand_efficiency_ln>
-1.83993218647708

> <r_i_glide_gscore>
-8.03552816545923

> <r_i_glide_lipo>
-4.02960405606279

> <r_i_glide_hbond>
-0.32

> <r_i_glide_metal>
0

> <r_i_glide_rewards>
-2.09189842041416

> <r_i_glide_evdw>
-44.9728889465332

> <r_i_glide_ecoul>
0.144146472215652

> <r_i_glide_erotb>
0.632996787512037

> <r_i_glide_esite>
0

> <r_i_glide_emodel>
-61.0577877554215

> <r_i_glide_energy>
-44.8287424743176

> <r_i_glide_einternal>
10.2192192077637

> <i_i_glide_confnum>
89

> <i_i_glide_posenum>
320

> <r_i_glide_eff_state_penalty>
0

> <s_user_duplicate_titles>
CHEMBL1849_lig109

> <i_f3d_flags>
0

> <s_m_subgroup_title>
dock_pv

> <s_m_subgroupid>
dock_pv

> <b_m_subgroup_collapsed>
0

$$$$
CHEMBL1849_lig173
                    3D
 Schrodinger Suite 2021-1.
 36 38  0  0  1  0            999 V2000
    6.0258   27.3450   61.0402 C   0  0  0  0  0  0
    6.4279   28.3857   61.9066 C   0  0  0  0  0  0
    6.5318   29.7112   61.4630 C   0  0  0  0  0  0
    5.7504   27.6551   59.6932 C   0  0  0  0  0  0
    5.8783   28.9742   59.2742 C   0  0  0  0  0  0
    6.2397   29.9803   60.1269 C   0  0  0  0  0  0
    6.1925   31.1339   59.3751 N   0  0  0  0  0  0
    5.8411   30.8124   58.0543 C   0  0  0  0  0  0
    5.6619   29.4679   58.0281 O   0  0  0  0  0  0
    5.7059   31.5223   57.0584 O   0  0  0  0  0  0
    6.4419   32.5115   59.8357 C   0  0  0  0  0  0
    7.8808   32.9516   59.5184 C   0  0  0  0  0  0
    8.5041   32.4501   58.5836 O   0  0  0  0  0  0
    8.3851   33.9094   60.3121 N   0  0  0  0  0  0
    9.7406   34.4692   60.2200 C   0  0  0  0  0  0
   10.7665   33.9395   61.2280 C   0  0  0  0  0  0
   11.9177   34.6885   61.4955 C   0  0  0  0  0  0
   12.8385   34.2045   62.4267 C   0  0  0  0  0  0
   12.5799   33.0013   63.0853 C   0  0  0  0  0  0
   11.3969   32.3218   62.7940 C   0  0  0  0  0  0
   10.5044   32.7643   61.8706 N   0  0  0  0  0  0
    5.8784   25.9544   61.5428 N   0  3  0  0  0  0
    5.3039   25.1334   60.8301 O   0  0  0  0  0  0
    6.3148   25.6848   62.6602 O   0  5  0  0  0  0
    6.6453   28.1660   62.9419 H   0  0  0  0  0  0
    6.8243   30.4936   62.1510 H   0  0  0  0  0  0
    5.4379   26.8859   59.0043 H   0  0  0  0  0  0
    6.2563   32.5836   60.9063 H   0  0  0  0  0  0
    5.7601   33.1973   59.3349 H   0  0  0  0  0  0
    7.8310   34.2329   61.0909 H   0  0  0  0  0  0
    9.6579   35.5478   60.3554 H   0  0  0  0  0  0
   10.1627   34.3271   59.2215 H   0  0  0  0  0  0
   12.1020   35.6199   60.9806 H   0  0  0  0  0  0
   13.7437   34.7549   62.6379 H   0  0  0  0  0  0
   13.2767   32.6092   63.8112 H   0  0  0  0  0  0
   11.1543   31.3923   63.2876 H   0  0  0  0  0  0
  1  2  2  0  0  0
  1  4  1  0  0  0
  1 22  1  0  0  0
  2  3  1  0  0  0
  2 25  1  0  0  0
  3  6  2  0  0  0
  3 26  1  0  0  0
  4  5  2  0  0  0
  4 27  1  0  0  0
  5  6  1  0  0  0
  5  9  1  0  0  0
  6  7  1  0  0  0
  7  8  1  0  0  0
  7 11  1  0  0  0
  8  9  1  0  0  0
  8 10  2  0  0  0
 11 12  1  0  0  0
 11 28  1  0  0  0
 11 29  1  0  0  0
 12 13  2  0  0  0
 12 14  1  0  0  0
 14 15  1  0  0  0
 14 30  1  0  0  0
 15 16  1  0  0  0
 15 31  1  0  0  0
 15 32  1  0  0  0
 16 17  2  0  0  0
 16 21  1  0  0  0
 17 18  1  0  0  0
 17 33  1  0  0  0
 18 19  2  0  0  0
 18 34  1  0  0  0
 19 20  1  0  0  0
 19 35  1  0  0  0
 20 21  2  0  0  0
 20 36  1  0  0  0
 22 23  2  0  0  0
 22 24  1  0  0  0
M  CHG  2  22   1  24  -1
M  END
> <s_m_entry_id>
8244

> <s_m_entry_name>
dock_pv.39

> <s_m_Source_Path>
/home/csk/Desktop/cluster/DUD-E-result/inha

> <s_m_Source_File>
dock_pv.maegz

> <i_m_Source_File_Index>
39

> <chembl_id>
CHEMBL3343858

> <chembl_pref_name>
None

> <i_lp_mmshare_version>
53161

> <r_lp_tautomer_probability>
1

> <s_lp_Force_Field>
OPLS_2005

> <r_lp_Energy>
21.208681

> <b_lp_Chiralities_Consistent>
1

> <s_lp_Variant>
CHEMBL1849_lig173-1

> <s_i_glide_gridfile>
glide-grid_2h7l

> <i_i_glide_lignum>
240

> <i_i_glide_rotatable_bonds>
6

> <r_i_docking_score>
-8.01562398446727

> <r_i_glide_ligand_efficiency>
-0.333984332686136

> <r_i_glide_ligand_efficiency_sa>
-0.963377519591418

> <r_i_glide_ligand_efficiency_ln>
-1.91850663250065

> <r_i_glide_gscore>
-8.01562398446727

> <r_i_glide_lipo>
-3.33525566492131

> <r_i_glide_hbond>
-0.206129940744414

> <r_i_glide_metal>
0

> <r_i_glide_rewards>
-2.32818185419644

> <r_i_glide_evdw>
-43.589973449707

> <r_i_glide_ecoul>
-4.37524652481079

> <r_i_glide_erotb>
0.697035405632135

> <r_i_glide_esite>
-0.00730627903027874

> <r_i_glide_emodel>
-70.1657992517458

> <r_i_glide_energy>
-47.9652199745178

> <r_i_glide_einternal>
3.56553602218628

> <i_i_glide_confnum>
11

> <i_i_glide_posenum>
309

> <r_i_glide_eff_state_penalty>
0

> <s_user_duplicate_titles>
CHEMBL1849_lig173

> <i_f3d_flags>
0

> <s_m_subgroup_title>
dock_pv

> <s_m_subgroupid>
dock_pv

> <b_m_subgroup_collapsed>
0

$$$$
CHEMBL1849_lig193
                    3D
 Schrodinger Suite 2021-1.
 44 47  0  0  1  0            999 V2000
    5.7007   27.1306   63.9204 C   0  0  0  0  0  0
    4.3131   27.0337   64.0531 C   0  0  0  0  0  0
    3.4818   27.4223   63.0000 C   0  0  0  0  0  0
    6.2630   27.6193   62.7389 C   0  0  0  0  0  0
    5.4229   28.0114   61.6922 C   0  0  0  0  0  0
    4.0384   27.9127   61.8205 C   0  0  0  0  0  0
    3.1805   28.2846   60.7821 N   0  0  0  0  0  0
    3.6557   28.7497   59.6849 C   0  0  0  0  0  0
    5.0249   28.8874   59.4634 N   0  0  0  0  0  0
    5.9867   28.5690   60.4065 C   0  0  0  0  0  0
    7.1910   28.7483   60.2330 O   0  0  0  0  0  0
    5.5571   29.3937   58.1579 C   0  0  0  0  0  0
    5.8132   30.9155   58.1052 C   0  0  0  0  0  0
    5.7410   31.6294   59.2422 N   0  0  0  0  0  0
    6.1040   31.4221   57.0215 O   0  0  0  0  0  0
    6.1741   33.0197   59.3855 C   0  0  0  0  0  0
    7.5614   33.1340   59.9991 C   0  0  0  0  0  0
    8.2455   31.9221   61.0657 S   0  0  0  0  0  0
    8.3321   34.1680   59.7771 N   0  0  0  0  0  0
    2.6550   29.1228   58.6039 C   0  0  0  0  0  0
    9.5066   34.0975   60.4604 C   0  0  0  0  0  0
    9.6777   32.9221   61.2281 C   0  0  0  0  0  0
   10.8226   32.7163   62.0094 C   0  0  0  0  0  0
   11.8318   33.6889   61.9929 C   0  0  0  0  0  0
   11.6528   34.8583   61.2370 C   0  0  0  0  0  0
   10.5052   35.0803   60.4688 C   0  0  0  0  0  0
   13.1032   33.4431   62.7165 N   0  3  0  0  0  0
   13.2713   32.3486   63.2467 O   0  0  0  0  0  0
   13.9561   34.3219   62.7187 O   0  5  0  0  0  0
    6.3414   26.8285   64.7367 H   0  0  0  0  0  0
    3.8834   26.6577   64.9699 H   0  0  0  0  0  0
    2.4094   27.3466   63.0955 H   0  0  0  0  0  0
    7.3391   27.6958   62.6503 H   0  0  0  0  0  0
    6.4930   28.8935   57.8993 H   0  0  0  0  0  0
    4.9039   29.1223   57.3400 H   0  0  0  0  0  0
    5.4634   31.1536   60.0903 H   0  0  0  0  0  0
    6.1413   33.5222   58.4282 H   0  0  0  0  0  0
    5.4463   33.5329   60.0166 H   0  0  0  0  0  0
    1.6442   29.2286   59.0038 H   0  0  0  0  0  0
    2.9045   30.0777   58.1482 H   0  0  0  0  0  0
    2.6226   28.3642   57.8222 H   0  0  0  0  0  0
   10.9285   31.8118   62.5931 H   0  0  0  0  0  0
   12.4281   35.6122   61.2276 H   0  0  0  0  0  0
   10.3946   35.9892   59.8972 H   0  0  0  0  0  0
  1  2  2  0  0  0
  1  4  1  0  0  0
  1 30  1  0  0  0
  2  3  1  0  0  0
  2 31  1  0  0  0
  3  6  2  0  0  0
  3 32  1  0  0  0
  4  5  2  0  0  0
  4 33  1  0  0  0
  5  6  1  0  0  0
  5 10  1  0  0  0
  6  7  1  0  0  0
  7  8  2  0  0  0
  8  9  1  0  0  0
  8 20  1  0  0  0
  9 10  1  0  0  0
  9 12  1  0  0  0
 10 11  2  0  0  0
 12 13  1  0  0  0
 12 34  1  0  0  0
 12 35  1  0  0  0
 13 14  1  0  0  0
 13 15  2  0  0  0
 14 16  1  0  0  0
 14 36  1  0  0  0
 16 17  1  0  0  0
 16 37  1  0  0  0
 16 38  1  0  0  0
 17 18  1  0  0  0
 17 19  2  0  0  0
 18 22  1  0  0  0
 19 21  1  0  0  0
 20 39  1  0  0  0
 20 40  1  0  0  0
 20 41  1  0  0  0
 21 22  2  0  0  0
 21 26  1  0  0  0
 22 23  1  0  0  0
 23 24  2  0  0  0
 23 42  1  0  0  0
 24 25  1  0  0  0
 24 27  1  0  0  0
 25 26  2  0  0  0
 25 43  1  0  0  0
 26 44  1  0  0  0
 27 28  2  0  0  0
 27 29  1  0  0  0
M  CHG  2  27   1  29  -1
M  END
> <s_m_entry_id>
8245

> <s_m_entry_name>
dock_pv.40

> <s_m_Source_Path>
/home/csk/Desktop/cluster/DUD-E-result/inha

> <s_m_Source_File>
dock_pv.maegz

> <i_m_Source_File_Index>
40

> <chembl_id>
CHEMBL3331295

> <chembl_pref_name>
None

> <i_lp_mmshare_version>
53161

> <r_lp_tautomer_probability>
1

> <s_lp_Force_Field>
OPLS_2005

> <r_lp_Energy>
21.032556

> <b_lp_Chiralities_Consistent>
1

> <s_lp_Variant>
CHEMBL1849_lig193-1

> <s_i_glide_gridfile>
glide-grid_2h7l

> <i_i_glide_lignum>
260

> <i_i_glide_rotatable_bonds>
6

> <r_i_docking_score>
-8.01412221898289

> <r_i_glide_ligand_efficiency>
-0.276349042033893

> <r_i_glide_ligand_efficiency_sa>
-0.849031810649914

> <r_i_glide_ligand_efficiency_ln>
-1.83503076754196

> <r_i_glide_gscore>
-8.01412221898289

> <r_i_glide_lipo>
-3.31898018017428

> <r_i_glide_hbond>
-0.32

> <r_i_glide_metal>
0

> <r_i_glide_rewards>
-2.17895293190635

> <r_i_glide_evdw>
-43.8084487915039

> <r_i_glide_ecoul>
-3.95406627655029

> <r_i_glide_erotb>
0.587343274155486

> <r_i_glide_esite>
0

> <r_i_glide_emodel>
-67.9750803525018

> <r_i_glide_energy>
-47.7625150680542

> <r_i_glide_einternal>
3.91775155067444

> <i_i_glide_confnum>
19

> <i_i_glide_posenum>
363

> <r_i_glide_eff_state_penalty>
0

> <s_user_duplicate_titles>
CHEMBL1849_lig193

> <i_f3d_flags>
0

> <s_m_subgroup_title>
dock_pv

> <s_m_subgroupid>
dock_pv

> <b_m_subgroup_collapsed>
0

$$$$
CHEMBL1849_lig168
                    3D
 Schrodinger Suite 2021-1.
 59 62  0  0  1  0            999 V2000
    4.4775   28.8768   58.4272 C   0  0  0  0  0  0
    4.3935   28.3431   59.7890 N   0  0  0  0  0  0
    3.3986   29.1057   60.5873 C   0  0  1  0  0  0
    2.9237   30.2121   59.6189 C   0  0  0  0  0  0
    4.0137   30.3217   58.5642 C   0  0  1  0  0  0
    2.2009   28.2752   61.1125 C   0  0  0  0  0  0
    1.8897   28.3461   62.3010 O   0  0  0  0  0  0
    5.0889   27.2170   60.1158 C   0  0  0  0  0  0
    5.0884   26.7328   61.5518 C   0  0  0  0  0  0
    5.7038   26.5749   59.2604 O   0  0  0  0  0  0
    1.5767   27.4667   60.2353 N   0  0  0  0  0  0
    0.4249   26.6223   60.5433 C   0  0  0  0  0  0
   -0.8921   27.4120   60.6226 C   0  0  0  0  0  0
    5.0769   31.2147   59.0132 N   0  0  0  0  0  0
    6.0466   31.7262   58.2380 C   0  0  0  0  0  0
    7.0227   32.5653   58.9112 C   0  0  0  0  0  0
    6.1039   31.5218   57.0230 O   0  0  0  0  0  0
    8.1899   33.1279   58.3958 C   0  0  0  0  0  0
    8.7256   33.9795   59.3611 C   0  0  0  0  0  0
    7.9972   33.9216   60.4465 N   0  0  0  0  0  0
    7.0078   33.0506   60.2082 N   0  0  0  0  0  0
    6.0724   32.7931   61.2971 C   0  0  0  0  0  0
    5.2463   27.6272   62.6213 C   0  0  0  0  0  0
    4.8414   24.8764   63.1165 C   0  0  0  0  0  0
    4.9305   25.3689   61.8171 C   0  0  0  0  0  0
    4.9115   25.7890   64.1771 C   0  0  0  0  0  0
    5.1193   27.1785   63.9422 C   0  0  0  0  0  0
    5.1557   27.9203   65.1537 C   0  0  0  0  0  0
    4.9649   27.1341   66.2668 C   0  0  0  0  0  0
    4.7687   25.4467   65.8965 S   0  0  0  0  0  0
    9.9296   34.9023   59.2695 C   0  0  0  0  0  0
   10.7874   34.9420   60.5489 C   0  0  0  0  0  0
    3.7781   28.3218   57.8014 H   0  0  0  0  0  0
    5.4753   28.8133   57.9898 H   0  0  0  0  0  0
    3.8424   29.5728   61.4647 H   0  0  0  0  0  0
    2.6942   31.1501   60.1265 H   0  0  0  0  0  0
    2.0070   29.9215   59.0981 H   0  0  0  0  0  0
    3.5862   30.7228   57.6434 H   0  0  0  0  0  0
    1.9146   27.4432   59.2849 H   0  0  0  0  0  0
    0.3420   25.8636   59.7629 H   0  0  0  0  0  0
    0.5918   26.0775   61.4748 H   0  0  0  0  0  0
   -1.7299   26.7480   60.8399 H   0  0  0  0  0  0
   -0.8586   28.1649   61.4114 H   0  0  0  0  0  0
   -1.1121   27.9155   59.6785 H   0  0  0  0  0  0
    5.1483   31.3484   60.0117 H   0  0  0  0  0  0
    8.5992   32.9822   57.4091 H   0  0  0  0  0  0
    5.8979   31.7220   61.3978 H   0  0  0  0  0  0
    5.1374   33.3245   61.1097 H   0  0  0  0  0  0
    6.5039   33.1220   62.2393 H   0  0  0  0  0  0
    5.4444   28.6717   62.4416 H   0  0  0  0  0  0
    4.6930   23.8210   63.2946 H   0  0  0  0  0  0
    4.8484   24.6732   60.9934 H   0  0  0  0  0  0
    5.3024   28.9865   65.1950 H   0  0  0  0  0  0
    4.9278   27.4634   67.2936 H   0  0  0  0  0  0
   10.5635   34.6157   58.4304 H   0  0  0  0  0  0
    9.6063   35.9156   59.0318 H   0  0  0  0  0  0
   11.6619   35.5813   60.4184 H   0  0  0  0  0  0
   10.2179   35.3363   61.3933 H   0  0  0  0  0  0
   11.1415   33.9494   60.8282 H   0  0  0  0  0  0
  1  2  1  0  0  0
  1  5  1  0  0  0
  1 33  1  0  0  0
  1 34  1  0  0  0
  2  3  1  0  0  0
  2  8  1  0  0  0
  3  4  1  0  0  0
  3  6  1  0  0  0
  3 35  1  0  0  0
  4  5  1  0  0  0
  4 36  1  0  0  0
  4 37  1  0  0  0
  5 14  1  0  0  0
  5 38  1  0  0  0
  6  7  2  0  0  0
  6 11  1  0  0  0
  8  9  1  0  0  0
  8 10  2  0  0  0
  9 23  2  0  0  0
  9 25  1  0  0  0
 11 12  1  0  0  0
 11 39  1  0  0  0
 12 13  1  0  0  0
 12 40  1  0  0  0
 12 41  1  0  0  0
 13 42  1  0  0  0
 13 43  1  0  0  0
 13 44  1  0  0  0
 14 15  1  0  0  0
 14 45  1  0  0  0
 15 16  1  0  0  0
 15 17  2  0  0  0
 16 18  2  0  0  0
 16 21  1  0  0  0
 18 19  1  0  0  0
 18 46  1  0  0  0
 19 20  2  0  0  0
 19 31  1  0  0  0
 20 21  1  0  0  0
 21 22  1  0  0  0
 22 47  1  0  0  0
 22 48  1  0  0  0
 22 49  1  0  0  0
 23 27  1  0  0  0
 23 50  1  0  0  0
 24 26  1  0  0  0
 24 25  2  0  0  0
 24 51  1  0  0  0
 25 52  1  0  0  0
 26 27  2  0  0  0
 26 30  1  0  0  0
 27 28  1  0  0  0
 28 29  2  0  0  0
 28 53  1  0  0  0
 29 30  1  0  0  0
 29 54  1  0  0  0
 31 32  1  0  0  0
 31 55  1  0  0  0
 31 56  1  0  0  0
 32 57  1  0  0  0
 32 58  1  0  0  0
 32 59  1  0  0  0
M  END
> <s_m_entry_id>
8246

> <s_m_entry_name>
dock_pv.41

> <s_m_Source_Path>
/home/csk/Desktop/cluster/DUD-E-result/inha

> <s_m_Source_File>
dock_pv.maegz

> <i_m_Source_File_Index>
41

> <chembl_id>
CHEMBL3125273

> <chembl_pref_name>
None

> <i_lp_mmshare_version>
53161

> <r_lp_tautomer_probability>
1

> <s_lp_Force_Field>
OPLS_2005

> <r_lp_Energy>
21.77225

> <b_lp_Chiralities_Consistent>
1

> <s_lp_Variant>
CHEMBL1849_lig168-1

> <s_i_glide_gridfile>
glide-grid_2h7l

> <i_i_glide_lignum>
235

> <i_i_glide_rotatable_bonds>
9

> <r_i_docking_score>
-7.99971199645963

> <r_i_glide_ligand_efficiency>
-0.249990999889363

> <r_i_glide_ligand_efficiency_sa>
-0.793671951497029

> <r_i_glide_ligand_efficiency_ln>
-1.79135357992046

> <r_i_glide_gscore>
-7.99971199645963

> <r_i_glide_lipo>
-3.25979018552681

> <r_i_glide_hbond>
-0.6068363406878

> <r_i_glide_metal>
0

> <r_i_glide_rewards>
-1.41353611576276

> <r_i_glide_evdw>
-48.4561500549316

> <r_i_glide_ecoul>
-6.4651665687561

> <r_i_glide_erotb>
0.683074145764904

> <r_i_glide_esite>
-0.0100410121871616

> <r_i_glide_emodel>
-76.7487128519336

> <r_i_glide_energy>
-54.9213166236877

> <r_i_glide_einternal>
7.97450304031372

> <i_i_glide_confnum>
88

> <i_i_glide_posenum>
296

> <r_i_glide_eff_state_penalty>
0

> <s_user_duplicate_titles>
CHEMBL1849_lig168

> <i_f3d_flags>
0

> <s_m_subgroup_title>
dock_pv

> <s_m_subgroupid>
dock_pv

> <b_m_subgroup_collapsed>
0

$$$$
CHEMBL1849_lig21
                    3D
 Schrodinger Suite 2021-1.
 46 48  0  0  1  0            999 V2000
    4.4580   28.6979   59.3009 C   0  0  0  0  0  0
    4.6598   30.1328   58.8275 C   0  0  0  0  0  0
    5.6117   30.7852   59.8323 C   0  0  1  0  0  0
    6.2451   29.6151   60.5807 C   0  0  0  0  0  0
    5.3627   28.4868   60.2874 N   0  0  0  0  0  0
    5.3339   27.2724   61.1138 C   0  0  0  0  0  0
    6.7233   26.7239   61.5307 C   0  0  0  0  0  0
    6.6389   25.4438   62.3858 C   0  0  0  0  0  0
    5.7073   25.6165   63.5992 C   0  0  0  0  0  0
    4.3094   26.0925   63.1726 C   0  0  0  0  0  0
    4.3659   27.3742   62.3210 C   0  0  0  0  0  0
    6.7084   31.6920   59.2288 C   0  0  0  0  0  0
    7.4691   32.3598   60.1247 N   0  0  0  0  0  0
    6.8587   31.7612   58.0068 O   0  0  0  0  0  0
    8.4858   33.2957   59.8661 C   0  0  0  0  0  0
    9.4913   33.4518   60.8280 C   0  0  0  0  0  0
   10.5164   34.3928   60.6515 C   0  0  0  0  0  0
   10.5068   35.1921   59.5082 C   0  0  0  0  0  0
    9.5229   35.0366   58.5376 C   0  0  0  0  0  0
    8.5101   34.0976   58.7172 C   0  0  0  0  0  0
    3.6006   27.9252   58.8765 O   0  0  0  0  0  0
   11.6797   34.5357   61.6342 C   0  0  0  0  0  0
   11.7040   35.7756   62.1199 F   0  0  0  0  0  0
   12.8381   34.3247   61.0152 F   0  0  0  0  0  0
   11.6042   33.6644   62.6431 F   0  0  0  0  0  0
    3.6777   30.6075   58.8741 H   0  0  0  0  0  0
    4.9809   30.1569   57.7861 H   0  0  0  0  0  0
    5.0680   31.4161   60.5390 H   0  0  0  0  0  0
    7.2211   29.3350   60.1751 H   0  0  0  0  0  0
    6.3176   29.7887   61.6559 H   0  0  0  0  0  0
    4.9088   26.4855   60.4849 H   0  0  0  0  0  0
    7.3231   26.5242   60.6411 H   0  0  0  0  0  0
    7.2592   27.4817   62.1048 H   0  0  0  0  0  0
    6.2791   24.6212   61.7640 H   0  0  0  0  0  0
    7.6357   25.1509   62.7189 H   0  0  0  0  0  0
    5.6294   24.6745   64.1423 H   0  0  0  0  0  0
    6.1402   26.3370   64.2952 H   0  0  0  0  0  0
    3.8171   25.3029   62.6003 H   0  0  0  0  0  0
    3.6905   26.2599   64.0561 H   0  0  0  0  0  0
    4.6831   28.2004   62.9608 H   0  0  0  0  0  0
    3.3600   27.6154   61.9725 H   0  0  0  0  0  0
    7.3312   32.1319   61.0974 H   0  0  0  0  0  0
    9.4848   32.8279   61.7097 H   0  0  0  0  0  0
   11.2984   35.9132   59.3590 H   0  0  0  0  0  0
    9.5372   35.6509   57.6503 H   0  0  0  0  0  0
    7.7440   34.0199   57.9640 H   0  0  0  0  0  0
  1  2  1  0  0  0
  1  5  1  0  0  0
  1 21  2  0  0  0
  2  3  1  0  0  0
  2 26  1  0  0  0
  2 27  1  0  0  0
  3 12  1  0  0  0
  3  4  1  0  0  0
  3 28  1  0  0  0
  4  5  1  0  0  0
  4 29  1  0  0  0
  4 30  1  0  0  0
  5  6  1  0  0  0
  6 11  1  0  0  0
  6  7  1  0  0  0
  6 31  1  0  0  0
  7  8  1  0  0  0
  7 32  1  0  0  0
  7 33  1  0  0  0
  8  9  1  0  0  0
  8 34  1  0  0  0
  8 35  1  0  0  0
  9 10  1  0  0  0
  9 36  1  0  0  0
  9 37  1  0  0  0
 10 11  1  0  0  0
 10 38  1  0  0  0
 10 39  1  0  0  0
 11 40  1  0  0  0
 11 41  1  0  0  0
 12 13  1  0  0  0
 12 14  2  0  0  0
 13 15  1  0  0  0
 13 42  1  0  0  0
 15 16  2  0  0  0
 15 20  1  0  0  0
 16 17  1  0  0  0
 16 43  1  0  0  0
 17 18  2  0  0  0
 17 22  1  0  0  0
 18 19  1  0  0  0
 18 44  1  0  0  0
 19 20  2  0  0  0
 19 45  1  0  0  0
 20 46  1  0  0  0
 22 23  1  0  0  0
 22 24  1  0  0  0
 22 25  1  0  0  0
M  END
> <s_m_entry_id>
8247

> <s_m_entry_name>
dock_pv.42

> <s_m_Source_Path>
/home/csk/Desktop/cluster/DUD-E-result/inha

> <s_m_Source_File>
dock_pv.maegz

> <i_m_Source_File_Index>
42

> <chembl_id>
CHEMBL411394

> <chembl_pref_name>
None

> <i_lp_mmshare_version>
53161

> <r_lp_tautomer_probability>
1

> <s_lp_Force_Field>
OPLS_2005

> <r_lp_Energy>
34.708774

> <b_lp_Chiralities_Consistent>
1

> <s_lp_Variant>
CHEMBL1849_lig21-2

> <s_i_glide_gridfile>
glide-grid_2h7l

> <i_i_glide_lignum>
31

> <i_i_glide_rotatable_bonds>
5

> <r_i_docking_score>
-7.96696910603634

> <r_i_glide_ligand_efficiency>
-0.318678764241454

> <r_i_glide_ligand_efficiency_sa>
-0.93182235843396

> <r_i_glide_ligand_efficiency_ln>
-1.88841042892871

> <r_i_glide_gscore>
-7.96696910603634

> <r_i_glide_lipo>
-3.05263880456196

> <r_i_glide_hbond>
0

> <r_i_glide_metal>
0

> <r_i_glide_rewards>
-3.15240948403389

> <r_i_glide_evdw>
-37.2012062072754

> <r_i_glide_ecoul>
-3.40339350700378

> <r_i_glide_erotb>
0.60864851897385

> <r_i_glide_esite>
0

> <r_i_glide_emodel>
-57.3312694327195

> <r_i_glide_energy>
-40.6045997142792

> <r_i_glide_einternal>
5.61170148849487

> <i_i_glide_confnum>
69

> <i_i_glide_posenum>
117

> <r_i_glide_eff_state_penalty>
0

> <s_user_duplicate_titles>
CHEMBL1849_lig21

> <i_f3d_flags>
0

> <s_m_subgroup_title>
dock_pv

> <s_m_subgroupid>
dock_pv

> <b_m_subgroup_collapsed>
0

$$$$
CHEMBL1849_lig36
                    3D
 Schrodinger Suite 2021-1.
 54 58  0  0  1  0            999 V2000
    7.4750   31.8355   60.1317 C   0  0  0  0  0  0
    8.5228   32.3213   60.9243 C   0  0  0  0  0  0
    9.3041   33.4150   60.5257 C   0  0  0  0  0  0
    8.9626   34.0568   59.3309 C   0  0  0  0  0  0
    7.9219   33.5821   58.5419 C   0  0  0  0  0  0
    7.1841   32.4634   58.9237 C   0  0  0  0  0  0
   10.5052   33.8336   61.3181 C   0  0  0  0  0  0
   11.1903   32.8955   62.1092 C   0  0  0  0  0  0
   12.3269   33.2474   62.8274 C   0  0  0  0  0  0
   12.7901   34.5538   62.7764 C   0  0  0  0  0  0
   12.1137   35.5126   62.0275 C   0  0  0  0  0  0
   10.9883   35.1507   61.2870 C   0  0  0  0  0  0
    3.0434   27.9238   59.5344 C   0  0  2  0  0  0
    4.2230   28.1609   60.3856 N   0  0  0  0  0  0
    5.3786   27.4930   60.1493 C   0  0  0  0  0  0
    6.3461   27.8743   61.2694 C   0  0  0  0  0  0
    5.6864   29.0308   62.0248 C   0  0  2  0  0  0
    4.2253   28.9386   61.6279 C   0  0  0  0  0  0
    5.6395   26.7222   59.2280 O   0  0  0  0  0  0
    2.1270   29.1423   59.2837 C   0  0  0  0  0  0
    0.7092   28.5674   59.5087 C   0  0  1  0  0  0
    2.0260   26.8549   60.0286 C   0  0  2  0  0  0
    0.8716   27.1199   59.0576 C   0  0  0  0  0  0
    0.4532   28.3993   61.0208 C   0  0  0  0  0  0
    1.3282   27.1801   61.3721 C   0  0  0  0  0  0
    6.2723   30.4324   61.7271 C   0  0  0  0  0  0
    6.7644   30.6842   60.4961 N   0  0  0  0  0  0
    6.2133   31.2872   62.6116 O   0  0  0  0  0  0
    8.7384   31.8179   61.8538 H   0  0  0  0  0  0
    9.5343   34.9014   58.9752 H   0  0  0  0  0  0
    7.7043   34.0998   57.6283 H   0  0  0  0  0  0
    6.3839   32.1015   58.2940 H   0  0  0  0  0  0
   10.8673   31.8682   62.1591 H   0  0  0  0  0  0
   12.8480   32.5088   63.4183 H   0  0  0  0  0  0
   13.6754   34.8181   63.3335 H   0  0  0  0  0  0
   12.4682   36.5327   62.0127 H   0  0  0  0  0  0
   10.4806   35.9129   60.7132 H   0  0  0  0  0  0
    3.3585   27.5729   58.5499 H   0  0  0  0  0  0
    6.5544   27.0262   61.9221 H   0  0  0  0  0  0
    7.2985   28.1358   60.8047 H   0  0  0  0  0  0
    5.8236   28.8748   63.0973 H   0  0  0  0  0  0
    3.7249   29.9064   61.5801 H   0  0  0  0  0  0
    3.7116   28.3885   62.4109 H   0  0  0  0  0  0
    2.2442   29.5147   58.2641 H   0  0  0  0  0  0
    2.3082   29.9865   59.9499 H   0  0  0  0  0  0
   -0.0763   29.1244   58.9963 H   0  0  0  0  0  0
    2.4230   25.8416   60.0015 H   0  0  0  0  0  0
   -0.0103   26.5015   59.2386 H   0  0  0  0  0  0
    1.1434   27.0233   58.0041 H   0  0  0  0  0  0
   -0.6003   28.1916   61.2201 H   0  0  0  0  0  0
    0.7249   29.2910   61.5896 H   0  0  0  0  0  0
    2.0086   27.3610   62.1966 H   0  0  0  0  0  0
    0.6981   26.3438   61.6783 H   0  0  0  0  0  0
    6.5572   30.0279   59.7592 H   0  0  0  0  0  0
  1  2  2  0  0  0
  1  6  1  0  0  0
  1 27  1  0  0  0
  2  3  1  0  0  0
  2 29  1  0  0  0
  3  4  2  0  0  0
  3  7  1  0  0  0
  4  5  1  0  0  0
  4 30  1  0  0  0
  5  6  2  0  0  0
  5 31  1  0  0  0
  6 32  1  0  0  0
  7  8  2  0  0  0
  7 12  1  0  0  0
  8  9  1  0  0  0
  8 33  1  0  0  0
  9 10  2  0  0  0
  9 34  1  0  0  0
 10 11  1  0  0  0
 10 35  1  0  0  0
 11 12  2  0  0  0
 11 36  1  0  0  0
 12 37  1  0  0  0
 13 14  1  0  0  0
 13 20  1  0  0  0
 13 22  1  0  0  0
 13 38  1  0  0  0
 14 18  1  0  0  0
 14 15  1  0  0  0
 15 16  1  0  0  0
 15 19  2  0  0  0
 16 17  1  0  0  0
 16 39  1  0  0  0
 16 40  1  0  0  0
 17 18  1  0  0  0
 17 26  1  0  0  0
 17 41  1  0  0  0
 18 42  1  0  0  0
 18 43  1  0  0  0
 20 21  1  0  0  0
 20 44  1  0  0  0
 20 45  1  0  0  0
 21 23  1  0  0  0
 21 24  1  0  0  0
 21 46  1  0  0  0
 22 23  1  0  0  0
 22 25  1  0  0  0
 22 47  1  0  0  0
 23 48  1  0  0  0
 23 49  1  0  0  0
 24 25  1  0  0  0
 24 50  1  0  0  0
 24 51  1  0  0  0
 25 52  1  0  0  0
 25 53  1  0  0  0
 26 27  1  0  0  0
 26 28  2  0  0  0
 27 54  1  0  0  0
M  END
> <s_m_entry_id>
8248

> <s_m_entry_name>
dock_pv.43

> <s_m_Source_Path>
/home/csk/Desktop/cluster/DUD-E-result/inha

> <s_m_Source_File>
dock_pv.maegz

> <i_m_Source_File_Index>
43

> <chembl_id>
CHEMBL217852

> <chembl_pref_name>
None

> <i_lp_mmshare_version>
53161

> <r_lp_tautomer_probability>
1

> <s_lp_Force_Field>
OPLS_2005

> <r_lp_Energy>
77.832959

> <b_lp_Chiralities_Consistent>
1

> <s_lp_Variant>
CHEMBL1849_lig36-1

> <s_i_glide_gridfile>
glide-grid_2h7l

> <i_i_glide_lignum>
66

> <i_i_glide_rotatable_bonds>
5

> <r_i_docking_score>
-7.96049277959633

> <r_i_glide_ligand_efficiency>
-0.284303313557012

> <r_i_glide_ligand_efficiency_sa>
-0.863312305656019

> <r_i_glide_ligand_efficiency_ln>
-1.83751546375505

> <r_i_glide_gscore>
-7.96049277959633

> <r_i_glide_lipo>
-3.6279217103494

> <r_i_glide_hbond>
-0.288116440458601

> <r_i_glide_metal>
0

> <r_i_glide_rewards>
-2.45507301840259

> <r_i_glide_evdw>
-41.0002174377441

> <r_i_glide_ecoul>
-1.5254317522049

> <r_i_glide_erotb>
0.689444024332202

> <r_i_glide_esite>
0

> <r_i_glide_emodel>
-56.1517993653566

> <r_i_glide_energy>
-42.525649189949

> <r_i_glide_einternal>
10.9956092834473

> <i_i_glide_confnum>
73

> <i_i_glide_posenum>
321

> <r_i_glide_eff_state_penalty>
0

> <s_user_duplicate_titles>
CHEMBL1849_lig36

> <i_f3d_flags>
0

> <s_m_subgroup_title>
dock_pv

> <s_m_subgroupid>
dock_pv

> <b_m_subgroup_collapsed>
0

$$$$
CHEMBL1849_lig32
                    3D
 Schrodinger Suite 2021-1.
 54 58  0  0  1  0            999 V2000
    4.7512   30.2436   59.7339 C   0  0  0  0  0  0
    3.1690   27.9272   59.7021 C   0  0  0  0  0  0
    3.4558   30.2770   59.2118 C   0  0  0  0  0  0
    2.6734   29.1223   59.1829 C   0  0  0  0  0  0
    4.4485   27.8944   60.2587 C   0  0  0  0  0  0
    5.2456   29.0420   60.2716 C   0  0  0  0  0  0
    6.5650   28.7381   60.9530 C   0  0  0  0  0  0
    5.1801   26.7997   60.9218 C   0  0  0  0  0  0
    6.4152   27.2868   61.3439 C   0  0  0  0  0  0
    7.3009   26.4494   62.0244 C   0  0  0  0  0  0
    6.9479   25.1229   62.2779 C   0  0  0  0  0  0
    5.7113   24.6338   61.8509 C   0  0  0  0  0  0
    4.8248   25.4721   61.1716 C   0  0  0  0  0  0
    9.3038   34.3351   59.0077 C   0  0  0  0  0  0
    8.1938   33.5645   58.3231 C   0  0  0  0  0  0
    7.2921   33.0489   59.4343 C   0  0  2  0  0  0
    8.2644   32.9282   60.5945 C   0  0  0  0  0  0
    9.3262   33.8931   60.2884 N   0  0  0  0  0  0
   10.4094   34.1469   61.2633 C   0  0  0  0  0  0
   10.9042   32.8722   62.0153 C   0  0  0  0  0  0
   12.0335   33.0767   63.0418 C   0  0  0  0  0  0
   13.1633   33.9647   62.5145 C   0  0  0  0  0  0
   12.5970   35.3004   62.0278 C   0  0  0  0  0  0
   11.5655   35.1158   60.9002 C   0  0  0  0  0  0
    6.6582   31.6650   59.1780 C   0  0  0  0  0  0
    5.4612   31.4497   59.7593 N   0  0  0  0  0  0
    7.2455   30.8294   58.4873 O   0  0  0  0  0  0
   10.0135   35.1655   58.4461 O   0  0  0  0  0  0
    2.5459   27.0458   59.6899 H   0  0  0  0  0  0
    3.0407   31.1985   58.8280 H   0  0  0  0  0  0
    1.6742   29.1664   58.7747 H   0  0  0  0  0  0
    6.7308   29.3786   61.8196 H   0  0  0  0  0  0
    7.4174   28.8886   60.2903 H   0  0  0  0  0  0
    8.2648   26.8146   62.3459 H   0  0  0  0  0  0
    7.6394   24.4730   62.7939 H   0  0  0  0  0  0
    5.4423   23.6055   62.0416 H   0  0  0  0  0  0
    3.8706   25.0859   60.8468 H   0  0  0  0  0  0
    8.6033   32.8058   57.6540 H   0  0  0  0  0  0
    7.7041   34.3193   57.7161 H   0  0  0  0  0  0
    6.4922   33.7547   59.6723 H   0  0  0  0  0  0
    7.7956   33.1212   61.5601 H   0  0  0  0  0  0
    8.7588   31.9539   60.6115 H   0  0  0  0  0  0
    9.8947   34.7209   62.0279 H   0  0  0  0  0  0
   10.0776   32.3714   62.5198 H   0  0  0  0  0  0
   11.2811   32.1859   61.2651 H   0  0  0  0  0  0
   11.6216   33.5234   63.9464 H   0  0  0  0  0  0
   12.4345   32.1091   63.3474 H   0  0  0  0  0  0
   13.9056   34.1356   63.2945 H   0  0  0  0  0  0
   13.6880   33.4664   61.6974 H   0  0  0  0  0  0
   12.1424   35.8428   62.8580 H   0  0  0  0  0  0
   13.4147   35.9218   61.6722 H   0  0  0  0  0  0
   12.0996   34.7232   60.0332 H   0  0  0  0  0  0
   11.1689   36.0946   60.6242 H   0  0  0  0  0  0
    4.9810   32.2367   60.1683 H   0  0  0  0  0  0
  1  3  2  0  0  0
  1  6  1  0  0  0
  1 26  1  0  0  0
  2  5  1  0  0  0
  2  4  2  0  0  0
  2 29  1  0  0  0
  3  4  1  0  0  0
  3 30  1  0  0  0
  4 31  1  0  0  0
  5  8  1  0  0  0
  5  6  2  0  0  0
  6  7  1  0  0  0
  7  9  1  0  0  0
  7 32  1  0  0  0
  7 33  1  0  0  0
  8 13  2  0  0  0
  8  9  1  0  0  0
  9 10  2  0  0  0
 10 11  1  0  0  0
 10 34  1  0  0  0
 11 12  2  0  0  0
 11 35  1  0  0  0
 12 13  1  0  0  0
 12 36  1  0  0  0
 13 37  1  0  0  0
 14 15  1  0  0  0
 14 18  1  0  0  0
 14 28  2  0  0  0
 15 16  1  0  0  0
 15 38  1  0  0  0
 15 39  1  0  0  0
 16 17  1  0  0  0
 16 25  1  0  0  0
 16 40  1  0  0  0
 17 18  1  0  0  0
 17 41  1  0  0  0
 17 42  1  0  0  0
 18 19  1  0  0  0
 19 20  1  0  0  0
 19 24  1  0  0  0
 19 43  1  0  0  0
 20 21  1  0  0  0
 20 44  1  0  0  0
 20 45  1  0  0  0
 21 22  1  0  0  0
 21 46  1  0  0  0
 21 47  1  0  0  0
 22 23  1  0  0  0
 22 48  1  0  0  0
 22 49  1  0  0  0
 23 24  1  0  0  0
 23 50  1  0  0  0
 23 51  1  0  0  0
 24 52  1  0  0  0
 24 53  1  0  0  0
 25 26  1  0  0  0
 25 27  2  0  0  0
 26 54  1  0  0  0
M  END
> <s_m_entry_id>
8249

> <s_m_entry_name>
dock_pv.44

> <s_m_Source_Path>
/home/csk/Desktop/cluster/DUD-E-result/inha

> <s_m_Source_File>
dock_pv.maegz

> <i_m_Source_File_Index>
44

> <chembl_id>
CHEMBL386655

> <chembl_pref_name>
None

> <i_lp_mmshare_version>
53161

> <r_lp_tautomer_probability>
1

> <s_lp_Force_Field>
OPLS_2005

> <r_lp_Energy>
51.730286

> <b_lp_Chiralities_Consistent>
1

> <s_lp_Variant>
CHEMBL1849_lig32-1

> <s_i_glide_gridfile>
glide-grid_2h7l

> <i_i_glide_lignum>
58

> <i_i_glide_rotatable_bonds>
4

> <r_i_docking_score>
-7.953717963512

> <r_i_glide_ligand_efficiency>
-0.284061355839714

> <r_i_glide_ligand_efficiency_sa>
-0.86257757952083

> <r_i_glide_ligand_efficiency_ln>
-1.83595163728555

> <r_i_glide_gscore>
-7.953717963512

> <r_i_glide_lipo>
-3.79990992773207

> <r_i_glide_hbond>
0

> <r_i_glide_metal>
0

> <r_i_glide_rewards>
-2.54024103830576

> <r_i_glide_evdw>
-47.1682968139648

> <r_i_glide_ecoul>
1.28861749172211

> <r_i_glide_erotb>
0.551555219465761

> <r_i_glide_esite>
0

> <r_i_glide_emodel>
-55.2385509746637

> <r_i_glide_energy>
-45.8796793222427

> <r_i_glide_einternal>
10.9600324630737

> <i_i_glide_confnum>
43

> <i_i_glide_posenum>
259

> <r_i_glide_eff_state_penalty>
0

> <s_user_duplicate_titles>
CHEMBL1849_lig32

> <i_f3d_flags>
0

> <s_m_subgroup_title>
dock_pv

> <s_m_subgroupid>
dock_pv

> <b_m_subgroup_collapsed>
0

$$$$
CHEMBL1849_lig163
                    3D
 Schrodinger Suite 2021-1.
 53 56  0  0  1  0            999 V2000
    7.4935   31.4351   59.4027 C   0  0  0  0  0  0
    6.2893   30.6110   59.6058 N   0  0  0  0  0  0
    5.6781   30.8588   60.9314 C   0  0  1  0  0  0
    6.8311   31.4688   61.7244 C   0  0  0  0  0  0
    7.5918   32.2783   60.6847 C   0  0  1  0  0  0
    5.9882   29.6090   58.7395 C   0  0  0  0  0  0
    5.0700   28.6184   59.2111 C   0  0  0  0  0  0
    6.5041   29.4862   57.6296 O   0  0  0  0  0  0
    8.9488   32.4763   61.1632 N   0  0  0  0  0  0
    9.7040   33.5296   60.8282 C   0  0  0  0  0  0
   10.9052   33.6527   61.6301 C   0  0  0  0  0  0
    9.3837   34.3549   59.9707 O   0  0  0  0  0  0
   11.5843   32.7227   62.4250 C   0  0  0  0  0  0
   12.7974   33.3088   62.8019 C   0  0  0  0  0  0
   12.8227   34.5726   62.4285 N   0  0  0  0  0  0
   11.6914   34.7796   61.7340 N   0  0  0  0  0  0
   13.9679   32.6282   63.4985 C   0  0  0  0  0  0
   15.1787   33.5270   63.7975 C   0  0  0  0  0  0
   11.3874   36.1212   61.2562 C   0  0  0  0  0  0
    3.0638   27.5615   59.5276 O   0  0  0  0  0  0
    3.7344   28.5227   58.8300 C   0  0  0  0  0  0
    3.9856   26.9776   60.3449 C   0  0  0  0  0  0
    5.2517   27.5876   60.1931 C   0  0  0  0  0  0
    6.3207   27.1154   60.9733 C   0  0  0  0  0  0
    6.0966   26.0511   61.8512 C   0  0  0  0  0  0
    4.8355   25.4640   61.9752 C   0  0  0  0  0  0
    3.7464   25.9188   61.2286 C   0  0  0  0  0  0
    4.4384   31.7816   60.8280 C   0  0  0  0  0  0
    3.3039   31.2283   60.4136 N   0  0  0  0  0  0
    4.4905   32.9662   61.1509 O   0  0  0  0  0  0
    7.4602   32.0723   58.5178 H   0  0  0  0  0  0
    8.3666   30.7827   59.3443 H   0  0  0  0  0  0
    5.2950   29.9528   61.3996 H   0  0  0  0  0  0
    7.4399   30.6624   62.1385 H   0  0  0  0  0  0
    6.5326   32.0355   62.6091 H   0  0  0  0  0  0
    7.0500   33.2186   60.5405 H   0  0  0  0  0  0
    9.3477   31.7563   61.7435 H   0  0  0  0  0  0
   11.2964   31.7003   62.6200 H   0  0  0  0  0  0
   13.6304   32.1762   64.4285 H   0  0  0  0  0  0
   14.3085   31.7926   62.8850 H   0  0  0  0  0  0
   15.9541   32.9820   64.3306 H   0  0  0  0  0  0
   15.6203   33.9216   62.8805 H   0  0  0  0  0  0
   14.9042   34.3707   64.4287 H   0  0  0  0  0  0
   10.4005   36.4051   61.6192 H   0  0  0  0  0  0
   11.3842   36.1321   60.1658 H   0  0  0  0  0  0
   12.1048   36.8431   61.6378 H   0  0  0  0  0  0
    3.1235   29.0941   58.1445 H   0  0  0  0  0  0
    7.3011   27.5577   60.8833 H   0  0  0  0  0  0
    6.9172   25.6698   62.4443 H   0  0  0  0  0  0
    4.7025   24.6426   62.6651 H   0  0  0  0  0  0
    2.7660   25.4734   61.3211 H   0  0  0  0  0  0
    2.4584   31.7835   60.3002 H   0  0  0  0  0  0
    3.2662   30.2489   60.1815 H   0  0  0  0  0  0
  1  2  1  0  0  0
  1  5  1  0  0  0
  1 31  1  0  0  0
  1 32  1  0  0  0
  2  3  1  0  0  0
  2  6  1  0  0  0
  3  4  1  0  0  0
  3 28  1  0  0  0
  3 33  1  0  0  0
  4  5  1  0  0  0
  4 34  1  0  0  0
  4 35  1  0  0  0
  5  9  1  0  0  0
  5 36  1  0  0  0
  6  7  1  0  0  0
  6  8  2  0  0  0
  7 23  1  0  0  0
  7 21  2  0  0  0
  9 10  1  0  0  0
  9 37  1  0  0  0
 10 11  1  0  0  0
 10 12  2  0  0  0
 11 13  2  0  0  0
 11 16  1  0  0  0
 13 14  1  0  0  0
 13 38  1  0  0  0
 14 15  2  0  0  0
 14 17  1  0  0  0
 15 16  1  0  0  0
 16 19  1  0  0  0
 17 18  1  0  0  0
 17 39  1  0  0  0
 17 40  1  0  0  0
 18 41  1  0  0  0
 18 42  1  0  0  0
 18 43  1  0  0  0
 19 44  1  0  0  0
 19 45  1  0  0  0
 19 46  1  0  0  0
 20 22  1  0  0  0
 20 21  1  0  0  0
 21 47  1  0  0  0
 22 23  2  0  0  0
 22 27  1  0  0  0
 23 24  1  0  0  0
 24 25  2  0  0  0
 24 48  1  0  0  0
 25 26  1  0  0  0
 25 49  1  0  0  0
 26 27  2  0  0  0
 26 50  1  0  0  0
 27 51  1  0  0  0
 28 29  1  0  0  0
 28 30  2  0  0  0
 29 52  1  0  0  0
 29 53  1  0  0  0
M  END
> <s_m_entry_id>
8250

> <s_m_entry_name>
dock_pv.45

> <s_m_Source_Path>
/home/csk/Desktop/cluster/DUD-E-result/inha

> <s_m_Source_File>
dock_pv.maegz

> <i_m_Source_File_Index>
45

> <chembl_id>
CHEMBL3125279

> <chembl_pref_name>
None

> <i_lp_mmshare_version>
53161

> <r_lp_tautomer_probability>
1

> <s_lp_Force_Field>
OPLS_2005

> <r_lp_Energy>
19.247053

> <b_lp_Chiralities_Consistent>
1

> <s_lp_Variant>
CHEMBL1849_lig163-1

> <s_i_glide_gridfile>
glide-grid_2h7l

> <i_i_glide_lignum>
230

> <i_i_glide_rotatable_bonds>
7

> <r_i_docking_score>
-7.95062545660319

> <r_i_glide_ligand_efficiency>
-0.26502084855344

> <r_i_glide_ligand_efficiency_sa>
-0.823481394447115

> <r_i_glide_ligand_efficiency_ln>
-1.80646873274303

> <r_i_glide_gscore>
-7.95062545660319

> <r_i_glide_lipo>
-3.26197177715123

> <r_i_glide_hbond>
-0.140973806674301

> <r_i_glide_metal>
0

> <r_i_glide_rewards>
-2.15999224366989

> <r_i_glide_evdw>
-47.9530639648438

> <r_i_glide_ecoul>
-3.2715892791748

> <r_i_glide_erotb>
0.587294320941812

> <r_i_glide_esite>
-0.0865903599311782

> <r_i_glide_emodel>
-67.6339834351621

> <r_i_glide_energy>
-51.2246532440186

> <r_i_glide_einternal>
12.8883571624756

> <i_i_glide_confnum>
59

> <i_i_glide_posenum>
90

> <r_i_glide_eff_state_penalty>
0

> <s_user_duplicate_titles>
CHEMBL1849_lig163

> <i_f3d_flags>
0

> <s_m_subgroup_title>
dock_pv

> <s_m_subgroupid>
dock_pv

> <b_m_subgroup_collapsed>
0

$$$$
CHEMBL1849_lig36
                    3D
 Schrodinger Suite 2021-1.
 54 58  0  0  1  0            999 V2000
    7.8187   32.3563   59.8311 C   0  0  0  0  0  0
    8.7199   32.1735   60.8934 C   0  0  0  0  0  0
    9.7557   33.0952   61.1790 C   0  0  0  0  0  0
    9.7615   34.2854   60.4277 C   0  0  0  0  0  0
    8.8868   34.4792   59.3668 C   0  0  0  0  0  0
    7.9321   33.5199   59.0583 C   0  0  0  0  0  0
   10.9064   32.7746   62.1158 C   0  0  0  0  0  0
   10.9711   31.5615   62.8279 C   0  0  0  0  0  0
   12.1662   31.1220   63.3922 C   0  0  0  0  0  0
   13.2859   31.9445   63.3852 C   0  0  0  0  0  0
   13.2063   33.2138   62.8282 C   0  0  0  0  0  0
   12.0322   33.6222   62.2031 C   0  0  0  0  0  0
    4.6130   27.3207   61.0881 C   0  0  1  0  0  0
    4.4566   28.2978   59.9953 N   0  0  0  0  0  0
    3.3068   28.9969   59.8623 C   0  0  0  0  0  0
    3.5796   30.0831   58.8281 C   0  0  0  0  0  0
    5.0584   29.9930   58.4282 C   0  0  2  0  0  0
    5.5508   28.7339   59.1285 C   0  0  0  0  0  0
    2.2525   28.8440   60.4752 O   0  0  0  0  0  0
    5.8400   26.3728   60.9610 C   0  0  0  0  0  0
    6.6691   26.7130   62.2178 C   0  0  2  0  0  0
    4.8892   28.0114   62.4530 C   0  0  1  0  0  0
    5.5715   26.9089   63.2573 C   0  0  0  0  0  0
    7.2593   28.1392   62.1070 C   0  0  0  0  0  0
    6.0283   29.0461   62.3312 C   0  0  0  0  0  0
    5.8153   31.3149   58.7356 C   0  0  0  0  0  0
    6.9061   31.3070   59.5454 N   0  0  0  0  0  0
    5.3962   32.3220   58.1713 O   0  0  0  0  0  0
    8.6367   31.2592   61.4565 H   0  0  0  0  0  0
   10.4850   35.0670   60.5886 H   0  0  0  0  0  0
    8.9610   35.3835   58.7786 H   0  0  0  0  0  0
    7.3040   33.7031   58.2029 H   0  0  0  0  0  0
   10.1336   30.8824   62.8501 H   0  0  0  0  0  0
   12.2182   30.1492   63.8595 H   0  0  0  0  0  0
   14.2069   31.6105   63.8409 H   0  0  0  0  0  0
   14.0682   33.8657   62.8409 H   0  0  0  0  0  0
   12.0662   34.5863   61.7248 H   0  0  0  0  0  0
    3.7141   26.7130   61.2146 H   0  0  0  0  0  0
    2.9247   29.9215   57.9759 H   0  0  0  0  0  0
    3.2816   31.0458   59.2500 H   0  0  0  0  0  0
    5.1578   29.8806   57.3490 H   0  0  0  0  0  0
    6.5248   28.8404   59.5911 H   0  0  0  0  0  0
    5.6949   27.9231   58.4251 H   0  0  0  0  0  0
    6.4321   26.4879   60.0543 H   0  0  0  0  0  0
    5.5192   25.3314   61.0035 H   0  0  0  0  0  0
    7.4089   25.9494   62.4644 H   0  0  0  0  0  0
    3.9865   28.4114   62.9164 H   0  0  0  0  0  0
    4.9447   26.0251   63.4067 H   0  0  0  0  0  0
    5.9449   27.2400   64.2298 H   0  0  0  0  0  0
    7.7269   28.3040   61.1422 H   0  0  0  0  0  0
    8.0255   28.3212   62.8592 H   0  0  0  0  0  0
    6.1040   29.6447   63.2280 H   0  0  0  0  0  0
    5.8721   29.7767   61.5433 H   0  0  0  0  0  0
    7.0986   30.4426   60.0264 H   0  0  0  0  0  0
  1  2  2  0  0  0
  1  6  1  0  0  0
  1 27  1  0  0  0
  2  3  1  0  0  0
  2 29  1  0  0  0
  3  4  2  0  0  0
  3  7  1  0  0  0
  4  5  1  0  0  0
  4 30  1  0  0  0
  5  6  2  0  0  0
  5 31  1  0  0  0
  6 32  1  0  0  0
  7  8  2  0  0  0
  7 12  1  0  0  0
  8  9  1  0  0  0
  8 33  1  0  0  0
  9 10  2  0  0  0
  9 34  1  0  0  0
 10 11  1  0  0  0
 10 35  1  0  0  0
 11 12  2  0  0  0
 11 36  1  0  0  0
 12 37  1  0  0  0
 13 14  1  0  0  0
 13 20  1  0  0  0
 13 22  1  0  0  0
 13 38  1  0  0  0
 14 18  1  0  0  0
 14 15  1  0  0  0
 15 16  1  0  0  0
 15 19  2  0  0  0
 16 17  1  0  0  0
 16 39  1  0  0  0
 16 40  1  0  0  0
 17 18  1  0  0  0
 17 26  1  0  0  0
 17 41  1  0  0  0
 18 42  1  0  0  0
 18 43  1  0  0  0
 20 21  1  0  0  0
 20 44  1  0  0  0
 20 45  1  0  0  0
 21 23  1  0  0  0
 21 24  1  0  0  0
 21 46  1  0  0  0
 22 23  1  0  0  0
 22 25  1  0  0  0
 22 47  1  0  0  0
 23 48  1  0  0  0
 23 49  1  0  0  0
 24 25  1  0  0  0
 24 50  1  0  0  0
 24 51  1  0  0  0
 25 52  1  0  0  0
 25 53  1  0  0  0
 26 27  1  0  0  0
 26 28  2  0  0  0
 27 54  1  0  0  0
M  END
> <s_m_entry_id>
8251

> <s_m_entry_name>
dock_pv.46

> <s_m_Source_Path>
/home/csk/Desktop/cluster/DUD-E-result/inha

> <s_m_Source_File>
dock_pv.maegz

> <i_m_Source_File_Index>
46

> <chembl_id>
CHEMBL217852

> <chembl_pref_name>
None

> <i_lp_mmshare_version>
53161

> <r_lp_tautomer_probability>
1

> <s_lp_Force_Field>
OPLS_2005

> <r_lp_Energy>
76.309535

> <b_lp_Chiralities_Consistent>
1

> <s_lp_Variant>
CHEMBL1849_lig36-6

> <s_i_glide_gridfile>
glide-grid_2h7l

> <i_i_glide_lignum>
71

> <i_i_glide_rotatable_bonds>
5

> <r_i_docking_score>
-7.94768848356968

> <r_i_glide_ligand_efficiency>
-0.283846017270346

> <r_i_glide_ligand_efficiency_sa>
-0.861923684796591

> <r_i_glide_ligand_efficiency_ln>
-1.83455985628164

> <r_i_glide_gscore>
-7.94768848356968

> <r_i_glide_lipo>
-4.31336121344492

> <r_i_glide_hbond>
0

> <r_i_glide_metal>
0

> <r_i_glide_rewards>
-2.10024402591816

> <r_i_glide_evdw>
-38.4449501037598

> <r_i_glide_ecoul>
-1.98302090167999

> <r_i_glide_erotb>
0.689444024332202

> <r_i_glide_esite>
-0.00382662809880805

> <r_i_glide_emodel>
-49.6846380346777

> <r_i_glide_energy>
-40.4279710054398

> <r_i_glide_einternal>
11.0782766342163

> <i_i_glide_confnum>
24

> <i_i_glide_posenum>
95

> <r_i_glide_eff_state_penalty>
0

> <s_user_duplicate_titles>
CHEMBL1849_lig36

> <i_f3d_flags>
0

> <s_m_subgroup_title>
dock_pv

> <s_m_subgroupid>
dock_pv

> <b_m_subgroup_collapsed>
0

$$$$
CHEMBL1849_lig165
                    3D
 Schrodinger Suite 2021-1.
 59 62  0  0  1  0            999 V2000
    4.4222   28.8156   58.4456 C   0  0  0  0  0  0
    4.3743   28.2634   59.8064 N   0  0  0  0  0  0
    3.4050   29.0163   60.6434 C   0  0  1  0  0  0
    2.9041   30.1350   59.7038 C   0  0  0  0  0  0
    3.9539   30.2541   58.6128 C   0  0  1  0  0  0
    2.2188   28.1671   61.1644 C   0  0  0  0  0  0
    1.5761   27.4517   60.3942 O   0  0  0  0  0  0
    5.0734   27.1297   60.0964 C   0  0  0  0  0  0
    5.0718   26.5634   61.5010 C   0  0  0  0  0  0
    5.7040   26.5267   59.2278 O   0  0  0  0  0  0
    1.9029   28.3191   62.4627 N   0  0  0  0  0  0
    0.7920   27.6546   63.1370 C   0  0  0  0  0  0
   -0.5508   28.3717   62.9155 C   0  0  0  0  0  0
    5.0199   31.1514   59.0442 N   0  0  0  0  0  0
    5.9411   31.7150   58.2500 C   0  0  0  0  0  0
    6.8571   32.5953   58.9291 C   0  0  0  0  0  0
    6.0198   31.5218   57.0358 O   0  0  0  0  0  0
    8.1180   33.0118   58.5184 C   0  0  0  0  0  0
    8.5845   33.9212   59.4675 C   0  0  0  0  0  0
    7.7046   34.0639   60.4279 N   0  0  0  0  0  0
    6.6381   33.3368   60.0787 N   0  0  0  0  0  0
    9.8710   34.7240   59.4620 C   0  0  0  0  0  0
   10.6553   34.6524   60.7833 C   0  0  0  0  0  0
    5.4538   33.4231   60.9314 C   0  0  0  0  0  0
    5.2152   27.3908   62.6306 C   0  0  0  0  0  0
    4.9424   24.5708   62.9221 C   0  0  0  0  0  0
    4.9682   25.1727   61.6635 C   0  0  0  0  0  0
    5.0312   25.4190   64.0273 C   0  0  0  0  0  0
    5.1679   26.8200   63.9113 C   0  0  0  0  0  0
    5.2187   27.3009   65.2552 C   0  0  0  0  0  0
    5.1304   26.1787   66.0657 C   0  0  0  0  0  0
    5.0110   25.0321   65.3369 O   0  0  0  0  0  0
    3.7068   28.2668   57.8298 H   0  0  0  0  0  0
    5.4094   28.7657   57.9829 H   0  0  0  0  0  0
    3.8823   29.4713   61.5087 H   0  0  0  0  0  0
    2.6840   31.0707   60.2212 H   0  0  0  0  0  0
    1.9700   29.8530   59.2113 H   0  0  0  0  0  0
    3.4937   30.6614   57.7109 H   0  0  0  0  0  0
    2.4710   28.9286   63.0316 H   0  0  0  0  0  0
    0.7215   26.6113   62.8201 H   0  0  0  0  0  0
    1.0164   27.6243   64.2057 H   0  0  0  0  0  0
   -1.3527   27.8514   63.4394 H   0  0  0  0  0  0
   -0.5240   29.3956   63.2924 H   0  0  0  0  0  0
   -0.8177   28.3994   61.8563 H   0  0  0  0  0  0
    5.1841   31.1875   60.0383 H   0  0  0  0  0  0
    8.6460   32.7117   57.6269 H   0  0  0  0  0  0
   10.5049   34.3818   58.6469 H   0  0  0  0  0  0
    9.6620   35.7690   59.2325 H   0  0  0  0  0  0
   11.5985   35.1942   60.7062 H   0  0  0  0  0  0
   10.0880   35.0910   61.6070 H   0  0  0  0  0  0
   10.8887   33.6227   61.0541 H   0  0  0  0  0  0
    5.4288   32.5659   61.6051 H   0  0  0  0  0  0
    4.5543   33.4436   60.3145 H   0  0  0  0  0  0
    5.4652   34.3426   61.5164 H   0  0  0  0  0  0
    5.3690   28.4524   62.5286 H   0  0  0  0  0  0
    4.8500   23.5015   63.0345 H   0  0  0  0  0  0
    4.9001   24.5387   60.7898 H   0  0  0  0  0  0
    5.3034   28.3207   65.5995 H   0  0  0  0  0  0
    5.1305   26.0491   67.1385 H   0  0  0  0  0  0
  1  2  1  0  0  0
  1  5  1  0  0  0
  1 33  1  0  0  0
  1 34  1  0  0  0
  2  3  1  0  0  0
  2  8  1  0  0  0
  3  4  1  0  0  0
  3  6  1  0  0  0
  3 35  1  0  0  0
  4  5  1  0  0  0
  4 36  1  0  0  0
  4 37  1  0  0  0
  5 14  1  0  0  0
  5 38  1  0  0  0
  6  7  2  0  0  0
  6 11  1  0  0  0
  8  9  1  0  0  0
  8 10  2  0  0  0
  9 25  2  0  0  0
  9 27  1  0  0  0
 11 12  1  0  0  0
 11 39  1  0  0  0
 12 13  1  0  0  0
 12 40  1  0  0  0
 12 41  1  0  0  0
 13 42  1  0  0  0
 13 43  1  0  0  0
 13 44  1  0  0  0
 14 15  1  0  0  0
 14 45  1  0  0  0
 15 16  1  0  0  0
 15 17  2  0  0  0
 16 18  2  0  0  0
 16 21  1  0  0  0
 18 19  1  0  0  0
 18 46  1  0  0  0
 19 20  2  0  0  0
 19 22  1  0  0  0
 20 21  1  0  0  0
 21 24  1  0  0  0
 22 23  1  0  0  0
 22 47  1  0  0  0
 22 48  1  0  0  0
 23 49  1  0  0  0
 23 50  1  0  0  0
 23 51  1  0  0  0
 24 52  1  0  0  0
 24 53  1  0  0  0
 24 54  1  0  0  0
 25 29  1  0  0  0
 25 55  1  0  0  0
 26 28  1  0  0  0
 26 27  2  0  0  0
 26 56  1  0  0  0
 27 57  1  0  0  0
 28 29  2  0  0  0
 28 32  1  0  0  0
 29 30  1  0  0  0
 30 31  2  0  0  0
 30 58  1  0  0  0
 31 32  1  0  0  0
 31 59  1  0  0  0
M  END
> <s_m_entry_id>
8252

> <s_m_entry_name>
dock_pv.47

> <s_m_Source_Path>
/home/csk/Desktop/cluster/DUD-E-result/inha

> <s_m_Source_File>
dock_pv.maegz

> <i_m_Source_File_Index>
47

> <chembl_id>
CHEMBL3125271

> <chembl_pref_name>
None

> <i_lp_mmshare_version>
53161

> <r_lp_tautomer_probability>
1

> <s_lp_Force_Field>
OPLS_2005

> <r_lp_Energy>
20.359156

> <b_lp_Chiralities_Consistent>
1

> <s_lp_Variant>
CHEMBL1849_lig165-1

> <s_i_glide_gridfile>
glide-grid_2h7l

> <i_i_glide_lignum>
232

> <i_i_glide_rotatable_bonds>
9

> <r_i_docking_score>
-7.944016126788

> <r_i_glide_ligand_efficiency>
-0.248250503962125

> <r_i_glide_ligand_efficiency_sa>
-0.788146221371724

> <r_i_glide_ligand_efficiency_ln>
-1.77888175648892

> <r_i_glide_gscore>
-7.944016126788

> <r_i_glide_lipo>
-2.84649274489252

> <r_i_glide_hbond>
-0.834161560834825

> <r_i_glide_metal>
0

> <r_i_glide_rewards>
-1.56277330472022

> <r_i_glide_evdw>
-48.1243095397949

> <r_i_glide_ecoul>
-6.78730487823486

> <r_i_glide_erotb>
0.729327786800304

> <r_i_glide_esite>
-0.00560509441575716

> <r_i_glide_emodel>
-77.1031481225367

> <r_i_glide_energy>
-54.9116144180298

> <r_i_glide_einternal>
5.88118171691895

> <i_i_glide_confnum>
53

> <i_i_glide_posenum>
33

> <r_i_glide_eff_state_penalty>
0

> <s_user_duplicate_titles>
CHEMBL1849_lig165

> <i_f3d_flags>
0

> <s_m_subgroup_title>
dock_pv

> <s_m_subgroupid>
dock_pv

> <b_m_subgroup_collapsed>
0

$$$$
CHEMBL1849_lig18
                    3D
 Schrodinger Suite 2021-1.
 49 51  0  0  1  0            999 V2000
    6.1388   32.6176   60.9521 C   0  0  0  0  0  0
    6.7660   33.8420   60.2978 C   0  0  0  0  0  0
    8.0196   33.3478   59.5749 C   0  0  2  0  0  0
    7.7235   31.8607   59.3675 C   0  0  0  0  0  0
    6.6943   31.5398   60.3544 N   0  0  0  0  0  0
    6.2551   30.1683   60.6436 C   0  0  0  0  0  0
    5.7473   29.3772   59.4104 C   0  0  0  0  0  0
    5.3303   27.9299   59.7418 C   0  0  0  0  0  0
    6.4311   27.1701   60.4990 C   0  0  0  0  0  0
    6.8366   27.9164   61.7803 C   0  0  0  0  0  0
    7.2650   29.3679   61.4927 C   0  0  0  0  0  0
    9.2769   33.6643   60.4280 C   0  0  0  0  0  0
    9.8010   34.7652   60.2770 O   0  0  0  0  0  0
   10.8964   32.6779   62.0677 C   0  0  0  0  0  0
    5.3039   32.6471   61.8476 O   0  0  0  0  0  0
   11.9160   33.6396   62.0235 C   0  0  0  0  0  0
   13.1654   33.3669   62.5816 C   0  0  0  0  0  0
   13.3961   32.1547   63.2288 C   0  0  0  0  0  0
   12.3664   31.2253   63.3635 C   0  0  0  0  0  0
   11.1073   31.5220   62.8280 C   0  0  0  0  0  0
   14.2814   34.3689   62.4454 C   0  0  0  0  0  0
   12.6344   29.9046   64.0805 C   0  0  0  0  0  0
    9.7072   32.7220   61.2996 N   0  0  0  0  0  0
    6.9744   34.5452   61.1072 H   0  0  0  0  0  0
    6.0567   34.3254   59.6288 H   0  0  0  0  0  0
    8.1574   33.8671   58.6247 H   0  0  0  0  0  0
    7.3035   31.7121   58.3718 H   0  0  0  0  0  0
    8.6099   31.2253   59.3987 H   0  0  0  0  0  0
    5.3768   30.2397   61.2894 H   0  0  0  0  0  0
    4.9041   29.9003   58.9563 H   0  0  0  0  0  0
    6.5370   29.3353   58.6590 H   0  0  0  0  0  0
    4.4216   27.9460   60.3458 H   0  0  0  0  0  0
    5.0725   27.3948   58.8282 H   0  0  0  0  0  0
    6.0925   26.1625   60.7439 H   0  0  0  0  0  0
    7.3031   27.0494   59.8542 H   0  0  0  0  0  0
    5.9999   27.9185   62.4812 H   0  0  0  0  0  0
    7.6484   27.3836   62.2774 H   0  0  0  0  0  0
    8.2021   29.3354   60.9487 H   0  0  0  0  0  0
    7.4609   29.8902   62.4280 H   0  0  0  0  0  0
   11.8000   34.5629   61.4792 H   0  0  0  0  0  0
   14.3733   31.9407   63.6389 H   0  0  0  0  0  0
   10.3209   30.7855   62.9097 H   0  0  0  0  0  0
   13.8585   35.3721   62.4065 H   0  0  0  0  0  0
   14.8636   34.1921   61.5411 H   0  0  0  0  0  0
   14.9395   34.3218   63.3128 H   0  0  0  0  0  0
   12.1041   29.0713   63.6280 H   0  0  0  0  0  0
   13.6933   29.6506   64.0333 H   0  0  0  0  0  0
   12.3380   29.9220   65.1281 H   0  0  0  0  0  0
    9.1029   31.9226   61.4095 H   0  0  0  0  0  0
  1  2  1  0  0  0
  1  5  1  0  0  0
  1 15  2  0  0  0
  2  3  1  0  0  0
  2 24  1  0  0  0
  2 25  1  0  0  0
  3  4  1  0  0  0
  3 12  1  0  0  0
  3 26  1  0  0  0
  4  5  1  0  0  0
  4 27  1  0  0  0
  4 28  1  0  0  0
  5  6  1  0  0  0
  6  7  1  0  0  0
  6 11  1  0  0  0
  6 29  1  0  0  0
  7  8  1  0  0  0
  7 30  1  0  0  0
  7 31  1  0  0  0
  8  9  1  0  0  0
  8 32  1  0  0  0
  8 33  1  0  0  0
  9 10  1  0  0  0
  9 34  1  0  0  0
  9 35  1  0  0  0
 10 11  1  0  0  0
 10 36  1  0  0  0
 10 37  1  0  0  0
 11 38  1  0  0  0
 11 39  1  0  0  0
 12 13  2  0  0  0
 12 23  1  0  0  0
 14 16  2  0  0  0
 14 20  1  0  0  0
 14 23  1  0  0  0
 16 17  1  0  0  0
 16 40  1  0  0  0
 17 18  2  0  0  0
 17 21  1  0  0  0
 18 19  1  0  0  0
 18 41  1  0  0  0
 19 20  2  0  0  0
 19 22  1  0  0  0
 20 42  1  0  0  0
 21 43  1  0  0  0
 21 44  1  0  0  0
 21 45  1  0  0  0
 22 46  1  0  0  0
 22 47  1  0  0  0
 22 48  1  0  0  0
 23 49  1  0  0  0
M  END
> <s_m_entry_id>
8253

> <s_m_entry_name>
dock_pv.48

> <s_m_Source_Path>
/home/csk/Desktop/cluster/DUD-E-result/inha

> <s_m_Source_File>
dock_pv.maegz

> <i_m_Source_File_Index>
48

> <chembl_id>
CHEMBL387186

> <chembl_pref_name>
None

> <i_lp_mmshare_version>
53161

> <r_lp_tautomer_probability>
1

> <s_lp_Force_Field>
OPLS_2005

> <r_lp_Energy>
29.602274

> <b_lp_Chiralities_Consistent>
1

> <s_lp_Variant>
CHEMBL1849_lig18-1

> <s_i_glide_gridfile>
glide-grid_2h7l

> <i_i_glide_lignum>
24

> <i_i_glide_rotatable_bonds>
4

> <r_i_docking_score>
-7.90297450895843

> <r_i_glide_ligand_efficiency>
-0.343607587346019

> <r_i_glide_ligand_efficiency_sa>
-0.977174270658497

> <r_i_glide_ligand_efficiency_ln>
-1.91101089647705

> <r_i_glide_gscore>
-7.90297450895843

> <r_i_glide_lipo>
-4.18263564104932

> <r_i_glide_hbond>
0

> <r_i_glide_metal>
0

> <r_i_glide_rewards>
-2.93363502866253

> <r_i_glide_evdw>
-33.031436920166

> <r_i_glide_ecoul>
0.75184553861618

> <r_i_glide_erotb>
0.752091175969292

> <r_i_glide_esite>
0

> <r_i_glide_emodel>
-48.6948530474743

> <r_i_glide_energy>
-32.2795913815498

> <r_i_glide_einternal>
4.86815023422241

> <i_i_glide_confnum>
5

> <i_i_glide_posenum>
133

> <r_i_glide_eff_state_penalty>
0

> <s_user_duplicate_titles>
CHEMBL1849_lig18

> <i_f3d_flags>
0

> <s_m_subgroup_title>
dock_pv

> <s_m_subgroupid>
dock_pv

> <b_m_subgroup_collapsed>
0

$$$$
CHEMBL1849_lig29
                    3D
 Schrodinger Suite 2021-1.
 59 63  0  0  1  0            999 V2000
    5.9450   30.1075   61.1929 N   0  0  0  0  0  0
    6.8519   31.1581   60.9519 C   0  0  0  0  0  0
    6.4305   32.1587   60.0775 C   0  0  0  0  0  0
    7.2363   33.2458   59.7406 C   0  0  0  0  0  0
    8.1037   31.2597   61.5659 C   0  0  0  0  0  0
    8.9494   32.3307   61.2339 C   0  0  0  0  0  0
    8.5251   33.3107   60.2957 C   0  0  0  0  0  0
    9.5969   34.1971   60.1209 N   0  0  0  0  0  0
   10.2076   32.7212   61.7201 C   0  0  0  0  0  0
   10.5698   33.9271   61.0764 C   0  0  0  0  0  0
   11.7549   34.6050   61.4064 C   0  0  0  0  0  0
   12.5786   34.0300   62.3746 C   0  0  0  0  0  0
   12.2437   32.8332   63.0008 C   0  0  0  0  0  0
   11.0578   32.1685   62.6966 C   0  0  0  0  0  0
    9.7268   35.3043   59.1719 C   0  0  0  0  0  0
    9.1772   34.9993   57.7683 C   0  0  0  0  0  0
    5.1022   26.3216   63.5830 N   0  0  0  0  0  0
    5.3653   25.6138   62.4552 C   0  0  0  0  0  0
    5.1717   26.5718   61.2815 C   0  0  0  0  0  0
    4.9374   27.9724   61.8642 C   0  0  1  0  0  0
    4.6650   27.6965   63.3415 C   0  0  0  0  0  0
    5.6286   26.5112   66.0655 C   0  0  0  0  0  0
    5.0541   25.6564   64.9021 C   0  0  0  0  0  0
    4.6513   27.5185   66.7092 C   0  0  0  0  0  0
    3.2972   26.8876   67.0654 C   0  0  0  0  0  0
    2.6797   26.1557   65.8597 C   0  0  0  0  0  0
    3.6504   25.1112   65.2726 C   0  0  0  0  0  0
    5.6649   24.4229   62.3525 O   0  0  0  0  0  0
    6.1844   28.8746   61.6944 C   0  0  0  0  0  0
    7.2961   28.4538   62.0185 O   0  0  0  0  0  0
    5.0035   30.2935   60.8872 H   0  0  0  0  0  0
    5.4442   32.1007   59.6392 H   0  0  0  0  0  0
    6.8351   34.0014   59.0912 H   0  0  0  0  0  0
    8.4317   30.5393   62.2981 H   0  0  0  0  0  0
   12.0367   35.5316   60.9271 H   0  0  0  0  0  0
   13.5008   34.5235   62.6451 H   0  0  0  0  0  0
   12.9087   32.4194   63.7445 H   0  0  0  0  0  0
   10.7992   31.2529   63.2097 H   0  0  0  0  0  0
    9.3047   36.1916   59.6189 H   0  0  0  0  0  0
   10.7890   35.5269   59.0544 H   0  0  0  0  0  0
    9.3023   35.8646   57.1265 H   0  0  0  0  0  0
    9.7037   34.1710   57.3145 H   0  0  0  0  0  0
    8.1277   34.7439   57.7324 H   0  0  0  0  0  0
    6.0680   26.4965   60.6602 H   0  0  0  0  0  0
    4.3398   26.2523   60.6542 H   0  0  0  0  0  0
    4.0855   28.4522   61.3770 H   0  0  0  0  0  0
    3.5908   27.7623   63.5265 H   0  0  0  0  0  0
    5.1192   28.4403   64.0009 H   0  0  0  0  0  0
    6.5128   27.0459   65.7195 H   0  0  0  0  0  0
    5.9942   25.8352   66.8432 H   0  0  0  0  0  0
    5.7013   24.7834   64.8186 H   0  0  0  0  0  0
    4.4914   28.3699   66.0487 H   0  0  0  0  0  0
    5.1077   27.9247   67.6110 H   0  0  0  0  0  0
    2.6116   27.6577   67.4253 H   0  0  0  0  0  0
    3.4329   26.1806   67.8882 H   0  0  0  0  0  0
    2.3947   26.8755   65.0914 H   0  0  0  0  0  0
    1.7561   25.6608   66.1617 H   0  0  0  0  0  0
    3.7752   24.3069   65.9990 H   0  0  0  0  0  0
    3.1995   24.6268   64.4068 H   0  0  0  0  0  0
  1  2  1  0  0  0
  1 29  1  0  0  0
  1 31  1  0  0  0
  2  3  2  0  0  0
  2  5  1  0  0  0
  3  4  1  0  0  0
  3 32  1  0  0  0
  4  7  2  0  0  0
  4 33  1  0  0  0
  5  6  2  0  0  0
  5 34  1  0  0  0
  6  7  1  0  0  0
  6  9  1  0  0  0
  7  8  1  0  0  0
  8 15  1  0  0  0
  8 10  1  0  0  0
  9 14  2  0  0  0
  9 10  1  0  0  0
 10 11  2  0  0  0
 11 12  1  0  0  0
 11 35  1  0  0  0
 12 13  2  0  0  0
 12 36  1  0  0  0
 13 14  1  0  0  0
 13 37  1  0  0  0
 14 38  1  0  0  0
 15 16  1  0  0  0
 15 39  1  0  0  0
 15 40  1  0  0  0
 16 41  1  0  0  0
 16 42  1  0  0  0
 16 43  1  0  0  0
 17 21  1  0  0  0
 17 23  1  0  0  0
 17 18  1  0  0  0
 18 19  1  0  0  0
 18 28  2  0  0  0
 19 20  1  0  0  0
 19 44  1  0  0  0
 19 45  1  0  0  0
 20 21  1  0  0  0
 20 29  1  0  0  0
 20 46  1  0  0  0
 21 47  1  0  0  0
 21 48  1  0  0  0
 22 24  1  0  0  0
 22 23  1  0  0  0
 22 49  1  0  0  0
 22 50  1  0  0  0
 23 27  1  0  0  0
 23 51  1  0  0  0
 24 25  1  0  0  0
 24 52  1  0  0  0
 24 53  1  0  0  0
 25 26  1  0  0  0
 25 54  1  0  0  0
 25 55  1  0  0  0
 26 27  1  0  0  0
 26 56  1  0  0  0
 26 57  1  0  0  0
 27 58  1  0  0  0
 27 59  1  0  0  0
 29 30  2  0  0  0
M  END
> <s_m_entry_id>
8254

> <s_m_entry_name>
dock_pv.49

> <s_m_Source_Path>
/home/csk/Desktop/cluster/DUD-E-result/inha

> <s_m_Source_File>
dock_pv.maegz

> <i_m_Source_File_Index>
49

> <chembl_id>
CHEMBL213872

> <chembl_pref_name>
None

> <i_lp_mmshare_version>
53161

> <r_lp_tautomer_probability>
1

> <s_lp_Force_Field>
OPLS_2005

> <r_lp_Energy>
42.627397

> <b_lp_Chiralities_Consistent>
1

> <s_lp_Variant>
CHEMBL1849_lig29-2

> <s_i_glide_gridfile>
glide-grid_2h7l

> <i_i_glide_lignum>
51

> <i_i_glide_rotatable_bonds>
5

> <r_i_docking_score>
-7.90181190041122

> <r_i_glide_ligand_efficiency>
-0.263393730013707

> <r_i_glide_ligand_efficiency_sa>
-0.818425558835151

> <r_i_glide_ligand_efficiency_ln>
-1.79537776090992

> <r_i_glide_gscore>
-7.90181190041122

> <r_i_glide_lipo>
-4.28425549166903

> <r_i_glide_hbond>
0

> <r_i_glide_metal>
0

> <r_i_glide_rewards>
-2.13156267725472

> <r_i_glide_evdw>
-39.4649887084961

> <r_i_glide_ecoul>
0.0327900052070618

> <r_i_glide_erotb>
0.482337203156274

> <r_i_glide_esite>
0

> <r_i_glide_emodel>
-54.3777448432638

> <r_i_glide_energy>
-39.432198703289

> <r_i_glide_einternal>
6.6366081237793

> <i_i_glide_confnum>
28

> <i_i_glide_posenum>
105

> <r_i_glide_eff_state_penalty>
0

> <s_user_duplicate_titles>
CHEMBL1849_lig29

> <i_f3d_flags>
0

> <s_m_subgroup_title>
dock_pv

> <s_m_subgroupid>
dock_pv

> <b_m_subgroup_collapsed>
0

$$$$
CHEMBL1849_lig107
                    3D
 Schrodinger Suite 2021-1.
 40 42  0  0  1  0            999 V2000
    9.4023   34.6083   59.9545 C   0  0  0  0  0  0
    8.2500   34.3207   60.5815 N   0  0  0  0  0  0
    5.1294   30.4554   58.8636 C   0  0  2  0  0  0
    6.0621   29.6100   57.9726 C   0  0  0  0  0  0
    4.1039   30.9269   58.0167 O   0  0  0  0  0  0
    7.2207   33.5237   60.1328 C   0  0  0  0  0  0
    7.4331   32.2139   59.0070 S   0  0  0  0  0  0
    5.8210   31.6890   59.4312 C   0  0  0  0  0  0
    5.2411   32.4950   60.2955 N   0  0  0  0  0  0
    6.0587   33.5242   60.7296 N   0  0  0  0  0  0
    4.5371   29.5792   59.9779 C   0  0  0  0  0  0
    2.8664   29.0823   60.0889 S   0  0  0  0  0  0
    3.2572   28.1817   61.5177 C   0  0  0  0  0  0
    4.6096   28.3279   61.7950 C   0  0  0  0  0  0
    5.2788   29.0877   60.9477 N   0  0  0  0  0  0
    5.3935   27.7344   62.9419 C   0  0  0  0  0  0
    9.6007   34.4644   58.7494 O   0  0  0  0  0  0
   10.4967   35.1822   60.8586 C   0  0  0  0  0  0
   11.3189   34.1725   61.6903 C   0  0  0  0  0  0
   12.5435   34.6321   62.1953 C   0  0  0  0  0  0
   13.3928   33.7928   62.9100 C   0  0  0  0  0  0
   12.9911   32.5005   63.2279 C   0  0  0  0  0  0
   11.7356   32.0544   62.8280 C   0  0  0  0  0  0
   10.9144   32.8600   62.0350 C   0  0  0  0  0  0
   12.9040   35.9220   62.0280 F   0  0  0  0  0  0
    9.7450   32.3230   61.6268 F   0  0  0  0  0  0
    8.1387   34.6756   61.5205 H   0  0  0  0  0  0
    6.9420   29.2692   58.5206 H   0  0  0  0  0  0
    5.5505   28.7221   57.6283 H   0  0  0  0  0  0
    6.4084   30.1550   57.0934 H   0  0  0  0  0  0
    3.7118   30.1809   57.5484 H   0  0  0  0  0  0
    2.5082   27.6214   62.0568 H   0  0  0  0  0  0
    4.8049   27.0081   63.5026 H   0  0  0  0  0  0
    6.2927   27.2186   62.6022 H   0  0  0  0  0  0
    5.7044   28.5021   63.6505 H   0  0  0  0  0  0
   10.0666   35.9190   61.5372 H   0  0  0  0  0  0
   11.1751   35.7413   60.2101 H   0  0  0  0  0  0
   14.3435   34.1653   63.2621 H   0  0  0  0  0  0
   13.6358   31.8601   63.8126 H   0  0  0  0  0  0
   11.4095   31.0606   63.0948 H   0  0  0  0  0  0
  1  2  1  0  0  0
  1 17  2  0  0  0
  1 18  1  0  0  0
  2  6  1  0  0  0
  2 27  1  0  0  0
  3  4  1  0  0  0
  3  5  1  0  0  0
  3  8  1  0  0  0
  3 11  1  0  0  0
  4 28  1  0  0  0
  4 29  1  0  0  0
  4 30  1  0  0  0
  5 31  1  0  0  0
  6  7  1  0  0  0
  6 10  2  0  0  0
  7  8  1  0  0  0
  8  9  2  0  0  0
  9 10  1  0  0  0
 11 12  1  0  0  0
 11 15  2  0  0  0
 12 13  1  0  0  0
 13 14  2  0  0  0
 13 32  1  0  0  0
 14 15  1  0  0  0
 14 16  1  0  0  0
 16 33  1  0  0  0
 16 34  1  0  0  0
 16 35  1  0  0  0
 18 19  1  0  0  0
 18 36  1  0  0  0
 18 37  1  0  0  0
 19 20  2  0  0  0
 19 24  1  0  0  0
 20 21  1  0  0  0
 20 25  1  0  0  0
 21 22  2  0  0  0
 21 38  1  0  0  0
 22 23  1  0  0  0
 22 39  1  0  0  0
 23 24  2  0  0  0
 23 40  1  0  0  0
 24 26  1  0  0  0
M  END
> <s_m_entry_id>
8255

> <s_m_entry_name>
dock_pv.50

> <s_m_Source_Path>
/home/csk/Desktop/cluster/DUD-E-result/inha

> <s_m_Source_File>
dock_pv.maegz

> <i_m_Source_File_Index>
50

> <chembl_id>
CHEMBL3088176

> <chembl_pref_name>
None

> <i_lp_mmshare_version>
53161

> <r_lp_tautomer_probability>
1

> <s_lp_Force_Field>
OPLS_2005

> <r_lp_Energy>
3.936819

> <b_lp_Chiralities_Consistent>
1

> <s_lp_Variant>
CHEMBL1849_lig107-1

> <s_i_glide_gridfile>
glide-grid_2h7l

> <i_i_glide_lignum>
163

> <i_i_glide_rotatable_bonds>
7

> <r_i_docking_score>
-7.89618225055916

> <r_i_glide_ligand_efficiency>
-0.303699317329198

> <r_i_glide_ligand_efficiency_sa>
-0.899708032588641

> <r_i_glide_ligand_efficiency_ln>
-1.85439249205658

> <r_i_glide_gscore>
-7.89618225055916

> <r_i_glide_lipo>
-3.46434119698269

> <r_i_glide_hbond>
-0.29463887672465

> <r_i_glide_metal>
0

> <r_i_glide_rewards>
-2.18078765217886

> <r_i_glide_evdw>
-41.6643943786621

> <r_i_glide_ecoul>
-3.30423903465271

> <r_i_glide_erotb>
0.622441049458052

> <r_i_glide_esite>
0

> <r_i_glide_emodel>
-63.0780825788884

> <r_i_glide_energy>
-44.9686334133148

> <r_i_glide_einternal>
10.2831935882568

> <i_i_glide_confnum>
3

> <i_i_glide_posenum>
38

> <r_i_glide_eff_state_penalty>
0

> <s_user_duplicate_titles>
CHEMBL1849_lig107

> <i_f3d_flags>
0

> <s_m_subgroup_title>
dock_pv

> <s_m_subgroupid>
dock_pv

> <b_m_subgroup_collapsed>
0

$$$$
CHEMBL1849_lig19
                    3D
 Schrodinger Suite 2021-1.
 46 48  0  0  1  0            999 V2000
    9.7769   33.4124   61.0270 N   0  0  0  0  0  0
   10.9047   33.1920   61.8550 C   0  0  0  0  0  0
   11.8737   34.2144   61.9097 C   0  0  0  0  0  0
   13.0774   33.9969   62.5892 C   0  0  0  0  0  0
   13.3260   32.7841   63.2274 C   0  0  0  0  0  0
   12.3531   31.7892   63.2279 C   0  0  0  0  0  0
   11.1418   31.9995   62.5660 C   0  0  0  0  0  0
   11.6385   35.5745   61.2624 C   0  0  0  0  0  0
   12.6654   30.2832   64.0107 Cl  0  0  0  0  0  0
    5.3870   32.7147   60.5603 C   0  0  0  0  0  0
    6.4527   33.8064   60.5106 C   0  0  0  0  0  0
    7.6585   33.2046   59.7965 C   0  0  2  0  0  0
    7.0129   32.0925   58.9782 C   0  0  0  0  0  0
    5.8022   31.7212   59.7257 N   0  0  0  0  0  0
    4.9306   30.5635   59.4075 C   0  0  0  0  0  0
    5.4827   29.5825   58.3314 C   0  0  0  0  0  0
    6.6497   28.6768   58.8045 C   0  0  0  0  0  0
    6.3253   27.9369   60.1166 C   0  0  0  0  0  0
    5.7622   28.8890   61.1896 C   0  0  0  0  0  0
    4.5617   29.6887   60.6421 C   0  0  0  0  0  0
    4.3582   32.7869   61.2268 O   0  0  0  0  0  0
    8.6786   32.6544   60.8279 C   0  0  0  0  0  0
    8.4334   31.6091   61.4312 O   0  0  0  0  0  0
    9.8061   34.2897   60.5326 H   0  0  0  0  0  0
   13.8332   34.7661   62.6202 H   0  0  0  0  0  0
   14.2657   32.6241   63.7367 H   0  0  0  0  0  0
   10.4237   31.1969   62.5875 H   0  0  0  0  0  0
   10.6453   35.9499   61.5154 H   0  0  0  0  0  0
   12.3471   36.3183   61.6282 H   0  0  0  0  0  0
   11.7041   35.5073   60.1772 H   0  0  0  0  0  0
    6.6560   34.0695   61.5495 H   0  0  0  0  0  0
    6.0823   34.7078   60.0274 H   0  0  0  0  0  0
    8.1527   33.9458   59.1662 H   0  0  0  0  0  0
    6.7263   32.4723   57.9952 H   0  0  0  0  0  0
    7.7119   31.2816   58.7874 H   0  0  0  0  0  0
    4.0099   30.9958   59.0106 H   0  0  0  0  0  0
    4.6571   28.9391   58.0281 H   0  0  0  0  0  0
    5.7655   30.1260   57.4297 H   0  0  0  0  0  0
    6.8961   27.9513   58.0290 H   0  0  0  0  0  0
    7.5628   29.2511   58.9480 H   0  0  0  0  0  0
    5.5982   27.1495   59.9141 H   0  0  0  0  0  0
    7.2187   27.4341   60.4897 H   0  0  0  0  0  0
    5.4618   28.3167   62.0670 H   0  0  0  0  0  0
    6.5421   29.5755   61.5248 H   0  0  0  0  0  0
    4.1284   30.2909   61.4380 H   0  0  0  0  0  0
    3.7673   28.9954   60.3652 H   0  0  0  0  0  0
  1  2  1  0  0  0
  1 22  1  0  0  0
  1 24  1  0  0  0
  2  7  2  0  0  0
  2  3  1  0  0  0
  3  4  2  0  0  0
  3  8  1  0  0  0
  4  5  1  0  0  0
  4 25  1  0  0  0
  5  6  2  0  0  0
  5 26  1  0  0  0
  6  7  1  0  0  0
  6  9  1  0  0  0
  7 27  1  0  0  0
  8 28  1  0  0  0
  8 29  1  0  0  0
  8 30  1  0  0  0
 10 14  1  0  0  0
 10 11  1  0  0  0
 10 21  2  0  0  0
 11 12  1  0  0  0
 11 31  1  0  0  0
 11 32  1  0  0  0
 12 13  1  0  0  0
 12 22  1  0  0  0
 12 33  1  0  0  0
 13 14  1  0  0  0
 13 34  1  0  0  0
 13 35  1  0  0  0
 14 15  1  0  0  0
 15 16  1  0  0  0
 15 20  1  0  0  0
 15 36  1  0  0  0
 16 17  1  0  0  0
 16 37  1  0  0  0
 16 38  1  0  0  0
 17 18  1  0  0  0
 17 39  1  0  0  0
 17 40  1  0  0  0
 18 19  1  0  0  0
 18 41  1  0  0  0
 18 42  1  0  0  0
 19 20  1  0  0  0
 19 43  1  0  0  0
 19 44  1  0  0  0
 20 45  1  0  0  0
 20 46  1  0  0  0
 22 23  2  0  0  0
M  END
> <s_m_entry_id>
8256

> <s_m_entry_name>
dock_pv.51

> <s_m_Source_Path>
/home/csk/Desktop/cluster/DUD-E-result/inha

> <s_m_Source_File>
dock_pv.maegz

> <i_m_Source_File_Index>
51

> <chembl_id>
CHEMBL425259

> <chembl_pref_name>
None

> <i_lp_mmshare_version>
53161

> <r_lp_tautomer_probability>
1

> <s_lp_Force_Field>
OPLS_2005

> <r_lp_Energy>
33.07429

> <b_lp_Chiralities_Consistent>
1

> <s_lp_Variant>
CHEMBL1849_lig19-1

> <s_i_glide_gridfile>
glide-grid_2h7l

> <i_i_glide_lignum>
26

> <i_i_glide_rotatable_bonds>
4

> <r_i_docking_score>
-7.89576585254982

> <r_i_glide_ligand_efficiency>
-0.343294167502166

> <r_i_glide_ligand_efficiency_sa>
-0.976282946314666

> <r_i_glide_ligand_efficiency_ln>
-1.90926777799297

> <r_i_glide_gscore>
-7.89576585254982

> <r_i_glide_lipo>
-4.11885978472102

> <r_i_glide_hbond>
0

> <r_i_glide_metal>
0

> <r_i_glide_rewards>
-2.4619685402275

> <r_i_glide_evdw>
-35.4325065612793

> <r_i_glide_ecoul>
-1.44253504276276

> <r_i_glide_erotb>
0.673068056877081

> <r_i_glide_esite>
0

> <r_i_glide_emodel>
-55.756580226063

> <r_i_glide_energy>
-36.8750416040421

> <r_i_glide_einternal>
1.16192543506622

> <i_i_glide_confnum>
34

> <i_i_glide_posenum>
257

> <r_i_glide_eff_state_penalty>
0

> <s_user_duplicate_titles>
CHEMBL1849_lig19,360342

> <i_f3d_flags>
0

> <s_m_subgroup_title>
dock_pv

> <s_m_subgroupid>
dock_pv

> <b_m_subgroup_collapsed>
0

$$$$
CHEMBL1849_lig103
                    3D
 Schrodinger Suite 2021-1.
 50 53  0  0  1  0            999 V2000
    6.0997   29.0245   58.8284 N   0  0  0  0  0  0
    4.8967   25.5602   62.6262 C   0  0  1  0  0  0
    3.9738   24.3496   62.3641 C   0  0  0  0  0  0
    6.1725   24.9931   62.8743 O   0  0  0  0  0  0
    5.5744   28.0811   59.6699 C   0  0  0  0  0  0
    6.3939   27.5253   61.1017 S   0  0  0  0  0  0
    5.0211   26.4875   61.4147 C   0  0  0  0  0  0
    4.0883   26.6211   60.4953 N   0  0  0  0  0  0
    4.4082   27.5222   59.4888 N   0  0  0  0  0  0
    4.4201   26.3555   63.8543 C   0  0  0  0  0  0
    5.3041   26.5400   65.3520 S   0  0  0  0  0  0
    4.0048   27.5000   65.9781 C   0  0  0  0  0  0
    3.0030   27.5886   65.0216 C   0  0  0  0  0  0
    3.2552   26.9703   63.8808 N   0  0  0  0  0  0
    1.6723   28.2971   65.1371 C   0  0  0  0  0  0
    7.3279   29.7883   59.0177 C   0  0  0  0  0  0
    7.2213   31.2369   58.4998 C   0  0  2  0  0  0
    8.4731   32.0539   58.7630 C   0  0  0  0  0  0
    8.0653   32.9703   59.8064 N   0  0  0  0  0  0
    6.7004   32.8849   60.0524 C   0  0  0  0  0  0
    6.2251   31.9084   59.2534 O   0  0  0  0  0  0
    5.9851   33.5223   60.8218 O   0  0  0  0  0  0
    8.9223   33.9852   60.4184 C   0  0  0  0  0  0
   10.1274   33.4967   61.2280 C   0  0  0  0  0  0
   11.2603   34.3218   61.2800 C   0  0  0  0  0  0
   12.3573   33.9723   62.0662 C   0  0  0  0  0  0
   12.3296   32.8060   62.8285 C   0  0  0  0  0  0
   11.1985   31.9904   62.8097 C   0  0  0  0  0  0
   10.1037   32.3225   62.0084 C   0  0  0  0  0  0
   11.2968   35.4761   60.5761 F   0  0  0  0  0  0
    9.0045   31.5277   62.0401 F   0  0  0  0  0  0
    5.5803   29.2849   58.0026 H   0  0  0  0  0  0
    2.9477   24.6637   62.1640 H   0  0  0  0  0  0
    4.3061   23.7667   61.5038 H   0  0  0  0  0  0
    3.9413   23.6783   63.2239 H   0  0  0  0  0  0
    6.4917   24.6069   62.0547 H   0  0  0  0  0  0
    4.0401   27.9208   66.9710 H   0  0  0  0  0  0
    1.5220   28.7214   66.1301 H   0  0  0  0  0  0
    0.8352   27.6201   64.9537 H   0  0  0  0  0  0
    1.5834   29.1193   64.4268 H   0  0  0  0  0  0
    7.6100   29.8018   60.0724 H   0  0  0  0  0  0
    8.1313   29.2717   58.4918 H   0  0  0  0  0  0
    6.9603   31.2605   57.4416 H   0  0  0  0  0  0
    9.3042   31.4395   59.1036 H   0  0  0  0  0  0
    8.7776   32.6427   57.8940 H   0  0  0  0  0  0
    9.2775   34.6205   59.6046 H   0  0  0  0  0  0
    8.3351   34.6313   61.0753 H   0  0  0  0  0  0
   13.2255   34.6151   62.0915 H   0  0  0  0  0  0
   13.1751   32.5440   63.4481 H   0  0  0  0  0  0
   11.1643   31.0995   63.4190 H   0  0  0  0  0  0
  1  5  1  0  0  0
  1 16  1  0  0  0
  1 32  1  0  0  0
  2  3  1  0  0  0
  2  4  1  0  0  0
  2  7  1  0  0  0
  2 10  1  0  0  0
  3 33  1  0  0  0
  3 34  1  0  0  0
  3 35  1  0  0  0
  4 36  1  0  0  0
  5  6  1  0  0  0
  5  9  2  0  0  0
  6  7  1  0  0  0
  7  8  2  0  0  0
  8  9  1  0  0  0
 10 11  1  0  0  0
 10 14  2  0  0  0
 11 12  1  0  0  0
 12 13  2  0  0  0
 12 37  1  0  0  0
 13 14  1  0  0  0
 13 15  1  0  0  0
 15 38  1  0  0  0
 15 39  1  0  0  0
 15 40  1  0  0  0
 16 17  1  0  0  0
 16 41  1  0  0  0
 16 42  1  0  0  0
 17 18  1  0  0  0
 17 21  1  0  0  0
 17 43  1  0  0  0
 18 19  1  0  0  0
 18 44  1  0  0  0
 18 45  1  0  0  0
 19 20  1  0  0  0
 19 23  1  0  0  0
 20 21  1  0  0  0
 20 22  2  0  0  0
 23 24  1  0  0  0
 23 46  1  0  0  0
 23 47  1  0  0  0
 24 25  2  0  0  0
 24 29  1  0  0  0
 25 26  1  0  0  0
 25 30  1  0  0  0
 26 27  2  0  0  0
 26 48  1  0  0  0
 27 28  1  0  0  0
 27 49  1  0  0  0
 28 29  2  0  0  0
 28 50  1  0  0  0
 29 31  1  0  0  0
M  END
> <s_m_entry_id>
8257

> <s_m_entry_name>
dock_pv.52

> <s_m_Source_Path>
/home/csk/Desktop/cluster/DUD-E-result/inha

> <s_m_Source_File>
dock_pv.maegz

> <i_m_Source_File_Index>
52

> <chembl_id>
CHEMBL3087016

> <chembl_pref_name>
None

> <i_lp_mmshare_version>
53161

> <r_lp_tautomer_probability>
1

> <s_lp_Force_Field>
OPLS_2005

> <r_lp_Energy>
6.848322

> <b_lp_Chiralities_Consistent>
1

> <s_lp_Variant>
CHEMBL1849_lig103-2

> <s_i_glide_gridfile>
glide-grid_2h7l

> <i_i_glide_lignum>
154

> <i_i_glide_rotatable_bonds>
8

> <r_i_docking_score>
-7.8771834593054

> <r_i_glide_ligand_efficiency>
-0.254102692235658

> <r_i_glide_ligand_efficiency_sa>
-0.798233280195954

> <r_i_glide_ligand_efficiency_ln>
-1.77654627675455

> <r_i_glide_gscore>
-7.8771834593054

> <r_i_glide_lipo>
-3.89132491376363

> <r_i_glide_hbond>
0

> <r_i_glide_metal>
0

> <r_i_glide_rewards>
-2.25586383441693

> <r_i_glide_evdw>
-45.8304862976074

> <r_i_glide_ecoul>
-0.565707862377167

> <r_i_glide_erotb>
0.646385783112107

> <r_i_glide_esite>
0

> <r_i_glide_emodel>
-65.5953051586133

> <r_i_glide_energy>
-46.3961941599846

> <r_i_glide_einternal>
6.70900821685791

> <i_i_glide_confnum>
108

> <i_i_glide_posenum>
242

> <r_i_glide_eff_state_penalty>
0

> <s_user_duplicate_titles>
CHEMBL1849_lig103

> <i_f3d_flags>
0

> <s_m_subgroup_title>
dock_pv

> <s_m_subgroupid>
dock_pv

> <b_m_subgroup_collapsed>
0

$$$$
CHEMBL1849_lig16
                    3D
 Schrodinger Suite 2021-1.
 43 45  0  0  1  0            999 V2000
    6.0073   31.8560   58.4423 C   0  0  0  0  0  0
    6.2016   33.0444   59.3867 C   0  0  0  0  0  0
    6.9686   32.5122   60.6068 C   0  0  1  0  0  0
    6.6860   31.0145   60.5469 C   0  0  0  0  0  0
    6.2891   30.7447   59.1628 N   0  0  0  0  0  0
    5.9175   29.4141   58.6439 C   0  0  0  0  0  0
    6.8325   28.2686   59.1476 C   0  0  0  0  0  0
    6.4919   27.6942   60.5404 C   0  0  0  0  0  0
    5.0020   27.3358   60.6670 C   0  0  0  0  0  0
    4.1009   28.5259   60.2957 C   0  0  0  0  0  0
    4.4208   29.0621   58.8867 C   0  0  0  0  0  0
    8.4872   32.8516   60.6050 C   0  0  0  0  0  0
    9.2031   32.3219   61.6255 N   0  0  0  0  0  0
    8.9620   33.5969   59.7482 O   0  0  0  0  0  0
   10.5255   32.5943   62.0280 C   0  0  0  0  0  0
   11.2010   33.7942   61.7493 C   0  0  0  0  0  0
   12.4903   34.0004   62.2463 C   0  0  0  0  0  0
   13.1469   32.9902   62.9453 C   0  0  0  0  0  0
   12.4824   31.8000   63.2279 C   0  0  0  0  0  0
   11.1566   31.6333   62.8280 C   0  0  0  0  0  0
    5.6244   31.9219   57.2736 O   0  0  0  0  0  0
   13.2705   35.5165   62.0278 Cl  0  0  0  0  0  0
   13.3038   30.5267   64.0518 Cl  0  0  0  0  0  0
    5.2494   33.4993   59.6656 H   0  0  0  0  0  0
    6.7413   33.8062   58.8261 H   0  0  0  0  0  0
    6.5777   32.9651   61.5196 H   0  0  0  0  0  0
    7.5179   30.4046   60.9003 H   0  0  0  0  0  0
    5.8500   30.7814   61.2069 H   0  0  0  0  0  0
    6.0511   29.4623   57.5607 H   0  0  0  0  0  0
    6.7845   27.4554   58.4282 H   0  0  0  0  0  0
    7.8701   28.5989   59.1163 H   0  0  0  0  0  0
    7.1004   26.8072   60.7257 H   0  0  0  0  0  0
    6.7608   28.3999   61.3246 H   0  0  0  0  0  0
    4.7747   26.4887   60.0174 H   0  0  0  0  0  0
    4.7842   27.0060   61.6836 H   0  0  0  0  0  0
    3.0535   28.2249   60.3437 H   0  0  0  0  0  0
    4.2144   29.3213   61.0320 H   0  0  0  0  0  0
    3.7932   29.9292   58.6739 H   0  0  0  0  0  0
    4.1070   28.3229   58.1494 H   0  0  0  0  0  0
    8.7189   31.6568   62.2075 H   0  0  0  0  0  0
   10.7200   34.5885   61.1975 H   0  0  0  0  0  0
   14.1608   33.1381   63.2882 H   0  0  0  0  0  0
   10.6367   30.7347   63.1276 H   0  0  0  0  0  0
  1  2  1  0  0  0
  1  5  1  0  0  0
  1 21  2  0  0  0
  2  3  1  0  0  0
  2 24  1  0  0  0
  2 25  1  0  0  0
  3 12  1  0  0  0
  3  4  1  0  0  0
  3 26  1  0  0  0
  4  5  1  0  0  0
  4 27  1  0  0  0
  4 28  1  0  0  0
  5  6  1  0  0  0
  6  7  1  0  0  0
  6 11  1  0  0  0
  6 29  1  0  0  0
  7  8  1  0  0  0
  7 30  1  0  0  0
  7 31  1  0  0  0
  8  9  1  0  0  0
  8 32  1  0  0  0
  8 33  1  0  0  0
  9 10  1  0  0  0
  9 34  1  0  0  0
  9 35  1  0  0  0
 10 11  1  0  0  0
 10 36  1  0  0  0
 10 37  1  0  0  0
 11 38  1  0  0  0
 11 39  1  0  0  0
 12 13  1  0  0  0
 12 14  2  0  0  0
 13 15  1  0  0  0
 13 40  1  0  0  0
 15 16  2  0  0  0
 15 20  1  0  0  0
 16 17  1  0  0  0
 16 41  1  0  0  0
 17 18  2  0  0  0
 17 22  1  0  0  0
 18 19  1  0  0  0
 18 42  1  0  0  0
 19 20  2  0  0  0
 19 23  1  0  0  0
 20 43  1  0  0  0
M  END
> <s_m_entry_id>
8258

> <s_m_entry_name>
dock_pv.53

> <s_m_Source_Path>
/home/csk/Desktop/cluster/DUD-E-result/inha

> <s_m_Source_File>
dock_pv.maegz

> <i_m_Source_File_Index>
53

> <chembl_id>
CHEMBL216807

> <chembl_pref_name>
None

> <i_lp_mmshare_version>
53161

> <r_lp_tautomer_probability>
1

> <s_lp_Force_Field>
OPLS_2005

> <r_lp_Energy>
29.386912

> <b_lp_Chiralities_Consistent>
1

> <s_lp_Variant>
CHEMBL1849_lig16-2

> <s_i_glide_gridfile>
glide-grid_2h7l

> <i_i_glide_lignum>
21

> <i_i_glide_rotatable_bonds>
4

> <r_i_docking_score>
-7.87328492000397

> <r_i_glide_ligand_efficiency>
-0.342316735652346

> <r_i_glide_ligand_efficiency_sa>
-0.973503260154814

> <r_i_glide_ligand_efficiency_ln>
-1.90383168465755

> <r_i_glide_gscore>
-7.87328492000397

> <r_i_glide_lipo>
-3.66356772769325

> <r_i_glide_hbond>
-0.163586854267968

> <r_i_glide_metal>
0

> <r_i_glide_rewards>
-2.34101214382427

> <r_i_glide_evdw>
-37.2858619689941

> <r_i_glide_ecoul>
-2.97838139533997

> <r_i_glide_erotb>
0.605932113532223

> <r_i_glide_esite>
0

> <r_i_glide_emodel>
-56.8487855976277

> <r_i_glide_energy>
-40.2642433643341

> <r_i_glide_einternal>
3.43332028388977

> <i_i_glide_confnum>
53

> <i_i_glide_posenum>
340

> <r_i_glide_eff_state_penalty>
0

> <s_user_duplicate_titles>
CHEMBL1849_lig16,360352

> <i_f3d_flags>
0

> <s_m_subgroup_title>
dock_pv

> <s_m_subgroupid>
dock_pv

> <b_m_subgroup_collapsed>
0

$$$$
CHEMBL1849_lig109
                    3D
 Schrodinger Suite 2021-1.
 45 48  0  0  1  0            999 V2000
   12.4686   32.5659   63.2247 C   0  0  0  0  0  0
   12.8796   33.8336   62.8280 C   0  0  0  0  0  0
   12.1024   34.5736   61.9407 C   0  0  0  0  0  0
   10.9248   34.0460   61.3920 C   0  0  0  0  0  0
   10.5040   32.7726   61.8262 C   0  0  0  0  0  0
   11.2673   32.0504   62.7467 C   0  0  0  0  0  0
   10.1710   34.9016   60.3546 C   0  0  0  0  0  0
    8.9362   34.3548   59.7938 N   0  0  0  0  0  0
    7.7195   34.2764   60.4072 C   0  0  0  0  0  0
    6.9100   33.5083   59.5983 C   0  0  0  0  0  0
    7.7408   33.1972   58.5147 C   0  0  0  0  0  0
    8.9356   33.7225   58.6143 N   0  0  0  0  0  0
    9.3554   32.2178   61.3847 F   0  0  0  0  0  0
   12.4946   35.8259   61.6333 F   0  0  0  0  0  0
    5.6249   33.1386   59.8666 N   0  0  0  0  0  0
    2.4897   28.9616   59.5059 C   0  0  2  0  0  0
    2.0437   28.3689   58.1520 C   0  0  0  0  0  0
    1.3136   29.5220   60.0735 O   0  0  0  0  0  0
    5.0242   31.9744   59.4751 C   0  0  0  0  0  0
    3.7032   31.4278   60.4283 S   0  0  0  0  0  0
    3.5511   30.0607   59.3571 C   0  0  0  0  0  0
    4.4854   30.0702   58.4281 N   0  0  0  0  0  0
    5.3317   31.1727   58.4851 N   0  0  0  0  0  0
    3.0118   27.8489   60.4304 C   0  0  0  0  0  0
    2.2054   27.2815   61.8751 S   0  0  0  0  0  0
    3.4962   26.1553   62.1270 C   0  0  0  0  0  0
    4.4235   26.2905   61.1040 C   0  0  0  0  0  0
    4.1358   27.2045   60.1947 N   0  0  0  0  0  0
    5.7071   25.5219   60.9167 C   0  0  0  0  0  0
   13.0667   31.9981   63.9228 H   0  0  0  0  0  0
   13.7916   34.2560   63.2238 H   0  0  0  0  0  0
   10.9277   31.0805   63.0771 H   0  0  0  0  0  0
   10.8504   35.1246   59.5285 H   0  0  0  0  0  0
    9.9270   35.8645   60.8046 H   0  0  0  0  0  0
    7.5561   34.7221   61.3741 H   0  0  0  0  0  0
    7.4715   32.5899   57.6650 H   0  0  0  0  0  0
    5.1222   33.6942   60.5442 H   0  0  0  0  0  0
    2.8858   27.9242   57.6235 H   0  0  0  0  0  0
    1.2924   27.5893   58.2852 H   0  0  0  0  0  0
    1.6147   29.1220   57.4929 H   0  0  0  0  0  0
    1.1230   30.4134   59.6875 H   0  0  0  0  0  0
    3.5083   25.4851   62.9732 H   0  0  0  0  0  0
    5.9117   24.8571   61.7559 H   0  0  0  0  0  0
    6.5706   26.1818   60.8211 H   0  0  0  0  0  0
    5.6725   24.8973   60.0254 H   0  0  0  0  0  0
  1  2  2  0  0  0
  1  6  1  0  0  0
  1 30  1  0  0  0
  2  3  1  0  0  0
  2 31  1  0  0  0
  3  4  2  0  0  0
  3 14  1  0  0  0
  4  5  1  0  0  0
  4  7  1  0  0  0
  5  6  2  0  0  0
  5 13  1  0  0  0
  6 32  1  0  0  0
  7  8  1  0  0  0
  7 33  1  0  0  0
  7 34  1  0  0  0
  8  9  1  0  0  0
  8 12  1  0  0  0
  9 10  2  0  0  0
  9 35  1  0  0  0
 10 11  1  0  0  0
 10 15  1  0  0  0
 11 12  2  0  0  0
 11 36  1  0  0  0
 15 19  1  0  0  0
 15 37  1  0  0  0
 16 17  1  0  0  0
 16 18  1  0  0  0
 16 21  1  0  0  0
 16 24  1  0  0  0
 17 38  1  0  0  0
 17 39  1  0  0  0
 17 40  1  0  0  0
 18 41  1  0  0  0
 19 20  1  0  0  0
 19 23  2  0  0  0
 20 21  1  0  0  0
 21 22  2  0  0  0
 22 23  1  0  0  0
 24 25  1  0  0  0
 24 28  2  0  0  0
 25 26  1  0  0  0
 26 27  2  0  0  0
 26 42  1  0  0  0
 27 28  1  0  0  0
 27 29  1  0  0  0
 29 43  1  0  0  0
 29 44  1  0  0  0
 29 45  1  0  0  0
M  END
> <s_m_entry_id>
8259

> <s_m_entry_name>
dock_pv.54

> <s_m_Source_Path>
/home/csk/Desktop/cluster/DUD-E-result/inha

> <s_m_Source_File>
dock_pv.maegz

> <i_m_Source_File_Index>
54

> <chembl_id>
CHEMBL3088174

> <chembl_pref_name>
None

> <i_lp_mmshare_version>
53161

> <r_lp_tautomer_probability>
1

> <s_lp_Force_Field>
OPLS_2005

> <r_lp_Energy>
4.697509

> <b_lp_Chiralities_Consistent>
1

> <s_lp_Variant>
CHEMBL1849_lig109-1

> <s_i_glide_gridfile>
glide-grid_2h7l

> <i_i_glide_lignum>
167

> <i_i_glide_rotatable_bonds>
7

> <r_i_docking_score>
-7.8349538209235

> <r_i_glide_ligand_efficiency>
-0.270170821411155

> <r_i_glide_ligand_efficiency_sa>
-0.830050359499183

> <r_i_glide_ligand_efficiency_ln>
-1.79400574770493

> <r_i_glide_gscore>
-7.8349538209235

> <r_i_glide_lipo>
-3.21898845341174

> <r_i_glide_hbond>
-0.142163657054339

> <r_i_glide_metal>
0

> <r_i_glide_rewards>
-1.82280191593821

> <r_i_glide_evdw>
-38.1139526367188

> <r_i_glide_ecoul>
-9.18865966796875

> <r_i_glide_erotb>
0.632996787512037

> <r_i_glide_esite>
0

> <r_i_glide_emodel>
-63.8300544966527

> <r_i_glide_energy>
-47.3026123046875

> <r_i_glide_einternal>
12.9032707214355

> <i_i_glide_confnum>
33

> <i_i_glide_posenum>
258

> <r_i_glide_eff_state_penalty>
0

> <s_user_duplicate_titles>
CHEMBL1849_lig109

> <i_f3d_flags>
0

> <s_m_subgroup_title>
dock_pv

> <s_m_subgroupid>
dock_pv

> <b_m_subgroup_collapsed>
0

$$$$
CHEMBL1849_lig4
                    3D
 Schrodinger Suite 2021-1.
 47 50  0  0  1  0            999 V2000
    8.9077   33.6717   60.3695 C   0  0  0  0  0  0
    9.8020   34.7220   60.1557 C   0  0  0  0  0  0
   11.0256   34.7715   60.8272 C   0  0  0  0  0  0
    9.2815   32.6298   61.2280 C   0  0  0  0  0  0
   10.5040   32.6749   61.9031 C   0  0  0  0  0  0
   11.3845   33.7482   61.7146 C   0  0  0  0  0  0
   12.6847   33.6634   62.4192 C   0  0  0  0  0  0
   13.0164   32.5483   63.1012 C   0  0  0  0  0  0
   12.0927   31.4217   63.2280 C   0  0  0  0  0  0
   10.8025   31.6280   62.7685 O   0  0  0  0  0  0
   12.3387   30.3220   63.7190 O   0  0  0  0  0  0
    7.6967   33.7084   59.7090 O   0  0  0  0  0  0
    6.5246   33.3146   60.4320 C   0  0  0  0  0  0
    6.1241   31.8840   60.1212 C   0  0  0  0  0  0
    5.7630   31.5143   58.9040 N   0  0  0  0  0  0
    5.4173   30.1735   58.9305 N   0  0  0  0  0  0
    5.5762   29.7479   60.1914 N   0  0  0  0  0  0
    6.0447   30.7821   60.9645 C   0  0  0  0  0  0
    5.3310   28.3631   60.5473 C   0  0  2  0  0  0
    4.8080   28.2814   61.8407 O   0  0  0  0  0  0
    5.1262   27.0292   62.4525 C   0  0  1  0  0  0
    6.1326   26.3679   61.4929 C   0  0  2  0  0  0
    6.5810   27.4961   60.5571 C   0  0  1  0  0  0
    5.7040   27.2954   63.8543 C   0  0  0  0  0  0
    4.7455   27.9156   64.6867 O   0  0  0  0  0  0
    5.5858   25.2416   60.8280 O   0  0  0  0  0  0
    6.9040   27.1244   59.2280 O   0  0  0  0  0  0
   13.6806   34.7848   62.2329 C   0  0  0  0  0  0
    9.5345   35.5211   59.4805 H   0  0  0  0  0  0
   11.6887   35.6016   60.6327 H   0  0  0  0  0  0
    8.6190   31.7959   61.3942 H   0  0  0  0  0  0
   13.9913   32.4758   63.5600 H   0  0  0  0  0  0
    5.7191   34.0021   60.1705 H   0  0  0  0  0  0
    6.6594   33.4440   61.5081 H   0  0  0  0  0  0
    6.2483   30.6451   62.0159 H   0  0  0  0  0  0
    4.5777   27.9798   59.8529 H   0  0  0  0  0  0
    4.2227   26.4236   62.5507 H   0  0  0  0  0  0
    7.0030   26.0059   62.0439 H   0  0  0  0  0  0
    7.3898   28.0616   61.0254 H   0  0  0  0  0  0
    6.5895   27.9220   63.7790 H   0  0  0  0  0  0
    6.0145   26.3606   64.3231 H   0  0  0  0  0  0
    4.4761   28.7377   64.2689 H   0  0  0  0  0  0
    6.2303   24.9526   60.1673 H   0  0  0  0  0  0
    7.6804   26.5503   59.2451 H   0  0  0  0  0  0
   14.5071   34.6919   62.9338 H   0  0  0  0  0  0
   14.0959   34.7220   61.2280 H   0  0  0  0  0  0
   13.2175   35.7598   62.3830 H   0  0  0  0  0  0
  1  2  2  0  0  0
  1  4  1  0  0  0
  1 12  1  0  0  0
  2  3  1  0  0  0
  2 29  1  0  0  0
  3  6  2  0  0  0
  3 30  1  0  0  0
  4  5  2  0  0  0
  4 31  1  0  0  0
  5  6  1  0  0  0
  5 10  1  0  0  0
  6  7  1  0  0  0
  7  8  2  0  0  0
  7 28  1  0  0  0
  8  9  1  0  0  0
  8 32  1  0  0  0
  9 10  1  0  0  0
  9 11  2  0  0  0
 12 13  1  0  0  0
 13 14  1  0  0  0
 13 33  1  0  0  0
 13 34  1  0  0  0
 14 15  1  0  0  0
 14 18  2  0  0  0
 15 16  2  0  0  0
 16 17  1  0  0  0
 17 18  1  0  0  0
 17 19  1  0  0  0
 18 35  1  0  0  0
 19 20  1  0  0  0
 19 23  1  0  0  0
 19 36  1  0  0  0
 20 21  1  0  0  0
 21 22  1  0  0  0
 21 24  1  0  0  0
 21 37  1  0  0  0
 22 23  1  0  0  0
 22 26  1  0  0  0
 22 38  1  0  0  0
 23 27  1  0  0  0
 23 39  1  0  0  0
 24 25  1  0  0  0
 24 40  1  0  0  0
 24 41  1  0  0  0
 25 42  1  0  0  0
 26 43  1  0  0  0
 27 44  1  0  0  0
 28 45  1  0  0  0
 28 46  1  0  0  0
 28 47  1  0  0  0
M  END
> <s_m_entry_id>
8260

> <s_m_entry_name>
dock_pv.55

> <s_m_Source_Path>
/home/csk/Desktop/cluster/DUD-E-result/inha

> <s_m_Source_File>
dock_pv.maegz

> <i_m_Source_File_Index>
55

> <chembl_id>
CHEMBL4207698

> <chembl_pref_name>
None

> <i_lp_mmshare_version>
53161

> <r_lp_tautomer_probability>
1

> <s_lp_Force_Field>
OPLS_2005

> <r_lp_Energy>
48.880681

> <b_lp_Chiralities_Consistent>
1

> <s_lp_Variant>
CHEMBL1849_lig4-1

> <s_i_glide_gridfile>
glide-grid_2h7l

> <i_i_glide_lignum>
4

> <i_i_glide_rotatable_bonds>
8

> <r_i_docking_score>
-7.81328594152359

> <r_i_glide_ligand_efficiency>
-0.279045926482985

> <r_i_glide_ligand_efficiency_sa>
-0.847347782063881

> <r_i_glide_ligand_efficiency_ln>
-1.80353580334729

> <r_i_glide_gscore>
-7.81328594152359

> <r_i_glide_lipo>
-3.78343196184029

> <r_i_glide_hbond>
0

> <r_i_glide_metal>
0

> <r_i_glide_rewards>
-1.56104896768465

> <r_i_glide_evdw>
-37.2869911193848

> <r_i_glide_ecoul>
-8.315842628479

> <r_i_glide_erotb>
0.642920938242438

> <r_i_glide_esite>
0

> <r_i_glide_emodel>
-60.7440193458088

> <r_i_glide_energy>
-45.6028337478638

> <r_i_glide_einternal>
9.4989538192749

> <i_i_glide_confnum>
92

> <i_i_glide_posenum>
359

> <r_i_glide_eff_state_penalty>
0

> <s_user_duplicate_titles>
CHEMBL1849_lig4

> <i_f3d_flags>
0

> <s_m_subgroup_title>
dock_pv

> <s_m_subgroupid>
dock_pv

> <b_m_subgroup_collapsed>
0

$$$$
CHEMBL1849_lig65
                    3D
 Schrodinger Suite 2021-1.
 62 64  0  0  1  0            999 V2000
    3.8825   30.1314   58.9789 C   0  0  0  0  0  0
    4.4349   28.8986   59.3396 C   0  0  0  0  0  0
    5.7901   28.6569   59.0703 C   0  0  0  0  0  0
    6.5853   29.6475   58.4960 C   0  0  0  0  0  0
    6.0413   30.8988   58.1925 C   0  0  0  0  0  0
    4.6751   31.1237   58.4033 C   0  0  0  0  0  0
    6.8609   31.9141   57.7468 O   0  0  0  0  0  0
    7.6950   32.5736   58.6358 C   0  0  0  0  0  0
    8.5040   33.5915   58.1314 C   0  0  0  0  0  0
    9.3428   34.3220   58.9579 C   0  0  0  0  0  0
    9.4366   33.9985   60.3077 C   0  0  0  0  0  0
    8.6340   32.9804   60.8279 C   0  0  0  0  0  0
    7.7598   32.2817   60.0053 C   0  0  0  0  0  0
    4.1041   32.3221   58.0729 O   0  0  0  0  0  0
    3.5288   27.8614   60.0081 C   0  0  0  0  0  0
    4.2276   26.7413   60.8107 C   0  0  0  0  0  0
    4.9642   27.2345   62.0797 C   0  0  0  0  0  0
    5.9241   26.1870   62.6800 C   0  0  0  0  0  0
    7.2427   26.0628   61.8931 C   0  0  0  0  0  0
    8.0287   24.7844   62.1977 C   0  0  0  0  0  0
   10.4158   34.7752   61.1784 C   0  0  0  0  0  0
   11.6157   34.0125   61.5565 N   0  0  0  0  0  0
   11.4028   33.0204   62.6297 C   0  0  0  0  0  0
   12.7107   32.2976   63.0792 C   0  0  0  0  0  0
   13.8286   33.2275   63.2680 N   0  0  0  0  0  0
   13.9891   34.0954   62.1079 C   0  0  0  0  0  0
   12.6948   34.9201   61.9631 C   0  0  0  0  0  0
   15.0618   32.5467   63.6351 C   0  0  0  0  0  0
    2.8337   30.3243   59.1602 H   0  0  0  0  0  0
    6.2518   27.7137   59.3181 H   0  0  0  0  0  0
    7.6359   29.4607   58.3261 H   0  0  0  0  0  0
    8.5047   33.8321   57.0885 H   0  0  0  0  0  0
    9.9607   35.1010   58.5344 H   0  0  0  0  0  0
    8.6743   32.7218   61.8733 H   0  0  0  0  0  0
    7.1451   31.5113   60.4458 H   0  0  0  0  0  0
    3.2458   32.4599   58.4855 H   0  0  0  0  0  0
    2.9121   27.4166   59.2275 H   0  0  0  0  0  0
    2.8372   28.3811   60.6745 H   0  0  0  0  0  0
    4.8953   26.1859   60.1525 H   0  0  0  0  0  0
    3.4763   26.0111   61.1162 H   0  0  0  0  0  0
    4.2192   27.5109   62.8272 H   0  0  0  0  0  0
    5.5222   28.1492   61.8739 H   0  0  0  0  0  0
    5.4164   25.2225   62.7258 H   0  0  0  0  0  0
    6.1531   26.4498   63.7140 H   0  0  0  0  0  0
    7.8701   26.9369   62.0749 H   0  0  0  0  0  0
    7.0356   26.0705   60.8279 H   0  0  0  0  0  0
    8.9041   24.7174   61.5531 H   0  0  0  0  0  0
    7.4197   23.9005   62.0127 H   0  0  0  0  0  0
    8.3731   24.7498   63.2281 H   0  0  0  0  0  0
   10.7208   35.6580   60.6123 H   0  0  0  0  0  0
    9.8814   35.1730   62.0280 H   0  0  0  0  0  0
   10.9247   33.4870   63.4909 H   0  0  0  0  0  0
   10.7231   32.2498   62.2733 H   0  0  0  0  0  0
   12.9888   31.4767   62.4280 H   0  0  0  0  0  0
   12.5152   31.8090   64.0279 H   0  0  0  0  0  0
   14.1593   33.5221   61.1995 H   0  0  0  0  0  0
   14.8639   34.7259   62.2383 H   0  0  0  0  0  0
   12.8425   35.7051   61.2279 H   0  0  0  0  0  0
   12.4499   35.4215   62.9020 H   0  0  0  0  0  0
   14.9111   31.9188   64.5148 H   0  0  0  0  0  0
   15.4318   31.9202   62.8282 H   0  0  0  0  0  0
   15.8399   33.2702   63.8806 H   0  0  0  0  0  0
  1  2  2  0  0  0
  1  6  1  0  0  0
  1 29  1  0  0  0
  2 15  1  0  0  0
  2  3  1  0  0  0
  3  4  2  0  0  0
  3 30  1  0  0  0
  4  5  1  0  0  0
  4 31  1  0  0  0
  5  7  1  0  0  0
  5  6  2  0  0  0
  6 14  1  0  0  0
  7  8  1  0  0  0
  8  9  2  0  0  0
  8 13  1  0  0  0
  9 10  1  0  0  0
  9 32  1  0  0  0
 10 11  2  0  0  0
 10 33  1  0  0  0
 11 21  1  0  0  0
 11 12  1  0  0  0
 12 13  2  0  0  0
 12 34  1  0  0  0
 13 35  1  0  0  0
 14 36  1  0  0  0
 15 16  1  0  0  0
 15 37  1  0  0  0
 15 38  1  0  0  0
 16 17  1  0  0  0
 16 39  1  0  0  0
 16 40  1  0  0  0
 17 18  1  0  0  0
 17 41  1  0  0  0
 17 42  1  0  0  0
 18 19  1  0  0  0
 18 43  1  0  0  0
 18 44  1  0  0  0
 19 20  1  0  0  0
 19 45  1  0  0  0
 19 46  1  0  0  0
 20 47  1  0  0  0
 20 48  1  0  0  0
 20 49  1  0  0  0
 21 22  1  0  0  0
 21 50  1  0  0  0
 21 51  1  0  0  0
 22 23  1  0  0  0
 22 27  1  0  0  0
 23 24  1  0  0  0
 23 52  1  0  0  0
 23 53  1  0  0  0
 24 25  1  0  0  0
 24 54  1  0  0  0
 24 55  1  0  0  0
 25 26  1  0  0  0
 25 28  1  0  0  0
 26 27  1  0  0  0
 26 56  1  0  0  0
 26 57  1  0  0  0
 27 58  1  0  0  0
 27 59  1  0  0  0
 28 60  1  0  0  0
 28 61  1  0  0  0
 28 62  1  0  0  0
M  END
> <s_m_entry_id>
8261

> <s_m_entry_name>
dock_pv.56

> <s_m_Source_Path>
/home/csk/Desktop/cluster/DUD-E-result/inha

> <s_m_Source_File>
dock_pv.maegz

> <i_m_Source_File_Index>
56

> <chembl_id>
CHEMBL261355

> <chembl_pref_name>
None

> <i_lp_mmshare_version>
53161

> <r_lp_tautomer_probability>
0.999999999999776

> <s_lp_Force_Field>
OPLS_2005

> <r_lp_Energy>
38.083015

> <b_lp_Chiralities_Consistent>
1

> <s_lp_Variant>
CHEMBL1849_lig65-1

> <s_i_glide_gridfile>
glide-grid_2h7l

> <i_i_glide_lignum>
115

> <i_i_glide_rotatable_bonds>
10

> <r_i_docking_score>
-7.79721100473086

> <r_i_glide_ligand_efficiency>
-0.278471821597531

> <r_i_glide_ligand_efficiency_sa>
-0.845604461501946

> <r_i_glide_ligand_efficiency_ln>
-1.79982523595487

> <r_i_glide_gscore>
-7.79721100473086

> <r_i_glide_lipo>
-4.75237585277913

> <r_i_glide_hbond>
-0.126028386964667

> <r_i_glide_metal>
0

> <r_i_glide_rewards>
-1.06753739393939

> <r_i_glide_evdw>
-44.0141181945801

> <r_i_glide_ecoul>
-4.74917602539062

> <r_i_glide_erotb>
1.06181294248993

> <r_i_glide_esite>
0

> <r_i_glide_emodel>
-65.8721501206201

> <r_i_glide_energy>
-48.7632942199707

> <r_i_glide_einternal>
7.53721332550049

> <i_i_glide_confnum>
54

> <i_i_glide_posenum>
359

> <r_i_glide_eff_state_penalty>
0

> <s_user_duplicate_titles>
CHEMBL1849_lig65,428195

> <i_f3d_flags>
0

> <s_m_subgroup_title>
dock_pv

> <s_m_subgroupid>
dock_pv

> <b_m_subgroup_collapsed>
0

$$$$
CHEMBL1849_lig119
                    3D
 Schrodinger Suite 2021-1.
 67 71  0  0  1  0            999 V2000
    4.5610   28.9415   58.4293 C   0  0  0  0  0  0
    4.2915   28.5108   59.8063 N   0  0  0  0  0  0
    3.2949   29.4088   60.4536 C   0  0  1  0  0  0
    3.0829   30.5304   59.4157 C   0  0  0  0  0  0
    4.2555   30.4426   58.4602 C   0  0  1  0  0  0
    5.0086   27.4920   60.3567 C   0  0  0  0  0  0
    4.9854   27.3627   61.7843 C   0  0  0  0  0  0
    5.7037   26.7229   59.6944 O   0  0  0  0  0  0
    5.3406   31.2797   58.9684 N   0  0  0  0  0  0
    6.3445   31.7839   58.2426 C   0  0  0  0  0  0
    7.2293   32.7099   58.9176 C   0  0  0  0  0  0
    6.5004   31.5212   57.0517 O   0  0  0  0  0  0
    5.3053   27.9710   63.9747 O   0  0  0  0  0  0
    5.4519   28.3288   62.6719 C   0  0  0  0  0  0
    4.7819   26.7163   63.9515 C   0  0  0  0  0  0
    4.5809   26.2706   62.6222 C   0  0  0  0  0  0
    4.0646   24.9799   62.4259 C   0  0  0  0  0  0
    3.7600   24.1969   63.5436 C   0  0  0  0  0  0
    3.9556   24.6763   64.8416 C   0  0  0  0  0  0
    4.4817   25.9445   65.0766 C   0  0  0  0  0  0
    1.9603   28.7319   60.8759 C   0  0  0  0  0  0
    0.8717   29.5218   60.9641 N   0  0  0  0  0  0
    1.9138   27.5301   61.1381 O   0  0  0  0  0  0
    8.4301   33.2336   58.4440 C   0  0  0  0  0  0
    8.9040   34.1316   59.4040 C   0  0  0  0  0  0
    8.0825   34.1775   60.4221 N   0  0  0  0  0  0
    7.0537   33.3740   60.1220 N   0  0  0  0  0  0
    5.9399   33.3445   61.0729 C   0  0  0  0  0  0
   10.1422   35.0077   59.3699 C   0  0  0  0  0  0
   10.9595   34.9587   60.6721 C   0  0  0  0  0  0
    6.1043   32.1732   62.0519 C   0  0  0  0  0  0
   -0.4429   29.0903   61.4423 C   0  0  0  0  0  0
   -0.5351   29.2458   62.9427 C   0  0  0  0  0  0
   -0.6970   30.4937   63.4496 O   0  0  0  0  0  0
   -0.6366   30.3216   64.8280 N   0  0  0  0  0  0
   -0.4503   29.0260   64.9602 C   0  0  0  0  0  0
   -0.3848   28.3199   63.8497 N   0  0  0  0  0  0
   -0.2783   28.3785   66.3145 C   0  0  0  0  0  0
    3.8371   28.4498   57.7784 H   0  0  0  0  0  0
    5.5768   28.7541   58.0711 H   0  0  0  0  0  0
    3.6738   29.8132   61.3928 H   0  0  0  0  0  0
    2.9054   31.5190   59.8461 H   0  0  0  0  0  0
    2.1909   30.3195   58.8279 H   0  0  0  0  0  0
    3.9379   30.8264   57.4883 H   0  0  0  0  0  0
    5.4003   31.3692   59.9713 H   0  0  0  0  0  0
    5.8920   29.3001   62.5188 H   0  0  0  0  0  0
    3.9031   24.6055   61.4238 H   0  0  0  0  0  0
    3.3549   23.2042   63.4036 H   0  0  0  0  0  0
    3.6993   24.0461   65.6829 H   0  0  0  0  0  0
    4.6460   26.3199   66.0769 H   0  0  0  0  0  0
    0.9070   30.4547   60.5464 H   0  0  0  0  0  0
    8.9038   33.0055   57.5015 H   0  0  0  0  0  0
    4.9987   33.3084   60.5276 H   0  0  0  0  0  0
    5.9115   34.2885   61.6227 H   0  0  0  0  0  0
   10.7876   34.7218   58.5406 H   0  0  0  0  0  0
    9.8594   36.0419   59.1650 H   0  0  0  0  0  0
   11.8763   35.5401   60.5802 H   0  0  0  0  0  0
   10.3945   35.3622   61.5131 H   0  0  0  0  0  0
   11.2428   33.9344   60.9220 H   0  0  0  0  0  0
    5.3043   32.1582   62.7860 H   0  0  0  0  0  0
    7.0431   32.2465   62.6014 H   0  0  0  0  0  0
    6.1112   31.2180   61.5347 H   0  0  0  0  0  0
   -1.2137   29.6821   60.9465 H   0  0  0  0  0  0
   -0.6444   28.0592   61.1446 H   0  0  0  0  0  0
    0.0912   27.3522   66.2674 H   0  0  0  0  0  0
    0.4576   28.9314   66.8992 H   0  0  0  0  0  0
   -1.1897   28.4279   66.9132 H   0  0  0  0  0  0
  1  2  1  0  0  0
  1  5  1  0  0  0
  1 39  1  0  0  0
  1 40  1  0  0  0
  2  3  1  0  0  0
  2  6  1  0  0  0
  3  4  1  0  0  0
  3 21  1  0  0  0
  3 41  1  0  0  0
  4  5  1  0  0  0
  4 42  1  0  0  0
  4 43  1  0  0  0
  5  9  1  0  0  0
  5 44  1  0  0  0
  6  7  1  0  0  0
  6  8  2  0  0  0
  7 16  1  0  0  0
  7 14  2  0  0  0
  9 10  1  0  0  0
  9 45  1  0  0  0
 10 11  1  0  0  0
 10 12  2  0  0  0
 11 24  2  0  0  0
 11 27  1  0  0  0
 13 15  1  0  0  0
 13 14  1  0  0  0
 14 46  1  0  0  0
 15 16  2  0  0  0
 15 20  1  0  0  0
 16 17  1  0  0  0
 17 18  2  0  0  0
 17 47  1  0  0  0
 18 19  1  0  0  0
 18 48  1  0  0  0
 19 20  2  0  0  0
 19 49  1  0  0  0
 20 50  1  0  0  0
 21 22  1  0  0  0
 21 23  2  0  0  0
 22 32  1  0  0  0
 22 51  1  0  0  0
 24 25  1  0  0  0
 24 52  1  0  0  0
 25 26  2  0  0  0
 25 29  1  0  0  0
 26 27  1  0  0  0
 27 28  1  0  0  0
 28 31  1  0  0  0
 28 53  1  0  0  0
 28 54  1  0  0  0
 29 30  1  0  0  0
 29 55  1  0  0  0
 29 56  1  0  0  0
 30 57  1  0  0  0
 30 58  1  0  0  0
 30 59  1  0  0  0
 31 60  1  0  0  0
 31 61  1  0  0  0
 31 62  1  0  0  0
 32 33  1  0  0  0
 32 63  1  0  0  0
 32 64  1  0  0  0
 33 34  1  0  0  0
 33 37  2  0  0  0
 34 35  1  0  0  0
 35 36  2  0  0  0
 36 37  1  0  0  0
 36 38  1  0  0  0
 38 65  1  0  0  0
 38 66  1  0  0  0
 38 67  1  0  0  0
M  END
> <s_m_entry_id>
8262

> <s_m_entry_name>
dock_pv.57

> <s_m_Source_Path>
/home/csk/Desktop/cluster/DUD-E-result/inha

> <s_m_Source_File>
dock_pv.maegz

> <i_m_Source_File_Index>
57

> <chembl_id>
CHEMBL3125102

> <chembl_pref_name>
None

> <i_lp_mmshare_version>
53161

> <r_lp_tautomer_probability>
1

> <s_lp_Force_Field>
OPLS_2005

> <r_lp_Energy>
17.547633

> <b_lp_Chiralities_Consistent>
1

> <s_lp_Variant>
CHEMBL1849_lig119-1

> <s_i_glide_gridfile>
glide-grid_2h7l

> <i_i_glide_lignum>
181

> <i_i_glide_rotatable_bonds>
11

> <r_i_docking_score>
-7.79418182600965

> <r_i_glide_ligand_efficiency>
-0.205110048052886

> <r_i_glide_ligand_efficiency_sa>
-0.689574936405026

> <r_i_glide_ligand_efficiency_ln>
-1.68065488328728

> <r_i_glide_gscore>
-7.79418182600965

> <r_i_glide_lipo>
-2.75604370630338

> <r_i_glide_hbond>
-0.456

> <r_i_glide_metal>
0

> <r_i_glide_rewards>
-1.18303245654138

> <r_i_glide_evdw>
-50.0858535766602

> <r_i_glide_ecoul>
-9.69887351989746

> <r_i_glide_erotb>
0.685016853013345

> <r_i_glide_esite>
-0.124998809360605

> <r_i_glide_emodel>
-78.3359506527707

> <r_i_glide_energy>
-59.7847270965576

> <r_i_glide_einternal>
17.4188213348389

> <i_i_glide_confnum>
9

> <i_i_glide_posenum>
36

> <r_i_glide_eff_state_penalty>
0

> <s_user_duplicate_titles>
CHEMBL1849_lig119

> <i_f3d_flags>
0

> <s_m_subgroup_title>
dock_pv

> <s_m_subgroupid>
dock_pv

> <b_m_subgroup_collapsed>
0

$$$$
CHEMBL1849_lig54
                    3D
 Schrodinger Suite 2021-1.
 44 46  0  0  1  0            999 V2000
   10.2485   32.7219   61.6277 C   0  0  0  0  0  0
   10.8781   33.9148   61.2577 C   0  0  0  0  0  0
   10.3126   34.7219   60.2706 C   0  0  0  0  0  0
    9.1352   34.3234   59.6438 C   0  0  0  0  0  0
    8.5025   33.1243   59.9957 C   0  0  0  0  0  0
    9.0552   32.3356   61.0119 C   0  0  0  0  0  0
    7.1836   32.7701   59.3451 C   0  0  0  0  0  0
    6.9340   31.5065   58.9006 N   0  0  0  0  0  0
    6.3518   33.6715   59.2310 O   0  0  0  0  0  0
    5.6197   31.2370   58.2788 C   0  0  0  0  0  0
    5.3608   29.7122   58.1533 C   0  0  0  0  0  0
    5.9532   28.9125   59.2367 N   0  0  0  0  0  0
    7.4128   29.1217   59.3005 C   0  0  0  0  0  0
    7.9561   30.4634   58.7350 C   0  0  0  0  0  0
    5.2928   27.8651   59.8886 C   0  0  0  0  0  0
    3.8887   27.8144   59.9428 C   0  0  0  0  0  0
    3.2268   26.7935   60.6204 C   0  0  0  0  0  0
    3.9543   25.8065   61.2745 C   0  0  0  0  0  0
    5.3514   25.8334   61.2635 C   0  0  0  0  0  0
    6.0071   26.8619   60.5684 C   0  0  0  0  0  0
   12.1971   34.3097   61.8984 C   0  0  0  0  0  0
    6.1238   24.7549   62.0226 C   0  0  0  0  0  0
    5.8948   23.5632   61.4690 F   0  0  0  0  0  0
    7.4394   24.9718   62.0290 F   0  0  0  0  0  0
    5.7048   24.7214   63.2878 F   0  0  0  0  0  0
   10.6715   32.1028   62.4053 H   0  0  0  0  0  0
   10.7855   35.6495   59.9800 H   0  0  0  0  0  0
    8.7125   34.9644   58.8820 H   0  0  0  0  0  0
    8.5580   31.4350   61.3436 H   0  0  0  0  0  0
    4.8567   31.5854   58.9783 H   0  0  0  0  0  0
    5.5021   31.7072   57.3029 H   0  0  0  0  0  0
    5.8246   29.3392   57.2378 H   0  0  0  0  0  0
    4.2960   29.5370   58.0266 H   0  0  0  0  0  0
    7.9127   28.3092   58.7702 H   0  0  0  0  0  0
    7.6699   29.1099   60.3608 H   0  0  0  0  0  0
    8.0541   30.3393   57.6549 H   0  0  0  0  0  0
    8.9587   30.7083   59.0799 H   0  0  0  0  0  0
    3.2771   28.5771   59.4853 H   0  0  0  0  0  0
    2.1476   26.7793   60.6487 H   0  0  0  0  0  0
    3.4298   25.0237   61.8031 H   0  0  0  0  0  0
    7.0873   26.8689   60.5536 H   0  0  0  0  0  0
   12.8062   34.8950   61.2107 H   0  0  0  0  0  0
   12.0434   34.8889   62.8083 H   0  0  0  0  0  0
   12.7833   33.4254   62.1490 H   0  0  0  0  0  0
  1  6  1  0  0  0
  1  2  2  0  0  0
  1 26  1  0  0  0
  2 21  1  0  0  0
  2  3  1  0  0  0
  3  4  2  0  0  0
  3 27  1  0  0  0
  4  5  1  0  0  0
  4 28  1  0  0  0
  5  7  1  0  0  0
  5  6  2  0  0  0
  6 29  1  0  0  0
  7  8  1  0  0  0
  7  9  2  0  0  0
  8 14  1  0  0  0
  8 10  1  0  0  0
 10 11  1  0  0  0
 10 30  1  0  0  0
 10 31  1  0  0  0
 11 12  1  0  0  0
 11 32  1  0  0  0
 11 33  1  0  0  0
 12 13  1  0  0  0
 12 15  1  0  0  0
 13 14  1  0  0  0
 13 34  1  0  0  0
 13 35  1  0  0  0
 14 36  1  0  0  0
 14 37  1  0  0  0
 15 16  2  0  0  0
 15 20  1  0  0  0
 16 17  1  0  0  0
 16 38  1  0  0  0
 17 18  2  0  0  0
 17 39  1  0  0  0
 18 19  1  0  0  0
 18 40  1  0  0  0
 19 20  2  0  0  0
 19 22  1  0  0  0
 20 41  1  0  0  0
 21 42  1  0  0  0
 21 43  1  0  0  0
 21 44  1  0  0  0
 22 23  1  0  0  0
 22 24  1  0  0  0
 22 25  1  0  0  0
M  END
> <s_m_entry_id>
8263

> <s_m_entry_name>
dock_pv.58

> <s_m_Source_Path>
/home/csk/Desktop/cluster/DUD-E-result/inha

> <s_m_Source_File>
dock_pv.maegz

> <i_m_Source_File_Index>
58

> <chembl_id>
CHEMBL398031

> <chembl_pref_name>
None

> <i_lp_mmshare_version>
53161

> <r_lp_tautomer_probability>
1

> <s_lp_Force_Field>
OPLS_2005

> <r_lp_Energy>
50.926402

> <b_lp_Chiralities_Consistent>
1

> <s_lp_Variant>
CHEMBL1849_lig54-1

> <s_i_glide_gridfile>
glide-grid_2h7l

> <i_i_glide_lignum>
104

> <i_i_glide_rotatable_bonds>
4

> <r_i_docking_score>
-7.77000838307227

> <r_i_glide_ligand_efficiency>
-0.310800335322891

> <r_i_glide_ligand_efficiency_sa>
-0.90878569255155

> <r_i_glide_ligand_efficiency_ln>
-1.84172483514966

> <r_i_glide_gscore>
-7.77000838307227

> <r_i_glide_lipo>
-3.10819623654857

> <r_i_glide_hbond>
0

> <r_i_glide_metal>
0

> <r_i_glide_rewards>
-3.02707171598209

> <r_i_glide_evdw>
-36.5217018127441

> <r_i_glide_ecoul>
-1.86152505874634

> <r_i_glide_erotb>
0.470573418907548

> <r_i_glide_esite>
0

> <r_i_glide_emodel>
-54.5652588261585

> <r_i_glide_energy>
-38.3832268714905

> <r_i_glide_einternal>
3.14209294319153

> <i_i_glide_confnum>
171

> <i_i_glide_posenum>
310

> <r_i_glide_eff_state_penalty>
0

> <s_user_duplicate_titles>
CHEMBL1849_lig54

> <i_f3d_flags>
0

> <s_m_subgroup_title>
dock_pv

> <s_m_subgroupid>
dock_pv

> <b_m_subgroup_collapsed>
0

$$$$
CHEMBL1849_lig210 
                    3D
 Schrodinger Suite 2021-1.
 38 40  0  0  1  0            999 V2000
    6.1040   31.5220   56.9205 O   0  0  0  0  0  0
    6.3426   30.7532   58.1467 S   0  0  0  0  0  0
    6.9929   29.4423   58.0597 O   0  0  0  0  0  0
    7.3450   31.8164   59.2623 C   0  0  0  0  0  0
    4.7446   30.5808   58.9100 N   0  0  0  0  0  0
    4.3394   29.6237   59.8554 C   0  0  0  0  0  0
    5.0642   28.4687   60.1893 C   0  0  0  0  0  0
    4.5750   27.5608   61.1339 C   0  0  0  0  0  0
    3.3300   27.7873   61.7244 C   0  0  0  0  0  0
    2.5877   28.9149   61.3789 C   0  0  0  0  0  0
    3.0953   29.8293   60.4572 C   0  0  0  0  0  0
    5.3959   26.3418   61.5251 C   0  0  0  0  0  0
    5.3040   25.2955   60.5243 N   0  0  0  0  0  0
    7.9725   31.4366   60.4439 C   0  0  0  0  0  0
    7.6759   33.4758   58.8280 S   0  0  0  0  0  0
    7.7387   30.1423   61.1994 C   0  0  0  0  0  0
    8.9132   33.5901   60.0470 C   0  0  0  0  0  0
    8.9750   32.4001   60.8281 C   0  0  0  0  0  0
    9.9908   32.3220   61.8067 C   0  0  0  0  0  0
   10.9040   33.3629   61.9645 C   0  0  0  0  0  0
   10.7954   34.5216   61.2074 C   0  0  0  0  0  0
    9.7933   34.6662   60.2511 C   0  0  0  0  0  0
   11.8920   33.2490   62.8788 F   0  0  0  0  0  0
    4.0797   31.3072   58.6919 H   0  0  0  0  0  0
    6.0156   28.2458   59.7432 H   0  0  0  0  0  0
    2.9352   27.0895   62.4483 H   0  0  0  0  0  0
    1.6212   29.0880   61.8290 H   0  0  0  0  0  0
    2.5043   30.7001   60.2051 H   0  0  0  0  0  0
    6.4389   26.6260   61.6774 H   0  0  0  0  0  0
    5.0503   25.9517   62.4839 H   0  0  0  0  0  0
    4.7088   25.6089   59.7710 H   0  0  0  0  0  0
    6.2185   25.1226   60.1097 H   0  0  0  0  0  0
    7.8792   29.2691   60.5644 H   0  0  0  0  0  0
    8.4013   30.0080   62.0537 H   0  0  0  0  0  0
    6.7268   30.1012   61.6007 H   0  0  0  0  0  0
   10.0923   31.4516   62.4313 H   0  0  0  0  0  0
   11.5041   35.3217   61.3632 H   0  0  0  0  0  0
    9.7278   35.5682   59.6577 H   0  0  0  0  0  0
  1  2  2  0  0  0
  2  3  2  0  0  0
  2  4  1  0  0  0
  2  5  1  0  0  0
  4 14  2  0  0  0
  4 15  1  0  0  0
  5  6  1  0  0  0
  5 24  1  0  0  0
  6  7  2  0  0  0
  6 11  1  0  0  0
  7  8  1  0  0  0
  7 25  1  0  0  0
  8  9  2  0  0  0
  8 12  1  0  0  0
  9 10  1  0  0  0
  9 26  1  0  0  0
 10 11  2  0  0  0
 10 27  1  0  0  0
 11 28  1  0  0  0
 12 13  1  0  0  0
 12 29  1  0  0  0
 12 30  1  0  0  0
 13 31  1  0  0  0
 13 32  1  0  0  0
 14 18  1  0  0  0
 14 16  1  0  0  0
 15 17  1  0  0  0
 16 33  1  0  0  0
 16 34  1  0  0  0
 16 35  1  0  0  0
 17 18  2  0  0  0
 17 22  1  0  0  0
 18 19  1  0  0  0
 19 20  2  0  0  0
 19 36  1  0  0  0
 20 21  1  0  0  0
 20 23  1  0  0  0
 21 22  2  0  0  0
 21 37  1  0  0  0
 22 38  1  0  0  0
M  END
> <s_m_entry_id>
8264

> <s_m_entry_name>
dock_pv.59

> <s_m_Source_Path>
/home/csk/Desktop/cluster/DUD-E-result/inha

> <s_m_Source_File>
dock_pv.maegz

> <i_m_Source_File_Index>
59

> <chembl_id>
CHEMBL4591748

> <chembl_pref_name>
None

> <i_lp_mmshare_version>
53161

> <r_lp_tautomer_probability>
1

> <s_lp_Force_Field>
OPLS_2005

> <r_lp_Energy>
7.749596

> <b_lp_Chiralities_Consistent>
1

> <s_lp_Variant>
CHEMBL1849_lig210 -1

> <s_i_glide_gridfile>
glide-grid_2h7l

> <i_i_glide_lignum>
279

> <i_i_glide_rotatable_bonds>
4

> <r_i_docking_score>
-7.7461624844319

> <r_i_glide_ligand_efficiency>
-0.336789673236169

> <r_i_glide_ligand_efficiency_sa>
-0.957785029870298

> <r_i_glide_ligand_efficiency_ln>
-1.87309232705371

> <r_i_glide_gscore>
-7.7461624844319

> <r_i_glide_lipo>
-2.63672194741755

> <r_i_glide_hbond>
-0.32

> <r_i_glide_metal>
0

> <r_i_glide_rewards>
-2.4111259570448

> <r_i_glide_evdw>
-32.9821853637695

> <r_i_glide_ecoul>
-7.63286638259888

> <r_i_glide_erotb>
0.465642224784043

> <r_i_glide_esite>
-0.0499175791752815

> <r_i_glide_emodel>
-58.6776912737532

> <r_i_glide_energy>
-40.6150517463684

> <r_i_glide_einternal>
1.91618120670319

> <i_i_glide_confnum>
12

> <i_i_glide_posenum>
67

> <r_i_glide_eff_state_penalty>
0

> <s_user_duplicate_titles>
CHEMBL1849_lig210 

> <i_f3d_flags>
0

> <s_m_subgroup_title>
dock_pv

> <s_m_subgroupid>
dock_pv

> <b_m_subgroup_collapsed>
0

$$$$
CHEMBL1849_lig184
                    3D
 Schrodinger Suite 2021-1.
 34 36  0  0  1  0            999 V2000
    5.5989   27.6092   59.9882 C   0  0  0  0  0  0
    5.3834   27.7529   61.3615 C   0  0  0  0  0  0
    5.5752   28.9934   61.9745 C   0  0  0  0  0  0
    6.0363   28.6921   59.2256 C   0  0  0  0  0  0
    6.2176   29.9331   59.8437 C   0  0  0  0  0  0
    5.9729   30.0886   61.2106 C   0  0  0  0  0  0
    6.0940   31.3294   61.8416 N   0  0  0  0  0  0
    6.4372   32.3517   61.1528 C   0  0  0  0  0  0
    6.7947   32.2817   59.8166 N   0  0  0  0  0  0
    6.6700   31.1377   59.0482 C   0  0  0  0  0  0
    6.9038   31.0921   57.8371 O   0  0  0  0  0  0
    7.2941   33.5007   59.1148 C   0  0  0  0  0  0
    8.7327   33.9242   59.5042 C   0  0  0  0  0  0
    9.2931   33.3658   60.5962 N   0  0  0  0  0  0
    9.2901   34.7615   58.7980 O   0  0  0  0  0  0
   10.5040   33.6562   61.2400 C   0  0  0  0  0  0
   11.2572   34.8235   61.0400 C   0  0  0  0  0  0
   12.4312   35.0203   61.7648 C   0  0  0  0  0  0
   12.8594   34.0562   62.6734 C   0  0  0  0  0  0
   12.1073   32.9044   62.8854 C   0  0  0  0  0  0
   10.9231   32.7122   62.1815 C   0  0  0  0  0  0
    5.3041   26.0933   59.2293 Cl  0  0  0  0  0  0
    5.0533   26.9080   61.9487 H   0  0  0  0  0  0
    5.3952   29.1118   63.0313 H   0  0  0  0  0  0
    6.2112   28.5678   58.1644 H   0  0  0  0  0  0
    6.4972   33.3277   61.6275 H   0  0  0  0  0  0
    6.6086   34.3219   59.3098 H   0  0  0  0  0  0
    7.3000   33.3772   58.0322 H   0  0  0  0  0  0
    8.7717   32.6174   61.0272 H   0  0  0  0  0  0
   10.9458   35.5906   60.3471 H   0  0  0  0  0  0
   13.0086   35.9223   61.6267 H   0  0  0  0  0  0
   13.7745   34.2115   63.2244 H   0  0  0  0  0  0
   12.4393   32.1680   63.6025 H   0  0  0  0  0  0
   10.3425   31.8205   62.3686 H   0  0  0  0  0  0
  1  2  2  0  0  0
  1  4  1  0  0  0
  1 22  1  0  0  0
  2  3  1  0  0  0
  2 23  1  0  0  0
  3  6  2  0  0  0
  3 24  1  0  0  0
  4  5  2  0  0  0
  4 25  1  0  0  0
  5  6  1  0  0  0
  5 10  1  0  0  0
  6  7  1  0  0  0
  7  8  2  0  0  0
  8  9  1  0  0  0
  8 26  1  0  0  0
  9 10  1  0  0  0
  9 12  1  0  0  0
 10 11  2  0  0  0
 12 13  1  0  0  0
 12 27  1  0  0  0
 12 28  1  0  0  0
 13 14  1  0  0  0
 13 15  2  0  0  0
 14 16  1  0  0  0
 14 29  1  0  0  0
 16 17  2  0  0  0
 16 21  1  0  0  0
 17 18  1  0  0  0
 17 30  1  0  0  0
 18 19  2  0  0  0
 18 31  1  0  0  0
 19 20  1  0  0  0
 19 32  1  0  0  0
 20 21  2  0  0  0
 20 33  1  0  0  0
 21 34  1  0  0  0
M  END
> <s_m_entry_id>
8265

> <s_m_entry_name>
dock_pv.60

> <s_m_Source_Path>
/home/csk/Desktop/cluster/DUD-E-result/inha

> <s_m_Source_File>
dock_pv.maegz

> <i_m_Source_File_Index>
60

> <chembl_id>
CHEMBL3331272

> <chembl_pref_name>
None

> <i_lp_mmshare_version>
53161

> <r_lp_tautomer_probability>
1

> <s_lp_Force_Field>
OPLS_2005

> <r_lp_Energy>
22.660639

> <b_lp_Chiralities_Consistent>
1

> <s_lp_Variant>
CHEMBL1849_lig184-1

> <s_i_glide_gridfile>
glide-grid_2h7l

> <i_i_glide_lignum>
251

> <i_i_glide_rotatable_bonds>
4

> <r_i_docking_score>
-7.69066852797836

> <r_i_glide_ligand_efficiency>
-0.349575842180834

> <r_i_glide_ligand_efficiency_sa>
-0.979525257828427

> <r_i_glide_ligand_efficiency_ln>
-1.87987991218843

> <r_i_glide_gscore>
-7.69066852797836

> <r_i_glide_lipo>
-3.19065997179839

> <r_i_glide_hbond>
0

> <r_i_glide_metal>
0

> <r_i_glide_rewards>
-2.83221533066825

> <r_i_glide_evdw>
-39.7372703552246

> <r_i_glide_ecoul>
-0.389452546834946

> <r_i_glide_erotb>
0.377488174274753

> <r_i_glide_esite>
0

> <r_i_glide_emodel>
-57.919651778271

> <r_i_glide_energy>
-40.1267229020596

> <r_i_glide_einternal>
2.71042394638062

> <i_i_glide_confnum>
1

> <i_i_glide_posenum>
345

> <r_i_glide_eff_state_penalty>
0

> <s_user_duplicate_titles>
CHEMBL1849_lig184

> <i_f3d_flags>
0

> <s_m_subgroup_title>
dock_pv

> <s_m_subgroupid>
dock_pv

> <b_m_subgroup_collapsed>
0

$$$$
CHEMBL1849_lig36
                    3D
 Schrodinger Suite 2021-1.
 54 58  0  0  1  0            999 V2000
    8.4387   33.2120   59.7311 C   0  0  0  0  0  0
    9.3045   33.0784   60.8280 C   0  0  0  0  0  0
   10.4214   33.9219   61.0019 C   0  0  0  0  0  0
   10.5549   34.9911   60.0979 C   0  0  0  0  0  0
    9.7041   35.1271   59.0071 C   0  0  0  0  0  0
    8.6618   34.2327   58.8138 C   0  0  0  0  0  0
   11.5307   33.5709   61.9660 C   0  0  0  0  0  0
   12.6623   34.3951   62.1047 C   0  0  0  0  0  0
   13.8105   33.9426   62.7479 C   0  0  0  0  0  0
   13.8469   32.6622   63.2812 C   0  0  0  0  0  0
   12.7180   31.8559   63.2281 C   0  0  0  0  0  0
   11.5597   32.3226   62.6151 C   0  0  0  0  0  0
    2.4279   29.1355   59.8581 C   0  0  2  0  0  0
    3.8937   29.2544   59.7235 N   0  0  0  0  0  0
    4.8035   28.2474   59.6348 C   0  0  0  0  0  0
    6.1748   28.9082   59.5748 C   0  0  0  0  0  0
    5.9103   30.3915   59.3522 C   0  0  1  0  0  0
    4.4832   30.5879   59.8383 C   0  0  0  0  0  0
    4.6273   27.0327   59.6007 O   0  0  0  0  0  0
    1.9286   29.0874   61.3207 C   0  0  0  0  0  0
    0.8920   27.9414   61.3026 C   0  0  2  0  0  0
    1.7337   27.8888   59.2456 C   0  0  1  0  0  0
    1.6043   26.9195   60.4254 C   0  0  0  0  0  0
   -0.3256   28.3144   60.4275 C   0  0  0  0  0  0
    0.2444   28.2064   58.9970 C   0  0  0  0  0  0
    6.8727   31.3134   60.1275 C   0  0  0  0  0  0
    7.4110   32.3141   59.4026 N   0  0  0  0  0  0
    7.0977   31.1045   61.3202 O   0  0  0  0  0  0
    9.1506   32.2569   61.5020 H   0  0  0  0  0  0
   11.3740   35.6887   60.1528 H   0  0  0  0  0  0
    9.8702   35.9230   58.2973 H   0  0  0  0  0  0
    8.0381   34.3336   57.9384 H   0  0  0  0  0  0
   12.7076   35.3787   61.6673 H   0  0  0  0  0  0
   14.6806   34.5779   62.8019 H   0  0  0  0  0  0
   14.7462   32.3021   63.7603 H   0  0  0  0  0  0
   12.7404   30.8675   63.6631 H   0  0  0  0  0  0
   10.7340   31.6328   62.5763 H   0  0  0  0  0  0
    1.9650   29.9842   59.3567 H   0  0  0  0  0  0
    6.7737   28.6643   60.4544 H   0  0  0  0  0  0
    6.6719   28.4764   58.7054 H   0  0  0  0  0  0
    5.9659   30.6434   58.2910 H   0  0  0  0  0  0
    3.9306   31.3297   59.2596 H   0  0  0  0  0  0
    4.4325   30.8299   60.9026 H   0  0  0  0  0  0
    1.4929   30.0386   61.6280 H   0  0  0  0  0  0
    2.7354   28.8439   62.0149 H   0  0  0  0  0  0
    0.6246   27.5803   62.2965 H   0  0  0  0  0  0
    2.2339   27.5221   58.3523 H   0  0  0  0  0  0
    2.5491   26.5841   60.8524 H   0  0  0  0  0  0
    1.0032   26.0344   60.2032 H   0  0  0  0  0  0
   -0.6998   29.3153   60.6505 H   0  0  0  0  0  0
   -1.1473   27.6116   60.5725 H   0  0  0  0  0  0
   -0.2405   27.4009   58.4431 H   0  0  0  0  0  0
    0.1070   29.1218   58.4258 H   0  0  0  0  0  0
    7.0359   32.4381   58.4760 H   0  0  0  0  0  0
  1  2  2  0  0  0
  1  6  1  0  0  0
  1 27  1  0  0  0
  2  3  1  0  0  0
  2 29  1  0  0  0
  3  4  2  0  0  0
  3  7  1  0  0  0
  4  5  1  0  0  0
  4 30  1  0  0  0
  5  6  2  0  0  0
  5 31  1  0  0  0
  6 32  1  0  0  0
  7  8  2  0  0  0
  7 12  1  0  0  0
  8  9  1  0  0  0
  8 33  1  0  0  0
  9 10  2  0  0  0
  9 34  1  0  0  0
 10 11  1  0  0  0
 10 35  1  0  0  0
 11 12  2  0  0  0
 11 36  1  0  0  0
 12 37  1  0  0  0
 13 14  1  0  0  0
 13 20  1  0  0  0
 13 22  1  0  0  0
 13 38  1  0  0  0
 14 18  1  0  0  0
 14 15  1  0  0  0
 15 16  1  0  0  0
 15 19  2  0  0  0
 16 17  1  0  0  0
 16 39  1  0  0  0
 16 40  1  0  0  0
 17 18  1  0  0  0
 17 26  1  0  0  0
 17 41  1  0  0  0
 18 42  1  0  0  0
 18 43  1  0  0  0
 20 21  1  0  0  0
 20 44  1  0  0  0
 20 45  1  0  0  0
 21 23  1  0  0  0
 21 24  1  0  0  0
 21 46  1  0  0  0
 22 23  1  0  0  0
 22 25  1  0  0  0
 22 47  1  0  0  0
 23 48  1  0  0  0
 23 49  1  0  0  0
 24 25  1  0  0  0
 24 50  1  0  0  0
 24 51  1  0  0  0
 25 52  1  0  0  0
 25 53  1  0  0  0
 26 27  1  0  0  0
 26 28  2  0  0  0
 27 54  1  0  0  0
M  END
> <s_m_entry_id>
8266

> <s_m_entry_name>
dock_pv.61

> <s_m_Source_Path>
/home/csk/Desktop/cluster/DUD-E-result/inha

> <s_m_Source_File>
dock_pv.maegz

> <i_m_Source_File_Index>
61

> <chembl_id>
CHEMBL217852

> <chembl_pref_name>
None

> <i_lp_mmshare_version>
53161

> <r_lp_tautomer_probability>
1

> <s_lp_Force_Field>
OPLS_2005

> <r_lp_Energy>
76.935658

> <b_lp_Chiralities_Consistent>
1

> <s_lp_Variant>
CHEMBL1849_lig36-7

> <s_i_glide_gridfile>
glide-grid_2h7l

> <i_i_glide_lignum>
72

> <i_i_glide_rotatable_bonds>
5

> <r_i_docking_score>
-7.68152714799176

> <r_i_glide_ligand_efficiency>
-0.27434025528542

> <r_i_glide_ligand_efficiency_sa>
-0.833058592815953

> <r_i_glide_ligand_efficiency_ln>
-1.77312200519386

> <r_i_glide_gscore>
-7.68152714799176

> <r_i_glide_lipo>
-3.72565897629036

> <r_i_glide_hbond>
0

> <r_i_glide_metal>
0

> <r_i_glide_rewards>
-2.26241749228776

> <r_i_glide_evdw>
-45.2556495666504

> <r_i_glide_ecoul>
-0.80074816942215

> <r_i_glide_erotb>
0.689444024332202

> <r_i_glide_esite>
0

> <r_i_glide_emodel>
-59.0665864907372

> <r_i_glide_energy>
-46.0563977360725

> <r_i_glide_einternal>
7.73471450805664

> <i_i_glide_confnum>
52

> <i_i_glide_posenum>
199

> <r_i_glide_eff_state_penalty>
0

> <s_user_duplicate_titles>
CHEMBL1849_lig36

> <i_f3d_flags>
0

> <s_m_subgroup_title>
dock_pv

> <s_m_subgroupid>
dock_pv

> <b_m_subgroup_collapsed>
0

$$$$
CHEMBL1849_lig10
                    3D
 Schrodinger Suite 2021-1.
 22 22  0  0  1  0            999 V2000
   11.1779   34.0436   61.5218 C   0  0  0  0  0  0
   11.3019   35.2355   60.8085 C   0  0  0  0  0  0
   10.4003   35.5532   59.7993 C   0  0  0  0  0  0
    9.3370   34.7062   59.5139 C   0  0  0  0  0  0
    9.1651   33.5210   60.2385 C   0  0  0  0  0  0
   10.1038   33.1910   61.2281 C   0  0  0  0  0  0
    8.0652   32.5865   59.9346 C   0  0  0  0  0  0
    7.4711   32.4882   58.7232 C   0  0  0  0  0  0
    6.3836   31.6062   58.3720 C   0  0  0  0  0  0
    5.8644   30.8915   59.4135 O   0  0  0  0  0  0
    5.9676   31.5213   57.2189 O   0  0  0  0  0  0
   12.1915   33.7064   62.6138 C   0  0  0  0  0  0
   13.2709   33.1230   62.1015 F   0  0  0  0  0  0
   12.5907   34.8174   63.2281 F   0  0  0  0  0  0
   11.6639   32.8811   63.5146 F   0  0  0  0  0  0
   12.1059   35.9222   61.0263 H   0  0  0  0  0  0
   10.5067   36.4748   59.2455 H   0  0  0  0  0  0
    8.6477   34.9897   58.7339 H   0  0  0  0  0  0
    9.9935   32.2687   61.7787 H   0  0  0  0  0  0
    7.7399   31.9778   60.7662 H   0  0  0  0  0  0
    7.8113   33.0986   57.8997 H   0  0  0  0  0  0
    6.2682   31.0935   60.2544 H   0  0  0  0  0  0
  1  2  2  0  0  0
  1  6  1  0  0  0
  1 12  1  0  0  0
  2  3  1  0  0  0
  2 16  1  0  0  0
  3  4  2  0  0  0
  3 17  1  0  0  0
  4  5  1  0  0  0
  4 18  1  0  0  0
  5  6  2  0  0  0
  5  7  1  0  0  0
  6 19  1  0  0  0
  7  8  2  0  0  0
  7 20  1  0  0  0
  8  9  1  0  0  0
  8 21  1  0  0  0
  9 10  1  0  0  0
  9 11  2  0  0  0
 10 22  1  0  0  0
 12 13  1  0  0  0
 12 14  1  0  0  0
 12 15  1  0  0  0
M  END
> <s_m_entry_id>
8267

> <s_m_entry_name>
dock_pv.62

> <s_m_Source_Path>
/home/csk/Desktop/cluster/DUD-E-result/inha

> <s_m_Source_File>
dock_pv.maegz

> <i_m_Source_File_Index>
62

> <chembl_id>
CHEMBL2387748

> <chembl_pref_name>
None

> <i_lp_mmshare_version>
53161

> <r_lp_tautomer_probability>
1

> <s_lp_Force_Field>
OPLS_2005

> <r_lp_Energy>
8.67323

> <b_lp_Chiralities_Consistent>
1

> <s_lp_Variant>
CHEMBL1849_lig10-1

> <s_i_glide_gridfile>
glide-grid_2h7l

> <i_i_glide_lignum>
10

> <i_i_glide_rotatable_bonds>
4

> <r_i_docking_score>
-7.65221547287451

> <r_i_glide_ligand_efficiency>
-0.510147698191634

> <r_i_glide_ligand_efficiency_sa>
-1.25813241183641

> <r_i_glide_ligand_efficiency_ln>
-2.06367634143678

> <r_i_glide_gscore>
-7.65221547287451

> <r_i_glide_lipo>
-2.39939983789014

> <r_i_glide_hbond>
-0.222140665738215

> <r_i_glide_metal>
0

> <r_i_glide_rewards>
-4.21506552844517

> <r_i_glide_evdw>
-19.9052600860596

> <r_i_glide_ecoul>
-3.58237791061401

> <r_i_glide_erotb>
0.717010250094096

> <r_i_glide_esite>
0

> <r_i_glide_emodel>
-32.6552059388815

> <r_i_glide_energy>
-23.4876379966736

> <r_i_glide_einternal>
1.53215038776398

> <i_i_glide_confnum>
5

> <i_i_glide_posenum>
342

> <r_i_glide_eff_state_penalty>
0

> <s_user_duplicate_titles>
CHEMBL1849_lig10

> <i_f3d_flags>
0

> <s_m_subgroup_title>
dock_pv

> <s_m_subgroupid>
dock_pv

> <b_m_subgroup_collapsed>
0

$$$$
CHEMBL1849_lig29
                    3D
 Schrodinger Suite 2021-1.
 59 63  0  0  1  0            999 V2000
    6.6510   32.0139   59.9571 N   0  0  0  0  0  0
    7.8404   32.6143   60.4069 C   0  0  0  0  0  0
    8.1431   33.8563   59.8550 C   0  0  0  0  0  0
    9.3040   34.5493   60.1780 C   0  0  0  0  0  0
    8.7302   32.0046   61.3080 C   0  0  0  0  0  0
    9.9418   32.6580   61.6280 C   0  0  0  0  0  0
   10.1963   33.9342   61.0641 C   0  0  0  0  0  0
   11.4190   34.3678   61.5432 N   0  0  0  0  0  0
   11.0648   32.3211   62.4279 C   0  0  0  0  0  0
   12.0135   33.3707   62.2962 C   0  0  0  0  0  0
   13.3068   33.2731   62.8293 C   0  0  0  0  0  0
   13.6530   32.0755   63.4550 C   0  0  0  0  0  0
   12.7267   31.0510   63.6265 C   0  0  0  0  0  0
   11.4029   31.1989   63.2092 C   0  0  0  0  0  0
   12.0165   35.6498   61.2280 C   0  0  0  0  0  0
   11.5814   36.7343   62.2197 C   0  0  0  0  0  0
    4.2828   28.3685   60.5586 N   0  0  0  0  0  0
    3.3118   29.0859   61.1816 C   0  0  0  0  0  0
    3.3841   30.4974   60.6027 C   0  0  0  0  0  0
    4.6659   30.5762   59.7771 C   0  0  2  0  0  0
    4.8697   29.1107   59.4317 C   0  0  0  0  0  0
    5.7042   26.3229   60.0504 C   0  0  0  0  0  0
    4.4775   26.9182   60.7949 C   0  0  0  0  0  0
    7.0565   26.8479   60.5998 C   0  0  0  0  0  0
    7.2007   26.6372   62.1098 C   0  0  0  0  0  0
    5.9644   27.1236   62.8907 C   0  0  0  0  0  0
    4.6737   26.5233   62.2913 C   0  0  0  0  0  0
    2.4976   28.7203   62.0276 O   0  0  0  0  0  0
    5.8657   31.1283   60.5995 C   0  0  0  0  0  0
    6.0566   30.7549   61.7589 O   0  0  0  0  0  0
    6.3111   32.3507   59.0706 H   0  0  0  0  0  0
    7.4547   34.3192   59.1632 H   0  0  0  0  0  0
    9.4954   35.5222   59.7495 H   0  0  0  0  0  0
    8.5064   31.0351   61.7294 H   0  0  0  0  0  0
   14.0360   34.0616   62.7190 H   0  0  0  0  0  0
   14.6575   31.9475   63.8334 H   0  0  0  0  0  0
   13.0276   30.1501   64.1413 H   0  0  0  0  0  0
   10.6935   30.4003   63.3596 H   0  0  0  0  0  0
   13.0967   35.5222   61.2280 H   0  0  0  0  0  0
   11.7048   35.9225   60.2178 H   0  0  0  0  0  0
   12.1016   37.6713   62.0279 H   0  0  0  0  0  0
   10.5118   36.9334   62.1307 H   0  0  0  0  0  0
   11.8148   36.4551   63.2465 H   0  0  0  0  0  0
    2.5040   30.7245   60.0071 H   0  0  0  0  0  0
    3.3822   31.1818   61.4503 H   0  0  0  0  0  0
    4.4972   31.2105   58.9043 H   0  0  0  0  0  0
    5.9063   28.8855   59.1955 H   0  0  0  0  0  0
    4.3137   28.8664   58.5241 H   0  0  0  0  0  0
    5.6313   26.5141   58.9801 H   0  0  0  0  0  0
    5.6891   25.2354   60.1401 H   0  0  0  0  0  0
    3.5767   26.4330   60.4166 H   0  0  0  0  0  0
    7.1953   27.9058   60.3901 H   0  0  0  0  0  0
    7.8893   26.3429   60.1190 H   0  0  0  0  0  0
    8.0992   27.1626   62.4283 H   0  0  0  0  0  0
    7.3668   25.5774   62.3175 H   0  0  0  0  0  0
    5.9160   28.2140   62.8678 H   0  0  0  0  0  0
    6.0583   26.8477   63.9414 H   0  0  0  0  0  0
    4.7106   25.4370   62.3778 H   0  0  0  0  0  0
    3.8150   26.8147   62.8941 H   0  0  0  0  0  0
  1  2  1  0  0  0
  1 29  1  0  0  0
  1 31  1  0  0  0
  2  3  2  0  0  0
  2  5  1  0  0  0
  3  4  1  0  0  0
  3 32  1  0  0  0
  4  7  2  0  0  0
  4 33  1  0  0  0
  5  6  2  0  0  0
  5 34  1  0  0  0
  6  7  1  0  0  0
  6  9  1  0  0  0
  7  8  1  0  0  0
  8 15  1  0  0  0
  8 10  1  0  0  0
  9 14  2  0  0  0
  9 10  1  0  0  0
 10 11  2  0  0  0
 11 12  1  0  0  0
 11 35  1  0  0  0
 12 13  2  0  0  0
 12 36  1  0  0  0
 13 14  1  0  0  0
 13 37  1  0  0  0
 14 38  1  0  0  0
 15 16  1  0  0  0
 15 39  1  0  0  0
 15 40  1  0  0  0
 16 41  1  0  0  0
 16 42  1  0  0  0
 16 43  1  0  0  0
 17 21  1  0  0  0
 17 23  1  0  0  0
 17 18  1  0  0  0
 18 19  1  0  0  0
 18 28  2  0  0  0
 19 20  1  0  0  0
 19 44  1  0  0  0
 19 45  1  0  0  0
 20 21  1  0  0  0
 20 29  1  0  0  0
 20 46  1  0  0  0
 21 47  1  0  0  0
 21 48  1  0  0  0
 22 24  1  0  0  0
 22 23  1  0  0  0
 22 49  1  0  0  0
 22 50  1  0  0  0
 23 27  1  0  0  0
 23 51  1  0  0  0
 24 25  1  0  0  0
 24 52  1  0  0  0
 24 53  1  0  0  0
 25 26  1  0  0  0
 25 54  1  0  0  0
 25 55  1  0  0  0
 26 27  1  0  0  0
 26 56  1  0  0  0
 26 57  1  0  0  0
 27 58  1  0  0  0
 27 59  1  0  0  0
 29 30  2  0  0  0
M  END
> <s_m_entry_id>
8268

> <s_m_entry_name>
dock_pv.63

> <s_m_Source_Path>
/home/csk/Desktop/cluster/DUD-E-result/inha

> <s_m_Source_File>
dock_pv.maegz

> <i_m_Source_File_Index>
63

> <chembl_id>
CHEMBL213872

> <chembl_pref_name>
None

> <i_lp_mmshare_version>
53161

> <r_lp_tautomer_probability>
1

> <s_lp_Force_Field>
OPLS_2005

> <r_lp_Energy>
39.285204

> <b_lp_Chiralities_Consistent>
1

> <s_lp_Variant>
CHEMBL1849_lig29-1

> <s_i_glide_gridfile>
glide-grid_2h7l

> <i_i_glide_lignum>
50

> <i_i_glide_rotatable_bonds>
5

> <r_i_docking_score>
-7.63280258884613

> <r_i_glide_ligand_efficiency>
-0.254426752961538

> <r_i_glide_ligand_efficiency_sa>
-0.790563076290095

> <r_i_glide_ligand_efficiency_ln>
-1.73425591423112

> <r_i_glide_gscore>
-7.63280258884613

> <r_i_glide_lipo>
-4.2738369901273

> <r_i_glide_hbond>
0

> <r_i_glide_metal>
0

> <r_i_glide_rewards>
-2.03224782590852

> <r_i_glide_evdw>
-33.4343299865723

> <r_i_glide_ecoul>
-0.914046108722687

> <r_i_glide_erotb>
0.482337203156274

> <r_i_glide_esite>
-0.000231560329573091

> <r_i_glide_emodel>
-42.2247956067406

> <r_i_glide_energy>
-34.348376095295

> <r_i_glide_einternal>
3.85027599334717

> <i_i_glide_confnum>
17

> <i_i_glide_posenum>
189

> <r_i_glide_eff_state_penalty>
0

> <s_user_duplicate_titles>
CHEMBL1849_lig29

> <i_f3d_flags>
0

> <s_m_subgroup_title>
dock_pv

> <s_m_subgroupid>
dock_pv

> <b_m_subgroup_collapsed>
0

$$$$
CHEMBL1849_lig21
                    3D
 Schrodinger Suite 2021-1.
 46 48  0  0  1  0            999 V2000
    5.2912   29.1715   61.4915 C   0  0  0  0  0  0
    5.2769   30.6201   61.0061 C   0  0  0  0  0  0
    6.4272   30.7716   59.9993 C   0  0  2  0  0  0
    6.7712   29.3221   59.6470 C   0  0  0  0  0  0
    6.1410   28.5038   60.6805 N   0  0  0  0  0  0
    6.3416   27.0508   60.7945 C   0  0  0  0  0  0
    7.1749   26.6300   62.0279 C   0  0  0  0  0  0
    7.4136   25.1152   62.1219 C   0  0  0  0  0  0
    6.1002   24.3220   62.0565 C   0  0  0  0  0  0
    5.2531   24.6751   60.8275 C   0  0  0  0  0  0
    5.0542   26.1880   60.6222 C   0  0  0  0  0  0
    7.6279   31.5152   60.6467 C   0  0  0  0  0  0
    8.0895   32.5881   59.9673 N   0  0  0  0  0  0
    8.0832   31.1214   61.7191 O   0  0  0  0  0  0
    9.1645   33.4528   60.2659 C   0  0  0  0  0  0
   10.1342   33.2220   61.2557 C   0  0  0  0  0  0
   11.1840   34.1337   61.4732 C   0  0  0  0  0  0
   11.2513   35.2754   60.6776 C   0  0  0  0  0  0
   10.3159   35.4985   59.6719 C   0  0  0  0  0  0
    9.2832   34.5895   59.4629 C   0  0  0  0  0  0
    4.6317   28.7209   62.4271 O   0  0  0  0  0  0
   12.2474   33.9142   62.5568 C   0  0  0  0  0  0
   12.5041   35.0401   63.2225 F   0  0  0  0  0  0
   13.3991   33.5217   62.0229 F   0  0  0  0  0  0
   11.8600   32.9802   63.4247 F   0  0  0  0  0  0
    5.3873   31.2487   61.8928 H   0  0  0  0  0  0
    4.3127   30.8817   60.5677 H   0  0  0  0  0  0
    6.0915   31.3369   59.1276 H   0  0  0  0  0  0
    6.3154   29.0657   58.6876 H   0  0  0  0  0  0
    7.8393   29.1451   59.5087 H   0  0  0  0  0  0
    6.9664   26.7821   59.9427 H   0  0  0  0  0  0
    8.1316   27.1514   62.0274 H   0  0  0  0  0  0
    6.6571   26.9461   62.9344 H   0  0  0  0  0  0
    8.0810   24.8030   61.3187 H   0  0  0  0  0  0
    7.9413   24.8786   63.0446 H   0  0  0  0  0  0
    6.3196   23.2549   62.0279 H   0  0  0  0  0  0
    5.5197   24.5040   62.9630 H   0  0  0  0  0  0
    5.7039   24.2471   59.9353 H   0  0  0  0  0  0
    4.2805   24.1898   60.9097 H   0  0  0  0  0  0
    4.3108   26.4890   61.3601 H   0  0  0  0  0  0
    4.6131   26.3680   59.6414 H   0  0  0  0  0  0
    7.5779   32.8387   59.1364 H   0  0  0  0  0  0
   10.0925   32.3377   61.8724 H   0  0  0  0  0  0
   12.0436   35.9910   60.8298 H   0  0  0  0  0  0
   10.3907   36.3802   59.0549 H   0  0  0  0  0  0
    8.5720   34.7814   58.6714 H   0  0  0  0  0  0
  1  2  1  0  0  0
  1  5  1  0  0  0
  1 21  2  0  0  0
  2  3  1  0  0  0
  2 26  1  0  0  0
  2 27  1  0  0  0
  3 12  1  0  0  0
  3  4  1  0  0  0
  3 28  1  0  0  0
  4  5  1  0  0  0
  4 29  1  0  0  0
  4 30  1  0  0  0
  5  6  1  0  0  0
  6 11  1  0  0  0
  6  7  1  0  0  0
  6 31  1  0  0  0
  7  8  1  0  0  0
  7 32  1  0  0  0
  7 33  1  0  0  0
  8  9  1  0  0  0
  8 34  1  0  0  0
  8 35  1  0  0  0
  9 10  1  0  0  0
  9 36  1  0  0  0
  9 37  1  0  0  0
 10 11  1  0  0  0
 10 38  1  0  0  0
 10 39  1  0  0  0
 11 40  1  0  0  0
 11 41  1  0  0  0
 12 13  1  0  0  0
 12 14  2  0  0  0
 13 15  1  0  0  0
 13 42  1  0  0  0
 15 16  2  0  0  0
 15 20  1  0  0  0
 16 17  1  0  0  0
 16 43  1  0  0  0
 17 18  2  0  0  0
 17 22  1  0  0  0
 18 19  1  0  0  0
 18 44  1  0  0  0
 19 20  2  0  0  0
 19 45  1  0  0  0
 20 46  1  0  0  0
 22 23  1  0  0  0
 22 24  1  0  0  0
 22 25  1  0  0  0
M  END
> <s_m_entry_id>
8269

> <s_m_entry_name>
dock_pv.64

> <s_m_Source_Path>
/home/csk/Desktop/cluster/DUD-E-result/inha

> <s_m_Source_File>
dock_pv.maegz

> <i_m_Source_File_Index>
64

> <chembl_id>
CHEMBL411394

> <chembl_pref_name>
None

> <i_lp_mmshare_version>
53161

> <r_lp_tautomer_probability>
1

> <s_lp_Force_Field>
OPLS_2005

> <r_lp_Energy>
34.606759

> <b_lp_Chiralities_Consistent>
1

> <s_lp_Variant>
CHEMBL1849_lig21-1

> <s_i_glide_gridfile>
glide-grid_2h7l

> <i_i_glide_lignum>
30

> <i_i_glide_rotatable_bonds>
5

> <r_i_docking_score>
-7.61364698989568

> <r_i_glide_ligand_efficiency>
-0.304545879595827

> <r_i_glide_ligand_efficiency_sa>
-0.890497553082371

> <r_i_glide_ligand_efficiency_ln>
-1.80466249919397

> <r_i_glide_gscore>
-7.61364698989568

> <r_i_glide_lipo>
-2.83062751010607

> <r_i_glide_hbond>
0

> <r_i_glide_metal>
0

> <r_i_glide_rewards>
-3.60257079544915

> <r_i_glide_evdw>
-34.7661018371582

> <r_i_glide_ecoul>
-0.338614076375961

> <r_i_glide_erotb>
0.60864851897385

> <r_i_glide_esite>
0

> <r_i_glide_emodel>
-50.0708171302768

> <r_i_glide_energy>
-35.1047159135342

> <r_i_glide_einternal>
2.60435390472412

> <i_i_glide_confnum>
6

> <i_i_glide_posenum>
179

> <r_i_glide_eff_state_penalty>
0

> <s_user_duplicate_titles>
CHEMBL1849_lig21

> <i_f3d_flags>
0

> <s_m_subgroup_title>
dock_pv

> <s_m_subgroupid>
dock_pv

> <b_m_subgroup_collapsed>
0

$$$$
CHEMBL1849_lig169
                    3D
 Schrodinger Suite 2021-1.
 52 55  0  0  1  0            999 V2000
    7.7963   31.4796   59.1720 C   0  0  0  0  0  0
    6.5893   30.6582   59.3650 N   0  0  0  0  0  0
    5.6476   31.2716   60.3270 C   0  0  1  0  0  0
    6.5185   32.2831   61.0729 C   0  0  0  0  0  0
    7.5830   32.7151   60.0676 C   0  0  1  0  0  0
    4.4306   31.9220   59.6284 C   0  0  0  0  0  0
    4.4288   32.3168   58.4794 O   0  0  0  0  0  0
    6.4965   29.4096   58.8317 C   0  0  0  0  0  0
    5.3908   28.6050   59.2619 C   0  0  0  0  0  0
    7.3030   28.9443   58.0281 O   0  0  0  0  0  0
    8.7982   33.0989   60.7849 N   0  0  0  0  0  0
    9.6274   34.0924   60.4280 C   0  0  0  0  0  0
   10.7468   34.2584   61.3258 C   0  0  0  0  0  0
    9.4605   34.8052   59.4386 O   0  0  0  0  0  0
   11.4892   33.3078   62.0280 C   0  0  0  0  0  0
   12.5464   33.9865   62.6414 C   0  0  0  0  0  0
   12.4721   35.2739   62.3934 N   0  0  0  0  0  0
   11.3980   35.4406   61.6094 N   0  0  0  0  0  0
   13.6505   33.4660   63.5364 C   0  0  0  0  0  0
   14.8185   32.8430   62.8280 C   0  0  0  0  0  0
   10.9414   36.8010   61.3673 C   0  0  0  0  0  0
    3.2145   27.9040   59.4521 O   0  0  0  0  0  0
    4.0755   28.7535   58.8280 C   0  0  0  0  0  0
    3.9763   27.1700   60.3107 C   0  0  0  0  0  0
    5.3359   27.5568   60.2397 C   0  0  0  0  0  0
    6.2593   26.9006   61.0701 C   0  0  0  0  0  0
    5.8058   25.8877   61.9206 C   0  0  0  0  0  0
    4.4576   25.5277   61.9675 C   0  0  0  0  0  0
    3.5092   26.1648   61.1654 C   0  0  0  0  0  0
    3.3582   31.9220   60.4693 O   0  0  0  0  0  0
    7.9687   31.7726   58.1357 H   0  0  0  0  0  0
    8.6604   30.9221   59.5365 H   0  0  0  0  0  0
    5.2191   30.5177   60.9897 H   0  0  0  0  0  0
    6.9702   31.7712   61.9255 H   0  0  0  0  0  0
    5.9765   33.1110   61.5343 H   0  0  0  0  0  0
    7.1605   33.5174   59.4554 H   0  0  0  0  0  0
    9.0440   32.5503   61.5945 H   0  0  0  0  0  0
   11.3040   32.2456   62.0742 H   0  0  0  0  0  0
   14.1039   34.3204   64.0280 H   0  0  0  0  0  0
   13.2855   32.7220   64.2525 H   0  0  0  0  0  0
   15.6507   32.6653   63.5100 H   0  0  0  0  0  0
   14.5040   31.8804   62.4280 H   0  0  0  0  0  0
   15.1648   33.5220   62.0417 H   0  0  0  0  0  0
   10.6450   36.9281   60.3267 H   0  0  0  0  0  0
   11.7046   37.5295   61.6280 H   0  0  0  0  0  0
   10.1040   36.9959   62.0280 H   0  0  0  0  0  0
    3.6108   29.4317   58.1258 H   0  0  0  0  0  0
    7.3043   27.1642   61.0388 H   0  0  0  0  0  0
    6.5146   25.3707   62.5522 H   0  0  0  0  0  0
    4.1448   24.7403   62.6386 H   0  0  0  0  0  0
    2.4642   25.8951   61.1974 H   0  0  0  0  0  0
    2.5623   32.2441   60.0280 H   0  0  0  0  0  0
  1  2  1  0  0  0
  1  5  1  0  0  0
  1 31  1  0  0  0
  1 32  1  0  0  0
  2  3  1  0  0  0
  2  8  1  0  0  0
  3  4  1  0  0  0
  3  6  1  0  0  0
  3 33  1  0  0  0
  4  5  1  0  0  0
  4 34  1  0  0  0
  4 35  1  0  0  0
  5 11  1  0  0  0
  5 36  1  0  0  0
  6  7  2  0  0  0
  6 30  1  0  0  0
  8  9  1  0  0  0
  8 10  2  0  0  0
  9 25  1  0  0  0
  9 23  2  0  0  0
 11 12  1  0  0  0
 11 37  1  0  0  0
 12 13  1  0  0  0
 12 14  2  0  0  0
 13 15  2  0  0  0
 13 18  1  0  0  0
 15 16  1  0  0  0
 15 38  1  0  0  0
 16 17  2  0  0  0
 16 19  1  0  0  0
 17 18  1  0  0  0
 18 21  1  0  0  0
 19 20  1  0  0  0
 19 39  1  0  0  0
 19 40  1  0  0  0
 20 41  1  0  0  0
 20 42  1  0  0  0
 20 43  1  0  0  0
 21 44  1  0  0  0
 21 45  1  0  0  0
 21 46  1  0  0  0
 22 24  1  0  0  0
 22 23  1  0  0  0
 23 47  1  0  0  0
 24 25  2  0  0  0
 24 29  1  0  0  0
 25 26  1  0  0  0
 26 27  2  0  0  0
 26 48  1  0  0  0
 27 28  1  0  0  0
 27 49  1  0  0  0
 28 29  2  0  0  0
 28 50  1  0  0  0
 29 51  1  0  0  0
 30 52  1  0  0  0
M  END
> <s_m_entry_id>
8270

> <s_m_entry_name>
dock_pv.65

> <s_m_Source_Path>
/home/csk/Desktop/cluster/DUD-E-result/inha

> <s_m_Source_File>
dock_pv.maegz

> <i_m_Source_File_Index>
65

> <chembl_id>
CHEMBL3125275

> <chembl_pref_name>
None

> <i_lp_mmshare_version>
53161

> <r_lp_tautomer_probability>
1

> <s_lp_Force_Field>
OPLS_2005

> <r_lp_Energy>
19.528692

> <b_lp_Chiralities_Consistent>
1

> <s_lp_Variant>
CHEMBL1849_lig169-1

> <s_i_glide_gridfile>
glide-grid_2h7l

> <i_i_glide_lignum>
236

> <i_i_glide_rotatable_bonds>
8

> <r_i_docking_score>
-7.59896806763564

> <r_i_glide_ligand_efficiency>
-0.253298935587855

> <r_i_glide_ligand_efficiency_sa>
-0.787058685489781

> <r_i_glide_ligand_efficiency_ln>
-1.72656834235547

> <r_i_glide_gscore>
-7.59896806763564

> <r_i_glide_lipo>
-3.04388781559979

> <r_i_glide_hbond>
0

> <r_i_glide_metal>
0

> <r_i_glide_rewards>
-2.49531656639764

> <r_i_glide_evdw>
-45.1073951721191

> <r_i_glide_ecoul>
-3.37399816513062

> <r_i_glide_erotb>
0.701705797737337

> <r_i_glide_esite>
0

> <r_i_glide_emodel>
-61.5686344164877

> <r_i_glide_energy>
-48.4813933372498

> <r_i_glide_einternal>
14.7552728652954

> <i_i_glide_confnum>
101

> <i_i_glide_posenum>
185

> <r_i_glide_eff_state_penalty>
0

> <s_user_duplicate_titles>
CHEMBL1849_lig169

> <i_f3d_flags>
0

> <s_m_subgroup_title>
dock_pv

> <s_m_subgroupid>
dock_pv

> <b_m_subgroup_collapsed>
0

$$$$
CHEMBL1849_lig72
                    3D
 Schrodinger Suite 2021-1.
 49 50  0  0  1  0            999 V2000
    7.8638   33.2407   60.5503 C   0  0  0  0  0  0
    8.5040   33.4016   59.3205 C   0  0  0  0  0  0
    8.5160   32.3292   58.4274 C   0  0  0  0  0  0
    7.9925   31.0889   58.7940 C   0  0  0  0  0  0
    7.3969   30.9183   60.0459 C   0  0  0  0  0  0
    7.3194   32.0074   60.9218 C   0  0  0  0  0  0
    6.8559   29.6940   60.3836 O   0  0  0  0  0  0
    5.5572   29.3799   60.0099 C   0  0  0  0  0  0
    4.7546   30.2807   59.2909 C   0  0  0  0  0  0
    3.4517   29.9582   58.9476 C   0  0  0  0  0  0
    2.9153   28.7260   59.2980 C   0  0  0  0  0  0
    3.6895   27.8176   60.0123 C   0  0  0  0  0  0
    5.0133   28.1317   60.3746 C   0  0  0  0  0  0
    6.7105   31.8825   62.1430 O   0  0  0  0  0  0
    9.1593   34.7371   58.9616 C   0  0  0  0  0  0
   10.5538   35.0560   59.5598 C   0  0  0  0  0  0
   10.8274   34.5401   60.9907 C   0  0  0  0  0  0
   12.2824   34.7646   61.4490 C   0  0  0  0  0  0
   12.6027   34.1902   62.8492 C   0  0  0  0  0  0
   14.0152   33.5960   62.9442 C   0  0  0  0  0  0
    5.7956   27.2680   61.1722 N   0  0  0  0  0  0
    5.6455   25.9345   61.3453 C   0  0  0  0  0  0
    4.9076   25.1884   60.6972 O   0  0  0  0  0  0
    6.4531   25.4246   62.4507 C   0  0  0  0  0  0
    6.1041   25.5266   63.6272 O   0  0  0  0  0  0
    7.6051   24.8187   62.0278 O   0  0  0  0  0  0
    7.8079   34.0788   61.2281 H   0  0  0  0  0  0
    8.9991   32.4454   57.4689 H   0  0  0  0  0  0
    8.0468   30.2535   58.1107 H   0  0  0  0  0  0
    5.1190   31.2550   59.0045 H   0  0  0  0  0  0
    2.8669   30.6937   58.4281 H   0  0  0  0  0  0
    1.8944   28.4869   59.0372 H   0  0  0  0  0  0
    3.2283   26.8872   60.3048 H   0  0  0  0  0  0
    6.8587   32.6497   62.7024 H   0  0  0  0  0  0
    9.1846   34.8582   57.8779 H   0  0  0  0  0  0
    8.5039   35.5219   59.3047 H   0  0  0  0  0  0
   11.3263   34.7220   58.8736 H   0  0  0  0  0  0
   10.6805   36.1400   59.5645 H   0  0  0  0  0  0
   10.1399   35.0212   61.6860 H   0  0  0  0  0  0
   10.6198   33.4704   61.0384 H   0  0  0  0  0  0
   12.9460   34.3223   60.7039 H   0  0  0  0  0  0
   12.5043   35.8326   61.4450 H   0  0  0  0  0  0
   12.5038   34.9650   63.6148 H   0  0  0  0  0  0
   11.8882   33.4121   63.1184 H   0  0  0  0  0  0
   14.2418   33.2657   63.9593 H   0  0  0  0  0  0
   14.1039   32.7240   62.2949 H   0  0  0  0  0  0
   14.7788   34.3199   62.6508 H   0  0  0  0  0  0
    6.5011   27.7361   61.7239 H   0  0  0  0  0  0
    7.7028   24.7956   61.0657 H   0  0  0  0  0  0
  1  2  2  0  0  0
  1  6  1  0  0  0
  1 27  1  0  0  0
  2 15  1  0  0  0
  2  3  1  0  0  0
  3  4  2  0  0  0
  3 28  1  0  0  0
  4  5  1  0  0  0
  4 29  1  0  0  0
  5  7  1  0  0  0
  5  6  2  0  0  0
  6 14  1  0  0  0
  7  8  1  0  0  0
  8 13  1  0  0  0
  8  9  2  0  0  0
  9 10  1  0  0  0
  9 30  1  0  0  0
 10 11  2  0  0  0
 10 31  1  0  0  0
 11 12  1  0  0  0
 11 32  1  0  0  0
 12 13  2  0  0  0
 12 33  1  0  0  0
 13 21  1  0  0  0
 14 34  1  0  0  0
 15 16  1  0  0  0
 15 35  1  0  0  0
 15 36  1  0  0  0
 16 17  1  0  0  0
 16 37  1  0  0  0
 16 38  1  0  0  0
 17 18  1  0  0  0
 17 39  1  0  0  0
 17 40  1  0  0  0
 18 19  1  0  0  0
 18 41  1  0  0  0
 18 42  1  0  0  0
 19 20  1  0  0  0
 19 43  1  0  0  0
 19 44  1  0  0  0
 20 45  1  0  0  0
 20 46  1  0  0  0
 20 47  1  0  0  0
 21 22  1  0  0  0
 21 48  1  0  0  0
 22 23  2  0  0  0
 22 24  1  0  0  0
 24 25  2  0  0  0
 24 26  1  0  0  0
 26 49  1  0  0  0
M  END
> <s_m_entry_id>
8271

> <s_m_entry_name>
dock_pv.66

> <s_m_Source_Path>
/home/csk/Desktop/cluster/DUD-E-result/inha

> <s_m_Source_File>
dock_pv.maegz

> <i_m_Source_File_Index>
66

> <chembl_id>
CHEMBL407324

> <chembl_pref_name>
None

> <i_lp_mmshare_version>
53161

> <r_lp_tautomer_probability>
0.999999999999776

> <s_lp_Force_Field>
OPLS_2005

> <r_lp_Energy>
20.562753

> <b_lp_Chiralities_Consistent>
1

> <s_lp_Variant>
CHEMBL1849_lig72-1

> <s_i_glide_gridfile>
glide-grid_2h7l

> <i_i_glide_lignum>
122

> <i_i_glide_rotatable_bonds>
12

> <r_i_docking_score>
-7.58475185974945

> <r_i_glide_ligand_efficiency>
-0.291721225374979

> <r_i_glide_ligand_efficiency_sa>
-0.864222982305782

> <r_i_glide_ligand_efficiency_ln>
-1.78125408666138

> <r_i_glide_gscore>
-7.58475185974945

> <r_i_glide_lipo>
-3.82061844395092

> <r_i_glide_hbond>
0

> <r_i_glide_metal>
0

> <r_i_glide_rewards>
-1.84015946226607

> <r_i_glide_evdw>
-43.0705986022949

> <r_i_glide_ecoul>
-7.46182632446289

> <r_i_glide_erotb>
1.34882992525172

> <r_i_glide_esite>
0

> <r_i_glide_emodel>
-67.4521333691249

> <r_i_glide_energy>
-50.5324249267578

> <r_i_glide_einternal>
10.8830909729004

> <i_i_glide_confnum>
19

> <i_i_glide_posenum>
370

> <r_i_glide_eff_state_penalty>
0

> <s_user_duplicate_titles>
CHEMBL1849_lig72,428283

> <i_f3d_flags>
0

> <s_m_subgroup_title>
dock_pv

> <s_m_subgroupid>
dock_pv

> <b_m_subgroup_collapsed>
0

$$$$
CHEMBL1849_lig181
                    3D
 Schrodinger Suite 2021-1.
 34 36  0  0  1  0            999 V2000
   11.9300   33.9642   62.0274 C   0  0  0  0  0  0
   11.8372   32.8372   62.8463 C   0  0  0  0  0  0
   10.7064   32.0184   62.7932 C   0  0  0  0  0  0
   10.9167   34.2594   61.1162 C   0  0  0  0  0  0
    9.8049   33.4141   61.0384 C   0  0  0  0  0  0
    9.6792   32.3200   61.8971 C   0  0  0  0  0  0
    8.5096   31.5244   61.9213 N   0  0  0  0  0  0
    7.5676   31.7915   61.0986 C   0  0  0  0  0  0
    7.6934   32.7294   60.0841 N   0  0  0  0  0  0
    8.7364   33.6331   59.9949 C   0  0  0  0  0  0
    8.8411   34.4971   59.1200 O   0  0  0  0  0  0
    6.6765   32.8056   58.9920 C   0  0  0  0  0  0
    6.5344   31.5225   58.1354 C   0  0  0  0  0  0
    7.3024   30.4546   58.4206 N   0  0  0  0  0  0
    5.7055   31.5206   57.2275 O   0  0  0  0  0  0
    7.1102   29.1045   57.9070 C   0  0  0  0  0  0
   13.3100   34.9873   62.1166 Cl  0  0  0  0  0  0
    6.1816   28.3368   58.8280 C   0  0  0  0  0  0
    6.3424   27.2742   59.7051 C   0  0  0  0  0  0
    5.0880   27.0041   60.2541 C   0  0  0  0  0  0
    4.2147   27.9209   59.6972 C   0  0  0  0  0  0
    4.8784   28.7244   58.8289 O   0  0  0  0  0  0
   12.6301   32.6138   63.5465 H   0  0  0  0  0  0
   10.6113   31.1706   63.4554 H   0  0  0  0  0  0
   11.0148   35.1189   60.4676 H   0  0  0  0  0  0
    6.6362   31.2322   61.1438 H   0  0  0  0  0  0
    6.9035   33.6022   58.2844 H   0  0  0  0  0  0
    5.7005   33.0409   59.4235 H   0  0  0  0  0  0
    8.0255   30.5609   59.1177 H   0  0  0  0  0  0
    8.0874   28.6190   57.8794 H   0  0  0  0  0  0
    6.7605   29.1144   56.8726 H   0  0  0  0  0  0
    7.2638   26.7498   59.9178 H   0  0  0  0  0  0
    4.8469   26.2349   60.9734 H   0  0  0  0  0  0
    3.1565   28.1118   59.8094 H   0  0  0  0  0  0
  1  2  2  0  0  0
  1  4  1  0  0  0
  1 17  1  0  0  0
  2  3  1  0  0  0
  2 23  1  0  0  0
  3  6  2  0  0  0
  3 24  1  0  0  0
  4  5  2  0  0  0
  4 25  1  0  0  0
  5  6  1  0  0  0
  5 10  1  0  0  0
  6  7  1  0  0  0
  7  8  2  0  0  0
  8  9  1  0  0  0
  8 26  1  0  0  0
  9 10  1  0  0  0
  9 12  1  0  0  0
 10 11  2  0  0  0
 12 13  1  0  0  0
 12 27  1  0  0  0
 12 28  1  0  0  0
 13 14  1  0  0  0
 13 15  2  0  0  0
 14 16  1  0  0  0
 14 29  1  0  0  0
 16 18  1  0  0  0
 16 30  1  0  0  0
 16 31  1  0  0  0
 18 19  2  0  0  0
 18 22  1  0  0  0
 19 20  1  0  0  0
 19 32  1  0  0  0
 20 21  2  0  0  0
 20 33  1  0  0  0
 21 22  1  0  0  0
 21 34  1  0  0  0
M  END
> <s_m_entry_id>
8272

> <s_m_entry_name>
dock_pv.67

> <s_m_Source_Path>
/home/csk/Desktop/cluster/DUD-E-result/inha

> <s_m_Source_File>
dock_pv.maegz

> <i_m_Source_File_Index>
67

> <chembl_id>
CHEMBL3331275

> <chembl_pref_name>
None

> <i_lp_mmshare_version>
53161

> <r_lp_tautomer_probability>
1

> <s_lp_Force_Field>
OPLS_2005

> <r_lp_Energy>
10.365221

> <b_lp_Chiralities_Consistent>
1

> <s_lp_Variant>
CHEMBL1849_lig181-1

> <s_i_glide_gridfile>
glide-grid_2h7l

> <i_i_glide_lignum>
248

> <i_i_glide_rotatable_bonds>
5

> <r_i_docking_score>
-7.57266530758069

> <r_i_glide_ligand_efficiency>
-0.344212059435486

> <r_i_glide_ligand_efficiency_sa>
-0.964495727630356

> <r_i_glide_ligand_efficiency_ln>
-1.85103562085119

> <r_i_glide_gscore>
-7.57266530758069

> <r_i_glide_lipo>
-3.09359715849638

> <r_i_glide_hbond>
-0.123018357334108

> <r_i_glide_metal>
0

> <r_i_glide_rewards>
-2.71933583413989

> <r_i_glide_evdw>
-34.7806739807129

> <r_i_glide_ecoul>
-3.00976848602295

> <r_i_glide_erotb>
0.553785014328772

> <r_i_glide_esite>
0

> <r_i_glide_emodel>
-53.7902710123597

> <r_i_glide_energy>
-37.7904424667358

> <r_i_glide_einternal>
3.28083920478821

> <i_i_glide_confnum>
1

> <i_i_glide_posenum>
164

> <r_i_glide_eff_state_penalty>
0

> <s_user_duplicate_titles>
CHEMBL1849_lig181

> <i_f3d_flags>
0

> <s_m_subgroup_title>
dock_pv

> <s_m_subgroupid>
dock_pv

> <b_m_subgroup_collapsed>
0

$$$$
CHEMBL1849_lig13
                    3D
 Schrodinger Suite 2021-1.
 49 51  0  0  1  0            999 V2000
    6.1831   30.6431   58.1776 C   0  0  0  0  0  0
    6.1072   29.1221   58.0613 C   0  0  0  0  0  0
    6.6232   28.5836   59.3875 C   0  0  1  0  0  0
    6.2308   29.6979   60.3252 C   0  0  0  0  0  0
    6.3260   30.9026   59.5044 N   0  0  0  0  0  0
    6.2134   32.2362   60.1316 C   0  0  0  0  0  0
    6.7523   32.2395   61.5851 C   0  0  0  0  0  0
    8.2719   31.9222   61.6281 C   0  0  0  0  0  0
    9.0671   32.9549   60.8021 C   0  0  0  0  0  0
    8.5043   33.1177   59.3739 C   0  0  0  0  0  0
    6.9859   33.3802   59.4239 C   0  0  0  0  0  0
    6.0341   27.2671   59.9316 C   0  0  0  0  0  0
    5.3028   26.5765   59.2280 O   0  0  0  0  0  0
    5.7454   26.0698   62.0791 C   0  0  0  0  0  0
    5.1813   24.8527   61.6730 C   0  0  0  0  0  0
    4.5129   24.0416   62.5995 C   0  0  0  0  0  0
    4.4253   24.4564   63.9353 C   0  0  0  0  0  0
    5.0165   25.6516   64.3599 C   0  0  0  0  0  0
    5.6817   26.4470   63.4223 C   0  0  0  0  0  0
    6.0999   31.4248   57.2275 O   0  0  0  0  0  0
    4.9120   26.0847   65.8227 C   0  0  0  0  0  0
    3.6544   26.4355   66.0883 F   0  0  0  0  0  0
    5.7038   27.1207   66.1035 F   0  0  0  0  0  0
    5.2555   25.0799   66.6262 F   0  0  0  0  0  0
    3.8725   22.7289   62.1504 C   0  0  0  0  0  0
    3.7048   21.8844   63.1696 F   0  0  0  0  0  0
    2.6753   22.9890   61.6273 F   0  0  0  0  0  0
    4.6216   22.1218   61.2287 F   0  0  0  0  0  0
    6.3576   26.9848   61.2128 N   0  0  0  0  0  0
    6.7682   28.8478   57.2387 H   0  0  0  0  0  0
    5.0814   28.8262   57.8413 H   0  0  0  0  0  0
    7.7044   28.4544   59.3786 H   0  0  0  0  0  0
    5.1781   29.6296   60.6105 H   0  0  0  0  0  0
    6.8284   29.6930   61.2340 H   0  0  0  0  0  0
    5.1497   32.4808   60.1410 H   0  0  0  0  0  0
    6.5701   33.2158   62.0276 H   0  0  0  0  0  0
    6.1897   31.5540   62.2193 H   0  0  0  0  0  0
    8.6234   31.9209   62.6600 H   0  0  0  0  0  0
    8.4994   30.9305   61.2456 H   0  0  0  0  0  0
    9.0237   33.9336   61.2784 H   0  0  0  0  0  0
   10.1209   32.6807   60.8118 H   0  0  0  0  0  0
    9.0105   33.9404   58.8667 H   0  0  0  0  0  0
    8.7144   32.2238   58.7849 H   0  0  0  0  0  0
    6.5938   33.5327   58.4278 H   0  0  0  0  0  0
    6.7939   34.3222   59.9396 H   0  0  0  0  0  0
    5.2469   24.5418   60.6396 H   0  0  0  0  0  0
    3.8827   23.8537   64.6501 H   0  0  0  0  0  0
    6.1133   27.3878   63.7338 H   0  0  0  0  0  0
    6.9937   27.6284   61.6567 H   0  0  0  0  0  0
  1  2  1  0  0  0
  1  5  1  0  0  0
  1 20  2  0  0  0
  2  3  1  0  0  0
  2 30  1  0  0  0
  2 31  1  0  0  0
  3  4  1  0  0  0
  3 12  1  0  0  0
  3 32  1  0  0  0
  4  5  1  0  0  0
  4 33  1  0  0  0
  4 34  1  0  0  0
  5  6  1  0  0  0
  6  7  1  0  0  0
  6 11  1  0  0  0
  6 35  1  0  0  0
  7  8  1  0  0  0
  7 36  1  0  0  0
  7 37  1  0  0  0
  8  9  1  0  0  0
  8 38  1  0  0  0
  8 39  1  0  0  0
  9 10  1  0  0  0
  9 40  1  0  0  0
  9 41  1  0  0  0
 10 11  1  0  0  0
 10 42  1  0  0  0
 10 43  1  0  0  0
 11 44  1  0  0  0
 11 45  1  0  0  0
 12 13  2  0  0  0
 12 29  1  0  0  0
 14 15  2  0  0  0
 14 19  1  0  0  0
 14 29  1  0  0  0
 15 16  1  0  0  0
 15 46  1  0  0  0
 16 17  2  0  0  0
 16 25  1  0  0  0
 17 18  1  0  0  0
 17 47  1  0  0  0
 18 19  2  0  0  0
 18 21  1  0  0  0
 19 48  1  0  0  0
 21 22  1  0  0  0
 21 23  1  0  0  0
 21 24  1  0  0  0
 25 26  1  0  0  0
 25 27  1  0  0  0
 25 28  1  0  0  0
 29 49  1  0  0  0
M  END
> <s_m_entry_id>
8273

> <s_m_entry_name>
dock_pv.68

> <s_m_Source_Path>
/home/csk/Desktop/cluster/DUD-E-result/inha

> <s_m_Source_File>
dock_pv.maegz

> <i_m_Source_File_Index>
68

> <chembl_id>
CHEMBL216339

> <chembl_pref_name>
None

> <i_lp_mmshare_version>
53161

> <r_lp_tautomer_probability>
1

> <s_lp_Force_Field>
OPLS_2005

> <r_lp_Energy>
34.383873

> <b_lp_Chiralities_Consistent>
1

> <s_lp_Variant>
CHEMBL1849_lig13-2

> <s_i_glide_gridfile>
glide-grid_2h7l

> <i_i_glide_lignum>
15

> <i_i_glide_rotatable_bonds>
6

> <r_i_docking_score>
-7.5490758420551

> <r_i_glide_ligand_efficiency>
-0.260312960070865

> <r_i_glide_ligand_efficiency_sa>
-0.799763886272127

> <r_i_glide_ligand_efficiency_ln>
-1.72854693978413

> <r_i_glide_gscore>
-7.5490758420551

> <r_i_glide_lipo>
-2.72726393640853

> <r_i_glide_hbond>
-0.42786141245453

> <r_i_glide_metal>
0

> <r_i_glide_rewards>
-2.14355558175048

> <r_i_glide_evdw>
-39.2829475402832

> <r_i_glide_ecoul>
-4.76853704452515

> <r_i_glide_erotb>
0.444185735339778

> <r_i_glide_esite>
-0.0151527130884065

> <r_i_glide_emodel>
-59.8583651651944

> <r_i_glide_energy>
-44.0514845848083

> <r_i_glide_einternal>
4.85839080810547

> <i_i_glide_confnum>
28

> <i_i_glide_posenum>
357

> <r_i_glide_eff_state_penalty>
0

> <s_user_duplicate_titles>
CHEMBL1849_lig13

> <i_f3d_flags>
0

> <s_m_subgroup_title>
dock_pv

> <s_m_subgroupid>
dock_pv

> <b_m_subgroup_collapsed>
0

$$$$
CHEMBL1849_lig36
                    3D
 Schrodinger Suite 2021-1.
 54 58  0  0  1  0            999 V2000
    9.4472   33.9877   60.4052 C   0  0  0  0  0  0
    9.9887   33.0424   61.2841 C   0  0  0  0  0  0
   11.1690   33.2762   62.0091 C   0  0  0  0  0  0
   11.7851   34.5272   61.8526 C   0  0  0  0  0  0
   11.2476   35.4865   60.9975 C   0  0  0  0  0  0
   10.1040   35.2071   60.2598 C   0  0  0  0  0  0
   11.7588   32.2010   62.8711 C   0  0  0  0  0  0
   13.1310   32.1869   63.1617 C   0  0  0  0  0  0
   13.7040   31.1198   63.8411 C   0  0  0  0  0  0
   12.9187   30.0390   64.2389 C   0  0  0  0  0  0
   11.5507   30.0633   64.0280 C   0  0  0  0  0  0
   10.9740   31.1426   63.3597 C   0  0  0  0  0  0
    5.9470   28.6893   61.3590 C   0  0  2  0  0  0
    6.6576   29.5076   60.3537 N   0  0  0  0  0  0
    6.8389   29.2073   59.0465 C   0  0  0  0  0  0
    7.6247   30.3508   58.4283 C   0  0  0  0  0  0
    8.0304   31.3040   59.5503 C   0  0  2  0  0  0
    7.3821   30.6942   60.7985 C   0  0  0  0  0  0
    6.4898   28.2120   58.4280 O   0  0  0  0  0  0
    6.8276   27.6148   62.0428 C   0  0  0  0  0  0
    5.9074   26.3750   62.0900 C   0  0  2  0  0  0
    4.7311   27.8316   60.8854 C   0  0  1  0  0  0
    5.3040   26.4212   60.6946 C   0  0  0  0  0  0
    4.6663   26.6302   62.9759 C   0  0  0  0  0  0
    3.8113   27.5776   62.1016 C   0  0  0  0  0  0
    7.5196   32.7525   59.3414 C   0  0  0  0  0  0
    8.2394   33.8387   59.6972 N   0  0  0  0  0  0
    6.4185   32.9319   58.8280 O   0  0  0  0  0  0
    9.4690   32.1246   61.4583 H   0  0  0  0  0  0
   12.6784   34.7808   62.4026 H   0  0  0  0  0  0
   11.7040   36.4576   60.9023 H   0  0  0  0  0  0
    9.7090   35.9704   59.6051 H   0  0  0  0  0  0
   13.7846   32.9735   62.8171 H   0  0  0  0  0  0
   14.7676   31.1220   64.0280 H   0  0  0  0  0  0
   13.3594   29.1971   64.7485 H   0  0  0  0  0  0
   10.9379   29.2418   64.3686 H   0  0  0  0  0  0
    9.9056   31.1232   63.2161 H   0  0  0  0  0  0
    5.5516   29.3542   62.1286 H   0  0  0  0  0  0
    8.5040   29.9202   57.9555 H   0  0  0  0  0  0
    7.0362   30.8012   57.6281 H   0  0  0  0  0  0
    9.1155   31.3305   59.5854 H   0  0  0  0  0  0
    6.7530   31.3884   61.3599 H   0  0  0  0  0  0
    8.1492   30.3467   61.4903 H   0  0  0  0  0  0
    7.1785   27.9220   63.0273 H   0  0  0  0  0  0
    7.7040   27.3812   61.4382 H   0  0  0  0  0  0
    6.4357   25.4492   62.3227 H   0  0  0  0  0  0
    4.1994   28.2373   60.0232 H   0  0  0  0  0  0
    6.0557   26.3257   59.9115 H   0  0  0  0  0  0
    4.5442   25.6561   60.5185 H   0  0  0  0  0  0
    4.9345   27.0751   63.9354 H   0  0  0  0  0  0
    4.1304   25.7019   63.1792 H   0  0  0  0  0  0
    2.8856   27.0896   61.7912 H   0  0  0  0  0  0
    3.5324   28.4952   62.6212 H   0  0  0  0  0  0
    7.8298   34.7114   59.4063 H   0  0  0  0  0  0
  1  2  2  0  0  0
  1  6  1  0  0  0
  1 27  1  0  0  0
  2  3  1  0  0  0
  2 29  1  0  0  0
  3  4  2  0  0  0
  3  7  1  0  0  0
  4  5  1  0  0  0
  4 30  1  0  0  0
  5  6  2  0  0  0
  5 31  1  0  0  0
  6 32  1  0  0  0
  7  8  2  0  0  0
  7 12  1  0  0  0
  8  9  1  0  0  0
  8 33  1  0  0  0
  9 10  2  0  0  0
  9 34  1  0  0  0
 10 11  1  0  0  0
 10 35  1  0  0  0
 11 12  2  0  0  0
 11 36  1  0  0  0
 12 37  1  0  0  0
 13 14  1  0  0  0
 13 20  1  0  0  0
 13 22  1  0  0  0
 13 38  1  0  0  0
 14 18  1  0  0  0
 14 15  1  0  0  0
 15 16  1  0  0  0
 15 19  2  0  0  0
 16 17  1  0  0  0
 16 39  1  0  0  0
 16 40  1  0  0  0
 17 18  1  0  0  0
 17 26  1  0  0  0
 17 41  1  0  0  0
 18 42  1  0  0  0
 18 43  1  0  0  0
 20 21  1  0  0  0
 20 44  1  0  0  0
 20 45  1  0  0  0
 21 23  1  0  0  0
 21 24  1  0  0  0
 21 46  1  0  0  0
 22 23  1  0  0  0
 22 25  1  0  0  0
 22 47  1  0  0  0
 23 48  1  0  0  0
 23 49  1  0  0  0
 24 25  1  0  0  0
 24 50  1  0  0  0
 24 51  1  0  0  0
 25 52  1  0  0  0
 25 53  1  0  0  0
 26 27  1  0  0  0
 26 28  2  0  0  0
 27 54  1  0  0  0
M  END
> <s_m_entry_id>
8274

> <s_m_entry_name>
dock_pv.69

> <s_m_Source_Path>
/home/csk/Desktop/cluster/DUD-E-result/inha

> <s_m_Source_File>
dock_pv.maegz

> <i_m_Source_File_Index>
69

> <chembl_id>
CHEMBL217852

> <chembl_pref_name>
None

> <i_lp_mmshare_version>
53161

> <r_lp_tautomer_probability>
1

> <s_lp_Force_Field>
OPLS_2005

> <r_lp_Energy>
76.844479

> <b_lp_Chiralities_Consistent>
1

> <s_lp_Variant>
CHEMBL1849_lig36-5

> <s_i_glide_gridfile>
glide-grid_2h7l

> <i_i_glide_lignum>
70

> <i_i_glide_rotatable_bonds>
5

> <r_i_docking_score>
-7.53243999242458

> <r_i_glide_ligand_efficiency>
-0.269015714015163

> <r_i_glide_ligand_efficiency_sa>
-0.816890149532354

> <r_i_glide_ligand_efficiency_ln>
-1.73870831229986

> <r_i_glide_gscore>
-7.53243999242458

> <r_i_glide_lipo>
-4.7771486277811

> <r_i_glide_hbond>
0

> <r_i_glide_metal>
0

> <r_i_glide_rewards>
-1.23165334365899

> <r_i_glide_evdw>
-39.5722923278809

> <r_i_glide_ecoul>
-1.56311619281769

> <r_i_glide_erotb>
0.689444024332202

> <r_i_glide_esite>
0

> <r_i_glide_emodel>
-49.1782902705029

> <r_i_glide_energy>
-41.1354085206985

> <r_i_glide_einternal>
7.77310085296631

> <i_i_glide_confnum>
43

> <i_i_glide_posenum>
88

> <r_i_glide_eff_state_penalty>
0

> <s_user_duplicate_titles>
CHEMBL1849_lig36

> <i_f3d_flags>
0

> <s_m_subgroup_title>
dock_pv

> <s_m_subgroupid>
dock_pv

> <b_m_subgroup_collapsed>
0

$$$$
CHEMBL1849_lig32
                    3D
 Schrodinger Suite 2021-1.
 54 58  0  0  1  0            999 V2000
    5.4759   25.7886   61.8522 C   0  0  0  0  0  0
    4.2893   23.6172   63.1931 C   0  0  0  0  0  0
    5.3495   24.5336   61.2279 C   0  0  0  0  0  0
    4.7634   23.4585   61.8937 C   0  0  0  0  0  0
    4.4236   24.8503   63.8290 C   0  0  0  0  0  0
    5.0312   25.9256   63.1750 C   0  0  0  0  0  0
    5.0563   27.1318   64.0931 C   0  0  0  0  0  0
    3.9924   25.2879   65.1665 C   0  0  0  0  0  0
    4.3581   26.6233   65.3323 C   0  0  0  0  0  0
    4.0466   27.2886   66.5187 C   0  0  0  0  0  0
    3.3564   26.6137   67.5294 C   0  0  0  0  0  0
    2.9956   25.2756   67.3639 C   0  0  0  0  0  0
    3.3145   24.6089   66.1812 C   0  0  0  0  0  0
    5.9691   30.6275   58.3252 C   0  0  0  0  0  0
    6.0122   29.1219   58.1617 C   0  0  0  0  0  0
    6.6427   28.5528   59.4253 C   0  0  1  0  0  0
    6.4630   29.6563   60.4438 C   0  0  0  0  0  0
    6.2481   30.8656   59.6353 N   0  0  0  0  0  0
    6.0682   32.1622   60.3217 C   0  0  0  0  0  0
    7.0642   32.3220   61.4927 C   0  0  0  0  0  0
    8.5287   32.4197   60.9951 C   0  0  0  0  0  0
    8.6995   33.6169   60.0383 C   0  0  0  0  0  0
    7.6704   33.5747   58.8962 C   0  0  0  0  0  0
    6.2396   33.4494   59.4723 C   0  0  0  0  0  0
    6.0606   27.1966   59.8866 C   0  0  0  0  0  0
    6.0239   26.9207   61.2106 N   0  0  0  0  0  0
    5.6756   26.4173   59.0205 O   0  0  0  0  0  0
    5.7026   31.4123   57.4155 O   0  0  0  0  0  0
    3.8210   22.7818   63.6923 H   0  0  0  0  0  0
    5.7039   24.3642   60.2234 H   0  0  0  0  0  0
    4.6667   22.5050   61.3965 H   0  0  0  0  0  0
    4.5296   27.9813   63.6579 H   0  0  0  0  0  0
    6.0705   27.4709   64.3068 H   0  0  0  0  0  0
    4.3257   28.3215   66.6623 H   0  0  0  0  0  0
    3.1015   27.1220   68.4460 H   0  0  0  0  0  0
    2.4635   24.7588   68.1497 H   0  0  0  0  0  0
    3.0264   23.5751   66.0604 H   0  0  0  0  0  0
    6.6427   28.9299   57.2933 H   0  0  0  0  0  0
    5.0116   28.7280   57.9748 H   0  0  0  0  0  0
    7.7039   28.3536   59.2779 H   0  0  0  0  0  0
    5.5465   29.5428   61.0290 H   0  0  0  0  0  0
    7.3311   29.7355   61.1004 H   0  0  0  0  0  0
    5.0492   32.1525   60.7148 H   0  0  0  0  0  0
    6.8103   33.2331   62.0278 H   0  0  0  0  0  0
    6.9492   31.5377   62.2413 H   0  0  0  0  0  0
    9.2112   32.5151   61.8400 H   0  0  0  0  0  0
    8.8152   31.5092   60.4745 H   0  0  0  0  0  0
    8.5817   34.5452   60.5990 H   0  0  0  0  0  0
    9.7041   33.6458   59.6285 H   0  0  0  0  0  0
    7.7629   34.4678   58.2826 H   0  0  0  0  0  0
    7.8979   32.7402   58.2322 H   0  0  0  0  0  0
    5.4792   33.4926   58.6966 H   0  0  0  0  0  0
    6.0238   34.3225   60.0882 H   0  0  0  0  0  0
    6.3410   27.6471   61.8321 H   0  0  0  0  0  0
  1  3  2  0  0  0
  1  6  1  0  0  0
  1 26  1  0  0  0
  2  5  1  0  0  0
  2  4  2  0  0  0
  2 29  1  0  0  0
  3  4  1  0  0  0
  3 30  1  0  0  0
  4 31  1  0  0  0
  5  8  1  0  0  0
  5  6  2  0  0  0
  6  7  1  0  0  0
  7  9  1  0  0  0
  7 32  1  0  0  0
  7 33  1  0  0  0
  8 13  2  0  0  0
  8  9  1  0  0  0
  9 10  2  0  0  0
 10 11  1  0  0  0
 10 34  1  0  0  0
 11 12  2  0  0  0
 11 35  1  0  0  0
 12 13  1  0  0  0
 12 36  1  0  0  0
 13 37  1  0  0  0
 14 15  1  0  0  0
 14 18  1  0  0  0
 14 28  2  0  0  0
 15 16  1  0  0  0
 15 38  1  0  0  0
 15 39  1  0  0  0
 16 17  1  0  0  0
 16 25  1  0  0  0
 16 40  1  0  0  0
 17 18  1  0  0  0
 17 41  1  0  0  0
 17 42  1  0  0  0
 18 19  1  0  0  0
 19 20  1  0  0  0
 19 24  1  0  0  0
 19 43  1  0  0  0
 20 21  1  0  0  0
 20 44  1  0  0  0
 20 45  1  0  0  0
 21 22  1  0  0  0
 21 46  1  0  0  0
 21 47  1  0  0  0
 22 23  1  0  0  0
 22 48  1  0  0  0
 22 49  1  0  0  0
 23 24  1  0  0  0
 23 50  1  0  0  0
 23 51  1  0  0  0
 24 52  1  0  0  0
 24 53  1  0  0  0
 25 26  1  0  0  0
 25 27  2  0  0  0
 26 54  1  0  0  0
M  END
> <s_m_entry_id>
8275

> <s_m_entry_name>
dock_pv.70

> <s_m_Source_Path>
/home/csk/Desktop/cluster/DUD-E-result/inha

> <s_m_Source_File>
dock_pv.maegz

> <i_m_Source_File_Index>
70

> <chembl_id>
CHEMBL386655

> <chembl_pref_name>
None

> <i_lp_mmshare_version>
53161

> <r_lp_tautomer_probability>
1

> <s_lp_Force_Field>
OPLS_2005

> <r_lp_Energy>
51.360696

> <b_lp_Chiralities_Consistent>
1

> <s_lp_Variant>
CHEMBL1849_lig32-2

> <s_i_glide_gridfile>
glide-grid_2h7l

> <i_i_glide_lignum>
59

> <i_i_glide_rotatable_bonds>
4

> <r_i_docking_score>
-7.4865995306931

> <r_i_glide_ligand_efficiency>
-0.267378554667611

> <r_i_glide_ligand_efficiency_sa>
-0.811918769517895

> <r_i_glide_ligand_efficiency_ln>
-1.7281269877978

> <r_i_glide_gscore>
-7.4865995306931

> <r_i_glide_lipo>
-3.20521269319608

> <r_i_glide_hbond>
-0.32

> <r_i_glide_metal>
0

> <r_i_glide_rewards>
-1.7329973271578

> <r_i_glide_evdw>
-38.2642211914062

> <r_i_glide_ecoul>
-5.7782244682312

> <r_i_glide_erotb>
0.551555219465761

> <r_i_glide_esite>
0

> <r_i_glide_emodel>
-57.3232185099127

> <r_i_glide_energy>
-44.0424456596375

> <r_i_glide_einternal>
13.3043069839478

> <i_i_glide_confnum>
33

> <i_i_glide_posenum>
151

> <r_i_glide_eff_state_penalty>
0

> <s_user_duplicate_titles>
CHEMBL1849_lig32

> <i_f3d_flags>
0

> <s_m_subgroup_title>
dock_pv

> <s_m_subgroupid>
dock_pv

> <b_m_subgroup_collapsed>
0

$$$$
CHEMBL1849_lig18
                    3D
 Schrodinger Suite 2021-1.
 49 51  0  0  1  0            999 V2000
    5.6494   27.7566   59.4912 C   0  0  0  0  0  0
    5.9181   29.0915   58.7995 C   0  0  0  0  0  0
    6.1113   30.0999   59.9203 C   0  0  1  0  0  0
    6.4513   29.2363   61.1325 C   0  0  0  0  0  0
    5.8731   27.9207   60.8192 N   0  0  0  0  0  0
    5.9628   26.7360   61.7138 C   0  0  0  0  0  0
    6.2730   27.0765   63.1927 C   0  0  0  0  0  0
    5.0975   27.7433   63.9435 C   0  0  0  0  0  0
    3.8057   26.9097   63.8555 C   0  0  0  0  0  0
    3.4854   26.5042   62.4039 C   0  0  0  0  0  0
    4.7010   25.8193   61.7485 C   0  0  0  0  0  0
    7.1457   31.2132   59.6188 C   0  0  0  0  0  0
    7.2418   31.6481   58.4683 O   0  0  0  0  0  0
    8.8753   32.6559   60.6673 C   0  0  0  0  0  0
    5.3516   26.7217   58.8982 O   0  0  0  0  0  0
    8.9037   33.7507   59.7872 C   0  0  0  0  0  0
    9.9431   34.6833   59.8662 C   0  0  0  0  0  0
   10.9258   34.5557   60.8481 C   0  0  0  0  0  0
   10.9040   33.4701   61.7252 C   0  0  0  0  0  0
    9.8837   32.5228   61.6280 C   0  0  0  0  0  0
   10.0757   35.7791   58.8383 C   0  0  0  0  0  0
   12.0040   33.2925   62.7563 C   0  0  0  0  0  0
    7.8758   31.6680   60.6611 N   0  0  0  0  0  0
    5.0142   29.3152   58.2326 H   0  0  0  0  0  0
    6.7481   29.0244   58.0956 H   0  0  0  0  0  0
    5.1869   30.6470   60.1130 H   0  0  0  0  0  0
    7.5263   29.0538   61.2057 H   0  0  0  0  0  0
    6.0818   29.6632   62.0662 H   0  0  0  0  0  0
    6.8002   26.1496   61.3291 H   0  0  0  0  0  0
    6.5246   26.1552   63.7175 H   0  0  0  0  0  0
    7.1613   27.7055   63.2289 H   0  0  0  0  0  0
    5.3674   27.9111   64.9869 H   0  0  0  0  0  0
    4.8996   28.7233   63.5201 H   0  0  0  0  0  0
    3.9160   26.0106   64.4639 H   0  0  0  0  0  0
    2.9699   27.4642   64.2832 H   0  0  0  0  0  0
    2.6227   25.8369   62.3845 H   0  0  0  0  0  0
    3.2029   27.3856   61.8251 H   0  0  0  0  0  0
    4.4343   25.4547   60.7589 H   0  0  0  0  0  0
    4.9376   24.9119   62.3055 H   0  0  0  0  0  0
    8.1442   33.8707   59.0287 H   0  0  0  0  0  0
   11.7299   35.2767   60.9000 H   0  0  0  0  0  0
    9.8725   31.6909   62.3158 H   0  0  0  0  0  0
    9.1867   35.9129   58.2255 H   0  0  0  0  0  0
   10.9036   35.5218   58.1836 H   0  0  0  0  0  0
   10.2941   36.7272   59.3273 H   0  0  0  0  0  0
   12.3471   32.2560   62.7668 H   0  0  0  0  0  0
   12.8736   33.9180   62.5384 H   0  0  0  0  0  0
   11.6366   33.5218   63.7567 H   0  0  0  0  0  0
    7.7535   31.1918   61.5405 H   0  0  0  0  0  0
  1  2  1  0  0  0
  1  5  1  0  0  0
  1 15  2  0  0  0
  2  3  1  0  0  0
  2 24  1  0  0  0
  2 25  1  0  0  0
  3  4  1  0  0  0
  3 12  1  0  0  0
  3 26  1  0  0  0
  4  5  1  0  0  0
  4 27  1  0  0  0
  4 28  1  0  0  0
  5  6  1  0  0  0
  6  7  1  0  0  0
  6 11  1  0  0  0
  6 29  1  0  0  0
  7  8  1  0  0  0
  7 30  1  0  0  0
  7 31  1  0  0  0
  8  9  1  0  0  0
  8 32  1  0  0  0
  8 33  1  0  0  0
  9 10  1  0  0  0
  9 34  1  0  0  0
  9 35  1  0  0  0
 10 11  1  0  0  0
 10 36  1  0  0  0
 10 37  1  0  0  0
 11 38  1  0  0  0
 11 39  1  0  0  0
 12 13  2  0  0  0
 12 23  1  0  0  0
 14 16  2  0  0  0
 14 20  1  0  0  0
 14 23  1  0  0  0
 16 17  1  0  0  0
 16 40  1  0  0  0
 17 18  2  0  0  0
 17 21  1  0  0  0
 18 19  1  0  0  0
 18 41  1  0  0  0
 19 20  2  0  0  0
 19 22  1  0  0  0
 20 42  1  0  0  0
 21 43  1  0  0  0
 21 44  1  0  0  0
 21 45  1  0  0  0
 22 46  1  0  0  0
 22 47  1  0  0  0
 22 48  1  0  0  0
 23 49  1  0  0  0
M  END
> <s_m_entry_id>
8276

> <s_m_entry_name>
dock_pv.71

> <s_m_Source_Path>
/home/csk/Desktop/cluster/DUD-E-result/inha

> <s_m_Source_File>
dock_pv.maegz

> <i_m_Source_File_Index>
71

> <chembl_id>
CHEMBL387186

> <chembl_pref_name>
None

> <i_lp_mmshare_version>
53161

> <r_lp_tautomer_probability>
1

> <s_lp_Force_Field>
OPLS_2005

> <r_lp_Energy>
32.953297

> <b_lp_Chiralities_Consistent>
1

> <s_lp_Variant>
CHEMBL1849_lig18-2

> <s_i_glide_gridfile>
glide-grid_2h7l

> <i_i_glide_lignum>
25

> <i_i_glide_rotatable_bonds>
4

> <r_i_docking_score>
-7.47788055178439

> <r_i_glide_ligand_efficiency>
-0.32512524138193

> <r_i_glide_ligand_efficiency_sa>
-0.924612937315968

> <r_i_glide_ligand_efficiency_ln>
-1.80821932309348

> <r_i_glide_gscore>
-7.47788055178439

> <r_i_glide_lipo>
-2.98022889230507

> <r_i_glide_hbond>
-0.32

> <r_i_glide_metal>
0

> <r_i_glide_rewards>
-2.97986899463974

> <r_i_glide_evdw>
-28.5474624633789

> <r_i_glide_ecoul>
-3.48333811759949

> <r_i_glide_erotb>
0.752091175969292

> <r_i_glide_esite>
0

> <r_i_glide_emodel>
-45.0132892709425

> <r_i_glide_energy>
-32.0308005809784

> <r_i_glide_einternal>
3.71176338195801

> <i_i_glide_confnum>
25

> <i_i_glide_posenum>
266

> <r_i_glide_eff_state_penalty>
0

> <s_user_duplicate_titles>
CHEMBL1849_lig18

> <i_f3d_flags>
0

> <s_m_subgroup_title>
dock_pv

> <s_m_subgroupid>
dock_pv

> <b_m_subgroup_collapsed>
0

$$$$
CHEMBL1849_lig208 
                    3D
 Schrodinger Suite 2021-1.
 39 40  0  0  1  0            999 V2000
    5.3063   31.9220   57.3750 O   0  0  0  0  0  0
    5.9968   30.8073   58.0280 S   0  0  0  0  0  0
    6.5042   29.6905   57.2279 O   0  0  0  0  0  0
   10.4472   33.2288   61.6280 C   0  0  0  0  0  0
   10.9777   34.4506   61.1949 C   0  0  0  0  0  0
   10.4105   35.1217   60.1112 C   0  0  0  0  0  0
    9.3115   34.5772   59.4455 C   0  0  0  0  0  0
    8.7566   33.3614   59.8580 C   0  0  0  0  0  0
    9.3250   32.7093   60.9649 C   0  0  0  0  0  0
    7.6412   32.7736   59.0787 C   0  0  0  0  0  0
    7.3626   31.4562   59.0006 C   0  0  0  0  0  0
    4.8588   30.1378   59.2057 N   0  0  0  0  0  0
   11.0393   32.4942   62.8353 C   0  0  0  0  0  0
   10.1039   31.9218   63.5897 F   0  0  0  0  0  0
   11.8359   31.5224   62.4282 F   0  0  0  0  0  0
   11.7622   33.3112   63.5970 F   0  0  0  0  0  0
    5.0298   28.9162   59.8753 C   0  0  0  0  0  0
    6.2507   28.2306   59.8958 C   0  0  0  0  0  0
    6.3788   27.0495   60.6163 C   0  0  0  0  0  0
    5.2860   26.5318   61.3105 C   0  0  0  0  0  0
    4.0624   27.2041   61.2858 C   0  0  0  0  0  0
    3.9382   28.3956   60.5735 C   0  0  0  0  0  0
    5.4403   25.2413   62.0953 C   0  0  0  0  0  0
    5.3051   24.0913   61.2204 N   0  0  0  0  0  0
   11.8330   34.8861   61.6913 H   0  0  0  0  0  0
   10.8302   36.0613   59.7811 H   0  0  0  0  0  0
    8.9053   35.1025   58.5935 H   0  0  0  0  0  0
    8.9026   31.7794   61.3165 H   0  0  0  0  0  0
    7.0111   33.4743   58.5488 H   0  0  0  0  0  0
    7.9518   30.7094   59.5080 H   0  0  0  0  0  0
    4.0134   30.6635   59.3708 H   0  0  0  0  0  0
    7.1196   28.5944   59.3720 H   0  0  0  0  0  0
    7.3285   26.5339   60.6281 H   0  0  0  0  0  0
    3.2109   26.8075   61.8192 H   0  0  0  0  0  0
    2.9890   28.9124   60.5674 H   0  0  0  0  0  0
    6.4168   25.2189   62.5836 H   0  0  0  0  0  0
    4.6888   25.1889   62.8848 H   0  0  0  0  0  0
    6.0793   24.0930   60.5652 H   0  0  0  0  0  0
    5.3895   23.2404   61.7556 H   0  0  0  0  0  0
  1  2  2  0  0  0
  2  3  2  0  0  0
  2 11  1  0  0  0
  2 12  1  0  0  0
  4  5  2  0  0  0
  4  9  1  0  0  0
  4 13  1  0  0  0
  5  6  1  0  0  0
  5 25  1  0  0  0
  6  7  2  0  0  0
  6 26  1  0  0  0
  7  8  1  0  0  0
  7 27  1  0  0  0
  8  9  2  0  0  0
  8 10  1  0  0  0
  9 28  1  0  0  0
 10 11  2  0  0  0
 10 29  1  0  0  0
 11 30  1  0  0  0
 12 17  1  0  0  0
 12 31  1  0  0  0
 13 14  1  0  0  0
 13 15  1  0  0  0
 13 16  1  0  0  0
 17 18  2  0  0  0
 17 22  1  0  0  0
 18 19  1  0  0  0
 18 32  1  0  0  0
 19 20  2  0  0  0
 19 33  1  0  0  0
 20 21  1  0  0  0
 20 23  1  0  0  0
 21 22  2  0  0  0
 21 34  1  0  0  0
 22 35  1  0  0  0
 23 24  1  0  0  0
 23 36  1  0  0  0
 23 37  1  0  0  0
 24 38  1  0  0  0
 24 39  1  0  0  0
M  END
> <s_m_entry_id>
8277

> <s_m_entry_name>
dock_pv.72

> <s_m_Source_Path>
/home/csk/Desktop/cluster/DUD-E-result/inha

> <s_m_Source_File>
dock_pv.maegz

> <i_m_Source_File_Index>
72

> <chembl_id>
CHEMBL4473331

> <chembl_pref_name>
None

> <i_lp_mmshare_version>
53161

> <r_lp_tautomer_probability>
1

> <s_lp_Force_Field>
OPLS_2005

> <r_lp_Energy>
5.351327

> <b_lp_Chiralities_Consistent>
1

> <s_lp_Variant>
CHEMBL1849_lig208 -1

> <s_i_glide_gridfile>
glide-grid_2h7l

> <i_i_glide_lignum>
277

> <i_i_glide_rotatable_bonds>
6

> <r_i_docking_score>
-7.47599004934697

> <r_i_glide_ligand_efficiency>
-0.311499585389457

> <r_i_glide_ligand_efficiency_sa>
-0.898520285405912

> <r_i_glide_ligand_efficiency_ln>
-1.7893474696386

> <r_i_glide_gscore>
-7.47599004934697

> <r_i_glide_lipo>
-2.95139849819623

> <r_i_glide_hbond>
-0.204116997041852

> <r_i_glide_metal>
0

> <r_i_glide_rewards>
-2.52852339817452

> <r_i_glide_evdw>
-33.0802993774414

> <r_i_glide_ecoul>
-4.89665365219116

> <r_i_glide_erotb>
0.602589422700382

> <r_i_glide_esite>
-0.00602756193400871

> <r_i_glide_emodel>
-54.7616238204722

> <r_i_glide_energy>
-37.9769530296326

> <r_i_glide_einternal>
0.284474045038223

> <i_i_glide_confnum>
6

> <i_i_glide_posenum>
45

> <r_i_glide_eff_state_penalty>
0

> <s_user_duplicate_titles>
CHEMBL1849_lig208 

> <i_f3d_flags>
0

> <s_m_subgroup_title>
dock_pv

> <s_m_subgroupid>
dock_pv

> <b_m_subgroup_collapsed>
0

$$$$
CHEMBL1849_lig175
                    3D
 Schrodinger Suite 2021-1.
 32 34  0  0  1  0            999 V2000
   12.7691   32.9711   62.8278 C   0  0  0  0  0  0
   11.6548   32.1100   62.9176 C   0  0  0  0  0  0
   10.4833   32.3554   62.1971 C   0  0  0  0  0  0
   12.6755   34.1224   62.0209 C   0  0  0  0  0  0
   11.5136   34.3186   61.2764 C   0  0  0  0  0  0
   10.4464   33.4680   61.3568 C   0  0  0  0  0  0
    9.5032   33.9697   60.4778 N   0  0  0  0  0  0
   10.1037   34.9658   59.7074 C   0  0  0  0  0  0
   11.2859   35.2556   60.3201 O   0  0  0  0  0  0
    9.7040   35.5221   58.6885 O   0  0  0  0  0  0
    8.0989   33.5624   60.2776 C   0  0  0  0  0  0
    7.9525   32.1311   59.7330 C   0  0  0  0  0  0
    8.9040   31.5327   59.2297 O   0  0  0  0  0  0
    6.7177   31.6049   59.8718 N   0  0  0  0  0  0
    6.3734   30.2758   59.6657 C   0  0  0  0  0  0
    4.7468   29.8016   60.0387 S   0  0  0  0  0  0
    5.2328   28.1397   59.7973 C   0  0  0  0  0  0
    6.5716   28.1227   59.4045 C   0  0  0  0  0  0
    7.1738   29.2897   59.3234 N   0  0  0  0  0  0
    4.3747   27.0259   60.0282 N   0  3  0  0  0  0
    4.8992   25.9179   60.0298 O   0  0  0  0  0  0
    3.1808   27.2349   60.2163 O   0  5  0  0  0  0
   14.0332   32.6339   63.5278 N   0  3  0  0  0  0
   14.1255   31.5273   64.0516 O   0  0  0  0  0  0
   14.9348   33.4663   63.5395 O   0  5  0  0  0  0
   11.6990   31.2281   63.5420 H   0  0  0  0  0  0
    9.6378   31.6902   62.2944 H   0  0  0  0  0  0
   13.5157   34.7923   61.9092 H   0  0  0  0  0  0
    7.5948   34.2437   59.5904 H   0  0  0  0  0  0
    7.5789   33.6346   61.2319 H   0  0  0  0  0  0
    5.9822   32.2040   60.2161 H   0  0  0  0  0  0
    7.1487   27.2298   59.2080 H   0  0  0  0  0  0
  1  2  2  0  0  0
  1  4  1  0  0  0
  1 23  1  0  0  0
  2  3  1  0  0  0
  2 26  1  0  0  0
  3  6  2  0  0  0
  3 27  1  0  0  0
  4  5  2  0  0  0
  4 28  1  0  0  0
  5  6  1  0  0  0
  5  9  1  0  0  0
  6  7  1  0  0  0
  7  8  1  0  0  0
  7 11  1  0  0  0
  8  9  1  0  0  0
  8 10  2  0  0  0
 11 12  1  0  0  0
 11 29  1  0  0  0
 11 30  1  0  0  0
 12 13  2  0  0  0
 12 14  1  0  0  0
 14 15  1  0  0  0
 14 31  1  0  0  0
 15 16  1  0  0  0
 15 19  2  0  0  0
 16 17  1  0  0  0
 17 18  2  0  0  0
 17 20  1  0  0  0
 18 19  1  0  0  0
 18 32  1  0  0  0
 20 21  2  0  0  0
 20 22  1  0  0  0
 23 24  2  0  0  0
 23 25  1  0  0  0
M  CHG  4  20   1  22  -1  23   1  25  -1
M  END
> <s_m_entry_id>
8278

> <s_m_entry_name>
dock_pv.73

> <s_m_Source_Path>
/home/csk/Desktop/cluster/DUD-E-result/inha

> <s_m_Source_File>
dock_pv.maegz

> <i_m_Source_File_Index>
73

> <chembl_id>
CHEMBL3343866

> <chembl_pref_name>
None

> <i_lp_mmshare_version>
53161

> <r_lp_tautomer_probability>
0.999000488399163

> <s_lp_Force_Field>
OPLS_2005

> <r_lp_Energy>
23.054154

> <b_lp_Chiralities_Consistent>
1

> <s_lp_Variant>
CHEMBL1849_lig175-1

> <s_i_glide_gridfile>
glide-grid_2h7l

> <i_i_glide_lignum>
242

> <i_i_glide_rotatable_bonds>
6

> <r_i_docking_score>
-7.46691637343727

> <r_i_glide_ligand_efficiency>
-0.298676654937491

> <r_i_glide_ligand_efficiency_sa>
-0.873335836090254

> <r_i_glide_ligand_efficiency_ln>
-1.76988294593158

> <r_i_glide_gscore>
-7.46691637343727

> <r_i_glide_lipo>
-2.9234958248762

> <r_i_glide_hbond>
0

> <r_i_glide_metal>
0

> <r_i_glide_rewards>
-2.92499452353914

> <r_i_glide_evdw>
-44.1303100585938

> <r_i_glide_ecoul>
0.0764842256903648

> <r_i_glide_erotb>
0.576616844054207

> <r_i_glide_esite>
0

> <r_i_glide_emodel>
-61.8481331784471

> <r_i_glide_energy>
-44.0538258329034

> <r_i_glide_einternal>
3.53429746627808

> <i_i_glide_confnum>
2

> <i_i_glide_posenum>
91

> <r_i_glide_eff_state_penalty>
0

> <s_user_duplicate_titles>
CHEMBL1849_lig175

> <i_f3d_flags>
0

> <s_m_subgroup_title>
dock_pv

> <s_m_subgroupid>
dock_pv

> <b_m_subgroup_collapsed>
0

$$$$
CHEMBL1849_lig103
                    3D
 Schrodinger Suite 2021-1.
 50 53  0  0  1  0            999 V2000
    2.9040   30.8483   60.7683 N   0  0  0  0  0  0
    5.3725   26.1941   61.0781 C   0  0  2  0  0  0
    6.8648   26.5775   61.2302 C   0  0  0  0  0  0
    5.3040   25.5220   59.8380 O   0  0  0  0  0  0
    3.2886   29.5321   60.8272 C   0  0  0  0  0  0
    4.8965   29.0505   61.2982 S   0  0  0  0  0  0
    4.4337   27.3993   60.9854 C   0  0  0  0  0  0
    3.1701   27.3052   60.6205 N   0  0  0  0  0  0
    2.5116   28.5255   60.5299 N   0  0  0  0  0  0
    4.9344   25.2623   62.2148 C   0  0  0  0  0  0
    4.3741   23.6191   62.0210 S   0  0  0  0  0  0
    4.1040   23.5383   63.7297 C   0  0  0  0  0  0
    4.5026   24.7347   64.3133 C   0  0  0  0  0  0
    4.9433   25.6508   63.4715 N   0  0  0  0  0  0
    4.4884   25.1129   65.7769 C   0  0  0  0  0  0
    3.7949   32.0010   60.8280 C   0  0  0  0  0  0
    4.4521   32.3579   59.4808 C   0  0  1  0  0  0
    5.5975   33.3431   59.6138 C   0  0  0  0  0  0
    6.6312   32.7443   58.8013 N   0  0  0  0  0  0
    6.2830   31.4590   58.3990 C   0  0  0  0  0  0
    5.0500   31.2315   58.8694 O   0  0  0  0  0  0
    6.9040   30.6280   57.7404 O   0  0  0  0  0  0
    7.9273   33.3575   58.5029 C   0  0  0  0  0  0
    8.9005   33.5520   59.6676 C   0  0  0  0  0  0
    9.0411   32.5993   60.6899 C   0  0  0  0  0  0
   10.0681   32.7227   61.6280 C   0  0  0  0  0  0
   10.9041   33.8389   61.6162 C   0  0  0  0  0  0
   10.7405   34.8125   60.6320 C   0  0  0  0  0  0
    9.7627   34.6583   59.6490 C   0  0  0  0  0  0
    8.2269   31.5220   60.7563 F   0  0  0  0  0  0
    9.7040   35.5522   58.6373 F   0  0  0  0  0  0
    2.0066   31.0826   60.3322 H   0  0  0  0  0  0
    7.0459   27.1296   62.1531 H   0  0  0  0  0  0
    7.5092   25.6975   61.2591 H   0  0  0  0  0  0
    7.2107   27.2032   60.4053 H   0  0  0  0  0  0
    6.1480   25.0616   59.7097 H   0  0  0  0  0  0
    3.7039   22.6497   64.1965 H   0  0  0  0  0  0
    4.0705   24.3220   66.4001 H   0  0  0  0  0  0
    3.8870   26.0047   65.9582 H   0  0  0  0  0  0
    5.4908   25.3200   66.1544 H   0  0  0  0  0  0
    3.2262   32.8550   61.1978 H   0  0  0  0  0  0
    4.5641   31.8188   61.5794 H   0  0  0  0  0  0
    3.7056   32.7407   58.7843 H   0  0  0  0  0  0
    5.3266   34.3220   59.2280 H   0  0  0  0  0  0
    5.9745   33.4417   60.6330 H   0  0  0  0  0  0
    8.4512   32.7733   57.7437 H   0  0  0  0  0  0
    7.7209   34.3227   58.0435 H   0  0  0  0  0  0
   10.1843   31.9713   62.3949 H   0  0  0  0  0  0
   11.6773   33.9461   62.3629 H   0  0  0  0  0  0
   11.3980   35.6694   60.6008 H   0  0  0  0  0  0
  1  5  1  0  0  0
  1 16  1  0  0  0
  1 32  1  0  0  0
  2  3  1  0  0  0
  2  4  1  0  0  0
  2  7  1  0  0  0
  2 10  1  0  0  0
  3 33  1  0  0  0
  3 34  1  0  0  0
  3 35  1  0  0  0
  4 36  1  0  0  0
  5  6  1  0  0  0
  5  9  2  0  0  0
  6  7  1  0  0  0
  7  8  2  0  0  0
  8  9  1  0  0  0
 10 11  1  0  0  0
 10 14  2  0  0  0
 11 12  1  0  0  0
 12 13  2  0  0  0
 12 37  1  0  0  0
 13 14  1  0  0  0
 13 15  1  0  0  0
 15 38  1  0  0  0
 15 39  1  0  0  0
 15 40  1  0  0  0
 16 17  1  0  0  0
 16 41  1  0  0  0
 16 42  1  0  0  0
 17 18  1  0  0  0
 17 21  1  0  0  0
 17 43  1  0  0  0
 18 19  1  0  0  0
 18 44  1  0  0  0
 18 45  1  0  0  0
 19 20  1  0  0  0
 19 23  1  0  0  0
 20 21  1  0  0  0
 20 22  2  0  0  0
 23 24  1  0  0  0
 23 46  1  0  0  0
 23 47  1  0  0  0
 24 25  2  0  0  0
 24 29  1  0  0  0
 25 26  1  0  0  0
 25 30  1  0  0  0
 26 27  2  0  0  0
 26 48  1  0  0  0
 27 28  1  0  0  0
 27 49  1  0  0  0
 28 29  2  0  0  0
 28 50  1  0  0  0
 29 31  1  0  0  0
M  END
> <s_m_entry_id>
8279

> <s_m_entry_name>
dock_pv.74

> <s_m_Source_Path>
/home/csk/Desktop/cluster/DUD-E-result/inha

> <s_m_Source_File>
dock_pv.maegz

> <i_m_Source_File_Index>
74

> <chembl_id>
CHEMBL3087016

> <chembl_pref_name>
None

> <i_lp_mmshare_version>
53161

> <r_lp_tautomer_probability>
1

> <s_lp_Force_Field>
OPLS_2005

> <r_lp_Energy>
6.03471

> <b_lp_Chiralities_Consistent>
1

> <s_lp_Variant>
CHEMBL1849_lig103-3

> <s_i_glide_gridfile>
glide-grid_2h7l

> <i_i_glide_lignum>
155

> <i_i_glide_rotatable_bonds>
8

> <r_i_docking_score>
-7.44402618107982

> <r_i_glide_ligand_efficiency>
-0.240129876809026

> <r_i_glide_ligand_efficiency_sa>
-0.75433934820554

> <r_i_glide_ligand_efficiency_ln>
-1.67885603583833

> <r_i_glide_gscore>
-7.44402618107982

> <r_i_glide_lipo>
-2.35120489353507

> <r_i_glide_hbond>
-0.456

> <r_i_glide_metal>
0

> <r_i_glide_rewards>
-1.72950930174996

> <r_i_glide_evdw>
-40.3899879455566

> <r_i_glide_ecoul>
-9.53843688964844

> <r_i_glide_erotb>
0.646385783112107

> <r_i_glide_esite>
-0.103432838181803

> <r_i_glide_emodel>
-69.9787948213521

> <r_i_glide_energy>
-49.9284248352051

> <r_i_glide_einternal>
6.19718980789185

> <i_i_glide_confnum>
103

> <i_i_glide_posenum>
140

> <r_i_glide_eff_state_penalty>
0

> <s_user_duplicate_titles>
CHEMBL1849_lig103

> <i_f3d_flags>
0

> <s_m_subgroup_title>
dock_pv

> <s_m_subgroupid>
dock_pv

> <b_m_subgroup_collapsed>
0

$$$$
CHEMBL1849_lig140
                    3D
 Schrodinger Suite 2021-1.
 62 66  0  0  1  0            999 V2000
    7.7700   31.5347   58.5254 C   0  0  0  0  0  0
    6.8890   30.9138   59.5240 N   0  0  0  0  0  0
    5.9846   31.9482   60.1164 C   0  0  1  0  0  0
    6.3362   33.2304   59.3364 C   0  0  0  0  0  0
    7.7702   33.0171   58.9027 C   0  0  1  0  0  0
    6.8151   29.5538   59.6102 C   0  0  0  0  0  0
    6.2445   28.9562   60.8000 C   0  0  0  0  0  0
    7.2399   28.8133   58.7214 O   0  0  0  0  0  0
    8.7023   33.3062   60.0010 N   0  0  0  0  0  0
    9.5792   34.3229   60.0375 C   0  0  0  0  0  0
   10.5271   34.2460   61.1225 C   0  0  0  0  0  0
    9.6571   35.1925   59.1704 O   0  0  0  0  0  0
   11.0603   33.1219   61.7366 C   0  0  0  0  0  0
   12.2054   33.5223   62.4290 C   0  0  0  0  0  0
   12.3094   34.8312   62.4070 N   0  0  0  0  0  0
   11.3040   35.2683   61.6279 N   0  0  0  0  0  0
   13.2783   32.6757   63.0946 C   0  0  0  0  0  0
   12.8651   31.2166   63.3564 C   0  0  0  0  0  0
   11.0974   36.7038   61.5048 C   0  0  0  0  0  0
    5.6066   28.7231   63.0033 O   0  0  0  0  0  0
    6.1031   29.5568   62.0505 C   0  0  0  0  0  0
    5.4372   27.5267   62.3933 C   0  0  0  0  0  0
    5.8171   27.5993   61.0336 C   0  0  0  0  0  0
    5.7032   26.4334   60.2651 C   0  0  0  0  0  0
    5.2669   25.2508   60.8712 C   0  0  0  0  0  0
    4.9007   25.2169   62.2164 C   0  0  0  0  0  0
    4.9700   26.3609   63.0104 C   0  0  0  0  0  0
    4.4478   31.7403   60.0269 C   0  0  0  0  0  0
    3.9707   30.9703   58.9810 N   0  0  0  0  0  0
    3.7072   32.3137   60.8279 O   0  0  0  0  0  0
    3.3027   29.9259   59.2818 C   0  0  0  0  0  0
    3.0891   29.4103   60.5375 O   0  0  0  0  0  0
    2.2007   28.4150   60.4122 C   0  0  0  0  0  0
    1.8489   28.2120   59.1425 C   0  0  0  0  0  0
    2.6178   29.0868   58.4293 N   0  0  0  0  0  0
    0.8698   27.2702   58.4790 C   0  0  0  0  0  0
    7.3063   31.3879   57.5491 H   0  0  0  0  0  0
    8.7718   31.1037   58.4878 H   0  0  0  0  0  0
    6.1969   32.1435   61.1650 H   0  0  0  0  0  0
    5.7212   33.3141   58.4367 H   0  0  0  0  0  0
    6.1580   34.1523   59.8951 H   0  0  0  0  0  0
    7.9840   33.6443   58.0333 H   0  0  0  0  0  0
    8.5902   32.7569   60.8401 H   0  0  0  0  0  0
   10.7410   32.1027   61.5995 H   0  0  0  0  0  0
   14.1617   32.6657   62.4573 H   0  0  0  0  0  0
   13.6107   33.1224   64.0280 H   0  0  0  0  0  0
   13.6442   30.6823   63.9013 H   0  0  0  0  0  0
   11.9440   31.1497   63.9329 H   0  0  0  0  0  0
   12.6957   30.6778   62.4281 H   0  0  0  0  0  0
   10.9981   36.9746   60.4549 H   0  0  0  0  0  0
   10.1763   36.9711   62.0275 H   0  0  0  0  0  0
   11.9231   37.2560   61.9538 H   0  0  0  0  0  0
    6.3392   30.5397   62.4297 H   0  0  0  0  0  0
    5.9858   26.4475   59.2281 H   0  0  0  0  0  0
    5.2276   24.3418   60.2884 H   0  0  0  0  0  0
    4.5650   24.2852   62.6498 H   0  0  0  0  0  0
    4.6984   26.3496   64.0551 H   0  0  0  0  0  0
    2.5862   29.1069   57.4183 H   0  0  0  0  0  0
    1.8812   27.9676   61.3410 H   0  0  0  0  0  0
    0.0006   27.8314   58.1334 H   0  0  0  0  0  0
    0.5243   26.5176   59.1904 H   0  0  0  0  0  0
    1.3039   26.7584   57.6236 H   0  0  0  0  0  0
  1  2  1  0  0  0
  1  5  1  0  0  0
  1 37  1  0  0  0
  1 38  1  0  0  0
  2  3  1  0  0  0
  2  6  1  0  0  0
  3  4  1  0  0  0
  3 39  1  0  0  0
  3 28  1  0  0  0
  4  5  1  0  0  0
  4 40  1  0  0  0
  4 41  1  0  0  0
  5  9  1  0  0  0
  5 42  1  0  0  0
  6  7  1  0  0  0
  6  8  2  0  0  0
  7 23  1  0  0  0
  7 21  2  0  0  0
  9 10  1  0  0  0
  9 43  1  0  0  0
 10 11  1  0  0  0
 10 12  2  0  0  0
 11 13  2  0  0  0
 11 16  1  0  0  0
 13 14  1  0  0  0
 13 44  1  0  0  0
 14 15  2  0  0  0
 14 17  1  0  0  0
 15 16  1  0  0  0
 16 19  1  0  0  0
 17 18  1  0  0  0
 17 45  1  0  0  0
 17 46  1  0  0  0
 18 47  1  0  0  0
 18 48  1  0  0  0
 18 49  1  0  0  0
 19 50  1  0  0  0
 19 51  1  0  0  0
 19 52  1  0  0  0
 20 22  1  0  0  0
 20 21  1  0  0  0
 21 53  1  0  0  0
 22 23  2  0  0  0
 22 27  1  0  0  0
 23 24  1  0  0  0
 24 25  2  0  0  0
 24 54  1  0  0  0
 25 26  1  0  0  0
 25 55  1  0  0  0
 26 27  2  0  0  0
 26 56  1  0  0  0
 27 57  1  0  0  0
 28 29  1  0  0  0
 28 30  2  0  0  0
 29 31  2  0  0  0
 31 32  1  0  0  0
 31 35  1  0  0  0
 32 33  1  0  0  0
 33 34  2  0  0  0
 33 59  1  0  0  0
 34 35  1  0  0  0
 34 36  1  0  0  0
 35 58  1  0  0  0
 36 60  1  0  0  0
 36 61  1  0  0  0
 36 62  1  0  0  0
M  END
> <s_m_entry_id>
8280

> <s_m_entry_name>
dock_pv.75

> <s_m_Source_Path>
/home/csk/Desktop/cluster/DUD-E-result/inha

> <s_m_Source_File>
dock_pv.maegz

> <i_m_Source_File_Index>
75

> <chembl_id>
CHEMBL3125251

> <chembl_pref_name>
None

> <i_lp_mmshare_version>
53161

> <r_lp_tautomer_probability>
0.107061388611451

> <s_lp_Force_Field>
OPLS_2005

> <r_lp_Energy>
43.277719

> <b_lp_Chiralities_Consistent>
1

> <s_lp_Variant>
CHEMBL1849_lig140-3

> <s_i_glide_gridfile>
glide-grid_2h7l

> <i_i_glide_lignum>
204

> <i_i_glide_rotatable_bonds>
8

> <r_i_docking_score>
-7.44145598959608

> <r_i_glide_ligand_efficiency>
-0.206707110822113

> <r_i_glide_ligand_efficiency_sa>
-0.682531840948529

> <r_i_glide_ligand_efficiency_ln>
-1.62352465202263

> <r_i_glide_gscore>
-7.44145598959608

> <r_i_glide_lipo>
-3.28506028798836

> <r_i_glide_hbond>
-0.317760875623395

> <r_i_glide_metal>
0

> <r_i_glide_rewards>
-1.65922721092237

> <r_i_glide_evdw>
-56.5738868713379

> <r_i_glide_ecoul>
0.381316721439362

> <r_i_glide_erotb>
0.592089220289034

> <r_i_glide_esite>
0

> <r_i_glide_emodel>
-67.182439605948

> <r_i_glide_energy>
-56.1925701498985

> <r_i_glide_einternal>
19.3372421264648

> <i_i_glide_confnum>
18

> <i_i_glide_posenum>
7

> <r_i_glide_eff_state_penalty>
0

> <s_user_duplicate_titles>
CHEMBL1849_lig140

> <i_f3d_flags>
0

> <s_m_subgroup_title>
dock_pv

> <s_m_subgroupid>
dock_pv

> <b_m_subgroup_collapsed>
0

$$$$
CHEMBL1849_lig211 
                    3D
 Schrodinger Suite 2021-1.
 35 37  0  0  1  0            999 V2000
    8.5170   34.5752   58.0286 O   0  0  0  0  0  0
    8.0684   33.7009   59.1141 S   0  0  0  0  0  0
    6.7990   33.9220   59.8114 O   0  0  0  0  0  0
    9.3768   33.7362   60.3568 C   0  0  0  0  0  0
    8.0829   32.0624   58.4275 N   0  0  0  0  0  0
    7.2252   31.0234   58.8125 C   0  0  0  0  0  0
    5.8593   31.2351   59.0231 C   0  0  0  0  0  0
    5.0098   30.1725   59.3460 C   0  0  0  0  0  0
    5.5252   28.8761   59.4194 C   0  0  0  0  0  0
    6.8793   28.6507   59.1796 C   0  0  0  0  0  0
    7.7187   29.7208   58.8724 C   0  0  0  0  0  0
    3.5303   30.4263   59.5712 C   0  0  0  0  0  0
    3.3040   31.3644   60.6557 N   0  0  0  0  0  0
    9.6761   32.7222   61.2395 C   0  0  0  0  0  0
   10.5029   35.0781   60.4301 S   0  0  0  0  0  0
   11.5052   34.1864   61.5567 C   0  0  0  0  0  0
   10.9040   32.9441   61.9288 C   0  0  0  0  0  0
   11.5959   32.1125   62.8277 C   0  0  0  0  0  0
   12.8839   32.4663   63.2281 C   0  0  0  0  0  0
   13.4587   33.6699   62.8350 C   0  0  0  0  0  0
   12.7687   34.5662   62.0274 C   0  0  0  0  0  0
    8.9370   31.8140   57.9540 H   0  0  0  0  0  0
    5.4309   32.2185   58.9124 H   0  0  0  0  0  0
    4.8792   28.0439   59.6579 H   0  0  0  0  0  0
    7.2823   27.6490   59.2324 H   0  0  0  0  0  0
    8.7633   29.5245   58.6824 H   0  0  0  0  0  0
    3.0080   29.4945   59.7880 H   0  0  0  0  0  0
    3.0952   30.8205   58.6532 H   0  0  0  0  0  0
    3.6823   32.2640   60.3922 H   0  0  0  0  0  0
    2.2985   31.5219   60.6687 H   0  0  0  0  0  0
    9.0748   31.8335   61.3530 H   0  0  0  0  0  0
   11.1707   31.1723   63.1444 H   0  0  0  0  0  0
   13.4418   31.8047   63.8761 H   0  0  0  0  0  0
   14.4516   33.9197   63.1818 H   0  0  0  0  0  0
   13.2175   35.5036   61.7302 H   0  0  0  0  0  0
  1  2  2  0  0  0
  2  3  2  0  0  0
  2  4  1  0  0  0
  2  5  1  0  0  0
  4 14  2  0  0  0
  4 15  1  0  0  0
  5  6  1  0  0  0
  5 22  1  0  0  0
  6  7  2  0  0  0
  6 11  1  0  0  0
  7  8  1  0  0  0
  7 23  1  0  0  0
  8  9  2  0  0  0
  8 12  1  0  0  0
  9 10  1  0  0  0
  9 24  1  0  0  0
 10 11  2  0  0  0
 10 25  1  0  0  0
 11 26  1  0  0  0
 12 13  1  0  0  0
 12 27  1  0  0  0
 12 28  1  0  0  0
 13 29  1  0  0  0
 13 30  1  0  0  0
 14 17  1  0  0  0
 14 31  1  0  0  0
 15 16  1  0  0  0
 16 17  2  0  0  0
 16 21  1  0  0  0
 17 18  1  0  0  0
 18 19  2  0  0  0
 18 32  1  0  0  0
 19 20  1  0  0  0
 19 33  1  0  0  0
 20 21  2  0  0  0
 20 34  1  0  0  0
 21 35  1  0  0  0
M  END
> <s_m_entry_id>
8281

> <s_m_entry_name>
dock_pv.76

> <s_m_Source_Path>
/home/csk/Desktop/cluster/DUD-E-result/inha

> <s_m_Source_File>
dock_pv.maegz

> <i_m_Source_File_Index>
76

> <chembl_id>
CHEMBL4439827

> <chembl_pref_name>
None

> <i_lp_mmshare_version>
53161

> <r_lp_tautomer_probability>
1

> <s_lp_Force_Field>
OPLS_2005

> <r_lp_Energy>
5.692824

> <b_lp_Chiralities_Consistent>
1

> <s_lp_Variant>
CHEMBL1849_lig211 -1

> <s_i_glide_gridfile>
glide-grid_2h7l

> <i_i_glide_lignum>
280

> <i_i_glide_rotatable_bonds>
4

> <r_i_docking_score>
-7.43576064177441

> <r_i_glide_ligand_efficiency>
-0.354083840084496

> <r_i_glide_ligand_efficiency_sa>
-0.976890465883593

> <r_i_glide_ligand_efficiency_ln>
-1.83847679330958

> <r_i_glide_gscore>
-7.43576064177441

> <r_i_glide_lipo>
-3.62526717923815

> <r_i_glide_hbond>
-0.125939675040364

> <r_i_glide_metal>
0

> <r_i_glide_rewards>
-2.0507455881832

> <r_i_glide_evdw>
-37.6052322387695

> <r_i_glide_ecoul>
-2.0348207950592

> <r_i_glide_erotb>
0.551676531884671

> <r_i_glide_esite>
0

> <r_i_glide_emodel>
-54.1662380970824

> <r_i_glide_energy>
-39.6400530338287

> <r_i_glide_einternal>
5.01762866973877

> <i_i_glide_confnum>
7

> <i_i_glide_posenum>
238

> <r_i_glide_eff_state_penalty>
0

> <s_user_duplicate_titles>
CHEMBL1849_lig211 

> <i_f3d_flags>
0

> <s_m_subgroup_title>
dock_pv

> <s_m_subgroupid>
dock_pv

> <b_m_subgroup_collapsed>
0

$$$$
CHEMBL1849_lig35
                    3D
 Schrodinger Suite 2021-1.
 37 39  0  0  1  0            999 V2000
    9.3054   34.0090   60.3888 N   0  0  0  0  0  0
   10.4397   34.1745   61.2012 C   0  0  0  0  0  0
   11.0840   33.1309   61.8892 C   0  0  0  0  0  0
   12.2579   33.3736   62.6001 C   0  0  0  0  0  0
   12.7724   34.6657   62.6706 C   0  0  0  0  0  0
   12.1125   35.7144   62.0280 C   0  0  0  0  0  0
   10.9672   35.4668   61.2734 C   0  0  0  0  0  0
   13.1031   32.0631   63.3419 Cl  0  0  0  0  0  0
    5.4781   29.8261   59.4862 C   0  0  0  0  0  0
    5.8552   31.1900   59.4547 N   0  0  0  0  0  0
    5.2088   32.1962   60.1137 C   0  0  0  0  0  0
    5.9974   33.4800   59.8675 C   0  0  0  0  0  0
    7.3335   33.0636   59.2614 C   0  0  2  0  0  0
    7.0069   31.6914   58.6879 C   0  0  0  0  0  0
    4.2082   32.1350   60.8280 O   0  0  0  0  0  0
    6.4808   28.8445   59.4912 C   0  0  0  0  0  0
    6.1444   27.4969   59.5824 C   0  0  0  0  0  0
    4.8040   27.1233   59.6453 C   0  0  0  0  0  0
    3.7974   28.0842   59.6148 C   0  0  0  0  0  0
    4.1305   29.4319   59.5391 C   0  0  0  0  0  0
    8.4348   32.9784   60.3502 C   0  0  0  0  0  0
    8.4604   32.0151   61.1197 O   0  0  0  0  0  0
    9.1059   34.7939   59.7902 H   0  0  0  0  0  0
   10.7258   32.1143   61.8398 H   0  0  0  0  0  0
   13.6858   34.8442   63.2183 H   0  0  0  0  0  0
   12.5050   36.7172   62.0887 H   0  0  0  0  0  0
   10.4925   36.2886   60.7550 H   0  0  0  0  0  0
    6.0971   33.9679   60.8410 H   0  0  0  0  0  0
    5.4368   34.1690   59.2373 H   0  0  0  0  0  0
    7.6535   33.7642   58.4876 H   0  0  0  0  0  0
    6.7077   31.7798   57.6428 H   0  0  0  0  0  0
    7.8752   31.0310   58.6725 H   0  0  0  0  0  0
    7.5272   29.1095   59.4726 H   0  0  0  0  0  0
    6.9204   26.7435   59.6152 H   0  0  0  0  0  0
    4.5442   26.0771   59.7156 H   0  0  0  0  0  0
    2.7590   27.7883   59.6586 H   0  0  0  0  0  0
    3.3344   30.1622   59.5207 H   0  0  0  0  0  0
  1  2  1  0  0  0
  1 21  1  0  0  0
  1 23  1  0  0  0
  2  7  2  0  0  0
  2  3  1  0  0  0
  3  4  2  0  0  0
  3 24  1  0  0  0
  4  8  1  0  0  0
  4  5  1  0  0  0
  5  6  2  0  0  0
  5 25  1  0  0  0
  6  7  1  0  0  0
  6 26  1  0  0  0
  7 27  1  0  0  0
  9 10  1  0  0  0
  9 16  2  0  0  0
  9 20  1  0  0  0
 10 14  1  0  0  0
 10 11  1  0  0  0
 11 12  1  0  0  0
 11 15  2  0  0  0
 12 13  1  0  0  0
 12 28  1  0  0  0
 12 29  1  0  0  0
 13 14  1  0  0  0
 13 21  1  0  0  0
 13 30  1  0  0  0
 14 31  1  0  0  0
 14 32  1  0  0  0
 16 17  1  0  0  0
 16 33  1  0  0  0
 17 18  2  0  0  0
 17 34  1  0  0  0
 18 19  1  0  0  0
 18 35  1  0  0  0
 19 20  2  0  0  0
 19 36  1  0  0  0
 20 37  1  0  0  0
 21 22  2  0  0  0
M  END
> <s_m_entry_id>
8282

> <s_m_entry_name>
dock_pv.77

> <s_m_Source_Path>
/home/csk/Desktop/cluster/DUD-E-result/inha

> <s_m_Source_File>
dock_pv.maegz

> <i_m_Source_File_Index>
77

> <chembl_id>
CHEMBL216642

> <chembl_pref_name>
None

> <i_lp_mmshare_version>
53161

> <r_lp_tautomer_probability>
1

> <s_lp_Force_Field>
OPLS_2005

> <r_lp_Energy>
32.3846

> <b_lp_Chiralities_Consistent>
1

> <s_lp_Variant>
CHEMBL1849_lig35-1

> <s_i_glide_gridfile>
glide-grid_2h7l

> <i_i_glide_lignum>
64

> <i_i_glide_rotatable_bonds>
4

> <r_i_docking_score>
-7.42785241949083

> <r_i_glide_ligand_efficiency>
-0.337629655431401

> <r_i_glide_ligand_efficiency_sa>
-0.94605157273965

> <r_i_glide_ligand_efficiency_ln>
-1.81563806882359

> <r_i_glide_gscore>
-7.42785241949083

> <r_i_glide_lipo>
-3.45870708203404

> <r_i_glide_hbond>
0

> <r_i_glide_metal>
0

> <r_i_glide_rewards>
-2.55404634585878

> <r_i_glide_evdw>
-40.7971534729004

> <r_i_glide_ecoul>
-0.839250862598419

> <r_i_glide_erotb>
0.75064631143678

> <r_i_glide_esite>
0

> <r_i_glide_emodel>
-56.8676524622157

> <r_i_glide_energy>
-41.6364043354988

> <r_i_glide_einternal>
3.88103485107422

> <i_i_glide_confnum>
16

> <i_i_glide_posenum>
296

> <r_i_glide_eff_state_penalty>
0

> <s_user_duplicate_titles>
CHEMBL1849_lig35

> <i_f3d_flags>
0

> <s_m_subgroup_title>
dock_pv

> <s_m_subgroupid>
dock_pv

> <b_m_subgroup_collapsed>
0

$$$$
CHEMBL1849_lig68
                    3D
 Schrodinger Suite 2021-1.
 52 54  0  0  1  0            999 V2000
    4.6418   30.3562   59.2452 C   0  0  0  0  0  0
    5.2300   29.0862   59.1997 C   0  0  0  0  0  0
    6.5567   28.9577   58.7778 C   0  0  0  0  0  0
    7.2892   30.0837   58.4080 C   0  0  0  0  0  0
    6.7002   31.3504   58.4455 C   0  0  0  0  0  0
    5.3700   31.4850   58.8637 C   0  0  0  0  0  0
    7.4131   32.4505   58.0285 O   0  0  0  0  0  0
    8.2933   33.1021   58.8694 C   0  0  0  0  0  0
    8.8097   34.3211   58.4273 C   0  0  0  0  0  0
    9.7040   35.0489   59.2103 C   0  0  0  0  0  0
   10.1414   34.5314   60.4255 C   0  0  0  0  0  0
    9.7040   33.2652   60.8434 C   0  0  0  0  0  0
    8.7327   32.5889   60.0991 C   0  0  0  0  0  0
    4.7758   32.7209   58.8948 O   0  0  0  0  0  0
    4.4194   27.8495   59.5676 C   0  0  0  0  0  0
    4.6710   27.3071   60.9912 C   0  0  0  0  0  0
    6.0606   26.6633   61.1905 C   0  0  0  0  0  0
    6.2624   25.9558   62.5467 C   0  0  0  0  0  0
    5.3536   24.7356   62.8105 C   0  0  0  0  0  0
    5.4756   23.6123   61.7664 C   0  0  0  0  0  0
   10.2735   32.5538   61.9186 N   0  0  0  0  0  0
   11.4767   32.7312   62.5133 C   0  0  0  0  0  0
   12.2014   33.7211   62.4089 O   0  0  0  0  0  0
   11.9307   31.5644   63.2276 C   0  0  0  0  0  0
   13.1898   31.1473   63.6244 C   0  0  0  0  0  0
   12.9623   29.9220   64.2487 C   0  0  0  0  0  0
   11.7020   29.5920   64.2914 N   0  0  0  0  0  0
   11.0314   30.6279   63.6282 O   0  0  0  0  0  0
    3.6135   30.4633   59.5614 H   0  0  0  0  0  0
    7.0242   27.9849   58.7292 H   0  0  0  0  0  0
    8.3112   29.9725   58.0784 H   0  0  0  0  0  0
    8.5035   34.7142   57.4698 H   0  0  0  0  0  0
   10.0790   36.0018   58.8663 H   0  0  0  0  0  0
   10.8619   35.1024   60.9900 H   0  0  0  0  0  0
    8.3836   31.6234   60.4339 H   0  0  0  0  0  0
    3.8727   32.7152   59.2252 H   0  0  0  0  0  0
    4.6128   27.0700   58.8299 H   0  0  0  0  0  0
    3.3589   28.0810   59.4523 H   0  0  0  0  0  0
    3.9020   26.5628   61.1968 H   0  0  0  0  0  0
    4.5197   28.1009   61.7243 H   0  0  0  0  0  0
    6.8297   27.4298   61.0916 H   0  0  0  0  0  0
    6.2507   25.9499   60.3899 H   0  0  0  0  0  0
    6.1273   26.6806   63.3510 H   0  0  0  0  0  0
    7.3032   25.6347   62.6166 H   0  0  0  0  0  0
    4.3127   25.0515   62.8827 H   0  0  0  0  0  0
    5.6007   24.3291   63.7915 H   0  0  0  0  0  0
    4.8913   22.7407   62.0627 H   0  0  0  0  0  0
    6.5100   23.2913   61.6456 H   0  0  0  0  0  0
    5.1116   23.9307   60.7891 H   0  0  0  0  0  0
    9.7919   31.7032   62.1685 H   0  0  0  0  0  0
   14.1334   31.6514   63.4706 H   0  0  0  0  0  0
   13.7038   29.2789   64.6839 H   0  0  0  0  0  0
  1  2  2  0  0  0
  1  6  1  0  0  0
  1 29  1  0  0  0
  2 15  1  0  0  0
  2  3  1  0  0  0
  3  4  2  0  0  0
  3 30  1  0  0  0
  4  5  1  0  0  0
  4 31  1  0  0  0
  5  7  1  0  0  0
  5  6  2  0  0  0
  6 14  1  0  0  0
  7  8  1  0  0  0
  8  9  2  0  0  0
  8 13  1  0  0  0
  9 10  1  0  0  0
  9 32  1  0  0  0
 10 11  2  0  0  0
 10 33  1  0  0  0
 11 12  1  0  0  0
 11 34  1  0  0  0
 12 21  1  0  0  0
 12 13  2  0  0  0
 13 35  1  0  0  0
 14 36  1  0  0  0
 15 16  1  0  0  0
 15 37  1  0  0  0
 15 38  1  0  0  0
 16 17  1  0  0  0
 16 39  1  0  0  0
 16 40  1  0  0  0
 17 18  1  0  0  0
 17 41  1  0  0  0
 17 42  1  0  0  0
 18 19  1  0  0  0
 18 43  1  0  0  0
 18 44  1  0  0  0
 19 20  1  0  0  0
 19 45  1  0  0  0
 19 46  1  0  0  0
 20 47  1  0  0  0
 20 48  1  0  0  0
 20 49  1  0  0  0
 21 22  1  0  0  0
 21 50  1  0  0  0
 22 23  2  0  0  0
 22 24  1  0  0  0
 24 25  2  0  0  0
 24 28  1  0  0  0
 25 26  1  0  0  0
 25 51  1  0  0  0
 26 27  2  0  0  0
 26 52  1  0  0  0
 27 28  1  0  0  0
M  END
> <s_m_entry_id>
8283

> <s_m_entry_name>
dock_pv.78

> <s_m_Source_Path>
/home/csk/Desktop/cluster/DUD-E-result/inha

> <s_m_Source_File>
dock_pv.maegz

> <i_m_Source_File_Index>
78

> <chembl_id>
CHEMBL405653

> <chembl_pref_name>
None

> <i_lp_mmshare_version>
53161

> <r_lp_tautomer_probability>
0.999999999999776

> <s_lp_Force_Field>
OPLS_2005

> <r_lp_Energy>
23.04373

> <b_lp_Chiralities_Consistent>
1

> <s_lp_Variant>
CHEMBL1849_lig68-1

> <s_i_glide_gridfile>
glide-grid_2h7l

> <i_i_glide_lignum>
118

> <i_i_glide_rotatable_bonds>
11

> <r_i_docking_score>
-7.4265292618444

> <r_i_glide_ligand_efficiency>
-0.265233187923014

> <r_i_glide_ligand_efficiency_sa>
-0.80540417252786

> <r_i_glide_ligand_efficiency_ln>
-1.71426100600778

> <r_i_glide_gscore>
-7.4265292618444

> <r_i_glide_lipo>
-4.57720615386915

> <r_i_glide_hbond>
-0.0177885315856046

> <r_i_glide_metal>
0

> <r_i_glide_rewards>
-1.60181796989094

> <r_i_glide_evdw>
-41.6245193481445

> <r_i_glide_ecoul>
-2.36590337753296

> <r_i_glide_erotb>
1.20639486753847

> <r_i_glide_esite>
0

> <r_i_glide_emodel>
-59.6873687456197

> <r_i_glide_energy>
-43.9904227256775

> <r_i_glide_einternal>
7.7046685218811

> <i_i_glide_confnum>
25

> <i_i_glide_posenum>
223

> <r_i_glide_eff_state_penalty>
0

> <s_user_duplicate_titles>
CHEMBL1849_lig68,428241

> <i_f3d_flags>
0

> <s_m_subgroup_title>
dock_pv

> <s_m_subgroupid>
dock_pv

> <b_m_subgroup_collapsed>
0

$$$$
CHEMBL1849_lig192
                    3D
 Schrodinger Suite 2021-1.
 41 44  0  0  1  0            999 V2000
    5.3919   26.0832   63.1848 C   0  0  0  0  0  0
    4.1384   26.5559   63.5844 C   0  0  0  0  0  0
    3.4408   27.4573   62.7775 C   0  0  0  0  0  0
    5.9581   26.5096   61.9824 C   0  0  0  0  0  0
    5.2596   27.4257   61.1894 C   0  0  0  0  0  0
    4.0025   27.8924   61.5792 C   0  0  0  0  0  0
    3.2729   28.7852   60.7852 N   0  0  0  0  0  0
    3.7822   29.2246   59.6935 C   0  0  0  0  0  0
    5.0486   28.8687   59.2602 N   0  0  0  0  0  0
    5.8379   27.9262   59.8859 C   0  0  0  0  0  0
    6.9040   27.5221   59.4281 O   0  0  0  0  0  0
    5.6238   29.4869   58.0315 C   0  0  0  0  0  0
    6.0628   30.9536   58.1939 C   0  0  0  0  0  0
    5.9552   31.5640   59.3863 N   0  0  0  0  0  0
    6.5037   31.5221   57.2010 O   0  0  0  0  0  0
    6.3622   32.9439   59.6585 C   0  0  0  0  0  0
    7.7986   33.0426   60.1387 C   0  0  0  0  0  0
    8.8902   34.3216   59.6333 S   0  0  0  0  0  0
    8.2975   32.2012   61.0042 N   0  0  0  0  0  0
    9.5290   32.5771   61.4266 C   0  0  0  0  0  0
   10.0320   33.7581   60.8348 C   0  0  0  0  0  0
   11.2632   34.2878   61.2268 C   0  0  0  0  0  0
   12.0118   33.5935   62.1906 C   0  0  0  0  0  0
   11.4945   32.4434   62.8004 C   0  0  0  0  0  0
   10.2581   31.9221   62.4280 C   0  0  0  0  0  0
   13.3708   34.0594   62.5180 N   0  3  0  0  0  0
   13.7238   35.1210   62.0281 O   0  0  0  0  0  0
   14.0906   33.3634   63.2280 O   0  5  0  0  0  0
    5.9286   25.3837   63.8090 H   0  0  0  0  0  0
    3.7069   26.2202   64.5158 H   0  0  0  0  0  0
    2.4687   27.8193   63.0768 H   0  0  0  0  0  0
    6.9284   26.1342   61.6832 H   0  0  0  0  0  0
    3.2178   29.9181   59.0734 H   0  0  0  0  0  0
    6.4909   28.9463   57.6478 H   0  0  0  0  0  0
    4.9040   29.4461   57.2283 H   0  0  0  0  0  0
    5.6066   31.0334   60.1712 H   0  0  0  0  0  0
    6.1765   33.5846   58.7998 H   0  0  0  0  0  0
    5.6983   33.3351   60.4311 H   0  0  0  0  0  0
   11.6454   35.1819   60.7508 H   0  0  0  0  0  0
   12.0689   31.9273   63.5579 H   0  0  0  0  0  0
    9.8649   31.0356   62.9023 H   0  0  0  0  0  0
  1  2  2  0  0  0
  1  4  1  0  0  0
  1 29  1  0  0  0
  2  3  1  0  0  0
  2 30  1  0  0  0
  3  6  2  0  0  0
  3 31  1  0  0  0
  4  5  2  0  0  0
  4 32  1  0  0  0
  5  6  1  0  0  0
  5 10  1  0  0  0
  6  7  1  0  0  0
  7  8  2  0  0  0
  8  9  1  0  0  0
  8 33  1  0  0  0
  9 10  1  0  0  0
  9 12  1  0  0  0
 10 11  2  0  0  0
 12 13  1  0  0  0
 12 34  1  0  0  0
 12 35  1  0  0  0
 13 14  1  0  0  0
 13 15  2  0  0  0
 14 16  1  0  0  0
 14 36  1  0  0  0
 16 17  1  0  0  0
 16 37  1  0  0  0
 16 38  1  0  0  0
 17 18  1  0  0  0
 17 19  2  0  0  0
 18 21  1  0  0  0
 19 20  1  0  0  0
 20 21  2  0  0  0
 20 25  1  0  0  0
 21 22  1  0  0  0
 22 23  2  0  0  0
 22 39  1  0  0  0
 23 24  1  0  0  0
 23 26  1  0  0  0
 24 25  2  0  0  0
 24 40  1  0  0  0
 25 41  1  0  0  0
 26 27  2  0  0  0
 26 28  1  0  0  0
M  CHG  2  26   1  28  -1
M  END
> <s_m_entry_id>
8284

> <s_m_entry_name>
dock_pv.79

> <s_m_Source_Path>
/home/csk/Desktop/cluster/DUD-E-result/inha

> <s_m_Source_File>
dock_pv.maegz

> <i_m_Source_File_Index>
79

> <chembl_id>
CHEMBL3331293

> <chembl_pref_name>
None

> <i_lp_mmshare_version>
53161

> <r_lp_tautomer_probability>
1

> <s_lp_Force_Field>
OPLS_2005

> <r_lp_Energy>
17.255049

> <b_lp_Chiralities_Consistent>
1

> <s_lp_Variant>
CHEMBL1849_lig192-1

> <s_i_glide_gridfile>
glide-grid_2h7l

> <i_i_glide_lignum>
259

> <i_i_glide_rotatable_bonds>
6

> <r_i_docking_score>
-7.42233954520588

> <r_i_glide_ligand_efficiency>
-0.265083555185924

> <r_i_glide_ligand_efficiency_sa>
-0.804949799409085

> <r_i_glide_ligand_efficiency_ln>
-1.71329389639219

> <r_i_glide_gscore>
-7.42233954520588

> <r_i_glide_lipo>
-2.88975892462073

> <r_i_glide_hbond>
-0.301318815958019

> <r_i_glide_metal>
0

> <r_i_glide_rewards>
-2.30094000291444

> <r_i_glide_evdw>
-38.8537178039551

> <r_i_glide_ecoul>
-3.2530357837677

> <r_i_glide_erotb>
0.500319456050223

> <r_i_glide_esite>
0

> <r_i_glide_emodel>
-60.3289205362428

> <r_i_glide_energy>
-42.1067535877228

> <r_i_glide_einternal>
3.14416837692261

> <i_i_glide_confnum>
1

> <i_i_glide_posenum>
66

> <r_i_glide_eff_state_penalty>
0

> <s_user_duplicate_titles>
CHEMBL1849_lig192

> <i_f3d_flags>
0

> <s_m_subgroup_title>
dock_pv

> <s_m_subgroupid>
dock_pv

> <b_m_subgroup_collapsed>
0

$$$$
CHEMBL1849_lig87
                    3D
 Schrodinger Suite 2021-1.
 38 39  0  0  1  0            999 V2000
    4.8261   29.9246   58.7076 C   0  0  0  0  0  0
    4.8745   31.2411   58.2712 C   0  0  0  0  0  0
    5.8133   32.1110   58.8078 C   0  0  0  0  0  0
    6.7114   31.6834   59.7970 C   0  0  0  0  0  0
    6.6046   30.3656   60.3050 C   0  0  0  0  0  0
    5.6767   29.4657   59.7220 C   0  0  0  0  0  0
    5.5734   28.0393   60.1186 N   0  3  0  0  0  0
    5.6415   27.7390   61.3054 O   0  5  0  0  0  0
    5.3874   27.2126   59.2284 O   0  0  0  0  0  0
    7.4994   29.8996   61.4588 C   0  0  0  0  0  0
    7.7275   32.5387   60.2859 N   0  0  0  0  0  0
    8.3771   33.5374   59.6431 C   0  0  0  0  0  0
    9.5482   34.2124   60.3789 C   0  0  0  0  0  0
    8.1052   33.9219   58.5055 O   0  0  0  0  0  0
   10.0289   33.3547   61.4180 O   0  0  0  0  0  0
   11.3034   33.5131   61.9291 C   0  0  0  0  0  0
   11.7605   32.5355   62.8277 C   0  0  0  0  0  0
   13.0960   32.5258   63.2294 C   0  0  0  0  0  0
   13.9547   33.5415   62.8289 C   0  0  0  0  0  0
   13.4814   34.5733   62.0256 C   0  0  0  0  0  0
   12.1651   34.5612   61.5709 C   0  0  0  0  0  0
   10.8259   31.4554   63.3345 C   0  0  0  0  0  0
   15.5960   33.5203   63.3423 Cl  0  0  0  0  0  0
    4.1030   29.2584   58.2565 H   0  0  0  0  0  0
    4.1883   31.5819   57.5097 H   0  0  0  0  0  0
    5.8256   33.1242   58.4435 H   0  0  0  0  0  0
    6.8907   29.6224   62.3202 H   0  0  0  0  0  0
    8.0820   29.0258   61.1688 H   0  0  0  0  0  0
    8.1948   30.6516   61.8156 H   0  0  0  0  0  0
    8.1139   32.2876   61.1836 H   0  0  0  0  0  0
    9.2077   35.1534   60.8081 H   0  0  0  0  0  0
   10.3203   34.4208   59.6362 H   0  0  0  0  0  0
   13.4652   31.7481   63.8827 H   0  0  0  0  0  0
   14.1418   35.3680   61.7198 H   0  0  0  0  0  0
   11.8448   35.3578   60.9167 H   0  0  0  0  0  0
   10.1763   31.8545   64.1135 H   0  0  0  0  0  0
   10.1919   31.1216   62.5220 H   0  0  0  0  0  0
   11.3607   30.5834   63.7113 H   0  0  0  0  0  0
  1  6  1  0  0  0
  1  2  2  0  0  0
  1 24  1  0  0  0
  2  3  1  0  0  0
  2 25  1  0  0  0
  3  4  2  0  0  0
  3 26  1  0  0  0
  4  5  1  0  0  0
  4 11  1  0  0  0
  5  6  2  0  0  0
  5 10  1  0  0  0
  6  7  1  0  0  0
  7  8  1  0  0  0
  7  9  2  0  0  0
 10 27  1  0  0  0
 10 28  1  0  0  0
 10 29  1  0  0  0
 11 12  1  0  0  0
 11 30  1  0  0  0
 12 13  1  0  0  0
 12 14  2  0  0  0
 13 15  1  0  0  0
 13 31  1  0  0  0
 13 32  1  0  0  0
 15 16  1  0  0  0
 16 17  2  0  0  0
 16 21  1  0  0  0
 17 18  1  0  0  0
 17 22  1  0  0  0
 18 19  2  0  0  0
 18 33  1  0  0  0
 19 20  1  0  0  0
 19 23  1  0  0  0
 20 21  2  0  0  0
 20 34  1  0  0  0
 21 35  1  0  0  0
 22 36  1  0  0  0
 22 37  1  0  0  0
 22 38  1  0  0  0
M  CHG  2   7   1   8  -1
M  END
> <s_m_entry_id>
8285

> <s_m_entry_name>
dock_pv.80

> <s_m_Source_Path>
/home/csk/Desktop/cluster/DUD-E-result/inha

> <s_m_Source_File>
dock_pv.maegz

> <i_m_Source_File_Index>
80

> <chembl_id>
CHEMBL540477

> <chembl_pref_name>
None

> <i_lp_mmshare_version>
53161

> <r_lp_tautomer_probability>
1

> <s_lp_Force_Field>
OPLS_2005

> <r_lp_Energy>
24.936391

> <b_lp_Chiralities_Consistent>
1

> <s_lp_Variant>
CHEMBL1849_lig87-1

> <s_i_glide_gridfile>
glide-grid_2h7l

> <i_i_glide_lignum>
137

> <i_i_glide_rotatable_bonds>
6

> <r_i_docking_score>
-7.42007526965373

> <r_i_glide_ligand_efficiency>
-0.322611968245814

> <r_i_glide_ligand_efficiency_sa>
-0.917465522840291

> <r_i_glide_ligand_efficiency_ln>
-1.79424148172496

> <r_i_glide_gscore>
-7.42007526965373

> <r_i_glide_lipo>
-3.6567027160569

> <r_i_glide_hbond>
0

> <r_i_glide_metal>
0

> <r_i_glide_rewards>
-2.41496125315239

> <r_i_glide_evdw>
-41.4393997192383

> <r_i_glide_ecoul>
-0.78773021697998

> <r_i_glide_erotb>
0.841718218064477

> <r_i_glide_esite>
0

> <r_i_glide_emodel>
-61.099154962439

> <r_i_glide_energy>
-42.2271299362183

> <r_i_glide_einternal>
2.42649960517883

> <i_i_glide_confnum>
33

> <i_i_glide_posenum>
373

> <r_i_glide_eff_state_penalty>
0

> <s_user_duplicate_titles>
CHEMBL1849_lig87

> <i_f3d_flags>
0

> <s_m_subgroup_title>
dock_pv

> <s_m_subgroupid>
dock_pv

> <b_m_subgroup_collapsed>
0

$$$$
CHEMBL1849_lig59
                    3D
 Schrodinger Suite 2021-1.
 52 56  0  0  1  0            999 V2000
   10.9824   35.1538   60.8277 C   0  0  0  0  0  0
   11.5504   34.1988   61.6661 C   0  0  0  0  0  0
   10.9042   32.9793   61.8688 C   0  0  0  0  0  0
    9.6920   32.7221   61.2284 C   0  0  0  0  0  0
    9.0825   33.6893   60.4233 C   0  0  0  0  0  0
    9.7653   34.8958   60.2092 C   0  0  0  0  0  0
   12.8881   34.4767   62.3299 C   0  0  0  0  0  0
    7.7830   33.4435   59.6747 C   0  0  0  0  0  0
    6.7402   32.7498   60.2258 N   0  0  0  0  0  0
    7.7045   33.9168   58.5372 O   0  0  0  0  0  0
    6.6381   32.2346   61.5982 C   0  0  0  0  0  0
    6.3379   30.7199   61.5304 C   0  0  0  0  0  0
    5.1217   30.3971   60.7613 N   0  0  0  0  0  0
    5.1867   31.0251   59.4269 C   0  0  0  0  0  0
    5.5065   32.5362   59.4480 C   0  0  0  0  0  0
    4.8320   28.9339   60.6781 C   0  0  0  0  0  0
    4.7157   28.2701   62.0539 C   0  0  0  0  0  0
    3.4029   27.8682   62.3050 C   0  0  0  0  0  0
    3.0520   27.2935   63.5294 C   0  0  0  0  0  0
    4.0307   27.0789   64.4987 C   0  0  0  0  0  0
    5.3584   27.4109   64.2301 C   0  0  0  0  0  0
    5.7014   27.9880   63.0066 C   0  0  0  0  0  0
    2.6014   28.1091   61.0985 C   0  0  0  0  0  0
    3.4318   28.6565   60.1188 C   0  0  0  0  0  0
    2.9196   28.8304   58.8283 C   0  0  0  0  0  0
    1.5834   28.5498   58.5464 C   0  0  0  0  0  0
    0.7477   28.0600   59.5494 C   0  0  0  0  0  0
    1.2606   27.8272   60.8257 C   0  0  0  0  0  0
   11.4793   36.0974   60.6511 H   0  0  0  0  0  0
   11.3463   32.2216   62.5016 H   0  0  0  0  0  0
    9.2387   31.7531   61.3692 H   0  0  0  0  0  0
    9.3520   35.6533   59.5591 H   0  0  0  0  0  0
   13.3903   33.5541   62.6206 H   0  0  0  0  0  0
   13.5549   34.9923   61.6388 H   0  0  0  0  0  0
   12.7576   35.1048   63.2105 H   0  0  0  0  0  0
    7.4974   32.4379   62.2240 H   0  0  0  0  0  0
    5.8032   32.7301   62.0945 H   0  0  0  0  0  0
    6.2150   30.3937   62.5588 H   0  0  0  0  0  0
    7.1835   30.1867   61.0946 H   0  0  0  0  0  0
    4.2323   30.9433   58.9190 H   0  0  0  0  0  0
    5.9432   30.5001   58.8396 H   0  0  0  0  0  0
    4.6864   33.0721   59.9300 H   0  0  0  0  0  0
    5.5596   32.9134   58.4253 H   0  0  0  0  0  0
    5.5955   28.4316   60.0819 H   0  0  0  0  0  0
    2.0327   26.9934   63.7253 H   0  0  0  0  0  0
    3.7643   26.6331   65.4457 H   0  0  0  0  0  0
    6.1225   27.2238   64.9697 H   0  0  0  0  0  0
    6.7364   28.2336   62.8173 H   0  0  0  0  0  0
    3.5456   29.1943   58.0285 H   0  0  0  0  0  0
    1.1983   28.7204   57.5518 H   0  0  0  0  0  0
   -0.2883   27.8444   59.3337 H   0  0  0  0  0  0
    0.6156   27.4100   61.5856 H   0  0  0  0  0  0
  1  6  1  0  0  0
  1  2  2  0  0  0
  1 29  1  0  0  0
  2  3  1  0  0  0
  2  7  1  0  0  0
  3  4  2  0  0  0
  3 30  1  0  0  0
  4  5  1  0  0  0
  4 31  1  0  0  0
  5  8  1  0  0  0
  5  6  2  0  0  0
  6 32  1  0  0  0
  7 33  1  0  0  0
  7 34  1  0  0  0
  7 35  1  0  0  0
  8  9  1  0  0  0
  8 10  2  0  0  0
  9 11  1  0  0  0
  9 15  1  0  0  0
 11 12  1  0  0  0
 11 36  1  0  0  0
 11 37  1  0  0  0
 12 13  1  0  0  0
 12 38  1  0  0  0
 12 39  1  0  0  0
 13 14  1  0  0  0
 13 16  1  0  0  0
 14 15  1  0  0  0
 14 40  1  0  0  0
 14 41  1  0  0  0
 15 42  1  0  0  0
 15 43  1  0  0  0
 16 24  1  0  0  0
 16 17  1  0  0  0
 16 44  1  0  0  0
 17 18  2  0  0  0
 17 22  1  0  0  0
 18 23  1  0  0  0
 18 19  1  0  0  0
 19 20  2  0  0  0
 19 45  1  0  0  0
 20 21  1  0  0  0
 20 46  1  0  0  0
 21 22  2  0  0  0
 21 47  1  0  0  0
 22 48  1  0  0  0
 23 24  2  0  0  0
 23 28  1  0  0  0
 24 25  1  0  0  0
 25 26  2  0  0  0
 25 49  1  0  0  0
 26 27  1  0  0  0
 26 50  1  0  0  0
 27 28  2  0  0  0
 27 51  1  0  0  0
 28 52  1  0  0  0
M  END
> <s_m_entry_id>
8286

> <s_m_entry_name>
dock_pv.81

> <s_m_Source_Path>
/home/csk/Desktop/cluster/DUD-E-result/inha

> <s_m_Source_File>
dock_pv.maegz

> <i_m_Source_File_Index>
81

> <chembl_id>
CHEMBL392127

> <chembl_pref_name>
None

> <i_lp_mmshare_version>
53161

> <r_lp_tautomer_probability>
1

> <s_lp_Force_Field>
OPLS_2005

> <r_lp_Energy>
74.209392

> <b_lp_Chiralities_Consistent>
1

> <s_lp_Variant>
CHEMBL1849_lig59-1

> <s_i_glide_gridfile>
glide-grid_2h7l

> <i_i_glide_lignum>
109

> <i_i_glide_rotatable_bonds>
3

> <r_i_docking_score>
-7.35546422632777

> <r_i_glide_ligand_efficiency>
-0.262695150940278

> <r_i_glide_ligand_efficiency_sa>
-0.797697197424429

> <r_i_glide_ligand_efficiency_ln>
-1.69785710925044

> <r_i_glide_gscore>
-7.35546422632777

> <r_i_glide_lipo>
-3.51478800371723

> <r_i_glide_hbond>
0

> <r_i_glide_metal>
0

> <r_i_glide_rewards>
-2.31317532950251

> <r_i_glide_evdw>
-38.6564598083496

> <r_i_glide_ecoul>
-0.136492893099785

> <r_i_glide_erotb>
0.425796031274417

> <r_i_glide_esite>
0

> <r_i_glide_emodel>
-53.7069166889543

> <r_i_glide_energy>
-38.7929527014494

> <r_i_glide_einternal>
4.49792909622192

> <i_i_glide_confnum>
17

> <i_i_glide_posenum>
135

> <r_i_glide_eff_state_penalty>
0

> <s_user_duplicate_titles>
CHEMBL1849_lig59,406385

> <i_f3d_flags>
0

> <s_m_subgroup_title>
dock_pv

> <s_m_subgroupid>
dock_pv

> <b_m_subgroup_collapsed>
0

$$$$
CHEMBL1849_lig57
                    3D
 Schrodinger Suite 2021-1.
 55 59  0  0  1  0            999 V2000
   10.6361   34.8282   60.7765 C   0  0  0  0  0  0
    9.4141   34.5025   60.1865 C   0  0  0  0  0  0
    8.7381   33.2968   60.4275 C   0  0  0  0  0  0
    9.3435   32.3292   61.2445 C   0  0  0  0  0  0
    7.4139   33.0563   59.7258 C   0  0  0  0  0  0
    6.3821   32.3830   60.3267 N   0  0  0  0  0  0
    7.3045   33.5141   58.5859 O   0  0  0  0  0  0
    5.1297   32.1311   59.5863 C   0  0  0  0  0  0
    4.8412   30.6111   59.6249 C   0  0  0  0  0  0
    4.8305   30.0476   60.9918 N   0  0  0  0  0  0
    6.0954   30.3632   61.6766 C   0  0  0  0  0  0
    6.3389   31.8942   61.7164 C   0  0  0  0  0  0
    4.4624   28.6076   60.9436 C   0  0  0  0  0  0
    4.7733   27.8166   62.2259 C   0  0  0  0  0  0
    3.9493   27.9221   63.3536 C   0  0  0  0  0  0
    4.2115   27.1681   64.4929 C   0  0  0  0  0  0
    5.2833   26.2821   64.4973 C   0  0  0  0  0  0
    6.0999   26.1527   63.3747 C   0  0  0  0  0  0
    5.8519   26.9248   62.2420 C   0  0  0  0  0  0
    2.0058   29.3593   60.6947 C   0  0  0  0  0  0
    2.9910   28.3737   60.5367 C   0  0  0  0  0  0
    2.6251   27.1218   60.0288 C   0  0  0  0  0  0
    1.3058   26.8680   59.6549 C   0  0  0  0  0  0
    0.3434   27.8653   59.7965 C   0  0  0  0  0  0
    0.6877   29.1048   60.3247 C   0  0  0  0  0  0
   11.1872   33.8803   61.6381 C   0  0  0  0  0  0
   10.5525   32.6277   61.8948 C   0  0  0  0  0  0
   11.3832   31.9233   62.8281 C   0  0  0  0  0  0
   12.4726   32.7295   63.0906 C   0  0  0  0  0  0
   12.3500   33.8986   62.3811 N   0  0  0  0  0  0
    5.5177   25.5329   65.5964 F   0  0  0  0  0  0
   -0.9329   27.6276   59.4177 F   0  0  0  0  0  0
   11.1210   35.7723   60.5751 H   0  0  0  0  0  0
    8.9729   35.2353   59.5248 H   0  0  0  0  0  0
    8.8853   31.3732   61.4138 H   0  0  0  0  0  0
    4.3073   32.6703   60.0581 H   0  0  0  0  0  0
    5.1650   32.4703   58.5513 H   0  0  0  0  0  0
    5.6218   30.0981   59.0609 H   0  0  0  0  0  0
    3.8994   30.4183   59.1098 H   0  0  0  0  0  0
    6.9203   29.8542   61.1752 H   0  0  0  0  0  0
    6.0625   29.9984   62.7011 H   0  0  0  0  0  0
    7.2006   32.1710   62.3155 H   0  0  0  0  0  0
    5.5083   32.3744   62.2322 H   0  0  0  0  0  0
    5.0708   28.1633   60.1516 H   0  0  0  0  0  0
    3.1013   28.5914   63.3437 H   0  0  0  0  0  0
    3.5788   27.2561   65.3644 H   0  0  0  0  0  0
    6.9203   25.4534   63.3810 H   0  0  0  0  0  0
    6.4905   26.8155   61.3770 H   0  0  0  0  0  0
    2.2543   30.3350   61.0865 H   0  0  0  0  0  0
    3.3664   26.3433   59.9249 H   0  0  0  0  0  0
    1.0268   25.9050   59.2563 H   0  0  0  0  0  0
   -0.0582   29.8798   60.4284 H   0  0  0  0  0  0
   11.2144   30.9443   63.2539 H   0  0  0  0  0  0
   13.3290   32.5727   63.7324 H   0  0  0  0  0  0
   13.0358   34.6381   62.4264 H   0  0  0  0  0  0
  1  2  2  0  0  0
  1 26  1  0  0  0
  1 33  1  0  0  0
  2  3  1  0  0  0
  2 34  1  0  0  0
  3  4  2  0  0  0
  3  5  1  0  0  0
  4 27  1  0  0  0
  4 35  1  0  0  0
  5  7  2  0  0  0
  5  6  1  0  0  0
  6  8  1  0  0  0
  6 12  1  0  0  0
  8  9  1  0  0  0
  8 36  1  0  0  0
  8 37  1  0  0  0
  9 10  1  0  0  0
  9 38  1  0  0  0
  9 39  1  0  0  0
 10 11  1  0  0  0
 10 13  1  0  0  0
 11 12  1  0  0  0
 11 40  1  0  0  0
 11 41  1  0  0  0
 12 42  1  0  0  0
 12 43  1  0  0  0
 13 21  1  0  0  0
 13 14  1  0  0  0
 13 44  1  0  0  0
 14 15  2  0  0  0
 14 19  1  0  0  0
 15 16  1  0  0  0
 15 45  1  0  0  0
 16 17  2  0  0  0
 16 46  1  0  0  0
 17 18  1  0  0  0
 17 31  1  0  0  0
 18 19  2  0  0  0
 18 47  1  0  0  0
 19 48  1  0  0  0
 20 21  2  0  0  0
 20 25  1  0  0  0
 20 49  1  0  0  0
 21 22  1  0  0  0
 22 23  2  0  0  0
 22 50  1  0  0  0
 23 24  1  0  0  0
 23 51  1  0  0  0
 24 25  2  0  0  0
 24 32  1  0  0  0
 25 52  1  0  0  0
 26 27  2  0  0  0
 26 30  1  0  0  0
 27 28  1  0  0  0
 28 29  2  0  0  0
 28 53  1  0  0  0
 29 30  1  0  0  0
 29 54  1  0  0  0
 30 55  1  0  0  0
M  END
> <s_m_entry_id>
8287

> <s_m_entry_name>
dock_pv.82

> <s_m_Source_Path>
/home/csk/Desktop/cluster/DUD-E-result/inha

> <s_m_Source_File>
dock_pv.maegz

> <i_m_Source_File_Index>
82

> <chembl_id>
CHEMBL240739

> <chembl_pref_name>
None

> <i_lp_mmshare_version>
53161

> <r_lp_tautomer_probability>
1

> <s_lp_Force_Field>
OPLS_2005

> <r_lp_Energy>
57.025593

> <b_lp_Chiralities_Consistent>
1

> <s_lp_Variant>
CHEMBL1849_lig57-1

> <s_i_glide_gridfile>
glide-grid_2h7l

> <i_i_glide_lignum>
107

> <i_i_glide_rotatable_bonds>
5

> <r_i_docking_score>
-7.35023478497871

> <r_i_glide_ligand_efficiency>
-0.229694837030585

> <r_i_glide_ligand_efficiency_sa>
-0.729235651025583

> <r_i_glide_ligand_efficiency_ln>
-1.64591792818975

> <r_i_glide_gscore>
-7.35023478497871

> <r_i_glide_lipo>
-3.49496102412111

> <r_i_glide_hbond>
0

> <r_i_glide_metal>
0

> <r_i_glide_rewards>
-1.98569624122788

> <r_i_glide_evdw>
-41.9198799133301

> <r_i_glide_ecoul>
-2.05180692672729

> <r_i_glide_erotb>
0.534187515045869

> <r_i_glide_esite>
0

> <r_i_glide_emodel>
-58.6914186285964

> <r_i_glide_energy>
-43.9716868400574

> <r_i_glide_einternal>
8.80644512176514

> <i_i_glide_confnum>
150

> <i_i_glide_posenum>
358

> <r_i_glide_eff_state_penalty>
0

> <s_user_duplicate_titles>
CHEMBL1849_lig57

> <i_f3d_flags>
0

> <s_m_subgroup_title>
dock_pv

> <s_m_subgroupid>
dock_pv

> <b_m_subgroup_collapsed>
0

$$$$
CHEMBL1849_lig201
                    3D
 Schrodinger Suite 2021-1.
 49 53  0  0  1  0            999 V2000
   10.6839   32.7216   61.9276 C   0  0  0  0  0  0
   11.3638   33.9261   61.7637 C   0  0  0  0  0  0
   10.8666   34.9070   60.9113 C   0  0  0  0  0  0
    9.6737   34.6852   60.2286 C   0  0  0  0  0  0
    8.9615   33.4843   60.3971 C   0  0  0  0  0  0
    9.5003   32.4924   61.2281 C   0  0  0  0  0  0
   12.5191   34.1370   62.4332 F   0  0  0  0  0  0
    7.6997   33.2553   59.5896 C   0  0  0  0  0  0
    6.6097   32.6253   60.1256 N   0  0  0  0  0  0
    7.7037   33.6708   58.4283 O   0  0  0  0  0  0
    6.4448   32.1771   61.5171 C   0  0  0  0  0  0
    6.1536   30.6596   61.5012 C   0  0  0  0  0  0
    4.9733   30.2941   60.6970 N   0  0  0  0  0  0
    5.0792   30.8747   59.3432 C   0  0  0  0  0  0
    5.4111   32.3858   59.3042 C   0  0  0  0  0  0
    4.7029   28.8257   60.6537 C   0  0  0  0  0  0
    3.3140   27.7604   62.3160 C   0  0  0  0  0  0
    4.6162   28.1801   62.0421 C   0  0  0  0  0  0
    5.6213   27.9269   62.9860 C   0  0  0  0  0  0
    5.3047   27.3608   64.2208 C   0  0  0  0  0  0
    3.9865   27.0090   64.5106 C   0  0  0  0  0  0
    2.9894   27.1954   63.5522 C   0  0  0  0  0  0
    3.2990   28.5188   60.1180 C   0  0  0  0  0  0
    2.4945   27.9685   61.1171 C   0  0  0  0  0  0
    1.1563   27.6553   60.8698 C   0  0  0  0  0  0
    0.6236   27.8527   59.5956 C   0  0  0  0  0  0
    1.4322   28.3441   58.5734 C   0  0  0  0  0  0
    2.7637   28.6681   58.8322 C   0  0  0  0  0  0
   11.0859   31.9644   62.5828 H   0  0  0  0  0  0
   11.4048   35.8350   60.7810 H   0  0  0  0  0  0
    9.3051   35.4600   59.5702 H   0  0  0  0  0  0
    9.0157   31.5317   61.3390 H   0  0  0  0  0  0
    7.2786   32.4130   62.1712 H   0  0  0  0  0  0
    5.5936   32.7023   61.9538 H   0  0  0  0  0  0
    5.9989   30.3719   62.5396 H   0  0  0  0  0  0
    7.0187   30.1146   61.1183 H   0  0  0  0  0  0
    4.1369   30.7699   58.8155 H   0  0  0  0  0  0
    5.8481   30.3231   58.7987 H   0  0  0  0  0  0
    4.5770   32.9506   59.7257 H   0  0  0  0  0  0
    5.5154   32.7209   58.2722 H   0  0  0  0  0  0
    5.4648   28.3212   60.0572 H   0  0  0  0  0  0
    6.6486   28.1881   62.7807 H   0  0  0  0  0  0
    6.0824   27.2005   64.9536 H   0  0  0  0  0  0
    3.7424   26.5707   65.4673 H   0  0  0  0  0  0
    1.9812   26.8803   63.7701 H   0  0  0  0  0  0
    0.5315   27.2386   61.6454 H   0  0  0  0  0  0
   -0.4090   27.6060   59.3969 H   0  0  0  0  0  0
    1.0286   28.4856   57.5815 H   0  0  0  0  0  0
    3.3752   29.0342   58.0277 H   0  0  0  0  0  0
  1  6  1  0  0  0
  1  2  2  0  0  0
  1 29  1  0  0  0
  2  3  1  0  0  0
  2  7  1  0  0  0
  3  4  2  0  0  0
  3 30  1  0  0  0
  4  5  1  0  0  0
  4 31  1  0  0  0
  5  8  1  0  0  0
  5  6  2  0  0  0
  6 32  1  0  0  0
  8  9  1  0  0  0
  8 10  2  0  0  0
  9 11  1  0  0  0
  9 15  1  0  0  0
 11 12  1  0  0  0
 11 33  1  0  0  0
 11 34  1  0  0  0
 12 13  1  0  0  0
 12 35  1  0  0  0
 12 36  1  0  0  0
 13 14  1  0  0  0
 13 16  1  0  0  0
 14 15  1  0  0  0
 14 37  1  0  0  0
 14 38  1  0  0  0
 15 39  1  0  0  0
 15 40  1  0  0  0
 16 18  1  0  0  0
 16 23  1  0  0  0
 16 41  1  0  0  0
 17 24  1  0  0  0
 17 18  2  0  0  0
 17 22  1  0  0  0
 18 19  1  0  0  0
 19 20  2  0  0  0
 19 42  1  0  0  0
 20 21  1  0  0  0
 20 43  1  0  0  0
 21 22  2  0  0  0
 21 44  1  0  0  0
 22 45  1  0  0  0
 23 24  2  0  0  0
 23 28  1  0  0  0
 24 25  1  0  0  0
 25 26  2  0  0  0
 25 46  1  0  0  0
 26 27  1  0  0  0
 26 47  1  0  0  0
 27 28  2  0  0  0
 27 48  1  0  0  0
 28 49  1  0  0  0
M  END
> <s_m_entry_id>
8288

> <s_m_entry_name>
dock_pv.83

> <s_m_Source_Path>
/home/csk/Desktop/cluster/DUD-E-result/inha

> <s_m_Source_File>
dock_pv.maegz

> <i_m_Source_File_Index>
83

> <chembl_id>
CHEMBL1223644

> <chembl_pref_name>
None

> <i_lp_mmshare_version>
53161

> <r_lp_tautomer_probability>
1

> <s_lp_Force_Field>
OPLS_2005

> <r_lp_Energy>
74.168675

> <b_lp_Chiralities_Consistent>
1

> <s_lp_Variant>
CHEMBL1849_lig201-1

> <s_i_glide_gridfile>
glide-grid_2h7l

> <i_i_glide_lignum>
268

> <i_i_glide_rotatable_bonds>
3

> <r_i_docking_score>
-7.34610547763593

> <r_i_glide_ligand_efficiency>
-0.262360909915569

> <r_i_glide_ligand_efficiency_sa>
-0.796682244815978

> <r_i_glide_ligand_efficiency_ln>
-1.69569683526756

> <r_i_glide_gscore>
-7.34610547763593

> <r_i_glide_lipo>
-3.05948966305647

> <r_i_glide_hbond>
0

> <r_i_glide_metal>
0

> <r_i_glide_rewards>
-2.6918688869046

> <r_i_glide_evdw>
-39.7513236999512

> <r_i_glide_ecoul>
-0.16606941819191

> <r_i_glide_erotb>
0.417729670051487

> <r_i_glide_esite>
0

> <r_i_glide_emodel>
-55.1768418715118

> <r_i_glide_energy>
-39.9173931181431

> <r_i_glide_einternal>
4.32310771942139

> <i_i_glide_confnum>
21

> <i_i_glide_posenum>
48

> <r_i_glide_eff_state_penalty>
0

> <s_user_duplicate_titles>
CHEMBL1849_lig201

> <i_f3d_flags>
0

> <s_m_subgroup_title>
dock_pv

> <s_m_subgroupid>
dock_pv

> <b_m_subgroup_collapsed>
0

$$$$
CHEMBL1849_lig107
                    3D
 Schrodinger Suite 2021-1.
 40 42  0  0  1  0            999 V2000
    8.9091   34.1787   60.0429 C   0  0  0  0  0  0
    7.8021   33.9066   60.7618 N   0  0  0  0  0  0
    4.5193   30.0257   59.3018 C   0  0  1  0  0  0
    3.0273   30.3339   59.0600 C   0  0  0  0  0  0
    5.0322   29.6820   58.0282 O   0  0  0  0  0  0
    6.7388   33.0925   60.4170 C   0  0  0  0  0  0
    6.8224   31.8077   59.2388 S   0  0  0  0  0  0
    5.2611   31.2649   59.8154 C   0  0  0  0  0  0
    4.7947   32.0359   60.7764 N   0  0  0  0  0  0
    5.6422   33.0786   61.1274 N   0  0  0  0  0  0
    4.7526   28.8394   60.2508 C   0  0  0  0  0  0
    3.5019   27.9971   61.1316 S   0  0  0  0  0  0
    4.7161   26.9805   61.8363 C   0  0  0  0  0  0
    5.9620   27.3575   61.3571 C   0  0  0  0  0  0
    5.9545   28.3593   60.4971 N   0  0  0  0  0  0
    7.3081   26.7636   61.7007 C   0  0  0  0  0  0
    9.0481   33.9258   58.8466 O   0  0  0  0  0  0
   10.0376   34.8892   60.8153 C   0  0  0  0  0  0
   11.0287   34.0242   61.6275 C   0  0  0  0  0  0
   12.2239   34.6276   62.0434 C   0  0  0  0  0  0
   13.1541   33.9335   62.8174 C   0  0  0  0  0  0
   12.8933   32.6293   63.2252 C   0  0  0  0  0  0
   11.7018   32.0198   62.8413 C   0  0  0  0  0  0
   10.7774   32.7046   62.0524 C   0  0  0  0  0  0
   12.4656   35.9225   61.7523 F   0  0  0  0  0  0
    9.6224   32.0698   61.7588 F   0  0  0  0  0  0
    7.7571   34.2983   61.6915 H   0  0  0  0  0  0
    2.5043   30.5542   59.9923 H   0  0  0  0  0  0
    2.9124   31.2166   58.4301 H   0  0  0  0  0  0
    2.5004   29.5080   58.5807 H   0  0  0  0  0  0
    4.3729   29.1675   57.5482 H   0  0  0  0  0  0
    4.4660   26.1981   62.5367 H   0  0  0  0  0  0
    7.2274   25.9745   62.4480 H   0  0  0  0  0  0
    7.7855   26.3219   60.8271 H   0  0  0  0  0  0
    7.9946   27.5113   62.0998 H   0  0  0  0  0  0
    9.6001   35.6004   61.5124 H   0  0  0  0  0  0
   10.5959   35.4837   60.0896 H   0  0  0  0  0  0
   14.0675   34.4209   63.1259 H   0  0  0  0  0  0
   13.6054   32.0976   63.8402 H   0  0  0  0  0  0
   11.4813   31.0158   63.1698 H   0  0  0  0  0  0
  1  2  1  0  0  0
  1 17  2  0  0  0
  1 18  1  0  0  0
  2  6  1  0  0  0
  2 27  1  0  0  0
  3  4  1  0  0  0
  3  5  1  0  0  0
  3  8  1  0  0  0
  3 11  1  0  0  0
  4 28  1  0  0  0
  4 29  1  0  0  0
  4 30  1  0  0  0
  5 31  1  0  0  0
  6  7  1  0  0  0
  6 10  2  0  0  0
  7  8  1  0  0  0
  8  9  2  0  0  0
  9 10  1  0  0  0
 11 12  1  0  0  0
 11 15  2  0  0  0
 12 13  1  0  0  0
 13 14  2  0  0  0
 13 32  1  0  0  0
 14 15  1  0  0  0
 14 16  1  0  0  0
 16 33  1  0  0  0
 16 34  1  0  0  0
 16 35  1  0  0  0
 18 19  1  0  0  0
 18 36  1  0  0  0
 18 37  1  0  0  0
 19 20  2  0  0  0
 19 24  1  0  0  0
 20 21  1  0  0  0
 20 25  1  0  0  0
 21 22  2  0  0  0
 21 38  1  0  0  0
 22 23  1  0  0  0
 22 39  1  0  0  0
 23 24  2  0  0  0
 23 40  1  0  0  0
 24 26  1  0  0  0
M  END
> <s_m_entry_id>
8289

> <s_m_entry_name>
dock_pv.84

> <s_m_Source_Path>
/home/csk/Desktop/cluster/DUD-E-result/inha

> <s_m_Source_File>
dock_pv.maegz

> <i_m_Source_File_Index>
84

> <chembl_id>
CHEMBL3088176

> <chembl_pref_name>
None

> <i_lp_mmshare_version>
53161

> <r_lp_tautomer_probability>
1

> <s_lp_Force_Field>
OPLS_2005

> <r_lp_Energy>
3.413905

> <b_lp_Chiralities_Consistent>
1

> <s_lp_Variant>
CHEMBL1849_lig107-2

> <s_i_glide_gridfile>
glide-grid_2h7l

> <i_i_glide_lignum>
164

> <i_i_glide_rotatable_bonds>
7

> <r_i_docking_score>
-7.34085165754252

> <r_i_glide_ligand_efficiency>
-0.28234044836702

> <r_i_glide_ligand_efficiency_sa>
-0.836432467331279

> <r_i_glide_ligand_efficiency_ln>
-1.72397492447492

> <r_i_glide_gscore>
-7.34085165754252

> <r_i_glide_lipo>
-2.98794904644127

> <r_i_glide_hbond>
-0.238154427056127

> <r_i_glide_metal>
0

> <r_i_glide_rewards>
-2.13013435622198

> <r_i_glide_evdw>
-39.0436019897461

> <r_i_glide_ecoul>
-4.36583185195923

> <r_i_glide_erotb>
0.622441049458052

> <r_i_glide_esite>
0

> <r_i_glide_emodel>
-57.3937117652676

> <r_i_glide_energy>
-43.4094338417053

> <r_i_glide_einternal>
12.918309211731

> <i_i_glide_confnum>
5

> <i_i_glide_posenum>
144

> <r_i_glide_eff_state_penalty>
0

> <s_user_duplicate_titles>
CHEMBL1849_lig107

> <i_f3d_flags>
0

> <s_m_subgroup_title>
dock_pv

> <s_m_subgroupid>
dock_pv

> <b_m_subgroup_collapsed>
0

$$$$
CHEMBL1849_lig12
                    3D
 Schrodinger Suite 2021-1.
 47 49  0  0  1  0            999 V2000
    6.1977   30.7558   58.1259 C   0  0  0  0  0  0
    6.0765   29.2362   58.0371 C   0  0  0  0  0  0
    6.5670   28.7176   59.3859 C   0  0  1  0  0  0
    6.2429   29.8710   60.3076 C   0  0  0  0  0  0
    6.3841   31.0484   59.4430 N   0  0  0  0  0  0
    6.3446   32.4219   59.9980 C   0  0  0  0  0  0
    6.8368   32.4853   61.4680 C   0  0  0  0  0  0
    8.3351   32.1025   61.5766 C   0  0  0  0  0  0
    9.2050   33.0877   60.7743 C   0  0  0  0  0  0
    8.7173   33.1827   59.3110 C   0  0  0  0  0  0
    7.2058   33.4768   59.2422 C   0  0  0  0  0  0
    5.9281   27.4112   59.8973 C   0  0  0  0  0  0
    5.3040   26.6971   59.1173 O   0  0  0  0  0  0
    5.5831   26.0262   61.9233 C   0  0  0  0  0  0
    5.2586   26.2288   63.2771 C   0  0  0  0  0  0
    4.7150   25.1598   64.0117 C   0  0  0  0  0  0
    4.5039   23.9188   63.4114 C   0  0  0  0  0  0
    4.8553   23.7164   62.0794 C   0  0  0  0  0  0
    5.3950   24.7636   61.3395 C   0  0  0  0  0  0
    6.1036   31.5193   57.1641 O   0  0  0  0  0  0
    5.4806   27.4890   63.8114 O   0  0  0  0  0  0
    5.1243   27.7541   65.1653 C   0  0  0  0  0  0
    4.6230   22.1720   61.3421 Cl  0  0  0  0  0  0
    6.1012   27.1217   61.2056 N   0  0  0  0  0  0
    6.7369   28.9274   57.2274 H   0  0  0  0  0  0
    5.0446   28.9706   57.8027 H   0  0  0  0  0  0
    7.6449   28.5357   59.3793 H   0  0  0  0  0  0
    5.1918   29.8546   60.6044 H   0  0  0  0  0  0
    6.8488   29.8689   61.2111 H   0  0  0  0  0  0
    5.2969   32.7275   59.9593 H   0  0  0  0  0  0
    6.6880   33.4968   61.8413 H   0  0  0  0  0  0
    6.2258   31.8577   62.1154 H   0  0  0  0  0  0
    8.6597   32.0207   62.6132 H   0  0  0  0  0  0
    8.5036   31.1171   61.1576 H   0  0  0  0  0  0
    9.1602   34.0796   61.2278 H   0  0  0  0  0  0
   10.2513   32.7858   60.8309 H   0  0  0  0  0  0
    9.2802   33.9490   58.7769 H   0  0  0  0  0  0
    8.9041   32.2408   58.7942 H   0  0  0  0  0  0
    6.9038   33.5305   58.2025 H   0  0  0  0  0  0
    7.0112   34.4673   59.6525 H   0  0  0  0  0  0
    4.4399   25.2739   65.0491 H   0  0  0  0  0  0
    4.0795   23.1064   63.9848 H   0  0  0  0  0  0
    5.6724   24.5818   60.3123 H   0  0  0  0  0  0
    5.3049   28.8067   65.3833 H   0  0  0  0  0  0
    4.0663   27.5648   65.3554 H   0  0  0  0  0  0
    5.7259   27.1644   65.8587 H   0  0  0  0  0  0
    6.5363   27.8258   61.7827 H   0  0  0  0  0  0
  1  2  1  0  0  0
  1  5  1  0  0  0
  1 20  2  0  0  0
  2  3  1  0  0  0
  2 25  1  0  0  0
  2 26  1  0  0  0
  3  4  1  0  0  0
  3 12  1  0  0  0
  3 27  1  0  0  0
  4  5  1  0  0  0
  4 28  1  0  0  0
  4 29  1  0  0  0
  5  6  1  0  0  0
  6  7  1  0  0  0
  6 11  1  0  0  0
  6 30  1  0  0  0
  7  8  1  0  0  0
  7 31  1  0  0  0
  7 32  1  0  0  0
  8  9  1  0  0  0
  8 33  1  0  0  0
  8 34  1  0  0  0
  9 10  1  0  0  0
  9 35  1  0  0  0
  9 36  1  0  0  0
 10 11  1  0  0  0
 10 37  1  0  0  0
 10 38  1  0  0  0
 11 39  1  0  0  0
 11 40  1  0  0  0
 12 13  2  0  0  0
 12 24  1  0  0  0
 14 15  2  0  0  0
 14 19  1  0  0  0
 14 24  1  0  0  0
 15 16  1  0  0  0
 15 21  1  0  0  0
 16 17  2  0  0  0
 16 41  1  0  0  0
 17 18  1  0  0  0
 17 42  1  0  0  0
 18 19  2  0  0  0
 18 23  1  0  0  0
 19 43  1  0  0  0
 21 22  1  0  0  0
 22 44  1  0  0  0
 22 45  1  0  0  0
 22 46  1  0  0  0
 24 47  1  0  0  0
M  END
> <s_m_entry_id>
8290

> <s_m_entry_name>
dock_pv.85

> <s_m_Source_Path>
/home/csk/Desktop/cluster/DUD-E-result/inha

> <s_m_Source_File>
dock_pv.maegz

> <i_m_Source_File_Index>
85

> <chembl_id>
CHEMBL384149

> <chembl_pref_name>
None

> <i_lp_mmshare_version>
53161

> <r_lp_tautomer_probability>
1

> <s_lp_Force_Field>
OPLS_2005

> <r_lp_Energy>
35.836276

> <b_lp_Chiralities_Consistent>
1

> <s_lp_Variant>
CHEMBL1849_lig12-2

> <s_i_glide_gridfile>
glide-grid_2h7l

> <i_i_glide_lignum>
13

> <i_i_glide_rotatable_bonds>
5

> <r_i_docking_score>
-7.33847426216756

> <r_i_glide_ligand_efficiency>
-0.305769760923648

> <r_i_glide_ligand_efficiency_sa>
-0.881992611675921

> <r_i_glide_ligand_efficiency_ln>
-1.75643363157827

> <r_i_glide_gscore>
-7.33847426216756

> <r_i_glide_lipo>
-2.86201305560251

> <r_i_glide_hbond>
-0.516436797060018

> <r_i_glide_metal>
0

> <r_i_glide_rewards>
-1.89318855129642

> <r_i_glide_evdw>
-34.5389099121094

> <r_i_glide_ecoul>
-6.39645195007324

> <r_i_glide_erotb>
0.61957742990784

> <r_i_glide_esite>
0

> <r_i_glide_emodel>
-56.710687358276

> <r_i_glide_energy>
-40.9353618621826

> <r_i_glide_einternal>
3.5610294342041

> <i_i_glide_confnum>
45

> <i_i_glide_posenum>
268

> <r_i_glide_eff_state_penalty>
0

> <s_user_duplicate_titles>
CHEMBL1849_lig12

> <i_f3d_flags>
0

> <s_m_subgroup_title>
dock_pv

> <s_m_subgroupid>
dock_pv

> <b_m_subgroup_collapsed>
0

$$$$
CHEMBL1849_lig17
                    3D
 Schrodinger Suite 2021-1.
 43 45  0  0  1  0            999 V2000
    4.9790   32.3215   60.1956 C   0  0  0  0  0  0
    5.8748   33.5221   59.9108 C   0  0  0  0  0  0
    7.1506   32.9891   59.2709 C   0  0  2  0  0  0
    6.6945   31.6307   58.7457 C   0  0  0  0  0  0
    5.5511   31.2485   59.5896 N   0  0  0  0  0  0
    4.8591   29.9363   59.5158 C   0  0  0  0  0  0
    5.6746   28.8064   58.8273 C   0  0  0  0  0  0
    6.8947   28.3207   59.6478 C   0  0  0  0  0  0
    6.5023   27.9026   61.0784 C   0  0  0  0  0  0
    5.6340   28.9680   61.7765 C   0  0  0  0  0  0
    4.4258   29.3439   60.8932 C   0  0  0  0  0  0
    8.2734   32.8672   60.3308 C   0  0  0  0  0  0
    9.1911   33.8598   60.3447 N   0  0  0  0  0  0
    8.2614   31.9214   61.1183 O   0  0  0  0  0  0
   10.3310   33.9849   61.1588 C   0  0  0  0  0  0
   10.9224   35.2499   61.2278 C   0  0  0  0  0  0
   12.0445   35.4536   62.0293 C   0  0  0  0  0  0
   12.6474   34.3847   62.6844 C   0  0  0  0  0  0
   12.0754   33.1205   62.6090 C   0  0  0  0  0  0
   10.9053   32.9227   61.8787 C   0  0  0  0  0  0
    3.9279   32.3828   60.8281 O   0  0  0  0  0  0
   12.5028   36.7022   62.2462 F   0  0  0  0  0  0
   12.6635   32.0742   63.2275 F   0  0  0  0  0  0
    6.0446   33.9995   60.8782 H   0  0  0  0  0  0
    5.3747   34.2685   59.2906 H   0  0  0  0  0  0
    7.4922   33.6442   58.4678 H   0  0  0  0  0  0
    6.3497   31.7284   57.7161 H   0  0  0  0  0  0
    7.5082   30.9101   58.7048 H   0  0  0  0  0  0
    3.9637   30.1158   58.9154 H   0  0  0  0  0  0
    5.0130   27.9569   58.6617 H   0  0  0  0  0  0
    5.9873   29.1203   57.8300 H   0  0  0  0  0  0
    7.3664   27.4800   59.1403 H   0  0  0  0  0  0
    7.6576   29.0946   59.7105 H   0  0  0  0  0  0
    5.9546   26.9602   61.0404 H   0  0  0  0  0  0
    7.4014   27.7091   61.6684 H   0  0  0  0  0  0
    5.2928   28.5938   62.7427 H   0  0  0  0  0  0
    6.2317   29.8571   61.9876 H   0  0  0  0  0  0
    3.7646   30.0193   61.4347 H   0  0  0  0  0  0
    3.8127   28.4554   60.7256 H   0  0  0  0  0  0
    9.0227   34.6442   59.7345 H   0  0  0  0  0  0
   10.5035   36.0975   60.7103 H   0  0  0  0  0  0
   13.5377   34.5400   63.2712 H   0  0  0  0  0  0
   10.5003   31.9234   61.8597 H   0  0  0  0  0  0
  1  2  1  0  0  0
  1  5  1  0  0  0
  1 21  2  0  0  0
  2  3  1  0  0  0
  2 24  1  0  0  0
  2 25  1  0  0  0
  3 12  1  0  0  0
  3  4  1  0  0  0
  3 26  1  0  0  0
  4  5  1  0  0  0
  4 27  1  0  0  0
  4 28  1  0  0  0
  5  6  1  0  0  0
  6  7  1  0  0  0
  6 11  1  0  0  0
  6 29  1  0  0  0
  7  8  1  0  0  0
  7 30  1  0  0  0
  7 31  1  0  0  0
  8  9  1  0  0  0
  8 32  1  0  0  0
  8 33  1  0  0  0
  9 10  1  0  0  0
  9 34  1  0  0  0
  9 35  1  0  0  0
 10 11  1  0  0  0
 10 36  1  0  0  0
 10 37  1  0  0  0
 11 38  1  0  0  0
 11 39  1  0  0  0
 12 13  1  0  0  0
 12 14  2  0  0  0
 13 15  1  0  0  0
 13 40  1  0  0  0
 15 16  2  0  0  0
 15 20  1  0  0  0
 16 17  1  0  0  0
 16 41  1  0  0  0
 17 18  2  0  0  0
 17 22  1  0  0  0
 18 19  1  0  0  0
 18 42  1  0  0  0
 19 20  2  0  0  0
 19 23  1  0  0  0
 20 43  1  0  0  0
M  END
> <s_m_entry_id>
8291

> <s_m_entry_name>
dock_pv.86

> <s_m_Source_Path>
/home/csk/Desktop/cluster/DUD-E-result/inha

> <s_m_Source_File>
dock_pv.maegz

> <i_m_Source_File_Index>
86

> <chembl_id>
CHEMBL385294

> <chembl_pref_name>
None

> <i_lp_mmshare_version>
53161

> <r_lp_tautomer_probability>
1

> <s_lp_Force_Field>
OPLS_2005

> <r_lp_Energy>
32.964418

> <b_lp_Chiralities_Consistent>
1

> <s_lp_Variant>
CHEMBL1849_lig17-1

> <s_i_glide_gridfile>
glide-grid_2h7l

> <i_i_glide_lignum>
22

> <i_i_glide_rotatable_bonds>
4

> <r_i_docking_score>
-7.3266041846136

> <r_i_glide_ligand_efficiency>
-0.318548008026678

> <r_i_glide_ligand_efficiency_sa>
-0.905908160577739

> <r_i_glide_ligand_efficiency_ln>
-1.77163932581332

> <r_i_glide_gscore>
-7.3266041846136

> <r_i_glide_lipo>
-2.96913019894398

> <r_i_glide_hbond>
0

> <r_i_glide_metal>
0

> <r_i_glide_rewards>
-3.18124618762605

> <r_i_glide_evdw>
-38.053653717041

> <r_i_glide_ecoul>
0.0442028418183327

> <r_i_glide_erotb>
0.719824461535726

> <r_i_glide_esite>
0

> <r_i_glide_emodel>
-53.8105938093871

> <r_i_glide_energy>
-38.0094508752227

> <r_i_glide_einternal>
4.00836038589478

> <i_i_glide_confnum>
29

> <i_i_glide_posenum>
353

> <r_i_glide_eff_state_penalty>
0

> <s_user_duplicate_titles>
CHEMBL1849_lig17

> <i_f3d_flags>
0

> <s_m_subgroup_title>
dock_pv

> <s_m_subgroupid>
dock_pv

> <b_m_subgroup_collapsed>
0

$$$$
CHEMBL1849_lig73
                    3D
 Schrodinger Suite 2021-1.
 49 50  0  0  1  0            999 V2000
    4.6903   29.7035   59.0227 C   0  0  0  0  0  0
    5.5364   28.5950   59.1276 C   0  0  0  0  0  0
    6.8914   28.7325   58.8143 C   0  0  0  0  0  0
    7.3999   29.9727   58.4331 C   0  0  0  0  0  0
    6.5643   31.0927   58.3669 C   0  0  0  0  0  0
    5.1970   30.9452   58.6327 C   0  0  0  0  0  0
    7.0756   32.3278   58.0273 O   0  0  0  0  0  0
    8.0357   32.9540   58.7993 C   0  0  0  0  0  0
    8.3194   32.5777   60.1144 C   0  0  0  0  0  0
    9.3036   33.2438   60.8281 C   0  0  0  0  0  0
    9.9991   34.3218   60.2656 C   0  0  0  0  0  0
    9.6942   34.7222   58.9658 C   0  0  0  0  0  0
    8.7235   34.0325   58.2396 C   0  0  0  0  0  0
    4.3468   32.0175   58.5303 O   0  0  0  0  0  0
    4.9907   27.2428   59.5672 C   0  0  0  0  0  0
    5.4577   26.8075   60.9722 C   0  0  0  0  0  0
    4.9778   27.7312   62.1126 C   0  0  0  0  0  0
    5.3417   27.1964   63.5103 C   0  0  0  0  0  0
    4.8404   28.0978   64.6538 C   0  0  0  0  0  0
    5.1314   27.5153   66.0434 C   0  0  0  0  0  0
   11.0323   35.0048   60.9300 N   0  0  0  0  0  0
   11.8514   34.5196   61.8889 C   0  0  0  0  0  0
   12.9040   35.4817   62.4073 C   0  0  0  0  0  0
   11.8143   33.3814   62.3553 O   0  0  0  0  0  0
    3.6386   29.6015   59.2475 H   0  0  0  0  0  0
    7.5571   27.8833   58.8783 H   0  0  0  0  0  0
    8.4523   30.0716   58.2139 H   0  0  0  0  0  0
    7.7910   31.7644   60.5890 H   0  0  0  0  0  0
    9.5047   32.9147   61.8359 H   0  0  0  0  0  0
   10.2208   35.5437   58.5031 H   0  0  0  0  0  0
    8.5066   34.3376   57.2290 H   0  0  0  0  0  0
    3.4527   31.8330   58.8348 H   0  0  0  0  0  0
    3.9000   27.2445   59.5242 H   0  0  0  0  0  0
    5.3033   26.4967   58.8358 H   0  0  0  0  0  0
    5.0926   25.7945   61.1539 H   0  0  0  0  0  0
    6.5463   26.7358   60.9931 H   0  0  0  0  0  0
    5.4067   28.7260   61.9832 H   0  0  0  0  0  0
    3.8961   27.8525   62.0463 H   0  0  0  0  0  0
    4.9251   26.1946   63.6318 H   0  0  0  0  0  0
    6.4250   27.0867   63.5867 H   0  0  0  0  0  0
    5.3034   29.0825   64.5744 H   0  0  0  0  0  0
    3.7667   28.2584   64.5532 H   0  0  0  0  0  0
    4.8199   28.2048   66.8289 H   0  0  0  0  0  0
    4.6007   26.5762   66.1974 H   0  0  0  0  0  0
    6.1940   27.3198   66.1762 H   0  0  0  0  0  0
   11.2440   35.9233   60.5703 H   0  0  0  0  0  0
   12.4923   36.4815   62.5557 H   0  0  0  0  0  0
   13.7270   35.5327   61.6979 H   0  0  0  0  0  0
   13.2986   35.1210   63.3564 H   0  0  0  0  0  0
  1  6  1  0  0  0
  1  2  2  0  0  0
  1 25  1  0  0  0
  2 15  1  0  0  0
  2  3  1  0  0  0
  3  4  2  0  0  0
  3 26  1  0  0  0
  4  5  1  0  0  0
  4 27  1  0  0  0
  5  7  1  0  0  0
  5  6  2  0  0  0
  6 14  1  0  0  0
  7  8  1  0  0  0
  8 13  1  0  0  0
  8  9  2  0  0  0
  9 10  1  0  0  0
  9 28  1  0  0  0
 10 11  2  0  0  0
 10 29  1  0  0  0
 11 12  1  0  0  0
 11 21  1  0  0  0
 12 13  2  0  0  0
 12 30  1  0  0  0
 13 31  1  0  0  0
 14 32  1  0  0  0
 15 16  1  0  0  0
 15 33  1  0  0  0
 15 34  1  0  0  0
 16 17  1  0  0  0
 16 35  1  0  0  0
 16 36  1  0  0  0
 17 18  1  0  0  0
 17 37  1  0  0  0
 17 38  1  0  0  0
 18 19  1  0  0  0
 18 39  1  0  0  0
 18 40  1  0  0  0
 19 20  1  0  0  0
 19 41  1  0  0  0
 19 42  1  0  0  0
 20 43  1  0  0  0
 20 44  1  0  0  0
 20 45  1  0  0  0
 21 22  1  0  0  0
 21 46  1  0  0  0
 22 23  1  0  0  0
 22 24  2  0  0  0
 23 47  1  0  0  0
 23 48  1  0  0  0
 23 49  1  0  0  0
M  END
> <s_m_entry_id>
8292

> <s_m_entry_name>
dock_pv.87

> <s_m_Source_Path>
/home/csk/Desktop/cluster/DUD-E-result/inha

> <s_m_Source_File>
dock_pv.maegz

> <i_m_Source_File_Index>
87

> <chembl_id>
CHEMBL262360

> <chembl_pref_name>
None

> <i_lp_mmshare_version>
53161

> <r_lp_tautomer_probability>
0.999999999999776

> <s_lp_Force_Field>
OPLS_2005

> <r_lp_Energy>
17.495258

> <b_lp_Chiralities_Consistent>
1

> <s_lp_Variant>
CHEMBL1849_lig73-1

> <s_i_glide_gridfile>
glide-grid_2h7l

> <i_i_glide_lignum>
123

> <i_i_glide_rotatable_bonds>
10

> <r_i_docking_score>
-7.32092581886893

> <r_i_glide_ligand_efficiency>
-0.305038575786205

> <r_i_glide_ligand_efficiency_sa>
-0.879883508777572

> <r_i_glide_ligand_efficiency_ln>
-1.75223348385132

> <r_i_glide_gscore>
-7.32092581886893

> <r_i_glide_lipo>
-4.26413497744442

> <r_i_glide_hbond>
-0.0339378839570961

> <r_i_glide_metal>
0

> <r_i_glide_rewards>
-1.55973155072543

> <r_i_glide_evdw>
-42.2218246459961

> <r_i_glide_ecoul>
-3.85014200210571

> <r_i_glide_erotb>
1.22549112587367

> <r_i_glide_esite>
0

> <r_i_glide_emodel>
-64.9320052729247

> <r_i_glide_energy>
-46.0719666481018

> <r_i_glide_einternal>
3.72430300712585

> <i_i_glide_confnum>
14

> <i_i_glide_posenum>
338

> <r_i_glide_eff_state_penalty>
0

> <s_user_duplicate_titles>
CHEMBL1849_lig73,428287

> <i_f3d_flags>
0

> <s_m_subgroup_title>
dock_pv

> <s_m_subgroupid>
dock_pv

> <b_m_subgroup_collapsed>
0

$$$$
CHEMBL1849_lig198
                    3D
 Schrodinger Suite 2021-1.
 49 53  0  0  1  0            999 V2000
    7.7113   33.3058   59.6309 C   0  0  0  0  0  0
    7.7044   33.7236   58.4721 O   0  0  0  0  0  0
    8.9868   33.5099   60.4254 C   0  0  0  0  0  0
    9.5384   32.4983   61.2287 C   0  0  0  0  0  0
   10.7158   32.7222   61.9521 C   0  0  0  0  0  0
   11.3949   33.9308   61.8258 C   0  0  0  0  0  0
   10.8945   34.9241   60.9866 C   0  0  0  0  0  0
    9.7025   34.7124   60.2916 C   0  0  0  0  0  0
   11.2051   31.7553   62.7611 F   0  0  0  0  0  0
    6.6200   32.6927   60.1798 N   0  0  0  0  0  0
    5.4050   32.4717   59.3771 C   0  0  0  0  0  0
    5.0478   30.9646   59.4181 C   0  0  0  0  0  0
    4.9692   30.3765   60.7703 N   0  0  0  0  0  0
    6.1822   30.7158   61.5397 C   0  0  0  0  0  0
    6.4792   32.2346   61.5708 C   0  0  0  0  0  0
    4.6770   28.9123   60.7374 C   0  0  0  0  0  0
    4.5083   28.3003   62.1338 C   0  0  0  0  0  0
    5.4578   28.0548   63.1355 C   0  0  0  0  0  0
    5.0743   27.5150   64.3631 C   0  0  0  0  0  0
    3.7387   27.1846   64.5936 C   0  0  0  0  0  0
    2.7953   27.3647   63.5814 C   0  0  0  0  0  0
    3.1889   27.8976   62.3511 C   0  0  0  0  0  0
    2.4358   28.0854   61.1065 C   0  0  0  0  0  0
    1.1099   27.7667   60.7915 C   0  0  0  0  0  0
    0.6495   27.9348   59.4855 C   0  0  0  0  0  0
    1.5167   28.4051   58.4994 C   0  0  0  0  0  0
    2.8348   28.7275   58.8233 C   0  0  0  0  0  0
    3.2978   28.6077   60.1403 C   0  0  0  0  0  0
    9.0644   31.5315   61.3223 H   0  0  0  0  0  0
   12.3116   34.0924   62.3734 H   0  0  0  0  0  0
   11.4306   35.8536   60.8721 H   0  0  0  0  0  0
    9.3369   35.5006   59.6471 H   0  0  0  0  0  0
    4.5851   33.0475   59.8134 H   0  0  0  0  0  0
    5.4964   32.7974   58.3430 H   0  0  0  0  0  0
    5.7905   30.4011   58.8515 H   0  0  0  0  0  0
    4.0837   30.8897   58.9242 H   0  0  0  0  0  0
    7.0318   30.1718   61.1169 H   0  0  0  0  0  0
    6.0666   30.4196   62.5792 H   0  0  0  0  0  0
    7.3240   32.4604   62.2101 H   0  0  0  0  0  0
    5.6370   32.7550   62.0329 H   0  0  0  0  0  0
    5.4578   28.3817   60.1875 H   0  0  0  0  0  0
    6.5012   28.2884   62.9828 H   0  0  0  0  0  0
    5.8121   27.3548   65.1368 H   0  0  0  0  0  0
    3.4404   26.7659   65.5429 H   0  0  0  0  0  0
    1.7724   27.0603   63.7492 H   0  0  0  0  0  0
    0.4419   27.3661   61.5401 H   0  0  0  0  0  0
   -0.3713   27.6858   59.2321 H   0  0  0  0  0  0
    1.1723   28.5270   57.4831 H   0  0  0  0  0  0
    3.4806   29.0661   58.0287 H   0  0  0  0  0  0
  1  2  2  0  0  0
  1  3  1  0  0  0
  1 10  1  0  0  0
  3  4  1  0  0  0
  3  8  2  0  0  0
  4  5  2  0  0  0
  4 29  1  0  0  0
  5  6  1  0  0  0
  5  9  1  0  0  0
  6  7  2  0  0  0
  6 30  1  0  0  0
  7  8  1  0  0  0
  7 31  1  0  0  0
  8 32  1  0  0  0
 10 11  1  0  0  0
 10 15  1  0  0  0
 11 12  1  0  0  0
 11 33  1  0  0  0
 11 34  1  0  0  0
 12 13  1  0  0  0
 12 35  1  0  0  0
 12 36  1  0  0  0
 13 14  1  0  0  0
 13 16  1  0  0  0
 14 15  1  0  0  0
 14 37  1  0  0  0
 14 38  1  0  0  0
 15 39  1  0  0  0
 15 40  1  0  0  0
 16 17  1  0  0  0
 16 28  1  0  0  0
 16 41  1  0  0  0
 17 18  1  0  0  0
 17 22  2  0  0  0
 18 19  2  0  0  0
 18 42  1  0  0  0
 19 20  1  0  0  0
 19 43  1  0  0  0
 20 21  2  0  0  0
 20 44  1  0  0  0
 21 22  1  0  0  0
 21 45  1  0  0  0
 22 23  1  0  0  0
 23 24  1  0  0  0
 23 28  2  0  0  0
 24 25  2  0  0  0
 24 46  1  0  0  0
 25 26  1  0  0  0
 25 47  1  0  0  0
 26 27  2  0  0  0
 26 48  1  0  0  0
 27 28  1  0  0  0
 27 49  1  0  0  0
M  END
> <s_m_entry_id>
8293

> <s_m_entry_name>
dock_pv.88

> <s_m_Source_Path>
/home/csk/Desktop/cluster/DUD-E-result/inha

> <s_m_Source_File>
dock_pv.maegz

> <i_m_Source_File_Index>
88

> <chembl_id>
CHEMBL3393963

> <chembl_pref_name>
None

> <i_lp_mmshare_version>
53161

> <r_lp_tautomer_probability>
1

> <s_lp_Force_Field>
OPLS_2005

> <r_lp_Energy>
73.174432

> <b_lp_Chiralities_Consistent>
1

> <s_lp_Variant>
CHEMBL1849_lig198-1

> <s_i_glide_gridfile>
glide-grid_2h7l

> <i_i_glide_lignum>
265

> <i_i_glide_rotatable_bonds>
3

> <r_i_docking_score>
-7.28032361945784

> <r_i_glide_ligand_efficiency>
-0.26001155783778

> <r_i_glide_ligand_efficiency_sa>
-0.789548228213435

> <r_i_glide_ligand_efficiency_ln>
-1.68051245096077

> <r_i_glide_gscore>
-7.28032361945784

> <r_i_glide_lipo>
-3.0635244082545

> <r_i_glide_hbond>
0

> <r_i_glide_metal>
0

> <r_i_glide_rewards>
-2.56476629370753

> <r_i_glide_evdw>
-39.0982437133789

> <r_i_glide_ecoul>
-0.765669345855713

> <r_i_glide_erotb>
0.417729670051487

> <r_i_glide_esite>
0

> <r_i_glide_emodel>
-55.1017841226528

> <r_i_glide_energy>
-39.8639130592346

> <r_i_glide_einternal>
4.83464479446411

> <i_i_glide_confnum>
31

> <i_i_glide_posenum>
300

> <r_i_glide_eff_state_penalty>
0

> <s_user_duplicate_titles>
CHEMBL1849_lig198

> <i_f3d_flags>
0

> <s_m_subgroup_title>
dock_pv

> <s_m_subgroupid>
dock_pv

> <b_m_subgroup_collapsed>
0

$$$$
CHEMBL1849_lig33
                    3D
 Schrodinger Suite 2021-1.
 61 65  0  0  1  0            999 V2000
    5.7614   31.3581   58.8781 C   0  0  0  0  0  0
    5.0569   30.0066   58.7720 C   0  0  0  0  0  0
    6.1406   28.9938   59.0990 C   0  0  1  0  0  0
    7.1411   29.7516   59.9458 C   0  0  0  0  0  0
    6.9610   31.1318   59.4848 N   0  0  0  0  0  0
    8.0469   32.1147   59.6911 C   0  0  0  0  0  0
    7.9482   33.5157   59.0181 C   0  0  0  0  0  0
    9.2226   34.3688   59.1833 C   0  0  0  0  0  0
    9.6808   34.4641   60.6494 C   0  0  0  0  0  0
    9.8190   33.0724   61.2909 C   0  0  0  0  0  0
    8.5289   32.2398   61.1568 C   0  0  0  0  0  0
    5.7057   27.6084   59.6499 C   0  0  0  0  0  0
    5.3819   27.3593   60.9480 N   0  0  0  0  0  0
    5.7024   26.6970   58.8283 O   0  0  0  0  0  0
    5.3040   32.4041   58.4281 O   0  0  0  0  0  0
    5.4227   25.9803   61.4652 C   0  0  0  0  0  0
    4.9168   28.3690   61.9107 C   0  0  0  0  0  0
    3.6767   27.9732   62.7456 C   0  0  0  0  0  0
    1.4085   27.6296   64.3437 C   0  0  0  0  0  0
    3.8458   27.6357   64.1295 C   0  0  0  0  0  0
    2.6761   27.4724   64.9329 C   0  0  0  0  0  0
    2.7992   27.1651   66.3099 C   0  0  0  0  0  0
    4.0530   27.0044   66.8844 C   0  0  0  0  0  0
    5.2008   27.1377   66.1158 C   0  0  0  0  0  0
    5.1135   27.4532   64.7630 C   0  0  0  0  0  0
    1.2282   27.9206   62.9795 C   0  0  0  0  0  0
    2.3777   28.0786   62.1478 C   0  0  0  0  0  0
    2.1594   28.3351   60.7640 C   0  0  0  0  0  0
    0.8744   28.4768   60.2481 C   0  0  0  0  0  0
   -0.2331   28.3515   61.0751 C   0  0  0  0  0  0
   -0.0703   28.0663   62.4262 C   0  0  0  0  0  0
    4.1758   29.9962   59.4071 H   0  0  0  0  0  0
    4.7449   29.9216   57.7290 H   0  0  0  0  0  0
    6.6831   28.7415   58.1807 H   0  0  0  0  0  0
    8.1612   29.3952   59.8024 H   0  0  0  0  0  0
    6.8976   29.7458   61.0099 H   0  0  0  0  0  0
    8.8716   31.6289   59.1667 H   0  0  0  0  0  0
    7.1074   34.0604   59.4515 H   0  0  0  0  0  0
    7.7369   33.4042   57.9557 H   0  0  0  0  0  0
    9.0672   35.3700   58.7813 H   0  0  0  0  0  0
   10.0160   33.9361   58.5749 H   0  0  0  0  0  0
    8.9664   35.0591   61.2217 H   0  0  0  0  0  0
   10.6315   34.9968   60.7064 H   0  0  0  0  0  0
   10.1041   33.1619   62.3395 H   0  0  0  0  0  0
   10.6429   32.5336   60.8284 H   0  0  0  0  0  0
    8.6936   31.2619   61.6095 H   0  0  0  0  0  0
    7.7298   32.7018   61.7357 H   0  0  0  0  0  0
    5.9661   25.9472   62.4078 H   0  0  0  0  0  0
    4.4122   25.6080   61.6392 H   0  0  0  0  0  0
    5.9204   25.2844   60.7890 H   0  0  0  0  0  0
    5.7514   28.6418   62.5538 H   0  0  0  0  0  0
    4.6745   29.3016   61.4031 H   0  0  0  0  0  0
    0.5330   27.5116   64.9669 H   0  0  0  0  0  0
    1.9105   27.0533   66.9145 H   0  0  0  0  0  0
    4.1306   26.7726   67.9357 H   0  0  0  0  0  0
    6.1697   27.0030   66.5741 H   0  0  0  0  0  0
    6.0329   27.5371   64.2049 H   0  0  0  0  0  0
    2.9923   28.4023   60.0890 H   0  0  0  0  0  0
    0.7383   28.6915   59.1979 H   0  0  0  0  0  0
   -1.2252   28.4708   60.6642 H   0  0  0  0  0  0
   -0.9366   27.9587   63.0621 H   0  0  0  0  0  0
  1 15  2  0  0  0
  1  5  1  0  0  0
  1  2  1  0  0  0
  2  3  1  0  0  0
  2 32  1  0  0  0
  2 33  1  0  0  0
  3  4  1  0  0  0
  3 12  1  0  0  0
  3 34  1  0  0  0
  4  5  1  0  0  0
  4 35  1  0  0  0
  4 36  1  0  0  0
  5  6  1  0  0  0
  6 11  1  0  0  0
  6  7  1  0  0  0
  6 37  1  0  0  0
  7  8  1  0  0  0
  7 38  1  0  0  0
  7 39  1  0  0  0
  8  9  1  0  0  0
  8 40  1  0  0  0
  8 41  1  0  0  0
  9 10  1  0  0  0
  9 42  1  0  0  0
  9 43  1  0  0  0
 10 11  1  0  0  0
 10 44  1  0  0  0
 10 45  1  0  0  0
 11 46  1  0  0  0
 11 47  1  0  0  0
 12 13  1  0  0  0
 12 14  2  0  0  0
 13 16  1  0  0  0
 13 17  1  0  0  0
 16 48  1  0  0  0
 16 49  1  0  0  0
 16 50  1  0  0  0
 17 18  1  0  0  0
 17 51  1  0  0  0
 17 52  1  0  0  0
 18 27  2  0  0  0
 18 20  1  0  0  0
 19 26  2  0  0  0
 19 21  1  0  0  0
 19 53  1  0  0  0
 20 21  1  0  0  0
 20 25  2  0  0  0
 21 22  2  0  0  0
 22 23  1  0  0  0
 22 54  1  0  0  0
 23 24  2  0  0  0
 23 55  1  0  0  0
 24 25  1  0  0  0
 24 56  1  0  0  0
 25 57  1  0  0  0
 26 27  1  0  0  0
 26 31  1  0  0  0
 27 28  1  0  0  0
 28 29  2  0  0  0
 28 58  1  0  0  0
 29 30  1  0  0  0
 29 59  1  0  0  0
 30 31  2  0  0  0
 30 60  1  0  0  0
 31 61  1  0  0  0
M  END
> <s_m_entry_id>
8294

> <s_m_entry_name>
dock_pv.89

> <s_m_Source_Path>
/home/csk/Desktop/cluster/DUD-E-result/inha

> <s_m_Source_File>
dock_pv.maegz

> <i_m_Source_File_Index>
89

> <chembl_id>
CHEMBL217594

> <chembl_pref_name>
None

> <i_lp_mmshare_version>
53161

> <r_lp_tautomer_probability>
1

> <s_lp_Force_Field>
OPLS_2005

> <r_lp_Energy>
47.042913

> <b_lp_Chiralities_Consistent>
1

> <s_lp_Variant>
CHEMBL1849_lig33-2

> <s_i_glide_gridfile>
glide-grid_2h7l

> <i_i_glide_lignum>
61

> <i_i_glide_rotatable_bonds>
5

> <r_i_docking_score>
-7.26978023466457

> <r_i_glide_ligand_efficiency>
-0.234509039827889

> <r_i_glide_ligand_efficiency_sa>
-0.736682159682962

> <r_i_glide_ligand_efficiency_ln>
-1.63955823492475

> <r_i_glide_gscore>
-7.26978023466457

> <r_i_glide_lipo>
-3.32843023085988

> <r_i_glide_hbond>
-0.32

> <r_i_glide_metal>
0

> <r_i_glide_rewards>
-1.52111543903262

> <r_i_glide_evdw>
-37.1442070007324

> <r_i_glide_ecoul>
-4.68318653106689

> <r_i_glide_erotb>
0.459453764924579

> <r_i_glide_esite>
0

> <r_i_glide_emodel>
-53.6731901414706

> <r_i_glide_energy>
-41.8273935317993

> <r_i_glide_einternal>
8.96695423126221

> <i_i_glide_confnum>
10

> <i_i_glide_posenum>
191

> <r_i_glide_eff_state_penalty>
0

> <s_user_duplicate_titles>
CHEMBL1849_lig33,360354

> <i_f3d_flags>
0

> <s_m_subgroup_title>
dock_pv

> <s_m_subgroupid>
dock_pv

> <b_m_subgroup_collapsed>
0

$$$$
CHEMBL1849_lig20
                    3D
 Schrodinger Suite 2021-1.
 52 54  0  0  1  0            999 V2000
    6.3043   30.7575   58.0281 C   0  0  0  0  0  0
    6.1035   29.2408   57.9768 C   0  0  0  0  0  0
    6.7058   28.6963   59.2638 C   0  0  1  0  0  0
    6.6391   29.8918   60.1928 C   0  0  0  0  0  0
    6.6542   31.0602   59.3050 N   0  0  0  0  0  0
    6.5609   32.4359   59.8515 C   0  0  0  0  0  0
    7.0332   32.5416   61.3251 C   0  0  0  0  0  0
    8.5598   32.3243   61.4540 C   0  0  0  0  0  0
    9.3208   33.4104   60.6835 C   0  0  0  0  0  0
    8.8809   33.4288   59.2025 C   0  0  0  0  0  0
    7.3495   33.5391   59.0811 C   0  0  0  0  0  0
    6.0253   27.4621   59.9052 C   0  0  0  0  0  0
    6.2790   27.2522   61.2149 N   0  0  0  0  0  0
    5.3038   26.7319   59.2282 O   0  0  0  0  0  0
    5.7058   26.2799   62.0459 C   0  0  0  0  0  0
    5.3879   26.6672   63.3495 C   0  0  0  0  0  0
    4.7688   25.7744   64.2317 C   0  0  0  0  0  0
    4.5035   24.4678   63.8004 C   0  0  0  0  0  0
    4.8509   24.0629   62.5110 C   0  0  0  0  0  0
    5.4486   24.9650   61.6323 C   0  0  0  0  0  0
    6.1033   31.5212   57.0811 O   0  0  0  0  0  0
    4.3606   26.2270   65.6355 C   0  0  0  0  0  0
    3.5019   27.5098   65.6173 C   0  0  0  0  0  0
    5.5785   26.3900   66.5581 C   0  0  0  0  0  0
    6.6740   28.9024   57.1122 H   0  0  0  0  0  0
    5.0476   29.0047   57.8347 H   0  0  0  0  0  0
    7.7413   28.3971   59.1193 H   0  0  0  0  0  0
    5.6750   29.9450   60.7049 H   0  0  0  0  0  0
    7.4350   29.8744   60.9348 H   0  0  0  0  0  0
    5.5000   32.6888   59.8179 H   0  0  0  0  0  0
    6.7705   33.5328   61.6926 H   0  0  0  0  0  0
    6.4869   31.8521   61.9661 H   0  0  0  0  0  0
    8.8798   32.2953   62.4906 H   0  0  0  0  0  0
    8.8468   31.3660   61.0426 H   0  0  0  0  0  0
    9.1194   34.3861   61.1299 H   0  0  0  0  0  0
   10.3941   33.2555   60.8031 H   0  0  0  0  0  0
    9.3583   34.2610   58.6840 H   0  0  0  0  0  0
    9.2024   32.5218   58.6900 H   0  0  0  0  0  0
    7.0910   33.5388   58.0282 H   0  0  0  0  0  0
    7.0404   34.5095   59.4668 H   0  0  0  0  0  0
    6.8357   27.9447   61.6894 H   0  0  0  0  0  0
    5.5923   27.6797   63.6704 H   0  0  0  0  0  0
    4.0185   23.7609   64.4574 H   0  0  0  0  0  0
    4.6435   23.0534   62.1878 H   0  0  0  0  0  0
    5.7040   24.6411   60.6341 H   0  0  0  0  0  0
    3.7309   25.4471   66.0659 H   0  0  0  0  0  0
    2.6567   27.4151   64.9342 H   0  0  0  0  0  0
    4.0767   28.3837   65.3129 H   0  0  0  0  0  0
    3.0958   27.7220   66.6066 H   0  0  0  0  0  0
    6.1040   25.4441   66.6918 H   0  0  0  0  0  0
    6.2875   27.1191   66.1616 H   0  0  0  0  0  0
    5.2714   26.7350   67.5436 H   0  0  0  0  0  0
  1  2  1  0  0  0
  1  5  1  0  0  0
  1 21  2  0  0  0
  2  3  1  0  0  0
  2 25  1  0  0  0
  2 26  1  0  0  0
  3 12  1  0  0  0
  3  4  1  0  0  0
  3 27  1  0  0  0
  4  5  1  0  0  0
  4 28  1  0  0  0
  4 29  1  0  0  0
  5  6  1  0  0  0
  6  7  1  0  0  0
  6 11  1  0  0  0
  6 30  1  0  0  0
  7  8  1  0  0  0
  7 31  1  0  0  0
  7 32  1  0  0  0
  8  9  1  0  0  0
  8 33  1  0  0  0
  8 34  1  0  0  0
  9 10  1  0  0  0
  9 35  1  0  0  0
  9 36  1  0  0  0
 10 11  1  0  0  0
 10 37  1  0  0  0
 10 38  1  0  0  0
 11 39  1  0  0  0
 11 40  1  0  0  0
 12 13  1  0  0  0
 12 14  2  0  0  0
 13 15  1  0  0  0
 13 41  1  0  0  0
 15 16  2  0  0  0
 15 20  1  0  0  0
 16 17  1  0  0  0
 16 42  1  0  0  0
 17 18  2  0  0  0
 17 22  1  0  0  0
 18 19  1  0  0  0
 18 43  1  0  0  0
 19 20  2  0  0  0
 19 44  1  0  0  0
 20 45  1  0  0  0
 22 23  1  0  0  0
 22 24  1  0  0  0
 22 46  1  0  0  0
 23 47  1  0  0  0
 23 48  1  0  0  0
 23 49  1  0  0  0
 24 50  1  0  0  0
 24 51  1  0  0  0
 24 52  1  0  0  0
M  END
> <s_m_entry_id>
8295

> <s_m_entry_name>
dock_pv.90

> <s_m_Source_Path>
/home/csk/Desktop/cluster/DUD-E-result/inha

> <s_m_Source_File>
dock_pv.maegz

> <i_m_Source_File_Index>
90

> <chembl_id>
CHEMBL387284

> <chembl_pref_name>
None

> <i_lp_mmshare_version>
53161

> <r_lp_tautomer_probability>
1

> <s_lp_Force_Field>
OPLS_2005

> <r_lp_Energy>
33.729691

> <b_lp_Chiralities_Consistent>
1

> <s_lp_Variant>
CHEMBL1849_lig20-2

> <s_i_glide_gridfile>
glide-grid_2h7l

> <i_i_glide_lignum>
29

> <i_i_glide_rotatable_bonds>
5

> <r_i_docking_score>
-7.25840972170774

> <r_i_glide_ligand_efficiency>
-0.302433738404489

> <r_i_glide_ligand_efficiency_sa>
-0.87236985759653

> <r_i_glide_ligand_efficiency_ln>
-1.73727051312387

> <r_i_glide_gscore>
-7.25840972170774

> <r_i_glide_lipo>
-3.00883641528797

> <r_i_glide_hbond>
-0.471152942797619

> <r_i_glide_metal>
0

> <r_i_glide_rewards>
-1.95853056364178

> <r_i_glide_evdw>
-33.3585929870605

> <r_i_glide_ecoul>
-5.65574884414673

> <r_i_glide_erotb>
0.696402175994664

> <r_i_glide_esite>
0

> <r_i_glide_emodel>
-52.5235206416308

> <r_i_glide_energy>
-39.0143418312073

> <r_i_glide_einternal>
5.66398286819458

> <i_i_glide_confnum>
16

> <i_i_glide_posenum>
198

> <r_i_glide_eff_state_penalty>
0

> <s_user_duplicate_titles>
CHEMBL1849_lig20

> <i_f3d_flags>
0

> <s_m_subgroup_title>
dock_pv

> <s_m_subgroupid>
dock_pv

> <b_m_subgroup_collapsed>
0

$$$$
CHEMBL1849_lig202
                    3D
 Schrodinger Suite 2021-1.
 49 53  0  0  1  0            999 V2000
    7.7085   33.3114   59.6465 C   0  0  0  0  0  0
    7.6990   33.7131   58.4823 O   0  0  0  0  0  0
    8.9910   33.5221   60.4264 C   0  0  0  0  0  0
    9.5397   32.5145   61.2280 C   0  0  0  0  0  0
   10.7329   32.7238   61.9192 C   0  0  0  0  0  0
   11.4078   33.9330   61.7721 C   0  0  0  0  0  0
   10.9044   34.9316   60.9404 C   0  0  0  0  0  0
    9.7036   34.7216   60.2671 C   0  0  0  0  0  0
   12.8929   34.1930   62.6148 Cl  0  0  0  0  0  0
    6.6132   32.7159   60.2136 N   0  0  0  0  0  0
    5.3859   32.5083   59.4284 C   0  0  0  0  0  0
    5.0543   30.9972   59.4227 C   0  0  0  0  0  0
    5.0086   30.3601   60.7545 N   0  0  0  0  0  0
    6.2092   30.7083   61.5359 C   0  0  0  0  0  0
    6.4842   32.2268   61.5944 C   0  0  0  0  0  0
    4.7585   28.8910   60.6721 C   0  0  0  0  0  0
    4.6651   28.2151   62.0463 C   0  0  0  0  0  0
    5.6658   27.9436   62.9902 C   0  0  0  0  0  0
    5.3421   27.3465   64.2096 C   0  0  0  0  0  0
    4.0224   26.9853   64.4837 C   0  0  0  0  0  0
    3.0311   27.1932   63.5231 C   0  0  0  0  0  0
    3.3612   27.7839   62.3008 C   0  0  0  0  0  0
    2.5505   28.0071   61.0968 C   0  0  0  0  0  0
    1.2162   27.6896   60.8218 C   0  0  0  0  0  0
    0.6986   27.9134   59.5448 C   0  0  0  0  0  0
    1.5188   28.4317   58.5445 C   0  0  0  0  0  0
    2.8465   28.7491   58.8277 C   0  0  0  0  0  0
    3.3630   28.5810   60.1172 C   0  0  0  0  0  0
    9.0476   31.5589   61.3352 H   0  0  0  0  0  0
   11.1351   31.9529   62.5604 H   0  0  0  0  0  0
   11.4399   35.8656   60.8182 H   0  0  0  0  0  0
    9.3231   35.5061   59.6287 H   0  0  0  0  0  0
    4.5701   33.0535   59.9073 H   0  0  0  0  0  0
    5.4457   32.8887   58.4106 H   0  0  0  0  0  0
    5.7951   30.4649   58.8276 H   0  0  0  0  0  0
    4.0879   30.9171   58.9364 H   0  0  0  0  0  0
    7.0693   30.1838   61.1128 H   0  0  0  0  0  0
    6.0861   30.3862   62.5667 H   0  0  0  0  0  0
    7.3261   32.4615   62.2372 H   0  0  0  0  0  0
    5.6318   32.7246   62.0637 H   0  0  0  0  0  0
    5.5303   28.4117   60.0665 H   0  0  0  0  0  0
    6.6958   28.2076   62.8009 H   0  0  0  0  0  0
    6.1143   27.1619   64.9412 H   0  0  0  0  0  0
    3.7719   26.5258   65.4293 H   0  0  0  0  0  0
    2.0202   26.8681   63.7236 H   0  0  0  0  0  0
    0.5788   27.2516   61.5767 H   0  0  0  0  0  0
   -0.3293   27.6708   59.3239 H   0  0  0  0  0  0
    1.1334   28.5952   57.5497 H   0  0  0  0  0  0
    3.4599   29.1294   58.0280 H   0  0  0  0  0  0
  1  2  2  0  0  0
  1  3  1  0  0  0
  1 10  1  0  0  0
  3  4  1  0  0  0
  3  8  2  0  0  0
  4  5  2  0  0  0
  4 29  1  0  0  0
  5  6  1  0  0  0
  5 30  1  0  0  0
  6  7  2  0  0  0
  6  9  1  0  0  0
  7  8  1  0  0  0
  7 31  1  0  0  0
  8 32  1  0  0  0
 10 11  1  0  0  0
 10 15  1  0  0  0
 11 12  1  0  0  0
 11 33  1  0  0  0
 11 34  1  0  0  0
 12 13  1  0  0  0
 12 35  1  0  0  0
 12 36  1  0  0  0
 13 14  1  0  0  0
 13 16  1  0  0  0
 14 15  1  0  0  0
 14 37  1  0  0  0
 14 38  1  0  0  0
 15 39  1  0  0  0
 15 40  1  0  0  0
 16 17  1  0  0  0
 16 28  1  0  0  0
 16 41  1  0  0  0
 17 18  1  0  0  0
 17 22  2  0  0  0
 18 19  2  0  0  0
 18 42  1  0  0  0
 19 20  1  0  0  0
 19 43  1  0  0  0
 20 21  2  0  0  0
 20 44  1  0  0  0
 21 22  1  0  0  0
 21 45  1  0  0  0
 22 23  1  0  0  0
 23 24  1  0  0  0
 23 28  2  0  0  0
 24 25  2  0  0  0
 24 46  1  0  0  0
 25 26  1  0  0  0
 25 47  1  0  0  0
 26 27  2  0  0  0
 26 48  1  0  0  0
 27 28  1  0  0  0
 27 49  1  0  0  0
M  END
> <s_m_entry_id>
8296

> <s_m_entry_name>
dock_pv.91

> <s_m_Source_Path>
/home/csk/Desktop/cluster/DUD-E-result/inha

> <s_m_Source_File>
dock_pv.maegz

> <i_m_Source_File_Index>
91

> <chembl_id>
CHEMBL3393959

> <chembl_pref_name>
None

> <i_lp_mmshare_version>
53161

> <r_lp_tautomer_probability>
1

> <s_lp_Force_Field>
OPLS_2005

> <r_lp_Energy>
74.077821

> <b_lp_Chiralities_Consistent>
1

> <s_lp_Variant>
CHEMBL1849_lig202-1

> <s_i_glide_gridfile>
glide-grid_2h7l

> <i_i_glide_lignum>
269

> <i_i_glide_rotatable_bonds>
3

> <r_i_docking_score>
-7.2507953472844

> <r_i_glide_ligand_efficiency>
-0.258956976688728

> <r_i_glide_ligand_efficiency_sa>
-0.786345898729834

> <r_i_glide_ligand_efficiency_ln>
-1.6736964587554

> <r_i_glide_gscore>
-7.2507953472844

> <r_i_glide_lipo>
-3.40196551338205

> <r_i_glide_hbond>
0

> <r_i_glide_metal>
0

> <r_i_glide_rewards>
-2.14192239529485

> <r_i_glide_evdw>
-40.9166259765625

> <r_i_glide_ecoul>
-0.317778527736664

> <r_i_glide_erotb>
0.386590639381133

> <r_i_glide_esite>
0

> <r_i_glide_emodel>
-57.1484610065947

> <r_i_glide_energy>
-41.2344045042992

> <r_i_glide_einternal>
4.0855827331543

> <i_i_glide_confnum>
31

> <i_i_glide_posenum>
133

> <r_i_glide_eff_state_penalty>
0

> <s_user_duplicate_titles>
CHEMBL1849_lig202

> <i_f3d_flags>
0

> <s_m_subgroup_title>
dock_pv

> <s_m_subgroupid>
dock_pv

> <b_m_subgroup_collapsed>
0

$$$$
CHEMBL1849_lig42
                    3D
 Schrodinger Suite 2021-1.
 62 67  0  0  1  0            999 V2000
    2.8752   27.2153   61.0295 C   0  0  0  0  0  0
    7.2585   31.8647   60.1034 C   0  0  2  0  0  0
    6.6850   30.6803   59.4486 N   0  0  0  0  0  0
    6.2365   30.5855   58.1657 C   0  0  0  0  0  0
    5.8745   29.1308   57.9514 C   0  0  0  0  0  0
    6.1749   28.3849   59.2436 C   0  0  1  0  0  0
    6.6991   29.4299   60.2081 C   0  0  0  0  0  0
    6.1219   31.4491   57.2955 O   0  0  0  0  0  0
    6.6645   33.2404   59.7158 C   0  0  0  0  0  0
    7.9184   33.9798   59.2180 C   0  0  2  0  0  0
    8.7679   32.0489   59.7791 C   0  0  1  0  0  0
    8.7460   32.9239   58.5351 C   0  0  0  0  0  0
    8.8238   34.3654   60.4119 C   0  0  0  0  0  0
    9.3936   32.9952   60.8335 C   0  0  0  0  0  0
    4.9848   27.5417   59.7784 C   0  0  0  0  0  0
    3.8962   28.0813   60.4022 N   0  0  0  0  0  0
    5.0868   26.3227   59.6277 O   0  0  0  0  0  0
    3.5640   29.5104   60.4430 C   0  0  0  0  0  0
    2.5631   27.5220   62.5064 C   0  0  0  0  0  0
    1.9445   27.9234   65.2038 C   0  0  0  0  0  0
    3.4840   27.0670   63.5076 C   0  0  0  0  0  0
    3.1601   27.2930   64.8818 C   0  0  0  0  0  0
    4.0613   26.8803   65.8968 C   0  0  0  0  0  0
    5.2577   26.2548   65.5651 C   0  0  0  0  0  0
    5.5747   26.0143   64.2342 C   0  0  0  0  0  0
    4.7099   26.4027   63.2163 C   0  0  0  0  0  0
    1.0381   28.3856   64.2293 C   0  0  0  0  0  0
    1.3452   28.2010   62.8465 C   0  0  0  0  0  0
    0.4235   28.7248   61.8883 C   0  0  0  0  0  0
   -0.7326   29.3895   62.2918 C   0  0  0  0  0  0
   -1.0223   29.5488   63.6400 C   0  0  0  0  0  0
   -0.1551   29.0524   64.6069 C   0  0  0  0  0  0
    1.9775   27.2406   60.4163 H   0  0  0  0  0  0
    3.1642   26.1637   60.9892 H   0  0  0  0  0  0
    7.1655   31.7553   61.1860 H   0  0  0  0  0  0
    4.8328   29.1029   57.6282 H   0  0  0  0  0  0
    6.5044   28.7548   57.1432 H   0  0  0  0  0  0
    6.9844   27.6637   59.0990 H   0  0  0  0  0  0
    7.7281   29.2040   60.4883 H   0  0  0  0  0  0
    6.1256   29.5082   61.1324 H   0  0  0  0  0  0
    6.2309   33.7518   60.5761 H   0  0  0  0  0  0
    5.8951   33.2081   58.9499 H   0  0  0  0  0  0
    7.7042   34.7294   58.4894 H   0  0  0  0  0  0
    9.3047   31.1217   59.6291 H   0  0  0  0  0  0
    8.2692   32.4734   57.6698 H   0  0  0  0  0  0
    9.6997   33.3320   58.1949 H   0  0  0  0  0  0
    8.2772   34.8530   61.2237 H   0  0  0  0  0  0
    9.6184   35.0439   60.0983 H   0  0  0  0  0  0
   10.4841   32.9963   60.8277 H   0  0  0  0  0  0
    9.0970   32.7174   61.8450 H   0  0  0  0  0  0
    4.2157   30.1389   59.8431 H   0  0  0  0  0  0
    2.5545   29.6737   60.0628 H   0  0  0  0  0  0
    3.5983   29.8793   61.4706 H   0  0  0  0  0  0
    1.7057   28.0841   66.2457 H   0  0  0  0  0  0
    3.8171   27.0577   66.9355 H   0  0  0  0  0  0
    5.9404   25.9479   66.3438 H   0  0  0  0  0  0
    6.5037   25.5228   63.9819 H   0  0  0  0  0  0
    4.9951   26.1942   62.1972 H   0  0  0  0  0  0
    0.6095   28.6436   60.8299 H   0  0  0  0  0  0
   -1.4056   29.7926   61.5469 H   0  0  0  0  0  0
   -1.9214   30.0676   63.9364 H   0  0  0  0  0  0
   -0.3828   29.1881   65.6547 H   0  0  0  0  0  0
  1 16  1  0  0  0
  1 19  1  0  0  0
  1 33  1  0  0  0
  1 34  1  0  0  0
  2  3  1  0  0  0
  2  9  1  0  0  0
  2 11  1  0  0  0
  2 35  1  0  0  0
  3  7  1  0  0  0
  3  4  1  0  0  0
  4  8  2  0  0  0
  4  5  1  0  0  0
  5  6  1  0  0  0
  5 36  1  0  0  0
  5 37  1  0  0  0
  6  7  1  0  0  0
  6 15  1  0  0  0
  6 38  1  0  0  0
  7 39  1  0  0  0
  7 40  1  0  0  0
  9 10  1  0  0  0
  9 41  1  0  0  0
  9 42  1  0  0  0
 10 12  1  0  0  0
 10 13  1  0  0  0
 10 43  1  0  0  0
 11 12  1  0  0  0
 11 14  1  0  0  0
 11 44  1  0  0  0
 12 45  1  0  0  0
 12 46  1  0  0  0
 13 14  1  0  0  0
 13 47  1  0  0  0
 13 48  1  0  0  0
 14 49  1  0  0  0
 14 50  1  0  0  0
 15 16  1  0  0  0
 15 17  2  0  0  0
 16 18  1  0  0  0
 18 51  1  0  0  0
 18 52  1  0  0  0
 18 53  1  0  0  0
 19 28  2  0  0  0
 19 21  1  0  0  0
 20 27  2  0  0  0
 20 22  1  0  0  0
 20 54  1  0  0  0
 21 22  1  0  0  0
 21 26  2  0  0  0
 22 23  2  0  0  0
 23 24  1  0  0  0
 23 55  1  0  0  0
 24 25  2  0  0  0
 24 56  1  0  0  0
 25 26  1  0  0  0
 25 57  1  0  0  0
 26 58  1  0  0  0
 27 28  1  0  0  0
 27 32  1  0  0  0
 28 29  1  0  0  0
 29 30  2  0  0  0
 29 59  1  0  0  0
 30 31  1  0  0  0
 30 60  1  0  0  0
 31 32  2  0  0  0
 31 61  1  0  0  0
 32 62  1  0  0  0
M  END
> <s_m_entry_id>
8297

> <s_m_entry_name>
dock_pv.92

> <s_m_Source_Path>
/home/csk/Desktop/cluster/DUD-E-result/inha

> <s_m_Source_File>
dock_pv.maegz

> <i_m_Source_File_Index>
92

> <chembl_id>
CHEMBL426702

> <chembl_pref_name>
None

> <i_lp_mmshare_version>
53161

> <r_lp_tautomer_probability>
1

> <s_lp_Force_Field>
OPLS_2005

> <r_lp_Energy>
87.137148

> <b_lp_Chiralities_Consistent>
1

> <s_lp_Variant>
CHEMBL1849_lig42-7

> <s_i_glide_gridfile>
glide-grid_2h7l

> <i_i_glide_lignum>
90

> <i_i_glide_rotatable_bonds>
5

> <r_i_docking_score>
-7.24679843758445

> <r_i_glide_ligand_efficiency>
-0.226462451174514

> <r_i_glide_ligand_efficiency_sa>
-0.718973465620851

> <r_i_glide_ligand_efficiency_ln>
-1.62275571043984

> <r_i_glide_gscore>
-7.24679843758445

> <r_i_glide_lipo>
-3.39217961075201

> <r_i_glide_hbond>
-0.198121028635508

> <r_i_glide_metal>
0

> <r_i_glide_rewards>
-1.49969672345409

> <r_i_glide_evdw>
-38.7696266174316

> <r_i_glide_ecoul>
-4.36434125900269

> <r_i_glide_erotb>
0.436331444979144

> <r_i_glide_esite>
0

> <r_i_glide_emodel>
-57.3603440275756

> <r_i_glide_energy>
-43.1339678764343

> <r_i_glide_einternal>
5.6914496421814

> <i_i_glide_confnum>
10

> <i_i_glide_posenum>
134

> <r_i_glide_eff_state_penalty>
0

> <s_user_duplicate_titles>
CHEMBL1849_lig42

> <i_f3d_flags>
0

> <s_m_subgroup_title>
dock_pv

> <s_m_subgroupid>
dock_pv

> <b_m_subgroup_collapsed>
0

$$$$
CHEMBL1849_lig74
                    3D
 Schrodinger Suite 2021-1.
 49 50  0  0  1  0            999 V2000
    6.7553   33.5959   59.8150 C   0  0  0  0  0  0
    7.9256   33.2647   59.1285 C   0  0  0  0  0  0
    7.9889   32.0580   58.4282 C   0  0  0  0  0  0
    6.8843   31.2065   58.3909 C   0  0  0  0  0  0
    5.7111   31.5396   59.0785 C   0  0  0  0  0  0
    5.6493   32.7465   59.7883 C   0  0  0  0  0  0
    4.5973   30.7326   59.0023 O   0  0  0  0  0  0
    4.5531   29.4767   59.5764 C   0  0  0  0  0  0
    3.3159   28.8303   59.5719 C   0  0  0  0  0  0
    3.1738   27.5585   60.1252 C   0  0  0  0  0  0
    4.2751   26.9126   60.6861 C   0  0  0  0  0  0
    5.5270   27.5451   60.7043 C   0  0  0  0  0  0
    5.6555   28.8233   60.1520 C   0  0  0  0  0  0
    4.5046   33.1219   60.4449 O   0  0  0  0  0  0
    9.1067   34.2248   59.1082 C   0  0  0  0  0  0
    9.8555   34.3214   60.4501 C   0  0  0  0  0  0
   11.1397   35.1695   60.3452 C   0  0  0  0  0  0
   11.8682   35.4298   61.6804 C   0  0  0  0  0  0
   12.7827   34.3002   62.2073 C   0  0  0  0  0  0
   12.0676   33.0883   62.8253 C   0  0  0  0  0  0
    6.7033   26.9506   61.1887 N   0  0  0  0  0  0
    6.8525   25.9001   62.0188 C   0  0  0  0  0  0
    5.9496   25.3184   62.6189 O   0  0  0  0  0  0
    8.2908   25.4333   62.1782 C   0  0  0  0  0  0
    6.7043   34.5224   60.3656 H   0  0  0  0  0  0
    8.8936   31.7893   57.9028 H   0  0  0  0  0  0
    6.9337   30.2861   57.8272 H   0  0  0  0  0  0
    2.4591   29.3278   59.1392 H   0  0  0  0  0  0
    2.2107   27.0701   60.1130 H   0  0  0  0  0  0
    4.1416   25.9179   61.0834 H   0  0  0  0  0  0
    6.6204   29.3057   60.1738 H   0  0  0  0  0  0
    4.3572   34.0783   60.4281 H   0  0  0  0  0  0
    9.7919   33.9274   58.3152 H   0  0  0  0  0  0
    8.7506   35.2089   58.8106 H   0  0  0  0  0  0
    9.1945   34.7523   61.2046 H   0  0  0  0  0  0
   10.0945   33.3182   60.7943 H   0  0  0  0  0  0
   11.8313   34.7226   59.6303 H   0  0  0  0  0  0
   10.8701   36.1384   59.9210 H   0  0  0  0  0  0
   12.4920   36.3158   61.5665 H   0  0  0  0  0  0
   11.1415   35.7274   62.4280 H   0  0  0  0  0  0
   13.4544   33.9662   61.4147 H   0  0  0  0  0  0
   13.4307   34.7226   62.9763 H   0  0  0  0  0  0
   12.7789   32.4544   63.3554 H   0  0  0  0  0  0
   11.3061   33.3939   63.5422 H   0  0  0  0  0  0
   11.5958   32.4627   62.0716 H   0  0  0  0  0  0
    7.5581   27.3684   60.8534 H   0  0  0  0  0  0
    8.9356   26.2771   62.4213 H   0  0  0  0  0  0
    8.6458   24.9777   61.2492 H   0  0  0  0  0  0
    8.3750   24.7109   62.9867 H   0  0  0  0  0  0
  1  6  1  0  0  0
  1  2  2  0  0  0
  1 25  1  0  0  0
  2 15  1  0  0  0
  2  3  1  0  0  0
  3  4  2  0  0  0
  3 26  1  0  0  0
  4  5  1  0  0  0
  4 27  1  0  0  0
  5  7  1  0  0  0
  5  6  2  0  0  0
  6 14  1  0  0  0
  7  8  1  0  0  0
  8 13  1  0  0  0
  8  9  2  0  0  0
  9 10  1  0  0  0
  9 28  1  0  0  0
 10 11  2  0  0  0
 10 29  1  0  0  0
 11 12  1  0  0  0
 11 30  1  0  0  0
 12 13  2  0  0  0
 12 21  1  0  0  0
 13 31  1  0  0  0
 14 32  1  0  0  0
 15 16  1  0  0  0
 15 33  1  0  0  0
 15 34  1  0  0  0
 16 17  1  0  0  0
 16 35  1  0  0  0
 16 36  1  0  0  0
 17 18  1  0  0  0
 17 37  1  0  0  0
 17 38  1  0  0  0
 18 19  1  0  0  0
 18 39  1  0  0  0
 18 40  1  0  0  0
 19 20  1  0  0  0
 19 41  1  0  0  0
 19 42  1  0  0  0
 20 43  1  0  0  0
 20 44  1  0  0  0
 20 45  1  0  0  0
 21 22  1  0  0  0
 21 46  1  0  0  0
 22 23  2  0  0  0
 22 24  1  0  0  0
 24 47  1  0  0  0
 24 48  1  0  0  0
 24 49  1  0  0  0
M  END
> <s_m_entry_id>
8298

> <s_m_entry_name>
dock_pv.93

> <s_m_Source_Path>
/home/csk/Desktop/cluster/DUD-E-result/inha

> <s_m_Source_File>
dock_pv.maegz

> <i_m_Source_File_Index>
93

> <chembl_id>
CHEMBL404983

> <chembl_pref_name>
None

> <i_lp_mmshare_version>
53161

> <r_lp_tautomer_probability>
0.999999999999776

> <s_lp_Force_Field>
OPLS_2005

> <r_lp_Energy>
17.4799

> <b_lp_Chiralities_Consistent>
1

> <s_lp_Variant>
CHEMBL1849_lig74-1

> <s_i_glide_gridfile>
glide-grid_2h7l

> <i_i_glide_lignum>
124

> <i_i_glide_rotatable_bonds>
10

> <r_i_docking_score>
-7.2345112533065

> <r_i_glide_ligand_efficiency>
-0.301437968887771

> <r_i_glide_ligand_efficiency_sa>
-0.869497561284347

> <r_i_glide_ligand_efficiency_ln>
-1.7315505130062

> <r_i_glide_gscore>
-7.2345112533065

> <r_i_glide_lipo>
-3.96126395327836

> <r_i_glide_hbond>
0

> <r_i_glide_metal>
0

> <r_i_glide_rewards>
-1.70737406604616

> <r_i_glide_evdw>
-42.1199417114258

> <r_i_glide_ecoul>
-4.56911516189575

> <r_i_glide_erotb>
1.22549112587367

> <r_i_glide_esite>
0

> <r_i_glide_emodel>
-65.0675561554963

> <r_i_glide_energy>
-46.6890568733215

> <r_i_glide_einternal>
4.09314775466919

> <i_i_glide_confnum>
71

> <i_i_glide_posenum>
167

> <r_i_glide_eff_state_penalty>
0

> <s_user_duplicate_titles>
CHEMBL1849_lig74,428332

> <i_f3d_flags>
0

> <s_m_subgroup_title>
dock_pv

> <s_m_subgroupid>
dock_pv

> <b_m_subgroup_collapsed>
0

$$$$
CHEMBL1849_lig71
                    3D
 Schrodinger Suite 2021-1.
 49 50  0  0  1  0            999 V2000
    7.4095   30.4382   58.6737 C   0  0  0  0  0  0
    6.9457   31.7521   58.5420 C   0  0  0  0  0  0
    5.5727   31.9884   58.4442 C   0  0  0  0  0  0
    4.6763   30.9247   58.4280 C   0  0  0  0  0  0
    5.1336   29.6082   58.5536 C   0  0  0  0  0  0
    6.5083   29.3697   58.6865 C   0  0  0  0  0  0
    4.2486   28.5535   58.5061 O   0  0  0  0  0  0
    3.4870   28.2990   59.6170 C   0  0  0  0  0  0
    3.7799   27.2016   60.4280 C   0  0  0  0  0  0
    3.0176   26.9538   61.5712 C   0  0  0  0  0  0
    1.9713   27.8124   61.9170 C   0  0  0  0  0  0
    1.6711   28.9134   61.0994 C   0  0  0  0  0  0
    2.4126   29.1254   59.9406 C   0  0  0  0  0  0
    6.9792   28.0893   58.8280 O   0  0  0  0  0  0
    7.9221   32.9173   58.4696 C   0  0  0  0  0  0
    8.4926   33.3372   59.8301 C   0  0  0  0  0  0
    9.4464   34.5397   59.7057 C   0  0  0  0  0  0
   10.0595   34.9429   61.0537 C   0  0  0  0  0  0
   11.3081   35.8167   60.8995 C   0  0  0  0  0  0
   11.9559   36.1903   62.2386 C   0  0  0  0  0  0
    0.7294   29.9069   61.3960 N   0  0  0  0  0  0
   -0.2892   29.8761   62.2840 C   0  0  0  0  0  0
   -0.6881   28.8594   62.8568 O   0  0  0  0  0  0
   -0.8816   31.2060   62.5853 C   0  0  0  0  0  0
   -1.4960   31.4208   63.6280 O   0  0  0  0  0  0
   -0.6960   32.1717   61.6280 O   0  0  0  0  0  0
    8.4701   30.2489   58.7583 H   0  0  0  0  0  0
    5.1895   32.9961   58.3729 H   0  0  0  0  0  0
    3.6259   31.1342   58.3056 H   0  0  0  0  0  0
    4.6056   26.5530   60.1734 H   0  0  0  0  0  0
    3.2536   26.1104   62.2032 H   0  0  0  0  0  0
    1.4296   27.6257   62.8316 H   0  0  0  0  0  0
    2.1672   29.9545   59.2962 H   0  0  0  0  0  0
    7.9212   28.0480   59.0134 H   0  0  0  0  0  0
    8.7299   32.6582   57.7826 H   0  0  0  0  0  0
    7.4228   33.7784   58.0280 H   0  0  0  0  0  0
    7.6768   33.5902   60.5102 H   0  0  0  0  0  0
    9.0179   32.4936   60.2808 H   0  0  0  0  0  0
   10.2395   34.3220   58.9902 H   0  0  0  0  0  0
    8.9149   35.3928   59.2838 H   0  0  0  0  0  0
    9.3056   35.4792   61.6280 H   0  0  0  0  0  0
   10.3204   34.0523   61.6280 H   0  0  0  0  0  0
   12.0420   35.2767   60.2999 H   0  0  0  0  0  0
   11.0556   36.7220   60.3470 H   0  0  0  0  0  0
   12.8930   36.7220   62.0837 H   0  0  0  0  0  0
   11.3040   36.8342   62.8280 H   0  0  0  0  0  0
   12.1840   35.3021   62.8280 H   0  0  0  0  0  0
    0.9040   30.7695   60.8918 H   0  0  0  0  0  0
   -0.2718   31.9220   60.7852 H   0  0  0  0  0  0
  1  2  2  0  0  0
  1  6  1  0  0  0
  1 27  1  0  0  0
  2 15  1  0  0  0
  2  3  1  0  0  0
  3  4  2  0  0  0
  3 28  1  0  0  0
  4  5  1  0  0  0
  4 29  1  0  0  0
  5  7  1  0  0  0
  5  6  2  0  0  0
  6 14  1  0  0  0
  7  8  1  0  0  0
  8 13  1  0  0  0
  8  9  2  0  0  0
  9 10  1  0  0  0
  9 30  1  0  0  0
 10 11  2  0  0  0
 10 31  1  0  0  0
 11 12  1  0  0  0
 11 32  1  0  0  0
 12 13  2  0  0  0
 12 21  1  0  0  0
 13 33  1  0  0  0
 14 34  1  0  0  0
 15 16  1  0  0  0
 15 35  1  0  0  0
 15 36  1  0  0  0
 16 17  1  0  0  0
 16 37  1  0  0  0
 16 38  1  0  0  0
 17 18  1  0  0  0
 17 39  1  0  0  0
 17 40  1  0  0  0
 18 19  1  0  0  0
 18 41  1  0  0  0
 18 42  1  0  0  0
 19 20  1  0  0  0
 19 43  1  0  0  0
 19 44  1  0  0  0
 20 45  1  0  0  0
 20 46  1  0  0  0
 20 47  1  0  0  0
 21 22  1  0  0  0
 21 48  1  0  0  0
 22 23  2  0  0  0
 22 24  1  0  0  0
 24 25  2  0  0  0
 24 26  1  0  0  0
 26 49  1  0  0  0
M  END
> <s_m_entry_id>
8299

> <s_m_entry_name>
dock_pv.94

> <s_m_Source_Path>
/home/csk/Desktop/cluster/DUD-E-result/inha

> <s_m_Source_File>
dock_pv.maegz

> <i_m_Source_File_Index>
94

> <chembl_id>
CHEMBL263646

> <chembl_pref_name>
None

> <i_lp_mmshare_version>
53161

> <r_lp_tautomer_probability>
0.999999999999776

> <s_lp_Force_Field>
OPLS_2005

> <r_lp_Energy>
20.793099

> <b_lp_Chiralities_Consistent>
1

> <s_lp_Variant>
CHEMBL1849_lig71-1

> <s_i_glide_gridfile>
glide-grid_2h7l

> <i_i_glide_lignum>
121

> <i_i_glide_rotatable_bonds>
12

> <r_i_docking_score>
-7.22699027359172

> <r_i_glide_ligand_efficiency>
-0.277961164368912

> <r_i_glide_ligand_efficiency_sa>
-0.823458855718535

> <r_i_glide_ligand_efficiency_ln>
-1.69723495206375

> <r_i_glide_gscore>
-7.22699027359172

> <r_i_glide_lipo>
-3.2689006272179

> <r_i_glide_hbond>
-0.152

> <r_i_glide_metal>
0

> <r_i_glide_rewards>
-1.31296860019509

> <r_i_glide_evdw>
-39.4395141601562

> <r_i_glide_ecoul>
-11.5828380584717

> <r_i_glide_erotb>
1.34882992525172

> <r_i_glide_esite>
-0.132549554651881

> <r_i_glide_emodel>
-72.613224268633

> <r_i_glide_energy>
-51.0223522186279

> <r_i_glide_einternal>
8.23620510101318

> <i_i_glide_confnum>
129

> <i_i_glide_posenum>
173

> <r_i_glide_eff_state_penalty>
0

> <s_user_duplicate_titles>
CHEMBL1849_lig71,428284

> <i_f3d_flags>
0

> <s_m_subgroup_title>
dock_pv

> <s_m_subgroupid>
dock_pv

> <b_m_subgroup_collapsed>
0

$$$$
CHEMBL1849_lig31
                    3D
 Schrodinger Suite 2021-1.
 57 60  0  0  1  0            999 V2000
    5.3223   32.9025   59.2283 C   0  0  0  0  0  0
    4.8996   24.9673   62.2485 C   0  0  0  0  0  0
    5.5325   25.7828   61.1275 C   0  0  0  0  0  0
    4.8519   27.1462   61.1743 C   0  0  1  0  0  0
    4.2847   27.2250   62.5856 C   0  0  0  0  0  0
    4.2222   25.8371   63.0354 N   0  0  0  0  0  0
    3.6510   25.4139   64.3307 C   0  0  0  0  0  0
    4.7350   25.1622   65.4119 C   0  0  0  0  0  0
    5.3731   26.4505   65.9606 C   0  0  0  0  0  0
    4.3110   27.3926   66.5456 C   0  0  0  0  0  0
    3.1650   27.6774   65.5555 C   0  0  0  0  0  0
    2.5902   26.3787   64.9331 C   0  0  0  0  0  0
    5.7855   28.3535   60.9683 C   0  0  0  0  0  0
    5.2486   29.3878   60.2841 N   0  0  0  0  0  0
    6.9080   28.3438   61.4765 O   0  0  0  0  0  0
    5.0312   23.7520   62.3977 O   0  0  0  0  0  0
    5.7799   30.6618   60.0216 C   0  0  0  0  0  0
    7.1058   31.0455   60.2794 C   0  0  0  0  0  0
    7.5377   32.3504   60.0395 C   0  0  0  0  0  0
    6.6361   33.2812   59.5065 C   0  0  0  0  0  0
    4.8974   31.6002   59.4810 C   0  0  0  0  0  0
    8.8495   32.6230   60.3594 O   0  0  0  0  0  0
    9.3045   33.9748   60.4029 C   0  0  0  0  0  0
   10.5795   34.0687   61.2320 C   0  0  0  0  0  0
   11.0062   33.0011   62.0366 C   0  0  0  0  0  0
   12.1485   33.1248   62.8262 C   0  0  0  0  0  0
   12.8658   34.3184   62.8127 C   0  0  0  0  0  0
   12.4412   35.3900   62.0281 C   0  0  0  0  0  0
   11.3039   35.2641   61.2322 C   0  0  0  0  0  0
    4.6218   33.6197   58.8286 H   0  0  0  0  0  0
    6.6199   25.8013   61.2216 H   0  0  0  0  0  0
    5.2900   25.2604   60.2016 H   0  0  0  0  0  0
    4.0434   27.2129   60.4420 H   0  0  0  0  0  0
    3.2991   27.6916   62.5976 H   0  0  0  0  0  0
    4.9509   27.7289   63.2891 H   0  0  0  0  0  0
    3.1630   24.4568   64.1413 H   0  0  0  0  0  0
    5.5158   24.5164   65.0100 H   0  0  0  0  0  0
    4.2910   24.6021   66.2376 H   0  0  0  0  0  0
    5.9340   26.9580   65.1771 H   0  0  0  0  0  0
    6.1022   26.1953   66.7305 H   0  0  0  0  0  0
    4.7865   28.3223   66.8498 H   0  0  0  0  0  0
    3.9015   26.9522   67.4578 H   0  0  0  0  0  0
    3.5223   28.3511   64.7773 H   0  0  0  0  0  0
    2.3722   28.2208   66.0683 H   0  0  0  0  0  0
    2.0331   25.8417   65.7042 H   0  0  0  0  0  0
    1.8444   26.6329   64.1771 H   0  0  0  0  0  0
    4.2991   29.2672   59.9661 H   0  0  0  0  0  0
    7.8286   30.3567   60.6866 H   0  0  0  0  0  0
    6.9358   34.3015   59.3119 H   0  0  0  0  0  0
    3.8686   31.3383   59.2701 H   0  0  0  0  0  0
    9.4951   34.3227   59.3878 H   0  0  0  0  0  0
    8.5640   34.6307   60.8624 H   0  0  0  0  0  0
   10.4516   32.0746   62.0686 H   0  0  0  0  0  0
   12.4761   32.2991   63.4435 H   0  0  0  0  0  0
   13.7565   34.4159   63.4169 H   0  0  0  0  0  0
   12.9969   36.3170   62.0284 H   0  0  0  0  0  0
   10.9823   36.1008   60.6284 H   0  0  0  0  0  0
  1 20  2  0  0  0
  1 21  1  0  0  0
  1 30  1  0  0  0
  2 16  2  0  0  0
  2  6  1  0  0  0
  2  3  1  0  0  0
  3  4  1  0  0  0
  3 31  1  0  0  0
  3 32  1  0  0  0
  4 13  1  0  0  0
  4  5  1  0  0  0
  4 33  1  0  0  0
  5  6  1  0  0  0
  5 34  1  0  0  0
  5 35  1  0  0  0
  6  7  1  0  0  0
  7 12  1  0  0  0
  7  8  1  0  0  0
  7 36  1  0  0  0
  8  9  1  0  0  0
  8 37  1  0  0  0
  8 38  1  0  0  0
  9 10  1  0  0  0
  9 39  1  0  0  0
  9 40  1  0  0  0
 10 11  1  0  0  0
 10 41  1  0  0  0
 10 42  1  0  0  0
 11 12  1  0  0  0
 11 43  1  0  0  0
 11 44  1  0  0  0
 12 45  1  0  0  0
 12 46  1  0  0  0
 13 15  2  0  0  0
 13 14  1  0  0  0
 14 17  1  0  0  0
 14 47  1  0  0  0
 17 18  1  0  0  0
 17 21  2  0  0  0
 18 19  2  0  0  0
 18 48  1  0  0  0
 19 20  1  0  0  0
 19 22  1  0  0  0
 20 49  1  0  0  0
 21 50  1  0  0  0
 22 23  1  0  0  0
 23 24  1  0  0  0
 23 51  1  0  0  0
 23 52  1  0  0  0
 24 25  2  0  0  0
 24 29  1  0  0  0
 25 26  1  0  0  0
 25 53  1  0  0  0
 26 27  2  0  0  0
 26 54  1  0  0  0
 27 28  1  0  0  0
 27 55  1  0  0  0
 28 29  2  0  0  0
 28 56  1  0  0  0
 29 57  1  0  0  0
M  END
> <s_m_entry_id>
8300

> <s_m_entry_name>
dock_pv.95

> <s_m_Source_Path>
/home/csk/Desktop/cluster/DUD-E-result/inha

> <s_m_Source_File>
dock_pv.maegz

> <i_m_Source_File_Index>
95

> <chembl_id>
CHEMBL424903

> <chembl_pref_name>
None

> <i_lp_mmshare_version>
53161

> <r_lp_tautomer_probability>
1

> <s_lp_Force_Field>
OPLS_2005

> <r_lp_Energy>
43.825513

> <b_lp_Chiralities_Consistent>
1

> <s_lp_Variant>
CHEMBL1849_lig31-2

> <s_i_glide_gridfile>
glide-grid_2h7l

> <i_i_glide_lignum>
57

> <i_i_glide_rotatable_bonds>
7

> <r_i_docking_score>
-7.22142817339829

> <r_i_glide_ligand_efficiency>
-0.249014764599941

> <r_i_glide_ligand_efficiency_sa>
-0.765052250265881

> <r_i_glide_ligand_efficiency_ln>
-1.65352393208973

> <r_i_glide_gscore>
-7.22142817339829

> <r_i_glide_lipo>
-3.96129080569605

> <r_i_glide_hbond>
0

> <r_i_glide_metal>
0

> <r_i_glide_rewards>
-1.67975876860402

> <r_i_glide_evdw>
-46.3678245544434

> <r_i_glide_ecoul>
-0.994788765907288

> <r_i_glide_erotb>
0.88723094351003

> <r_i_glide_esite>
0

> <r_i_glide_emodel>
-67.5131621891857

> <r_i_glide_energy>
-47.3626133203506

> <r_i_glide_einternal>
1.82191503047943

> <i_i_glide_confnum>
110

> <i_i_glide_posenum>
29

> <r_i_glide_eff_state_penalty>
0

> <s_user_duplicate_titles>
CHEMBL1849_lig31

> <i_f3d_flags>
0

> <s_m_subgroup_title>
dock_pv

> <s_m_subgroupid>
dock_pv

> <b_m_subgroup_collapsed>
0

$$$$
CHEMBL1849_lig56
                    3D
 Schrodinger Suite 2021-1.
 54 57  0  0  1  0            999 V2000
   10.9093   34.9280   60.8282 C   0  0  0  0  0  0
   11.4756   33.9391   61.6296 C   0  0  0  0  0  0
   10.8044   32.7320   61.8204 C   0  0  0  0  0  0
    9.5596   32.5278   61.2280 C   0  0  0  0  0  0
    8.9339   33.5450   60.4944 C   0  0  0  0  0  0
    9.6567   34.7228   60.2584 C   0  0  0  0  0  0
   12.8410   34.1598   62.2573 C   0  0  0  0  0  0
    7.5252   33.4245   59.9359 C   0  0  0  0  0  0
    6.5026   32.8606   60.6509 N   0  0  0  0  0  0
    7.3223   33.9214   58.8280 O   0  0  0  0  0  0
    5.1435   32.7871   60.0787 C   0  0  0  0  0  0
    4.8257   31.3002   59.7734 C   0  0  0  0  0  0
    5.0865   30.3693   60.8983 N   0  0  0  0  0  0
    6.4493   30.5783   61.4197 C   0  0  0  0  0  0
    6.6256   32.0486   61.8676 C   0  0  0  0  0  0
    4.7933   28.9750   60.4748 C   0  0  0  0  0  0
    5.1677   27.8528   61.4634 C   0  0  0  0  0  0
    5.4845   26.5880   60.9517 C   0  0  0  0  0  0
    5.6898   25.5131   61.8128 C   0  0  0  0  0  0
    5.5810   25.7034   63.1879 C   0  0  0  0  0  0
    5.3228   26.9640   63.7128 C   0  0  0  0  0  0
    5.1201   28.0352   62.8510 C   0  0  0  0  0  0
    2.3263   29.0285   61.1028 C   0  0  0  0  0  0
    3.3053   28.8172   60.1243 C   0  0  0  0  0  0
    2.9194   28.4701   58.8269 C   0  0  0  0  0  0
    1.5693   28.3217   58.5176 C   0  0  0  0  0  0
    0.6057   28.5138   59.5050 C   0  0  0  0  0  0
    0.9790   28.8687   60.7971 C   0  0  0  0  0  0
    5.7036   24.6533   64.0252 F   0  0  0  0  0  0
   -0.7036   28.3521   59.2117 F   0  0  0  0  0  0
   11.4293   35.8589   60.6514 H   0  0  0  0  0  0
   11.2486   31.9473   62.4153 H   0  0  0  0  0  0
    9.0909   31.5682   61.3694 H   0  0  0  0  0  0
    9.2352   35.5183   59.6609 H   0  0  0  0  0  0
   13.3683   33.2153   62.3997 H   0  0  0  0  0  0
   13.4713   34.7738   61.6128 H   0  0  0  0  0  0
   12.7425   34.6590   63.2221 H   0  0  0  0  0  0
    4.4322   33.1564   60.8191 H   0  0  0  0  0  0
    5.0027   33.4140   59.1962 H   0  0  0  0  0  0
    5.4488   30.9832   58.9345 H   0  0  0  0  0  0
    3.7838   31.2372   59.4555 H   0  0  0  0  0  0
    7.1876   30.3111   60.6613 H   0  0  0  0  0  0
    6.6598   29.9437   62.2765 H   0  0  0  0  0  0
    7.5184   32.2569   62.4443 H   0  0  0  0  0  0
    5.8264   32.3039   62.5656 H   0  0  0  0  0  0
    5.3877   28.7932   59.5766 H   0  0  0  0  0  0
    5.5343   26.4244   59.8848 H   0  0  0  0  0  0
    5.9072   24.5329   61.4157 H   0  0  0  0  0  0
    5.2561   27.1038   64.7816 H   0  0  0  0  0  0
    4.9038   29.0041   63.2658 H   0  0  0  0  0  0
    2.6155   29.3111   62.1020 H   0  0  0  0  0  0
    3.6581   28.3224   58.0523 H   0  0  0  0  0  0
    1.2698   28.0618   57.5160 H   0  0  0  0  0  0
    0.2245   29.0291   61.5521 H   0  0  0  0  0  0
  1  6  1  0  0  0
  1  2  2  0  0  0
  1 31  1  0  0  0
  2  3  1  0  0  0
  2  7  1  0  0  0
  3  4  2  0  0  0
  3 32  1  0  0  0
  4  5  1  0  0  0
  4 33  1  0  0  0
  5  8  1  0  0  0
  5  6  2  0  0  0
  6 34  1  0  0  0
  7 35  1  0  0  0
  7 36  1  0  0  0
  7 37  1  0  0  0
  8  9  1  0  0  0
  8 10  2  0  0  0
  9 11  1  0  0  0
  9 15  1  0  0  0
 11 12  1  0  0  0
 11 38  1  0  0  0
 11 39  1  0  0  0
 12 13  1  0  0  0
 12 40  1  0  0  0
 12 41  1  0  0  0
 13 14  1  0  0  0
 13 16  1  0  0  0
 14 15  1  0  0  0
 14 42  1  0  0  0
 14 43  1  0  0  0
 15 44  1  0  0  0
 15 45  1  0  0  0
 16 24  1  0  0  0
 16 17  1  0  0  0
 16 46  1  0  0  0
 17 18  2  0  0  0
 17 22  1  0  0  0
 18 19  1  0  0  0
 18 47  1  0  0  0
 19 20  2  0  0  0
 19 48  1  0  0  0
 20 21  1  0  0  0
 20 29  1  0  0  0
 21 22  2  0  0  0
 21 49  1  0  0  0
 22 50  1  0  0  0
 23 24  2  0  0  0
 23 28  1  0  0  0
 23 51  1  0  0  0
 24 25  1  0  0  0
 25 26  2  0  0  0
 25 52  1  0  0  0
 26 27  1  0  0  0
 26 53  1  0  0  0
 27 28  2  0  0  0
 27 30  1  0  0  0
 28 54  1  0  0  0
M  END
> <s_m_entry_id>
8301

> <s_m_entry_name>
dock_pv.96

> <s_m_Source_Path>
/home/csk/Desktop/cluster/DUD-E-result/inha

> <s_m_Source_File>
dock_pv.maegz

> <i_m_Source_File_Index>
96

> <chembl_id>
CHEMBL240740

> <chembl_pref_name>
None

> <i_lp_mmshare_version>
53161

> <r_lp_tautomer_probability>
1

> <s_lp_Force_Field>
OPLS_2005

> <r_lp_Energy>
55.563726

> <b_lp_Chiralities_Consistent>
1

> <s_lp_Variant>
CHEMBL1849_lig56-1

> <s_i_glide_gridfile>
glide-grid_2h7l

> <i_i_glide_lignum>
106

> <i_i_glide_rotatable_bonds>
5

> <r_i_docking_score>
-7.20469978335893

> <r_i_glide_ligand_efficiency>
-0.240156659445298

> <r_i_glide_ligand_efficiency_sa>
-0.746222577903703

> <r_i_glide_ligand_efficiency_ln>
-1.63698629227077

> <r_i_glide_gscore>
-7.20469978335893

> <r_i_glide_lipo>
-3.47404008851995

> <r_i_glide_hbond>
0

> <r_i_glide_metal>
0

> <r_i_glide_rewards>
-2.10759199619796

> <r_i_glide_evdw>
-39.657039642334

> <r_i_glide_ecoul>
-1.51504385471344

> <r_i_glide_erotb>
0.595056715406518

> <r_i_glide_esite>
-0.00801585372382332

> <r_i_glide_emodel>
-54.1511044196682

> <r_i_glide_energy>
-41.1720834970474

> <r_i_glide_einternal>
9.21994495391846

> <i_i_glide_confnum>
6

> <i_i_glide_posenum>
199

> <r_i_glide_eff_state_penalty>
0

> <s_user_duplicate_titles>
CHEMBL1849_lig56

> <i_f3d_flags>
0

> <s_m_subgroup_title>
dock_pv

> <s_m_subgroupid>
dock_pv

> <b_m_subgroup_collapsed>
0

$$$$
CHEMBL1849_lig197
                    3D
 Schrodinger Suite 2021-1.
 49 53  0  0  1  0            999 V2000
    5.9906   30.3402   58.7691 C   0  0  0  0  0  0
    6.0793   29.8905   57.6273 O   0  0  0  0  0  0
    6.6329   31.6830   59.0531 C   0  0  0  0  0  0
    5.9774   32.7016   59.7754 C   0  0  0  0  0  0
    6.6234   33.9121   60.0267 C   0  0  0  0  0  0
    7.8977   34.1449   59.5179 C   0  0  0  0  0  0
    8.5044   33.1919   58.7129 C   0  0  0  0  0  0
    7.8920   31.9592   58.5045 C   0  0  0  0  0  0
    4.7163   32.5396   60.2401 F   0  0  0  0  0  0
    5.3510   29.6718   59.7676 N   0  0  0  0  0  0
    5.6143   29.9614   61.1897 C   0  0  0  0  0  0
    6.1839   28.6863   61.8323 C   0  0  0  0  0  0
    5.2235   27.5800   61.7470 N   0  0  0  0  0  0
    5.0858   27.2442   60.3203 C   0  0  0  0  0  0
    4.5647   28.4468   59.4824 C   0  0  0  0  0  0
    5.6151   26.4946   62.6847 C   0  0  0  0  0  0
    5.0201   26.7484   64.0755 C   0  0  0  0  0  0
    5.1359   27.8477   64.9398 C   0  0  0  0  0  0
    4.5045   27.8515   66.1829 C   0  0  0  0  0  0
    3.7456   26.7535   66.5815 C   0  0  0  0  0  0
    3.6113   25.6558   65.7308 C   0  0  0  0  0  0
    4.2490   25.6598   64.4868 C   0  0  0  0  0  0
    4.2690   24.6421   63.4295 C   0  0  0  0  0  0
    3.6601   23.3858   63.3677 C   0  0  0  0  0  0
    3.8767   22.5684   62.2574 C   0  0  0  0  0  0
    4.7145   22.9951   61.2283 C   0  0  0  0  0  0
    5.3075   24.2555   61.2925 C   0  0  0  0  0  0
    5.0661   25.1002   62.3806 C   0  0  0  0  0  0
    6.1230   34.6623   60.6130 H   0  0  0  0  0  0
    8.3995   35.0841   59.7041 H   0  0  0  0  0  0
    9.4597   33.4189   58.2663 H   0  0  0  0  0  0
    8.4138   31.2081   57.9330 H   0  0  0  0  0  0
    6.3747   30.7261   61.3378 H   0  0  0  0  0  0
    4.7056   30.2783   61.7021 H   0  0  0  0  0  0
    6.5003   28.9067   62.8367 H   0  0  0  0  0  0
    7.0989   28.3967   61.3089 H   0  0  0  0  0  0
    4.3812   26.4249   60.1921 H   0  0  0  0  0  0
    6.0646   26.9275   59.9460 H   0  0  0  0  0  0
    3.5288   28.6448   59.7592 H   0  0  0  0  0  0
    4.5680   28.1733   58.4283 H   0  0  0  0  0  0
    6.7046   26.4175   62.7405 H   0  0  0  0  0  0
    5.7036   28.7227   64.6826 H   0  0  0  0  0  0
    4.6059   28.7138   66.8269 H   0  0  0  0  0  0
    3.2541   26.7565   67.5429 H   0  0  0  0  0  0
    3.0133   24.8151   66.0466 H   0  0  0  0  0  0
    3.0349   23.0298   64.1720 H   0  0  0  0  0  0
    3.4005   21.6016   62.2028 H   0  0  0  0  0  0
    4.9043   22.3529   60.3833 H   0  0  0  0  0  0
    5.9600   24.5685   60.4927 H   0  0  0  0  0  0
  1  2  2  0  0  0
  1  3  1  0  0  0
  1 10  1  0  0  0
  3  4  1  0  0  0
  3  8  2  0  0  0
  4  5  2  0  0  0
  4  9  1  0  0  0
  5  6  1  0  0  0
  5 29  1  0  0  0
  6  7  2  0  0  0
  6 30  1  0  0  0
  7  8  1  0  0  0
  7 31  1  0  0  0
  8 32  1  0  0  0
 10 11  1  0  0  0
 10 15  1  0  0  0
 11 12  1  0  0  0
 11 33  1  0  0  0
 11 34  1  0  0  0
 12 13  1  0  0  0
 12 35  1  0  0  0
 12 36  1  0  0  0
 13 14  1  0  0  0
 13 16  1  0  0  0
 14 15  1  0  0  0
 14 37  1  0  0  0
 14 38  1  0  0  0
 15 39  1  0  0  0
 15 40  1  0  0  0
 16 17  1  0  0  0
 16 28  1  0  0  0
 16 41  1  0  0  0
 17 18  1  0  0  0
 17 22  2  0  0  0
 18 19  2  0  0  0
 18 42  1  0  0  0
 19 20  1  0  0  0
 19 43  1  0  0  0
 20 21  2  0  0  0
 20 44  1  0  0  0
 21 22  1  0  0  0
 21 45  1  0  0  0
 22 23  1  0  0  0
 23 24  1  0  0  0
 23 28  2  0  0  0
 24 25  2  0  0  0
 24 46  1  0  0  0
 25 26  1  0  0  0
 25 47  1  0  0  0
 26 27  2  0  0  0
 26 48  1  0  0  0
 27 28  1  0  0  0
 27 49  1  0  0  0
M  END
> <s_m_entry_id>
8302

> <s_m_entry_name>
dock_pv.97

> <s_m_Source_Path>
/home/csk/Desktop/cluster/DUD-E-result/inha

> <s_m_Source_File>
dock_pv.maegz

> <i_m_Source_File_Index>
97

> <chembl_id>
CHEMBL3393964

> <chembl_pref_name>
None

> <i_lp_mmshare_version>
53161

> <r_lp_tautomer_probability>
1

> <s_lp_Force_Field>
OPLS_2005

> <r_lp_Energy>
73.979635

> <b_lp_Chiralities_Consistent>
1

> <s_lp_Variant>
CHEMBL1849_lig197-1

> <s_i_glide_gridfile>
glide-grid_2h7l

> <i_i_glide_lignum>
264

> <i_i_glide_rotatable_bonds>
3

> <r_i_docking_score>
-7.19007972600347

> <r_i_glide_ligand_efficiency>
-0.256788561642981

> <r_i_glide_ligand_efficiency_sa>
-0.779761313522782

> <r_i_glide_ligand_efficiency_ln>
-1.65968151067565

> <r_i_glide_gscore>
-7.19007972600347

> <r_i_glide_lipo>
-3.88546661318585

> <r_i_glide_hbond>
0

> <r_i_glide_metal>
0

> <r_i_glide_rewards>
-1.50825808609939

> <r_i_glide_evdw>
-37.0286445617676

> <r_i_glide_ecoul>
-2.41768312454224

> <r_i_glide_erotb>
0.417729670051487

> <r_i_glide_esite>
0

> <r_i_glide_emodel>
-54.1564131243784

> <r_i_glide_energy>
-39.4463276863098

> <r_i_glide_einternal>
3.42561864852905

> <i_i_glide_confnum>
10

> <i_i_glide_posenum>
107

> <r_i_glide_eff_state_penalty>
0

> <s_user_duplicate_titles>
CHEMBL1849_lig197

> <i_f3d_flags>
0

> <s_m_subgroup_title>
dock_pv

> <s_m_subgroupid>
dock_pv

> <b_m_subgroup_collapsed>
0

$$$$
CHEMBL1849_lig206
                    3D
 Schrodinger Suite 2021-1.
 55 60  0  0  1  0            999 V2000
    4.6016   30.2308   60.9115 N   0  0  0  0  0  0
   12.4362   33.2512   62.8471 N   0  0  0  0  0  0
   11.9983   35.0233   61.5533 C   0  0  0  0  0  0
   12.9201   34.4582   62.4107 C   0  0  0  0  0  0
   10.9043   34.1071   61.4369 C   0  0  0  0  0  0
   11.2028   33.0020   62.2854 C   0  0  0  0  0  0
   10.3324   31.9221   62.4280 C   0  0  0  0  0  0
    9.1626   31.9415   61.6611 C   0  0  0  0  0  0
    8.8157   33.0169   60.8269 C   0  0  0  0  0  0
    9.7040   34.0992   60.7099 C   0  0  0  0  0  0
    7.5404   33.0156   59.9941 C   0  0  0  0  0  0
    7.5923   33.5223   58.8682 O   0  0  0  0  0  0
    6.3819   32.4665   60.4688 N   0  0  0  0  0  0
    6.1329   31.9822   61.8315 C   0  0  0  0  0  0
    5.8111   30.4750   61.7194 C   0  0  0  0  0  0
    4.7483   30.8652   59.5832 C   0  0  0  0  0  0
    5.1916   32.3513   59.6090 C   0  0  0  0  0  0
    4.2114   28.7906   60.8482 C   0  0  2  0  0  0
    1.8736   28.2034   60.9777 C   0  0  0  0  0  0
    2.8877   28.5934   60.1044 C   0  0  0  0  0  0
    2.5917   28.7205   58.7441 C   0  0  0  0  0  0
    1.2881   28.5456   58.2825 C   0  0  0  0  0  0
    0.2686   28.2187   59.1777 C   0  0  0  0  0  0
    0.5619   28.0349   60.5272 C   0  0  0  0  0  0
    3.8331   28.2300   62.2267 C   0  0  0  0  0  0
    2.4625   27.9842   62.3002 C   0  0  0  0  0  0
    1.8724   27.5535   63.4865 C   0  0  0  0  0  0
    2.6629   27.3287   64.6087 C   0  0  0  0  0  0
    4.0538   27.4956   64.5470 C   0  0  0  0  0  0
    4.6307   27.9213   63.3376 C   0  0  0  0  0  0
    4.8933   27.2245   65.7356 N   0  3  0  0  0  0
    4.3450   27.1051   66.8295 O   0  0  0  0  0  0
    6.1040   27.1214   65.5806 O   0  5  0  0  0  0
   12.9457   32.6656   63.4938 H   0  0  0  0  0  0
   12.1046   35.9738   61.0527 H   0  0  0  0  0  0
   13.8856   34.8082   62.7494 H   0  0  0  0  0  0
   10.5636   31.0865   63.0715 H   0  0  0  0  0  0
    8.5242   31.0745   61.7228 H   0  0  0  0  0  0
    9.4688   34.9332   60.0650 H   0  0  0  0  0  0
    6.9329   32.2030   62.5327 H   0  0  0  0  0  0
    5.2791   32.5103   62.2575 H   0  0  0  0  0  0
    5.6986   30.1117   62.7355 H   0  0  0  0  0  0
    6.6492   29.9343   61.2776 H   0  0  0  0  0  0
    3.7993   30.8545   59.0551 H   0  0  0  0  0  0
    5.4760   30.2792   59.0170 H   0  0  0  0  0  0
    4.3918   32.9596   60.0326 H   0  0  0  0  0  0
    5.3468   32.7185   58.5941 H   0  0  0  0  0  0
    5.0029   28.2000   60.3859 H   0  0  0  0  0  0
    3.3613   28.9733   58.0295 H   0  0  0  0  0  0
    1.0724   28.6814   57.2317 H   0  0  0  0  0  0
   -0.7455   28.0919   58.8264 H   0  0  0  0  0  0
   -0.2272   27.7478   61.2050 H   0  0  0  0  0  0
    0.8093   27.3780   63.5432 H   0  0  0  0  0  0
    2.1890   26.9981   65.5220 H   0  0  0  0  0  0
    5.7022   28.0460   63.2780 H   0  0  0  0  0  0
  1 15  1  0  0  0
  1 16  1  0  0  0
  1 18  1  0  0  0
  2  6  1  0  0  0
  2  4  1  0  0  0
  2 34  1  0  0  0
  3  5  1  0  0  0
  3  4  2  0  0  0
  3 35  1  0  0  0
  4 36  1  0  0  0
  5  6  2  0  0  0
  5 10  1  0  0  0
  6  7  1  0  0  0
  7  8  2  0  0  0
  7 37  1  0  0  0
  8  9  1  0  0  0
  8 38  1  0  0  0
  9 10  2  0  0  0
  9 11  1  0  0  0
 10 39  1  0  0  0
 11 12  2  0  0  0
 11 13  1  0  0  0
 13 14  1  0  0  0
 13 17  1  0  0  0
 14 15  1  0  0  0
 14 40  1  0  0  0
 14 41  1  0  0  0
 15 42  1  0  0  0
 15 43  1  0  0  0
 16 17  1  0  0  0
 16 44  1  0  0  0
 16 45  1  0  0  0
 17 46  1  0  0  0
 17 47  1  0  0  0
 18 20  1  0  0  0
 18 25  1  0  0  0
 18 48  1  0  0  0
 19 26  1  0  0  0
 19 20  2  0  0  0
 19 24  1  0  0  0
 20 21  1  0  0  0
 21 22  2  0  0  0
 21 49  1  0  0  0
 22 23  1  0  0  0
 22 50  1  0  0  0
 23 24  2  0  0  0
 23 51  1  0  0  0
 24 52  1  0  0  0
 25 26  2  0  0  0
 25 30  1  0  0  0
 26 27  1  0  0  0
 27 28  2  0  0  0
 27 53  1  0  0  0
 28 29  1  0  0  0
 28 54  1  0  0  0
 29 30  2  0  0  0
 29 31  1  0  0  0
 30 55  1  0  0  0
 31 32  2  0  0  0
 31 33  1  0  0  0
M  CHG  2  31   1  33  -1
M  END
> <s_m_entry_id>
8303

> <s_m_entry_name>
dock_pv.98

> <s_m_Source_Path>
/home/csk/Desktop/cluster/DUD-E-result/inha

> <s_m_Source_File>
dock_pv.maegz

> <i_m_Source_File_Index>
98

> <chembl_id>
CHEMBL3960902

> <chembl_pref_name>
None

> <i_lp_mmshare_version>
53161

> <r_lp_tautomer_probability>
1

> <s_lp_Force_Field>
OPLS_2005

> <r_lp_Energy>
77.320632

> <b_lp_Chiralities_Consistent>
1

> <s_lp_Variant>
CHEMBL1849_lig206-1

> <s_i_glide_gridfile>
glide-grid_2h7l

> <i_i_glide_lignum>
274

> <i_i_glide_rotatable_bonds>
4

> <r_i_docking_score>
-7.18511483953506

> <r_i_glide_ligand_efficiency>
-0.217730752713183

> <r_i_glide_ligand_efficiency_sa>
-0.698378863209406

> <r_i_glide_ligand_efficiency_ln>
-1.59793233777899

> <r_i_glide_gscore>
-7.18511483953506

> <r_i_glide_lipo>
-3.22907910207791

> <r_i_glide_hbond>
0

> <r_i_glide_metal>
0

> <r_i_glide_rewards>
-1.96960405168999

> <r_i_glide_evdw>
-43.3130874633789

> <r_i_glide_ecoul>
-0.880480349063873

> <r_i_glide_erotb>
0.311294739761371

> <r_i_glide_esite>
0

> <r_i_glide_emodel>
-61.2012979753037

> <r_i_glide_energy>
-44.1935678124428

> <r_i_glide_einternal>
4.34656429290771

> <i_i_glide_confnum>
13

> <i_i_glide_posenum>
242

> <r_i_glide_eff_state_penalty>
0

> <s_user_duplicate_titles>
CHEMBL1849_lig206

> <i_f3d_flags>
0

> <s_m_subgroup_title>
dock_pv

> <s_m_subgroupid>
dock_pv

> <b_m_subgroup_collapsed>
0

$$$$
CHEMBL1849_lig79
                    3D
 Schrodinger Suite 2021-1.
 44 45  0  0  1  0            999 V2000
    6.7849   33.5050   59.6727 C   0  0  0  0  0  0
    8.0422   33.2996   59.0979 C   0  0  0  0  0  0
    8.3256   32.0758   58.4913 C   0  0  0  0  0  0
    7.3804   31.0520   58.4917 C   0  0  0  0  0  0
    6.1331   31.2445   59.0978 C   0  0  0  0  0  0
    5.8267   32.4894   59.6644 C   0  0  0  0  0  0
    5.2072   30.2247   59.1153 O   0  0  0  0  0  0
    5.4744   29.0313   59.7574 C   0  0  0  0  0  0
    6.4914   28.8681   60.7109 C   0  0  0  0  0  0
    6.6938   27.6317   61.3176 C   0  0  0  0  0  0
    5.8809   26.5360   60.9932 C   0  0  0  0  0  0
    4.8552   26.7133   60.0541 C   0  0  0  0  0  0
    4.6534   27.9495   59.4474 C   0  0  0  0  0  0
    4.5944   32.7251   60.2200 O   0  0  0  0  0  0
    9.0980   34.3935   59.1182 C   0  0  0  0  0  0
    9.7816   34.5609   60.4882 C   0  0  0  0  0  0
   10.9731   35.5330   60.4187 C   0  0  0  0  0  0
   11.6391   35.8561   61.7732 C   0  0  0  0  0  0
   12.3116   34.6724   62.4960 C   0  0  0  0  0  0
   13.6377   34.2316   61.8622 C   0  0  0  0  0  0
    6.1052   25.2111   61.6283 N   0  3  0  0  0  0
    5.3550   24.2841   61.3327 O   0  0  0  0  0  0
    7.0294   25.0903   62.4281 O   0  5  0  0  0  0
    6.5566   34.4527   60.1386 H   0  0  0  0  0  0
    9.2896   31.9201   58.0283 H   0  0  0  0  0  0
    7.6166   30.1024   58.0315 H   0  0  0  0  0  0
    7.1293   29.6960   60.9844 H   0  0  0  0  0  0
    7.4943   27.5287   62.0380 H   0  0  0  0  0  0
    4.2063   25.8925   59.7874 H   0  0  0  0  0  0
    3.8585   28.0743   58.7260 H   0  0  0  0  0  0
    4.3941   33.6616   60.3227 H   0  0  0  0  0  0
    8.6428   35.3309   58.8117 H   0  0  0  0  0  0
    9.8452   34.1858   58.3531 H   0  0  0  0  0  0
   10.1266   33.5881   60.8418 H   0  0  0  0  0  0
    9.0563   34.9192   61.2221 H   0  0  0  0  0  0
   10.6359   36.4704   59.9749 H   0  0  0  0  0  0
   11.7108   35.1266   59.7291 H   0  0  0  0  0  0
   10.9040   36.3170   62.4265 H   0  0  0  0  0  0
   12.3819   36.6374   61.6289 H   0  0  0  0  0  0
   11.6302   33.8250   62.5582 H   0  0  0  0  0  0
   12.5051   34.9603   63.5302 H   0  0  0  0  0  0
   14.0716   33.3906   62.4040 H   0  0  0  0  0  0
   14.3687   35.0402   61.8697 H   0  0  0  0  0  0
   13.5010   33.9221   60.8282 H   0  0  0  0  0  0
  1  6  1  0  0  0
  1  2  2  0  0  0
  1 24  1  0  0  0
  2 15  1  0  0  0
  2  3  1  0  0  0
  3  4  2  0  0  0
  3 25  1  0  0  0
  4  5  1  0  0  0
  4 26  1  0  0  0
  5  6  2  0  0  0
  5  7  1  0  0  0
  6 14  1  0  0  0
  7  8  1  0  0  0
  8 13  1  0  0  0
  8  9  2  0  0  0
  9 10  1  0  0  0
  9 27  1  0  0  0
 10 11  2  0  0  0
 10 28  1  0  0  0
 11 12  1  0  0  0
 11 21  1  0  0  0
 12 13  2  0  0  0
 12 29  1  0  0  0
 13 30  1  0  0  0
 14 31  1  0  0  0
 15 16  1  0  0  0
 15 32  1  0  0  0
 15 33  1  0  0  0
 16 17  1  0  0  0
 16 34  1  0  0  0
 16 35  1  0  0  0
 17 18  1  0  0  0
 17 36  1  0  0  0
 17 37  1  0  0  0
 18 19  1  0  0  0
 18 38  1  0  0  0
 18 39  1  0  0  0
 19 20  1  0  0  0
 19 40  1  0  0  0
 19 41  1  0  0  0
 20 42  1  0  0  0
 20 43  1  0  0  0
 20 44  1  0  0  0
 21 22  2  0  0  0
 21 23  1  0  0  0
M  CHG  2  21   1  23  -1
M  END
> <s_m_entry_id>
8304

> <s_m_entry_name>
dock_pv.99

> <s_m_Source_Path>
/home/csk/Desktop/cluster/DUD-E-result/inha

> <s_m_Source_File>
dock_pv.maegz

> <i_m_Source_File_Index>
99

> <chembl_id>
CHEMBL264417

> <chembl_pref_name>
None

> <i_lp_mmshare_version>
53161

> <r_lp_tautomer_probability>
0.999999999999776

> <s_lp_Force_Field>
OPLS_2005

> <r_lp_Energy>
15.447509

> <b_lp_Chiralities_Consistent>
1

> <s_lp_Variant>
CHEMBL1849_lig79-1

> <s_i_glide_gridfile>
glide-grid_2h7l

> <i_i_glide_lignum>
129

> <i_i_glide_rotatable_bonds>
9

> <r_i_docking_score>
-7.18008038670123

> <r_i_glide_ligand_efficiency>
-0.312177408117445

> <r_i_glide_ligand_efficiency_sa>
-0.887791021872959

> <r_i_glide_ligand_efficiency_ln>
-1.73620854287376

> <r_i_glide_gscore>
-7.18008038670123

> <r_i_glide_lipo>
-4.21265113554949

> <r_i_glide_hbond>
0

> <r_i_glide_metal>
0

> <r_i_glide_rewards>
-1.75447758096613

> <r_i_glide_evdw>
-40.7372550964355

> <r_i_glide_ecoul>
-1.98871290683746

> <r_i_glide_erotb>
1.12221802066179

> <r_i_glide_esite>
0

> <r_i_glide_emodel>
-58.8091973260657

> <r_i_glide_energy>
-42.725968003273

> <r_i_glide_einternal>
4.94077110290527

> <i_i_glide_confnum>
94

> <i_i_glide_posenum>
366

> <r_i_glide_eff_state_penalty>
0

> <s_user_duplicate_titles>
CHEMBL1849_lig79,428381

> <i_f3d_flags>
0

> <s_m_subgroup_title>
dock_pv

> <s_m_subgroupid>
dock_pv

> <b_m_subgroup_collapsed>
0

$$$$
CHEMBL1849_lig190
                    3D
 Schrodinger Suite 2021-1.
 37 39  0  0  1  0            999 V2000
    5.8259   26.8272   61.8331 C   0  0  0  0  0  0
    5.2984   26.4593   60.5939 C   0  0  0  0  0  0
    5.0773   27.4292   59.6141 C   0  0  0  0  0  0
    6.1348   28.1637   62.0931 C   0  0  0  0  0  0
    5.9426   29.1265   61.0941 C   0  0  0  0  0  0
    5.4124   28.7588   59.8587 C   0  0  0  0  0  0
    5.1921   29.6950   58.8474 N   0  0  0  0  0  0
    5.4902   30.9281   59.0345 C   0  0  0  0  0  0
    6.0564   31.3906   60.2202 N   0  0  0  0  0  0
    6.2970   30.5815   61.3192 C   0  0  0  0  0  0
    6.7510   30.9947   62.3893 O   0  0  0  0  0  0
    6.4730   32.8194   60.3876 C   0  0  0  0  0  0
    7.9203   33.0803   59.9065 C   0  0  0  0  0  0
    8.5114   34.1687   60.4279 N   0  0  0  0  0  0
    8.4743   32.3360   59.0965 O   0  0  0  0  0  0
    9.8680   34.6444   60.1387 C   0  0  0  0  0  0
   10.9015   34.2652   61.1961 C   0  0  0  0  0  0
   12.0016   35.0079   61.6262 C   0  0  0  0  0  0
   12.8317   34.3542   62.5403 C   0  0  0  0  0  0
   12.3696   33.0948   62.8623 C   0  0  0  0  0  0
   10.9039   32.7233   62.0290 S   0  0  0  0  0  0
    5.2092   31.8891   57.8911 C   0  0  0  0  0  0
    6.0953   25.6286   63.0468 Cl  0  0  0  0  0  0
    5.0561   25.4259   60.3949 H   0  0  0  0  0  0
    4.6439   27.1559   58.6673 H   0  0  0  0  0  0
    6.5160   28.4298   63.0662 H   0  0  0  0  0  0
    6.3779   33.1428   61.4267 H   0  0  0  0  0  0
    5.7910   33.4849   59.8589 H   0  0  0  0  0  0
    8.0096   34.6916   61.1308 H   0  0  0  0  0  0
    9.8125   35.7314   60.0680 H   0  0  0  0  0  0
   10.1893   34.3227   59.1458 H   0  0  0  0  0  0
   12.2101   35.9989   61.2543 H   0  0  0  0  0  0
   13.7332   34.7823   62.9508 H   0  0  0  0  0  0
   12.8076   32.3815   63.5450 H   0  0  0  0  0  0
    4.7315   31.3893   57.0476 H   0  0  0  0  0  0
    4.5403   32.6919   58.2018 H   0  0  0  0  0  0
    6.1391   32.3220   57.5315 H   0  0  0  0  0  0
  1  2  2  0  0  0
  1  4  1  0  0  0
  1 23  1  0  0  0
  2  3  1  0  0  0
  2 24  1  0  0  0
  3  6  2  0  0  0
  3 25  1  0  0  0
  4  5  2  0  0  0
  4 26  1  0  0  0
  5  6  1  0  0  0
  5 10  1  0  0  0
  6  7  1  0  0  0
  7  8  2  0  0  0
  8  9  1  0  0  0
  8 22  1  0  0  0
  9 10  1  0  0  0
  9 12  1  0  0  0
 10 11  2  0  0  0
 12 13  1  0  0  0
 12 27  1  0  0  0
 12 28  1  0  0  0
 13 14  1  0  0  0
 13 15  2  0  0  0
 14 16  1  0  0  0
 14 29  1  0  0  0
 16 17  1  0  0  0
 16 30  1  0  0  0
 16 31  1  0  0  0
 17 18  2  0  0  0
 17 21  1  0  0  0
 18 19  1  0  0  0
 18 32  1  0  0  0
 19 20  2  0  0  0
 19 33  1  0  0  0
 20 21  1  0  0  0
 20 34  1  0  0  0
 22 35  1  0  0  0
 22 36  1  0  0  0
 22 37  1  0  0  0
M  END
> <s_m_entry_id>
8305

> <s_m_entry_name>
dock_pv.100

> <s_m_Source_Path>
/home/csk/Desktop/cluster/DUD-E-result/inha

> <s_m_Source_File>
dock_pv.maegz

> <i_m_Source_File_Index>
100

> <chembl_id>
CHEMBL3331284

> <chembl_pref_name>
None

> <i_lp_mmshare_version>
53161

> <r_lp_tautomer_probability>
1

> <s_lp_Force_Field>
OPLS_2005

> <r_lp_Energy>
15.793736

> <b_lp_Chiralities_Consistent>
1

> <s_lp_Variant>
CHEMBL1849_lig190-1

> <s_i_glide_gridfile>
glide-grid_2h7l

> <i_i_glide_lignum>
257

> <i_i_glide_rotatable_bonds>
5

> <r_i_docking_score>
-7.13784247134342

> <r_i_glide_ligand_efficiency>
-0.310340977014931

> <r_i_glide_ligand_efficiency_sa>
-0.882568456105208

> <r_i_glide_ligand_efficiency_ln>
-1.725995031948

> <r_i_glide_gscore>
-7.13784247134342

> <r_i_glide_lipo>
-3.39798075289877

> <r_i_glide_hbond>
0

> <r_i_glide_metal>
0

> <r_i_glide_rewards>
-2.27275737264102

> <r_i_glide_evdw>
-40.7783813476562

> <r_i_glide_ecoul>
-0.382369697093964

> <r_i_glide_erotb>
0.629170176143277

> <r_i_glide_esite>
0

> <r_i_glide_emodel>
-58.4996745123402

> <r_i_glide_energy>
-41.1607510447502

> <r_i_glide_einternal>
1.07667946815491

> <i_i_glide_confnum>
4

> <i_i_glide_posenum>
81

> <r_i_glide_eff_state_penalty>
0

> <s_user_duplicate_titles>
CHEMBL1849_lig190

> <i_f3d_flags>
0

> <s_m_subgroup_title>
dock_pv

> <s_m_subgroupid>
dock_pv

> <b_m_subgroup_collapsed>
0

$$$$
CHEMBL1849_lig93
                    3D
 Schrodinger Suite 2021-1.
 38 40  0  0  1  0            999 V2000
    4.5119   29.6582   59.2612 C   0  0  0  0  0  0
    4.8410   28.4648   59.8976 C   0  0  0  0  0  0
    6.0776   28.3287   60.5184 C   0  0  0  0  0  0
    6.9925   29.3773   60.4820 C   0  0  0  0  0  0
    6.6920   30.5804   59.8231 C   0  0  0  0  0  0
    5.4089   30.7381   59.2302 C   0  0  0  0  0  0
    4.9517   32.0036   58.5972 N   0  3  0  0  0  0
    4.2032   31.9239   57.6275 O   0  5  0  0  0  0
    5.3049   33.0737   59.0835 O   0  0  0  0  0  0
    7.7802   31.6185   59.6660 C   0  0  0  0  0  0
    8.4716   31.9317   60.7889 N   0  0  0  0  0  0
    7.9992   32.0934   58.5486 O   0  0  0  0  0  0
    9.4424   32.9278   60.9146 C   0  0  0  0  0  0
   10.5448   32.9411   61.8102 C   0  0  0  0  0  0
    9.3029   34.4291   60.0195 S   0  0  0  0  0  0
   10.6270   35.0743   60.8947 C   0  0  0  0  0  0
   11.2399   34.1511   61.6935 C   0  0  0  0  0  0
   12.4623   34.7426   62.3414 C   0  0  0  0  0  0
   12.2158   36.2394   62.1866 C   0  0  0  0  0  0
   11.2277   36.4343   61.0219 C   0  0  0  0  0  0
   10.9191   31.9038   62.7594 C   0  0  0  0  0  0
   12.2554   31.8522   62.9770 O   0  0  0  0  0  0
   10.1040   31.1219   63.2275 O   0  0  0  0  0  0
   12.8512   30.7351   63.6280 C   0  0  0  0  0  0
    3.5343   29.7516   58.8065 H   0  0  0  0  0  0
    4.1317   27.6503   59.9174 H   0  0  0  0  0  0
    6.3372   27.4029   61.0121 H   0  0  0  0  0  0
    7.9613   29.2196   60.9350 H   0  0  0  0  0  0
    8.3947   31.3025   61.5748 H   0  0  0  0  0  0
   13.3692   34.4473   61.8114 H   0  0  0  0  0  0
   12.5887   34.4668   63.3883 H   0  0  0  0  0  0
   11.7947   36.6552   63.1042 H   0  0  0  0  0  0
   13.1721   36.7224   62.0280 H   0  0  0  0  0  0
   10.5041   37.2098   61.2657 H   0  0  0  0  0  0
   11.7033   36.7208   60.0954 H   0  0  0  0  0  0
   13.8101   31.0257   64.0580 H   0  0  0  0  0  0
   12.2336   30.3233   64.4283 H   0  0  0  0  0  0
   13.0348   29.9372   62.9078 H   0  0  0  0  0  0
  1  6  1  0  0  0
  1  2  2  0  0  0
  1 25  1  0  0  0
  2  3  1  0  0  0
  2 26  1  0  0  0
  3  4  2  0  0  0
  3 27  1  0  0  0
  4  5  1  0  0  0
  4 28  1  0  0  0
  5 10  1  0  0  0
  5  6  2  0  0  0
  6  7  1  0  0  0
  7  8  1  0  0  0
  7  9  2  0  0  0
 10 12  2  0  0  0
 10 11  1  0  0  0
 11 13  1  0  0  0
 11 29  1  0  0  0
 13 14  2  0  0  0
 13 15  1  0  0  0
 14 17  1  0  0  0
 14 21  1  0  0  0
 15 16  1  0  0  0
 16 17  2  0  0  0
 16 20  1  0  0  0
 17 18  1  0  0  0
 18 19  1  0  0  0
 18 30  1  0  0  0
 18 31  1  0  0  0
 19 20  1  0  0  0
 19 32  1  0  0  0
 19 33  1  0  0  0
 20 34  1  0  0  0
 20 35  1  0  0  0
 21 22  1  0  0  0
 21 23  2  0  0  0
 22 24  1  0  0  0
 24 36  1  0  0  0
 24 37  1  0  0  0
 24 38  1  0  0  0
M  CHG  2   7   1   8  -1
M  END
> <s_m_entry_id>
8306

> <s_m_entry_name>
dock_pv.101

> <s_m_Source_Path>
/home/csk/Desktop/cluster/DUD-E-result/inha

> <s_m_Source_File>
dock_pv.maegz

> <i_m_Source_File_Index>
101

> <chembl_id>
CHEMBL565062

> <chembl_pref_name>
None

> <i_lp_mmshare_version>
53161

> <r_lp_tautomer_probability>
1

> <s_lp_Force_Field>
OPLS_2005

> <r_lp_Energy>
41.761983

> <b_lp_Chiralities_Consistent>
1

> <s_lp_Variant>
CHEMBL1849_lig93-1

> <s_i_glide_gridfile>
glide-grid_2h7l

> <i_i_glide_lignum>
143

> <i_i_glide_rotatable_bonds>
6

> <r_i_docking_score>
-7.12623169054086

> <r_i_glide_ligand_efficiency>
-0.296926320439202

> <r_i_glide_ligand_efficiency_sa>
-0.856483715225482

> <r_i_glide_ligand_efficiency_ln>
-1.70563424501101

> <r_i_glide_gscore>
-7.12623169054086

> <r_i_glide_lipo>
-2.99657046124056

> <r_i_glide_hbond>
0

> <r_i_glide_metal>
0

> <r_i_glide_rewards>
-2.67247703116073

> <r_i_glide_evdw>
-34.0657272338867

> <r_i_glide_ecoul>
-2.53855466842651

> <r_i_glide_erotb>
0.633892826558576

> <r_i_glide_esite>
-0.00700746273983851

> <r_i_glide_emodel>
-50.4837154813096

> <r_i_glide_energy>
-36.6042819023132

> <r_i_glide_einternal>
5.1522388458252

> <i_i_glide_confnum>
21

> <i_i_glide_posenum>
179

> <r_i_glide_eff_state_penalty>
0

> <s_user_duplicate_titles>
CHEMBL1849_lig93

> <i_f3d_flags>
0

> <s_m_subgroup_title>
dock_pv

> <s_m_subgroupid>
dock_pv

> <b_m_subgroup_collapsed>
0

$$$$
CHEMBL1849_lig16
                    3D
 Schrodinger Suite 2021-1.
 43 45  0  0  1  0            999 V2000
    4.9324   32.3495   60.1958 C   0  0  0  0  0  0
    5.8316   33.5504   59.9307 C   0  0  0  0  0  0
    7.0912   33.0375   59.2434 C   0  0  2  0  0  0
    6.6276   31.6879   58.7073 C   0  0  0  0  0  0
    5.5017   31.2903   59.5690 N   0  0  0  0  0  0
    4.8008   29.9872   59.5073 C   0  0  0  0  0  0
    5.5156   28.9129   58.6484 C   0  0  0  0  0  0
    6.7799   28.2960   59.2934 C   0  0  0  0  0  0
    6.5044   27.7639   60.7122 C   0  0  0  0  0  0
    5.8055   28.8190   61.5887 C   0  0  0  0  0  0
    4.5277   29.3358   60.9018 C   0  0  0  0  0  0
    8.2444   32.8995   60.2682 C   0  0  0  0  0  0
    9.1459   33.9076   60.3001 N   0  0  0  0  0  0
    8.2711   31.9219   61.0165 O   0  0  0  0  0  0
   10.2982   34.0194   61.1005 C   0  0  0  0  0  0
   10.8661   35.2911   61.2275 C   0  0  0  0  0  0
   11.9890   35.4821   62.0304 C   0  0  0  0  0  0
   12.6208   34.3935   62.6285 C   0  0  0  0  0  0
   12.0750   33.1222   62.4983 C   0  0  0  0  0  0
   10.9037   32.9394   61.7656 C   0  0  0  0  0  0
    3.8817   32.3946   60.8280 O   0  0  0  0  0  0
   12.4969   37.0760   62.4280 Cl  0  0  0  0  0  0
   12.8510   31.7635   63.2280 Cl  0  0  0  0  0  0
    6.0206   33.9989   60.9084 H   0  0  0  0  0  0
    5.3196   34.3191   59.3495 H   0  0  0  0  0  0
    7.4097   33.7070   58.4455 H   0  0  0  0  0  0
    6.2614   31.7987   57.6851 H   0  0  0  0  0  0
    7.4441   30.9715   58.6399 H   0  0  0  0  0  0
    3.8402   30.1981   59.0315 H   0  0  0  0  0  0
    4.7985   28.1168   58.4532 H   0  0  0  0  0  0
    5.7595   29.3140   57.6640 H   0  0  0  0  0  0
    7.1648   27.4925   58.6652 H   0  0  0  0  0  0
    7.5885   29.0233   59.3499 H   0  0  0  0  0  0
    5.8765   26.8743   60.6461 H   0  0  0  0  0  0
    7.4365   27.4431   61.1781 H   0  0  0  0  0  0
    5.5631   28.3907   62.5625 H   0  0  0  0  0  0
    6.4839   29.6527   61.7832 H   0  0  0  0  0  0
    4.0169   30.0220   61.5795 H   0  0  0  0  0  0
    3.8308   28.5069   60.7765 H   0  0  0  0  0  0
    8.9532   34.7088   59.7201 H   0  0  0  0  0  0
   10.4186   36.1529   60.7551 H   0  0  0  0  0  0
   13.5054   34.5418   63.2279 H   0  0  0  0  0  0
   10.5182   31.9368   61.7015 H   0  0  0  0  0  0
  1  2  1  0  0  0
  1  5  1  0  0  0
  1 21  2  0  0  0
  2  3  1  0  0  0
  2 24  1  0  0  0
  2 25  1  0  0  0
  3 12  1  0  0  0
  3  4  1  0  0  0
  3 26  1  0  0  0
  4  5  1  0  0  0
  4 27  1  0  0  0
  4 28  1  0  0  0
  5  6  1  0  0  0
  6  7  1  0  0  0
  6 11  1  0  0  0
  6 29  1  0  0  0
  7  8  1  0  0  0
  7 30  1  0  0  0
  7 31  1  0  0  0
  8  9  1  0  0  0
  8 32  1  0  0  0
  8 33  1  0  0  0
  9 10  1  0  0  0
  9 34  1  0  0  0
  9 35  1  0  0  0
 10 11  1  0  0  0
 10 36  1  0  0  0
 10 37  1  0  0  0
 11 38  1  0  0  0
 11 39  1  0  0  0
 12 13  1  0  0  0
 12 14  2  0  0  0
 13 15  1  0  0  0
 13 40  1  0  0  0
 15 16  2  0  0  0
 15 20  1  0  0  0
 16 17  1  0  0  0
 16 41  1  0  0  0
 17 18  2  0  0  0
 17 22  1  0  0  0
 18 19  1  0  0  0
 18 42  1  0  0  0
 19 20  2  0  0  0
 19 23  1  0  0  0
 20 43  1  0  0  0
M  END
> <s_m_entry_id>
8307

> <s_m_entry_name>
dock_pv.102

> <s_m_Source_Path>
/home/csk/Desktop/cluster/DUD-E-result/inha

> <s_m_Source_File>
dock_pv.maegz

> <i_m_Source_File_Index>
102

> <chembl_id>
CHEMBL216807

> <chembl_pref_name>
None

> <i_lp_mmshare_version>
53161

> <r_lp_tautomer_probability>
1

> <s_lp_Force_Field>
OPLS_2005

> <r_lp_Energy>
32.631418

> <b_lp_Chiralities_Consistent>
1

> <s_lp_Variant>
CHEMBL1849_lig16-1

> <s_i_glide_gridfile>
glide-grid_2h7l

> <i_i_glide_lignum>
20

> <i_i_glide_rotatable_bonds>
4

> <r_i_docking_score>
-7.12419117996959

> <r_i_glide_ligand_efficiency>
-0.309747442607373

> <r_i_glide_ligand_efficiency_sa>
-0.880880523203912

> <r_i_glide_ligand_efficiency_ln>
-1.72269402591075

> <r_i_glide_gscore>
-7.12419117996959

> <r_i_glide_lipo>
-3.41769902563259

> <r_i_glide_hbond>
0

> <r_i_glide_metal>
0

> <r_i_glide_rewards>
-2.34034247663222

> <r_i_glide_evdw>
-39.362361907959

> <r_i_glide_ecoul>
-0.0264246389269829

> <r_i_glide_erotb>
0.605932113532223

> <r_i_glide_esite>
0

> <r_i_glide_emodel>
-54.2551343641658

> <r_i_glide_energy>
-39.388786546886

> <r_i_glide_einternal>
4.09258699417114

> <i_i_glide_confnum>
29

> <i_i_glide_posenum>
228

> <r_i_glide_eff_state_penalty>
0

> <s_user_duplicate_titles>
CHEMBL1849_lig16

> <i_f3d_flags>
0

> <s_m_subgroup_title>
dock_pv

> <s_m_subgroupid>
dock_pv

> <b_m_subgroup_collapsed>
0

$$$$
CHEMBL1849_lig5
                    3D
 Schrodinger Suite 2021-1.
 43 46  0  0  1  0            999 V2000
    7.4732   32.4010   59.7032 C   0  0  0  0  0  0
    6.2872   31.6176   59.2219 C   0  0  0  0  0  0
    5.4249   32.0756   58.3277 N   0  0  0  0  0  0
    4.4485   31.1194   58.1065 N   0  0  0  0  0  0
    4.7160   30.0851   58.9172 N   0  0  0  0  0  0
    5.8846   30.3410   59.5942 C   0  0  0  0  0  0
    3.9138   28.8722   58.8981 C   0  0  2  0  0  0
    2.5618   29.1487   58.6743 O   0  0  0  0  0  0
    1.7593   28.0801   59.1496 C   0  0  1  0  0  0
    2.5314   27.5925   60.3847 C   0  0  2  0  0  0
    3.9939   28.0048   60.1633 C   0  0  1  0  0  0
    0.3233   28.5742   59.4023 C   0  0  0  0  0  0
    0.2498   29.5220   60.4425 O   0  0  0  0  0  0
    2.3474   26.2107   60.6532 O   0  0  0  0  0  0
    4.9039   26.9414   59.9294 O   0  0  0  0  0  0
    7.8496   33.6114   59.1073 C   0  0  0  0  0  0
    8.9317   34.3486   59.5900 C   0  0  0  0  0  0
    8.2385   31.9216   60.7724 C   0  0  0  0  0  0
    9.3516   32.6301   61.2236 C   0  0  0  0  0  0
    9.6861   33.8720   60.6666 C   0  0  0  0  0  0
   10.8738   34.5517   61.2281 C   0  0  0  0  0  0
   11.6846   33.8893   62.0795 C   0  0  0  0  0  0
   11.3541   32.5457   62.5687 C   0  0  0  0  0  0
   10.1056   32.0550   62.2380 O   0  0  0  0  0  0
   12.0728   31.8026   63.2288 O   0  0  0  0  0  0
   11.1947   35.9554   60.7579 C   0  0  0  0  0  0
    6.3102   29.6118   60.2669 H   0  0  0  0  0  0
    4.2677   28.3249   58.0291 H   0  0  0  0  0  0
    1.7144   27.3243   58.3643 H   0  0  0  0  0  0
    2.1924   28.1439   61.2632 H   0  0  0  0  0  0
    4.3216   28.6091   61.0118 H   0  0  0  0  0  0
   -0.3161   27.7317   59.6673 H   0  0  0  0  0  0
   -0.0853   29.0119   58.4930 H   0  0  0  0  0  0
    0.4888   30.4075   60.0778 H   0  0  0  0  0  0
    1.4110   26.0475   60.7965 H   0  0  0  0  0  0
    4.5451   26.1614   60.3655 H   0  0  0  0  0  0
    7.3045   33.9922   58.2598 H   0  0  0  0  0  0
    9.1826   35.2826   59.1096 H   0  0  0  0  0  0
    7.9912   30.9834   61.2460 H   0  0  0  0  0  0
   12.5761   34.3730   62.4490 H   0  0  0  0  0  0
   12.1072   36.3210   61.2252 H   0  0  0  0  0  0
   11.3088   35.9871   59.6752 H   0  0  0  0  0  0
   10.4071   36.6452   61.0486 H   0  0  0  0  0  0
  1  2  1  0  0  0
  1 16  2  0  0  0
  1 18  1  0  0  0
  2  3  1  0  0  0
  2  6  2  0  0  0
  3  4  2  0  0  0
  4  5  1  0  0  0
  5  6  1  0  0  0
  5  7  1  0  0  0
  6 27  1  0  0  0
  7  8  1  0  0  0
  7 11  1  0  0  0
  7 28  1  0  0  0
  8  9  1  0  0  0
  9 10  1  0  0  0
  9 12  1  0  0  0
  9 29  1  0  0  0
 10 11  1  0  0  0
 10 14  1  0  0  0
 10 30  1  0  0  0
 11 15  1  0  0  0
 11 31  1  0  0  0
 12 13  1  0  0  0
 12 32  1  0  0  0
 12 33  1  0  0  0
 13 34  1  0  0  0
 14 35  1  0  0  0
 15 36  1  0  0  0
 16 17  1  0  0  0
 16 37  1  0  0  0
 17 20  2  0  0  0
 17 38  1  0  0  0
 18 19  2  0  0  0
 18 39  1  0  0  0
 19 20  1  0  0  0
 19 24  1  0  0  0
 20 21  1  0  0  0
 21 22  2  0  0  0
 21 26  1  0  0  0
 22 23  1  0  0  0
 22 40  1  0  0  0
 23 24  1  0  0  0
 23 25  2  0  0  0
 26 41  1  0  0  0
 26 42  1  0  0  0
 26 43  1  0  0  0
M  END
> <s_m_entry_id>
8308

> <s_m_entry_name>
dock_pv.103

> <s_m_Source_Path>
/home/csk/Desktop/cluster/DUD-E-result/inha

> <s_m_Source_File>
dock_pv.maegz

> <i_m_Source_File_Index>
103

> <chembl_id>
CHEMBL4206750

> <chembl_pref_name>
None

> <i_lp_mmshare_version>
53161

> <r_lp_tautomer_probability>
1

> <s_lp_Force_Field>
OPLS_2005

> <r_lp_Energy>
44.546127

> <b_lp_Chiralities_Consistent>
1

> <s_lp_Variant>
CHEMBL1849_lig5-1

> <s_i_glide_gridfile>
glide-grid_2h7l

> <i_i_glide_lignum>
5

> <i_i_glide_rotatable_bonds>
6

> <r_i_docking_score>
-7.11472185765604

> <r_i_glide_ligand_efficiency>
-0.273643148371386

> <r_i_glide_ligand_efficiency_sa>
-0.810666750316436

> <r_i_glide_ligand_efficiency_ln>
-1.67086908296398

> <r_i_glide_gscore>
-7.11472185765604

> <r_i_glide_lipo>
-2.85282836289464

> <r_i_glide_hbond>
0

> <r_i_glide_metal>
0

> <r_i_glide_rewards>
-1.83825317138442

> <r_i_glide_evdw>
-35.263069152832

> <r_i_glide_ecoul>
-7.3719744682312

> <r_i_glide_erotb>
0.445309304499301

> <r_i_glide_esite>
0

> <r_i_glide_emodel>
-58.7991485781984

> <r_i_glide_energy>
-42.6350436210632

> <r_i_glide_einternal>
2.06091260910034

> <i_i_glide_confnum>
24

> <i_i_glide_posenum>
172

> <r_i_glide_eff_state_penalty>
0

> <s_user_duplicate_titles>
CHEMBL1849_lig5

> <i_f3d_flags>
0

> <s_m_subgroup_title>
dock_pv

> <s_m_subgroupid>
dock_pv

> <b_m_subgroup_collapsed>
0

$$$$
CHEMBL1849_lig66
                    3D
 Schrodinger Suite 2021-1.
 62 64  0  0  1  0            999 V2000
    7.0795   33.7678   59.7277 C   0  0  0  0  0  0
    8.2563   33.5213   59.0124 C   0  0  0  0  0  0
    8.4254   32.2640   58.4277 C   0  0  0  0  0  0
    7.4472   31.2778   58.5557 C   0  0  0  0  0  0
    6.2706   31.5375   59.2643 C   0  0  0  0  0  0
    6.0782   32.8024   59.8364 C   0  0  0  0  0  0
    5.3008   30.5630   59.3573 O   0  0  0  0  0  0
    5.3208   29.6590   60.4037 C   0  0  0  0  0  0
    6.5236   29.2203   60.9847 C   0  0  0  0  0  0
    6.5174   28.2994   62.0283 C   0  0  0  0  0  0
    5.3099   27.8133   62.5197 C   0  0  0  0  0  0
    4.1103   28.2327   61.9502 C   0  0  0  0  0  0
    4.1026   29.1366   60.8766 C   0  0  0  0  0  0
    4.9045   33.1220   60.4742 O   0  0  0  0  0  0
    9.2865   34.6334   58.7751 C   0  0  0  0  0  0
    9.8644   35.3270   60.0282 C   0  0  0  0  0  0
   11.0087   34.5861   60.7368 C   0  0  0  0  0  0
   11.6749   35.4481   61.8248 C   0  0  0  0  0  0
   12.6385   34.6722   62.7434 C   0  0  0  0  0  0
   13.9276   34.2121   62.0449 C   0  0  0  0  0  0
    2.7713   29.5816   60.2523 C   0  0  0  0  0  0
    1.7343   28.5362   60.2245 N   0  0  0  0  0  0
    2.0936   27.4522   59.2986 C   0  0  0  0  0  0
    0.9811   26.3698   59.2769 C   0  0  0  0  0  0
   -0.2753   26.9605   58.8023 N   0  0  0  0  0  0
   -0.6559   28.0400   59.7228 C   0  0  0  0  0  0
    0.4616   29.1122   59.7634 C   0  0  0  0  0  0
   -1.3282   25.9533   58.7300 C   0  0  0  0  0  0
    6.9242   34.7221   60.1908 H   0  0  0  0  0  0
    9.3042   32.0522   57.8412 H   0  0  0  0  0  0
    7.5911   30.3105   58.0972 H   0  0  0  0  0  0
    7.4743   29.5849   60.6304 H   0  0  0  0  0  0
    7.4516   27.9703   62.4597 H   0  0  0  0  0  0
    5.3034   27.1071   63.3370 H   0  0  0  0  0  0
    3.1785   27.8461   62.3378 H   0  0  0  0  0  0
    4.6815   34.0604   60.4279 H   0  0  0  0  0  0
    8.7981   35.3871   58.1632 H   0  0  0  0  0  0
   10.1040   34.3022   58.1398 H   0  0  0  0  0  0
    9.0774   35.5212   60.7517 H   0  0  0  0  0  0
   10.2346   36.3082   59.7229 H   0  0  0  0  0  0
   11.7752   34.3225   60.0130 H   0  0  0  0  0  0
   10.6313   33.6547   61.1640 H   0  0  0  0  0  0
   10.9042   35.9213   62.4277 H   0  0  0  0  0  0
   12.1978   36.2834   61.3621 H   0  0  0  0  0  0
   12.1242   33.8098   63.1712 H   0  0  0  0  0  0
   12.9031   35.3032   63.5913 H   0  0  0  0  0  0
   14.5887   33.7003   62.7450 H   0  0  0  0  0  0
   14.4769   35.0556   61.6280 H   0  0  0  0  0  0
   13.7181   33.5222   61.2292 H   0  0  0  0  0  0
    2.4122   30.4331   60.8347 H   0  0  0  0  0  0
    2.9349   29.9595   59.2411 H   0  0  0  0  0  0
    2.2666   27.8457   58.2934 H   0  0  0  0  0  0
    3.0273   26.9924   59.6260 H   0  0  0  0  0  0
    0.8580   25.9411   60.2740 H   0  0  0  0  0  0
    1.2767   25.5502   58.6217 H   0  0  0  0  0  0
   -0.8443   27.6519   60.7268 H   0  0  0  0  0  0
   -1.5828   28.5016   59.3806 H   0  0  0  0  0  0
    0.1602   29.9220   60.4281 H   0  0  0  0  0  0
    0.5835   29.5251   58.7637 H   0  0  0  0  0  0
   -1.0500   25.1557   58.0399 H   0  0  0  0  0  0
   -1.5297   25.5073   59.7055 H   0  0  0  0  0  0
   -2.2557   26.3939   58.3596 H   0  0  0  0  0  0
  1  2  2  0  0  0
  1  6  1  0  0  0
  1 29  1  0  0  0
  2 15  1  0  0  0
  2  3  1  0  0  0
  3  4  2  0  0  0
  3 30  1  0  0  0
  4  5  1  0  0  0
  4 31  1  0  0  0
  5  7  1  0  0  0
  5  6  2  0  0  0
  6 14  1  0  0  0
  7  8  1  0  0  0
  8  9  2  0  0  0
  8 13  1  0  0  0
  9 10  1  0  0  0
  9 32  1  0  0  0
 10 11  2  0  0  0
 10 33  1  0  0  0
 11 12  1  0  0  0
 11 34  1  0  0  0
 12 13  2  0  0  0
 12 35  1  0  0  0
 13 21  1  0  0  0
 14 36  1  0  0  0
 15 16  1  0  0  0
 15 37  1  0  0  0
 15 38  1  0  0  0
 16 17  1  0  0  0
 16 39  1  0  0  0
 16 40  1  0  0  0
 17 18  1  0  0  0
 17 41  1  0  0  0
 17 42  1  0  0  0
 18 19  1  0  0  0
 18 43  1  0  0  0
 18 44  1  0  0  0
 19 20  1  0  0  0
 19 45  1  0  0  0
 19 46  1  0  0  0
 20 47  1  0  0  0
 20 48  1  0  0  0
 20 49  1  0  0  0
 21 22  1  0  0  0
 21 50  1  0  0  0
 21 51  1  0  0  0
 22 23  1  0  0  0
 22 27  1  0  0  0
 23 24  1  0  0  0
 23 52  1  0  0  0
 23 53  1  0  0  0
 24 25  1  0  0  0
 24 54  1  0  0  0
 24 55  1  0  0  0
 25 26  1  0  0  0
 25 28  1  0  0  0
 26 27  1  0  0  0
 26 56  1  0  0  0
 26 57  1  0  0  0
 27 58  1  0  0  0
 27 59  1  0  0  0
 28 60  1  0  0  0
 28 61  1  0  0  0
 28 62  1  0  0  0
M  END
> <s_m_entry_id>
8309

> <s_m_entry_name>
dock_pv.104

> <s_m_Source_Path>
/home/csk/Desktop/cluster/DUD-E-result/inha

> <s_m_Source_File>
dock_pv.maegz

> <i_m_Source_File_Index>
104

> <chembl_id>
CHEMBL408149

> <chembl_pref_name>
None

> <i_lp_mmshare_version>
53161

> <r_lp_tautomer_probability>
0.999999999999776

> <s_lp_Force_Field>
OPLS_2005

> <r_lp_Energy>
38.331861

> <b_lp_Chiralities_Consistent>
1

> <s_lp_Variant>
CHEMBL1849_lig66-1

> <s_i_glide_gridfile>
glide-grid_2h7l

> <i_i_glide_lignum>
116

> <i_i_glide_rotatable_bonds>
10

> <r_i_docking_score>
-7.07825168604249

> <r_i_glide_ligand_efficiency>
-0.252794703072946

> <r_i_glide_ligand_efficiency_sa>
-0.767633606647254

> <r_i_glide_ligand_efficiency_ln>
-1.63386831563874

> <r_i_glide_gscore>
-7.07825168604249

> <r_i_glide_lipo>
-4.3876661177498

> <r_i_glide_hbond>
0

> <r_i_glide_metal>
0

> <r_i_glide_rewards>
-1.26372435888519

> <r_i_glide_evdw>
-40.0460357666016

> <r_i_glide_ecoul>
-3.24248242378235

> <r_i_glide_erotb>
1.06181294248993

> <r_i_glide_esite>
0

> <r_i_glide_emodel>
-59.2209426265202

> <r_i_glide_energy>
-43.2885181903839

> <r_i_glide_einternal>
6.85607051849365

> <i_i_glide_confnum>
17

> <i_i_glide_posenum>
110

> <r_i_glide_eff_state_penalty>
0

> <s_user_duplicate_titles>
CHEMBL1849_lig66,428197

> <i_f3d_flags>
0

> <s_m_subgroup_title>
dock_pv

> <s_m_subgroupid>
dock_pv

> <b_m_subgroup_collapsed>
0

$$$$
CHEMBL1849_lig216 
                    3D
 Schrodinger Suite 2021-1.
 40 42  0  0  1  0            999 V2000
    4.8768   28.8875   60.6310 C   0  0  0  0  0  0
    4.8732   29.9541   59.7906 N   0  0  0  0  0  0
    5.7911   29.9770   58.7760 C   0  0  0  0  0  0
    6.7639   28.5448   58.8280 S   0  0  0  0  0  0
    5.9660   27.9906   60.2857 C   0  0  0  0  0  0
    3.9190   31.0833   59.9990 C   0  0  0  0  0  0
    4.4904   32.2619   60.8310 C   0  0  0  0  0  0
    5.9646   32.4486   60.9011 C   0  0  0  0  0  0
    3.7090   33.1219   61.2280 O   0  0  0  0  0  0
    4.0733   28.7391   61.5543 O   0  0  0  0  0  0
    6.1013   31.1220   57.6195 S   0  0  0  0  0  0
    6.3327   26.8880   60.9765 C   0  0  0  0  0  0
    6.5444   33.5223   60.2201 C   0  0  0  0  0  0
    7.9304   33.6428   60.1668 C   0  0  0  0  0  0
    8.7265   32.7112   60.8280 C   0  0  0  0  0  0
    8.1489   31.6866   61.5786 C   0  0  0  0  0  0
    6.7654   31.5647   61.6323 C   0  0  0  0  0  0
    5.8130   26.3599   62.2481 C   0  0  0  0  0  0
    5.7707   27.1647   63.3883 C   0  0  0  0  0  0
    5.3038   26.6512   64.5904 C   0  0  0  0  0  0
    4.8674   25.3208   64.6610 C   0  0  0  0  0  0
    4.9038   24.5234   63.5171 C   0  0  0  0  0  0
    5.3903   25.0324   62.3172 C   0  0  0  0  0  0
    4.4008   24.7219   65.8116 O   0  0  0  0  0  0
    4.4818   25.4337   67.0386 C   0  0  0  0  0  0
    3.0286   30.7318   60.5230 H   0  0  0  0  0  0
    3.5337   31.4691   59.0544 H   0  0  0  0  0  0
    7.1554   26.3210   60.5667 H   0  0  0  0  0  0
    5.9255   34.2355   59.6921 H   0  0  0  0  0  0
    8.3858   34.4543   59.6180 H   0  0  0  0  0  0
    9.8011   32.8105   60.8013 H   0  0  0  0  0  0
    8.7721   30.9962   62.1272 H   0  0  0  0  0  0
    6.3294   30.7636   62.2121 H   0  0  0  0  0  0
    6.1021   28.1915   63.3455 H   0  0  0  0  0  0
    5.2837   27.3010   65.4514 H   0  0  0  0  0  0
    4.5657   23.4988   63.5655 H   0  0  0  0  0  0
    5.4278   24.3989   61.4424 H   0  0  0  0  0  0
    4.1668   24.7832   67.8547 H   0  0  0  0  0  0
    5.5084   25.7483   67.2316 H   0  0  0  0  0  0
    3.8320   26.3103   67.0394 H   0  0  0  0  0  0
  1  2  1  0  0  0
  1  5  1  0  0  0
  1 10  2  0  0  0
  2  3  1  0  0  0
  2  6  1  0  0  0
  3  4  1  0  0  0
  3 11  2  0  0  0
  4  5  1  0  0  0
  5 12  2  0  0  0
  6  7  1  0  0  0
  6 26  1  0  0  0
  6 27  1  0  0  0
  7  8  1  0  0  0
  7  9  2  0  0  0
  8 13  2  0  0  0
  8 17  1  0  0  0
 12 18  1  0  0  0
 12 28  1  0  0  0
 13 14  1  0  0  0
 13 29  1  0  0  0
 14 15  2  0  0  0
 14 30  1  0  0  0
 15 16  1  0  0  0
 15 31  1  0  0  0
 16 17  2  0  0  0
 16 32  1  0  0  0
 17 33  1  0  0  0
 18 19  2  0  0  0
 18 23  1  0  0  0
 19 20  1  0  0  0
 19 34  1  0  0  0
 20 21  2  0  0  0
 20 35  1  0  0  0
 21 22  1  0  0  0
 21 24  1  0  0  0
 22 23  2  0  0  0
 22 36  1  0  0  0
 23 37  1  0  0  0
 24 25  1  0  0  0
 25 38  1  0  0  0
 25 39  1  0  0  0
 25 40  1  0  0  0
M  END
> <s_m_entry_id>
8310

> <s_m_entry_name>
dock_pv.105

> <s_m_Source_Path>
/home/csk/Desktop/cluster/DUD-E-result/inha

> <s_m_Source_File>
dock_pv.maegz

> <i_m_Source_File_Index>
105

> <chembl_id>
CHEMBL4552155

> <chembl_pref_name>
None

> <i_lp_mmshare_version>
53161

> <r_lp_tautomer_probability>
0.99990000499975

> <s_lp_Force_Field>
OPLS_2005

> <r_lp_Energy>
31.373275

> <b_lp_Chiralities_Consistent>
1

> <s_lp_Variant>
CHEMBL1849_lig216 -1

> <s_i_glide_gridfile>
glide-grid_2h7l

> <i_i_glide_lignum>
285

> <i_i_glide_rotatable_bonds>
5

> <r_i_docking_score>
-7.0550234467703

> <r_i_glide_ligand_efficiency>
-0.282200937870812

> <r_i_glide_ligand_efficiency_sa>
-0.825160547189198

> <r_i_glide_ligand_efficiency_ln>
-1.67225197887655

> <r_i_glide_gscore>
-7.0550234467703

> <r_i_glide_lipo>
-2.6282061184484

> <r_i_glide_hbond>
-0.376573581509532

> <r_i_glide_metal>
0

> <r_i_glide_rewards>
-1.88187181252497

> <r_i_glide_evdw>
-41.2568283081055

> <r_i_glide_ecoul>
-4.47031688690186

> <r_i_glide_erotb>
0.565017014153152

> <r_i_glide_esite>
0

> <r_i_glide_emodel>
-59.5734462382046

> <r_i_glide_energy>
-45.7271451950073

> <r_i_glide_einternal>
8.09006404876709

> <i_i_glide_confnum>
20

> <i_i_glide_posenum>
202

> <r_i_glide_eff_state_penalty>
0

> <s_user_duplicate_titles>
CHEMBL1849_lig216 

> <i_f3d_flags>
0

> <s_m_subgroup_title>
dock_pv

> <s_m_subgroupid>
dock_pv

> <b_m_subgroup_collapsed>
0

$$$$
CHEMBL1849_lig81
                    3D
 Schrodinger Suite 2021-1.
 44 45  0  0  1  0            999 V2000
    9.3035   33.4903   60.7928 C   0  0  0  0  0  0
    9.6336   34.3618   59.7453 C   0  0  0  0  0  0
    9.1386   34.1062   58.4666 C   0  0  0  0  0  0
    8.3741   32.9690   58.2327 C   0  0  0  0  0  0
    8.0158   32.1233   59.2786 C   0  0  0  0  0  0
    8.4836   32.3853   60.5709 C   0  0  0  0  0  0
    7.2400   31.0270   58.9949 O   0  0  0  0  0  0
    5.9378   30.9217   59.4461 C   0  0  0  0  0  0
    5.2235   32.0243   59.9476 C   0  0  0  0  0  0
    3.9244   31.8751   60.4279 C   0  0  0  0  0  0
    3.3200   30.6232   60.4130 C   0  0  0  0  0  0
    4.0064   29.5247   59.8973 C   0  0  0  0  0  0
    5.3163   29.6579   59.4074 C   0  0  0  0  0  0
    8.1579   31.5635   61.6218 O   0  0  0  0  0  0
   10.5735   35.5496   59.9217 C   0  0  0  0  0  0
   11.3018   35.6504   61.2719 C   0  0  0  0  0  0
   12.3633   34.5489   61.5258 C   0  0  0  0  0  0
   12.8502   34.5066   62.9895 C   0  0  0  0  0  0
   14.2271   33.8328   63.1856 C   0  0  0  0  0  0
   14.1743   32.3025   63.2853 C   0  0  0  0  0  0
    6.0170   28.4715   58.8593 N   0  3  0  0  0  0
    5.6518   27.3589   59.2287 O   0  0  0  0  0  0
    6.9040   28.6312   58.0293 O   0  5  0  0  0  0
    9.7028   33.6455   61.7811 H   0  0  0  0  0  0
    9.4100   34.7439   57.6392 H   0  0  0  0  0  0
    8.0847   32.7223   57.2282 H   0  0  0  0  0  0
    5.6720   33.0061   59.9791 H   0  0  0  0  0  0
    3.3824   32.7276   60.8094 H   0  0  0  0  0  0
    2.3074   30.5095   60.7771 H   0  0  0  0  0  0
    3.5055   28.5666   59.8763 H   0  0  0  0  0  0
    8.4884   31.8865   62.4610 H   0  0  0  0  0  0
   10.0043   36.4616   59.7536 H   0  0  0  0  0  0
   11.3041   35.5211   59.1196 H   0  0  0  0  0  0
   10.5384   35.6526   62.0393 H   0  0  0  0  0  0
   11.7753   36.6288   61.3495 H   0  0  0  0  0  0
   13.2049   34.7218   60.8538 H   0  0  0  0  0  0
   11.9797   33.5650   61.2548 H   0  0  0  0  0  0
   12.1059   34.0171   63.6212 H   0  0  0  0  0  0
   12.9036   35.5238   63.3671 H   0  0  0  0  0  0
   14.6880   34.2163   64.0963 H   0  0  0  0  0  0
   14.9039   34.1275   62.3826 H   0  0  0  0  0  0
   15.1811   31.8880   63.3378 H   0  0  0  0  0  0
   13.6752   31.8582   62.4290 H   0  0  0  0  0  0
   13.6386   31.9847   64.1800 H   0  0  0  0  0  0
  1  6  1  0  0  0
  1  2  2  0  0  0
  1 24  1  0  0  0
  2 15  1  0  0  0
  2  3  1  0  0  0
  3  4  2  0  0  0
  3 25  1  0  0  0
  4  5  1  0  0  0
  4 26  1  0  0  0
  5  6  2  0  0  0
  5  7  1  0  0  0
  6 14  1  0  0  0
  7  8  1  0  0  0
  8 13  1  0  0  0
  8  9  2  0  0  0
  9 10  1  0  0  0
  9 27  1  0  0  0
 10 11  2  0  0  0
 10 28  1  0  0  0
 11 12  1  0  0  0
 11 29  1  0  0  0
 12 13  2  0  0  0
 12 30  1  0  0  0
 13 21  1  0  0  0
 14 31  1  0  0  0
 15 16  1  0  0  0
 15 32  1  0  0  0
 15 33  1  0  0  0
 16 17  1  0  0  0
 16 34  1  0  0  0
 16 35  1  0  0  0
 17 18  1  0  0  0
 17 36  1  0  0  0
 17 37  1  0  0  0
 18 19  1  0  0  0
 18 38  1  0  0  0
 18 39  1  0  0  0
 19 20  1  0  0  0
 19 40  1  0  0  0
 19 41  1  0  0  0
 20 42  1  0  0  0
 20 43  1  0  0  0
 20 44  1  0  0  0
 21 22  2  0  0  0
 21 23  1  0  0  0
M  CHG  2  21   1  23  -1
M  END
> <s_m_entry_id>
8311

> <s_m_entry_name>
dock_pv.106

> <s_m_Source_Path>
/home/csk/Desktop/cluster/DUD-E-result/inha

> <s_m_Source_File>
dock_pv.maegz

> <i_m_Source_File_Index>
106

> <chembl_id>
CHEMBL264415

> <chembl_pref_name>
None

> <i_lp_mmshare_version>
53161

> <r_lp_tautomer_probability>
0.999999999999776

> <s_lp_Force_Field>
OPLS_2005

> <r_lp_Energy>
16.471061

> <b_lp_Chiralities_Consistent>
1

> <s_lp_Variant>
CHEMBL1849_lig81-1

> <s_i_glide_gridfile>
glide-grid_2h7l

> <i_i_glide_lignum>
131

> <i_i_glide_rotatable_bonds>
9

> <r_i_docking_score>
-7.05175579472117

> <r_i_glide_ligand_efficiency>
-0.306598078031355

> <r_i_glide_ligand_efficiency_sa>
-0.871924149288021

> <r_i_glide_ligand_efficiency_ln>
-1.70517849294992

> <r_i_glide_gscore>
-7.05175579472117

> <r_i_glide_lipo>
-3.69165981322362

> <r_i_glide_hbond>
0

> <r_i_glide_metal>
0

> <r_i_glide_rewards>
-2.23826889956305

> <r_i_glide_evdw>
-38.291015625

> <r_i_glide_ecoul>
-2.19662880897522

> <r_i_glide_erotb>
1.12221802066179

> <r_i_glide_esite>
0

> <r_i_glide_emodel>
-54.5534919118839

> <r_i_glide_energy>
-40.4876444339752

> <r_i_glide_einternal>
5.52032613754272

> <i_i_glide_confnum>
55

> <i_i_glide_posenum>
49

> <r_i_glide_eff_state_penalty>
0

> <s_user_duplicate_titles>
CHEMBL1849_lig81,428379

> <i_f3d_flags>
0

> <s_m_subgroup_title>
dock_pv

> <s_m_subgroupid>
dock_pv

> <b_m_subgroup_collapsed>
0

$$$$
CHEMBL1849_lig22
                    3D
 Schrodinger Suite 2021-1.
 43 45  0  0  1  0            999 V2000
    5.6626   27.6989   59.9728 C   0  0  0  0  0  0
    6.9039   28.3451   60.5788 C   0  0  0  0  0  0
    6.4828   29.7081   61.1329 C   0  0  2  0  0  0
    4.9654   29.5785   61.2402 C   0  0  0  0  0  0
    4.6111   28.4236   60.4179 N   0  0  0  0  0  0
    3.2293   28.0902   60.0542 C   0  0  0  0  0  0
    2.2241   28.0544   61.2306 C   0  0  0  0  0  0
    0.8011   27.6484   60.7921 C   0  0  0  0  0  0
    0.2891   28.4925   59.6112 C   0  0  0  0  0  0
    1.2730   28.4716   58.4311 C   0  0  0  0  0  0
    2.6883   28.9030   58.8610 C   0  0  0  0  0  0
    6.9185   30.8421   60.1669 C   0  0  0  0  0  0
    7.8369   31.7043   60.6608 N   0  0  0  0  0  0
    6.4388   30.8937   59.0312 O   0  0  0  0  0  0
    8.4666   32.8030   60.0476 C   0  0  0  0  0  0
    9.3971   33.5002   60.8274 C   0  0  0  0  0  0
   10.0480   34.6286   60.3271 C   0  0  0  0  0  0
    9.7978   35.0510   59.0236 C   0  0  0  0  0  0
    8.9042   34.3399   58.2240 C   0  0  0  0  0  0
    8.2282   33.2348   58.7330 C   0  0  0  0  0  0
    5.6651   26.7213   59.2283 O   0  0  0  0  0  0
   11.1759   35.4922   61.3090 Cl  0  0  0  0  0  0
    7.6325   28.4126   59.7664 H   0  0  0  0  0  0
    7.3536   27.7097   61.3419 H   0  0  0  0  0  0
    6.9417   29.8856   62.1063 H   0  0  0  0  0  0
    4.7037   29.3432   62.2729 H   0  0  0  0  0  0
    4.4248   30.4976   61.0002 H   0  0  0  0  0  0
    3.2533   27.0593   59.6903 H   0  0  0  0  0  0
    2.5757   27.3644   61.9988 H   0  0  0  0  0  0
    2.1762   29.0414   61.6955 H   0  0  0  0  0  0
    0.8001   26.5941   60.5060 H   0  0  0  0  0  0
    0.1133   27.7317   61.6356 H   0  0  0  0  0  0
   -0.6882   28.1317   59.2870 H   0  0  0  0  0  0
    0.1339   29.5219   59.9377 H   0  0  0  0  0  0
    1.3124   27.4673   58.0074 H   0  0  0  0  0  0
    0.9106   29.1207   57.6329 H   0  0  0  0  0  0
    2.6740   29.9632   59.1207 H   0  0  0  0  0  0
    3.3812   28.8027   58.0274 H   0  0  0  0  0  0
    8.1233   31.5449   61.6142 H   0  0  0  0  0  0
    9.6292   33.1693   61.8279 H   0  0  0  0  0  0
   10.3070   35.9196   58.6308 H   0  0  0  0  0  0
    8.7210   34.6657   57.2108 H   0  0  0  0  0  0
    7.5360   32.7324   58.0790 H   0  0  0  0  0  0
  1  2  1  0  0  0
  1  5  1  0  0  0
  1 21  2  0  0  0
  2  3  1  0  0  0
  2 23  1  0  0  0
  2 24  1  0  0  0
  3 12  1  0  0  0
  3  4  1  0  0  0
  3 25  1  0  0  0
  4  5  1  0  0  0
  4 26  1  0  0  0
  4 27  1  0  0  0
  5  6  1  0  0  0
  6  7  1  0  0  0
  6 11  1  0  0  0
  6 28  1  0  0  0
  7  8  1  0  0  0
  7 29  1  0  0  0
  7 30  1  0  0  0
  8  9  1  0  0  0
  8 31  1  0  0  0
  8 32  1  0  0  0
  9 10  1  0  0  0
  9 33  1  0  0  0
  9 34  1  0  0  0
 10 11  1  0  0  0
 10 35  1  0  0  0
 10 36  1  0  0  0
 11 37  1  0  0  0
 11 38  1  0  0  0
 12 13  1  0  0  0
 12 14  2  0  0  0
 13 15  1  0  0  0
 13 39  1  0  0  0
 15 16  2  0  0  0
 15 20  1  0  0  0
 16 17  1  0  0  0
 16 40  1  0  0  0
 17 18  2  0  0  0
 17 22  1  0  0  0
 18 19  1  0  0  0
 18 41  1  0  0  0
 19 20  2  0  0  0
 19 42  1  0  0  0
 20 43  1  0  0  0
M  END
> <s_m_entry_id>
8312

> <s_m_entry_name>
dock_pv.107

> <s_m_Source_Path>
/home/csk/Desktop/cluster/DUD-E-result/inha

> <s_m_Source_File>
dock_pv.maegz

> <i_m_Source_File_Index>
107

> <chembl_id>
CHEMBL217588

> <chembl_pref_name>
None

> <i_lp_mmshare_version>
53161

> <r_lp_tautomer_probability>
1

> <s_lp_Force_Field>
OPLS_2005

> <r_lp_Energy>
33.483972

> <b_lp_Chiralities_Consistent>
1

> <s_lp_Variant>
CHEMBL1849_lig22-1

> <s_i_glide_gridfile>
glide-grid_2h7l

> <i_i_glide_lignum>
32

> <i_i_glide_rotatable_bonds>
4

> <r_i_docking_score>
-7.01548578179146

> <r_i_glide_ligand_efficiency>
-0.318885717354157

> <r_i_glide_ligand_efficiency_sa>
-0.893530321089959

> <r_i_glide_ligand_efficiency_ln>
-1.71484062113129

> <r_i_glide_gscore>
-7.01548578179146

> <r_i_glide_lipo>
-2.48267100007988

> <r_i_glide_hbond>
-0.296461191344593

> <r_i_glide_metal>
0

> <r_i_glide_rewards>
-2.65665419074495

> <r_i_glide_evdw>
-37.006893157959

> <r_i_glide_ecoul>
-3.0351083278656

> <r_i_glide_erotb>
0.725911507455743

> <r_i_glide_esite>
0

> <r_i_glide_emodel>
-56.8215060943118

> <r_i_glide_energy>
-40.0420014858246

> <r_i_glide_einternal>
0.548566162586212

> <i_i_glide_confnum>
23

> <i_i_glide_posenum>
218

> <r_i_glide_eff_state_penalty>
0

> <s_user_duplicate_titles>
CHEMBL1849_lig22

> <i_f3d_flags>
0

> <s_m_subgroup_title>
dock_pv

> <s_m_subgroupid>
dock_pv

> <b_m_subgroup_collapsed>
0

$$$$
CHEMBL1849_lig189
                    3D
 Schrodinger Suite 2021-1.
 37 39  0  0  1  0            999 V2000
    6.5145   26.8949   61.4971 C   0  0  0  0  0  0
    5.6565   26.4625   60.4838 C   0  0  0  0  0  0
    5.0769   27.3910   59.6182 C   0  0  0  0  0  0
    6.7935   28.2535   61.6536 C   0  0  0  0  0  0
    6.2038   29.1767   60.7845 C   0  0  0  0  0  0
    5.3553   28.7468   59.7668 C   0  0  0  0  0  0
    4.7732   29.6430   58.8694 N   0  0  0  0  0  0
    4.9988   30.9007   58.9738 C   0  0  0  0  0  0
    5.8215   31.4295   59.9653 N   0  0  0  0  0  0
    6.4585   30.6591   60.9278 C   0  0  0  0  0  0
    7.1616   31.1236   61.8296 O   0  0  0  0  0  0
    6.1057   32.8952   60.0406 C   0  0  0  0  0  0
    7.4732   33.2411   59.4134 C   0  0  0  0  0  0
    8.1526   34.2205   60.0275 N   0  0  0  0  0  0
    7.8939   32.6339   58.4272 O   0  0  0  0  0  0
    9.5032   34.6758   59.6960 C   0  0  0  0  0  0
   10.5015   34.3345   60.7900 C   0  0  0  0  0  0
   11.5530   35.1156   61.2659 C   0  0  0  0  0  0
   12.3387   34.5038   62.2475 C   0  0  0  0  0  0
   11.8869   33.2375   62.5701 C   0  0  0  0  0  0
   10.5039   32.7955   61.6281 S   0  0  0  0  0  0
    4.3393   31.8097   57.9476 C   0  0  0  0  0  0
    6.9752   26.1725   62.1554 H   0  0  0  0  0  0
    5.4547   25.4081   60.3628 H   0  0  0  0  0  0
    4.4176   27.0700   58.8284 H   0  0  0  0  0  0
    7.4701   28.5737   62.4332 H   0  0  0  0  0  0
    6.0856   33.2240   61.0820 H   0  0  0  0  0  0
    5.3259   33.4907   59.5675 H   0  0  0  0  0  0
    7.7412   34.6429   60.8479 H   0  0  0  0  0  0
    9.4654   35.7576   59.5671 H   0  0  0  0  0  0
    9.8403   34.2855   58.7333 H   0  0  0  0  0  0
   11.7456   36.1109   60.8939 H   0  0  0  0  0  0
   13.1940   34.9738   62.7107 H   0  0  0  0  0  0
   12.2951   32.5522   63.2986 H   0  0  0  0  0  0
    3.7058   31.2505   57.2573 H   0  0  0  0  0  0
    3.7036   32.5537   58.4269 H   0  0  0  0  0  0
    5.0916   32.3220   57.3515 H   0  0  0  0  0  0
  1  2  2  0  0  0
  1  4  1  0  0  0
  1 23  1  0  0  0
  2  3  1  0  0  0
  2 24  1  0  0  0
  3  6  2  0  0  0
  3 25  1  0  0  0
  4  5  2  0  0  0
  4 26  1  0  0  0
  5  6  1  0  0  0
  5 10  1  0  0  0
  6  7  1  0  0  0
  7  8  2  0  0  0
  8  9  1  0  0  0
  8 22  1  0  0  0
  9 10  1  0  0  0
  9 12  1  0  0  0
 10 11  2  0  0  0
 12 13  1  0  0  0
 12 27  1  0  0  0
 12 28  1  0  0  0
 13 14  1  0  0  0
 13 15  2  0  0  0
 14 16  1  0  0  0
 14 29  1  0  0  0
 16 17  1  0  0  0
 16 30  1  0  0  0
 16 31  1  0  0  0
 17 18  2  0  0  0
 17 21  1  0  0  0
 18 19  1  0  0  0
 18 32  1  0  0  0
 19 20  2  0  0  0
 19 33  1  0  0  0
 20 21  1  0  0  0
 20 34  1  0  0  0
 22 35  1  0  0  0
 22 36  1  0  0  0
 22 37  1  0  0  0
M  END
> <s_m_entry_id>
8313

> <s_m_entry_name>
dock_pv.108

> <s_m_Source_Path>
/home/csk/Desktop/cluster/DUD-E-result/inha

> <s_m_Source_File>
dock_pv.maegz

> <i_m_Source_File_Index>
108

> <chembl_id>
CHEMBL3331283

> <chembl_pref_name>
None

> <i_lp_mmshare_version>
53161

> <r_lp_tautomer_probability>
1

> <s_lp_Force_Field>
OPLS_2005

> <r_lp_Energy>
17.210228

> <b_lp_Chiralities_Consistent>
1

> <s_lp_Variant>
CHEMBL1849_lig189-1

> <s_i_glide_gridfile>
glide-grid_2h7l

> <i_i_glide_lignum>
256

> <i_i_glide_rotatable_bonds>
5

> <r_i_docking_score>
-6.98989829103795

> <r_i_glide_ligand_efficiency>
-0.317722649592634

> <r_i_glide_ligand_efficiency_sa>
-0.890271359481312

> <r_i_glide_ligand_efficiency_ln>
-1.70858610506473

> <r_i_glide_gscore>
-6.98989829103795

> <r_i_glide_lipo>
-3.14291393552993

> <r_i_glide_hbond>
0

> <r_i_glide_metal>
0

> <r_i_glide_rewards>
-2.58287657427146

> <r_i_glide_evdw>
-39.1109046936035

> <r_i_glide_ecoul>
-0.433844387531281

> <r_i_glide_erotb>
0.756514111573314

> <r_i_glide_esite>
0

> <r_i_glide_emodel>
-55.7551794788794

> <r_i_glide_energy>
-39.5447490811348

> <r_i_glide_einternal>
1.02993619441986

> <i_i_glide_confnum>
4

> <i_i_glide_posenum>
275

> <r_i_glide_eff_state_penalty>
0

> <s_user_duplicate_titles>
CHEMBL1849_lig189

> <i_f3d_flags>
0

> <s_m_subgroup_title>
dock_pv

> <s_m_subgroupid>
dock_pv

> <b_m_subgroup_collapsed>
0

$$$$
CHEMBL1849_lig213 
                    3D
 Schrodinger Suite 2021-1.
 40 42  0  0  1  0            999 V2000
    4.8244   28.8691   60.6144 C   0  0  0  0  0  0
    4.8322   29.9387   59.7738 N   0  0  0  0  0  0
    5.7645   29.9666   58.7710 C   0  0  0  0  0  0
    6.7267   28.5263   58.8282 S   0  0  0  0  0  0
    5.9181   27.9728   60.2829 C   0  0  0  0  0  0
    3.8908   31.0790   59.9853 C   0  0  0  0  0  0
    4.4735   32.2470   60.8282 C   0  0  0  0  0  0
    5.9505   32.4015   60.9470 C   0  0  0  0  0  0
    3.7052   33.1216   61.2280 O   0  0  0  0  0  0
    4.0158   28.7221   61.5329 O   0  0  0  0  0  0
    6.1025   31.1221   57.6278 S   0  0  0  0  0  0
    6.2885   26.8756   60.9820 C   0  0  0  0  0  0
    6.7217   31.4551   61.6279 C   0  0  0  0  0  0
    8.1051   31.5707   61.6438 C   0  0  0  0  0  0
    8.7330   32.6725   61.0624 C   0  0  0  0  0  0
    7.9511   33.6504   60.4273 C   0  0  0  0  0  0
    6.5652   33.5220   60.3854 C   0  0  0  0  0  0
    5.7680   26.3275   62.2484 C   0  0  0  0  0  0
    5.7035   27.1051   63.4115 C   0  0  0  0  0  0
    5.2325   26.5570   64.6049 C   0  0  0  0  0  0
    4.8175   25.2261   64.6431 C   0  0  0  0  0  0
    4.8898   24.4405   63.4921 C   0  0  0  0  0  0
    5.3738   24.9868   62.3023 C   0  0  0  0  0  0
   10.1014   32.7612   61.2280 O   0  0  0  0  0  0
   10.7411   34.0131   60.9917 C   0  0  0  0  0  0
    5.1681   27.5224   66.0335 Cl  0  0  0  0  0  0
    2.9935   30.7362   60.5025 H   0  0  0  0  0  0
    3.5175   31.4738   59.0404 H   0  0  0  0  0  0
    7.1227   26.3220   60.5760 H   0  0  0  0  0  0
    6.2661   30.6153   62.1313 H   0  0  0  0  0  0
    8.6933   30.8335   62.1686 H   0  0  0  0  0  0
    8.4006   34.5259   59.9855 H   0  0  0  0  0  0
    5.9746   34.2854   59.8971 H   0  0  0  0  0  0
    6.0197   28.1376   63.3921 H   0  0  0  0  0  0
    4.4395   24.8079   65.5647 H   0  0  0  0  0  0
    4.5694   23.4099   63.5191 H   0  0  0  0  0  0
    5.4315   24.3674   61.4181 H   0  0  0  0  0  0
   11.7998   33.9275   61.2345 H   0  0  0  0  0  0
   10.3212   34.7995   61.6211 H   0  0  0  0  0  0
   10.6700   34.3224   59.9482 H   0  0  0  0  0  0
  1  2  1  0  0  0
  1  5  1  0  0  0
  1 10  2  0  0  0
  2  3  1  0  0  0
  2  6  1  0  0  0
  3  4  1  0  0  0
  3 11  2  0  0  0
  4  5  1  0  0  0
  5 12  2  0  0  0
  6  7  1  0  0  0
  6 27  1  0  0  0
  6 28  1  0  0  0
  7  8  1  0  0  0
  7  9  2  0  0  0
  8 13  2  0  0  0
  8 17  1  0  0  0
 12 18  1  0  0  0
 12 29  1  0  0  0
 13 14  1  0  0  0
 13 30  1  0  0  0
 14 15  2  0  0  0
 14 31  1  0  0  0
 15 16  1  0  0  0
 15 24  1  0  0  0
 16 17  2  0  0  0
 16 32  1  0  0  0
 17 33  1  0  0  0
 18 19  2  0  0  0
 18 23  1  0  0  0
 19 20  1  0  0  0
 19 34  1  0  0  0
 20 21  2  0  0  0
 20 26  1  0  0  0
 21 22  1  0  0  0
 21 35  1  0  0  0
 22 23  2  0  0  0
 22 36  1  0  0  0
 23 37  1  0  0  0
 24 25  1  0  0  0
 25 38  1  0  0  0
 25 39  1  0  0  0
 25 40  1  0  0  0
M  END
> <s_m_entry_id>
8314

> <s_m_entry_name>
dock_pv.109

> <s_m_Source_Path>
/home/csk/Desktop/cluster/DUD-E-result/inha

> <s_m_Source_File>
dock_pv.maegz

> <i_m_Source_File_Index>
109

> <chembl_id>
CHEMBL4573708

> <chembl_pref_name>
None

> <i_lp_mmshare_version>
53161

> <r_lp_tautomer_probability>
0.99990000499975

> <s_lp_Force_Field>
OPLS_2005

> <r_lp_Energy>
31.968685

> <b_lp_Chiralities_Consistent>
1

> <s_lp_Variant>
CHEMBL1849_lig213 -1

> <s_i_glide_gridfile>
glide-grid_2h7l

> <i_i_glide_lignum>
282

> <i_i_glide_rotatable_bonds>
5

> <r_i_docking_score>
-6.97972041367431

> <r_i_glide_ligand_efficiency>
-0.26845078514132

> <r_i_glide_ligand_efficiency_sa>
-0.795284394678327

> <r_i_glide_ligand_efficiency_ln>
-1.63916443682074

> <r_i_glide_gscore>
-6.97972041367431

> <r_i_glide_lipo>
-3.00695251870043

> <r_i_glide_hbond>
-0.113725898964226

> <r_i_glide_metal>
0

> <r_i_glide_rewards>
-1.54498063193273

> <r_i_glide_evdw>
-43.2242393493652

> <r_i_glide_ecoul>
-3.42651653289795

> <r_i_glide_erotb>
0.361128083326025

> <r_i_glide_esite>
0

> <r_i_glide_emodel>
-59.6784773045278

> <r_i_glide_energy>
-46.6507558822632

> <r_i_glide_einternal>
10.486988067627

> <i_i_glide_confnum>
1

> <i_i_glide_posenum>
182

> <r_i_glide_eff_state_penalty>
0

> <s_user_duplicate_titles>
CHEMBL1849_lig213 

> <i_f3d_flags>
0

> <s_m_subgroup_title>
dock_pv

> <s_m_subgroupid>
dock_pv

> <b_m_subgroup_collapsed>
0

$$$$
CHEMBL1849_lig15
                    3D
 Schrodinger Suite 2021-1.
 46 48  0  0  1  0            999 V2000
    6.1909   30.6821   58.1665 C   0  0  0  0  0  0
    6.1385   29.1616   58.0294 C   0  0  0  0  0  0
    6.6193   28.6138   59.3681 C   0  0  1  0  0  0
    6.2056   29.7195   60.3067 C   0  0  0  0  0  0
    6.3163   30.9303   59.4964 N   0  0  0  0  0  0
    6.2070   32.2620   60.1278 C   0  0  0  0  0  0
    6.7421   32.2564   61.5835 C   0  0  0  0  0  0
    8.2583   31.9223   61.6283 C   0  0  0  0  0  0
    9.0681   32.9413   60.7986 C   0  0  0  0  0  0
    8.5035   33.1309   59.3752 C   0  0  0  0  0  0
    6.9880   33.4047   59.4262 C   0  0  0  0  0  0
    5.9860   27.3148   59.8951 C   0  0  0  0  0  0
    5.1456   26.7204   59.2277 O   0  0  0  0  0  0
    5.7595   25.9722   61.9391 C   0  0  0  0  0  0
    5.3267   24.7331   61.4515 C   0  0  0  0  0  0
    4.6851   23.8365   62.3012 C   0  0  0  0  0  0
    4.4625   24.1752   63.6359 C   0  0  0  0  0  0
    4.9079   25.4041   64.1428 C   0  0  0  0  0  0
    5.5730   26.2890   63.2869 C   0  0  0  0  0  0
    6.1054   31.4765   57.2279 O   0  0  0  0  0  0
    4.1112   22.1503   61.6311 Br  0  0  0  0  0  0
    4.6695   25.7940   65.6015 C   0  0  0  0  0  0
    5.7014   26.4838   66.0887 F   0  0  0  0  0  0
    4.4876   24.7221   66.3735 F   0  0  0  0  0  0
    3.5794   26.5572   65.6733 F   0  0  0  0  0  0
    6.3703   26.9422   61.1354 N   0  0  0  0  0  0
    6.8277   28.9028   57.2250 H   0  0  0  0  0  0
    5.1222   28.8677   57.7682 H   0  0  0  0  0  0
    7.7030   28.4760   59.3898 H   0  0  0  0  0  0
    5.1466   29.6532   60.5709 H   0  0  0  0  0  0
    6.7857   29.7077   61.2269 H   0  0  0  0  0  0
    5.1443   32.5110   60.1329 H   0  0  0  0  0  0
    6.5669   33.2332   62.0279 H   0  0  0  0  0  0
    6.1722   31.5749   62.2147 H   0  0  0  0  0  0
    8.6110   31.9204   62.6597 H   0  0  0  0  0  0
    8.4722   30.9296   61.2458 H   0  0  0  0  0  0
    9.0602   33.9140   61.2864 H   0  0  0  0  0  0
   10.1116   32.6362   60.7738 H   0  0  0  0  0  0
    9.0181   33.9539   58.8769 H   0  0  0  0  0  0
    8.7035   32.2423   58.7757 H   0  0  0  0  0  0
    6.6029   33.5685   58.4280 H   0  0  0  0  0  0
    6.8043   34.3446   59.9471 H   0  0  0  0  0  0
    5.4821   24.4615   60.4192 H   0  0  0  0  0  0
    3.9350   23.4774   64.2703 H   0  0  0  0  0  0
    5.9099   27.2447   63.6650 H   0  0  0  0  0  0
    7.0390   27.5358   61.6009 H   0  0  0  0  0  0
  1  2  1  0  0  0
  1  5  1  0  0  0
  1 20  2  0  0  0
  2  3  1  0  0  0
  2 27  1  0  0  0
  2 28  1  0  0  0
  3  4  1  0  0  0
  3 12  1  0  0  0
  3 29  1  0  0  0
  4  5  1  0  0  0
  4 30  1  0  0  0
  4 31  1  0  0  0
  5  6  1  0  0  0
  6  7  1  0  0  0
  6 11  1  0  0  0
  6 32  1  0  0  0
  7  8  1  0  0  0
  7 33  1  0  0  0
  7 34  1  0  0  0
  8  9  1  0  0  0
  8 35  1  0  0  0
  8 36  1  0  0  0
  9 10  1  0  0  0
  9 37  1  0  0  0
  9 38  1  0  0  0
 10 11  1  0  0  0
 10 39  1  0  0  0
 10 40  1  0  0  0
 11 41  1  0  0  0
 11 42  1  0  0  0
 12 13  2  0  0  0
 12 26  1  0  0  0
 14 15  2  0  0  0
 14 19  1  0  0  0
 14 26  1  0  0  0
 15 16  1  0  0  0
 15 43  1  0  0  0
 16 17  2  0  0  0
 16 21  1  0  0  0
 17 18  1  0  0  0
 17 44  1  0  0  0
 18 19  2  0  0  0
 18 22  1  0  0  0
 19 45  1  0  0  0
 22 23  1  0  0  0
 22 24  1  0  0  0
 22 25  1  0  0  0
 26 46  1  0  0  0
M  END
> <s_m_entry_id>
8315

> <s_m_entry_name>
dock_pv.110

> <s_m_Source_Path>
/home/csk/Desktop/cluster/DUD-E-result/inha

> <s_m_Source_File>
dock_pv.maegz

> <i_m_Source_File_Index>
110

> <chembl_id>
CHEMBL386324

> <chembl_pref_name>
None

> <i_lp_mmshare_version>
53161

> <r_lp_tautomer_probability>
1

> <s_lp_Force_Field>
OPLS_2005

> <r_lp_Energy>
33.3557

> <b_lp_Chiralities_Consistent>
1

> <s_lp_Variant>
CHEMBL1849_lig15-2

> <s_i_glide_gridfile>
glide-grid_2h7l

> <i_i_glide_lignum>
19

> <i_i_glide_rotatable_bonds>
5

> <r_i_docking_score>
-6.9778515929368

> <r_i_glide_ligand_efficiency>
-0.268378907420646

> <r_i_glide_ligand_efficiency_sa>
-0.795071457213656

> <r_i_glide_ligand_efficiency_ln>
-1.63872555040263

> <r_i_glide_gscore>
-6.9778515929368

> <r_i_glide_lipo>
-2.68741598982691

> <r_i_glide_hbond>
-0.337638659547814

> <r_i_glide_metal>
0

> <r_i_glide_rewards>
-1.62766582981327

> <r_i_glide_evdw>
-37.8472671508789

> <r_i_glide_ecoul>
-5.6004753112793

> <r_i_glide_erotb>
0.42416357285382

> <r_i_glide_esite>
-0.0168600323667855

> <r_i_glide_emodel>
-56.8909118778387

> <r_i_glide_energy>
-43.4477424621582

> <r_i_glide_einternal>
6.32803297042847

> <i_i_glide_confnum>
28

> <i_i_glide_posenum>
330

> <r_i_glide_eff_state_penalty>
0

> <s_user_duplicate_titles>
CHEMBL1849_lig15,360389

> <i_f3d_flags>
0

> <s_m_subgroup_title>
dock_pv

> <s_m_subgroupid>
dock_pv

> <b_m_subgroup_collapsed>
0

$$$$
CHEMBL1849_lig129
                    3D
 Schrodinger Suite 2021-1.
 66 70  0  0  1  0            999 V2000
    4.4800   30.1604   61.0227 C   0  0  0  0  0  0
    5.2621   29.9977   59.7831 N   0  0  0  0  0  0
    4.7935   30.9079   58.7417 C   0  0  1  0  0  0
    3.5290   31.5293   59.3345 C   0  0  0  0  0  0
    3.1131   30.6203   60.4904 C   0  0  1  0  0  0
    6.0343   28.9345   59.4590 C   0  0  0  0  0  0
    6.3875   28.1082   60.5381 C   0  0  0  0  0  0
    6.5048   28.7185   58.3430 O   0  0  0  0  0  0
    2.2621   29.5224   60.0155 N   0  0  0  0  0  0
    1.7877   28.5331   60.7902 C   0  0  0  0  0  0
    1.0078   27.5502   60.0753 C   0  0  0  0  0  0
    2.0331   28.4288   61.9922 O   0  0  0  0  0  0
    0.9424   27.2825   58.7129 C   0  0  0  0  0  0
    0.2393   26.0828   58.5582 C   0  0  0  0  0  0
   -0.2061   25.6656   59.7238 N   0  0  0  0  0  0
    0.2522   26.5384   60.6324 N   0  0  0  0  0  0
    0.0117   25.2914   57.2820 C   0  0  0  0  0  0
   -0.2465   23.7861   57.4999 C   0  0  0  0  0  0
   -0.0263   26.2688   62.0364 C   0  0  0  0  0  0
    7.4791   27.4929   62.4279 O   0  0  0  0  0  0
    7.3041   28.4721   61.5129 C   0  0  0  0  0  0
    6.6114   26.5064   62.0807 C   0  0  0  0  0  0
    5.8768   26.8387   60.9334 C   0  0  0  0  0  0
    4.9024   25.9369   60.4800 C   0  0  0  0  0  0
    4.7363   24.7297   61.1668 C   0  0  0  0  0  0
    5.4771   24.4250   62.2972 C   0  0  0  0  0  0
    6.4285   25.3181   62.7695 C   0  0  0  0  0  0
    5.8701   31.9304   58.3647 C   0  0  0  0  0  0
    6.2850   32.7692   59.3318 N   0  0  0  0  0  0
    6.3329   31.9218   57.2281 O   0  0  0  0  0  0
    7.2960   33.8155   59.2131 C   0  0  0  0  0  0
    8.5085   33.5061   60.0514 C   0  0  0  0  0  0
    9.4404   34.4893   60.1411 O   0  0  0  0  0  0
   10.4083   34.0654   60.9936 C   0  0  0  0  0  0
   10.1033   32.7882   61.4368 C   0  0  0  0  0  0
    8.9024   32.4300   60.8285 C   0  0  0  0  0  0
   11.5467   35.0167   61.2339 C   0  0  0  0  0  0
    4.8965   30.9877   61.5987 H   0  0  0  0  0  0
    4.4010   29.2762   61.6575 H   0  0  0  0  0  0
    4.5894   30.3718   57.8110 H   0  0  0  0  0  0
    3.7153   32.5114   59.7716 H   0  0  0  0  0  0
    2.7995   31.7134   58.5609 H   0  0  0  0  0  0
    2.5330   31.2106   61.2050 H   0  0  0  0  0  0
    1.6878   29.7695   59.2202 H   0  0  0  0  0  0
    1.4249   27.8444   57.9263 H   0  0  0  0  0  0
   -0.8099   25.7318   56.7141 H   0  0  0  0  0  0
    0.8936   25.3786   56.6438 H   0  0  0  0  0  0
   -0.2956   23.2556   56.5484 H   0  0  0  0  0  0
    0.5532   23.3311   58.0850 H   0  0  0  0  0  0
   -1.1853   23.6155   58.0291 H   0  0  0  0  0  0
   -0.2803   27.2009   62.5412 H   0  0  0  0  0  0
   -0.8655   25.5800   62.1375 H   0  0  0  0  0  0
    0.8590   25.8328   62.4999 H   0  0  0  0  0  0
    7.9178   29.3471   61.6592 H   0  0  0  0  0  0
    4.2981   26.1802   59.6273 H   0  0  0  0  0  0
    4.0390   23.9905   60.8286 H   0  0  0  0  0  0
    5.3030   23.4906   62.8080 H   0  0  0  0  0  0
    7.0076   25.1215   63.6276 H   0  0  0  0  0  0
    5.8392   32.6928   60.2349 H   0  0  0  0  0  0
    6.8488   34.7198   59.6270 H   0  0  0  0  0  0
    7.5660   34.0185   58.1746 H   0  0  0  0  0  0
   10.6853   32.1951   62.1272 H   0  0  0  0  0  0
    8.3531   31.5112   60.9619 H   0  0  0  0  0  0
   12.2368   34.6508   61.9949 H   0  0  0  0  0  0
   11.1932   35.9966   61.5527 H   0  0  0  0  0  0
   12.1089   35.1505   60.3121 H   0  0  0  0  0  0
  1  2  1  0  0  0
  1  5  1  0  0  0
  1 38  1  0  0  0
  1 39  1  0  0  0
  2  3  1  0  0  0
  2  6  1  0  0  0
  3  4  1  0  0  0
  3 28  1  0  0  0
  3 40  1  0  0  0
  4  5  1  0  0  0
  4 41  1  0  0  0
  4 42  1  0  0  0
  5  9  1  0  0  0
  5 43  1  0  0  0
  6  7  1  0  0  0
  6  8  2  0  0  0
  7 23  1  0  0  0
  7 21  2  0  0  0
  9 10  1  0  0  0
  9 44  1  0  0  0
 10 11  1  0  0  0
 10 12  2  0  0  0
 11 13  2  0  0  0
 11 16  1  0  0  0
 13 14  1  0  0  0
 13 45  1  0  0  0
 14 15  2  0  0  0
 14 17  1  0  0  0
 15 16  1  0  0  0
 16 19  1  0  0  0
 17 18  1  0  0  0
 17 46  1  0  0  0
 17 47  1  0  0  0
 18 48  1  0  0  0
 18 49  1  0  0  0
 18 50  1  0  0  0
 19 51  1  0  0  0
 19 52  1  0  0  0
 19 53  1  0  0  0
 20 22  1  0  0  0
 20 21  1  0  0  0
 21 54  1  0  0  0
 22 23  2  0  0  0
 22 27  1  0  0  0
 23 24  1  0  0  0
 24 25  2  0  0  0
 24 55  1  0  0  0
 25 26  1  0  0  0
 25 56  1  0  0  0
 26 27  2  0  0  0
 26 57  1  0  0  0
 27 58  1  0  0  0
 28 29  1  0  0  0
 28 30  2  0  0  0
 29 31  1  0  0  0
 29 59  1  0  0  0
 31 32  1  0  0  0
 31 60  1  0  0  0
 31 61  1  0  0  0
 32 33  1  0  0  0
 32 36  2  0  0  0
 33 34  1  0  0  0
 34 35  2  0  0  0
 34 37  1  0  0  0
 35 36  1  0  0  0
 35 62  1  0  0  0
 36 63  1  0  0  0
 37 64  1  0  0  0
 37 65  1  0  0  0
 37 66  1  0  0  0
M  END
> <s_m_entry_id>
8316

> <s_m_entry_name>
dock_pv.111

> <s_m_Source_Path>
/home/csk/Desktop/cluster/DUD-E-result/inha

> <s_m_Source_File>
dock_pv.maegz

> <i_m_Source_File_Index>
111

> <chembl_id>
CHEMBL3125262

> <chembl_pref_name>
None

> <i_lp_mmshare_version>
53161

> <r_lp_tautomer_probability>
1

> <s_lp_Force_Field>
OPLS_2005

> <r_lp_Energy>
15.301981

> <b_lp_Chiralities_Consistent>
1

> <s_lp_Variant>
CHEMBL1849_lig129-1

> <s_i_glide_gridfile>
glide-grid_2h7l

> <i_i_glide_lignum>
191

> <i_i_glide_rotatable_bonds>
10

> <r_i_docking_score>
-6.9727766873186

> <r_i_glide_ligand_efficiency>
-0.188453423981584

> <r_i_glide_ligand_efficiency_sa>
-0.627968616653086

> <r_i_glide_ligand_efficiency_ln>
-1.51223179840127

> <r_i_glide_gscore>
-6.9727766873186

> <r_i_glide_lipo>
-3.17159733691866

> <r_i_glide_hbond>
-0.25877511620108

> <r_i_glide_metal>
0

> <r_i_glide_rewards>
-1.28567709138066

> <r_i_glide_evdw>
-42.0876083374023

> <r_i_glide_ecoul>
-5.13257312774658

> <r_i_glide_erotb>
0.725526495617332

> <r_i_glide_esite>
-0.107987252403436

> <r_i_glide_emodel>
-60.0738987584048

> <r_i_glide_energy>
-47.2201814651489

> <r_i_glide_einternal>
14.1059608459473

> <i_i_glide_confnum>
14

> <i_i_glide_posenum>
210

> <r_i_glide_eff_state_penalty>
0

> <s_user_duplicate_titles>
CHEMBL1849_lig129

> <i_f3d_flags>
0

> <s_m_subgroup_title>
dock_pv

> <s_m_subgroupid>
dock_pv

> <b_m_subgroup_collapsed>
0

$$$$
CHEMBL1849_lig20
                    3D
 Schrodinger Suite 2021-1.
 52 54  0  0  1  0            999 V2000
    5.4220   28.8192   61.9679 C   0  0  0  0  0  0
    5.3044   30.2830   61.5401 C   0  0  0  0  0  0
    6.3300   30.5136   60.4210 C   0  0  2  0  0  0
    6.6309   29.0936   59.9431 C   0  0  0  0  0  0
    6.1672   28.2119   61.0136 N   0  0  0  0  0  0
    6.3631   26.7542   60.9739 C   0  0  0  0  0  0
    7.2878   26.2058   62.0909 C   0  0  0  0  0  0
    7.4572   24.6759   62.0783 C   0  0  0  0  0  0
    6.1049   23.9450   62.0280 C   0  0  0  0  0  0
    5.2540   24.3963   60.8331 C   0  0  0  0  0  0
    5.0577   25.9248   60.7947 C   0  0  0  0  0  0
    7.5921   31.2246   60.9782 C   0  0  0  0  0  0
    8.0306   32.2784   60.2544 N   0  0  0  0  0  0
    8.1031   30.8307   62.0255 O   0  0  0  0  0  0
    9.1072   33.1510   60.5006 C   0  0  0  0  0  0
   10.1391   32.9172   61.4268 C   0  0  0  0  0  0
   11.1754   33.8517   61.6283 C   0  0  0  0  0  0
   11.1474   35.0330   60.8718 C   0  0  0  0  0  0
   10.1478   35.2573   59.9289 C   0  0  0  0  0  0
    9.1345   34.3214   59.7401 C   0  0  0  0  0  0
    4.9032   28.3249   62.9664 O   0  0  0  0  0  0
   12.3126   33.6163   62.6518 C   0  0  0  0  0  0
   13.7061   34.0465   62.1405 C   0  0  0  0  0  0
   12.3834   32.1812   63.2263 C   0  0  0  0  0  0
    5.5012   30.8852   62.4285 H   0  0  0  0  0  0
    4.2911   30.5317   61.2244 H   0  0  0  0  0  0
    5.8933   31.1385   59.6388 H   0  0  0  0  0  0
    6.0403   28.8834   59.0499 H   0  0  0  0  0  0
    7.6714   28.9424   59.6451 H   0  0  0  0  0  0
    6.9197   26.5662   60.0565 H   0  0  0  0  0  0
    8.2687   26.6808   62.0290 H   0  0  0  0  0  0
    6.8648   26.4744   63.0600 H   0  0  0  0  0  0
    8.0733   24.3840   61.2302 H   0  0  0  0  0  0
    8.0172   24.3655   62.9593 H   0  0  0  0  0  0
    6.2639   22.8686   61.9754 H   0  0  0  0  0  0
    5.5600   24.1305   62.9538 H   0  0  0  0  0  0
    5.7037   24.0547   59.9047 H   0  0  0  0  0  0
    4.2835   23.9069   60.8796 H   0  0  0  0  0  0
    4.3664   26.1652   61.6034 H   0  0  0  0  0  0
    4.5635   26.2031   59.8634 H   0  0  0  0  0  0
    7.4795   32.5219   59.4483 H   0  0  0  0  0  0
   10.1423   32.0050   61.9954 H   0  0  0  0  0  0
   11.9014   35.7941   61.0009 H   0  0  0  0  0  0
   10.1536   36.1705   59.3489 H   0  0  0  0  0  0
    8.3619   34.5275   59.0132 H   0  0  0  0  0  0
   12.1039   34.2731   63.4957 H   0  0  0  0  0  0
   13.7597   35.1160   61.9394 H   0  0  0  0  0  0
   13.9815   33.5238   61.2268 H   0  0  0  0  0  0
   14.4774   33.8366   62.8818 H   0  0  0  0  0  0
   11.4485   31.8923   63.7077 H   0  0  0  0  0  0
   12.5980   31.4436   62.4526 H   0  0  0  0  0  0
   13.1674   32.0958   63.9818 H   0  0  0  0  0  0
  1  2  1  0  0  0
  1  5  1  0  0  0
  1 21  2  0  0  0
  2  3  1  0  0  0
  2 25  1  0  0  0
  2 26  1  0  0  0
  3 12  1  0  0  0
  3  4  1  0  0  0
  3 27  1  0  0  0
  4  5  1  0  0  0
  4 28  1  0  0  0
  4 29  1  0  0  0
  5  6  1  0  0  0
  6  7  1  0  0  0
  6 11  1  0  0  0
  6 30  1  0  0  0
  7  8  1  0  0  0
  7 31  1  0  0  0
  7 32  1  0  0  0
  8  9  1  0  0  0
  8 33  1  0  0  0
  8 34  1  0  0  0
  9 10  1  0  0  0
  9 35  1  0  0  0
  9 36  1  0  0  0
 10 11  1  0  0  0
 10 37  1  0  0  0
 10 38  1  0  0  0
 11 39  1  0  0  0
 11 40  1  0  0  0
 12 13  1  0  0  0
 12 14  2  0  0  0
 13 15  1  0  0  0
 13 41  1  0  0  0
 15 16  2  0  0  0
 15 20  1  0  0  0
 16 17  1  0  0  0
 16 42  1  0  0  0
 17 18  2  0  0  0
 17 22  1  0  0  0
 18 19  1  0  0  0
 18 43  1  0  0  0
 19 20  2  0  0  0
 19 44  1  0  0  0
 20 45  1  0  0  0
 22 23  1  0  0  0
 22 24  1  0  0  0
 22 46  1  0  0  0
 23 47  1  0  0  0
 23 48  1  0  0  0
 23 49  1  0  0  0
 24 50  1  0  0  0
 24 51  1  0  0  0
 24 52  1  0  0  0
M  END
> <s_m_entry_id>
8317

> <s_m_entry_name>
dock_pv.112

> <s_m_Source_Path>
/home/csk/Desktop/cluster/DUD-E-result/inha

> <s_m_Source_File>
dock_pv.maegz

> <i_m_Source_File_Index>
112

> <chembl_id>
CHEMBL387284

> <chembl_pref_name>
None

> <i_lp_mmshare_version>
53161

> <r_lp_tautomer_probability>
1

> <s_lp_Force_Field>
OPLS_2005

> <r_lp_Energy>
34.215608

> <b_lp_Chiralities_Consistent>
1

> <s_lp_Variant>
CHEMBL1849_lig20-1

> <s_i_glide_gridfile>
glide-grid_2h7l

> <i_i_glide_lignum>
28

> <i_i_glide_rotatable_bonds>
5

> <r_i_docking_score>
-6.96671760136581

> <r_i_glide_ligand_efficiency>
-0.290279900056909

> <r_i_glide_ligand_efficiency_sa>
-0.837312121364901

> <r_i_glide_ligand_efficiency_ln>
-1.66745520384682

> <r_i_glide_gscore>
-6.96671760136581

> <r_i_glide_lipo>
-3.31892325131577

> <r_i_glide_hbond>
0

> <r_i_glide_metal>
0

> <r_i_glide_rewards>
-2.63103497111211

> <r_i_glide_evdw>
-35.2160263061523

> <r_i_glide_ecoul>
0.317598402500153

> <r_i_glide_erotb>
0.696402175994664

> <r_i_glide_esite>
0

> <r_i_glide_emodel>
-46.3401618059647

> <r_i_glide_energy>
-34.8984279036522

> <r_i_glide_einternal>
4.36423778533936

> <i_i_glide_confnum>
6

> <i_i_glide_posenum>
95

> <r_i_glide_eff_state_penalty>
0

> <s_user_duplicate_titles>
CHEMBL1849_lig20

> <i_f3d_flags>
0

> <s_m_subgroup_title>
dock_pv

> <s_m_subgroupid>
dock_pv

> <b_m_subgroup_collapsed>
0

$$$$
CHEMBL1849_lig206
                    3D
 Schrodinger Suite 2021-1.
 55 60  0  0  1  0            999 V2000
    3.3573   29.3924   60.1899 N   0  0  0  0  0  0
   10.5083   34.2503   61.2274 N   0  0  0  0  0  0
    9.9865   35.1402   59.2447 C   0  0  0  0  0  0
   10.8091   35.2555   60.3462 C   0  0  0  0  0  0
    9.1108   34.0352   59.4757 C   0  0  0  0  0  0
    9.4858   33.4722   60.7267 C   0  0  0  0  0  0
    8.8816   32.3214   61.2280 C   0  0  0  0  0  0
    7.8759   31.7381   60.4575 C   0  0  0  0  0  0
    7.4310   32.3000   59.2549 C   0  0  0  0  0  0
    8.0701   33.4427   58.7509 C   0  0  0  0  0  0
    6.3228   31.6617   58.4448 C   0  0  0  0  0  0
    6.5040   31.5224   57.2284 O   0  0  0  0  0  0
    5.1499   31.3059   59.0474 N   0  0  0  0  0  0
    4.0662   30.7348   58.2423 C   0  0  0  0  0  0
    3.7318   29.3252   58.7793 C   0  0  0  0  0  0
    4.4166   30.0160   60.9963 C   0  0  0  0  0  0
    4.7915   31.4319   60.4738 C   0  0  0  0  0  0
    2.7976   28.1269   60.7046 C   0  0  1  0  0  0
    3.5349   26.8434   62.5837 C   0  0  0  0  0  0
    3.8123   27.1290   61.2446 C   0  0  0  0  0  0
    4.8821   26.4940   60.6099 C   0  0  0  0  0  0
    5.6829   25.6039   61.3263 C   0  0  0  0  0  0
    5.4218   25.3434   62.6722 C   0  0  0  0  0  0
    4.3419   25.9577   63.3029 C   0  0  0  0  0  0
    1.9017   28.3579   61.9055 C   0  0  0  0  0  0
    2.3398   27.6029   62.9916 C   0  0  0  0  0  0
    1.6578   27.6558   64.2058 C   0  0  0  0  0  0
    0.5307   28.4684   64.3318 C   0  0  0  0  0  0
    0.0701   29.2351   63.2479 C   0  0  0  0  0  0
    0.7655   29.1617   62.0273 C   0  0  0  0  0  0
   -1.1104   30.1207   63.3997 N   0  3  0  0  0  0
   -1.4949   30.7613   62.4274 O   0  0  0  0  0  0
   -1.6563   30.1880   64.4973 O   0  5  0  0  0  0
   10.9956   34.1269   62.1033 H   0  0  0  0  0  0
   10.0128   35.7979   58.3879 H   0  0  0  0  0  0
   11.5981   35.9602   60.5722 H   0  0  0  0  0  0
    9.1881   31.8823   62.1664 H   0  0  0  0  0  0
    7.4337   30.8212   60.8207 H   0  0  0  0  0  0
    7.7792   33.8610   57.8000 H   0  0  0  0  0  0
    3.1923   31.3773   58.3481 H   0  0  0  0  0  0
    4.2918   30.7220   57.1774 H   0  0  0  0  0  0
    4.5998   28.6743   58.6588 H   0  0  0  0  0  0
    2.9156   28.9012   58.1910 H   0  0  0  0  0  0
    5.3009   29.3784   60.9658 H   0  0  0  0  0  0
    4.0868   30.0633   62.0279 H   0  0  0  0  0  0
    5.5469   31.9079   61.0921 H   0  0  0  0  0  0
    3.9178   32.0794   60.5541 H   0  0  0  0  0  0
    2.1929   27.6536   59.9299 H   0  0  0  0  0  0
    5.1039   26.6788   59.5707 H   0  0  0  0  0  0
    6.5045   25.1136   60.8323 H   0  0  0  0  0  0
    6.0537   24.6624   63.2208 H   0  0  0  0  0  0
    4.1406   25.7439   64.3425 H   0  0  0  0  0  0
    1.9934   27.0780   65.0537 H   0  0  0  0  0  0
    0.0198   28.5021   65.2826 H   0  0  0  0  0  0
    0.4414   29.7515   61.1777 H   0  0  0  0  0  0
  1 15  1  0  0  0
  1 16  1  0  0  0
  1 18  1  0  0  0
  2  6  1  0  0  0
  2  4  1  0  0  0
  2 34  1  0  0  0
  3  5  1  0  0  0
  3  4  2  0  0  0
  3 35  1  0  0  0
  4 36  1  0  0  0
  5  6  2  0  0  0
  5 10  1  0  0  0
  6  7  1  0  0  0
  7  8  2  0  0  0
  7 37  1  0  0  0
  8  9  1  0  0  0
  8 38  1  0  0  0
  9 10  2  0  0  0
  9 11  1  0  0  0
 10 39  1  0  0  0
 11 12  2  0  0  0
 11 13  1  0  0  0
 13 14  1  0  0  0
 13 17  1  0  0  0
 14 15  1  0  0  0
 14 40  1  0  0  0
 14 41  1  0  0  0
 15 42  1  0  0  0
 15 43  1  0  0  0
 16 17  1  0  0  0
 16 44  1  0  0  0
 16 45  1  0  0  0
 17 46  1  0  0  0
 17 47  1  0  0  0
 18 20  1  0  0  0
 18 25  1  0  0  0
 18 48  1  0  0  0
 19 26  1  0  0  0
 19 20  2  0  0  0
 19 24  1  0  0  0
 20 21  1  0  0  0
 21 22  2  0  0  0
 21 49  1  0  0  0
 22 23  1  0  0  0
 22 50  1  0  0  0
 23 24  2  0  0  0
 23 51  1  0  0  0
 24 52  1  0  0  0
 25 26  2  0  0  0
 25 30  1  0  0  0
 26 27  1  0  0  0
 27 28  2  0  0  0
 27 53  1  0  0  0
 28 29  1  0  0  0
 28 54  1  0  0  0
 29 30  2  0  0  0
 29 31  1  0  0  0
 30 55  1  0  0  0
 31 32  2  0  0  0
 31 33  1  0  0  0
M  CHG  2  31   1  33  -1
M  END
> <s_m_entry_id>
8318

> <s_m_entry_name>
dock_pv.113

> <s_m_Source_Path>
/home/csk/Desktop/cluster/DUD-E-result/inha

> <s_m_Source_File>
dock_pv.maegz

> <i_m_Source_File_Index>
113

> <chembl_id>
CHEMBL3960902

> <chembl_pref_name>
None

> <i_lp_mmshare_version>
53161

> <r_lp_tautomer_probability>
1

> <s_lp_Force_Field>
OPLS_2005

> <r_lp_Energy>
76.690732

> <b_lp_Chiralities_Consistent>
1

> <s_lp_Variant>
CHEMBL1849_lig206-2

> <s_i_glide_gridfile>
glide-grid_2h7l

> <i_i_glide_lignum>
275

> <i_i_glide_rotatable_bonds>
4

> <r_i_docking_score>
-6.9470413874178

> <r_i_glide_ligand_efficiency>
-0.210516405679327

> <r_i_glide_ligand_efficiency_sa>
-0.675238597456778

> <r_i_glide_ligand_efficiency_ln>
-1.54498603470648

> <r_i_glide_gscore>
-6.9470413874178

> <r_i_glide_lipo>
-2.80901495392343

> <r_i_glide_hbond>
-0.297898789932202

> <r_i_glide_metal>
0

> <r_i_glide_rewards>
-1.23486430837236

> <r_i_glide_evdw>
-42.4750633239746

> <r_i_glide_ecoul>
-5.28536605834961

> <r_i_glide_erotb>
0.311294739761371

> <r_i_glide_esite>
0

> <r_i_glide_emodel>
-65.5833047067722

> <r_i_glide_energy>
-47.7604293823242

> <r_i_glide_einternal>
4.90264987945557

> <i_i_glide_confnum>
17

> <i_i_glide_posenum>
289

> <r_i_glide_eff_state_penalty>
0

> <s_user_duplicate_titles>
CHEMBL1849_lig206

> <i_f3d_flags>
0

> <s_m_subgroup_title>
dock_pv

> <s_m_subgroupid>
dock_pv

> <b_m_subgroup_collapsed>
0

$$$$
CHEMBL1849_lig150
                    3D
 Schrodinger Suite 2021-1.
 69 73  0  0  1  0            999 V2000
    4.0442   29.5085   60.6035 C   0  0  0  0  0  0
    5.1550   29.5882   59.6316 N   0  0  0  0  0  0
    4.8853   30.6096   58.6035 C   0  0  1  0  0  0
    3.5835   31.2554   59.1004 C   0  0  0  0  0  0
    2.8737   30.1300   59.8366 C   0  0  1  0  0  0
    6.1432   28.6636   59.5371 C   0  0  0  0  0  0
    6.3301   27.8855   60.7145 C   0  0  0  0  0  0
    6.9022   28.5431   58.5770 O   0  0  0  0  0  0
    2.2283   29.2329   58.8629 N   0  0  0  0  0  0
    1.3964   28.1873   59.0253 C   0  0  0  0  0  0
    1.1337   27.6731   60.3597 C   0  0  0  0  0  0
    0.9053   27.6523   58.0341 O   0  0  0  0  0  0
    0.9853   28.3246   61.5850 C   0  0  0  0  0  0
    0.6642   27.3623   62.5456 C   0  0  0  0  0  0
    0.5020   26.1939   61.9714 N   0  0  0  0  0  0
    0.7569   26.3768   60.6683 N   0  0  0  0  0  0
    0.4611   27.5716   64.0381 C   0  0  0  0  0  0
    0.3694   26.2805   64.8730 C   0  0  0  0  0  0
    0.5286   25.2358   59.7866 C   0  0  0  0  0  0
    6.9036   27.5193   62.8904 O   0  0  0  0  0  0
    7.0082   28.3577   61.8292 C   0  0  0  0  0  0
    6.1763   26.4540   62.4591 C   0  0  0  0  0  0
    5.7930   26.6157   61.1092 C   0  0  0  0  0  0
    5.0111   25.6121   60.5160 C   0  0  0  0  0  0
    4.6714   24.4858   61.2736 C   0  0  0  0  0  0
    5.0590   24.3578   62.6068 C   0  0  0  0  0  0
    5.8148   25.3478   63.2336 C   0  0  0  0  0  0
    5.9863   31.6664   58.3700 C   0  0  0  0  0  0
    6.4382   32.3832   59.4168 N   0  0  0  0  0  0
    6.4138   31.8109   57.2282 O   0  0  0  0  0  0
    7.3725   33.5160   59.3285 C   0  0  0  0  0  0
    8.6462   33.4288   60.1670 C   0  0  0  0  0  0
    8.9144   32.3393   61.0022 C   0  0  0  0  0  0
   10.0820   32.3219   61.7655 C   0  0  0  0  0  0
   11.0067   33.3638   61.6829 C   0  0  0  0  0  0
   10.7354   34.4552   60.8507 C   0  0  0  0  0  0
    9.5620   34.4848   60.0991 C   0  0  0  0  0  0
   12.3056   33.2979   62.4933 C   0  0  0  0  0  0
   13.3181   33.9003   61.8646 F   0  0  0  0  0  0
   12.1043   33.9290   63.6277 F   0  0  0  0  0  0
   12.6661   32.0545   62.8278 F   0  0  0  0  0  0
    4.2531   30.1581   61.4549 H   0  0  0  0  0  0
    3.7740   28.5029   60.9280 H   0  0  0  0  0  0
    4.7402   30.1474   57.6261 H   0  0  0  0  0  0
    3.7740   32.0663   59.8075 H   0  0  0  0  0  0
    3.0108   31.7520   58.3262 H   0  0  0  0  0  0
    2.1176   30.5999   60.4659 H   0  0  0  0  0  0
    2.3830   29.4898   57.8984 H   0  0  0  0  0  0
    1.0899   29.3760   61.7960 H   0  0  0  0  0  0
    1.2833   28.1705   64.4292 H   0  0  0  0  0  0
   -0.4386   28.1636   64.2066 H   0  0  0  0  0  0
    0.2580   26.5060   65.9338 H   0  0  0  0  0  0
   -0.4865   25.6746   64.5763 H   0  0  0  0  0  0
    1.2646   25.6696   64.7550 H   0  0  0  0  0  0
    1.1586   25.2996   58.9030 H   0  0  0  0  0  0
    0.7550   24.3048   60.3054 H   0  0  0  0  0  0
   -0.5157   25.2307   59.4774 H   0  0  0  0  0  0
    7.5479   29.2744   62.0238 H   0  0  0  0  0  0
    4.6967   25.7060   59.4893 H   0  0  0  0  0  0
    4.0940   23.6908   60.8275 H   0  0  0  0  0  0
    4.7646   23.4772   63.1602 H   0  0  0  0  0  0
    6.1047   25.2745   64.2694 H   0  0  0  0  0  0
    6.0401   32.1990   60.3235 H   0  0  0  0  0  0
    6.8309   34.4086   59.6435 H   0  0  0  0  0  0
    7.6748   33.7045   58.2970 H   0  0  0  0  0  0
    8.2226   31.5142   61.0802 H   0  0  0  0  0  0
   10.2652   31.4883   62.4272 H   0  0  0  0  0  0
   11.4359   35.2759   60.7776 H   0  0  0  0  0  0
    9.3709   35.3355   59.4610 H   0  0  0  0  0  0
  1  2  1  0  0  0
  1  5  1  0  0  0
  1 42  1  0  0  0
  1 43  1  0  0  0
  2  3  1  0  0  0
  2  6  1  0  0  0
  3  4  1  0  0  0
  3 28  1  0  0  0
  3 44  1  0  0  0
  4  5  1  0  0  0
  4 45  1  0  0  0
  4 46  1  0  0  0
  5  9  1  0  0  0
  5 47  1  0  0  0
  6  7  1  0  0  0
  6  8  2  0  0  0
  7 23  1  0  0  0
  7 21  2  0  0  0
  9 10  1  0  0  0
  9 48  1  0  0  0
 10 11  1  0  0  0
 10 12  2  0  0  0
 11 13  2  0  0  0
 11 16  1  0  0  0
 13 14  1  0  0  0
 13 49  1  0  0  0
 14 15  2  0  0  0
 14 17  1  0  0  0
 15 16  1  0  0  0
 16 19  1  0  0  0
 17 18  1  0  0  0
 17 50  1  0  0  0
 17 51  1  0  0  0
 18 52  1  0  0  0
 18 53  1  0  0  0
 18 54  1  0  0  0
 19 55  1  0  0  0
 19 56  1  0  0  0
 19 57  1  0  0  0
 20 22  1  0  0  0
 20 21  1  0  0  0
 21 58  1  0  0  0
 22 23  2  0  0  0
 22 27  1  0  0  0
 23 24  1  0  0  0
 24 25  2  0  0  0
 24 59  1  0  0  0
 25 26  1  0  0  0
 25 60  1  0  0  0
 26 27  2  0  0  0
 26 61  1  0  0  0
 27 62  1  0  0  0
 28 29  1  0  0  0
 28 30  2  0  0  0
 29 31  1  0  0  0
 29 63  1  0  0  0
 31 32  1  0  0  0
 31 64  1  0  0  0
 31 65  1  0  0  0
 32 33  2  0  0  0
 32 37  1  0  0  0
 33 34  1  0  0  0
 33 66  1  0  0  0
 34 35  2  0  0  0
 34 67  1  0  0  0
 35 36  1  0  0  0
 35 38  1  0  0  0
 36 37  2  0  0  0
 36 68  1  0  0  0
 37 69  1  0  0  0
 38 39  1  0  0  0
 38 40  1  0  0  0
 38 41  1  0  0  0
M  END
> <s_m_entry_id>
8319

> <s_m_entry_name>
dock_pv.114

> <s_m_Source_Path>
/home/csk/Desktop/cluster/DUD-E-result/inha

> <s_m_Source_File>
dock_pv.maegz

> <i_m_Source_File_Index>
114

> <chembl_id>
CHEMBL3125241

> <chembl_pref_name>
None

> <i_lp_mmshare_version>
53161

> <r_lp_tautomer_probability>
1

> <s_lp_Force_Field>
OPLS_2005

> <r_lp_Energy>
24.185703

> <b_lp_Chiralities_Consistent>
1

> <s_lp_Variant>
CHEMBL1849_lig150-1

> <s_i_glide_gridfile>
glide-grid_2h7l

> <i_i_glide_lignum>
215

> <i_i_glide_rotatable_bonds>
11

> <r_i_docking_score>
-6.94208442097606

> <r_i_glide_ligand_efficiency>
-0.169319132218928

> <r_i_glide_ligand_efficiency_sa>
-0.583849150121229

> <r_i_glide_ligand_efficiency_ln>
-1.47278631210786

> <r_i_glide_gscore>
-6.94208442097606

> <r_i_glide_lipo>
-3.08615801096979

> <r_i_glide_hbond>
-0.276731636409893

> <r_i_glide_metal>
0

> <r_i_glide_rewards>
-0.913031186147965

> <r_i_glide_evdw>
-44.780834197998

> <r_i_glide_ecoul>
-6.02512979507446

> <r_i_glide_erotb>
0.49460674664532

> <r_i_glide_esite>
-0.0179591549326529

> <r_i_glide_emodel>
-55.0938280155756

> <r_i_glide_energy>
-50.8059639930725

> <r_i_glide_einternal>
14.9097309112549

> <i_i_glide_confnum>
21

> <i_i_glide_posenum>
44

> <r_i_glide_eff_state_penalty>
0

> <s_user_duplicate_titles>
CHEMBL1849_lig150

> <i_f3d_flags>
0

> <s_m_subgroup_title>
dock_pv

> <s_m_subgroupid>
dock_pv

> <b_m_subgroup_collapsed>
0

$$$$
CHEMBL1849_lig209 
                    3D
 Schrodinger Suite 2021-1.
 38 40  0  0  1  0            999 V2000
    5.6369   31.8798   57.2282 O   0  0  0  0  0  0
    6.0705   30.9733   58.2971 S   0  0  0  0  0  0
    6.6989   29.6913   57.9614 O   0  0  0  0  0  0
    7.2565   31.9159   59.3304 C   0  0  0  0  0  0
    4.6305   30.6980   59.3096 N   0  0  0  0  0  0
    4.2498   29.4722   59.8815 C   0  0  0  0  0  0
    5.1431   28.4272   60.1416 C   0  0  0  0  0  0
    4.7218   27.2383   60.7395 C   0  0  0  0  0  0
    3.3693   27.0824   61.0658 C   0  0  0  0  0  0
    2.4623   28.1074   60.7952 C   0  0  0  0  0  0
    2.9027   29.2970   60.2113 C   0  0  0  0  0  0
    5.7749   26.1880   61.0765 C   0  0  0  0  0  0
    5.2985   24.8213   60.9521 N   0  0  0  0  0  0
    7.9291   31.5023   60.4784 C   0  0  0  0  0  0
    7.7034   33.5226   58.8280 S   0  0  0  0  0  0
    7.7050   30.2260   61.2611 C   0  0  0  0  0  0
    8.9428   33.6130   60.0419 C   0  0  0  0  0  0
    8.9705   32.4287   60.8317 C   0  0  0  0  0  0
    9.9841   32.3225   61.8080 C   0  0  0  0  0  0
   10.9052   33.3525   61.9786 C   0  0  0  0  0  0
   10.8360   34.5081   61.2091 C   0  0  0  0  0  0
    9.8521   34.6655   60.2376 C   0  0  0  0  0  0
   12.1419   33.1920   63.1698 Cl  0  0  0  0  0  0
    3.9031   31.3909   59.2123 H   0  0  0  0  0  0
    6.1875   28.5194   59.9036 H   0  0  0  0  0  0
    3.0247   26.1748   61.5416 H   0  0  0  0  0  0
    1.4191   27.9873   61.0498 H   0  0  0  0  0  0
    2.1860   30.0853   60.0218 H   0  0  0  0  0  0
    6.6457   26.3194   60.4303 H   0  0  0  0  0  0
    6.1147   26.3541   62.0994 H   0  0  0  0  0  0
    5.1540   24.6301   59.9709 H   0  0  0  0  0  0
    6.0486   24.2038   61.2281 H   0  0  0  0  0  0
    8.0630   29.3524   60.7181 H   0  0  0  0  0  0
    8.2018   30.2179   62.2308 H   0  0  0  0  0  0
    6.6505   30.0901   61.4888 H   0  0  0  0  0  0
   10.0576   31.4513   62.4375 H   0  0  0  0  0  0
   11.5587   35.2957   61.3658 H   0  0  0  0  0  0
    9.8144   35.5626   59.6349 H   0  0  0  0  0  0
  1  2  2  0  0  0
  2  3  2  0  0  0
  2  4  1  0  0  0
  2  5  1  0  0  0
  4 14  2  0  0  0
  4 15  1  0  0  0
  5  6  1  0  0  0
  5 24  1  0  0  0
  6  7  2  0  0  0
  6 11  1  0  0  0
  7  8  1  0  0  0
  7 25  1  0  0  0
  8  9  2  0  0  0
  8 12  1  0  0  0
  9 10  1  0  0  0
  9 26  1  0  0  0
 10 11  2  0  0  0
 10 27  1  0  0  0
 11 28  1  0  0  0
 12 13  1  0  0  0
 12 29  1  0  0  0
 12 30  1  0  0  0
 13 31  1  0  0  0
 13 32  1  0  0  0
 14 18  1  0  0  0
 14 16  1  0  0  0
 15 17  1  0  0  0
 16 33  1  0  0  0
 16 34  1  0  0  0
 16 35  1  0  0  0
 17 18  2  0  0  0
 17 22  1  0  0  0
 18 19  1  0  0  0
 19 20  2  0  0  0
 19 36  1  0  0  0
 20 21  1  0  0  0
 20 23  1  0  0  0
 21 22  2  0  0  0
 21 37  1  0  0  0
 22 38  1  0  0  0
M  END
> <s_m_entry_id>
8320

> <s_m_entry_name>
dock_pv.115

> <s_m_Source_Path>
/home/csk/Desktop/cluster/DUD-E-result/inha

> <s_m_Source_File>
dock_pv.maegz

> <i_m_Source_File_Index>
115

> <chembl_id>
CHEMBL4435863

> <chembl_pref_name>
None

> <i_lp_mmshare_version>
53161

> <r_lp_tautomer_probability>
1

> <s_lp_Force_Field>
OPLS_2005

> <r_lp_Energy>
7.57507

> <b_lp_Chiralities_Consistent>
1

> <s_lp_Variant>
CHEMBL1849_lig209 -1

> <s_i_glide_gridfile>
glide-grid_2h7l

> <i_i_glide_lignum>
278

> <i_i_glide_rotatable_bonds>
4

> <r_i_docking_score>
-6.94173561842826

> <r_i_glide_ligand_efficiency>
-0.301814592105576

> <r_i_glide_ligand_efficiency_sa>
-0.858320551629332

> <r_i_glide_ligand_efficiency_ln>
-1.67857461671449

> <r_i_glide_gscore>
-6.94173561842826

> <r_i_glide_lipo>
-2.95467342443551

> <r_i_glide_hbond>
0

> <r_i_glide_metal>
0

> <r_i_glide_rewards>
-1.78783382171886

> <r_i_glide_evdw>
-35.3129539489746

> <r_i_glide_ecoul>
-5.32021331787109

> <r_i_glide_erotb>
0.429084484705046

> <r_i_glide_esite>
-0.0646331618495402

> <r_i_glide_emodel>
-56.3124851710603

> <r_i_glide_energy>
-40.6331672668457

> <r_i_glide_einternal>
2.18465280532837

> <i_i_glide_confnum>
12

> <i_i_glide_posenum>
154

> <r_i_glide_eff_state_penalty>
0

> <s_user_duplicate_titles>
CHEMBL1849_lig209 

> <i_f3d_flags>
0

> <s_m_subgroup_title>
dock_pv

> <s_m_subgroupid>
dock_pv

> <b_m_subgroup_collapsed>
0

$$$$
CHEMBL1849_lig196
                    3D
 Schrodinger Suite 2021-1.
 49 53  0  0  1  0            999 V2000
    6.3627   31.9220   58.2678 C   0  0  0  0  0  0
    6.5040   31.5220   57.1122 O   0  0  0  0  0  0
    7.5239   32.5659   59.0073 C   0  0  0  0  0  0
    8.0916   31.9732   60.1490 C   0  0  0  0  0  0
    9.0895   32.6348   60.8661 C   0  0  0  0  0  0
    9.5897   33.8586   60.4280 C   0  0  0  0  0  0
    9.1354   34.3859   59.2238 C   0  0  0  0  0  0
    8.1040   33.7506   58.5282 C   0  0  0  0  0  0
    9.6974   35.5139   58.7318 F   0  0  0  0  0  0
    7.6959   30.7554   60.5802 F   0  0  0  0  0  0
    5.1561   31.8336   58.8764 N   0  0  0  0  0  0
    4.8868   32.2081   60.2641 C   0  0  0  0  0  0
    4.6260   30.8852   61.0017 C   0  0  0  0  0  0
    3.5428   30.0890   60.4188 N   0  0  0  0  0  0
    3.7802   29.8097   58.9969 C   0  0  0  0  0  0
    4.0495   31.1220   58.2184 C   0  0  0  0  0  0
    3.1579   28.9290   61.2494 C   0  0  0  0  0  0
    1.9223   28.2090   60.7442 C   0  0  0  0  0  0
    0.6743   28.7220   60.3803 C   0  0  0  0  0  0
   -0.3336   27.8613   59.9445 C   0  0  0  0  0  0
   -0.1002   26.4862   59.8888 C   0  0  0  0  0  0
    1.1422   25.9706   60.2637 C   0  0  0  0  0  0
    2.1570   26.8357   60.6822 C   0  0  0  0  0  0
    3.5494   26.5751   61.1015 C   0  0  0  0  0  0
    4.2561   25.3758   61.2269 C   0  0  0  0  0  0
    5.5888   25.3902   61.6372 C   0  0  0  0  0  0
    6.2057   26.5990   61.9542 C   0  0  0  0  0  0
    5.4929   27.7944   61.8576 C   0  0  0  0  0  0
    4.1651   27.7920   61.4070 C   0  0  0  0  0  0
    9.4848   32.1895   61.7672 H   0  0  0  0  0  0
   10.3697   34.3620   60.9802 H   0  0  0  0  0  0
    7.7424   34.2150   57.6280 H   0  0  0  0  0  0
    5.6884   32.7787   60.7310 H   0  0  0  0  0  0
    3.9985   32.8405   60.3145 H   0  0  0  0  0  0
    4.4246   31.1156   62.0280 H   0  0  0  0  0  0
    5.5269   30.2862   60.9645 H   0  0  0  0  0  0
    2.9203   29.3024   58.5586 H   0  0  0  0  0  0
    4.6398   29.1424   58.9110 H   0  0  0  0  0  0
    3.1655   31.7573   58.2718 H   0  0  0  0  0  0
    4.2183   30.9292   57.1603 H   0  0  0  0  0  0
    2.9171   29.3051   62.2428 H   0  0  0  0  0  0
    0.4856   29.7858   60.4280 H   0  0  0  0  0  0
   -1.2945   28.2611   59.6548 H   0  0  0  0  0  0
   -0.8828   25.8203   59.5559 H   0  0  0  0  0  0
    1.3040   24.9047   60.2181 H   0  0  0  0  0  0
    3.7887   24.4303   61.0017 H   0  0  0  0  0  0
    6.1432   24.4662   61.7146 H   0  0  0  0  0  0
    7.2341   26.6088   62.2855 H   0  0  0  0  0  0
    5.9922   28.7008   62.1587 H   0  0  0  0  0  0
  1  2  2  0  0  0
  1  3  1  0  0  0
  1 11  1  0  0  0
  3  4  1  0  0  0
  3  8  2  0  0  0
  4  5  2  0  0  0
  4 10  1  0  0  0
  5  6  1  0  0  0
  5 30  1  0  0  0
  6  7  2  0  0  0
  6 31  1  0  0  0
  7  8  1  0  0  0
  7  9  1  0  0  0
  8 32  1  0  0  0
 11 12  1  0  0  0
 11 16  1  0  0  0
 12 13  1  0  0  0
 12 33  1  0  0  0
 12 34  1  0  0  0
 13 14  1  0  0  0
 13 35  1  0  0  0
 13 36  1  0  0  0
 14 15  1  0  0  0
 14 17  1  0  0  0
 15 16  1  0  0  0
 15 37  1  0  0  0
 15 38  1  0  0  0
 16 39  1  0  0  0
 16 40  1  0  0  0
 17 18  1  0  0  0
 17 29  1  0  0  0
 17 41  1  0  0  0
 18 19  1  0  0  0
 18 23  2  0  0  0
 19 20  2  0  0  0
 19 42  1  0  0  0
 20 21  1  0  0  0
 20 43  1  0  0  0
 21 22  2  0  0  0
 21 44  1  0  0  0
 22 23  1  0  0  0
 22 45  1  0  0  0
 23 24  1  0  0  0
 24 25  1  0  0  0
 24 29  2  0  0  0
 25 26  2  0  0  0
 25 46  1  0  0  0
 26 27  1  0  0  0
 26 47  1  0  0  0
 27 28  2  0  0  0
 27 48  1  0  0  0
 28 29  1  0  0  0
 28 49  1  0  0  0
M  END
> <s_m_entry_id>
8321

> <s_m_entry_name>
dock_pv.116

> <s_m_Source_Path>
/home/csk/Desktop/cluster/DUD-E-result/inha

> <s_m_Source_File>
dock_pv.maegz

> <i_m_Source_File_Index>
116

> <chembl_id>
CHEMBL3393965

> <chembl_pref_name>
None

> <i_lp_mmshare_version>
53161

> <r_lp_tautomer_probability>
1

> <s_lp_Force_Field>
OPLS_2005

> <r_lp_Energy>
72.566026

> <b_lp_Chiralities_Consistent>
1

> <s_lp_Variant>
CHEMBL1849_lig196-1

> <s_i_glide_gridfile>
glide-grid_2h7l

> <i_i_glide_lignum>
263

> <i_i_glide_rotatable_bonds>
3

> <r_i_docking_score>
-6.94119876755066

> <r_i_glide_ligand_efficiency>
-0.239351681639678

> <r_i_glide_ligand_efficiency_sa>
-0.735364197932389

> <r_i_glide_ligand_efficiency_ln>
-1.58935850415523

> <r_i_glide_gscore>
-6.94119876755066

> <r_i_glide_lipo>
-2.40440147534102

> <r_i_glide_hbond>
-0.312702738656747

> <r_i_glide_metal>
0

> <r_i_glide_rewards>
-2.19044046027293

> <r_i_glide_evdw>
-36.1342353820801

> <r_i_glide_ecoul>
-4.07203817367554

> <r_i_glide_erotb>
0.383863401875371

> <r_i_glide_esite>
0

> <r_i_glide_emodel>
-54.7813963272347

> <r_i_glide_energy>
-40.2062735557556

> <r_i_glide_einternal>
4.29931306838989

> <i_i_glide_confnum>
3

> <i_i_glide_posenum>
368

> <r_i_glide_eff_state_penalty>
0

> <s_user_duplicate_titles>
CHEMBL1849_lig196

> <i_f3d_flags>
0

> <s_m_subgroup_title>
dock_pv

> <s_m_subgroupid>
dock_pv

> <b_m_subgroup_collapsed>
0

$$$$
CHEMBL1849_lig161
                    3D
 Schrodinger Suite 2021-1.
 59 62  0  0  1  0            999 V2000
    4.3657   28.6622   58.5134 C   0  0  0  0  0  0
    4.3647   28.0305   59.8441 N   0  0  0  0  0  0
    3.3395   28.6706   60.7110 C   0  0  1  0  0  0
    2.7325   29.7776   59.8140 C   0  0  0  0  0  0
    3.7720   30.0396   58.7379 C   0  0  1  0  0  0
    5.0883   26.8888   60.0289 C   0  0  0  0  0  0
    5.1273   26.2421   61.3200 C   0  0  0  0  0  0
    5.7028   26.3605   59.1059 O   0  0  0  0  0  0
    4.7557   31.0013   59.2114 N   0  0  0  0  0  0
    5.6344   31.6606   58.4429 C   0  0  0  0  0  0
    6.5064   32.5234   59.1906 C   0  0  0  0  0  0
    5.7354   31.5302   57.2210 O   0  0  0  0  0  0
    7.8126   32.8887   58.9001 C   0  0  0  0  0  0
    8.2337   33.7257   59.9385 C   0  0  0  0  0  0
    7.2629   33.9198   60.7985 N   0  0  0  0  0  0
    6.2060   33.2557   60.3263 N   0  0  0  0  0  0
    9.5758   34.3877   60.1523 C   0  0  0  0  0  0
   10.0678   35.1056   58.8903 C   0  0  0  0  0  0
    4.9639   33.3463   61.0897 C   0  0  0  0  0  0
    5.1586   24.4325   62.7430 O   0  0  0  0  0  0
    5.1939   24.8545   61.4507 C   0  0  0  0  0  0
    5.1622   25.5660   63.4950 C   0  0  0  0  0  0
    5.2039   26.7240   62.6775 C   0  0  0  0  0  0
    5.3112   27.9706   63.3198 C   0  0  0  0  0  0
    5.2988   28.0190   64.7172 C   0  0  0  0  0  0
    5.2139   26.8663   65.4907 C   0  0  0  0  0  0
    5.1510   25.6119   64.8944 C   0  0  0  0  0  0
    2.2217   27.7236   61.2105 C   0  0  0  0  0  0
    1.8950   27.8280   62.5107 N   0  0  0  0  0  0
    1.6317   26.9796   60.4253 O   0  0  0  0  0  0
    0.8174   27.0812   63.1688 C   0  0  0  0  0  0
   -0.5488   27.7987   63.1538 C   0  0  0  0  0  0
   -0.9873   28.0198   61.9147 F   0  0  0  0  0  0
   -1.4712   27.0711   63.7838 F   0  0  0  0  0  0
   -0.4789   28.9796   63.7689 F   0  0  0  0  0  0
    3.7057   28.0911   57.8546 H   0  0  0  0  0  0
    5.3503   28.7214   58.0448 H   0  0  0  0  0  0
    3.7796   29.1448   61.5813 H   0  0  0  0  0  0
    2.4499   30.6700   60.3746 H   0  0  0  0  0  0
    1.8206   29.4466   59.3094 H   0  0  0  0  0  0
    3.3034   30.4421   57.8394 H   0  0  0  0  0  0
    4.9169   31.0138   60.2059 H   0  0  0  0  0  0
    8.4052   32.5653   58.0565 H   0  0  0  0  0  0
    9.5378   35.1097   60.9715 H   0  0  0  0  0  0
   10.3108   33.6433   60.4554 H   0  0  0  0  0  0
   11.0624   35.5198   59.0465 H   0  0  0  0  0  0
   10.1060   34.4307   58.0356 H   0  0  0  0  0  0
    9.4000   35.9191   58.6180 H   0  0  0  0  0  0
    4.1055   33.2808   60.4217 H   0  0  0  0  0  0
    4.9043   34.3047   61.6075 H   0  0  0  0  0  0
    4.9339   32.5377   61.8197 H   0  0  0  0  0  0
    5.2149   24.0635   60.7126 H   0  0  0  0  0  0
    5.4162   28.8801   62.7516 H   0  0  0  0  0  0
    5.2936   28.9746   65.2209 H   0  0  0  0  0  0
    5.1954   26.9498   66.5687 H   0  0  0  0  0  0
    5.0960   24.7221   65.4950 H   0  0  0  0  0  0
    2.4293   28.4555   63.0938 H   0  0  0  0  0  0
    0.7103   26.0869   62.7285 H   0  0  0  0  0  0
    1.1157   26.9120   64.2043 H   0  0  0  0  0  0
  1  2  1  0  0  0
  1  5  1  0  0  0
  1 36  1  0  0  0
  1 37  1  0  0  0
  2  3  1  0  0  0
  2  6  1  0  0  0
  3  4  1  0  0  0
  3 28  1  0  0  0
  3 38  1  0  0  0
  4  5  1  0  0  0
  4 39  1  0  0  0
  4 40  1  0  0  0
  5  9  1  0  0  0
  5 41  1  0  0  0
  6  7  1  0  0  0
  6  8  2  0  0  0
  7 23  1  0  0  0
  7 21  2  0  0  0
  9 10  1  0  0  0
  9 42  1  0  0  0
 10 11  1  0  0  0
 10 12  2  0  0  0
 11 13  2  0  0  0
 11 16  1  0  0  0
 13 14  1  0  0  0
 13 43  1  0  0  0
 14 15  2  0  0  0
 14 17  1  0  0  0
 15 16  1  0  0  0
 16 19  1  0  0  0
 17 18  1  0  0  0
 17 44  1  0  0  0
 17 45  1  0  0  0
 18 46  1  0  0  0
 18 47  1  0  0  0
 18 48  1  0  0  0
 19 49  1  0  0  0
 19 50  1  0  0  0
 19 51  1  0  0  0
 20 22  1  0  0  0
 20 21  1  0  0  0
 21 52  1  0  0  0
 22 23  2  0  0  0
 22 27  1  0  0  0
 23 24  1  0  0  0
 24 25  2  0  0  0
 24 53  1  0  0  0
 25 26  1  0  0  0
 25 54  1  0  0  0
 26 27  2  0  0  0
 26 55  1  0  0  0
 27 56  1  0  0  0
 28 29  1  0  0  0
 28 30  2  0  0  0
 29 31  1  0  0  0
 29 57  1  0  0  0
 31 32  1  0  0  0
 31 58  1  0  0  0
 31 59  1  0  0  0
 32 33  1  0  0  0
 32 34  1  0  0  0
 32 35  1  0  0  0
M  END
> <s_m_entry_id>
8322

> <s_m_entry_name>
dock_pv.117

> <s_m_Source_Path>
/home/csk/Desktop/cluster/DUD-E-result/inha

> <s_m_Source_File>
dock_pv.maegz

> <i_m_Source_File_Index>
117

> <chembl_id>
CHEMBL3125281

> <chembl_pref_name>
None

> <i_lp_mmshare_version>
53161

> <r_lp_tautomer_probability>
1

> <s_lp_Force_Field>
OPLS_2005

> <r_lp_Energy>
20.109115

> <b_lp_Chiralities_Consistent>
1

> <s_lp_Variant>
CHEMBL1849_lig161-1

> <s_i_glide_gridfile>
glide-grid_2h7l

> <i_i_glide_lignum>
228

> <i_i_glide_rotatable_bonds>
10

> <r_i_docking_score>
-6.9287520125261

> <r_i_glide_ligand_efficiency>
-0.197964343215031

> <r_i_glide_ligand_efficiency_sa>
-0.647554492941874

> <r_i_glide_ligand_efficiency_ln>
-1.5210148421152

> <r_i_glide_gscore>
-6.9287520125261

> <r_i_glide_lipo>
-2.69024228214208

> <r_i_glide_hbond>
-0.460743964776904

> <r_i_glide_metal>
0

> <r_i_glide_rewards>
-1.33583620898791

> <r_i_glide_evdw>
-47.0312385559082

> <r_i_glide_ecoul>
-5.0976243019104

> <r_i_glide_erotb>
0.674276016462768

> <r_i_glide_esite>
0

> <r_i_glide_emodel>
-65.1989355472198

> <r_i_glide_energy>
-52.1288628578186

> <r_i_glide_einternal>
11.7501764297485

> <i_i_glide_confnum>
20

> <i_i_glide_posenum>
10

> <r_i_glide_eff_state_penalty>
0

> <s_user_duplicate_titles>
CHEMBL1849_lig161

> <i_f3d_flags>
0

> <s_m_subgroup_title>
dock_pv

> <s_m_subgroupid>
dock_pv

> <b_m_subgroup_collapsed>
0

$$$$
CHEMBL1849_lig58
                    3D
 Schrodinger Suite 2021-1.
 53 58  0  0  1  0            999 V2000
    8.1519   33.5553   58.5744 C   0  0  0  0  0  0
    7.5016   32.3992   59.0247 C   0  0  0  0  0  0
    7.9223   31.7903   60.2145 C   0  0  0  0  0  0
    8.9040   32.3356   61.0369 C   0  0  0  0  0  0
    9.5008   33.5220   60.6072 C   0  0  0  0  0  0
    9.1559   34.1385   59.3669 C   0  0  0  0  0  0
   10.0110   35.2803   59.2281 C   0  0  0  0  0  0
   10.7943   35.3517   60.3615 C   0  0  0  0  0  0
   10.4933   34.2935   61.1793 N   0  0  0  0  0  0
    6.3590   31.7951   58.2324 C   0  0  0  0  0  0
    6.5040   31.5220   57.0404 O   0  0  0  0  0  0
    5.1948   31.5293   58.8695 N   0  0  0  0  0  0
    4.8424   31.9947   60.2113 C   0  0  0  0  0  0
    4.6197   30.7281   61.0473 C   0  0  0  0  0  0
    3.5882   29.8526   60.4869 N   0  0  0  0  0  0
    3.8799   29.4801   59.0968 C   0  0  0  0  0  0
    4.1593   30.7221   58.2188 C   0  0  0  0  0  0
    3.2221   28.7299   61.3723 C   0  0  0  0  0  0
    1.9651   28.0234   60.9072 C   0  0  0  0  0  0
    0.7144   28.5539   60.5761 C   0  0  0  0  0  0
   -0.3149   27.7035   60.1707 C   0  0  0  0  0  0
   -0.0980   26.3258   60.1067 C   0  0  0  0  0  0
    1.1510   25.7964   60.4384 C   0  0  0  0  0  0
    2.1868   26.6490   60.8280 C   0  0  0  0  0  0
    4.2227   27.5846   61.4950 C   0  0  0  0  0  0
    5.5657   27.5809   61.8944 C   0  0  0  0  0  0
    6.2790   26.3829   61.9464 C   0  0  0  0  0  0
    5.6497   25.1805   61.6280 C   0  0  0  0  0  0
    4.3039   25.1735   61.2612 C   0  0  0  0  0  0
    3.5928   26.3749   61.1911 C   0  0  0  0  0  0
    7.8813   34.0106   57.6342 H   0  0  0  0  0  0
    7.4691   30.8632   60.5302 H   0  0  0  0  0  0
    9.1852   31.8603   61.9654 H   0  0  0  0  0  0
   10.0486   35.9815   58.4093 H   0  0  0  0  0  0
   11.5555   36.0637   60.6508 H   0  0  0  0  0  0
   10.9560   34.1383   62.0630 H   0  0  0  0  0  0
    5.5823   32.6557   60.6609 H   0  0  0  0  0  0
    3.9210   32.5785   60.1646 H   0  0  0  0  0  0
    4.3362   31.0511   62.0280 H   0  0  0  0  0  0
    5.5515   30.1769   61.1219 H   0  0  0  0  0  0
    3.0558   28.9100   58.6668 H   0  0  0  0  0  0
    4.7631   28.8388   59.1004 H   0  0  0  0  0  0
    3.2705   31.3352   58.1141 H   0  0  0  0  0  0
    4.4493   30.3931   57.2280 H   0  0  0  0  0  0
    3.0238   29.1220   62.3697 H   0  0  0  0  0  0
    0.5406   29.6207   60.6175 H   0  0  0  0  0  0
   -1.2789   28.1139   59.9074 H   0  0  0  0  0  0
   -0.8972   25.6689   59.7960 H   0  0  0  0  0  0
    1.3040   24.7294   60.3824 H   0  0  0  0  0  0
    6.0753   28.4865   62.1802 H   0  0  0  0  0  0
    7.3192   26.3856   62.2386 H   0  0  0  0  0  0
    6.2064   24.2555   61.6678 H   0  0  0  0  0  0
    3.8289   24.2318   61.0353 H   0  0  0  0  0  0
  1  2  2  0  0  0
  1  6  1  0  0  0
  1 31  1  0  0  0
  2  3  1  0  0  0
  2 10  1  0  0  0
  3  4  2  0  0  0
  3 32  1  0  0  0
  4  5  1  0  0  0
  4 33  1  0  0  0
  5  6  2  0  0  0
  5  9  1  0  0  0
  6  7  1  0  0  0
  7  8  2  0  0  0
  7 34  1  0  0  0
  8  9  1  0  0  0
  8 35  1  0  0  0
  9 36  1  0  0  0
 10 11  2  0  0  0
 10 12  1  0  0  0
 12 13  1  0  0  0
 12 17  1  0  0  0
 13 14  1  0  0  0
 13 37  1  0  0  0
 13 38  1  0  0  0
 14 15  1  0  0  0
 14 39  1  0  0  0
 14 40  1  0  0  0
 15 16  1  0  0  0
 15 18  1  0  0  0
 16 17  1  0  0  0
 16 41  1  0  0  0
 16 42  1  0  0  0
 17 43  1  0  0  0
 17 44  1  0  0  0
 18 19  1  0  0  0
 18 25  1  0  0  0
 18 45  1  0  0  0
 19 20  2  0  0  0
 19 24  1  0  0  0
 20 21  1  0  0  0
 20 46  1  0  0  0
 21 22  2  0  0  0
 21 47  1  0  0  0
 22 23  1  0  0  0
 22 48  1  0  0  0
 23 24  2  0  0  0
 23 49  1  0  0  0
 24 30  1  0  0  0
 25 26  2  0  0  0
 25 30  1  0  0  0
 26 27  1  0  0  0
 26 50  1  0  0  0
 27 28  2  0  0  0
 27 51  1  0  0  0
 28 29  1  0  0  0
 28 52  1  0  0  0
 29 30  2  0  0  0
 29 53  1  0  0  0
M  END
> <s_m_entry_id>
8323

> <s_m_entry_name>
dock_pv.118

> <s_m_Source_Path>
/home/csk/Desktop/cluster/DUD-E-result/inha

> <s_m_Source_File>
dock_pv.maegz

> <i_m_Source_File_Index>
118

> <chembl_id>
CHEMBL216579

> <chembl_pref_name>
None

> <i_lp_mmshare_version>
53161

> <r_lp_tautomer_probability>
1

> <s_lp_Force_Field>
OPLS_2005

> <r_lp_Energy>
74.672297

> <b_lp_Chiralities_Consistent>
1

> <s_lp_Variant>
CHEMBL1849_lig58-1

> <s_i_glide_gridfile>
glide-grid_2h7l

> <i_i_glide_lignum>
108

> <i_i_glide_rotatable_bonds>
3

> <r_i_docking_score>
-6.92366772577051

> <r_i_glide_ligand_efficiency>
-0.23078892419235

> <r_i_glide_ligand_efficiency_sa>
-0.717114846451575

> <r_i_glide_ligand_efficiency_ln>
-1.57313274669715

> <r_i_glide_gscore>
-6.92366772577051

> <r_i_glide_lipo>
-2.90956788314393

> <r_i_glide_hbond>
-0.32

> <r_i_glide_metal>
0

> <r_i_glide_rewards>
-1.39025143762712

> <r_i_glide_evdw>
-37.5133743286133

> <r_i_glide_ecoul>
-5.37803077697754

> <r_i_glide_erotb>
0.378524927977832

> <r_i_glide_esite>
0

> <r_i_glide_emodel>
-56.7389404431489

> <r_i_glide_energy>
-42.8914051055908

> <r_i_glide_einternal>
5.42657613754272

> <i_i_glide_confnum>
5

> <i_i_glide_posenum>
347

> <r_i_glide_eff_state_penalty>
0

> <s_user_duplicate_titles>
CHEMBL1849_lig58,360437

> <i_f3d_flags>
0

> <s_m_subgroup_title>
dock_pv

> <s_m_subgroupid>
dock_pv

> <b_m_subgroup_collapsed>
0

$$$$
CHEMBL1849_lig7 
                    3D
 Schrodinger Suite 2021-1.
 21 21  0  0  1  0            999 V2000
   13.5843   33.3700   62.8299 C   0  0  0  0  0  0
   12.8640   32.2391   63.2152 C   0  0  0  0  0  0
   11.5282   32.1094   62.8316 C   0  0  0  0  0  0
   10.9064   33.1225   62.1014 C   0  0  0  0  0  0
   11.6113   34.2804   61.7525 C   0  0  0  0  0  0
   12.9607   34.3875   62.1058 C   0  0  0  0  0  0
   10.9054   35.4413   61.0554 C   0  0  0  0  0  0
   10.5835   35.2043   59.5615 C   0  0  0  0  0  0
    9.3043   34.4065   59.2837 C   0  0  0  0  0  0
    9.3023   33.8950   58.0246 O   0  0  0  0  0  0
    8.3785   34.2906   60.0794 O   0  0  0  0  0  0
   15.2416   33.5212   63.2772 Cl  0  0  0  0  0  0
   13.3430   31.4583   63.7881 H   0  0  0  0  0  0
   10.9676   31.2320   63.1189 H   0  0  0  0  0  0
    9.8622   33.0208   61.8452 H   0  0  0  0  0  0
   13.5243   35.2699   61.8412 H   0  0  0  0  0  0
   11.5328   36.3296   61.1432 H   0  0  0  0  0  0
   10.0037   35.6921   61.6165 H   0  0  0  0  0  0
   11.4368   34.7242   59.0836 H   0  0  0  0  0  0
   10.4628   36.1702   59.0716 H   0  0  0  0  0  0
   10.1646   33.9238   57.5866 H   0  0  0  0  0  0
  1  2  2  0  0  0
  1  6  1  0  0  0
  1 12  1  0  0  0
  2  3  1  0  0  0
  2 13  1  0  0  0
  3  4  2  0  0  0
  3 14  1  0  0  0
  4  5  1  0  0  0
  4 15  1  0  0  0
  5  6  2  0  0  0
  5  7  1  0  0  0
  6 16  1  0  0  0
  7  8  1  0  0  0
  7 17  1  0  0  0
  7 18  1  0  0  0
  8  9  1  0  0  0
  8 19  1  0  0  0
  8 20  1  0  0  0
  9 10  1  0  0  0
  9 11  2  0  0  0
 10 21  1  0  0  0
M  END
> <s_m_entry_id>
8324

> <s_m_entry_name>
dock_pv.119

> <s_m_Source_Path>
/home/csk/Desktop/cluster/DUD-E-result/inha

> <s_m_Source_File>
dock_pv.maegz

> <i_m_Source_File_Index>
119

> <chembl_id>
CHEMBL4450225

> <chembl_pref_name>
None

> <i_lp_mmshare_version>
53161

> <r_lp_tautomer_probability>
1

> <s_lp_Force_Field>
OPLS_2005

> <r_lp_Energy>
5.31596

> <b_lp_Chiralities_Consistent>
1

> <s_lp_Variant>
CHEMBL1849_lig7 -1

> <s_i_glide_gridfile>
glide-grid_2h7l

> <i_i_glide_lignum>
7

> <i_i_glide_rotatable_bonds>
4

> <r_i_docking_score>
-6.91772218080545

> <r_i_glide_ligand_efficiency>
-0.576476848400455

> <r_i_glide_ligand_efficiency_sa>
-1.31980251663932

> <r_i_glide_ligand_efficiency_ln>
-1.98505236323225

> <r_i_glide_gscore>
-6.91772218080545

> <r_i_glide_lipo>
-2.5738174156215

> <r_i_glide_hbond>
0

> <r_i_glide_metal>
0

> <r_i_glide_rewards>
-3.28157970521877

> <r_i_glide_evdw>
-24.6135768890381

> <r_i_glide_ecoul>
-5.09439325332642

> <r_i_glide_erotb>
0.932512772485691

> <r_i_glide_esite>
0

> <r_i_glide_emodel>
-42.2199777455073

> <r_i_glide_energy>
-29.7079701423645

> <r_i_glide_einternal>
0.909448683261871

> <i_i_glide_confnum>
5

> <i_i_glide_posenum>
197

> <r_i_glide_eff_state_penalty>
0

> <s_user_duplicate_titles>
CHEMBL1849_lig7 

> <i_f3d_flags>
0

> <s_m_subgroup_title>
dock_pv

> <s_m_subgroupid>
dock_pv

> <b_m_subgroup_collapsed>
0

$$$$
CHEMBL1849_lig180
                    3D
 Schrodinger Suite 2021-1.
 34 36  0  0  1  0            999 V2000
   11.4110   33.1585   62.2318 C   0  0  0  0  0  0
   11.5043   34.3851   61.5684 C   0  0  0  0  0  0
   10.5095   34.7733   60.6698 C   0  0  0  0  0  0
   10.3080   32.3260   62.0282 C   0  0  0  0  0  0
    9.3238   32.7117   61.1086 C   0  0  0  0  0  0
    9.4286   33.9287   60.4274 C   0  0  0  0  0  0
    8.4952   34.3115   59.4598 N   0  0  0  0  0  0
    7.5200   33.5227   59.1958 C   0  0  0  0  0  0
    7.3092   32.3138   59.8270 N   0  0  0  0  0  0
    8.1016   31.8517   60.8581 C   0  0  0  0  0  0
    7.8401   30.8499   61.5294 O   0  0  0  0  0  0
    6.1387   31.4758   59.4350 C   0  0  0  0  0  0
    6.3307   30.8452   58.0339 C   0  0  0  0  0  0
    6.7144   29.5650   57.8997 N   0  0  0  0  0  0
    6.1039   31.5216   57.0327 O   0  0  0  0  0  0
    7.0790   28.6117   58.9497 C   0  0  0  0  0  0
   12.6925   32.6490   63.2660 Cl  0  0  0  0  0  0
    5.9130   27.8818   59.6079 C   0  0  0  0  0  0
    5.9852   26.7879   60.4722 C   0  0  0  0  0  0
    4.7535   26.3212   60.9386 C   0  0  0  0  0  0
    3.6909   27.0524   60.4424 C   0  0  0  0  0  0
    4.2269   28.3115   59.3865 S   0  0  0  0  0  0
   12.3590   35.0257   61.7310 H   0  0  0  0  0  0
   10.5888   35.7127   60.1430 H   0  0  0  0  0  0
   10.2377   31.3913   62.5673 H   0  0  0  0  0  0
    6.8056   33.8028   58.4303 H   0  0  0  0  0  0
    5.2222   32.0671   59.4334 H   0  0  0  0  0  0
    5.9254   30.6843   60.1546 H   0  0  0  0  0  0
    6.7988   29.2271   56.9529 H   0  0  0  0  0  0
    7.7013   29.0976   59.6994 H   0  0  0  0  0  0
    7.7409   27.8791   58.4842 H   0  0  0  0  0  0
    6.9242   26.3328   60.7557 H   0  0  0  0  0  0
    4.6454   25.4842   61.6127 H   0  0  0  0  0  0
    2.6367   26.9126   60.6363 H   0  0  0  0  0  0
  1  2  2  0  0  0
  1  4  1  0  0  0
  1 17  1  0  0  0
  2  3  1  0  0  0
  2 23  1  0  0  0
  3  6  2  0  0  0
  3 24  1  0  0  0
  4  5  2  0  0  0
  4 25  1  0  0  0
  5  6  1  0  0  0
  5 10  1  0  0  0
  6  7  1  0  0  0
  7  8  2  0  0  0
  8  9  1  0  0  0
  8 26  1  0  0  0
  9 10  1  0  0  0
  9 12  1  0  0  0
 10 11  2  0  0  0
 12 13  1  0  0  0
 12 27  1  0  0  0
 12 28  1  0  0  0
 13 14  1  0  0  0
 13 15  2  0  0  0
 14 16  1  0  0  0
 14 29  1  0  0  0
 16 18  1  0  0  0
 16 30  1  0  0  0
 16 31  1  0  0  0
 18 19  2  0  0  0
 18 22  1  0  0  0
 19 20  1  0  0  0
 19 32  1  0  0  0
 20 21  2  0  0  0
 20 33  1  0  0  0
 21 22  1  0  0  0
 21 34  1  0  0  0
M  END
> <s_m_entry_id>
8325

> <s_m_entry_name>
dock_pv.120

> <s_m_Source_Path>
/home/csk/Desktop/cluster/DUD-E-result/inha

> <s_m_Source_File>
dock_pv.maegz

> <i_m_Source_File_Index>
120

> <chembl_id>
CHEMBL3331276

> <chembl_pref_name>
None

> <i_lp_mmshare_version>
53161

> <r_lp_tautomer_probability>
1

> <s_lp_Force_Field>
OPLS_2005

> <r_lp_Energy>
11.730115

> <b_lp_Chiralities_Consistent>
1

> <s_lp_Variant>
CHEMBL1849_lig180-1

> <s_i_glide_gridfile>
glide-grid_2h7l

> <i_i_glide_lignum>
247

> <i_i_glide_rotatable_bonds>
5

> <r_i_docking_score>
-6.88325062431134

> <r_i_glide_ligand_efficiency>
-0.312875028377788

> <r_i_glide_ligand_efficiency_sa>
-0.876688134191189

> <r_i_glide_ligand_efficiency_ln>
-1.68251752524859

> <r_i_glide_gscore>
-6.88325062431134

> <r_i_glide_lipo>
-3.04812639230908

> <r_i_glide_hbond>
-0.317554954695594

> <r_i_glide_metal>
0

> <r_i_glide_rewards>
-1.42337354071179

> <r_i_glide_evdw>
-38.3651390075684

> <r_i_glide_ecoul>
-4.55696487426758

> <r_i_glide_erotb>
0.507605944923682

> <r_i_glide_esite>
0

> <r_i_glide_emodel>
-51.9191487493186

> <r_i_glide_energy>
-42.9221038818359

> <r_i_glide_einternal>
7.71753358840942

> <i_i_glide_confnum>
3

> <i_i_glide_posenum>
327

> <r_i_glide_eff_state_penalty>
0

> <s_user_duplicate_titles>
CHEMBL1849_lig180

> <i_f3d_flags>
0

> <s_m_subgroup_title>
dock_pv

> <s_m_subgroupid>
dock_pv

> <b_m_subgroup_collapsed>
0

$$$$
CHEMBL1849_lig55
                    3D
 Schrodinger Suite 2021-1.
 51 54  0  0  1  0            999 V2000
   10.9041   32.7304   61.9293 C   0  0  0  0  0  0
   11.5426   33.9585   61.7814 C   0  0  0  0  0  0
   10.9785   34.9551   60.9902 C   0  0  0  0  0  0
    9.7484   34.7315   60.3767 C   0  0  0  0  0  0
    9.0639   33.5200   60.5465 C   0  0  0  0  0  0
    9.6990   32.5005   61.2726 C   0  0  0  0  0  0
    7.6867   33.3636   59.9200 C   0  0  0  0  0  0
    6.6755   32.7013   60.5646 N   0  0  0  0  0  0
    7.4989   33.9142   58.8301 O   0  0  0  0  0  0
    6.7685   31.9227   61.8105 C   0  0  0  0  0  0
    6.6200   30.4435   61.3969 C   0  0  0  0  0  0
    5.2434   30.2235   60.9232 N   0  0  0  0  0  0
    5.0124   31.0864   59.7355 C   0  0  0  0  0  0
    5.3388   32.5896   59.9466 C   0  0  0  0  0  0
    4.9177   28.8068   60.6158 C   0  0  0  0  0  0
    5.1767   27.7603   61.7247 C   0  0  0  0  0  0
    5.2077   26.4107   61.3470 C   0  0  0  0  0  0
    5.2745   25.4068   62.3084 C   0  0  0  0  0  0
    5.3149   25.7460   63.6591 C   0  0  0  0  0  0
    5.3487   27.0817   64.0491 C   0  0  0  0  0  0
    5.2858   28.0851   63.0853 C   0  0  0  0  0  0
    3.1476   28.4249   58.8293 C   0  0  0  0  0  0
    3.4500   28.6828   60.1688 C   0  0  0  0  0  0
    2.4110   28.8453   61.0953 C   0  0  0  0  0  0
    1.0852   28.7243   60.6890 C   0  0  0  0  0  0
    0.7950   28.4582   59.3552 C   0  0  0  0  0  0
    1.8211   28.3216   58.4236 C   0  0  0  0  0  0
    5.3042   24.7696   64.5953 F   0  0  0  0  0  0
   -0.4914   28.3248   58.9642 F   0  0  0  0  0  0
   11.3602   31.9500   62.5182 H   0  0  0  0  0  0
   12.4891   34.1365   62.2703 H   0  0  0  0  0  0
   11.4856   35.9022   60.8598 H   0  0  0  0  0  0
    9.3171   35.5280   59.7867 H   0  0  0  0  0  0
    9.2600   31.5220   61.3667 H   0  0  0  0  0  0
    7.6453   32.1411   62.4066 H   0  0  0  0  0  0
    5.9572   32.1979   62.4842 H   0  0  0  0  0  0
    6.8831   29.8272   62.2522 H   0  0  0  0  0  0
    7.3466   30.1782   60.6246 H   0  0  0  0  0  0
    3.9735   31.0209   59.4063 H   0  0  0  0  0  0
    5.6421   30.7021   58.9301 H   0  0  0  0  0  0
    4.6044   33.0199   60.6285 H   0  0  0  0  0  0
    5.2399   33.1307   59.0045 H   0  0  0  0  0  0
    5.5644   28.5205   59.7831 H   0  0  0  0  0  0
    5.1326   26.1339   60.3037 H   0  0  0  0  0  0
    5.2659   24.3688   62.0124 H   0  0  0  0  0  0
    5.3992   27.3377   65.0976 H   0  0  0  0  0  0
    5.2931   29.1115   63.4146 H   0  0  0  0  0  0
    3.9324   28.3246   58.0953 H   0  0  0  0  0  0
    2.6378   29.0665   62.1279 H   0  0  0  0  0  0
    0.2856   28.8472   61.4009 H   0  0  0  0  0  0
    1.5893   28.1352   57.3873 H   0  0  0  0  0  0
  1  6  1  0  0  0
  1  2  2  0  0  0
  1 30  1  0  0  0
  2  3  1  0  0  0
  2 31  1  0  0  0
  3  4  2  0  0  0
  3 32  1  0  0  0
  4  5  1  0  0  0
  4 33  1  0  0  0
  5  7  1  0  0  0
  5  6  2  0  0  0
  6 34  1  0  0  0
  7  8  1  0  0  0
  7  9  2  0  0  0
  8 10  1  0  0  0
  8 14  1  0  0  0
 10 11  1  0  0  0
 10 35  1  0  0  0
 10 36  1  0  0  0
 11 12  1  0  0  0
 11 37  1  0  0  0
 11 38  1  0  0  0
 12 15  1  0  0  0
 12 13  1  0  0  0
 13 14  1  0  0  0
 13 39  1  0  0  0
 13 40  1  0  0  0
 14 41  1  0  0  0
 14 42  1  0  0  0
 15 23  1  0  0  0
 15 16  1  0  0  0
 15 43  1  0  0  0
 16 17  2  0  0  0
 16 21  1  0  0  0
 17 18  1  0  0  0
 17 44  1  0  0  0
 18 19  2  0  0  0
 18 45  1  0  0  0
 19 20  1  0  0  0
 19 28  1  0  0  0
 20 21  2  0  0  0
 20 46  1  0  0  0
 21 47  1  0  0  0
 22 23  2  0  0  0
 22 27  1  0  0  0
 22 48  1  0  0  0
 23 24  1  0  0  0
 24 25  2  0  0  0
 24 49  1  0  0  0
 25 26  1  0  0  0
 25 50  1  0  0  0
 26 27  2  0  0  0
 26 29  1  0  0  0
 27 51  1  0  0  0
M  END
> <s_m_entry_id>
8326

> <s_m_entry_name>
dock_pv.121

> <s_m_Source_Path>
/home/csk/Desktop/cluster/DUD-E-result/inha

> <s_m_Source_File>
dock_pv.maegz

> <i_m_Source_File_Index>
121

> <chembl_id>
CHEMBL240957

> <chembl_pref_name>
None

> <i_lp_mmshare_version>
53161

> <r_lp_tautomer_probability>
1

> <s_lp_Force_Field>
OPLS_2005

> <r_lp_Energy>
55.544376

> <b_lp_Chiralities_Consistent>
1

> <s_lp_Variant>
CHEMBL1849_lig55-1

> <s_i_glide_gridfile>
glide-grid_2h7l

> <i_i_glide_lignum>
105

> <i_i_glide_rotatable_bonds>
5

> <r_i_docking_score>
-6.88032954147552

> <r_i_glide_ligand_efficiency>
-0.237252742809501

> <r_i_glide_ligand_efficiency_sa>
-0.728915592855588

> <r_i_glide_ligand_efficiency_ln>
-1.57542099489441

> <r_i_glide_gscore>
-6.88032954147552

> <r_i_glide_lipo>
-3.19220812539577

> <r_i_glide_hbond>
0

> <r_i_glide_metal>
0

> <r_i_glide_rewards>
-2.05354200199844

> <r_i_glide_evdw>
-40.0544548034668

> <r_i_glide_ecoul>
-1.56601369380951

> <r_i_glide_erotb>
0.633880423532947

> <r_i_glide_esite>
-0.0308350433694889

> <r_i_glide_emodel>
-52.5003045165412

> <r_i_glide_energy>
-41.6204684972763

> <r_i_glide_einternal>
11.9865493774414

> <i_i_glide_confnum>
124

> <i_i_glide_posenum>
227

> <r_i_glide_eff_state_penalty>
0

> <s_user_duplicate_titles>
CHEMBL1849_lig55

> <i_f3d_flags>
0

> <s_m_subgroup_title>
dock_pv

> <s_m_subgroupid>
dock_pv

> <b_m_subgroup_collapsed>
0

$$$$
CHEMBL1849_lig159
                    3D
 Schrodinger Suite 2021-1.
 63 66  0  0  1  0            999 V2000
    4.8028   28.0747   59.3380 C   0  0  0  0  0  0
    3.8892   28.2042   60.4836 N   0  0  0  0  0  0
    2.7710   29.0990   60.0851 C   0  0  1  0  0  0
    3.2631   29.8561   58.8313 C   0  0  0  0  0  0
    4.7106   29.4334   58.6482 C   0  0  1  0  0  0
    4.3205   27.8428   61.7315 C   0  0  0  0  0  0
    3.4669   27.9211   62.9103 C   0  0  0  0  0  0
    5.4503   27.3767   61.9021 O   0  0  0  0  0  0
    5.6191   30.4335   59.2011 N   0  0  0  0  0  0
    6.9027   30.5524   58.8286 C   0  0  0  0  0  0
    7.5707   31.7027   59.3588 C   0  0  0  0  0  0
    7.4566   29.8041   58.0282 O   0  0  0  0  0  0
    8.4241   32.5825   58.7092 C   0  0  0  0  0  0
    8.8272   33.5287   59.6546 C   0  0  0  0  0  0
    8.2957   33.2555   60.8273 N   0  0  0  0  0  0
    7.5668   32.1436   60.6653 N   0  0  0  0  0  0
    9.7449   34.7224   59.4425 C   0  0  0  0  0  0
   10.4669   35.2187   60.7086 C   0  0  0  0  0  0
    6.8751   31.5879   61.8258 C   0  0  0  0  0  0
    1.6242   28.2411   64.2744 O   0  0  0  0  0  0
    2.1198   28.2946   63.0097 C   0  0  0  0  0  0
    2.6433   27.7980   65.0492 C   0  0  0  0  0  0
    3.8083   27.5790   64.2757 C   0  0  0  0  0  0
    4.9581   27.1114   64.9438 C   0  0  0  0  0  0
    4.8980   26.8734   66.3212 C   0  0  0  0  0  0
    3.7258   27.0965   67.0480 C   0  0  0  0  0  0
    2.5720   27.5718   66.4278 C   0  0  0  0  0  0
    1.4589   28.3410   59.7773 C   0  0  0  0  0  0
    0.3524   29.1009   59.6778 N   0  0  0  0  0  0
    1.4437   27.1117   59.6854 O   0  0  0  0  0  0
   -1.0032   28.5427   59.6032 C   0  0  0  0  0  0
   -1.6810   28.4812   60.9842 C   0  0  0  0  0  0
   -0.9443   27.6330   61.8571 O   0  0  0  0  0  0
   -1.4437   27.5996   63.1834 C   0  0  0  0  0  0
    4.3726   27.3355   58.6636 H   0  0  0  0  0  0
    5.8311   27.7835   59.5607 H   0  0  0  0  0  0
    2.5301   29.7951   60.8884 H   0  0  0  0  0  0
    3.1274   30.9378   58.8862 H   0  0  0  0  0  0
    2.7350   29.5144   57.9375 H   0  0  0  0  0  0
    4.9049   29.3480   57.5813 H   0  0  0  0  0  0
    5.3085   30.9209   60.0273 H   0  0  0  0  0  0
    8.7173   32.5600   57.6684 H   0  0  0  0  0  0
   10.5036   34.4779   58.6993 H   0  0  0  0  0  0
    9.1798   35.5426   59.0061 H   0  0  0  0  0  0
   11.1061   36.0742   60.4850 H   0  0  0  0  0  0
    9.7551   35.5275   61.4749 H   0  0  0  0  0  0
   11.0937   34.4355   61.1370 H   0  0  0  0  0  0
    5.8344   31.9108   61.8156 H   0  0  0  0  0  0
    7.3440   31.9213   62.7531 H   0  0  0  0  0  0
    6.9213   30.4985   61.7933 H   0  0  0  0  0  0
    1.3689   28.6220   62.3138 H   0  0  0  0  0  0
    5.8736   26.9312   64.3989 H   0  0  0  0  0  0
    5.7762   26.5047   66.8316 H   0  0  0  0  0  0
    3.7042   26.8927   68.1112 H   0  0  0  0  0  0
    1.6620   27.7507   66.9814 H   0  0  0  0  0  0
    0.4583   30.1174   59.6292 H   0  0  0  0  0  0
   -1.6097   29.1217   58.9105 H   0  0  0  0  0  0
   -0.9889   27.5378   59.1761 H   0  0  0  0  0  0
   -1.7509   29.4877   61.4012 H   0  0  0  0  0  0
   -2.6925   28.0947   60.8742 H   0  0  0  0  0  0
   -0.8337   26.9240   63.7812 H   0  0  0  0  0  0
   -1.4023   28.5852   63.6493 H   0  0  0  0  0  0
   -2.4714   27.2372   63.2147 H   0  0  0  0  0  0
  1  2  1  0  0  0
  1  5  1  0  0  0
  1 35  1  0  0  0
  1 36  1  0  0  0
  2  3  1  0  0  0
  2  6  1  0  0  0
  3  4  1  0  0  0
  3 28  1  0  0  0
  3 37  1  0  0  0
  4  5  1  0  0  0
  4 38  1  0  0  0
  4 39  1  0  0  0
  5  9  1  0  0  0
  5 40  1  0  0  0
  6  7  1  0  0  0
  6  8  2  0  0  0
  7 23  1  0  0  0
  7 21  2  0  0  0
  9 10  1  0  0  0
  9 41  1  0  0  0
 10 11  1  0  0  0
 10 12  2  0  0  0
 11 13  2  0  0  0
 11 16  1  0  0  0
 13 14  1  0  0  0
 13 42  1  0  0  0
 14 15  2  0  0  0
 14 17  1  0  0  0
 15 16  1  0  0  0
 16 19  1  0  0  0
 17 18  1  0  0  0
 17 43  1  0  0  0
 17 44  1  0  0  0
 18 45  1  0  0  0
 18 46  1  0  0  0
 18 47  1  0  0  0
 19 48  1  0  0  0
 19 49  1  0  0  0
 19 50  1  0  0  0
 20 22  1  0  0  0
 20 21  1  0  0  0
 21 51  1  0  0  0
 22 23  2  0  0  0
 22 27  1  0  0  0
 23 24  1  0  0  0
 24 25  2  0  0  0
 24 52  1  0  0  0
 25 26  1  0  0  0
 25 53  1  0  0  0
 26 27  2  0  0  0
 26 54  1  0  0  0
 27 55  1  0  0  0
 28 29  1  0  0  0
 28 30  2  0  0  0
 29 31  1  0  0  0
 29 56  1  0  0  0
 31 32  1  0  0  0
 31 57  1  0  0  0
 31 58  1  0  0  0
 32 33  1  0  0  0
 32 59  1  0  0  0
 32 60  1  0  0  0
 33 34  1  0  0  0
 34 61  1  0  0  0
 34 62  1  0  0  0
 34 63  1  0  0  0
M  END
> <s_m_entry_id>
8327

> <s_m_entry_name>
dock_pv.122

> <s_m_Source_Path>
/home/csk/Desktop/cluster/DUD-E-result/inha

> <s_m_Source_File>
dock_pv.maegz

> <i_m_Source_File_Index>
122

> <chembl_id>
CHEMBL3125283

> <chembl_pref_name>
None

> <i_lp_mmshare_version>
53161

> <r_lp_tautomer_probability>
1

> <s_lp_Force_Field>
OPLS_2005

> <r_lp_Energy>
22.547551

> <b_lp_Chiralities_Consistent>
1

> <s_lp_Variant>
CHEMBL1849_lig159-1

> <s_i_glide_gridfile>
glide-grid_2h7l

> <i_i_glide_lignum>
226

> <i_i_glide_rotatable_bonds>
11

> <r_i_docking_score>
-6.87905863232587

> <r_i_glide_ligand_efficiency>
-0.202325253891937

> <r_i_glide_ligand_efficiency_sa>
-0.655455279434326

> <r_i_glide_ligand_efficiency_ln>
-1.51977700293973

> <r_i_glide_gscore>
-6.87905863232587

> <r_i_glide_lipo>
-3.43569906195194

> <r_i_glide_hbond>
-0.16

> <r_i_glide_metal>
0

> <r_i_glide_rewards>
-1.03293402410943

> <r_i_glide_evdw>
-45.3149566650391

> <r_i_glide_ecoul>
-4.60741138458252

> <r_i_glide_erotb>
0.831058053084118

> <r_i_glide_esite>
-0.124624058409292

> <r_i_glide_emodel>
-62.172293744725

> <r_i_glide_energy>
-49.9223680496216

> <r_i_glide_einternal>
19.9290218353271

> <i_i_glide_confnum>
20

> <i_i_glide_posenum>
200

> <r_i_glide_eff_state_penalty>
0

> <s_user_duplicate_titles>
CHEMBL1849_lig159

> <i_f3d_flags>
0

> <s_m_subgroup_title>
dock_pv

> <s_m_subgroupid>
dock_pv

> <b_m_subgroup_collapsed>
0

$$$$
CHEMBL1849_lig133
                    3D
 Schrodinger Suite 2021-1.
 62 66  0  0  1  0            999 V2000
    6.7341   28.5154   59.8963 C   0  0  0  0  0  0
    5.5546   28.5779   60.7824 N   0  0  0  0  0  0
    4.5124   29.4382   60.1567 C   0  0  1  0  0  0
    5.1948   30.1015   58.9414 C   0  0  0  0  0  0
    6.6851   29.7956   59.0637 C   0  0  1  0  0  0
    5.6393   27.9901   62.0212 C   0  0  0  0  0  0
    4.5272   27.9137   62.9671 C   0  0  0  0  0  0
    6.6902   27.4604   62.3893 O   0  0  0  0  0  0
    7.4938   30.8911   59.6171 N   0  0  0  0  0  0
    7.6003   32.0935   59.0206 C   0  0  0  0  0  0
    8.5846   32.9853   59.5845 C   0  0  0  0  0  0
    6.9452   32.4049   58.0290 O   0  0  0  0  0  0
    9.2106   32.9871   60.8281 C   0  0  0  0  0  0
   10.1086   34.0647   60.8289 C   0  0  0  0  0  0
   10.0272   34.7365   59.7101 N   0  0  0  0  0  0
    9.1104   34.1099   58.9727 N   0  0  0  0  0  0
   11.0753   34.5256   61.8984 C   0  0  0  0  0  0
   12.5450   34.5270   61.4578 C   0  0  0  0  0  0
    8.9041   34.6077   57.6279 C   0  0  0  0  0  0
    2.4197   28.0929   63.9198 O   0  0  0  0  0  0
    3.1947   28.3215   62.8270 C   0  0  0  0  0  0
    3.2332   27.5009   64.8245 C   0  0  0  0  0  0
    4.5391   27.3464   64.3014 C   0  0  0  0  0  0
    5.4964   26.7257   65.1268 C   0  0  0  0  0  0
    5.1306   26.2998   66.4068 C   0  0  0  0  0  0
    3.8332   26.4795   66.8865 C   0  0  0  0  0  0
    2.8515   27.0857   66.1046 C   0  0  0  0  0  0
    3.2679   28.6770   59.6625 C   0  0  0  0  0  0
    2.1044   29.3473   59.6522 N   0  0  0  0  0  0
    3.3734   27.5220   59.2707 O   0  0  0  0  0  0
    0.8028   28.7586   59.3415 C   0  0  0  0  0  0
    0.0970   28.3415   60.6146 C   0  0  0  0  0  0
   -0.6977   29.4647   61.6803 S   0  0  0  0  0  0
   -1.0914   28.1392   62.7279 C   0  0  0  0  0  0
   -0.5818   26.9708   62.1755 C   0  0  0  0  0  0
    0.0562   27.0972   61.0301 N   0  0  0  0  0  0
    6.5981   27.6670   59.2246 H   0  0  0  0  0  0
    7.6973   28.4246   60.4017 H   0  0  0  0  0  0
    4.1533   30.1795   60.8722 H   0  0  0  0  0  0
    4.8888   29.6293   58.0037 H   0  0  0  0  0  0
    4.9337   31.1543   58.8369 H   0  0  0  0  0  0
    7.0967   29.5819   58.0728 H   0  0  0  0  0  0
    8.2161   30.6310   60.2709 H   0  0  0  0  0  0
    9.0615   32.2823   61.6326 H   0  0  0  0  0  0
   10.8231   35.5530   62.1598 H   0  0  0  0  0  0
   10.9712   33.9195   62.7996 H   0  0  0  0  0  0
   13.1662   35.0749   62.1662 H   0  0  0  0  0  0
   12.9484   33.5220   61.3871 H   0  0  0  0  0  0
   12.6594   34.9953   60.4826 H   0  0  0  0  0  0
    9.3033   33.8914   56.9119 H   0  0  0  0  0  0
    7.8393   34.7218   57.4806 H   0  0  0  0  0  0
    9.3847   35.5748   57.4842 H   0  0  0  0  0  0
    2.6237   28.8244   62.0723 H   0  0  0  0  0  0
    6.5035   26.5754   64.7744 H   0  0  0  0  0  0
    5.8670   25.8209   67.0369 H   0  0  0  0  0  0
    3.5812   26.1374   67.8801 H   0  0  0  0  0  0
    1.8420   27.2247   66.4634 H   0  0  0  0  0  0
    2.0848   30.3475   59.8251 H   0  0  0  0  0  0
    0.8906   27.9371   58.6263 H   0  0  0  0  0  0
    0.2146   29.5216   58.8340 H   0  0  0  0  0  0
   -1.6389   28.2831   63.6475 H   0  0  0  0  0  0
   -0.6671   25.9881   62.6159 H   0  0  0  0  0  0
  1  2  1  0  0  0
  1  5  1  0  0  0
  1 37  1  0  0  0
  1 38  1  0  0  0
  2  3  1  0  0  0
  2  6  1  0  0  0
  3  4  1  0  0  0
  3 28  1  0  0  0
  3 39  1  0  0  0
  4  5  1  0  0  0
  4 40  1  0  0  0
  4 41  1  0  0  0
  5  9  1  0  0  0
  5 42  1  0  0  0
  6  7  1  0  0  0
  6  8  2  0  0  0
  7 23  1  0  0  0
  7 21  2  0  0  0
  9 10  1  0  0  0
  9 43  1  0  0  0
 10 11  1  0  0  0
 10 12  2  0  0  0
 11 13  2  0  0  0
 11 16  1  0  0  0
 13 14  1  0  0  0
 13 44  1  0  0  0
 14 15  2  0  0  0
 14 17  1  0  0  0
 15 16  1  0  0  0
 16 19  1  0  0  0
 17 18  1  0  0  0
 17 45  1  0  0  0
 17 46  1  0  0  0
 18 47  1  0  0  0
 18 48  1  0  0  0
 18 49  1  0  0  0
 19 50  1  0  0  0
 19 51  1  0  0  0
 19 52  1  0  0  0
 20 22  1  0  0  0
 20 21  1  0  0  0
 21 53  1  0  0  0
 22 23  2  0  0  0
 22 27  1  0  0  0
 23 24  1  0  0  0
 24 25  2  0  0  0
 24 54  1  0  0  0
 25 26  1  0  0  0
 25 55  1  0  0  0
 26 27  2  0  0  0
 26 56  1  0  0  0
 27 57  1  0  0  0
 28 29  1  0  0  0
 28 30  2  0  0  0
 29 31  1  0  0  0
 29 58  1  0  0  0
 31 32  1  0  0  0
 31 59  1  0  0  0
 31 60  1  0  0  0
 32 33  1  0  0  0
 32 36  2  0  0  0
 33 34  1  0  0  0
 34 35  2  0  0  0
 34 61  1  0  0  0
 35 36  1  0  0  0
 35 62  1  0  0  0
M  END
> <s_m_entry_id>
8328

> <s_m_entry_name>
dock_pv.123

> <s_m_Source_Path>
/home/csk/Desktop/cluster/DUD-E-result/inha

> <s_m_Source_File>
dock_pv.maegz

> <i_m_Source_File_Index>
123

> <chembl_id>
CHEMBL3125258

> <chembl_pref_name>
None

> <i_lp_mmshare_version>
53161

> <r_lp_tautomer_probability>
1

> <s_lp_Force_Field>
OPLS_2005

> <r_lp_Energy>
19.526744

> <b_lp_Chiralities_Consistent>
1

> <s_lp_Variant>
CHEMBL1849_lig133-1

> <s_i_glide_gridfile>
glide-grid_2h7l

> <i_i_glide_lignum>
195

> <i_i_glide_rotatable_bonds>
10

> <r_i_docking_score>
-6.87281500686104

> <r_i_glide_ligand_efficiency>
-0.190911527968362

> <r_i_glide_ligand_efficiency_sa>
-0.630375975573856

> <r_i_glide_ligand_efficiency_ln>
-1.49946255249379

> <r_i_glide_gscore>
-6.87281500686104

> <r_i_glide_lipo>
-3.06615052899532

> <r_i_glide_hbond>
-0.133667984434962

> <r_i_glide_metal>
0

> <r_i_glide_rewards>
-1.36849266909428

> <r_i_glide_evdw>
-44.2512550354004

> <r_i_glide_ecoul>
-4.28996467590332

> <r_i_glide_erotb>
0.637857256452192

> <r_i_glide_esite>
-0.0863036276331519

> <r_i_glide_emodel>
-56.788001439607

> <r_i_glide_energy>
-48.5412197113037

> <r_i_glide_einternal>
21.0125102996826

> <i_i_glide_confnum>
23

> <i_i_glide_posenum>
67

> <r_i_glide_eff_state_penalty>
0

> <s_user_duplicate_titles>
CHEMBL1849_lig133

> <i_f3d_flags>
0

> <s_m_subgroup_title>
dock_pv

> <s_m_subgroupid>
dock_pv

> <b_m_subgroup_collapsed>
0

$$$$
CHEMBL1849_lig218
                    3D
 Schrodinger Suite 2021-1.
 48 49  0  0  1  0            999 V2000
    7.2316   33.9219   60.2393 C   0  0  0  0  0  0
    8.4089   33.6479   59.5366 C   0  0  0  0  0  0
    8.4122   32.6156   58.5933 C   0  0  0  0  0  0
    7.2587   31.8673   58.3625 C   0  0  0  0  0  0
    6.0773   32.1609   59.0476 C   0  0  0  0  0  0
    6.0645   33.1979   59.9871 C   0  0  0  0  0  0
    4.9171   31.4765   58.7586 O   0  0  0  0  0  0
    4.7371   30.1572   59.1254 C   0  0  0  0  0  0
    5.7503   29.4714   59.7252 N   0  0  0  0  0  0
    5.4878   28.1942   60.0979 C   0  0  0  0  0  0
    4.2337   27.6051   59.8724 C   0  0  0  0  0  0
    3.2576   28.3879   59.2537 C   0  0  0  0  0  0
    3.5016   29.6708   58.8657 N   0  0  0  0  0  0
    4.9061   33.5220   60.6471 O   0  0  0  0  0  0
    9.6649   34.4880   59.7684 C   0  0  0  0  0  0
   10.3614   34.3009   61.1390 C   0  0  0  0  0  0
   10.5072   32.8385   61.6260 C   0  0  0  0  0  0
   11.4084   32.6251   62.8599 C   0  0  0  0  0  0
   12.8724   33.0880   62.6821 C   0  0  0  0  0  0
   13.9016   32.1774   63.3645 C   0  0  0  0  0  0
    2.0062   27.8399   59.0478 O   0  0  0  0  0  0
    0.9749   28.6440   58.4785 C   0  0  0  0  0  0
    6.5574   27.5740   60.7074 O   0  0  0  0  0  0
    6.3924   26.2539   61.2120 C   0  0  0  0  0  0
    7.2227   34.7132   60.9748 H   0  0  0  0  0  0
    9.3032   32.3921   58.0264 H   0  0  0  0  0  0
    7.2698   31.0667   57.6377 H   0  0  0  0  0  0
    4.0050   26.5935   60.1685 H   0  0  0  0  0  0
    4.5885   34.4198   60.4376 H   0  0  0  0  0  0
    9.3902   35.5365   59.6538 H   0  0  0  0  0  0
   10.3801   34.3220   58.9623 H   0  0  0  0  0  0
    9.8217   34.8798   61.8846 H   0  0  0  0  0  0
   11.3441   34.7699   61.0793 H   0  0  0  0  0  0
   10.8992   32.2163   60.8282 H   0  0  0  0  0  0
    9.5172   32.4351   61.8442 H   0  0  0  0  0  0
   11.3879   31.5603   63.0975 H   0  0  0  0  0  0
   10.9714   33.1190   63.7268 H   0  0  0  0  0  0
   12.9801   34.1102   63.0489 H   0  0  0  0  0  0
   13.1319   33.1264   61.6281 H   0  0  0  0  0  0
   14.9122   32.5702   63.2484 H   0  0  0  0  0  0
   13.8888   31.1762   62.9327 H   0  0  0  0  0  0
   13.7042   32.0815   64.4285 H   0  0  0  0  0  0
    0.0553   28.0621   58.4268 H   0  0  0  0  0  0
    0.7713   29.5219   59.0915 H   0  0  0  0  0  0
    1.2288   28.9664   57.4676 H   0  0  0  0  0  0
    7.3393   25.9047   61.6251 H   0  0  0  0  0  0
    5.6493   26.2245   62.0105 H   0  0  0  0  0  0
    6.0985   25.5550   60.4281 H   0  0  0  0  0  0
  1  6  1  0  0  0
  1  2  2  0  0  0
  1 25  1  0  0  0
  2 15  1  0  0  0
  2  3  1  0  0  0
  3  4  2  0  0  0
  3 26  1  0  0  0
  4  5  1  0  0  0
  4 27  1  0  0  0
  5  7  1  0  0  0
  5  6  2  0  0  0
  6 14  1  0  0  0
  7  8  1  0  0  0
  8 13  1  0  0  0
  8  9  2  0  0  0
  9 10  1  0  0  0
 10 11  2  0  0  0
 10 23  1  0  0  0
 11 12  1  0  0  0
 11 28  1  0  0  0
 12 13  2  0  0  0
 12 21  1  0  0  0
 14 29  1  0  0  0
 15 16  1  0  0  0
 15 30  1  0  0  0
 15 31  1  0  0  0
 16 17  1  0  0  0
 16 32  1  0  0  0
 16 33  1  0  0  0
 17 18  1  0  0  0
 17 34  1  0  0  0
 17 35  1  0  0  0
 18 19  1  0  0  0
 18 36  1  0  0  0
 18 37  1  0  0  0
 19 20  1  0  0  0
 19 38  1  0  0  0
 19 39  1  0  0  0
 20 40  1  0  0  0
 20 41  1  0  0  0
 20 42  1  0  0  0
 21 22  1  0  0  0
 22 43  1  0  0  0
 22 44  1  0  0  0
 22 45  1  0  0  0
 23 24  1  0  0  0
 24 46  1  0  0  0
 24 47  1  0  0  0
 24 48  1  0  0  0
M  END
> <s_m_entry_id>
8329

> <s_m_entry_name>
dock_pv.124

> <s_m_Source_Path>
/home/csk/Desktop/cluster/DUD-E-result/inha

> <s_m_Source_File>
dock_pv.maegz

> <i_m_Source_File_Index>
124

> <chembl_id>
CHEMBL258933

> <chembl_pref_name>
None

> <i_lp_mmshare_version>
53161

> <r_lp_tautomer_probability>
0.999999999999776

> <s_lp_Force_Field>
OPLS_2005

> <r_lp_Energy>
5.708643

> <b_lp_Chiralities_Consistent>
1

> <s_lp_Variant>
CHEMBL1849_lig218-1

> <s_i_glide_gridfile>
glide-grid_2h7l

> <i_i_glide_lignum>
287

> <i_i_glide_rotatable_bonds>
10

> <r_i_docking_score>
-6.86687761762758

> <r_i_glide_ligand_efficiency>
-0.286119900734482

> <r_i_glide_ligand_efficiency_sa>
-0.825312606907115

> <r_i_glide_ligand_efficiency_ln>
-1.64355891437993

> <r_i_glide_gscore>
-6.86687761762758

> <r_i_glide_lipo>
-3.51188441974179

> <r_i_glide_hbond>
0

> <r_i_glide_metal>
0

> <r_i_glide_rewards>
-1.85990534658789

> <r_i_glide_evdw>
-39.0948753356934

> <r_i_glide_ecoul>
-3.75419044494629

> <r_i_glide_erotb>
1.02278448222872

> <r_i_glide_esite>
0

> <r_i_glide_emodel>
-55.2217392488624

> <r_i_glide_energy>
-42.8490657806396

> <r_i_glide_einternal>
11.0030221939087

> <i_i_glide_confnum>
9

> <i_i_glide_posenum>
100

> <r_i_glide_eff_state_penalty>
0

> <s_user_duplicate_titles>
CHEMBL1849_lig218,428433

> <i_f3d_flags>
0

> <s_m_subgroup_title>
dock_pv

> <s_m_subgroupid>
dock_pv

> <b_m_subgroup_collapsed>
0

$$$$
CHEMBL1849_lig75
                    3D
 Schrodinger Suite 2021-1.
 49 50  0  0  1  0            999 V2000
    6.5486   33.5203   59.7090 C   0  0  0  0  0  0
    7.6639   33.0735   58.9973 C   0  0  0  0  0  0
    7.7192   31.7452   58.5744 C   0  0  0  0  0  0
    6.6909   30.8641   58.9014 C   0  0  0  0  0  0
    5.6115   31.2883   59.6933 C   0  0  0  0  0  0
    5.5310   32.6382   60.0637 C   0  0  0  0  0  0
    4.6148   30.4172   60.0887 O   0  0  0  0  0  0
    4.8915   29.1043   60.4332 C   0  0  0  0  0  0
    6.0699   28.7483   61.1097 C   0  0  0  0  0  0
    6.3425   27.4155   61.4098 C   0  0  0  0  0  0
    5.4305   26.4250   61.0561 C   0  0  0  0  0  0
    4.2370   26.7672   60.4220 C   0  0  0  0  0  0
    3.9498   28.1101   60.1185 C   0  0  0  0  0  0
    4.4754   33.1218   60.7934 O   0  0  0  0  0  0
    8.8428   34.0065   58.7694 C   0  0  0  0  0  0
    9.5350   34.3329   60.1042 C   0  0  0  0  0  0
   10.7649   35.2410   59.9663 C   0  0  0  0  0  0
   11.3154   35.7173   61.3264 C   0  0  0  0  0  0
   12.4263   34.8454   61.9514 C   0  0  0  0  0  0
   11.9815   33.4606   62.4501 C   0  0  0  0  0  0
    2.7605   28.5411   59.4938 N   0  0  0  0  0  0
    1.6037   27.8807   59.2958 C   0  0  0  0  0  0
    1.3714   26.7213   59.6336 O   0  0  0  0  0  0
    0.5133   28.6808   58.6034 C   0  0  0  0  0  0
    6.4972   34.5455   60.0381 H   0  0  0  0  0  0
    8.5751   31.3808   58.0275 H   0  0  0  0  0  0
    6.7557   29.8369   58.5756 H   0  0  0  0  0  0
    6.7860   29.5064   61.3899 H   0  0  0  0  0  0
    7.2640   27.1502   61.9076 H   0  0  0  0  0  0
    5.6489   25.3899   61.2768 H   0  0  0  0  0  0
    3.5589   25.9693   60.1648 H   0  0  0  0  0  0
    4.3071   34.0561   60.6072 H   0  0  0  0  0  0
    9.5480   33.5558   58.0699 H   0  0  0  0  0  0
    8.5015   34.9218   58.2872 H   0  0  0  0  0  0
    8.8161   34.8168   60.7677 H   0  0  0  0  0  0
    9.8111   33.4044   60.6004 H   0  0  0  0  0  0
   11.5449   34.7417   59.3904 H   0  0  0  0  0  0
   10.4806   36.1197   59.3848 H   0  0  0  0  0  0
   11.7036   36.7256   61.2004 H   0  0  0  0  0  0
   10.4949   35.8436   62.0276 H   0  0  0  0  0  0
   13.2442   34.7260   61.2383 H   0  0  0  0  0  0
   12.8521   35.3890   62.7959 H   0  0  0  0  0  0
   12.7982   32.9583   62.9693 H   0  0  0  0  0  0
   11.1436   33.5217   63.1438 H   0  0  0  0  0  0
   11.6820   32.8154   61.6287 H   0  0  0  0  0  0
    2.7680   29.5163   59.2268 H   0  0  0  0  0  0
    0.2114   29.5218   59.2277 H   0  0  0  0  0  0
   -0.3630   28.0565   58.4315 H   0  0  0  0  0  0
    0.8755   29.0591   57.6463 H   0  0  0  0  0  0
  1  6  1  0  0  0
  1  2  2  0  0  0
  1 25  1  0  0  0
  2 15  1  0  0  0
  2  3  1  0  0  0
  3  4  2  0  0  0
  3 26  1  0  0  0
  4  5  1  0  0  0
  4 27  1  0  0  0
  5  7  1  0  0  0
  5  6  2  0  0  0
  6 14  1  0  0  0
  7  8  1  0  0  0
  8 13  1  0  0  0
  8  9  2  0  0  0
  9 10  1  0  0  0
  9 28  1  0  0  0
 10 11  2  0  0  0
 10 29  1  0  0  0
 11 12  1  0  0  0
 11 30  1  0  0  0
 12 13  2  0  0  0
 12 31  1  0  0  0
 13 21  1  0  0  0
 14 32  1  0  0  0
 15 16  1  0  0  0
 15 33  1  0  0  0
 15 34  1  0  0  0
 16 17  1  0  0  0
 16 35  1  0  0  0
 16 36  1  0  0  0
 17 18  1  0  0  0
 17 37  1  0  0  0
 17 38  1  0  0  0
 18 19  1  0  0  0
 18 39  1  0  0  0
 18 40  1  0  0  0
 19 20  1  0  0  0
 19 41  1  0  0  0
 19 42  1  0  0  0
 20 43  1  0  0  0
 20 44  1  0  0  0
 20 45  1  0  0  0
 21 22  1  0  0  0
 21 46  1  0  0  0
 22 23  2  0  0  0
 22 24  1  0  0  0
 24 47  1  0  0  0
 24 48  1  0  0  0
 24 49  1  0  0  0
M  END
> <s_m_entry_id>
8330

> <s_m_entry_name>
dock_pv.125

> <s_m_Source_Path>
/home/csk/Desktop/cluster/DUD-E-result/inha

> <s_m_Source_File>
dock_pv.maegz

> <i_m_Source_File_Index>
125

> <chembl_id>
CHEMBL264176

> <chembl_pref_name>
None

> <i_lp_mmshare_version>
53161

> <r_lp_tautomer_probability>
0.999999999999776

> <s_lp_Force_Field>
OPLS_2005

> <r_lp_Energy>
18.249653

> <b_lp_Chiralities_Consistent>
1

> <s_lp_Variant>
CHEMBL1849_lig75-1

> <s_i_glide_gridfile>
glide-grid_2h7l

> <i_i_glide_lignum>
125

> <i_i_glide_rotatable_bonds>
10

> <r_i_docking_score>
-6.84781001376313

> <r_i_glide_ligand_efficiency>
-0.28532541724013

> <r_i_glide_ligand_efficiency_sa>
-0.823020919952852

> <r_i_glide_ligand_efficiency_ln>
-1.63899516181984

> <r_i_glide_gscore>
-6.84781001376313

> <r_i_glide_lipo>
-3.88771575561458

> <r_i_glide_hbond>
0

> <r_i_glide_metal>
0

> <r_i_glide_rewards>
-1.66324178211887

> <r_i_glide_evdw>
-41.4190406799316

> <r_i_glide_ecoul>
-2.91859197616577

> <r_i_glide_erotb>
1.22549112587367

> <r_i_glide_esite>
-0.013602771481898

> <r_i_glide_emodel>
-60.8163992614871

> <r_i_glide_energy>
-44.3376326560974

> <r_i_glide_einternal>
4.98734092712402

> <i_i_glide_confnum>
129

> <i_i_glide_posenum>
129

> <r_i_glide_eff_state_penalty>
0

> <s_user_duplicate_titles>
CHEMBL1849_lig75,428331

> <i_f3d_flags>
0

> <s_m_subgroup_title>
dock_pv

> <s_m_subgroupid>
dock_pv

> <b_m_subgroup_collapsed>
0

$$$$
CHEMBL1849_lig205
                    3D
 Schrodinger Suite 2021-1.
 55 60  0  0  1  0            999 V2000
    3.4918   29.3853   60.2018 N   0  0  0  0  0  0
   10.5274   34.2246   61.2281 N   0  0  0  0  0  0
   10.0191   35.1307   59.2490 C   0  0  0  0  0  0
   10.8433   35.2278   60.3500 C   0  0  0  0  0  0
    9.1270   34.0366   59.4766 C   0  0  0  0  0  0
    9.4910   33.4642   60.7286 C   0  0  0  0  0  0
    8.8675   32.3220   61.2278 C   0  0  0  0  0  0
    7.8532   31.7621   60.4534 C   0  0  0  0  0  0
    7.4243   32.3315   59.2471 C   0  0  0  0  0  0
    8.0796   33.4639   58.7469 C   0  0  0  0  0  0
    6.3131   31.7040   58.4342 C   0  0  0  0  0  0
    6.5041   31.5222   57.2265 O   0  0  0  0  0  0
    5.1318   31.3795   59.0268 N   0  0  0  0  0  0
    4.0796   30.7370   58.2348 C   0  0  0  0  0  0
    3.8555   29.3140   58.7911 C   0  0  0  0  0  0
    4.5028   30.1008   60.9972 C   0  0  0  0  0  0
    4.7767   31.5240   60.4485 C   0  0  0  0  0  0
    3.0192   28.0992   60.7448 C   0  0  1  0  0  0
    3.7684   27.0005   62.7321 C   0  0  0  0  0  0
    4.0877   27.2295   61.3911 C   0  0  0  0  0  0
    5.2506   26.6767   60.8463 C   0  0  0  0  0  0
    6.1014   25.9180   61.6510 C   0  0  0  0  0  0
    5.7883   25.7025   62.9946 C   0  0  0  0  0  0
    4.6183   26.2387   63.5371 C   0  0  0  0  0  0
    2.0509   28.3242   61.8850 C   0  0  0  0  0  0
    2.4922   27.6805   63.0380 C   0  0  0  0  0  0
    1.7464   27.7682   64.2171 C   0  0  0  0  0  0
    0.5414   28.4928   64.2471 C   0  0  0  0  0  0
    0.1038   29.1218   63.0705 C   0  0  0  0  0  0
    0.8545   29.0431   61.8968 C   0  0  0  0  0  0
   -0.2427   28.6083   65.4986 N   0  3  0  0  0  0
    0.2525   28.1917   66.5410 O   0  0  0  0  0  0
   -1.3575   29.1207   65.4457 O   0  5  0  0  0  0
   11.0152   34.0947   62.1028 H   0  0  0  0  0  0
   10.0528   35.7882   58.3939 H   0  0  0  0  0  0
   11.6435   35.9210   60.5772 H   0  0  0  0  0  0
    9.1626   31.8766   62.1671 H   0  0  0  0  0  0
    7.3926   30.8545   60.8133 H   0  0  0  0  0  0
    7.8000   33.8911   57.7958 H   0  0  0  0  0  0
    3.1659   31.3206   58.3482 H   0  0  0  0  0  0
    4.2941   30.7222   57.1684 H   0  0  0  0  0  0
    4.7648   28.7217   58.6753 H   0  0  0  0  0  0
    3.0638   28.8262   58.2189 H   0  0  0  0  0  0
    5.4294   29.5251   60.9764 H   0  0  0  0  0  0
    4.1761   30.1493   62.0280 H   0  0  0  0  0  0
    5.5087   32.0651   61.0428 H   0  0  0  0  0  0
    3.8633   32.1161   60.5208 H   0  0  0  0  0  0
    2.4969   27.5302   59.9725 H   0  0  0  0  0  0
    5.5104   26.8366   59.8108 H   0  0  0  0  0  0
    7.0045   25.5005   61.2314 H   0  0  0  0  0  0
    6.4531   25.1208   63.6139 H   0  0  0  0  0  0
    4.3851   26.0614   64.5768 H   0  0  0  0  0  0
    2.1027   27.2747   65.1100 H   0  0  0  0  0  0
   -0.8131   29.6936   63.0580 H   0  0  0  0  0  0
    0.5175   29.5600   61.0081 H   0  0  0  0  0  0
  1 15  1  0  0  0
  1 16  1  0  0  0
  1 18  1  0  0  0
  2  6  1  0  0  0
  2  4  1  0  0  0
  2 34  1  0  0  0
  3  5  1  0  0  0
  3  4  2  0  0  0
  3 35  1  0  0  0
  4 36  1  0  0  0
  5  6  2  0  0  0
  5 10  1  0  0  0
  6  7  1  0  0  0
  7  8  2  0  0  0
  7 37  1  0  0  0
  8  9  1  0  0  0
  8 38  1  0  0  0
  9 10  2  0  0  0
  9 11  1  0  0  0
 10 39  1  0  0  0
 11 12  2  0  0  0
 11 13  1  0  0  0
 13 14  1  0  0  0
 13 17  1  0  0  0
 14 15  1  0  0  0
 14 40  1  0  0  0
 14 41  1  0  0  0
 15 42  1  0  0  0
 15 43  1  0  0  0
 16 17  1  0  0  0
 16 44  1  0  0  0
 16 45  1  0  0  0
 17 46  1  0  0  0
 17 47  1  0  0  0
 18 20  1  0  0  0
 18 25  1  0  0  0
 18 48  1  0  0  0
 19 26  1  0  0  0
 19 20  2  0  0  0
 19 24  1  0  0  0
 20 21  1  0  0  0
 21 22  2  0  0  0
 21 49  1  0  0  0
 22 23  1  0  0  0
 22 50  1  0  0  0
 23 24  2  0  0  0
 23 51  1  0  0  0
 24 52  1  0  0  0
 25 26  2  0  0  0
 25 30  1  0  0  0
 26 27  1  0  0  0
 27 28  2  0  0  0
 27 53  1  0  0  0
 28 29  1  0  0  0
 28 31  1  0  0  0
 29 30  2  0  0  0
 29 54  1  0  0  0
 30 55  1  0  0  0
 31 32  2  0  0  0
 31 33  1  0  0  0
M  CHG  2  31   1  33  -1
M  END
> <s_m_entry_id>
8331

> <s_m_entry_name>
dock_pv.126

> <s_m_Source_Path>
/home/csk/Desktop/cluster/DUD-E-result/inha

> <s_m_Source_File>
dock_pv.maegz

> <i_m_Source_File_Index>
126

> <chembl_id>
CHEMBL3986551

> <chembl_pref_name>
None

> <i_lp_mmshare_version>
53161

> <r_lp_tautomer_probability>
1

> <s_lp_Force_Field>
OPLS_2005

> <r_lp_Energy>
76.628207

> <b_lp_Chiralities_Consistent>
1

> <s_lp_Variant>
CHEMBL1849_lig205-2

> <s_i_glide_gridfile>
glide-grid_2h7l

> <i_i_glide_lignum>
273

> <i_i_glide_rotatable_bonds>
4

> <r_i_docking_score>
-6.83503263783212

> <r_i_glide_ligand_efficiency>
-0.207122201146428

> <r_i_glide_ligand_efficiency_sa>
-0.664351569907165

> <r_i_glide_ligand_efficiency_ln>
-1.52007586874889

> <r_i_glide_gscore>
-6.83503263783212

> <r_i_glide_lipo>
-2.84252272700754

> <r_i_glide_hbond>
-0.298149553684244

> <r_i_glide_metal>
0

> <r_i_glide_rewards>
-1.16715490712052

> <r_i_glide_evdw>
-41.799430847168

> <r_i_glide_ecoul>
-4.9901909828186

> <r_i_glide_erotb>
0.311294739761371

> <r_i_glide_esite>
0

> <r_i_glide_emodel>
-63.6371587086627

> <r_i_glide_energy>
-46.7896218299866

> <r_i_glide_einternal>
4.64435911178589

> <i_i_glide_confnum>
6

> <i_i_glide_posenum>
109

> <r_i_glide_eff_state_penalty>
0

> <s_user_duplicate_titles>
CHEMBL1849_lig205

> <i_f3d_flags>
0

> <s_m_subgroup_title>
dock_pv

> <s_m_subgroupid>
dock_pv

> <b_m_subgroup_collapsed>
0

$$$$
CHEMBL1849_lig1
                    3D
 Schrodinger Suite 2021-1.
 49 53  0  0  1  0            999 V2000
   10.9036   34.9281   60.9440 C   0  0  0  0  0  0
   11.4052   33.9281   61.7727 C   0  0  0  0  0  0
   10.7252   32.7220   61.9187 C   0  0  0  0  0  0
    9.5343   32.5150   61.2280 C   0  0  0  0  0  0
    8.9893   33.5236   60.4224 C   0  0  0  0  0  0
    9.7040   34.7218   60.2691 C   0  0  0  0  0  0
    7.7073   33.3222   59.6386 C   0  0  0  0  0  0
    6.6056   32.7406   60.2073 N   0  0  0  0  0  0
    7.7035   33.7230   58.4720 O   0  0  0  0  0  0
    5.3742   32.5404   59.4266 C   0  0  0  0  0  0
    5.0375   31.0300   59.4098 C   0  0  0  0  0  0
    4.9843   30.3928   60.7416 N   0  0  0  0  0  0
    6.1934   30.7289   61.5173 C   0  0  0  0  0  0
    6.4775   32.2458   61.5843 C   0  0  0  0  0  0
    4.7179   28.9254   60.6584 C   0  0  0  0  0  0
    4.6269   28.2544   62.0326 C   0  0  0  0  0  0
    3.3225   27.8403   62.3014 C   0  0  0  0  0  0
    2.9994   27.2562   63.5292 C   0  0  0  0  0  0
    3.9986   27.0394   64.4785 C   0  0  0  0  0  0
    5.3170   27.3859   64.1908 C   0  0  0  0  0  0
    5.6328   27.9786   62.9684 C   0  0  0  0  0  0
    2.5037   28.0730   61.1050 C   0  0  0  0  0  0
    3.3167   28.6307   60.1159 C   0  0  0  0  0  0
    2.7898   28.7988   58.8305 C   0  0  0  0  0  0
    1.4555   28.4952   58.5630 C   0  0  0  0  0  0
    0.6370   27.9994   59.5759 C   0  0  0  0  0  0
    1.1626   27.7760   60.8495 C   0  0  0  0  0  0
   11.4396   35.8605   60.8240 H   0  0  0  0  0  0
   12.3341   34.0876   62.3012 H   0  0  0  0  0  0
   11.1269   31.9466   62.5551 H   0  0  0  0  0  0
    9.0421   31.5585   61.3261 H   0  0  0  0  0  0
    9.3241   35.5066   59.6296 H   0  0  0  0  0  0
    4.5610   33.0879   59.9065 H   0  0  0  0  0  0
    5.4363   32.9320   58.4132 H   0  0  0  0  0  0
    5.7817   30.5004   58.8107 H   0  0  0  0  0  0
    4.0727   30.9516   58.9187 H   0  0  0  0  0  0
    7.0475   30.2015   61.0862 H   0  0  0  0  0  0
    6.0779   30.4072   62.5493 H   0  0  0  0  0  0
    7.3214   32.4678   62.2248 H   0  0  0  0  0  0
    5.6334   32.7428   62.0636 H   0  0  0  0  0  0
    5.4814   28.4358   60.0520 H   0  0  0  0  0  0
    1.9881   26.9501   63.7478 H   0  0  0  0  0  0
    3.7557   26.5836   65.4271 H   0  0  0  0  0  0
    6.0953   27.1980   64.9170 H   0  0  0  0  0  0
    6.6630   28.2286   62.7659 H   0  0  0  0  0  0
    3.4056   29.1712   58.0280 H   0  0  0  0  0  0
    1.0575   28.6549   57.5720 H   0  0  0  0  0  0
   -0.3987   27.7716   59.3703 H   0  0  0  0  0  0
    0.5305   27.3568   61.6161 H   0  0  0  0  0  0
  1  6  1  0  0  0
  1  2  2  0  0  0
  1 28  1  0  0  0
  2  3  1  0  0  0
  2 29  1  0  0  0
  3  4  2  0  0  0
  3 30  1  0  0  0
  4  5  1  0  0  0
  4 31  1  0  0  0
  5  7  1  0  0  0
  5  6  2  0  0  0
  6 32  1  0  0  0
  7  8  1  0  0  0
  7  9  2  0  0  0
  8 10  1  0  0  0
  8 14  1  0  0  0
 10 11  1  0  0  0
 10 33  1  0  0  0
 10 34  1  0  0  0
 11 12  1  0  0  0
 11 35  1  0  0  0
 11 36  1  0  0  0
 12 13  1  0  0  0
 12 15  1  0  0  0
 13 14  1  0  0  0
 13 37  1  0  0  0
 13 38  1  0  0  0
 14 39  1  0  0  0
 14 40  1  0  0  0
 15 23  1  0  0  0
 15 16  1  0  0  0
 15 41  1  0  0  0
 16 17  2  0  0  0
 16 21  1  0  0  0
 17 22  1  0  0  0
 17 18  1  0  0  0
 18 19  2  0  0  0
 18 42  1  0  0  0
 19 20  1  0  0  0
 19 43  1  0  0  0
 20 21  2  0  0  0
 20 44  1  0  0  0
 21 45  1  0  0  0
 22 23  2  0  0  0
 22 27  1  0  0  0
 23 24  1  0  0  0
 24 25  2  0  0  0
 24 46  1  0  0  0
 25 26  1  0  0  0
 25 47  1  0  0  0
 26 27  2  0  0  0
 26 48  1  0  0  0
 27 49  1  0  0  0
M  END
> <s_m_entry_id>
8332

> <s_m_entry_name>
dock_pv.127

> <s_m_Source_Path>
/home/csk/Desktop/cluster/DUD-E-result/inha

> <s_m_Source_File>
dock_pv.maegz

> <i_m_Source_File_Index>
127

> <chembl_id>
CHEMBL240533

> <chembl_pref_name>
None

> <i_lp_mmshare_version>
53161

> <r_lp_tautomer_probability>
1

> <s_lp_Force_Field>
OPLS_2005

> <r_lp_Energy>
74.1359

> <b_lp_Chiralities_Consistent>
1

> <s_lp_Variant>
CHEMBL1849_lig1-1

> <s_i_glide_gridfile>
glide-grid_2h7l

> <i_i_glide_lignum>
1

> <i_i_glide_rotatable_bonds>
3

> <r_i_docking_score>
-6.82353162435904

> <r_i_glide_ligand_efficiency>
-0.252723393494779

> <r_i_glide_ligand_efficiency_sa>
-0.758170179651403

> <r_i_glide_ligand_efficiency_ln>
-1.58840566744002

> <r_i_glide_gscore>
-6.82353162435904

> <r_i_glide_lipo>
-3.04076406466998

> <r_i_glide_hbond>
0

> <r_i_glide_metal>
0

> <r_i_glide_rewards>
-2.28950632414347

> <r_i_glide_evdw>
-38.8303108215332

> <r_i_glide_ecoul>
-0.0536957979202271

> <r_i_glide_erotb>
0.456308675219105

> <r_i_glide_esite>
0

> <r_i_glide_emodel>
-52.9104584093773

> <r_i_glide_energy>
-38.8840066194534

> <r_i_glide_einternal>
4.01397943496704

> <i_i_glide_confnum>
31

> <i_i_glide_posenum>
173

> <r_i_glide_eff_state_penalty>
0

> <s_user_duplicate_titles>
CHEMBL1849_lig1,406386

> <i_f3d_flags>
0

> <s_m_subgroup_title>
dock_pv

> <s_m_subgroupid>
dock_pv

> <b_m_subgroup_collapsed>
0

$$$$
