CHEMBL1803_lig86
                    3D
 Schrodinger Suite 2021-1.
 72 77  0  0  1  0            999 V2000
  -12.6210    8.6951   24.0359 C   0  0  0  0  0  0
  -12.2678    7.3514   24.7131 C   0  0  0  0  0  0
  -13.1336    7.3404   25.9916 C   0  0  0  0  0  0
  -13.2658    8.8060   26.3893 C   0  0  0  0  0  0
  -13.3970    9.5403   25.0585 C   0  0  0  0  0  0
  -12.4395    6.2115   23.8073 N   0  0  0  0  0  0
  -12.9340    4.0394   23.1750 N   0  0  0  0  0  0
  -12.6013    4.8753   24.1889 C   0  0  0  0  0  0
  -12.5255    4.5170   25.4921 N   0  0  0  0  0  0
  -12.9319    3.2561   25.7550 C   0  0  0  0  0  0
  -13.3638    2.3655   24.8340 N   0  0  0  0  0  0
  -13.3240    2.7960   23.5491 C   0  0  0  0  0  0
  -13.7274    1.9423   22.5175 N   0  0  0  0  0  0
  -13.8735    0.4944   22.6966 C   0  0  0  0  0  0
  -15.1640   -0.0599   22.0740 C   0  0  0  0  0  0
  -12.9374    2.8482   27.0916 N   0  0  0  0  0  0
  -13.5118    1.5894   27.5881 C   0  0  0  0  0  0
  -11.8229    3.0803   28.0354 C   0  0  2  0  0  0
  -12.5368    1.1258   28.6774 C   0  0  1  0  0  0
  -10.6446    2.1459   27.6704 C   0  0  0  0  0  0
  -11.2657    0.8489   27.9740 N   0  0  0  0  0  0
  -12.2618    2.4509   29.3520 C   0  0  0  0  0  0
  -10.9626   -0.3446   27.4220 C   0  0  0  0  0  0
   -9.6880   -0.4743   26.6427 C   0  0  0  0  0  0
   -9.7246   -0.5524   25.2464 C   0  0  0  0  0  0
   -8.5533   -0.7782   24.5285 C   0  0  0  0  0  0
   -7.3450   -0.9733   25.1989 C   0  0  0  0  0  0
   -7.2916   -0.8919   26.5966 C   0  0  0  0  0  0
   -8.4614   -0.6166   27.3085 C   0  0  0  0  0  0
  -11.7028   -1.3237   27.5202 O   0  0  0  0  0  0
   -5.9762   -1.1089   27.3346 C   0  0  0  0  0  0
   -4.9404   -0.7943   26.5551 F   0  0  0  0  0  0
   -5.8966   -0.3683   28.4441 F   0  0  0  0  0  0
   -5.8660   -2.3907   27.6710 F   0  0  0  0  0  0
  -14.9791   -0.9364   20.8355 C   0  0  0  0  0  0
  -15.3117   -2.2993   20.8771 C   0  0  0  0  0  0
  -15.2312   -3.0805   19.7235 C   0  0  0  0  0  0
  -14.8122   -2.5181   18.5216 C   0  0  0  0  0  0
  -14.4221   -1.1666   18.4781 C   0  0  0  0  0  0
  -14.5282   -0.3891   19.6331 C   0  0  0  0  0  0
  -14.8105   -3.4979   17.0975 Cl  0  0  0  0  0  0
  -13.8085   -0.4397   17.0321 Cl  0  0  0  0  0  0
  -11.7208    9.2195   23.7200 H   0  0  0  0  0  0
  -13.2317    8.5617   23.1394 H   0  0  0  0  0  0
  -11.2204    7.3782   25.0217 H   0  0  0  0  0  0
  -14.1143    6.9043   25.8048 H   0  0  0  0  0  0
  -12.6700    6.7668   26.7970 H   0  0  0  0  0  0
  -12.3737    9.1379   26.9181 H   0  0  0  0  0  0
  -14.1124    8.9831   27.0427 H   0  0  0  0  0  0
  -13.0305   10.5690   25.1170 H   0  0  0  0  0  0
  -14.4474    9.5896   24.7649 H   0  0  0  0  0  0
  -12.5346    6.4052   22.8205 H   0  0  0  0  0  0
  -13.6643    2.2963   21.5816 H   0  0  0  0  0  0
  -13.0067    0.0104   22.2353 H   0  0  0  0  0  0
  -13.8348    0.2031   23.7458 H   0  0  0  0  0  0
  -15.6896   -0.6342   22.8361 H   0  0  0  0  0  0
  -15.8331    0.7596   21.8066 H   0  0  0  0  0  0
  -13.6739    0.8221   26.8267 H   0  0  0  0  0  0
  -14.4958    1.7988   28.0238 H   0  0  0  0  0  0
  -11.5355    4.1311   28.1159 H   0  0  0  0  0  0
  -12.9055    0.3137   29.2912 H   0  0  0  0  0  0
   -9.8083    2.2767   28.3598 H   0  0  0  0  0  0
  -10.3015    2.2576   26.6416 H   0  0  0  0  0  0
  -11.4755    2.4057   30.1107 H   0  0  0  0  0  0
  -13.1454    2.9233   29.7911 H   0  0  0  0  0  0
  -10.6657   -0.4497   24.7234 H   0  0  0  0  0  0
   -8.5862   -0.8113   23.4494 H   0  0  0  0  0  0
   -6.4553   -1.1890   24.6293 H   0  0  0  0  0  0
   -8.4178   -0.5416   28.3866 H   0  0  0  0  0  0
  -15.6529   -2.7516   21.7937 H   0  0  0  0  0  0
  -15.5046   -4.1291   19.7666 H   0  0  0  0  0  0
  -14.2396    0.6510   19.5997 H   0  0  0  0  0  0
  1  2  1  0  0  0
  1  5  1  0  0  0
  1 43  1  0  0  0
  1 44  1  0  0  0
  2  3  1  0  0  0
  2  6  1  0  0  0
  2 45  1  0  0  0
  3  4  1  0  0  0
  3 46  1  0  0  0
  3 47  1  0  0  0
  4  5  1  0  0  0
  4 48  1  0  0  0
  4 49  1  0  0  0
  5 50  1  0  0  0
  5 51  1  0  0  0
  6  8  1  0  0  0
  6 52  1  0  0  0
  7  8  1  0  0  0
  7 12  2  0  0  0
  8  9  2  0  0  0
  9 10  1  0  0  0
 10 11  2  0  0  0
 10 16  1  0  0  0
 11 12  1  0  0  0
 12 13  1  0  0  0
 13 14  1  0  0  0
 13 53  1  0  0  0
 14 15  1  0  0  0
 14 54  1  0  0  0
 14 55  1  0  0  0
 15 35  1  0  0  0
 15 56  1  0  0  0
 15 57  1  0  0  0
 16 17  1  0  0  0
 16 18  1  0  0  0
 17 19  1  0  0  0
 17 58  1  0  0  0
 17 59  1  0  0  0
 18 20  1  0  0  0
 18 22  1  0  0  0
 18 60  1  0  0  0
 19 21  1  0  0  0
 19 22  1  0  0  0
 19 61  1  0  0  0
 20 21  1  0  0  0
 20 62  1  0  0  0
 20 63  1  0  0  0
 21 23  1  0  0  0
 22 64  1  0  0  0
 22 65  1  0  0  0
 23 24  1  0  0  0
 23 30  2  0  0  0
 24 25  2  0  0  0
 24 29  1  0  0  0
 25 26  1  0  0  0
 25 66  1  0  0  0
 26 27  2  0  0  0
 26 67  1  0  0  0
 27 28  1  0  0  0
 27 68  1  0  0  0
 28 29  2  0  0  0
 28 31  1  0  0  0
 29 69  1  0  0  0
 31 32  1  0  0  0
 31 33  1  0  0  0
 31 34  1  0  0  0
 35 36  2  0  0  0
 35 40  1  0  0  0
 36 37  1  0  0  0
 36 70  1  0  0  0
 37 38  2  0  0  0
 37 71  1  0  0  0
 38 39  1  0  0  0
 38 41  1  0  0  0
 39 40  2  0  0  0
 39 42  1  0  0  0
 40 72  1  0  0  0
M  END
> <s_m_entry_id>
8525

> <s_m_entry_name>
dock_pv.2

> <s_m_Source_Path>
/home/csk/Desktop/cluster/DUD-E-result/ital

> <s_m_Source_File>
dock_pv.maegz

> <i_m_Source_File_Index>
2

> <chembl_id>
CHEMBL3298413

> <chembl_pref_name>
None

> <i_lp_mmshare_version>
53161

> <r_lp_tautomer_probability>
0.999999982592

> <s_lp_Force_Field>
OPLS_2005

> <r_lp_Energy>
90.024397

> <b_lp_Chiralities_Consistent>
1

> <s_lp_Variant>
CHEMBL1803_lig86-2

> <s_i_glide_gridfile>
glide-grid_2ica

> <i_i_glide_lignum>
105

> <i_i_glide_rotatable_bonds>
10

> <r_i_docking_score>
-7.53728555520225

> <r_i_glide_ligand_efficiency>
-0.179459179885768

> <r_i_glide_ligand_efficiency_sa>
-0.623804890175207

> <r_i_glide_ligand_efficiency_ln>
-1.59092679787437

> <r_i_glide_gscore>
-7.53728555520225

> <r_i_glide_lipo>
-3.15622844491935

> <r_i_glide_hbond>
0

> <r_i_glide_metal>
0

> <r_i_glide_rewards>
-2.3890257920415

> <r_i_glide_evdw>
-37.1438598632812

> <r_i_glide_ecoul>
-2.83691573143005

> <r_i_glide_erotb>
0.30634813125076

> <r_i_glide_esite>
-0.0156490966135859

> <r_i_glide_emodel>
-47.0878734027711

> <r_i_glide_energy>
-39.9807755947113

> <r_i_glide_einternal>
18.5967483520508

> <i_i_glide_confnum>
1

> <i_i_glide_posenum>
197

> <r_i_glide_eff_state_penalty>
0

> <s_user_duplicate_titles>
CHEMBL1803_lig86

> <i_f3d_flags>
0

> <s_m_subgroup_title>
dock_pv

> <s_m_subgroupid>
dock_pv

> <b_m_subgroup_collapsed>
0

$$$$
362140
                    3D
 Schrodinger Suite 2021-1.
 44 47  0  0  1  0            999 V2000
  -12.4267    2.3328   28.8534 C   0  0  0  0  0  0
  -11.0342    2.1381   28.4399 N   0  0  0  0  0  0
  -10.1013    1.6110   29.2554 C   0  0  0  0  0  0
  -10.2845    1.2109   30.4085 O   0  0  0  0  0  0
   -8.9276    1.6252   28.5514 N   0  0  0  0  0  0
   -9.0371    2.2567   27.3557 C   0  0  0  0  0  0
   -8.1462    2.5026   26.5394 O   0  0  0  0  0  0
  -10.5230    2.4568   27.1338 C   0  0  2  0  0  0
  -10.8532    3.8686   26.5827 C   0  0  0  0  0  0
  -10.9028    3.8425   25.1277 N   0  0  1  0  0  0
  -10.9814    2.4524   24.7216 C   0  0  0  0  0  0
  -11.0651    1.5775   25.9792 C   0  0  1  0  0  0
  -10.4988    0.1435   25.9194 C   0  0  0  0  0  0
   -9.3696   -0.1850   25.1531 C   0  0  0  0  0  0
   -8.7951   -1.4521   25.2489 C   0  0  0  0  0  0
   -9.3496   -2.4004   26.1076 C   0  0  0  0  0  0
  -10.4524   -2.0642   26.8943 C   0  0  0  0  0  0
  -11.0310   -0.8069   26.7924 C   0  0  0  0  0  0
   -8.8833   -3.7798   26.1132 C   0  0  0  0  0  0
   -8.5277   -4.8810   26.1175 N   0  0  0  0  0  0
   -7.7290    1.0061   28.9809 C   0  0  0  0  0  0
   -7.2358    1.2109   30.2764 C   0  0  0  0  0  0
   -6.0305    0.6371   30.6727 C   0  0  0  0  0  0
   -5.3247   -0.1775   29.7899 C   0  0  0  0  0  0
   -5.8046   -0.3976   28.5026 C   0  0  0  0  0  0
   -7.0021    0.1845   28.1024 C   0  0  0  0  0  0
   -4.9262   -1.4021   27.4094 Cl  0  0  0  0  0  0
   -5.3961    0.9675   32.2396 Cl  0  0  0  0  0  0
  -12.6131    1.9765   29.8671 H   0  0  0  0  0  0
  -12.6822    3.3931   28.8308 H   0  0  0  0  0  0
  -13.1046    1.8038   28.1832 H   0  0  0  0  0  0
  -10.1312    4.6245   26.8945 H   0  0  0  0  0  0
  -11.8257    4.2059   26.9427 H   0  0  0  0  0  0
  -11.6943    4.3701   24.7829 H   0  0  0  0  0  0
  -10.0789    2.2476   24.1493 H   0  0  0  0  0  0
  -11.8136    2.2542   24.0475 H   0  0  0  0  0  0
  -12.1370    1.4158   26.1153 H   0  0  0  0  0  0
   -8.8963    0.5421   24.5119 H   0  0  0  0  0  0
   -7.9376   -1.6920   24.6350 H   0  0  0  0  0  0
  -10.9011   -2.7873   27.5577 H   0  0  0  0  0  0
  -11.8811   -0.5679   27.4155 H   0  0  0  0  0  0
   -7.7687    1.8506   30.9647 H   0  0  0  0  0  0
   -4.3937   -0.6289   30.0938 H   0  0  0  0  0  0
   -7.3553    0.0053   27.0986 H   0  0  0  0  0  0
  1  2  1  0  0  0
  1 29  1  0  0  0
  1 30  1  0  0  0
  1 31  1  0  0  0
  2  8  1  0  0  0
  2  3  1  0  0  0
  3  4  2  0  0  0
  3  5  1  0  0  0
  5  6  1  0  0  0
  5 21  1  0  0  0
  6  7  2  0  0  0
  6  8  1  0  0  0
  8 12  1  0  0  0
  8  9  1  0  0  0
  9 10  1  0  0  0
  9 32  1  0  0  0
  9 33  1  0  0  0
 10 11  1  0  0  0
 10 34  1  0  0  0
 11 12  1  0  0  0
 11 35  1  0  0  0
 11 36  1  0  0  0
 12 13  1  0  0  0
 12 37  1  0  0  0
 13 18  1  0  0  0
 13 14  2  0  0  0
 14 15  1  0  0  0
 14 38  1  0  0  0
 15 16  2  0  0  0
 15 39  1  0  0  0
 16 17  1  0  0  0
 16 19  1  0  0  0
 17 18  2  0  0  0
 17 40  1  0  0  0
 18 41  1  0  0  0
 19 20  3  0  0  0
 21 26  1  0  0  0
 21 22  2  0  0  0
 22 23  1  0  0  0
 22 42  1  0  0  0
 23 24  2  0  0  0
 23 28  1  0  0  0
 24 25  1  0  0  0
 24 43  1  0  0  0
 25 26  2  0  0  0
 25 27  1  0  0  0
 26 44  1  0  0  0
M  END
> <s_m_entry_id>
8534

> <s_m_entry_name>
ligand_docking-pose.1

> <s_m_Source_Path>
/home/csk/Desktop/cluster/DUD-E-result/ital

> <s_m_Source_File>
ligand_docking-pose.sdf

> <i_m_Source_File_Index>
1

> <i_lp_mmshare_version>
53161

> <r_lp_tautomer_probability>
1

> <s_lp_Force_Field>
OPLS_2005

> <r_lp_Energy>
60.710346

> <b_lp_Chiralities_Consistent>
1

> <s_lp_Variant>
362140-1

> <s_i_glide_gridfile>
glide-grid_2ica

> <i_i_glide_lignum>
396

> <i_i_glide_rotatable_bonds>
2

> <r_i_docking_score>
-8.31773586044265

> <r_i_glide_ligand_efficiency>
-0.297061995015809

> <r_i_glide_ligand_efficiency_sa>
-0.902055177026444

> <r_i_glide_ligand_efficiency_ln>
-1.91997765592702

> <r_i_glide_gscore>
-8.31773586044265

> <r_i_glide_lipo>
-3.59854517671739

> <r_i_glide_hbond>
0

> <r_i_glide_metal>
0

> <r_i_glide_rewards>
-2.4941713928634

> <r_i_glide_evdw>
-41.4702033996582

> <r_i_glide_ecoul>
-2.43244671821594

> <r_i_glide_erotb>
0.228995428007581

> <r_i_glide_esite>
-0.0156375411541414

> <r_i_glide_emodel>
-62.3475911814025

> <r_i_glide_energy>
-43.9026501178741

> <r_i_glide_einternal>
2.08221840858459

> <i_i_glide_confnum>
5

> <i_i_glide_posenum>
110

> <r_i_glide_eff_state_penalty>
0

> <s_user_duplicate_titles>
362140

> <i_f3d_flags>
0

> <s_m_subgroup_title>
dock_pv

> <s_m_subgroupid>
dock_pv1

> <b_m_subgroup_collapsed>
0

$$$$
314242
                    3D
 Schrodinger Suite 2021-1.
 54 57  0  0  1  0            999 V2000
  -10.7991    3.9442   26.4323 C   0  0  0  0  0  0
  -10.5631    2.4660   26.8288 C   0  0  1  0  0  0
   -9.0656    2.3046   27.1880 C   0  0  0  0  0  0
   -8.1290    2.6849   26.4938 O   0  0  0  0  0  0
   -8.9837    1.6112   28.3495 N   0  0  0  0  0  0
  -10.2129    1.6118   28.9648 C   0  0  0  0  0  0
  -11.1399    2.1181   28.1086 N   0  0  0  0  0  0
  -12.3183    2.1006   28.8190 C   0  0  0  0  0  0
  -11.9671    1.6108   30.0668 C   0  0  0  0  0  0
  -10.6898    1.2747   30.1409 N   0  0  0  0  0  0
  -13.9267    2.6278   28.1837 S   0  0  0  0  0  0
  -13.8117    2.7700   26.7299 O   0  0  0  0  0  0
  -14.8985    1.7043   28.7776 O   0  0  0  0  0  0
  -14.1750    4.3270   28.9836 C   0  0  0  0  0  0
  -13.3062    5.3960   28.3032 C   0  0  0  0  0  0
  -13.5986    6.8233   28.7828 C   0  0  0  0  0  0
  -12.7135    7.7439   28.0949 N   0  0  0  0  0  0
   -7.8141    1.0154   28.8466 C   0  0  0  0  0  0
   -7.3659    1.3130   30.1357 C   0  0  0  0  0  0
   -6.1724    0.7688   30.6052 C   0  0  0  0  0  0
   -5.4342   -0.0894   29.7929 C   0  0  0  0  0  0
   -5.8706   -0.3895   28.5057 C   0  0  0  0  0  0
   -7.0620    0.1535   28.0366 C   0  0  0  0  0  0
   -4.9453   -1.4463   27.5033 Cl  0  0  0  0  0  0
   -5.5968    1.1776   32.1762 Cl  0  0  0  0  0  0
  -10.9599    1.4635   25.6907 C   0  0  0  0  0  0
  -10.4090    0.0424   25.8263 C   0  0  0  0  0  0
  -10.9738   -0.8322   26.7549 C   0  0  0  0  0  0
  -10.3952   -2.0772   26.9662 C   0  0  0  0  0  0
   -9.2750   -2.4625   26.2348 C   0  0  0  0  0  0
   -8.7177   -1.5997   25.2947 C   0  0  0  0  0  0
   -9.2874   -0.3470   25.0861 C   0  0  0  0  0  0
   -8.5293   -4.1954   26.4938 Br  0  0  0  0  0  0
  -10.2057    4.2233   25.5593 H   0  0  0  0  0  0
  -11.8348    4.1307   26.1601 H   0  0  0  0  0  0
  -10.5290    4.6362   27.2303 H   0  0  0  0  0  0
  -12.6450    1.4886   30.8938 H   0  0  0  0  0  0
  -15.2354    4.5595   28.8952 H   0  0  0  0  0  0
  -13.9289    4.2265   30.0410 H   0  0  0  0  0  0
  -12.2603    5.1611   28.4950 H   0  0  0  0  0  0
  -13.4575    5.3531   27.2235 H   0  0  0  0  0  0
  -14.6327    7.0940   28.5658 H   0  0  0  0  0  0
  -13.4539    6.9100   29.8610 H   0  0  0  0  0  0
  -12.9310    8.6954   28.3580 H   0  0  0  0  0  0
  -11.7607    7.5755   28.3853 H   0  0  0  0  0  0
   -7.9236    1.9988   30.7580 H   0  0  0  0  0  0
   -4.5260   -0.5323   30.1561 H   0  0  0  0  0  0
   -7.3831   -0.0742   27.0335 H   0  0  0  0  0  0
  -10.6459    1.8710   24.7295 H   0  0  0  0  0  0
  -12.0447    1.3940   25.6070 H   0  0  0  0  0  0
  -11.8393   -0.5398   27.3324 H   0  0  0  0  0  0
  -10.8226   -2.7510   27.6914 H   0  0  0  0  0  0
   -7.8472   -1.9012   24.7305 H   0  0  0  0  0  0
   -8.8323    0.3295   24.3779 H   0  0  0  0  0  0
  1  2  1  0  0  0
  1 34  1  0  0  0
  1 35  1  0  0  0
  1 36  1  0  0  0
  2  7  1  0  0  0
  2  3  1  0  0  0
  2 26  1  0  0  0
  3  4  2  0  0  0
  3  5  1  0  0  0
  5  6  1  0  0  0
  5 18  1  0  0  0
  6 10  2  0  0  0
  6  7  1  0  0  0
  7  8  1  0  0  0
  8  9  2  0  0  0
  8 11  1  0  0  0
  9 10  1  0  0  0
  9 37  1  0  0  0
 11 12  2  0  0  0
 11 13  2  0  0  0
 11 14  1  0  0  0
 14 15  1  0  0  0
 14 38  1  0  0  0
 14 39  1  0  0  0
 15 16  1  0  0  0
 15 40  1  0  0  0
 15 41  1  0  0  0
 16 17  1  0  0  0
 16 42  1  0  0  0
 16 43  1  0  0  0
 17 44  1  0  0  0
 17 45  1  0  0  0
 18 23  1  0  0  0
 18 19  2  0  0  0
 19 20  1  0  0  0
 19 46  1  0  0  0
 20 21  2  0  0  0
 20 25  1  0  0  0
 21 22  1  0  0  0
 21 47  1  0  0  0
 22 23  2  0  0  0
 22 24  1  0  0  0
 23 48  1  0  0  0
 26 27  1  0  0  0
 26 49  1  0  0  0
 26 50  1  0  0  0
 27 32  1  0  0  0
 27 28  2  0  0  0
 28 29  1  0  0  0
 28 51  1  0  0  0
 29 30  2  0  0  0
 29 52  1  0  0  0
 30 31  1  0  0  0
 30 33  1  0  0  0
 31 32  2  0  0  0
 31 53  1  0  0  0
 32 54  1  0  0  0
M  END
> <s_m_entry_id>
8535

> <s_m_entry_name>
ligand_docking-pose.2

> <s_m_Source_Path>
/home/csk/Desktop/cluster/DUD-E-result/ital

> <s_m_Source_File>
ligand_docking-pose.sdf

> <i_m_Source_File_Index>
2

> <i_lp_mmshare_version>
53161

> <r_lp_tautomer_probability>
1

> <s_lp_Force_Field>
OPLS_2005

> <r_lp_Energy>
54.119725

> <b_lp_Chiralities_Consistent>
1

> <s_lp_Variant>
314242-1

> <s_i_glide_gridfile>
glide-grid_2ica

> <i_i_glide_lignum>
176

> <i_i_glide_rotatable_bonds>
7

> <r_i_docking_score>
-7.57387091438397

> <r_i_glide_ligand_efficiency>
-0.229511239829817

> <r_i_glide_ligand_efficiency_sa>
-0.736165180016042

> <r_i_glide_ligand_efficiency_ln>
-1.68438967595416

> <r_i_glide_gscore>
-7.57387091438397

> <r_i_glide_lipo>
-4.03108952924469

> <r_i_glide_hbond>
0

> <r_i_glide_metal>
0

> <r_i_glide_rewards>
-1.44485929157961

> <r_i_glide_evdw>
-46.4784202575684

> <r_i_glide_ecoul>
-0.382838189601898

> <r_i_glide_erotb>
0.289977192369431

> <r_i_glide_esite>
-0.00655254461039871

> <r_i_glide_emodel>
-47.7802757040257

> <r_i_glide_energy>
-46.8612584471703

> <r_i_glide_einternal>
6.1543402671814

> <i_i_glide_confnum>
3

> <i_i_glide_posenum>
92

> <r_i_glide_eff_state_penalty>
0

> <s_user_duplicate_titles>
314242

> <i_f3d_flags>
0

> <s_m_subgroup_title>
dock_pv

> <s_m_subgroupid>
dock_pv1

> <b_m_subgroup_collapsed>
0

$$$$
99566
                    3D
 Schrodinger Suite 2021-1.
 32 33  0  0  1  0            999 V2000
   -4.9291   -0.6974   29.4016 C   0  0  0  0  0  0
   -5.4035   -0.7893   28.0939 C   0  0  0  0  0  0
   -6.5938   -0.1574   27.7328 C   0  0  0  0  0  0
   -7.3285    0.5876   28.6777 C   0  0  0  0  0  0
   -6.8573    0.6406   30.0002 C   0  0  0  0  0  0
   -5.6661    0.0113   30.3503 C   0  0  0  0  0  0
   -7.5449    1.2811   30.9723 F   0  0  0  0  0  0
   -8.6139    1.2815   28.3030 C   0  0  0  0  0  0
   -9.6074    1.2107   29.0279 O   0  0  0  0  0  0
   -8.5934    1.9561   27.1394 N   0  0  0  0  0  0
   -9.7702    2.5395   26.4825 C   0  0  1  0  0  0
   -9.4780    3.9866   26.0025 C   0  0  0  0  0  0
  -10.6548    4.9303   26.1061 C   0  0  0  0  0  0
  -11.2966    5.6890   25.1515 C   0  0  0  0  0  0
  -12.3385    6.4092   25.7375 N   0  0  0  0  0  0
  -12.2978    6.0628   27.0184 C   0  0  0  0  0  0
  -11.3289    5.1847   27.2941 N   0  0  0  0  0  0
  -10.1432    1.6278   25.3023 C   0  0  0  0  0  0
   -9.3292    1.2272   24.4941 O   0  0  0  0  0  0
  -11.4834    1.3701   25.2957 O   0  0  0  0  0  0
   -7.0210   -0.2826   26.4537 F   0  0  0  0  0  0
  -10.5821    2.5630   27.2098 H   0  0  0  0  0  0
  -11.1121    4.8147   28.2151 H   0  0  0  0  0  0
   -4.0116   -1.1885   29.6883 H   0  0  0  0  0  0
   -4.8473   -1.3503   27.3556 H   0  0  0  0  0  0
   -5.3287    0.0584   31.3756 H   0  0  0  0  0  0
   -7.7520    1.9268   26.5823 H   0  0  0  0  0  0
   -9.1596    3.9999   24.9599 H   0  0  0  0  0  0
   -8.6300    4.4240   26.5249 H   0  0  0  0  0  0
  -11.0866    5.7717   24.0935 H   0  0  0  0  0  0
  -12.9786    6.4579   27.7586 H   0  0  0  0  0  0
  -11.9588    1.7855   26.0169 H   0  0  0  0  0  0
  1  6  1  0  0  0
  1  2  2  0  0  0
  1 24  1  0  0  0
  2  3  1  0  0  0
  2 25  1  0  0  0
  3  4  2  0  0  0
  3 21  1  0  0  0
  4  5  1  0  0  0
  4  8  1  0  0  0
  5  6  2  0  0  0
  5  7  1  0  0  0
  6 26  1  0  0  0
  8  9  2  0  0  0
  8 10  1  0  0  0
 10 11  1  0  0  0
 10 27  1  0  0  0
 11 22  1  0  0  0
 11 12  1  0  0  0
 11 18  1  0  0  0
 12 28  1  0  0  0
 12 29  1  0  0  0
 12 13  1  0  0  0
 13 14  2  0  0  0
 13 17  1  0  0  0
 14 30  1  0  0  0
 14 15  1  0  0  0
 15 16  2  0  0  0
 16 17  1  0  0  0
 16 31  1  0  0  0
 17 23  1  0  0  0
 18 19  2  0  0  0
 18 20  1  0  0  0
 20 32  1  0  0  0
M  END
> <s_m_entry_id>
8536

> <s_m_entry_name>
ligand_docking-pose.3

> <s_m_Source_Path>
/home/csk/Desktop/cluster/DUD-E-result/ital

> <s_m_Source_File>
ligand_docking-pose.sdf

> <i_m_Source_File_Index>
3

> <i_lp_mmshare_version>
53161

> <r_lp_tautomer_probability>
0.499999999999999

> <s_lp_Force_Field>
OPLS_2005

> <r_lp_Energy>
10.244881

> <b_lp_Chiralities_Consistent>
1

> <s_lp_Variant>
99566-2

> <s_i_glide_gridfile>
glide-grid_2ica

> <i_i_glide_lignum>
66

> <i_i_glide_rotatable_bonds>
7

> <r_i_docking_score>
-7.31019210070044

> <r_i_glide_ligand_efficiency>
-0.34810438574764

> <r_i_glide_ligand_efficiency_sa>
-0.960393604768817

> <r_i_glide_ligand_efficiency_ln>
-1.80743022526417

> <r_i_glide_gscore>
-7.31019210070044

> <r_i_glide_lipo>
-2.37194251907498

> <r_i_glide_hbond>
-0.53097847380938

> <r_i_glide_metal>
0

> <r_i_glide_rewards>
-3.18291250541957

> <r_i_glide_evdw>
-26.6717758178711

> <r_i_glide_ecoul>
-4.60039186477661

> <r_i_glide_erotb>
0.839819618135393

> <r_i_glide_esite>
-0.0405306499218574

> <r_i_glide_emodel>
-43.6683870621272

> <r_i_glide_energy>
-31.2721676826477

> <r_i_glide_einternal>
3.33369159698486

> <i_i_glide_confnum>
14

> <i_i_glide_posenum>
342

> <r_i_glide_eff_state_penalty>
0

> <s_user_duplicate_titles>
99566

> <i_f3d_flags>
0

> <s_m_subgroup_title>
dock_pv

> <s_m_subgroupid>
dock_pv1

> <b_m_subgroup_collapsed>
0

$$$$
688348
                    3D
 Schrodinger Suite 2021-1.
 37 39  0  0  1  0            999 V2000
  -10.6653    4.0982   26.0151 C   0  0  0  0  0  0
  -11.1020    2.7763   26.6982 C   0  0  1  0  0  0
  -10.2398    1.6534   26.1126 C   0  0  0  0  0  0
  -10.1288    1.3775   24.9130 O   0  0  0  0  0  0
   -9.6396    1.0450   27.1640 N   0  0  0  0  0  0
   -9.9457    1.6238   28.3565 C   0  0  0  0  0  0
   -9.6837    1.2118   29.4868 O   0  0  0  0  0  0
  -10.6775    2.7023   28.0649 N   0  0  0  0  0  0
   -8.7760   -0.0618   27.0429 C   0  0  0  0  0  0
   -9.2286   -1.2545   26.4616 C   0  0  0  0  0  0
   -8.3863   -2.3636   26.3933 C   0  0  0  0  0  0
   -7.0890   -2.2829   26.8943 C   0  0  0  0  0  0
   -6.6206   -1.0938   27.4498 C   0  0  0  0  0  0
   -7.4615    0.0151   27.5289 C   0  0  0  0  0  0
   -5.0111   -1.0053   28.0678 Cl  0  0  0  0  0  0
   -8.9408   -3.8433   25.6971 Cl  0  0  0  0  0  0
  -12.6456    2.5160   26.5844 C   0  0  0  0  0  0
  -13.1733    1.8210   25.3318 C   0  0  0  0  0  0
  -13.2639    2.5142   24.1221 C   0  0  0  0  0  0
  -13.7300    1.8613   22.9819 C   0  0  0  0  0  0
  -14.1277    0.5259   23.0600 C   0  0  0  0  0  0
  -14.0657   -0.1562   24.2691 C   0  0  0  0  0  0
  -13.5842    0.4864   25.4050 C   0  0  0  0  0  0
  -14.7272   -0.3918   21.5031 Br  0  0  0  0  0  0
  -10.8310    4.0792   24.9369 H   0  0  0  0  0  0
  -11.2268    4.9458   26.4100 H   0  0  0  0  0  0
   -9.6069    4.3201   26.1738 H   0  0  0  0  0  0
  -10.7436    3.4970   28.6890 H   0  0  0  0  0  0
  -10.2355   -1.3279   26.0768 H   0  0  0  0  0  0
   -6.4501   -3.1510   26.8692 H   0  0  0  0  0  0
   -7.0977    0.9282   27.9794 H   0  0  0  0  0  0
  -13.1875    3.4559   26.7080 H   0  0  0  0  0  0
  -12.9822    1.9272   27.4416 H   0  0  0  0  0  0
  -12.9556    3.5458   24.0532 H   0  0  0  0  0  0
  -13.7693    2.3811   22.0379 H   0  0  0  0  0  0
  -14.3821   -1.1865   24.3274 H   0  0  0  0  0  0
  -13.5314   -0.0596   26.3356 H   0  0  0  0  0  0
  1  2  1  0  0  0
  1 25  1  0  0  0
  1 26  1  0  0  0
  1 27  1  0  0  0
  2  8  1  0  0  0
  2  3  1  0  0  0
  2 17  1  0  0  0
  3  4  2  0  0  0
  3  5  1  0  0  0
  5  6  1  0  0  0
  5  9  1  0  0  0
  6  7  2  0  0  0
  6  8  1  0  0  0
  8 28  1  0  0  0
  9 14  1  0  0  0
  9 10  2  0  0  0
 10 11  1  0  0  0
 10 29  1  0  0  0
 11 12  2  0  0  0
 11 16  1  0  0  0
 12 13  1  0  0  0
 12 30  1  0  0  0
 13 14  2  0  0  0
 13 15  1  0  0  0
 14 31  1  0  0  0
 17 18  1  0  0  0
 17 32  1  0  0  0
 17 33  1  0  0  0
 18 23  1  0  0  0
 18 19  2  0  0  0
 19 20  1  0  0  0
 19 34  1  0  0  0
 20 21  2  0  0  0
 20 35  1  0  0  0
 21 22  1  0  0  0
 21 24  1  0  0  0
 22 23  2  0  0  0
 22 36  1  0  0  0
 23 37  1  0  0  0
M  END
> <s_m_entry_id>
8537

> <s_m_entry_name>
ligand_docking-pose.4

> <s_m_Source_Path>
/home/csk/Desktop/cluster/DUD-E-result/ital

> <s_m_Source_File>
ligand_docking-pose.sdf

> <i_m_Source_File_Index>
4

> <i_lp_mmshare_version>
53161

> <r_lp_tautomer_probability>
0.999999999999795

> <s_lp_Force_Field>
OPLS_2005

> <r_lp_Energy>
37.543271

> <b_lp_Chiralities_Consistent>
1

> <s_lp_Variant>
688348-1

> <s_i_glide_gridfile>
glide-grid_2ica

> <i_i_glide_lignum>
187

> <i_i_glide_rotatable_bonds>
3

> <r_i_docking_score>
-7.1137587537604

> <r_i_glide_ligand_efficiency>
-0.296406614740017

> <r_i_glide_ligand_efficiency_sa>
-0.854984624584396

> <r_i_glide_ligand_efficiency_ln>
-1.70264889889367

> <r_i_glide_gscore>
-7.1137587537604

> <r_i_glide_lipo>
-2.76466485739084

> <r_i_glide_hbond>
-0.577679545677589

> <r_i_glide_metal>
0

> <r_i_glide_rewards>
-1.62661183983354

> <r_i_glide_evdw>
-31.2056427001953

> <r_i_glide_ecoul>
-5.95876455307007

> <r_i_glide_erotb>
0.325097477911249

> <r_i_glide_esite>
-0.0158031707994063

> <r_i_glide_emodel>
-51.7383756287227

> <r_i_glide_energy>
-37.1644072532654

> <r_i_glide_einternal>
3.01642370223999

> <i_i_glide_confnum>
22

> <i_i_glide_posenum>
133

> <r_i_glide_eff_state_penalty>
0

> <s_user_duplicate_titles>
688348

> <i_f3d_flags>
0

> <s_m_subgroup_title>
dock_pv

> <s_m_subgroupid>
dock_pv1

> <b_m_subgroup_collapsed>
0

$$$$
314379
                    3D
 Schrodinger Suite 2021-1.
 41 44  0  0  1  0            999 V2000
   -9.8397   -0.3750   24.8990 C   0  0  0  0  0  0
   -9.3700    0.8696   25.6926 C   0  0  1  0  0  0
   -9.6766    2.1626   24.8940 C   0  0  0  0  0  0
   -9.1947    2.4118   23.7891 O   0  0  0  0  0  0
  -10.5498    2.9331   25.5994 N   0  0  0  0  0  0
  -10.8349    2.3040   26.7870 C   0  0  0  0  0  0
  -10.2303    1.0990   26.8128 N   0  0  0  0  0  0
  -10.5808    0.5281   28.0041 C   0  0  0  0  0  0
  -11.2336    1.5508   28.6845 C   0  0  0  0  0  0
  -11.4927    2.5794   27.8874 N   0  0  0  0  0  0
  -11.5075    1.5891   30.1026 C   0  0  0  0  0  0
  -11.7038    1.6111   31.2389 N   0  0  0  0  0  0
  -11.1562    4.1317   25.1630 C   0  0  0  0  0  0
  -11.2993    5.2091   26.0486 C   0  0  0  0  0  0
  -11.9153    6.3906   25.6311 C   0  0  0  0  0  0
  -12.3704    6.5137   24.3194 C   0  0  0  0  0  0
  -12.2265    5.4530   23.4268 C   0  0  0  0  0  0
  -11.6338    4.2629   23.8485 C   0  0  0  0  0  0
  -12.7860    5.6114   21.8022 Cl  0  0  0  0  0  0
  -12.1296    7.6958   26.7401 Cl  0  0  0  0  0  0
   -7.8227    0.8472   26.0151 C   0  0  0  0  0  0
   -7.3603    0.6802   27.4632 C   0  0  0  0  0  0
   -7.7549    1.6049   28.4343 C   0  0  0  0  0  0
   -7.3208    1.4767   29.7434 C   0  0  0  0  0  0
   -6.3924    0.4958   30.0669 C   0  0  0  0  0  0
   -5.9316   -0.3885   29.0935 C   0  0  0  0  0  0
   -6.4437   -0.3218   27.7995 C   0  0  0  0  0  0
   -5.7313    0.4113   31.8435 Br  0  0  0  0  0  0
   -9.2861   -0.4940   23.9665 H   0  0  0  0  0  0
   -9.6846   -1.2854   25.4799 H   0  0  0  0  0  0
  -10.9018   -0.3344   24.6446 H   0  0  0  0  0  0
  -10.1754   -0.4243   28.3078 H   0  0  0  0  0  0
  -10.9445    5.1321   27.0668 H   0  0  0  0  0  0
  -12.8382    7.4321   23.9943 H   0  0  0  0  0  0
  -11.5468    3.4460   23.1464 H   0  0  0  0  0  0
   -7.3293    1.7656   25.6924 H   0  0  0  0  0  0
   -7.3446    0.0765   25.4060 H   0  0  0  0  0  0
   -8.4130    2.4216   28.1858 H   0  0  0  0  0  0
   -7.6651    2.1692   30.4933 H   0  0  0  0  0  0
   -5.1994   -1.1397   29.3462 H   0  0  0  0  0  0
   -6.0887   -1.0196   27.0537 H   0  0  0  0  0  0
  1  2  1  0  0  0
  1 29  1  0  0  0
  1 30  1  0  0  0
  1 31  1  0  0  0
  2  7  1  0  0  0
  2  3  1  0  0  0
  2 21  1  0  0  0
  3  4  2  0  0  0
  3  5  1  0  0  0
  5  6  1  0  0  0
  5 13  1  0  0  0
  6 10  2  0  0  0
  6  7  1  0  0  0
  7  8  1  0  0  0
  8  9  2  0  0  0
  8 32  1  0  0  0
  9 10  1  0  0  0
  9 11  1  0  0  0
 11 12  3  0  0  0
 13 18  1  0  0  0
 13 14  2  0  0  0
 14 15  1  0  0  0
 14 33  1  0  0  0
 15 16  2  0  0  0
 15 20  1  0  0  0
 16 17  1  0  0  0
 16 34  1  0  0  0
 17 18  2  0  0  0
 17 19  1  0  0  0
 18 35  1  0  0  0
 21 22  1  0  0  0
 21 36  1  0  0  0
 21 37  1  0  0  0
 22 27  1  0  0  0
 22 23  2  0  0  0
 23 24  1  0  0  0
 23 38  1  0  0  0
 24 25  2  0  0  0
 24 39  1  0  0  0
 25 26  1  0  0  0
 25 28  1  0  0  0
 26 27  2  0  0  0
 26 40  1  0  0  0
 27 41  1  0  0  0
M  END
> <s_m_entry_id>
8538

> <s_m_entry_name>
ligand_docking-pose.5

> <s_m_Source_Path>
/home/csk/Desktop/cluster/DUD-E-result/ital

> <s_m_Source_File>
ligand_docking-pose.sdf

> <i_m_Source_File_Index>
5

> <i_lp_mmshare_version>
53161

> <r_lp_tautomer_probability>
1

> <s_lp_Force_Field>
OPLS_2005

> <r_lp_Energy>
55.372562

> <b_lp_Chiralities_Consistent>
1

> <s_lp_Variant>
314379-2

> <s_i_glide_gridfile>
glide-grid_2ica

> <i_i_glide_lignum>
165

> <i_i_glide_rotatable_bonds>
3

> <r_i_docking_score>
-7.05299164343338

> <r_i_glide_ligand_efficiency>
-0.251892558694049

> <r_i_glide_ligand_efficiency_sa>
-0.764894164978298

> <r_i_glide_ligand_efficiency_ln>
-1.62803755613747

> <r_i_glide_gscore>
-7.05299164343338

> <r_i_glide_lipo>
-3.39316171337126

> <r_i_glide_hbond>
-0.38977908727162

> <r_i_glide_metal>
0

> <r_i_glide_rewards>
-1.01299976616376

> <r_i_glide_evdw>
-33.6355056762695

> <r_i_glide_ecoul>
-5.09166574478149

> <r_i_glide_erotb>
0.267918859886128

> <r_i_glide_esite>
-0.0794447909821606

> <r_i_glide_emodel>
-49.7350924636053

> <r_i_glide_energy>
-38.727171421051

> <r_i_glide_einternal>
8.57525539398193

> <i_i_glide_confnum>
21

> <i_i_glide_posenum>
35

> <r_i_glide_eff_state_penalty>
0

> <s_user_duplicate_titles>
314379

> <i_f3d_flags>
0

> <s_m_subgroup_title>
dock_pv

> <s_m_subgroupid>
dock_pv1

> <b_m_subgroup_collapsed>
0

$$$$
314229
                    3D
 Schrodinger Suite 2021-1.
 45 48  0  0  1  0            999 V2000
  -11.6668    5.8355   24.5903 C   0  0  0  0  0  0
  -11.9491    4.6922   25.5586 C   0  0  0  0  0  0
  -13.1153    4.3874   25.7955 O   0  0  0  0  0  0
  -10.7943    4.0073   26.1293 C   0  0  0  0  0  0
   -9.4257    4.1186   25.9132 C   0  0  0  0  0  0
   -8.7258    3.2181   26.5791 N   0  0  0  0  0  0
   -9.6189    2.6431   27.3396 C   0  0  0  0  0  0
  -10.8924    3.0397   27.1047 N   0  0  0  0  0  0
  -11.8294    2.3269   27.9341 C   0  0  1  0  0  0
  -10.8201    1.7051   28.9582 C   0  0  0  0  0  0
  -11.1201    1.2093   30.0482 O   0  0  0  0  0  0
   -9.5892    1.7435   28.3723 N   0  0  0  0  0  0
   -8.3930    1.1524   28.8171 C   0  0  0  0  0  0
   -7.6475    0.3629   27.9319 C   0  0  0  0  0  0
   -6.4435   -0.2127   28.3378 C   0  0  0  0  0  0
   -5.9657    0.0111   29.6287 C   0  0  0  0  0  0
   -6.6921    0.8110   30.5102 C   0  0  0  0  0  0
   -7.9057    1.3722   30.1090 C   0  0  0  0  0  0
   -6.0843    1.1155   32.0941 Cl  0  0  0  0  0  0
   -5.5372   -1.1895   27.2413 Cl  0  0  0  0  0  0
  -12.8190    3.2714   28.6671 C   0  0  0  0  0  0
  -12.5545    1.2263   27.0862 C   0  0  0  0  0  0
  -11.6538    0.0716   26.6568 C   0  0  0  0  0  0
  -11.5407   -1.0060   27.5244 C   0  0  0  0  0  0
  -10.5935   -1.9778   27.2954 C   0  0  0  0  0  0
   -9.7465   -1.8876   26.2050 C   0  0  0  0  0  0
   -9.8626   -0.8274   25.3020 C   0  0  0  0  0  0
  -10.8290    0.1557   25.5300 C   0  0  0  0  0  0
   -8.5290   -3.3105   25.9541 Br  0  0  0  0  0  0
  -11.1043    5.4715   23.7309 H   0  0  0  0  0  0
  -12.5972    6.2791   24.2351 H   0  0  0  0  0  0
  -11.0798    6.6100   25.0835 H   0  0  0  0  0  0
   -8.9350    4.8450   25.2940 H   0  0  0  0  0  0
   -7.9930    0.2043   26.9226 H   0  0  0  0  0  0
   -5.0281   -0.4255   29.9406 H   0  0  0  0  0  0
   -8.4571    2.0002   30.7937 H   0  0  0  0  0  0
  -13.1833    2.8491   29.6047 H   0  0  0  0  0  0
  -12.3768    4.2409   28.8938 H   0  0  0  0  0  0
  -13.7038    3.4687   28.0631 H   0  0  0  0  0  0
  -13.0071    1.6668   26.1959 H   0  0  0  0  0  0
  -13.4005    0.8228   27.6460 H   0  0  0  0  0  0
  -12.1289   -1.0575   28.4261 H   0  0  0  0  0  0
  -10.5290   -2.7891   27.9914 H   0  0  0  0  0  0
   -9.2124   -0.7723   24.4411 H   0  0  0  0  0  0
  -10.9012    1.0112   24.8771 H   0  0  0  0  0  0
  1  2  1  0  0  0
  1 30  1  0  0  0
  1 31  1  0  0  0
  1 32  1  0  0  0
  2  3  2  0  0  0
  2  4  1  0  0  0
  4  8  1  0  0  0
  4  5  2  0  0  0
  5  6  1  0  0  0
  5 33  1  0  0  0
  6  7  2  0  0  0
  7 12  1  0  0  0
  7  8  1  0  0  0
  8  9  1  0  0  0
  9 10  1  0  0  0
  9 21  1  0  0  0
  9 22  1  0  0  0
 10 11  2  0  0  0
 10 12  1  0  0  0
 12 13  1  0  0  0
 13 18  1  0  0  0
 13 14  2  0  0  0
 14 15  1  0  0  0
 14 34  1  0  0  0
 15 16  2  0  0  0
 15 20  1  0  0  0
 16 17  1  0  0  0
 16 35  1  0  0  0
 17 18  2  0  0  0
 17 19  1  0  0  0
 18 36  1  0  0  0
 21 37  1  0  0  0
 21 38  1  0  0  0
 21 39  1  0  0  0
 22 23  1  0  0  0
 22 40  1  0  0  0
 22 41  1  0  0  0
 23 28  1  0  0  0
 23 24  2  0  0  0
 24 25  1  0  0  0
 24 42  1  0  0  0
 25 26  2  0  0  0
 25 43  1  0  0  0
 26 27  1  0  0  0
 26 29  1  0  0  0
 27 28  2  0  0  0
 27 44  1  0  0  0
 28 45  1  0  0  0
M  END
> <s_m_entry_id>
8539

> <s_m_entry_name>
ligand_docking-pose.6

> <s_m_Source_Path>
/home/csk/Desktop/cluster/DUD-E-result/ital

> <s_m_Source_File>
ligand_docking-pose.sdf

> <i_m_Source_File_Index>
6

> <i_lp_mmshare_version>
53161

> <r_lp_tautomer_probability>
0.99995

> <s_lp_Force_Field>
OPLS_2005

> <r_lp_Energy>
58.738495

> <b_lp_Chiralities_Consistent>
1

> <s_lp_Variant>
314229-1

> <s_i_glide_gridfile>
glide-grid_2ica

> <i_i_glide_lignum>
345

> <i_i_glide_rotatable_bonds>
4

> <r_i_docking_score>
-7.05195297941

> <r_i_glide_ligand_efficiency>
-0.243170792393448

> <r_i_glide_ligand_efficiency_sa>
-0.747097716147185

> <r_i_glide_ligand_efficiency_ln>
-1.61471841018652

> <r_i_glide_gscore>
-7.05195297941

> <r_i_glide_lipo>
-4.00757822378921

> <r_i_glide_hbond>
0

> <r_i_glide_metal>
0

> <r_i_glide_rewards>
-1.25778107604173

> <r_i_glide_evdw>
-35.6660957336426

> <r_i_glide_ecoul>
-1.67331278324127

> <r_i_glide_erotb>
0.251243779893073

> <r_i_glide_esite>
-0.00353575530381079

> <r_i_glide_emodel>
-37.4418526185211

> <r_i_glide_energy>
-37.3394085168839

> <r_i_glide_einternal>
2.10566854476929

> <i_i_glide_confnum>
5

> <i_i_glide_posenum>
240

> <r_i_glide_eff_state_penalty>
0

> <s_user_duplicate_titles>
314229

> <i_f3d_flags>
0

> <s_m_subgroup_title>
dock_pv

> <s_m_subgroupid>
dock_pv1

> <b_m_subgroup_collapsed>
0

$$$$
99333
                    3D
 Schrodinger Suite 2021-1.
 32 33  0  0  1  0            999 V2000
   -4.9084   -0.7890   29.2939 C   0  0  0  0  0  0
   -5.7277    0.0185   30.0704 C   0  0  0  0  0  0
   -6.9358    0.4793   29.5561 C   0  0  0  0  0  0
   -7.3297    0.1191   28.2528 C   0  0  0  0  0  0
   -6.4914   -0.7033   27.4745 C   0  0  0  0  0  0
   -5.2844   -1.1537   28.0039 C   0  0  0  0  0  0
   -6.9005   -1.1885   25.8585 Cl  0  0  0  0  0  0
   -8.6378    0.5888   27.7003 C   0  0  0  0  0  0
   -9.6207   -0.1524   27.6940 O   0  0  0  0  0  0
   -8.6273    1.8513   27.2416 N   0  0  0  0  0  0
   -9.7615    2.5012   26.5780 C   0  0  1  0  0  0
   -9.3967    3.9602   26.2140 C   0  0  0  0  0  0
  -10.5711    4.9095   26.1754 C   0  0  0  0  0  0
  -11.1303    5.6249   25.1383 C   0  0  0  0  0  0
  -12.2076    6.3775   25.6102 N   0  0  0  0  0  0
  -12.2660    6.0885   26.9052 C   0  0  0  0  0  0
  -11.3290    5.2209   27.2942 N   0  0  0  0  0  0
  -10.1602    1.7168   25.3161 C   0  0  0  0  0  0
   -9.3460    1.3486   24.4939 O   0  0  0  0  0  0
  -11.5082    1.5148   25.2860 O   0  0  0  0  0  0
   -7.9181    1.4714   30.5817 Cl  0  0  0  0  0  0
  -10.5693    2.4957   27.3138 H   0  0  0  0  0  0
  -11.1814    4.8923   28.2440 H   0  0  0  0  0  0
   -3.9698   -1.1423   29.6944 H   0  0  0  0  0  0
   -5.4227    0.2888   31.0701 H   0  0  0  0  0  0
   -4.6349   -1.7829   27.4122 H   0  0  0  0  0  0
   -7.7714    2.3805   27.2984 H   0  0  0  0  0  0
   -8.9284    4.0100   25.2326 H   0  0  0  0  0  0
   -8.6394    4.3496   26.8907 H   0  0  0  0  0  0
  -10.8422    5.6609   24.0976 H   0  0  0  0  0  0
  -12.9985    6.5157   27.5759 H   0  0  0  0  0  0
  -11.9643    1.8817   26.0456 H   0  0  0  0  0  0
  1  6  1  0  0  0
  1  2  2  0  0  0
  1 24  1  0  0  0
  2  3  1  0  0  0
  2 25  1  0  0  0
  3  4  2  0  0  0
  3 21  1  0  0  0
  4  5  1  0  0  0
  4  8  1  0  0  0
  5  6  2  0  0  0
  5  7  1  0  0  0
  6 26  1  0  0  0
  8  9  2  0  0  0
  8 10  1  0  0  0
 10 11  1  0  0  0
 10 27  1  0  0  0
 11 22  1  0  0  0
 11 12  1  0  0  0
 11 18  1  0  0  0
 12 28  1  0  0  0
 12 29  1  0  0  0
 12 13  1  0  0  0
 13 14  2  0  0  0
 13 17  1  0  0  0
 14 30  1  0  0  0
 14 15  1  0  0  0
 15 16  2  0  0  0
 16 17  1  0  0  0
 16 31  1  0  0  0
 17 23  1  0  0  0
 18 19  2  0  0  0
 18 20  1  0  0  0
 20 32  1  0  0  0
M  END
> <s_m_entry_id>
8540

> <s_m_entry_name>
ligand_docking-pose.7

> <s_m_Source_Path>
/home/csk/Desktop/cluster/DUD-E-result/ital

> <s_m_Source_File>
ligand_docking-pose.sdf

> <i_m_Source_File_Index>
7

> <i_lp_mmshare_version>
53161

> <r_lp_tautomer_probability>
0.499999999999999

> <s_lp_Force_Field>
OPLS_2005

> <r_lp_Energy>
11.814434

> <b_lp_Chiralities_Consistent>
1

> <s_lp_Variant>
99333-2

> <s_i_glide_gridfile>
glide-grid_2ica

> <i_i_glide_lignum>
50

> <i_i_glide_rotatable_bonds>
7

> <r_i_docking_score>
-7.05192625526015

> <r_i_glide_ligand_efficiency>
-0.335806012155245

> <r_i_glide_ligand_efficiency_sa>
-0.926463324569026

> <r_i_glide_ligand_efficiency_ln>
-1.74357451685434

> <r_i_glide_gscore>
-7.05192625526015

> <r_i_glide_lipo>
-2.83217212238872

> <r_i_glide_hbond>
-0.533497924810929

> <r_i_glide_metal>
0

> <r_i_glide_rewards>
-2.25341007192697

> <r_i_glide_evdw>
-27.358678817749

> <r_i_glide_ecoul>
-4.83613252639771

> <r_i_glide_erotb>
0.697521167301486

> <r_i_glide_esite>
-0.0370134835879102

> <r_i_glide_emodel>
-44.6857182548479

> <r_i_glide_energy>
-32.1948113441467

> <r_i_glide_einternal>
4.838782787323

> <i_i_glide_confnum>
11

> <i_i_glide_posenum>
353

> <r_i_glide_eff_state_penalty>
0

> <s_user_duplicate_titles>
99333

> <i_f3d_flags>
0

> <s_m_subgroup_title>
dock_pv

> <s_m_subgroupid>
dock_pv1

> <b_m_subgroup_collapsed>
0

$$$$
215781
                    3D
 Schrodinger Suite 2021-1.
 47 49  0  0  1  0            999 V2000
   -9.6869   -3.9262   26.6565 C   0  0  0  0  0  0
   -8.3222   -3.8056   26.4944 C   0  0  0  0  0  0
   -7.7490   -2.5422   26.4946 C   0  0  0  0  0  0
   -8.5297   -1.3923   26.6248 C   0  0  0  0  0  0
   -9.9256   -1.4995   26.7943 C   0  0  0  0  0  0
  -10.4588   -2.7892   26.8937 C   0  0  0  0  0  0
  -10.8475   -0.3316   26.7654 C   0  0  0  0  0  0
  -12.2023   -0.3849   26.8230 C   0  0  0  0  0  0
  -13.0901    0.7501   26.8061 C   0  0  0  0  0  0
  -14.0462    0.8128   27.5722 O   0  0  0  0  0  0
  -12.8206    1.6889   25.8853 N   0  0  0  0  0  0
  -13.6070    2.9031   25.6287 C   0  0  0  0  0  0
  -13.8945    3.8386   26.8395 C   0  0  0  0  0  0
  -12.7642    4.0656   27.8783 C   0  0  0  0  0  0
  -11.4608    4.1548   27.2431 N   0  0  0  0  0  0
  -10.9747    5.1404   26.4239 C   0  0  0  0  0  0
   -9.7290    4.6801   26.0257 C   0  0  0  0  0  0
   -9.4490    3.4815   26.4958 N   0  0  0  0  0  0
  -10.4688    3.2099   27.2768 C   0  0  0  0  0  0
   -7.6929    0.1590   26.5081 S   0  0  0  0  0  0
   -7.0246    0.2871   28.1395 C   0  0  0  0  0  0
   -7.7419    1.0395   29.0699 C   0  0  0  0  0  0
   -7.2587    1.2109   30.3630 C   0  0  0  0  0  0
   -6.0434    0.6431   30.7307 C   0  0  0  0  0  0
   -5.3300   -0.1248   29.8116 C   0  0  0  0  0  0
   -5.8028   -0.3072   28.5121 C   0  0  0  0  0  0
   -4.7947   -1.1898   27.4160 Cl  0  0  0  0  0  0
   -5.4031    0.9283   32.3035 Cl  0  0  0  0  0  0
  -10.1465   -4.9025   26.6008 H   0  0  0  0  0  0
   -7.7251   -4.6892   26.3329 H   0  0  0  0  0  0
   -6.6903   -2.4660   26.3302 H   0  0  0  0  0  0
  -11.5231   -2.9428   26.8912 H   0  0  0  0  0  0
  -10.3695    0.6285   26.6762 H   0  0  0  0  0  0
  -12.7419   -1.3138   26.8942 H   0  0  0  0  0  0
  -12.0191    1.5471   25.2883 H   0  0  0  0  0  0
  -14.5516    2.6064   25.1634 H   0  0  0  0  0  0
  -13.0475    3.4643   24.8762 H   0  0  0  0  0  0
  -14.7667    3.4594   27.3735 H   0  0  0  0  0  0
  -14.2062    4.8059   26.4453 H   0  0  0  0  0  0
  -12.7334    3.2424   28.5937 H   0  0  0  0  0  0
  -12.9265    4.9806   28.4495 H   0  0  0  0  0  0
  -11.5421    6.0347   26.2100 H   0  0  0  0  0  0
   -9.0359    5.1909   25.3782 H   0  0  0  0  0  0
  -10.6052    2.3385   27.8951 H   0  0  0  0  0  0
   -8.6735    1.5058   28.7902 H   0  0  0  0  0  0
   -7.8167    1.8107   31.0656 H   0  0  0  0  0  0
   -4.3835   -0.5592   30.0917 H   0  0  0  0  0  0
  1  6  1  0  0  0
  1  2  2  0  0  0
  1 29  1  0  0  0
  2  3  1  0  0  0
  2 30  1  0  0  0
  3  4  2  0  0  0
  3 31  1  0  0  0
  4  5  1  0  0  0
  4 20  1  0  0  0
  5  6  2  0  0  0
  5  7  1  0  0  0
  6 32  1  0  0  0
  7  8  2  0  0  0
  7 33  1  0  0  0
  8  9  1  0  0  0
  8 34  1  0  0  0
  9 10  2  0  0  0
  9 11  1  0  0  0
 11 12  1  0  0  0
 11 35  1  0  0  0
 12 13  1  0  0  0
 12 36  1  0  0  0
 12 37  1  0  0  0
 13 14  1  0  0  0
 13 38  1  0  0  0
 13 39  1  0  0  0
 14 15  1  0  0  0
 14 40  1  0  0  0
 14 41  1  0  0  0
 15 19  1  0  0  0
 15 16  1  0  0  0
 16 17  2  0  0  0
 16 42  1  0  0  0
 17 18  1  0  0  0
 17 43  1  0  0  0
 18 19  2  0  0  0
 19 44  1  0  0  0
 20 21  1  0  0  0
 21 26  1  0  0  0
 21 22  2  0  0  0
 22 23  1  0  0  0
 22 45  1  0  0  0
 23 24  2  0  0  0
 23 46  1  0  0  0
 24 25  1  0  0  0
 24 28  1  0  0  0
 25 26  2  0  0  0
 25 47  1  0  0  0
 26 27  1  0  0  0
M  END
> <s_m_entry_id>
8541

> <s_m_entry_name>
ligand_docking-pose.8

> <s_m_Source_Path>
/home/csk/Desktop/cluster/DUD-E-result/ital

> <s_m_Source_File>
ligand_docking-pose.sdf

> <i_m_Source_File_Index>
8

> <i_lp_mmshare_version>
53161

> <r_lp_tautomer_probability>
1

> <s_lp_Force_Field>
OPLS_2005

> <r_lp_Energy>
19.270717

> <b_lp_Chiralities_Consistent>
1

> <s_lp_Variant>
215781-1

> <s_i_glide_gridfile>
glide-grid_2ica

> <i_i_glide_lignum>
45

> <i_i_glide_rotatable_bonds>
9

> <r_i_docking_score>
-7.04788893765277

> <r_i_glide_ligand_efficiency>
-0.251710319201885

> <r_i_glide_ligand_efficiency_sa>
-0.764340778546766

> <r_i_glide_ligand_efficiency_ln>
-1.62685970182136

> <r_i_glide_gscore>
-7.04788893765277

> <r_i_glide_lipo>
-4.67245882793456

> <r_i_glide_hbond>
0

> <r_i_glide_metal>
0

> <r_i_glide_rewards>
-1.49737149455869

> <r_i_glide_evdw>
-29.3719654083252

> <r_i_glide_ecoul>
-1.57427310943604

> <r_i_glide_erotb>
0.851517127764841

> <r_i_glide_esite>
-0.0248365060926862

> <r_i_glide_emodel>
-43.4935057411454

> <r_i_glide_energy>
-30.9462385177612

> <r_i_glide_einternal>
5.14282321929932

> <i_i_glide_confnum>
2

> <i_i_glide_posenum>
345

> <r_i_glide_eff_state_penalty>
0

> <s_user_duplicate_titles>
215781

> <i_f3d_flags>
0

> <s_m_subgroup_title>
dock_pv

> <s_m_subgroupid>
dock_pv1

> <b_m_subgroup_collapsed>
0

$$$$
291705
                    3D
 Schrodinger Suite 2021-1.
 72 76  0  0  1  0            999 V2000
  -10.1286   -1.9274   26.4942 C   0  0  0  0  0  0
  -10.7859   -0.8712   25.8734 C   0  0  0  0  0  0
  -10.2096    0.3832   25.8269 C   0  0  0  0  0  0
   -8.9772    0.6112   26.4437 C   0  0  0  0  0  0
   -8.2299   -0.4811   26.9347 C   0  0  0  0  0  0
   -8.8380   -1.7467   26.9513 C   0  0  0  0  0  0
   -7.0368   -0.3046   27.6241 N   0  0  0  0  0  0
   -6.0157   -1.3628   27.4936 C   0  0  0  0  0  0
   -4.7229   -1.0897   28.2559 C   0  0  0  0  0  0
   -4.9288   -0.6723   29.7188 C   0  0  0  0  0  0
   -6.0670    0.3408   29.9105 C   0  0  1  0  0  0
   -7.2933    0.0161   29.0336 C   0  0  0  0  0  0
   -6.4287    0.4812   31.4049 C   0  0  0  0  0  0
   -5.7529    0.0109   32.3146 O   0  0  0  0  0  0
   -7.5596    1.2111   31.6057 O   0  0  0  0  0  0
   -8.4226    2.2813   26.7063 S   0  0  0  0  0  0
   -9.7905    3.3088   26.2364 C   0  0  0  0  0  0
  -10.5778    3.8688   27.2285 C   0  0  0  0  0  0
  -11.5301    4.8270   26.9095 C   0  0  0  0  0  0
  -11.7827    5.1684   25.5775 C   0  0  0  0  0  0
  -11.0417    4.5427   24.5604 C   0  0  0  0  0  0
  -10.0464    3.6102   24.8998 C   0  0  0  0  0  0
   -9.1123    2.8111   23.6934 Cl  0  0  0  0  0  0
  -11.3084    4.9571   22.8981 Cl  0  0  0  0  0  0
  -12.8119    6.2604   25.2747 C   0  0  1  0  0  0
  -14.0572    6.0086   24.4545 C   0  0  0  0  0  0
  -14.1919    6.3745   25.9277 C   0  0  1  0  0  0
  -14.6582    5.2356   26.8564 C   0  0  0  0  0  0
  -14.8099    4.0880   26.4344 O   0  0  0  0  0  0
  -14.7957    5.5654   28.1529 N   0  0  0  0  0  0
  -15.0981    4.6281   29.2366 C   0  0  0  0  0  0
  -13.8968    4.3620   30.1728 C   0  0  0  0  0  0
  -13.8363    2.9130   30.7075 C   0  0  0  0  0  0
  -13.1140    2.0109   29.8177 N   0  0  0  0  0  0
  -13.6280    1.6789   28.4990 C   0  0  0  0  0  0
  -12.6918    0.6083   28.0080 C   0  0  0  0  0  0
  -11.4402    0.7732   28.8498 C   0  0  0  0  0  0
  -11.8762    1.5295   30.0936 C   0  0  0  0  0  0
  -11.2214    1.6115   31.1326 O   0  0  0  0  0  0
  -10.5952   -2.8990   26.5739 H   0  0  0  0  0  0
  -11.7702   -1.0070   25.4567 H   0  0  0  0  0  0
  -10.8009    1.1697   25.3898 H   0  0  0  0  0  0
   -8.3535   -2.6009   27.3951 H   0  0  0  0  0  0
   -6.3790   -2.3462   27.7776 H   0  0  0  0  0  0
   -5.7762   -1.4351   26.4327 H   0  0  0  0  0  0
   -4.1228   -1.9992   28.2385 H   0  0  0  0  0  0
   -4.1292   -0.3890   27.6940 H   0  0  0  0  0  0
   -5.2035   -1.5889   30.2124 H   0  0  0  0  0  0
   -3.9894   -0.2827   30.0939 H   0  0  0  0  0  0
   -5.7291    1.3304   29.6941 H   0  0  0  0  0  0
   -8.0586    0.7885   29.1302 H   0  0  0  0  0  0
   -7.7285   -0.9079   29.3564 H   0  0  0  0  0  0
   -7.9172    1.5690   30.7910 H   0  0  0  0  0  0
  -10.4093    3.6113   28.2627 H   0  0  0  0  0  0
  -12.0598    5.3114   27.7137 H   0  0  0  0  0  0
  -12.3277    7.2197   25.0855 H   0  0  0  0  0  0
  -14.2604    4.9940   24.1058 H   0  0  0  0  0  0
  -14.3510    6.7468   23.7069 H   0  0  0  0  0  0
  -14.5804    7.3618   26.1765 H   0  0  0  0  0  0
  -14.6890    6.5344   28.4148 H   0  0  0  0  0  0
  -15.4833    3.6905   28.8288 H   0  0  0  0  0  0
  -15.9048    5.0575   29.8270 H   0  0  0  0  0  0
  -13.9940    5.0427   31.0193 H   0  0  0  0  0  0
  -12.9440    4.6186   29.7069 H   0  0  0  0  0  0
  -14.8505    2.5407   30.8597 H   0  0  0  0  0  0
  -13.3789    2.8645   31.6936 H   0  0  0  0  0  0
  -14.6650    1.3388   28.5276 H   0  0  0  0  0  0
  -13.5689    2.5568   27.8571 H   0  0  0  0  0  0
  -12.5556    0.7248   26.9360 H   0  0  0  0  0  0
  -13.1034   -0.3862   28.1744 H   0  0  0  0  0  0
  -10.7110    1.4030   28.3547 H   0  0  0  0  0  0
  -10.9392   -0.1667   29.0820 H   0  0  0  0  0  0
  1  6  1  0  0  0
  1  2  2  0  0  0
  1 40  1  0  0  0
  2  3  1  0  0  0
  2 41  1  0  0  0
  3  4  2  0  0  0
  3 42  1  0  0  0
  4  5  1  0  0  0
  4 16  1  0  0  0
  5  6  2  0  0  0
  5  7  1  0  0  0
  6 43  1  0  0  0
  7 12  1  0  0  0
  7  8  1  0  0  0
  8  9  1  0  0  0
  8 44  1  0  0  0
  8 45  1  0  0  0
  9 10  1  0  0  0
  9 46  1  0  0  0
  9 47  1  0  0  0
 10 11  1  0  0  0
 10 48  1  0  0  0
 10 49  1  0  0  0
 11 12  1  0  0  0
 11 13  1  0  0  0
 11 50  1  0  0  0
 12 51  1  0  0  0
 12 52  1  0  0  0
 13 14  2  0  0  0
 13 15  1  0  0  0
 15 53  1  0  0  0
 16 17  1  0  0  0
 17 22  1  0  0  0
 17 18  2  0  0  0
 18 19  1  0  0  0
 18 54  1  0  0  0
 19 20  2  0  0  0
 19 55  1  0  0  0
 20 21  1  0  0  0
 20 25  1  0  0  0
 21 22  2  0  0  0
 21 24  1  0  0  0
 22 23  1  0  0  0
 25 27  1  0  0  0
 25 26  1  0  0  0
 25 56  1  0  0  0
 26 27  1  0  0  0
 26 57  1  0  0  0
 26 58  1  0  0  0
 27 28  1  0  0  0
 27 59  1  0  0  0
 28 29  2  0  0  0
 28 30  1  0  0  0
 30 31  1  0  0  0
 30 60  1  0  0  0
 31 32  1  0  0  0
 31 61  1  0  0  0
 31 62  1  0  0  0
 32 33  1  0  0  0
 32 63  1  0  0  0
 32 64  1  0  0  0
 33 34  1  0  0  0
 33 65  1  0  0  0
 33 66  1  0  0  0
 34 38  1  0  0  0
 34 35  1  0  0  0
 35 36  1  0  0  0
 35 67  1  0  0  0
 35 68  1  0  0  0
 36 37  1  0  0  0
 36 69  1  0  0  0
 36 70  1  0  0  0
 37 38  1  0  0  0
 37 71  1  0  0  0
 37 72  1  0  0  0
 38 39  2  0  0  0
M  END
> <s_m_entry_id>
8542

> <s_m_entry_name>
ligand_docking-pose.9

> <s_m_Source_Path>
/home/csk/Desktop/cluster/DUD-E-result/ital

> <s_m_Source_File>
ligand_docking-pose.sdf

> <i_m_Source_File_Index>
9

> <i_lp_mmshare_version>
53161

> <r_lp_tautomer_probability>
1

> <s_lp_Force_Field>
OPLS_2005

> <r_lp_Energy>
46.795503

> <b_lp_Chiralities_Consistent>
1

> <s_lp_Variant>
291705-3

> <s_i_glide_gridfile>
glide-grid_2ica

> <i_i_glide_lignum>
86

> <i_i_glide_rotatable_bonds>
12

> <r_i_docking_score>
-6.95542149894195

> <r_i_glide_ligand_efficiency>
-0.178344140998512

> <r_i_glide_ligand_efficiency_sa>
-0.604802691010107

> <r_i_glide_ligand_efficiency_ln>
-1.49143981075373

> <r_i_glide_gscore>
-6.95542149894195

> <r_i_glide_lipo>
-3.69645781899496

> <r_i_glide_hbond>
-0.0121782769862594

> <r_i_glide_metal>
0

> <r_i_glide_rewards>
-1.44719812450756

> <r_i_glide_evdw>
-26.4532604217529

> <r_i_glide_ecoul>
-5.90206909179688

> <r_i_glide_erotb>
0.491946028170595

> <r_i_glide_esite>
-0.0835599217665927

> <r_i_glide_emodel>
-30.1200901758949

> <r_i_glide_energy>
-32.3553295135498

> <r_i_glide_einternal>
9.05475616455078

> <i_i_glide_confnum>
49

> <i_i_glide_posenum>
373

> <r_i_glide_eff_state_penalty>
0

> <s_user_duplicate_titles>
291705

> <i_f3d_flags>
0

> <s_m_subgroup_title>
dock_pv

> <s_m_subgroupid>
dock_pv1

> <b_m_subgroup_collapsed>
0

$$$$
215980
                    3D
 Schrodinger Suite 2021-1.
 45 46  0  0  1  0            999 V2000
   -9.6832    2.5055   25.1120 C   0  0  0  0  0  0
   -8.6277    1.6530   25.4227 C   0  0  0  0  0  0
   -8.8778    0.3774   25.9240 C   0  0  0  0  0  0
  -10.1992   -0.0486   26.1206 C   0  0  0  0  0  0
  -11.2514    0.8069   25.7931 C   0  0  0  0  0  0
  -11.0085    2.0913   25.2941 C   0  0  0  0  0  0
  -12.1529    2.9844   25.0370 C   0  0  0  0  0  0
  -12.0869    4.3266   24.9074 C   0  0  0  0  0  0
  -13.2655    5.1388   24.7014 C   0  0  0  0  0  0
  -14.2474    4.6710   24.1174 O   0  0  0  0  0  0
  -13.2386    6.4195   25.1749 N   0  0  0  0  0  0
  -12.1314    7.0563   25.9287 C   0  0  0  0  0  0
  -12.0439    6.7254   27.4409 C   0  0  0  0  0  0
  -11.7336    5.3684   27.6941 O   0  0  0  0  0  0
  -14.3850    7.3202   24.9327 C   0  0  0  0  0  0
  -14.2449    8.2467   23.7025 C   0  0  0  0  0  0
  -14.0473    7.5115   22.5089 O   0  0  0  0  0  0
  -10.5728   -1.5948   26.8050 Cl  0  0  0  0  0  0
   -7.4997   -0.6543   26.3324 S   0  0  0  0  0  0
   -6.9547   -0.0704   27.9278 C   0  0  0  0  0  0
   -7.7404    0.8097   28.6895 C   0  0  0  0  0  0
   -7.3295    1.2108   29.9599 C   0  0  0  0  0  0
   -6.1281    0.7410   30.4861 C   0  0  0  0  0  0
   -5.3289   -0.1079   29.7209 C   0  0  0  0  0  0
   -5.7290   -0.5145   28.4500 C   0  0  0  0  0  0
   -4.6841   -1.5889   27.5791 Cl  0  0  0  0  0  0
   -5.6267    1.2107   32.0694 Cl  0  0  0  0  0  0
   -9.4543    3.4924   24.7376 H   0  0  0  0  0  0
   -7.6130    1.9986   25.2942 H   0  0  0  0  0  0
  -12.2655    0.4731   25.9601 H   0  0  0  0  0  0
  -13.1163    2.4968   24.9564 H   0  0  0  0  0  0
  -11.1459    4.8461   24.9793 H   0  0  0  0  0  0
  -12.2637    8.1365   25.8604 H   0  0  0  0  0  0
  -11.1696    6.8880   25.4458 H   0  0  0  0  0  0
  -13.0142    6.9075   27.9066 H   0  0  0  0  0  0
  -11.3296    7.3786   27.9439 H   0  0  0  0  0  0
  -11.5597    5.2379   28.6366 H   0  0  0  0  0  0
  -15.3195    6.7635   24.8437 H   0  0  0  0  0  0
  -14.5249    7.9423   25.8176 H   0  0  0  0  0  0
  -15.1064    8.9078   23.6031 H   0  0  0  0  0  0
  -13.3552    8.8682   23.8149 H   0  0  0  0  0  0
  -13.8525    8.1203   21.7903 H   0  0  0  0  0  0
   -8.6890    1.1767   28.3276 H   0  0  0  0  0  0
   -7.9491    1.8811   30.5360 H   0  0  0  0  0  0
   -4.3837   -0.4625   30.0946 H   0  0  0  0  0  0
  1  6  1  0  0  0
  1  2  2  0  0  0
  1 28  1  0  0  0
  2  3  1  0  0  0
  2 29  1  0  0  0
  3  4  2  0  0  0
  3 19  1  0  0  0
  4  5  1  0  0  0
  4 18  1  0  0  0
  5  6  2  0  0  0
  5 30  1  0  0  0
  6  7  1  0  0  0
  7  8  2  0  0  0
  7 31  1  0  0  0
  8  9  1  0  0  0
  8 32  1  0  0  0
  9 10  2  0  0  0
  9 11  1  0  0  0
 11 12  1  0  0  0
 11 15  1  0  0  0
 12 13  1  0  0  0
 12 33  1  0  0  0
 12 34  1  0  0  0
 13 14  1  0  0  0
 13 35  1  0  0  0
 13 36  1  0  0  0
 14 37  1  0  0  0
 15 16  1  0  0  0
 15 38  1  0  0  0
 15 39  1  0  0  0
 16 17  1  0  0  0
 16 40  1  0  0  0
 16 41  1  0  0  0
 17 42  1  0  0  0
 19 20  1  0  0  0
 20 25  1  0  0  0
 20 21  2  0  0  0
 21 22  1  0  0  0
 21 43  1  0  0  0
 22 23  2  0  0  0
 22 44  1  0  0  0
 23 24  1  0  0  0
 23 27  1  0  0  0
 24 25  2  0  0  0
 24 45  1  0  0  0
 25 26  1  0  0  0
M  END
> <s_m_entry_id>
8543

> <s_m_entry_name>
ligand_docking-pose.10

> <s_m_Source_Path>
/home/csk/Desktop/cluster/DUD-E-result/ital

> <s_m_Source_File>
ligand_docking-pose.sdf

> <i_m_Source_File_Index>
10

> <i_lp_mmshare_version>
53161

> <r_lp_tautomer_probability>
1

> <s_lp_Force_Field>
OPLS_2005

> <r_lp_Energy>
25.237913

> <b_lp_Chiralities_Consistent>
1

> <s_lp_Variant>
215980-1

> <s_i_glide_gridfile>
glide-grid_2ica

> <i_i_glide_lignum>
46

> <i_i_glide_rotatable_bonds>
11

> <r_i_docking_score>
-6.95380840311001

> <r_i_glide_ligand_efficiency>
-0.257548459374445

> <r_i_glide_ligand_efficiency_sa>
-0.772645377274497

> <r_i_glide_ligand_efficiency_ln>
-1.61873195375269

> <r_i_glide_gscore>
-6.95380840311001

> <r_i_glide_lipo>
-3.70886432052709

> <r_i_glide_hbond>
-0.32

> <r_i_glide_metal>
0

> <r_i_glide_rewards>
-1.30157589459257

> <r_i_glide_evdw>
-36.5214004516602

> <r_i_glide_ecoul>
-4.66620063781738

> <r_i_glide_erotb>
0.902631930265261

> <r_i_glide_esite>
0

> <r_i_glide_emodel>
-55.5424468146274

> <r_i_glide_energy>
-41.1876010894775

> <r_i_glide_einternal>
3.72068381309509

> <i_i_glide_confnum>
148

> <i_i_glide_posenum>
14

> <r_i_glide_eff_state_penalty>
0

> <s_user_duplicate_titles>
215980

> <i_f3d_flags>
0

> <s_m_subgroup_title>
dock_pv

> <s_m_subgroupid>
dock_pv1

> <b_m_subgroup_collapsed>
0

$$$$
99879
                    3D
 Schrodinger Suite 2021-1.
 39 41  0  0  1  0            999 V2000
  -12.5290    5.4580   22.4607 C   0  0  0  0  0  0
  -13.4671    6.4107   22.8992 C   0  0  0  0  0  0
  -13.4899    6.8007   24.2495 C   0  0  0  0  0  0
  -12.5716    6.2242   25.1447 C   0  0  0  0  0  0
  -11.5978    5.2625   24.7311 C   0  0  0  0  0  0
  -11.6012    4.8968   23.3631 C   0  0  0  0  0  0
  -10.8066    4.8775   25.8988 C   0  0  0  0  0  0
  -11.3289    5.5660   26.9400 C   0  0  0  0  0  0
  -12.3559    6.3708   26.4985 N   0  0  0  0  0  0
   -9.6838    3.8796   25.9902 C   0  0  0  0  0  0
  -10.0492    2.5285   26.6570 C   0  0  1  0  0  0
  -10.9055    1.6738   25.6957 C   0  0  0  0  0  0
  -10.4240    0.9023   24.8940 O   0  0  0  0  0  0
  -12.2322    1.9405   25.8656 O   0  0  0  0  0  0
   -8.8273    1.8443   27.1174 N   0  0  0  0  0  0
   -8.7591    0.5831   27.5911 C   0  0  0  0  0  0
   -9.7180   -0.1812   27.6942 O   0  0  0  0  0  0
   -7.4042    0.1371   28.0595 C   0  0  0  0  0  0
   -6.5968   -0.6796   27.2414 C   0  0  0  0  0  0
   -5.3638   -1.1339   27.7127 C   0  0  0  0  0  0
   -4.9291   -0.7899   28.9894 C   0  0  0  0  0  0
   -5.7226    0.0111   29.8044 C   0  0  0  0  0  0
   -6.9506    0.4815   29.3474 C   0  0  0  0  0  0
   -7.8883    1.4551   30.4333 Cl  0  0  0  0  0  0
   -7.0749   -1.1656   25.6468 Cl  0  0  0  0  0  0
  -12.8805    6.9748   27.1154 H   0  0  0  0  0  0
  -10.6194    2.7253   27.5677 H   0  0  0  0  0  0
  -12.5277    5.1558   21.4245 H   0  0  0  0  0  0
  -14.1711    6.8380   22.2005 H   0  0  0  0  0  0
  -14.2109    7.5266   24.5947 H   0  0  0  0  0  0
  -10.8916    4.1659   23.0055 H   0  0  0  0  0  0
  -10.9788    5.4915   27.9604 H   0  0  0  0  0  0
   -8.8489    4.3668   26.4951 H   0  0  0  0  0  0
   -9.3081    3.7016   24.9801 H   0  0  0  0  0  0
  -12.3942    2.6302   26.5098 H   0  0  0  0  0  0
   -7.9750    2.3821   27.0779 H   0  0  0  0  0  0
   -4.7445   -1.7674   27.0918 H   0  0  0  0  0  0
   -3.9864   -1.1675   29.3568 H   0  0  0  0  0  0
   -5.3829    0.2632   30.7985 H   0  0  0  0  0  0
  1  6  1  0  0  0
  1  2  2  0  0  0
  1 28  1  0  0  0
  2  3  1  0  0  0
  2 29  1  0  0  0
  3  4  2  0  0  0
  3 30  1  0  0  0
  4  9  1  0  0  0
  4  5  1  0  0  0
  5  6  2  0  0  0
  5  7  1  0  0  0
  6 31  1  0  0  0
  7  8  2  0  0  0
  7 10  1  0  0  0
  8  9  1  0  0  0
  8 32  1  0  0  0
  9 26  1  0  0  0
 10 11  1  0  0  0
 10 33  1  0  0  0
 10 34  1  0  0  0
 11 27  1  0  0  0
 11 12  1  0  0  0
 11 15  1  0  0  0
 12 13  2  0  0  0
 12 14  1  0  0  0
 14 35  1  0  0  0
 15 16  1  0  0  0
 15 36  1  0  0  0
 16 17  2  0  0  0
 16 18  1  0  0  0
 18 23  1  0  0  0
 18 19  2  0  0  0
 19 20  1  0  0  0
 19 25  1  0  0  0
 20 21  2  0  0  0
 20 37  1  0  0  0
 21 22  1  0  0  0
 21 38  1  0  0  0
 22 23  2  0  0  0
 22 39  1  0  0  0
 23 24  1  0  0  0
M  END
> <s_m_entry_id>
8544

> <s_m_entry_name>
ligand_docking-pose.11

> <s_m_Source_Path>
/home/csk/Desktop/cluster/DUD-E-result/ital

> <s_m_Source_File>
ligand_docking-pose.sdf

> <i_m_Source_File_Index>
11

> <i_lp_mmshare_version>
53161

> <r_lp_tautomer_probability>
1

> <s_lp_Force_Field>
OPLS_2005

> <r_lp_Energy>
10.892187

> <b_lp_Chiralities_Consistent>
1

> <s_lp_Variant>
99879-1

> <s_i_glide_gridfile>
glide-grid_2ica

> <i_i_glide_lignum>
7

> <i_i_glide_rotatable_bonds>
7

> <r_i_docking_score>
-6.94295639642156

> <r_i_glide_ligand_efficiency>
-0.277718255856862

> <r_i_glide_ligand_efficiency_sa>
-0.812053105479705

> <r_i_glide_ligand_efficiency_ln>
-1.64568872956541

> <r_i_glide_gscore>
-6.94295639642156

> <r_i_glide_lipo>
-3.50110651702474

> <r_i_glide_hbond>
-0.187682586645794

> <r_i_glide_metal>
0

> <r_i_glide_rewards>
-1.90474385631961

> <r_i_glide_evdw>
-32.1998596191406

> <r_i_glide_ecoul>
-1.89214491844177

> <r_i_glide_erotb>
0.544391282291889

> <r_i_glide_esite>
0

> <r_i_glide_emodel>
-46.8738372992022

> <r_i_glide_energy>
-34.0920045375824

> <r_i_glide_einternal>
2.98232531547546

> <i_i_glide_confnum>
11

> <i_i_glide_posenum>
77

> <r_i_glide_eff_state_penalty>
0

> <s_user_duplicate_titles>
99879

> <i_f3d_flags>
0

> <s_m_subgroup_title>
dock_pv

> <s_m_subgroupid>
dock_pv1

> <b_m_subgroup_collapsed>
0

$$$$
99764
                    3D
 Schrodinger Suite 2021-1.
 39 41  0  0  1  0            999 V2000
  -14.0586    2.0834   25.4175 C   0  0  0  0  0  0
  -14.6175    2.0114   26.7082 C   0  0  0  0  0  0
  -14.0067    1.2152   27.6939 C   0  0  0  0  0  0
  -12.8345    0.5094   27.3750 C   0  0  0  0  0  0
  -12.2332    0.5692   26.0832 C   0  0  0  0  0  0
  -12.8822    1.3716   25.1126 C   0  0  0  0  0  0
  -11.0157   -0.2395   26.1067 C   0  0  0  0  0  0
  -10.9437   -0.7751   27.3444 C   0  0  0  0  0  0
  -12.0059   -0.3253   28.0949 N   0  0  0  0  0  0
   -9.9741   -0.3899   25.0387 C   0  0  0  0  0  0
   -8.8216    0.6647   25.0130 C   0  0  1  0  0  0
   -9.3330    2.1101   24.8087 C   0  0  0  0  0  0
   -9.3273    2.6577   23.7284 O   0  0  0  0  0  0
   -9.8245    2.6459   25.9671 O   0  0  0  0  0  0
   -7.9985    0.6290   26.2230 N   0  0  0  0  0  0
   -7.4232   -0.4267   26.8143 C   0  0  0  0  0  0
   -7.4493   -1.5726   26.3666 O   0  0  0  0  0  0
   -6.7587   -0.1122   28.1272 C   0  0  0  0  0  0
   -7.4153    0.6952   29.0796 C   0  0  0  0  0  0
   -6.8315    0.9531   30.3157 C   0  0  0  0  0  0
   -5.5936    0.4069   30.6278 C   0  0  0  0  0  0
   -4.9346   -0.3891   29.6937 C   0  0  0  0  0  0
   -5.4931   -0.6420   28.4447 C   0  0  0  0  0  0
   -4.5538   -1.5877   27.3363 Cl  0  0  0  0  0  0
   -8.6388    1.2256   28.8365 F   0  0  0  0  0  0
  -12.1412   -0.5978   29.0559 H   0  0  0  0  0  0
   -8.1635    0.4258   24.1746 H   0  0  0  0  0  0
  -14.5290    2.6945   24.6610 H   0  0  0  0  0  0
  -15.5112    2.5691   26.9403 H   0  0  0  0  0  0
  -14.4308    1.1598   28.6854 H   0  0  0  0  0  0
  -12.4681    1.4521   24.1190 H   0  0  0  0  0  0
  -10.1524   -1.4281   27.6852 H   0  0  0  0  0  0
  -10.5094   -0.3880   24.0941 H   0  0  0  0  0  0
   -9.5720   -1.4008   25.1030 H   0  0  0  0  0  0
   -9.9004    1.9934   26.6687 H   0  0  0  0  0  0
   -7.8533    1.5281   26.6581 H   0  0  0  0  0  0
   -7.3462    1.5770   31.0324 H   0  0  0  0  0  0
   -5.1434    0.6096   31.5890 H   0  0  0  0  0  0
   -3.9707   -0.8111   29.9286 H   0  0  0  0  0  0
  1  6  1  0  0  0
  1  2  2  0  0  0
  1 28  1  0  0  0
  2  3  1  0  0  0
  2 29  1  0  0  0
  3  4  2  0  0  0
  3 30  1  0  0  0
  4  9  1  0  0  0
  4  5  1  0  0  0
  5  6  2  0  0  0
  5  7  1  0  0  0
  6 31  1  0  0  0
  7  8  2  0  0  0
  7 10  1  0  0  0
  8  9  1  0  0  0
  8 32  1  0  0  0
  9 26  1  0  0  0
 10 11  1  0  0  0
 10 33  1  0  0  0
 10 34  1  0  0  0
 11 27  1  0  0  0
 11 12  1  0  0  0
 11 15  1  0  0  0
 12 13  2  0  0  0
 12 14  1  0  0  0
 14 35  1  0  0  0
 15 16  1  0  0  0
 15 36  1  0  0  0
 16 17  2  0  0  0
 16 18  1  0  0  0
 18 23  1  0  0  0
 18 19  2  0  0  0
 19 20  1  0  0  0
 19 25  1  0  0  0
 20 21  2  0  0  0
 20 37  1  0  0  0
 21 22  1  0  0  0
 21 38  1  0  0  0
 22 23  2  0  0  0
 22 39  1  0  0  0
 23 24  1  0  0  0
M  END
> <s_m_entry_id>
8545

> <s_m_entry_name>
ligand_docking-pose.12

> <s_m_Source_Path>
/home/csk/Desktop/cluster/DUD-E-result/ital

> <s_m_Source_File>
ligand_docking-pose.sdf

> <i_m_Source_File_Index>
12

> <i_lp_mmshare_version>
53161

> <r_lp_tautomer_probability>
1

> <s_lp_Force_Field>
OPLS_2005

> <r_lp_Energy>
11.353418

> <b_lp_Chiralities_Consistent>
1

> <s_lp_Variant>
99764-1

> <s_i_glide_gridfile>
glide-grid_2ica

> <i_i_glide_lignum>
8

> <i_i_glide_rotatable_bonds>
7

> <r_i_docking_score>
-6.92570770964638

> <r_i_glide_ligand_efficiency>
-0.277028308385855

> <r_i_glide_ligand_efficiency_sa>
-0.81003568683821

> <r_i_glide_ligand_efficiency_ln>
-1.64160027389826

> <r_i_glide_gscore>
-6.92570770964638

> <r_i_glide_lipo>
-3.06798957101052

> <r_i_glide_hbond>
-0.32

> <r_i_glide_metal>
0

> <r_i_glide_rewards>
-2.41557844459744

> <r_i_glide_evdw>
-32.737133026123

> <r_i_glide_ecoul>
-0.328472435474396

> <r_i_glide_erotb>
0.589547844451517

> <r_i_glide_esite>
-0.0255600218626352

> <r_i_glide_emodel>
-45.4526223995529

> <r_i_glide_energy>
-33.0656054615974

> <r_i_glide_einternal>
2.89237952232361

> <i_i_glide_confnum>
6

> <i_i_glide_posenum>
279

> <r_i_glide_eff_state_penalty>
0

> <s_user_duplicate_titles>
99764

> <i_f3d_flags>
0

> <s_m_subgroup_title>
dock_pv

> <s_m_subgroupid>
dock_pv1

> <b_m_subgroup_collapsed>
0

$$$$
161811
                    3D
 Schrodinger Suite 2021-1.
 58 60  0  0  1  0            999 V2000
   -8.1536    2.2445   27.8658 C   0  0  0  0  0  0
   -8.3556    1.0690   28.8345 C   0  0  0  0  0  0
   -8.4289    1.5869   30.2868 C   0  0  0  0  0  0
   -7.2958    0.0014   28.5521 C   0  0  0  0  0  0
   -6.0867    0.0703   29.2555 C   0  0  0  0  0  0
   -5.0330   -0.7871   28.9707 C   0  0  0  0  0  0
   -5.1607   -1.7255   27.9588 C   0  0  0  0  0  0
   -6.3745   -1.8600   27.2940 C   0  0  0  0  0  0
   -7.4550   -1.0269   27.5872 C   0  0  0  0  0  0
   -8.9989   -1.5133   26.8302 S   0  0  0  0  0  0
   -9.8050   -0.0512   26.2344 C   0  0  0  0  0  0
   -9.1621    0.6575   25.2156 C   0  0  0  0  0  0
   -9.7239    1.8221   24.6978 C   0  0  0  0  0  0
  -11.0096    2.2011   25.0840 C   0  0  0  0  0  0
  -11.6466    1.5007   26.1028 C   0  0  0  0  0  0
  -11.0556    0.3967   26.7325 C   0  0  0  0  0  0
  -11.7596   -0.1810   27.9165 N   0  3  0  0  0  0
  -11.3303   -1.1794   28.4799 O   0  5  0  0  0  0
  -12.7551    0.4072   28.3331 O   0  0  0  0  0  0
  -11.7421    3.3078   24.4663 C   0  0  0  0  0  0
  -11.2022    4.3982   23.8949 C   0  0  0  0  0  0
  -12.0354    5.4137   23.3001 C   0  0  0  0  0  0
  -11.9213    5.6181   22.0947 O   0  0  0  0  0  0
  -12.9236    6.0913   24.0878 N   0  0  0  0  0  0
  -13.6973    7.2235   23.5410 C   0  0  0  0  0  0
  -13.1196    8.5259   24.1546 C   0  0  0  0  0  0
  -13.0706    8.5084   25.7002 C   0  0  0  0  0  0
  -12.3778    7.2064   26.1768 C   0  0  2  0  0  0
  -13.0404    5.9554   25.5569 C   0  0  0  0  0  0
  -12.3414    7.0665   27.7115 C   0  0  0  0  0  0
  -12.9221    7.8183   28.4881 O   0  0  0  0  0  0
  -11.5744    6.0064   28.0940 O   0  0  0  0  0  0
   -7.8332    1.9314   26.8776 H   0  0  0  0  0  0
   -9.0535    2.8486   27.7631 H   0  0  0  0  0  0
   -7.3363    2.8682   28.2051 H   0  0  0  0  0  0
   -9.3211    0.6092   28.6713 H   0  0  0  0  0  0
   -8.2666    0.8113   31.0244 H   0  0  0  0  0  0
   -7.6815    2.3541   30.4768 H   0  0  0  0  0  0
   -9.4078    2.0174   30.4904 H   0  0  0  0  0  0
   -5.9336    0.8199   30.0173 H   0  0  0  0  0  0
   -4.1232   -0.7140   29.5410 H   0  0  0  0  0  0
   -4.3371   -2.3877   27.7341 H   0  0  0  0  0  0
   -6.4916   -2.6517   26.5694 H   0  0  0  0  0  0
   -8.1971    0.3291   24.8536 H   0  0  0  0  0  0
   -9.1901    2.3751   23.9395 H   0  0  0  0  0  0
  -12.6220    1.8412   26.4251 H   0  0  0  0  0  0
  -12.8195    3.1982   24.4657 H   0  0  0  0  0  0
  -10.1364    4.5581   23.8486 H   0  0  0  0  0  0
  -14.7307    7.0897   23.8646 H   0  0  0  0  0  0
  -13.7434    7.2282   22.4501 H   0  0  0  0  0  0
  -13.7109    9.3760   23.8167 H   0  0  0  0  0  0
  -12.1192    8.7056   23.7631 H   0  0  0  0  0  0
  -14.1107    8.5442   26.0352 H   0  0  0  0  0  0
  -12.5229    9.3981   26.0201 H   0  0  0  0  0  0
  -11.3298    7.2500   25.8816 H   0  0  0  0  0  0
  -12.6581    5.0164   25.9470 H   0  0  0  0  0  0
  -14.1020    5.9237   25.8077 H   0  0  0  0  0  0
  -11.5308    5.8786   29.0482 H   0  0  0  0  0  0
  1  2  1  0  0  0
  1 33  1  0  0  0
  1 34  1  0  0  0
  1 35  1  0  0  0
  2  3  1  0  0  0
  2  4  1  0  0  0
  2 36  1  0  0  0
  3 37  1  0  0  0
  3 38  1  0  0  0
  3 39  1  0  0  0
  4  9  1  0  0  0
  4  5  2  0  0  0
  5  6  1  0  0  0
  5 40  1  0  0  0
  6  7  2  0  0  0
  6 41  1  0  0  0
  7  8  1  0  0  0
  7 42  1  0  0  0
  8  9  2  0  0  0
  8 43  1  0  0  0
  9 10  1  0  0  0
 10 11  1  0  0  0
 11 16  1  0  0  0
 11 12  2  0  0  0
 12 13  1  0  0  0
 12 44  1  0  0  0
 13 14  2  0  0  0
 13 45  1  0  0  0
 14 15  1  0  0  0
 14 20  1  0  0  0
 15 16  2  0  0  0
 15 46  1  0  0  0
 16 17  1  0  0  0
 17 18  1  0  0  0
 17 19  2  0  0  0
 20 21  2  0  0  0
 20 47  1  0  0  0
 21 22  1  0  0  0
 21 48  1  0  0  0
 22 23  2  0  0  0
 22 24  1  0  0  0
 24 29  1  0  0  0
 24 25  1  0  0  0
 25 26  1  0  0  0
 25 49  1  0  0  0
 25 50  1  0  0  0
 26 27  1  0  0  0
 26 51  1  0  0  0
 26 52  1  0  0  0
 27 28  1  0  0  0
 27 53  1  0  0  0
 27 54  1  0  0  0
 28 29  1  0  0  0
 28 30  1  0  0  0
 28 55  1  0  0  0
 29 56  1  0  0  0
 29 57  1  0  0  0
 30 31  2  0  0  0
 30 32  1  0  0  0
 32 58  1  0  0  0
M  CHG  2  17   1  18  -1
M  END
> <s_m_entry_id>
8546

> <s_m_entry_name>
ligand_docking-pose.13

> <s_m_Source_Path>
/home/csk/Desktop/cluster/DUD-E-result/ital

> <s_m_Source_File>
ligand_docking-pose.sdf

> <i_m_Source_File_Index>
13

> <i_lp_mmshare_version>
53161

> <r_lp_tautomer_probability>
1

> <s_lp_Force_Field>
OPLS_2005

> <r_lp_Energy>
46.984679

> <b_lp_Chiralities_Consistent>
1

> <s_lp_Variant>
161811-2

> <s_i_glide_gridfile>
glide-grid_2ica

> <i_i_glide_lignum>
286

> <i_i_glide_rotatable_bonds>
9

> <r_i_docking_score>
-6.89378143020994

> <r_i_glide_ligand_efficiency>
-0.215430669694061

> <r_i_glide_ligand_efficiency_sa>
-0.683949742607001

> <r_i_glide_ligand_efficiency_ln>
-1.5437055796085

> <r_i_glide_gscore>
-6.89378143020994

> <r_i_glide_lipo>
-3.41914986972091

> <r_i_glide_hbond>
0

> <r_i_glide_metal>
0

> <r_i_glide_rewards>
-1.99458708108807

> <r_i_glide_evdw>
-32.5165061950684

> <r_i_glide_ecoul>
-2.91608715057373

> <r_i_glide_erotb>
0.583193902938517

> <r_i_glide_esite>
0

> <r_i_glide_emodel>
-37.6862293503679

> <r_i_glide_energy>
-35.4325933456421

> <r_i_glide_einternal>
6.88230848312378

> <i_i_glide_confnum>
2

> <i_i_glide_posenum>
18

> <r_i_glide_eff_state_penalty>
0

> <s_user_duplicate_titles>
161811

> <i_f3d_flags>
0

> <s_m_subgroup_title>
dock_pv

> <s_m_subgroupid>
dock_pv1

> <b_m_subgroup_collapsed>
0

$$$$
99700
                    3D
 Schrodinger Suite 2021-1.
 32 33  0  0  1  0            999 V2000
   -5.7010    0.4112   30.6798 C   0  0  0  0  0  0
   -6.9228    0.9960   30.3781 C   0  0  0  0  0  0
   -7.5177    0.7729   29.1419 C   0  0  0  0  0  0
   -6.8904   -0.0450   28.1747 C   0  0  0  0  0  0
   -5.6356   -0.6106   28.4837 C   0  0  0  0  0  0
   -5.0645   -0.3889   29.7317 C   0  0  0  0  0  0
   -4.7247   -1.5892   27.3764 Cl  0  0  0  0  0  0
   -7.5703   -0.3342   26.8611 C   0  0  0  0  0  0
   -7.5386   -1.4543   26.3543 O   0  0  0  0  0  0
   -8.2103    0.7120   26.3208 N   0  0  0  0  0  0
   -9.0076    0.7476   25.0954 C   0  0  1  0  0  0
  -10.1424   -0.3267   25.0854 C   0  0  0  0  0  0
  -11.2439   -0.1477   26.1023 C   0  0  0  0  0  0
  -11.2836   -0.3816   27.4577 C   0  0  0  0  0  0
  -12.5235    0.0117   27.9630 N   0  0  0  0  0  0
  -13.2025    0.4141   26.8961 C   0  0  0  0  0  0
  -12.4955    0.3378   25.7668 N   0  0  0  0  0  0
   -9.5069    2.1942   24.8937 C   0  0  0  0  0  0
   -9.3288    2.8102   23.8685 O   0  0  0  0  0  0
  -10.1735    2.6536   25.9952 O   0  0  0  0  0  0
   -8.7280    1.3384   28.9177 F   0  0  0  0  0  0
   -8.3233    0.5184   24.2760 H   0  0  0  0  0  0
  -12.8152    0.5973   24.8437 H   0  0  0  0  0  0
   -5.2454    0.5815   31.6429 H   0  0  0  0  0  0
   -7.4260    1.6120   31.1088 H   0  0  0  0  0  0
   -4.1124   -0.8342   29.9617 H   0  0  0  0  0  0
   -8.1395    1.5920   26.8098 H   0  0  0  0  0  0
   -9.7306   -1.3248   25.2285 H   0  0  0  0  0  0
  -10.5991   -0.3890   24.0990 H   0  0  0  0  0  0
  -10.5106   -0.7697   28.1049 H   0  0  0  0  0  0
  -14.2249    0.7628   26.9381 H   0  0  0  0  0  0
  -10.2903    1.9706   26.6610 H   0  0  0  0  0  0
  1  6  1  0  0  0
  1  2  2  0  0  0
  1 24  1  0  0  0
  2  3  1  0  0  0
  2 25  1  0  0  0
  3  4  2  0  0  0
  3 21  1  0  0  0
  4  5  1  0  0  0
  4  8  1  0  0  0
  5  6  2  0  0  0
  5  7  1  0  0  0
  6 26  1  0  0  0
  8  9  2  0  0  0
  8 10  1  0  0  0
 10 11  1  0  0  0
 10 27  1  0  0  0
 11 22  1  0  0  0
 11 12  1  0  0  0
 11 18  1  0  0  0
 12 28  1  0  0  0
 12 29  1  0  0  0
 12 13  1  0  0  0
 13 14  2  0  0  0
 13 17  1  0  0  0
 14 30  1  0  0  0
 14 15  1  0  0  0
 15 16  2  0  0  0
 16 17  1  0  0  0
 16 31  1  0  0  0
 17 23  1  0  0  0
 18 19  2  0  0  0
 18 20  1  0  0  0
 20 32  1  0  0  0
M  END
> <s_m_entry_id>
8547

> <s_m_entry_name>
ligand_docking-pose.14

> <s_m_Source_Path>
/home/csk/Desktop/cluster/DUD-E-result/ital

> <s_m_Source_File>
ligand_docking-pose.sdf

> <i_m_Source_File_Index>
14

> <i_lp_mmshare_version>
53161

> <r_lp_tautomer_probability>
0.499999999999999

> <s_lp_Force_Field>
OPLS_2005

> <r_lp_Energy>
11.43819

> <b_lp_Chiralities_Consistent>
1

> <s_lp_Variant>
99700-2

> <s_i_glide_gridfile>
glide-grid_2ica

> <i_i_glide_lignum>
52

> <i_i_glide_rotatable_bonds>
7

> <r_i_docking_score>
-6.86137667158658

> <r_i_glide_ligand_efficiency>
-0.326732222456504

> <r_i_glide_ligand_efficiency_sa>
-0.901429426823176

> <r_i_glide_ligand_efficiency_ln>
-1.69646151733274

> <r_i_glide_gscore>
-6.86137667158658

> <r_i_glide_lipo>
-2.66045244824507

> <r_i_glide_hbond>
-0.316551694425117

> <r_i_glide_metal>
0

> <r_i_glide_rewards>
-2.84533957726719

> <r_i_glide_evdw>
-31.1657409667969

> <r_i_glide_ecoul>
-1.49270176887512

> <r_i_glide_erotb>
0.763692602097559

> <r_i_glide_esite>
-0.0205332400756426

> <r_i_glide_emodel>
-45.2625744056909

> <r_i_glide_energy>
-32.658442735672

> <r_i_glide_einternal>
2.59558486938477

> <i_i_glide_confnum>
6

> <i_i_glide_posenum>
28

> <r_i_glide_eff_state_penalty>
0

> <s_user_duplicate_titles>
99700

> <i_f3d_flags>
0

> <s_m_subgroup_title>
dock_pv

> <s_m_subgroupid>
dock_pv1

> <b_m_subgroup_collapsed>
0

$$$$
99568
                    3D
 Schrodinger Suite 2021-1.
 29 29  0  0  1  0            999 V2000
   -4.9404   -1.2227   27.6937 C   0  0  0  0  0  0
   -5.8657   -0.8613   26.7230 C   0  0  0  0  0  0
   -6.9701   -0.0797   27.0465 C   0  0  0  0  0  0
   -7.1733    0.3739   28.3708 C   0  0  0  0  0  0
   -6.2098    0.0110   29.3394 C   0  0  0  0  0  0
   -5.1133   -0.7816   28.9981 C   0  0  0  0  0  0
   -6.3053    0.4112   30.6303 F   0  0  0  0  0  0
   -8.3828    1.2110   28.7628 C   0  0  0  0  0  0
   -8.5417    1.6109   29.9158 O   0  0  0  0  0  0
   -9.2843    1.4685   27.7984 N   0  0  0  0  0  0
  -10.5598    2.1843   27.9426 C   0  0  1  0  0  0
  -11.1924    2.4840   26.5493 C   0  0  0  0  0  0
  -10.2639    3.1765   25.5433 C   0  0  0  0  0  0
   -9.7273    2.5335   24.6428 O   0  0  0  0  0  0
  -10.0754    4.4874   25.6936 N   0  0  0  0  0  0
  -11.5357    1.3834   28.8353 C   0  0  0  0  0  0
  -12.0392    0.3334   28.4939 O   0  0  0  0  0  0
  -11.7297    2.0110   30.0323 O   0  0  0  0  0  0
   -7.8237    0.2167   26.0374 F   0  0  0  0  0  0
  -10.3334    3.1402   28.4197 H   0  0  0  0  0  0
   -4.0919   -1.8377   27.4346 H   0  0  0  0  0  0
   -5.7323   -1.1887   25.7035 H   0  0  0  0  0  0
   -4.3908   -1.0492   29.7537 H   0  0  0  0  0  0
   -9.0871    1.1084   26.8740 H   0  0  0  0  0  0
  -12.0882    3.0961   26.6664 H   0  0  0  0  0  0
  -11.5320    1.5560   26.0841 H   0  0  0  0  0  0
   -9.4729    4.9803   25.0514 H   0  0  0  0  0  0
  -10.5371    4.9965   26.4322 H   0  0  0  0  0  0
  -11.2793    2.8638   30.0941 H   0  0  0  0  0  0
  1  6  1  0  0  0
  1  2  2  0  0  0
  1 21  1  0  0  0
  2  3  1  0  0  0
  2 22  1  0  0  0
  3  4  2  0  0  0
  3 19  1  0  0  0
  4  5  1  0  0  0
  4  8  1  0  0  0
  5  6  2  0  0  0
  5  7  1  0  0  0
  6 23  1  0  0  0
  8  9  2  0  0  0
  8 10  1  0  0  0
 10 11  1  0  0  0
 10 24  1  0  0  0
 11 20  1  0  0  0
 11 12  1  0  0  0
 11 16  1  0  0  0
 12 13  1  0  0  0
 12 25  1  0  0  0
 12 26  1  0  0  0
 13 14  2  0  0  0
 13 15  1  0  0  0
 15 27  1  0  0  0
 15 28  1  0  0  0
 16 17  2  0  0  0
 16 18  1  0  0  0
 18 29  1  0  0  0
M  END
> <s_m_entry_id>
8548

> <s_m_entry_name>
ligand_docking-pose.15

> <s_m_Source_Path>
/home/csk/Desktop/cluster/DUD-E-result/ital

> <s_m_Source_File>
ligand_docking-pose.sdf

> <i_m_Source_File_Index>
15

> <i_lp_mmshare_version>
53161

> <r_lp_tautomer_probability>
1

> <s_lp_Force_Field>
OPLS_2005

> <r_lp_Energy>
1.864736

> <b_lp_Chiralities_Consistent>
1

> <s_lp_Variant>
99568-1

> <s_i_glide_gridfile>
glide-grid_2ica

> <i_i_glide_lignum>
67

> <i_i_glide_rotatable_bonds>
7

> <r_i_docking_score>
-6.85795019312415

> <r_i_glide_ligand_efficiency>
-0.360944747006534

> <r_i_glide_ligand_efficiency_sa>
-0.963145557064454

> <r_i_glide_ligand_efficiency_ln>
-1.73863766922144

> <r_i_glide_gscore>
-6.85795019312415

> <r_i_glide_lipo>
-1.76649410557405

> <r_i_glide_hbond>
-0.216221273351253

> <r_i_glide_metal>
0

> <r_i_glide_rewards>
-3.52876607488535

> <r_i_glide_evdw>
-27.2643756866455

> <r_i_glide_ecoul>
-6.33680438995361

> <r_i_glide_erotb>
0.967270703511823

> <r_i_glide_esite>
0

> <r_i_glide_emodel>
-46.5514541845203

> <r_i_glide_energy>
-33.6011800765991

> <r_i_glide_einternal>
3.69387269020081

> <i_i_glide_confnum>
12

> <i_i_glide_posenum>
336

> <r_i_glide_eff_state_penalty>
0

> <s_user_duplicate_titles>
99568

> <i_f3d_flags>
0

> <s_m_subgroup_title>
dock_pv

> <s_m_subgroupid>
dock_pv1

> <b_m_subgroup_collapsed>
0

$$$$
314381
                    3D
 Schrodinger Suite 2021-1.
 43 46  0  0  1  0            999 V2000
  -10.6516   -1.9846   27.7262 C   0  0  0  0  0  0
  -11.1062   -0.5599   27.5648 C   0  0  0  0  0  0
  -12.1146    0.2116   28.1439 C   0  0  0  0  0  0
  -12.1582    1.4526   27.6851 N   0  0  0  0  0  0
  -11.1886    1.4846   26.8063 C   0  0  0  0  0  0
  -10.5248    0.3130   26.6884 N   0  0  0  0  0  0
   -9.5059    0.3626   25.6830 C   0  0  2  0  0  0
   -9.6187    1.8455   25.2501 C   0  0  0  0  0  0
   -8.9289    2.3781   24.3802 O   0  0  0  0  0  0
  -10.6321    2.4131   25.9590 N   0  0  0  0  0  0
  -11.1313    3.7136   25.7899 C   0  0  0  0  0  0
  -11.5425    4.1588   24.5268 C   0  0  0  0  0  0
  -12.0425    5.4498   24.3687 C   0  0  0  0  0  0
  -12.1302    6.3054   25.4687 C   0  0  0  0  0  0
  -11.7283    5.8640   26.7311 C   0  0  0  0  0  0
  -11.2359    4.5687   26.8937 C   0  0  0  0  0  0
  -11.8294    6.9192   28.0944 Cl  0  0  0  0  0  0
  -12.5567    5.9754   22.8083 Cl  0  0  0  0  0  0
   -9.9203   -0.5393   24.4970 C   0  0  0  0  0  0
   -8.0578   -0.0111   26.1524 C   0  0  0  0  0  0
   -7.5411    0.3216   27.5567 C   0  0  0  0  0  0
   -8.1237    1.2800   28.3951 C   0  0  0  0  0  0
   -7.6296    1.4777   29.6798 C   0  0  0  0  0  0
   -6.5285    0.7490   30.1183 C   0  0  0  0  0  0
   -5.9035   -0.1638   29.2763 C   0  0  0  0  0  0
   -6.4170   -0.3847   28.0027 C   0  0  0  0  0  0
   -5.8547    1.0003   31.8770 Br  0  0  0  0  0  0
  -10.9665   -2.3889   28.6860 H   0  0  0  0  0  0
  -11.0482   -2.6301   26.9416 H   0  0  0  0  0  0
   -9.5648   -2.0607   27.6937 H   0  0  0  0  0  0
  -12.8172   -0.1199   28.8904 H   0  0  0  0  0  0
  -11.4781    3.5055   23.6677 H   0  0  0  0  0  0
  -12.5131    7.3079   25.3438 H   0  0  0  0  0  0
  -10.9359    4.2330   27.8766 H   0  0  0  0  0  0
   -9.2638   -0.3986   23.6400 H   0  0  0  0  0  0
   -9.8414   -1.5877   24.7737 H   0  0  0  0  0  0
  -10.9538   -0.3881   24.1784 H   0  0  0  0  0  0
   -7.3327    0.3788   25.4393 H   0  0  0  0  0  0
   -7.9670   -1.0948   26.0660 H   0  0  0  0  0  0
   -8.9601    1.8808   28.0835 H   0  0  0  0  0  0
   -8.0995    2.1971   30.3315 H   0  0  0  0  0  0
   -5.0403   -0.7170   29.6170 H   0  0  0  0  0  0
   -5.9389   -1.1140   27.3640 H   0  0  0  0  0  0
  1  2  1  0  0  0
  1 28  1  0  0  0
  1 29  1  0  0  0
  1 30  1  0  0  0
  2  6  1  0  0  0
  2  3  2  0  0  0
  3  4  1  0  0  0
  3 31  1  0  0  0
  4  5  2  0  0  0
  5 10  1  0  0  0
  5  6  1  0  0  0
  6  7  1  0  0  0
  7  8  1  0  0  0
  7 19  1  0  0  0
  7 20  1  0  0  0
  8  9  2  0  0  0
  8 10  1  0  0  0
 10 11  1  0  0  0
 11 16  1  0  0  0
 11 12  2  0  0  0
 12 13  1  0  0  0
 12 32  1  0  0  0
 13 14  2  0  0  0
 13 18  1  0  0  0
 14 15  1  0  0  0
 14 33  1  0  0  0
 15 16  2  0  0  0
 15 17  1  0  0  0
 16 34  1  0  0  0
 19 35  1  0  0  0
 19 36  1  0  0  0
 19 37  1  0  0  0
 20 21  1  0  0  0
 20 38  1  0  0  0
 20 39  1  0  0  0
 21 26  1  0  0  0
 21 22  2  0  0  0
 22 23  1  0  0  0
 22 40  1  0  0  0
 23 24  2  0  0  0
 23 41  1  0  0  0
 24 25  1  0  0  0
 24 27  1  0  0  0
 25 26  2  0  0  0
 25 42  1  0  0  0
 26 43  1  0  0  0
M  END
> <s_m_entry_id>
8549

> <s_m_entry_name>
ligand_docking-pose.16

> <s_m_Source_Path>
/home/csk/Desktop/cluster/DUD-E-result/ital

> <s_m_Source_File>
ligand_docking-pose.sdf

> <i_m_Source_File_Index>
16

> <i_lp_mmshare_version>
53161

> <r_lp_tautomer_probability>
1

> <s_lp_Force_Field>
OPLS_2005

> <r_lp_Energy>
54.363806

> <b_lp_Chiralities_Consistent>
1

> <s_lp_Variant>
314381-2

> <s_i_glide_gridfile>
glide-grid_2ica

> <i_i_glide_lignum>
151

> <i_i_glide_rotatable_bonds>
3

> <r_i_docking_score>
-6.8540519568206

> <r_i_glide_ligand_efficiency>
-0.253853776178541

> <r_i_glide_ligand_efficiency_sa>
-0.761561327698961

> <r_i_glide_ligand_efficiency_ln>
-1.59551029767006

> <r_i_glide_gscore>
-6.8540519568206

> <r_i_glide_lipo>
-3.52657137906464

> <r_i_glide_hbond>
-0.132228041811218

> <r_i_glide_metal>
0

> <r_i_glide_rewards>
-1.26449563072208

> <r_i_glide_evdw>
-38.2295455932617

> <r_i_glide_ecoul>
-1.98342895507812

> <r_i_glide_erotb>
0.279573911168858

> <r_i_glide_esite>
-0.00133919346671705

> <r_i_glide_emodel>
-48.6315362839978

> <r_i_glide_energy>
-40.2129745483398

> <r_i_glide_einternal>
11.4167928695679

> <i_i_glide_confnum>
11

> <i_i_glide_posenum>
215

> <r_i_glide_eff_state_penalty>
0

> <s_user_duplicate_titles>
314381

> <i_f3d_flags>
0

> <s_m_subgroup_title>
dock_pv

> <s_m_subgroupid>
dock_pv1

> <b_m_subgroup_collapsed>
0

$$$$
